1a_Grossjean_2025
     RDKit          3D

 26 27  0  0  0  0  0  0  0  0999 V2000
  124.5160  130.2150   65.3350 C   0  0  0  0  0  0  0  0  0  0  0  0
  123.9270  129.1850   66.3030 C   0  0  0  0  0  0  0  0  0  0  0  0
  124.0560  129.6600   67.6370 O   0  0  0  0  0  0  0  0  0  0  0  0
  124.6820  128.9190   68.5880 C   0  0  0  0  0  0  0  0  0  0  0  0
  124.1350  128.5540   69.6340 O   0  0  0  0  0  0  0  0  0  0  0  0
  126.1090  128.6010   68.2490 C   0  0  0  0  0  0  0  0  0  0  0  0
  126.6820  127.4190   68.7370 C   0  0  0  0  0  0  0  0  0  0  0  0
  128.0040  127.0990   68.4430 C   0  0  0  0  0  0  0  0  0  0  0  0
  128.7820  127.9520   67.6600 C   0  0  0  0  0  0  0  0  0  0  0  0
  130.1060  127.5310   67.4290 N   0  0  0  0  0  0  0  0  0  0  0  0
  130.6820  126.3270   67.6330 C   0  0  0  0  0  0  0  0  0  0  0  0
  130.1160  125.3300   68.0810 O   0  0  0  0  0  0  0  0  0  0  0  0
  132.1640  126.2390   67.2630 C   0  0  0  0  0  0  0  0  0  0  0  0
  132.4200  126.1960   65.4630 S   0  0  0  0  0  0  0  0  0  0  0  0
  131.9030  124.5940   64.8880 C   0  0  0  0  0  0  0  0  0  0  0  0
  130.7400  124.1640   65.4370 N   0  0  0  0  0  0  0  0  0  0  0  0
  130.2570  122.9530   65.0730 C   0  0  0  0  0  0  0  0  0  0  0  0
  128.9590  122.5330   65.7380 C   0  0  0  0  0  0  0  0  0  0  0  0
  130.9010  122.1340   64.1480 C   0  0  0  0  0  0  0  0  0  0  0  0
  132.0900  122.5770   63.5600 C   0  0  0  0  0  0  0  0  0  0  0  0
  132.7700  121.6690   62.5370 C   0  0  0  0  0  0  0  0  0  0  0  0
  132.6120  123.8400   63.9220 C   0  0  0  0  0  0  0  0  0  0  0  0
  133.8300  124.3460   63.2840 C   0  0  0  0  0  0  0  0  0  0  0  0
  134.7910  124.7440   62.7780 N   0  0  0  0  0  0  0  0  0  0  0  0
  128.2150  129.1340   67.1600 C   0  0  0  0  0  0  0  0  0  0  0  0
  126.8920  129.4540   67.4550 C   0  0  0  0  0  0  0  0  0  0  0  0
  1  2  1  0
  2  3  1  0
  3  4  1  0
  4  5  2  0
  4  6  1  0
  6  7  2  0
  7  8  1  0
  8  9  2  0
  9 10  1  0
 10 11  1  0
 11 12  2  0
 11 13  1  0
 13 14  1  0
 14 15  1  0
 15 16  2  0
 16 17  1  0
 17 18  1  0
 17 19  2  0
 19 20  1  0
 20 21  1  0
 20 22  2  0
 22 23  1  0
 23 24  3  0
  9 25  1  0
 25 26  2  0
 26  6  1  0
 22 15  1  0
M  END
>  <Binding energies>  (1) 
[-7.12]

>  <Ligand effiencies>  (1) 
[-0.2637037037037037]

>  <Interactions>  (1) 
["V-B:ARG:545:CG:9893, V-B:GLU:543:CB:9877, V-A:GLU:543:CG:4906, V-B:GLU:543:CD:9879, V-B:HIS:456:CE1:9040, H-A:GLY:454:N:4049, V-A:HIS:456:CE1:4069, V-A:GLU:543:CD:4907, V-A:GLY:454:CA:4048, V-B:ARG:545:CZ:9897, H-B:TYR:484:OH:9318, H-A:ARG:545:NH2:4927, V-B:ARG:545:CD:9894, V-B:TYR:484:CZ:9317, V-A:TYR:484:CZ:4346, V-B:ALA:541:CB:9863, H-A:ARG:545:NE:4923, H-A:TYR:484:OH:4347, H-A:GLU:543:OE2:4909, V-B:GLU:543:CG:9878, V-A:TYR:484:CE2:4345, V-A:LEU:475:CD2:4258, V-B:ARG:545:CA:9890, V-B:ARG:545:CB:9892, V-B:GLY:454:CA:9019, V-A:GLY:453:C:4041, H-B:HIS:456:ND1:9037, V-A:LEU:475:CD1:4257, H-A:GLU:543:OE1:4908"]

$$$$
1aa_Ghoteimi_2023
     RDKit          3D

 40 43  0  0  0  0  0  0  0  0999 V2000
  130.5710  117.2760   61.1280 C   0  0  0  0  0  0  0  0  0  0  0  0
  131.0940  118.6430   60.6760 C   0  0  0  0  0  0  0  0  0  0  0  0
  132.1720  119.0380   61.5160 O   0  0  0  0  0  0  0  0  0  0  0  0
  132.9690  120.0870   61.1870 C   0  0  0  0  0  0  0  0  0  0  0  0
  133.7470  120.0760   60.2280 O   0  0  0  0  0  0  0  0  0  0  0  0
  132.8100  121.2640   62.1060 C   0  0  0  0  0  0  0  0  0  0  0  0
  133.8610  122.1610   62.3510 C   0  0  0  0  0  0  0  0  0  0  0  0
  133.6850  123.2450   63.2080 C   0  0  0  0  0  0  0  0  0  0  0  0
  132.4470  123.4530   63.8350 C   0  0  0  0  0  0  0  0  0  0  0  0
  132.1540  124.5090   64.7170 N   0  0  0  0  0  0  0  0  0  0  0  0
  132.9660  125.4350   65.2760 C   0  0  0  0  0  0  0  0  0  0  0  0
  134.1800  125.5150   65.0850 O   0  0  0  0  0  0  0  0  0  0  0  0
  132.3180  126.4640   66.2170 C   0  0  0  0  0  0  0  0  0  0  0  0
  131.0140  126.0250   66.6190 O   0  0  0  0  0  0  0  0  0  0  0  0
  130.1340  126.9060   67.2300 C   0  0  0  0  0  0  0  0  0  0  0  0
  130.0340  126.8730   68.5880 N   0  0  0  0  0  0  0  0  0  0  0  0
  129.1730  127.7120   69.2230 C   0  0  0  0  0  0  0  0  0  0  0  0
  129.1230  127.6150   70.7200 C   0  0  0  0  0  0  0  0  0  0  0  0
  128.4270  126.5750   71.3540 C   0  0  0  0  0  0  0  0  0  0  0  0
  128.3780  126.4840   72.7420 C   0  0  0  0  0  0  0  0  0  0  0  0
  129.0230  127.4260   73.5390 C   0  0  0  0  0  0  0  0  0  0  0  0
  128.9200  127.2570   74.9070 O   0  0  0  0  0  0  0  0  0  0  0  0
  128.8870  128.4040   75.7480 C   0  0  0  0  0  0  0  0  0  0  0  0
  129.7280  128.4680   72.9210 C   0  0  0  0  0  0  0  0  0  0  0  0
  129.7760  128.5560   71.5330 C   0  0  0  0  0  0  0  0  0  0  0  0
  128.4000  128.6250   68.4950 C   0  0  0  0  0  0  0  0  0  0  0  0
  128.4920  128.6870   67.0980 C   0  0  0  0  0  0  0  0  0  0  0  0
  127.6490  129.6890   66.3810 C   0  0  0  0  0  0  0  0  0  0  0  0
  128.1140  130.9950   66.1950 C   0  0  0  0  0  0  0  0  0  0  0  0
  127.3380  131.9320   65.5200 C   0  0  0  0  0  0  0  0  0  0  0  0
  126.0870  131.5850   65.0120 C   0  0  0  0  0  0  0  0  0  0  0  0
  125.3880  132.5800   64.3570 O   0  0  0  0  0  0  0  0  0  0  0  0
  124.3910  132.2190   63.4070 C   0  0  0  0  0  0  0  0  0  0  0  0
  125.6200  130.2740   65.1900 C   0  0  0  0  0  0  0  0  0  0  0  0
  126.3960  129.3380   65.8660 C   0  0  0  0  0  0  0  0  0  0  0  0
  129.3780  127.7960   66.4490 C   0  0  0  0  0  0  0  0  0  0  0  0
  129.5090  127.7570   64.9910 C   0  0  0  0  0  0  0  0  0  0  0  0
  129.6140  127.7250   63.8390 N   0  0  0  0  0  0  0  0  0  0  0  0
  131.4010  122.5610   63.5940 C   0  0  0  0  0  0  0  0  0  0  0  0
  131.5790  121.4780   62.7390 C   0  0  0  0  0  0  0  0  0  0  0  0
  1  2  1  0
  2  3  1  0
  3  4  1  0
  4  5  2  0
  4  6  1  0
  6  7  2  0
  7  8  1  0
  8  9  2  0
  9 10  1  0
 10 11  1  0
 11 12  2  0
 11 13  1  0
 13 14  1  0
 14 15  1  0
 15 16  2  0
 16 17  1  0
 17 18  1  0
 18 19  2  0
 19 20  1  0
 20 21  2  0
 21 22  1  0
 22 23  1  0
 21 24  1  0
 24 25  2  0
 17 26  2  0
 26 27  1  0
 27 28  1  0
 28 29  2  0
 29 30  1  0
 30 31  2  0
 31 32  1  0
 32 33  1  0
 31 34  1  0
 34 35  2  0
 27 36  2  0
 36 37  1  0
 37 38  3  0
  9 39  1  0
 39 40  2  0
 40  6  1  0
 36 15  1  0
 25 18  1  0
 35 28  1  0
M  END
>  <Binding energies>  (2) 
[-8.5]

>  <Ligand effiencies>  (2) 
[-0.2073170731707317]

>  <Interactions>  (2) 
["V-A:GLU:543:CB:4905, V-A:GLU:543:CG:4906, V-B:GLU:543:CD:9879, V-B:HIS:456:CE1:9040, H-A:GLY:454:N:4049, V-A:HIS:456:CE1:4069, H-A:ARG:545:NH1:4926, V-A:GLU:543:CD:4907, V-A:GLY:454:CA:4048, V-B:LEU:475:CD1:9228, H-A:ARG:545:NH2:4927, V-B:TYR:484:CZ:9317, V-B:TYR:484:CE2:9316, V-A:ARG:545:CZ:4925, V-B:TYR:539:CD2:9845, H-A:ARG:545:NE:4923, H-A:TYR:484:OH:4347, V-A:PRO:482:CG:4326, V-A:PRO:482:CB:4325, V-B:TYR:539:CB:9842, V-A:SER:385:CB:3408, V-A:SER:385:CA:3406, V-A:LEU:475:CD2:4258, V-B:GLY:454:CA:9019, H-B:GLU:543:OE2:9881, V-A:ILE:369:CD1:3238, V-A:HIS:383:CE1:3393, H-B:LYS:547:NZ:9922"]

$$$$
1b_Grossjean_2025
     RDKit          3D

 25 26  0  0  0  0  0  0  0  0999 V2000
  123.8480  129.2630   65.9710 C   0  0  0  0  0  0  0  0  0  0  0  0
  124.1090  129.8710   67.2290 O   0  0  0  0  0  0  0  0  0  0  0  0
  124.6040  129.1470   68.2650 C   0  0  0  0  0  0  0  0  0  0  0  0
  123.9480  128.8670   69.2740 O   0  0  0  0  0  0  0  0  0  0  0  0
  126.0270  128.7120   68.0600 C   0  0  0  0  0  0  0  0  0  0  0  0
  126.8370  129.2710   67.0600 C   0  0  0  0  0  0  0  0  0  0  0  0
  128.1510  128.8450   66.8960 C   0  0  0  0  0  0  0  0  0  0  0  0
  128.6840  127.8560   67.7230 C   0  0  0  0  0  0  0  0  0  0  0  0
  130.0230  127.5030   67.4650 N   0  0  0  0  0  0  0  0  0  0  0  0
  130.6360  126.3020   67.5430 C   0  0  0  0  0  0  0  0  0  0  0  0
  130.0990  125.2440   67.8670 O   0  0  0  0  0  0  0  0  0  0  0  0
  132.1220  126.3010   67.1790 C   0  0  0  0  0  0  0  0  0  0  0  0
  132.3870  126.2230   65.3820 S   0  0  0  0  0  0  0  0  0  0  0  0
  131.8830  124.6040   64.8400 C   0  0  0  0  0  0  0  0  0  0  0  0
  130.7560  124.1520   65.4450 N   0  0  0  0  0  0  0  0  0  0  0  0
  130.2820  122.9310   65.1060 C   0  0  0  0  0  0  0  0  0  0  0  0
  129.0100  122.4970   65.8120 C   0  0  0  0  0  0  0  0  0  0  0  0
  130.9120  122.1130   64.1700 C   0  0  0  0  0  0  0  0  0  0  0  0
  132.0860  122.5610   63.5570 C   0  0  0  0  0  0  0  0  0  0  0  0
  132.7670  121.6410   62.5460 C   0  0  0  0  0  0  0  0  0  0  0  0
  132.6000  123.8340   63.8950 C   0  0  0  0  0  0  0  0  0  0  0  0
  133.8530  124.3050   63.3000 C   0  0  0  0  0  0  0  0  0  0  0  0
  134.8420  124.6750   62.8280 N   0  0  0  0  0  0  0  0  0  0  0  0
  127.8810  127.2920   68.7250 C   0  0  0  0  0  0  0  0  0  0  0  0
  126.5660  127.7200   68.8890 C   0  0  0  0  0  0  0  0  0  0  0  0
  1  2  1  0
  2  3  1  0
  3  4  2  0
  3  5  1  0
  5  6  2  0
  6  7  1  0
  7  8  2  0
  8  9  1  0
  9 10  1  0
 10 11  2  0
 10 12  1  0
 12 13  1  0
 13 14  1  0
 14 15  2  0
 15 16  1  0
 16 17  1  0
 16 18  2  0
 18 19  1  0
 19 20  1  0
 19 21  2  0
 21 22  1  0
 22 23  3  0
  8 24  1  0
 24 25  2  0
 25  5  1  0
 21 14  1  0
M  END
>  <Binding energies>  (3) 
[-7.36]

>  <Ligand effiencies>  (3) 
[-0.2830769230769231]

>  <Interactions>  (3) 
["V-B:ARG:545:CG:9893, V-B:GLU:543:CB:9877, V-B:GLU:543:CD:9879, V-B:HIS:456:CE1:9040, H-A:GLY:454:N:4049, V-A:HIS:456:CE1:4069, V-A:GLU:543:CD:4907, V-A:GLY:454:CA:4048, V-B:ARG:545:CZ:9897, H-B:TYR:484:OH:9318, H-A:ARG:545:NH2:4927, V-B:ARG:545:CD:9894, H-B:GLY:454:N:9020, V-B:TYR:484:CZ:9317, V-A:TYR:484:CZ:4346, V-B:ALA:541:CB:9863, H-A:ARG:545:NE:4923, H-A:TYR:484:OH:4347, V-B:GLU:543:CG:9878, V-A:TYR:484:CE2:4345, V-A:LEU:475:CD2:4258, V-A:GLY:453:C:4041, H-B:HIS:456:ND1:9037, V-A:LEU:475:CD1:4257, H-A:GLU:543:OE1:4908"]

$$$$
1c_Grossjean_2025
     RDKit          3D

 23 24  0  0  0  0  0  0  0  0999 V2000
  133.6970  124.8920   63.0400 C   0  0  0  0  0  0  0  0  0  0  0  0
  134.1000  125.1280   64.3850 O   0  0  0  0  0  0  0  0  0  0  0  0
  133.1850  125.6450   65.2810 C   0  0  0  0  0  0  0  0  0  0  0  0
  131.8700  125.7610   64.8300 C   0  0  0  0  0  0  0  0  0  0  0  0
  130.8750  126.2690   65.6600 C   0  0  0  0  0  0  0  0  0  0  0  0
  131.1880  126.6650   66.9690 C   0  0  0  0  0  0  0  0  0  0  0  0
  130.2640  127.2010   67.8870 N   0  0  0  0  0  0  0  0  0  0  0  0
  130.4540  128.1210   68.8570 C   0  0  0  0  0  0  0  0  0  0  0  0
  131.5180  128.6890   69.1040 O   0  0  0  0  0  0  0  0  0  0  0  0
  129.2170  128.4620   69.6890 C   0  0  0  0  0  0  0  0  0  0  0  0
  127.7450  127.5650   69.1130 S   0  0  0  0  0  0  0  0  0  0  0  0
  127.2060  128.2950   67.5800 C   0  0  0  0  0  0  0  0  0  0  0  0
  128.1720  128.3240   66.6270 N   0  0  0  0  0  0  0  0  0  0  0  0
  127.8790  128.8580   65.4180 C   0  0  0  0  0  0  0  0  0  0  0  0
  129.0060  128.8460   64.4020 C   0  0  0  0  0  0  0  0  0  0  0  0
  126.6280  129.3880   65.1150 C   0  0  0  0  0  0  0  0  0  0  0  0
  125.6320  129.3850   66.0960 C   0  0  0  0  0  0  0  0  0  0  0  0
  124.2730  129.9880   65.7450 C   0  0  0  0  0  0  0  0  0  0  0  0
  125.9160  128.8350   67.3680 C   0  0  0  0  0  0  0  0  0  0  0  0
  124.9030  128.8730   68.4260 C   0  0  0  0  0  0  0  0  0  0  0  0
  124.1030  128.9030   69.2610 N   0  0  0  0  0  0  0  0  0  0  0  0
  132.5050  126.5610   67.4200 C   0  0  0  0  0  0  0  0  0  0  0  0
  133.4970  126.0530   66.5870 C   0  0  0  0  0  0  0  0  0  0  0  0
  1  2  1  0
  2  3  1  0
  3  4  2  0
  4  5  1  0
  5  6  2  0
  6  7  1  0
  7  8  1  0
  8  9  2  0
  8 10  1  0
 10 11  1  0
 11 12  1  0
 12 13  2  0
 13 14  1  0
 14 15  1  0
 14 16  2  0
 16 17  1  0
 17 18  1  0
 17 19  2  0
 19 20  1  0
 20 21  3  0
  6 22  1  0
 22 23  2  0
 23  3  1  0
 19 12  1  0
M  END
>  <Binding energies>  (4) 
[-6.68]

>  <Ligand effiencies>  (4) 
[-0.2783333333333333]

>  <Interactions>  (4) 
["V-B:ARG:545:CG:9893, V-A:GLU:543:CB:4905, V-B:GLU:543:CD:9879, V-B:HIS:456:CE1:9040, H-A:GLY:454:N:4049, V-A:HIS:456:CE1:4069, H-A:ARG:545:NH1:4926, V-A:GLU:543:CD:4907, V-B:ARG:545:CZ:9897, H-B:TYR:484:OH:9318, H-A:ARG:545:NH2:4927, V-A:ARG:545:CZ:4925, V-A:ASP:366:CG:3212, V-A:ARG:545:CD:4922, V-A:ARG:545:CG:4921, V-B:GLY:454:CA:9019, H-B:GLU:543:OE2:9881, H-B:HIS:456:ND1:9037"]

$$$$
1d_Grossjean_2025
     RDKit          3D

 21 22  0  0  0  0  0  0  0  0999 V2000
  121.0750  130.7500   62.1160 C   0  0  0  0  0  0  0  0  0  0  0  0
  122.4220  131.1580   62.6810 C   0  0  0  0  0  0  0  0  0  0  0  0
  123.0260  132.3630   62.3310 C   0  0  0  0  0  0  0  0  0  0  0  0
  124.2650  132.6920   62.8910 C   0  0  0  0  0  0  0  0  0  0  0  0
  124.9000  134.0260   62.5040 C   0  0  0  0  0  0  0  0  0  0  0  0
  124.8770  131.7900   63.7920 C   0  0  0  0  0  0  0  0  0  0  0  0
  126.1510  132.1340   64.4270 C   0  0  0  0  0  0  0  0  0  0  0  0
  127.1570  132.4090   64.9280 N   0  0  0  0  0  0  0  0  0  0  0  0
  124.2030  130.5780   64.0710 C   0  0  0  0  0  0  0  0  0  0  0  0
  124.8270  129.3310   65.1770 S   0  0  0  0  0  0  0  0  0  0  0  0
  123.7660  129.3350   66.6540 C   0  0  0  0  0  0  0  0  0  0  0  0
  124.5340  128.9420   67.9160 C   0  0  0  0  0  0  0  0  0  0  0  0
  124.1320  129.3360   69.0110 O   0  0  0  0  0  0  0  0  0  0  0  0
  125.6090  128.1500   67.7160 N   0  0  0  0  0  0  0  0  0  0  0  0
  126.5310  127.6280   68.6420 C   0  0  0  0  0  0  0  0  0  0  0  0
  125.9760  126.9950   69.7580 C   0  0  0  0  0  0  0  0  0  0  0  0
  126.7980  126.4390   70.7330 C   0  0  0  0  0  0  0  0  0  0  0  0
  128.1820  126.5090   70.5900 C   0  0  0  0  0  0  0  0  0  0  0  0
  128.7490  127.1290   69.4790 C   0  0  0  0  0  0  0  0  0  0  0  0
  127.9280  127.6870   68.5030 C   0  0  0  0  0  0  0  0  0  0  0  0
  122.9910  130.2780   63.5390 N   0  0  0  0  0  0  0  0  0  0  0  0
  1  2  1  0
  2  3  2  0
  3  4  1  0
  4  5  1  0
  4  6  2  0
  6  7  1  0
  7  8  3  0
  6  9  1  0
  9 10  1  0
 10 11  1  0
 11 12  1  0
 12 13  2  0
 12 14  1  0
 14 15  1  0
 15 16  2  0
 16 17  1  0
 17 18  2  0
 18 19  1  0
 19 20  2  0
  9 21  2  0
 21  2  1  0
 20 15  1  0
M  END
>  <Binding energies>  (5) 
[-6.99]

>  <Ligand effiencies>  (5) 
[-0.31772727272727275]

>  <Interactions>  (5) 
["V-B:ARG:545:CG:9893, V-B:GLU:543:CB:9877, V-B:GLU:543:CD:9879, V-B:HIS:456:CE1:9040, V-B:SER:385:CB:8379, H-B:ARG:545:NH2:9899, V-A:HIS:456:CE1:4069, V-B:LEU:475:CD1:9228, V-B:ARG:545:CZ:9897, H-B:TYR:484:OH:9318, V-B:ARG:545:CD:9894, H-B:GLY:454:N:9020, V-B:ASP:366:CG:8183, V-B:ILE:369:CG1:8208, V-B:GLU:543:C:9873, V-B:GLY:544:C:9883, H-B:ARG:545:NH1:9898, H-B:ARG:545:NE:9895, V-B:GLY:453:C:9012, V-B:GLY:453:CA:9014, V-B:ARG:545:CA:9890, V-B:ARG:545:CB:9892, V-B:GLY:454:CA:9019, H-B:GLU:543:OE2:9881, V-B:ASP:366:CA:8180, H-B:GLU:543:OE1:9880, H-B:HIS:456:ND1:9037, V-B:GLY:544:CA:9885"]

$$$$
1e_Grossjean_2025
     RDKit          3D

 22 23  0  0  0  0  0  0  0  0999 V2000
  122.6040  130.7300   62.4890 C   0  0  0  0  0  0  0  0  0  0  0  0
  123.7870  131.0710   63.3750 C   0  0  0  0  0  0  0  0  0  0  0  0
  124.7390  132.0190   62.9910 C   0  0  0  0  0  0  0  0  0  0  0  0
  125.8020  132.2790   63.8560 C   0  0  0  0  0  0  0  0  0  0  0  0
  125.8890  131.5930   65.0700 C   0  0  0  0  0  0  0  0  0  0  0  0
  124.8980  130.6590   65.3950 C   0  0  0  0  0  0  0  0  0  0  0  0
  125.0450  129.9920   66.6240 N   0  0  0  0  0  0  0  0  0  0  0  0
  124.0820  129.5620   67.4680 C   0  0  0  0  0  0  0  0  0  0  0  0
  122.8710  129.7040   67.2900 O   0  0  0  0  0  0  0  0  0  0  0  0
  124.5730  128.8780   68.7460 C   0  0  0  0  0  0  0  0  0  0  0  0
  125.6290  127.4420   68.3850 S   0  0  0  0  0  0  0  0  0  0  0  0
  127.0950  127.5450   69.3930 C   0  0  0  0  0  0  0  0  0  0  0  0
  127.0520  126.7470   70.4910 N   0  0  0  0  0  0  0  0  0  0  0  0
  128.1090  126.7420   71.3360 C   0  0  0  0  0  0  0  0  0  0  0  0
  127.9920  125.8210   72.5350 C   0  0  0  0  0  0  0  0  0  0  0  0
  129.2380  127.5320   71.1310 C   0  0  0  0  0  0  0  0  0  0  0  0
  129.2830  128.3760   70.0170 C   0  0  0  0  0  0  0  0  0  0  0  0
  130.5250  129.2460   69.8250 C   0  0  0  0  0  0  0  0  0  0  0  0
  128.1890  128.4010   69.1220 C   0  0  0  0  0  0  0  0  0  0  0  0
  128.1960  129.3220   67.9830 C   0  0  0  0  0  0  0  0  0  0  0  0
  128.2030  130.0500   67.0840 N   0  0  0  0  0  0  0  0  0  0  0  0
  123.8570  130.3970   64.5510 N   0  0  0  0  0  0  0  0  0  0  0  0
  1  2  1  0
  2  3  2  0
  3  4  1  0
  4  5  2  0
  5  6  1  0
  6  7  1  0
  7  8  1  0
  8  9  2  0
  8 10  1  0
 10 11  1  0
 11 12  1  0
 12 13  2  0
 13 14  1  0
 14 15  1  0
 14 16  2  0
 16 17  1  0
 17 18  1  0
 17 19  2  0
 19 20  1  0
 20 21  3  0
  6 22  2  0
 22  2  1  0
 19 12  1  0
M  END
>  <Binding energies>  (6) 
[-7.01]

>  <Ligand effiencies>  (6) 
[-0.30478260869565216]

>  <Interactions>  (6) 
["V-B:ARG:545:CG:9893, V-A:GLU:543:CB:4905, V-B:GLU:543:CB:9877, V-B:HIS:456:CE1:9040, V-A:HIS:456:CE1:4069, V-B:LEU:475:CD1:9228, H-B:TYR:484:OH:9318, V-B:ARG:545:CD:9894, H-B:GLY:454:N:9020, V-B:ASP:366:CG:8183, V-A:GLU:543:C:4901, V-B:TYR:484:CZ:9317, V-B:TYR:484:CE2:9316, V-A:GLU:543:CA:4903, V-B:GLU:543:C:9873, V-B:GLY:544:C:9883, H-B:ILE:455:N:9025, V-B:GLY:453:C:9012, V-B:GLY:453:CA:9014, V-B:ARG:545:CA:9890, V-B:ARG:545:CB:9892, V-B:GLY:454:CA:9019"]

$$$$
1f_Grossjean_2025
     RDKit          3D

 21 22  0  0  0  0  0  0  0  0999 V2000
  129.2720  127.1450   69.0640 C   0  0  0  0  0  0  0  0  0  0  0  0
  128.1400  127.7940   68.2910 C   0  0  0  0  0  0  0  0  0  0  0  0
  126.8980  128.0290   68.8750 C   0  0  0  0  0  0  0  0  0  0  0  0
  125.8880  128.6200   68.1090 C   0  0  0  0  0  0  0  0  0  0  0  0
  124.5280  128.8500   68.7660 C   0  0  0  0  0  0  0  0  0  0  0  0
  126.1540  128.9700   66.7650 C   0  0  0  0  0  0  0  0  0  0  0  0
  125.0920  129.5380   65.9300 C   0  0  0  0  0  0  0  0  0  0  0  0
  124.2520  129.9870   65.2730 N   0  0  0  0  0  0  0  0  0  0  0  0
  127.4520  128.7210   66.2630 C   0  0  0  0  0  0  0  0  0  0  0  0
  127.9710  129.0940   64.6000 S   0  0  0  0  0  0  0  0  0  0  0  0
  128.6460  127.5720   63.8510 C   0  0  0  0  0  0  0  0  0  0  0  0
  130.1400  127.3300   64.1130 C   0  0  0  0  0  0  0  0  0  0  0  0
  130.9750  127.5750   63.2410 O   0  0  0  0  0  0  0  0  0  0  0  0
  130.4210  126.8200   65.3310 N   0  0  0  0  0  0  0  0  0  0  0  0
  131.6640  126.4870   65.9020 C   0  0  0  0  0  0  0  0  0  0  0  0
  132.0060  126.6240   67.2600 C   0  0  0  0  0  0  0  0  0  0  0  0
  133.2810  126.2490   67.6930 C   0  0  0  0  0  0  0  0  0  0  0  0
  134.1830  125.7440   66.7570 C   0  0  0  0  0  0  0  0  0  0  0  0
  133.8760  125.5970   65.4440 N   0  0  0  0  0  0  0  0  0  0  0  0
  132.6340  125.9650   65.0380 C   0  0  0  0  0  0  0  0  0  0  0  0
  128.4180  128.1260   67.0080 N   0  0  0  0  0  0  0  0  0  0  0  0
  1  2  1  0
  2  3  2  0
  3  4  1  0
  4  5  1  0
  4  6  2  0
  6  7  1  0
  7  8  3  0
  6  9  1  0
  9 10  1  0
 10 11  1  0
 11 12  1  0
 12 13  2  0
 12 14  1  0
 14 15  1  0
 15 16  2  0
 16 17  1  0
 17 18  2  0
 18 19  1  0
 19 20  2  0
  9 21  2  0
 21  2  1  0
 20 15  1  0
M  END
>  <Binding energies>  (7) 
[-6.88]

>  <Ligand effiencies>  (7) 
[-0.31272727272727274]

>  <Interactions>  (7) 
["V-B:ARG:545:CG:9893, V-B:GLU:543:CD:9879, V-B:HIS:456:CE1:9040, H-A:GLY:454:N:4049, V-A:HIS:456:CE1:4069, H-A:ARG:545:NH1:4926, V-A:GLU:543:CD:4907, H-A:ARG:545:NH2:4927, V-B:ARG:545:CD:9894, H-B:GLY:454:N:9020, V-A:TYR:484:CZ:4346, V-A:ARG:545:CZ:4925, V-A:ARG:545:CD:4922, V-A:ARG:545:CG:4921, H-A:ARG:545:NE:4923, H-A:TYR:484:OH:4347, V-B:ARG:545:CA:9890, V-B:ARG:545:CB:9892, H-B:GLU:543:OE2:9881, H-A:GLU:543:OE1:4908"]

$$$$
1g_Grossjean_2025
     RDKit          3D

 22 23  0  0  0  0  0  0  0  0999 V2000
  129.3540  126.2480   63.2800 C   0  0  0  0  0  0  0  0  0  0  0  0
  130.6750  126.0930   64.0100 C   0  0  0  0  0  0  0  0  0  0  0  0
  131.8260  125.6640   63.3530 C   0  0  0  0  0  0  0  0  0  0  0  0
  133.0120  125.5240   64.0820 C   0  0  0  0  0  0  0  0  0  0  0  0
  134.2580  125.0380   63.3420 C   0  0  0  0  0  0  0  0  0  0  0  0
  133.0160  125.8270   65.4620 C   0  0  0  0  0  0  0  0  0  0  0  0
  134.2320  125.6370   66.2560 C   0  0  0  0  0  0  0  0  0  0  0  0
  135.1950  125.4850   66.8810 N   0  0  0  0  0  0  0  0  0  0  0  0
  131.8070  126.2800   66.0410 C   0  0  0  0  0  0  0  0  0  0  0  0
  131.6360  126.7140   67.7570 S   0  0  0  0  0  0  0  0  0  0  0  0
  129.8800  126.5280   68.1890 C   0  0  0  0  0  0  0  0  0  0  0  0
  129.0970  127.8240   67.9760 C   0  0  0  0  0  0  0  0  0  0  0  0
  128.9160  128.5980   68.9170 O   0  0  0  0  0  0  0  0  0  0  0  0
  128.6330  128.0410   66.7330 N   0  0  0  0  0  0  0  0  0  0  0  0
  127.9130  129.2360   66.2930 C   0  0  0  0  0  0  0  0  0  0  0  0
  126.4340  129.2520   66.6680 C   0  0  0  0  0  0  0  0  0  0  0  0
  126.0370  128.8790   67.9560 C   0  0  0  0  0  0  0  0  0  0  0  0
  124.6880  128.8930   68.2990 C   0  0  0  0  0  0  0  0  0  0  0  0
  123.7410  129.2860   67.3550 C   0  0  0  0  0  0  0  0  0  0  0  0
  124.1300  129.6630   66.0730 C   0  0  0  0  0  0  0  0  0  0  0  0
  125.4790  129.6470   65.7280 C   0  0  0  0  0  0  0  0  0  0  0  0
  130.6550  126.3910   65.3310 N   0  0  0  0  0  0  0  0  0  0  0  0
  1  2  1  0
  2  3  2  0
  3  4  1  0
  4  5  1  0
  4  6  2  0
  6  7  1  0
  7  8  3  0
  6  9  1  0
  9 10  1  0
 10 11  1  0
 11 12  1  0
 12 13  2  0
 12 14  1  0
 14 15  1  0
 15 16  1  0
 16 17  2  0
 17 18  1  0
 18 19  2  0
 19 20  1  0
 20 21  2  0
  9 22  2  0
 22  2  1  0
 21 16  1  0
M  END
>  <Binding energies>  (8) 
[-6.78]

>  <Ligand effiencies>  (8) 
[-0.2947826086956522]

>  <Interactions>  (8) 
["V-B:ARG:545:CG:9893, V-B:GLU:543:CD:9879, V-B:HIS:456:CE1:9040, H-A:GLY:454:N:4049, V-A:HIS:456:CE1:4069, V-A:GLY:454:CA:4048, V-B:ARG:545:CZ:9897, V-B:ARG:545:CD:9894, V-B:TYR:484:CZ:9317, V-A:ARG:545:CZ:4925, V-A:GLY:453:CA:4043, V-A:ASP:366:CG:3212, V-A:ARG:545:CD:4922, V-A:ARG:545:CG:4921, H-A:ARG:545:NE:4923, H-A:TYR:484:OH:4347, V-B:ARG:545:CB:9892, V-B:GLY:454:CA:9019, H-A:ILE:455:N:4054, H-B:GLU:543:OE2:9881, V-A:GLY:453:C:4041, H-B:GLU:543:OE1:9880"]

$$$$
1h_Grossjean_2025
     RDKit          3D

 28 29  0  0  0  0  0  0  0  0999 V2000
  128.1350  129.3070   64.0760 C   0  0  0  0  0  0  0  0  0  0  0  0
  126.8090  129.5830   64.5120 O   0  0  0  0  0  0  0  0  0  0  0  0
  126.4200  129.2000   65.7830 C   0  0  0  0  0  0  0  0  0  0  0  0
  127.2290  128.4640   66.6620 C   0  0  0  0  0  0  0  0  0  0  0  0
  126.7650  128.1010   67.9270 C   0  0  0  0  0  0  0  0  0  0  0  0
  127.6630  127.3200   68.8820 C   0  0  0  0  0  0  0  0  0  0  0  0
  128.8810  126.8000   68.2610 N   0  0  0  0  0  0  0  0  0  0  0  0
  130.1080  127.3360   68.3890 C   0  0  0  0  0  0  0  0  0  0  0  0
  130.3520  128.3270   69.0770 O   0  0  0  0  0  0  0  0  0  0  0  0
  131.2350  126.6510   67.6170 C   0  0  0  0  0  0  0  0  0  0  0  0
  130.8500  126.4950   65.8460 S   0  0  0  0  0  0  0  0  0  0  0  0
  130.9280  124.7650   65.4130 C   0  0  0  0  0  0  0  0  0  0  0  0
  129.8700  124.0090   65.8100 N   0  0  0  0  0  0  0  0  0  0  0  0
  129.8630  122.6890   65.5100 C   0  0  0  0  0  0  0  0  0  0  0  0
  128.6470  121.9140   65.9820 C   0  0  0  0  0  0  0  0  0  0  0  0
  130.8970  122.0710   64.8120 C   0  0  0  0  0  0  0  0  0  0  0  0
  131.9930  122.8370   64.4000 C   0  0  0  0  0  0  0  0  0  0  0  0
  133.1150  122.1400   63.6340 C   0  0  0  0  0  0  0  0  0  0  0  0
  132.0210  124.2180   64.7020 C   0  0  0  0  0  0  0  0  0  0  0  0
  133.1570  125.0450   64.2850 C   0  0  0  0  0  0  0  0  0  0  0  0
  134.0540  125.6980   63.9560 N   0  0  0  0  0  0  0  0  0  0  0  0
  125.4930  128.5060   68.3360 C   0  0  0  0  0  0  0  0  0  0  0  0
  124.6650  129.2480   67.4800 C   0  0  0  0  0  0  0  0  0  0  0  0
  123.3950  129.6810   67.8180 O   0  0  0  0  0  0  0  0  0  0  0  0
  122.2810  129.2520   67.0430 C   0  0  0  0  0  0  0  0  0  0  0  0
  125.1360  129.5800   66.2010 C   0  0  0  0  0  0  0  0  0  0  0  0
  124.3380  130.3110   65.3540 O   0  0  0  0  0  0  0  0  0  0  0  0
  123.9980  129.6340   64.1530 C   0  0  0  0  0  0  0  0  0  0  0  0
  1  2  1  0
  2  3  1  0
  3  4  2  0
  4  5  1  0
  5  6  1  0
  6  7  1  0
  7  8  1  0
  8  9  2  0
  8 10  1  0
 10 11  1  0
 11 12  1  0
 12 13  2  0
 13 14  1  0
 14 15  1  0
 14 16  2  0
 16 17  1  0
 17 18  1  0
 17 19  2  0
 19 20  1  0
 20 21  3  0
  5 22  2  0
 22 23  1  0
 23 24  1  0
 24 25  1  0
 23 26  2  0
 26 27  1  0
 27 28  1  0
 26  3  1  0
 19 12  1  0
M  END
>  <Binding energies>  (9) 
[-6.84]

>  <Ligand effiencies>  (9) 
[-0.23586206896551723]

>  <Interactions>  (9) 
["V-B:ARG:545:CG:9893, V-B:GLU:543:CB:9877, V-B:GLU:543:CD:9879, V-B:HIS:456:CE1:9040, H-A:GLY:454:N:4049, V-A:HIS:456:CE1:4069, H-A:ARG:545:NH1:4926, V-A:GLY:454:CA:4048, V-B:ARG:545:CZ:9897, H-B:TYR:484:OH:9318, H-A:ARG:545:NH2:4927, V-B:ARG:545:CD:9894, H-B:GLY:454:N:9020, V-A:TYR:484:CZ:4346, V-A:ARG:545:CZ:4925, V-B:ALA:541:CB:9863, H-A:ARG:545:NE:4923, H-A:TYR:484:OH:4347, H-B:ILE:455:N:9025, V-B:ALA:541:C:9859, V-B:GLU:543:CG:9878, V-B:ALA:541:CA:9861, V-B:GLY:453:C:9012, V-A:TYR:484:CE2:4345, V-A:LEU:475:CD2:4258, V-B:GLY:453:CA:9014, V-B:ARG:545:CB:9892, V-B:GLY:454:CA:9019, H-B:GLU:543:OE2:9881, V-B:GLU:543:CA:9875, V-A:LEU:475:CD1:4257, V-A:LEU:475:CG:4256, V-B:VAL:542:C:9865"]

$$$$
1i_Grossjean_2025
     RDKit          3D

 20 21  0  0  0  0  0  0  0  0999 V2000
  126.3780  126.5770   70.8060 C   0  0  0  0  0  0  0  0  0  0  0  0
  126.4100  127.3720   69.5150 C   0  0  0  0  0  0  0  0  0  0  0  0
  125.2610  127.9670   68.9960 C   0  0  0  0  0  0  0  0  0  0  0  0
  125.3530  128.6970   67.8060 C   0  0  0  0  0  0  0  0  0  0  0  0
  124.0830  129.3540   67.2660 C   0  0  0  0  0  0  0  0  0  0  0  0
  126.6040  128.8090   67.1570 C   0  0  0  0  0  0  0  0  0  0  0  0
  126.7320  129.6110   65.9380 C   0  0  0  0  0  0  0  0  0  0  0  0
  126.8310  130.2470   64.9760 N   0  0  0  0  0  0  0  0  0  0  0  0
  127.7120  128.1520   67.7440 C   0  0  0  0  0  0  0  0  0  0  0  0
  129.3550  128.1860   67.0630 S   0  0  0  0  0  0  0  0  0  0  0  0
  130.2690  126.7780   67.7620 C   0  0  0  0  0  0  0  0  0  0  0  0
  130.9020  125.9070   66.6750 C   0  0  0  0  0  0  0  0  0  0  0  0
  130.4690  124.7700   66.4840 O   0  0  0  0  0  0  0  0  0  0  0  0
  131.9160  126.4780   65.9880 N   0  0  0  0  0  0  0  0  0  0  0  0
  132.6610  125.9120   64.9630 C   0  0  0  0  0  0  0  0  0  0  0  0
  132.1530  125.6970   63.6830 C   0  0  0  0  0  0  0  0  0  0  0  0
  133.1890  125.1290   62.9780 C   0  0  0  0  0  0  0  0  0  0  0  0
  134.2640  125.0060   63.7910 O   0  0  0  0  0  0  0  0  0  0  0  0
  133.9170  125.5050   65.0480 N   0  0  0  0  0  0  0  0  0  0  0  0
  127.6170  127.4630   68.9080 N   0  0  0  0  0  0  0  0  0  0  0  0
  1  2  1  0
  2  3  2  0
  3  4  1  0
  4  5  1  0
  4  6  2  0
  6  7  1  0
  7  8  3  0
  6  9  1  0
  9 10  1  0
 10 11  1  0
 11 12  1  0
 12 13  2  0
 12 14  1  0
 14 15  1  0
 15 16  1  0
 16 17  2  0
 17 18  1  0
 18 19  1  0
  9 20  2  0
 20  2  1  0
 19 15  2  0
M  END
>  <Binding energies>  (10) 
[-7.36]

>  <Ligand effiencies>  (10) 
[-0.3504761904761905]

>  <Interactions>  (10) 
["V-B:ARG:545:CG:9893, V-B:GLU:543:CB:9877, V-B:GLU:543:CD:9879, V-B:HIS:456:CE1:9040, H-A:GLY:454:N:4049, V-A:HIS:456:CE1:4069, H-A:ARG:545:NH1:4926, V-A:GLU:543:CD:4907, H-A:ARG:545:NH2:4927, V-B:ARG:545:CD:9894, V-A:TYR:484:CZ:4346, V-A:ARG:545:CZ:4925, V-A:ASP:366:CG:3212, V-B:GLU:543:C:9873, V-B:GLY:544:C:9883, H-A:ARG:545:NE:4923, H-A:TYR:484:OH:4347, H-A:GLU:543:OE2:4909, V-B:ARG:545:CA:9890, V-B:ARG:545:CB:9892, V-B:GLY:544:CA:9885, H-A:GLU:543:OE1:4908"]

$$$$
1k_Grossjean_2025
     RDKit          3D

 25 25  0  0  0  0  0  0  0  0999 V2000
  125.8160  123.8440   62.8550 C   0  0  0  0  0  0  0  0  0  0  0  0
  126.8980  122.9510   62.6430 O   0  0  0  0  0  0  0  0  0  0  0  0
  128.0300  123.2300   63.4550 C   0  0  0  0  0  0  0  0  0  0  0  0
  129.2970  122.7090   62.7630 C   0  0  0  0  0  0  0  0  0  0  0  0
  130.4260  123.4360   63.2330 O   0  0  0  0  0  0  0  0  0  0  0  0
  131.6470  122.7140   63.1470 C   0  0  0  0  0  0  0  0  0  0  0  0
  132.5340  123.0680   64.3470 C   0  0  0  0  0  0  0  0  0  0  0  0
  133.4110  124.1290   63.9910 O   0  0  0  0  0  0  0  0  0  0  0  0
  133.3200  125.2570   64.8520 C   0  0  0  0  0  0  0  0  0  0  0  0
  131.8800  125.8020   64.8390 C   0  0  0  0  0  0  0  0  0  0  0  0
  131.5520  126.6450   65.9900 N   0  0  0  0  0  0  0  0  0  0  0  0
  130.8310  126.2560   67.0560 C   0  0  0  0  0  0  0  0  0  0  0  0
  130.3680  125.1200   67.1760 O   0  0  0  0  0  0  0  0  0  0  0  0
  130.6090  127.3280   68.1340 C   0  0  0  0  0  0  0  0  0  0  0  0
  128.9130  127.4370   68.8030 S   0  0  0  0  0  0  0  0  0  0  0  0
  127.8670  128.2700   67.6170 C   0  0  0  0  0  0  0  0  0  0  0  0
  128.4970  128.7920   66.5330 N   0  0  0  0  0  0  0  0  0  0  0  0
  127.7650  129.4440   65.6010 C   0  0  0  0  0  0  0  0  0  0  0  0
  128.5420  130.0050   64.4260 C   0  0  0  0  0  0  0  0  0  0  0  0
  126.3840  129.5970   65.7030 C   0  0  0  0  0  0  0  0  0  0  0  0
  125.7210  129.0580   66.8110 C   0  0  0  0  0  0  0  0  0  0  0  0
  124.2070  129.2370   66.9030 C   0  0  0  0  0  0  0  0  0  0  0  0
  126.4680  128.3770   67.7970 C   0  0  0  0  0  0  0  0  0  0  0  0
  125.8010  127.8050   68.9700 C   0  0  0  0  0  0  0  0  0  0  0  0
  125.2720  127.3540   69.8960 N   0  0  0  0  0  0  0  0  0  0  0  0
  1  2  1  0
  2  3  1  0
  3  4  1  0
  4  5  1  0
  5  6  1  0
  6  7  1  0
  7  8  1  0
  8  9  1  0
  9 10  1  0
 10 11  1  0
 11 12  1  0
 12 13  2  0
 12 14  1  0
 14 15  1  0
 15 16  1  0
 16 17  2  0
 17 18  1  0
 18 19  1  0
 18 20  2  0
 20 21  1  0
 21 22  1  0
 21 23  2  0
 23 24  1  0
 24 25  3  0
 23 16  1  0
M  END
>  <Binding energies>  (11) 
[-5.47]

>  <Ligand effiencies>  (11) 
[-0.21038461538461536]

>  <Interactions>  (11) 
["V-B:ARG:545:CG:9893, V-B:GLU:543:CB:9877, V-A:GLU:543:CG:4906, V-B:GLU:543:CD:9879, V-B:HIS:456:CE1:9040, H-A:GLY:454:N:4049, V-A:HIS:456:CE1:4069, V-A:GLU:543:CD:4907, V-A:GLY:454:CA:4048, V-B:ARG:545:CZ:9897, V-B:ARG:545:CD:9894, H-B:ALA:541:N:9862, V-A:ARG:545:CZ:4925, V-B:ALA:541:CB:9863, H-A:TYR:484:OH:4347, H-A:GLU:543:OE2:4909, H-B:ARG:545:N:9891, V-B:GLU:543:CG:9878, V-A:LEU:475:CD2:4258, V-B:ARG:545:CA:9890, H-B:HIS:456:ND1:9037, H-A:GLU:543:OE1:4908"]

$$$$
1l_Grossjean_2025
     RDKit          3D

 17 17  0  0  0  0  0  0  0  0999 V2000
  124.4940  129.6370   63.9980 C   0  0  0  0  0  0  0  0  0  0  0  0
  123.5690  129.9100   65.0410 O   0  0  0  0  0  0  0  0  0  0  0  0
  124.1490  129.6260   66.2770 N   0  0  0  0  0  0  0  0  0  0  0  0
  123.3710  129.6190   67.3760 C   0  0  0  0  0  0  0  0  0  0  0  0
  122.1380  129.6230   67.3420 O   0  0  0  0  0  0  0  0  0  0  0  0
  124.1300  129.5870   68.7110 C   0  0  0  0  0  0  0  0  0  0  0  0
  125.1760  128.1140   68.9700 S   0  0  0  0  0  0  0  0  0  0  0  0
  126.7230  128.3740   68.1180 C   0  0  0  0  0  0  0  0  0  0  0  0
  126.6860  129.2520   67.0820 N   0  0  0  0  0  0  0  0  0  0  0  0
  127.8240  129.4960   66.3910 C   0  0  0  0  0  0  0  0  0  0  0  0
  127.7030  130.4870   65.2490 C   0  0  0  0  0  0  0  0  0  0  0  0
  129.0360  128.8830   66.7000 C   0  0  0  0  0  0  0  0  0  0  0  0
  129.0880  127.9790   67.7650 C   0  0  0  0  0  0  0  0  0  0  0  0
  130.4280  127.3190   68.0870 C   0  0  0  0  0  0  0  0  0  0  0  0
  127.9110  127.7090   68.4990 C   0  0  0  0  0  0  0  0  0  0  0  0
  127.9360  126.7650   69.6210 C   0  0  0  0  0  0  0  0  0  0  0  0
  127.9570  126.0200   70.5050 N   0  0  0  0  0  0  0  0  0  0  0  0
  1  2  1  0
  2  3  1  0
  3  4  1  0
  4  5  2  0
  4  6  1  0
  6  7  1  0
  7  8  1  0
  8  9  2  0
  9 10  1  0
 10 11  1  0
 10 12  2  0
 12 13  1  0
 13 14  1  0
 13 15  2  0
 15 16  1  0
 16 17  3  0
 15  8  1  0
M  END
>  <Binding energies>  (12) 
[-5.91]

>  <Ligand effiencies>  (12) 
[-0.32833333333333337]

>  <Interactions>  (12) 
["V-B:ARG:545:CG:9893, V-A:GLU:543:CB:4905, V-B:GLU:543:CB:9877, V-A:GLU:543:CG:4906, V-B:GLU:543:CD:9879, V-B:HIS:456:CE1:9040, V-A:HIS:456:CE1:4069, V-A:GLU:543:CD:4907, V-B:ARG:545:CZ:9897, H-B:TYR:484:OH:9318, V-B:ARG:545:CD:9894, H-B:GLY:454:N:9020, V-B:TYR:484:CZ:9317, H-B:ILE:455:N:9025, V-B:ARG:545:CB:9892, V-B:GLY:454:CA:9019, H-B:HIS:456:ND1:9037, V-B:ILE:455:C:9022"]

$$$$
1m_Grossjean_2025
     RDKit          3D

 20 20  0  0  0  0  0  0  0  0999 V2000
  133.6380  125.3980   63.6180 C   0  0  0  0  0  0  0  0  0  0  0  0
  134.2530  125.5090   64.8940 O   0  0  0  0  0  0  0  0  0  0  0  0
  133.5300  125.8680   65.9740 C   0  0  0  0  0  0  0  0  0  0  0  0
  133.9470  125.9120   67.1350 O   0  0  0  0  0  0  0  0  0  0  0  0
  132.0830  126.2400   65.5890 C   0  0  0  0  0  0  0  0  0  0  0  0
  131.2640  126.6210   66.7500 N   0  0  0  0  0  0  0  0  0  0  0  0
  130.3660  125.8320   67.3700 C   0  0  0  0  0  0  0  0  0  0  0  0
  130.1200  124.6800   67.0080 O   0  0  0  0  0  0  0  0  0  0  0  0
  129.6480  126.4640   68.5700 C   0  0  0  0  0  0  0  0  0  0  0  0
  129.6690  128.2900   68.5960 S   0  0  0  0  0  0  0  0  0  0  0  0
  128.3200  128.8700   67.5900 C   0  0  0  0  0  0  0  0  0  0  0  0
  128.7030  129.7280   66.6100 N   0  0  0  0  0  0  0  0  0  0  0  0
  127.7610  130.2290   65.7790 C   0  0  0  0  0  0  0  0  0  0  0  0
  128.2670  131.1650   64.6970 C   0  0  0  0  0  0  0  0  0  0  0  0
  126.4090  129.9110   65.8940 C   0  0  0  0  0  0  0  0  0  0  0  0
  125.9990  129.0490   66.9170 C   0  0  0  0  0  0  0  0  0  0  0  0
  124.5110  128.7270   67.0340 C   0  0  0  0  0  0  0  0  0  0  0  0
  126.9660  128.5130   67.7990 C   0  0  0  0  0  0  0  0  0  0  0  0
  126.5520  127.6480   68.9070 C   0  0  0  0  0  0  0  0  0  0  0  0
  126.2250  126.9650   69.7810 N   0  0  0  0  0  0  0  0  0  0  0  0
  1  2  1  0
  2  3  1  0
  3  4  2  0
  3  5  1  0
  5  6  1  0
  6  7  1  0
  7  8  2  0
  7  9  1  0
  9 10  1  0
 10 11  1  0
 11 12  2  0
 12 13  1  0
 13 14  1  0
 13 15  2  0
 15 16  1  0
 16 17  1  0
 16 18  2  0
 18 19  1  0
 19 20  3  0
 18 11  1  0
M  END
>  <Binding energies>  (13) 
[-6.19]

>  <Ligand effiencies>  (13) 
[-0.2947619047619048]

>  <Interactions>  (13) 
["V-B:ARG:545:CG:9893, V-B:GLU:543:CB:9877, V-A:GLU:543:CG:4906, V-B:GLU:543:CD:9879, V-B:HIS:456:CE1:9040, H-A:GLY:454:N:4049, V-A:HIS:456:CE1:4069, H-A:ARG:545:NH1:4926, V-A:GLU:543:CD:4907, V-B:ARG:545:CZ:9897, H-A:ARG:545:NH2:4927, V-B:ARG:545:CD:9894, V-A:TYR:484:CZ:4346, V-A:ARG:545:CZ:4925, V-A:ASP:366:CG:3212, V-A:ARG:545:CD:4922, H-A:ARG:545:NE:4923, H-A:TYR:484:OH:4347, H-B:ARG:545:N:9891, V-A:TYR:484:CE2:4345, H-A:GLU:543:OE1:4908"]

$$$$
1n_Grossjean_2025
     RDKit          3D

 27 28  0  0  0  0  0  0  0  0999 V2000
  122.7570  130.7720   62.8340 C   0  0  0  0  0  0  0  0  0  0  0  0
  123.7290  129.7400   63.4150 C   0  0  0  0  0  0  0  0  0  0  0  0
  123.6300  129.7440   64.8330 O   0  0  0  0  0  0  0  0  0  0  0  0
  124.5300  130.4140   65.5980 C   0  0  0  0  0  0  0  0  0  0  0  0
  124.7260  131.6290   65.5090 O   0  0  0  0  0  0  0  0  0  0  0  0
  125.2550  129.5300   66.5720 C   0  0  0  0  0  0  0  0  0  0  0  0
  124.6040  128.9400   67.6670 C   0  0  0  0  0  0  0  0  0  0  0  0
  125.3050  128.1280   68.5530 C   0  0  0  0  0  0  0  0  0  0  0  0
  126.6690  127.8950   68.3710 C   0  0  0  0  0  0  0  0  0  0  0  0
  127.2810  127.0630   69.3290 N   0  0  0  0  0  0  0  0  0  0  0  0
  128.2880  127.3310   70.1880 C   0  0  0  0  0  0  0  0  0  0  0  0
  128.8690  128.4110   70.2910 O   0  0  0  0  0  0  0  0  0  0  0  0
  128.7100  126.1690   71.0970 C   0  0  0  0  0  0  0  0  0  0  0  0
  127.8510  126.0570   72.3750 C   0  0  0  0  0  0  0  0  0  0  0  0
  128.3680  127.1550   73.7290 S   0  0  0  0  0  0  0  0  0  0  0  0
  129.9250  126.5530   74.3460 C   0  0  0  0  0  0  0  0  0  0  0  0
  129.8540  125.3080   74.8800 N   0  0  0  0  0  0  0  0  0  0  0  0
  130.9830  124.7430   75.3660 C   0  0  0  0  0  0  0  0  0  0  0  0
  130.8290  123.3460   75.9360 C   0  0  0  0  0  0  0  0  0  0  0  0
  132.2170  125.3900   75.3470 C   0  0  0  0  0  0  0  0  0  0  0  0
  132.2970  126.6830   74.8170 C   0  0  0  0  0  0  0  0  0  0  0  0
  133.6570  127.3780   74.8190 C   0  0  0  0  0  0  0  0  0  0  0  0
  131.1290  127.2950   74.3080 C   0  0  0  0  0  0  0  0  0  0  0  0
  131.1800  128.6660   73.7970 C   0  0  0  0  0  0  0  0  0  0  0  0
  131.2230  129.7510   73.3950 N   0  0  0  0  0  0  0  0  0  0  0  0
  127.3250  128.4720   67.2730 C   0  0  0  0  0  0  0  0  0  0  0  0
  126.6200  129.2810   66.3860 C   0  0  0  0  0  0  0  0  0  0  0  0
  1  2  1  0
  2  3  1  0
  3  4  1  0
  4  5  2  0
  4  6  1  0
  6  7  2  0
  7  8  1  0
  8  9  2  0
  9 10  1  0
 10 11  1  0
 11 12  2  0
 11 13  1  0
 13 14  1  0
 14 15  1  0
 15 16  1  0
 16 17  2  0
 17 18  1  0
 18 19  1  0
 18 20  2  0
 20 21  1  0
 21 22  1  0
 21 23  2  0
 23 24  1  0
 24 25  3  0
  9 26  1  0
 26 27  2  0
 27  6  1  0
 23 16  1  0
M  END
>  <Binding energies>  (14) 
[-7.29]

>  <Ligand effiencies>  (14) 
[-0.26035714285714284]

>  <Interactions>  (14) 
["V-B:ARG:545:CG:9893, V-B:GLU:543:CB:9877, V-B:GLU:543:CD:9879, V-B:HIS:456:CE1:9040, H-B:ARG:545:NH2:9899, V-A:HIS:456:CE1:4069, V-B:ARG:545:CZ:9897, H-B:TYR:484:OH:9318, V-B:ARG:545:CD:9894, H-B:GLY:454:N:9020, V-B:ASP:366:CG:8183, V-B:GLU:543:C:9873, V-B:GLY:544:C:9883, H-B:ARG:545:NH1:9898, H-B:ARG:545:NE:9895, V-B:GLY:453:C:9012, V-B:GLY:453:CA:9014, V-B:ARG:545:CA:9890, V-B:ARG:545:CB:9892, V-B:GLY:454:CA:9019, H-B:GLU:543:OE2:9881, H-B:GLU:543:O:9874, V-A:GLY:544:C:4911, H-A:LYS:547:NZ:4950, H-B:LYS:547:NZ:9922, V-A:HIS:456:CG:4065, V-A:HIS:456:CB:4064"]

$$$$
1q_Grossjean_2025
     RDKit          3D

 21 21  0  0  0  0  0  0  0  0999 V2000
  133.3280  125.0830   62.9890 C   0  0  0  0  0  0  0  0  0  0  0  0
  133.7110  124.7640   64.3190 O   0  0  0  0  0  0  0  0  0  0  0  0
  133.4520  125.6250   65.3340 C   0  0  0  0  0  0  0  0  0  0  0  0
  134.1830  125.8260   66.3050 O   0  0  0  0  0  0  0  0  0  0  0  0
  132.0970  126.3540   65.2110 C   0  0  0  0  0  0  0  0  0  0  0  0
  131.4650  126.6160   66.5120 N   0  0  0  0  0  0  0  0  0  0  0  0
  130.5670  125.8230   67.1270 C   0  0  0  0  0  0  0  0  0  0  0  0
  130.1690  124.7590   66.6500 O   0  0  0  0  0  0  0  0  0  0  0  0
  130.0620  126.3120   68.4930 C   0  0  0  0  0  0  0  0  0  0  0  0
  128.6940  127.0210   68.4460 C   0  0  0  0  0  0  0  0  0  0  0  0
  128.7330  128.6200   67.5820 S   0  0  0  0  0  0  0  0  0  0  0  0
  127.1710  128.8590   66.7600 C   0  0  0  0  0  0  0  0  0  0  0  0
  126.1250  128.9880   67.6170 N   0  0  0  0  0  0  0  0  0  0  0  0
  124.8850  129.1720   67.1090 C   0  0  0  0  0  0  0  0  0  0  0  0
  123.7660  129.2890   68.1280 C   0  0  0  0  0  0  0  0  0  0  0  0
  124.6360  129.2470   65.7400 C   0  0  0  0  0  0  0  0  0  0  0  0
  125.7080  129.1420   64.8490 C   0  0  0  0  0  0  0  0  0  0  0  0
  125.4120  129.2450   63.3530 C   0  0  0  0  0  0  0  0  0  0  0  0
  127.0140  128.9510   65.3560 C   0  0  0  0  0  0  0  0  0  0  0  0
  128.1550  128.8960   64.4400 C   0  0  0  0  0  0  0  0  0  0  0  0
  129.0550  128.8540   63.7130 N   0  0  0  0  0  0  0  0  0  0  0  0
  1  2  1  0
  2  3  1  0
  3  4  2  0
  3  5  1  0
  5  6  1  0
  6  7  1  0
  7  8  2  0
  7  9  1  0
  9 10  1  0
 10 11  1  0
 11 12  1  0
 12 13  2  0
 13 14  1  0
 14 15  1  0
 14 16  2  0
 16 17  1  0
 17 18  1  0
 17 19  2  0
 19 20  1  0
 20 21  3  0
 19 12  1  0
M  END
>  <Binding energies>  (15) 
[-5.8]

>  <Ligand effiencies>  (15) 
[-0.2636363636363636]

>  <Interactions>  (15) 
["V-B:ARG:545:CG:9893, V-B:GLU:543:CB:9877, V-B:GLU:543:CD:9879, H-A:GLY:454:N:4049, V-A:HIS:456:CE1:4069, V-A:GLU:543:CD:4907, V-B:ARG:545:CZ:9897, H-B:TYR:484:OH:9318, V-B:ARG:545:CD:9894, V-A:TYR:484:CZ:4346, V-A:ARG:545:CZ:4925, V-A:ASP:366:CG:3212, H-A:ARG:545:NE:4923, H-A:TYR:484:OH:4347, V-A:TYR:484:CE2:4345, V-B:ARG:545:CB:9892, H-A:GLU:543:OE1:4908, V-B:ILE:455:C:9022"]

$$$$
2a_Grossjean_2025
     RDKit          3D

 29 30  0  0  0  0  0  0  0  0999 V2000
  123.3250  130.4400   63.0930 C   0  0  0  0  0  0  0  0  0  0  0  0
  124.1310  130.5910   64.3860 C   0  0  0  0  0  0  0  0  0  0  0  0
  123.6840  129.6280   65.3340 O   0  0  0  0  0  0  0  0  0  0  0  0
  124.1260  129.6500   66.6170 C   0  0  0  0  0  0  0  0  0  0  0  0
  123.4330  130.0160   67.5710 O   0  0  0  0  0  0  0  0  0  0  0  0
  125.5400  129.1620   66.7630 C   0  0  0  0  0  0  0  0  0  0  0  0
  126.4710  129.2650   65.7190 C   0  0  0  0  0  0  0  0  0  0  0  0
  127.7730  128.8010   65.8860 C   0  0  0  0  0  0  0  0  0  0  0  0
  128.1690  128.2220   67.0920 C   0  0  0  0  0  0  0  0  0  0  0  0
  129.5030  127.7760   67.1440 N   0  0  0  0  0  0  0  0  0  0  0  0
  130.0210  126.6500   67.6790 C   0  0  0  0  0  0  0  0  0  0  0  0
  129.3820  125.7790   68.2700 O   0  0  0  0  0  0  0  0  0  0  0  0
  131.5360  126.4800   67.5190 C   0  0  0  0  0  0  0  0  0  0  0  0
  132.0680  126.3520   65.7790 S   0  0  0  0  0  0  0  0  0  0  0  0
  131.6340  124.7410   65.1320 C   0  0  0  0  0  0  0  0  0  0  0  0
  130.4900  124.1980   65.6220 N   0  0  0  0  0  0  0  0  0  0  0  0
  130.1080  122.9770   65.1870 C   0  0  0  0  0  0  0  0  0  0  0  0
  128.8340  122.4250   65.8010 C   0  0  0  0  0  0  0  0  0  0  0  0
  130.8350  122.2520   64.2470 C   0  0  0  0  0  0  0  0  0  0  0  0
  132.0160  122.7980   63.7200 C   0  0  0  0  0  0  0  0  0  0  0  0
  132.8090  121.9840   62.6800 C   0  0  0  0  0  0  0  0  0  0  0  0
  133.0820  122.7420   61.6170 F   0  0  0  0  0  0  0  0  0  0  0  0
  133.9540  121.5560   63.2130 F   0  0  0  0  0  0  0  0  0  0  0  0
  132.1420  120.9110   62.2470 F   0  0  0  0  0  0  0  0  0  0  0  0
  132.4310  124.0770   64.1710 C   0  0  0  0  0  0  0  0  0  0  0  0
  133.6580  124.6920   63.6560 C   0  0  0  0  0  0  0  0  0  0  0  0
  134.6270  125.1780   63.2500 N   0  0  0  0  0  0  0  0  0  0  0  0
  127.2460  128.1240   68.1430 C   0  0  0  0  0  0  0  0  0  0  0  0
  125.9450  128.5910   67.9760 C   0  0  0  0  0  0  0  0  0  0  0  0
  1  2  1  0
  2  3  1  0
  3  4  1  0
  4  5  2  0
  4  6  1  0
  6  7  2  0
  7  8  1  0
  8  9  2  0
  9 10  1  0
 10 11  1  0
 11 12  2  0
 11 13  1  0
 13 14  1  0
 14 15  1  0
 15 16  2  0
 16 17  1  0
 17 18  1  0
 17 19  2  0
 19 20  1  0
 20 21  1  0
 21 22  1  0
 21 23  1  0
 21 24  1  0
 20 25  2  0
 25 26  1  0
 26 27  3  0
  9 28  1  0
 28 29  2  0
 29  6  1  0
 25 15  1  0
M  END
>  <Binding energies>  (16) 
[-7.27]

>  <Ligand effiencies>  (16) 
[-0.24233333333333332]

>  <Interactions>  (16) 
["V-B:ARG:545:CG:9893, V-B:GLU:543:CB:9877, V-B:GLU:543:CD:9879, V-B:HIS:456:CE1:9040, H-B:ARG:545:NH2:9899, H-A:GLY:454:N:4049, V-A:HIS:456:CE1:4069, H-A:ARG:545:NH1:4926, V-A:GLU:543:CD:4907, V-A:GLY:454:CA:4048, H-B:TYR:484:OH:9318, H-A:ARG:545:NH2:4927, V-B:ARG:545:CD:9894, H-B:GLY:454:N:9020, V-A:TYR:484:CZ:4346, V-B:ALA:541:CB:9863, H-A:TYR:484:OH:4347, H-A:GLU:543:OE2:4909, H-B:ARG:545:NH1:9898, H-B:ILE:455:N:9025, H-B:ARG:545:NE:9895, V-B:ALA:541:C:9859, V-B:GLU:543:CG:9878, V-B:GLY:453:C:9012, V-A:TYR:484:CE2:4345, V-A:LEU:475:CD2:4258, V-B:GLY:453:CA:9014, V-B:GLY:454:CA:9019, H-B:GLU:543:OE2:9881, V-A:ILE:369:CD1:3238, V-A:SER:385:C:3404, V-A:LEU:475:CD1:4257, H-A:GLU:543:OE1:4908"]

$$$$
2b_Grossjean_2025
     RDKit          3D

 28 29  0  0  0  0  0  0  0  0999 V2000
  123.7130  129.6150   64.2800 C   0  0  0  0  0  0  0  0  0  0  0  0
  123.7840  130.3600   65.4880 O   0  0  0  0  0  0  0  0  0  0  0  0
  123.9910  129.7420   66.6790 C   0  0  0  0  0  0  0  0  0  0  0  0
  123.1190  129.6280   67.5470 O   0  0  0  0  0  0  0  0  0  0  0  0
  125.3870  129.2130   66.8390 C   0  0  0  0  0  0  0  0  0  0  0  0
  126.3630  129.3830   65.8460 C   0  0  0  0  0  0  0  0  0  0  0  0
  127.6480  128.8780   66.0240 C   0  0  0  0  0  0  0  0  0  0  0  0
  127.9860  128.2020   67.1960 C   0  0  0  0  0  0  0  0  0  0  0  0
  129.3100  127.7280   67.2690 N   0  0  0  0  0  0  0  0  0  0  0  0
  129.8010  126.6340   67.8890 C   0  0  0  0  0  0  0  0  0  0  0  0
  129.1400  125.8330   68.5520 O   0  0  0  0  0  0  0  0  0  0  0  0
  131.3110  126.4220   67.7410 C   0  0  0  0  0  0  0  0  0  0  0  0
  131.8710  126.4430   66.0060 S   0  0  0  0  0  0  0  0  0  0  0  0
  131.5300  124.8660   65.2350 C   0  0  0  0  0  0  0  0  0  0  0  0
  130.3740  124.2640   65.6120 N   0  0  0  0  0  0  0  0  0  0  0  0
  130.0550  123.0660   65.0730 C   0  0  0  0  0  0  0  0  0  0  0  0
  128.7540  122.4540   65.5560 C   0  0  0  0  0  0  0  0  0  0  0  0
  130.8610  122.4250   64.1370 C   0  0  0  0  0  0  0  0  0  0  0  0
  132.0580  123.0320   63.7270 C   0  0  0  0  0  0  0  0  0  0  0  0
  132.9370  122.3120   62.6870 C   0  0  0  0  0  0  0  0  0  0  0  0
  133.1360  123.1030   61.6320 F   0  0  0  0  0  0  0  0  0  0  0  0
  134.1180  122.0000   63.2220 F   0  0  0  0  0  0  0  0  0  0  0  0
  132.3870  121.1800   62.2410 F   0  0  0  0  0  0  0  0  0  0  0  0
  132.4090  124.2870   64.2890 C   0  0  0  0  0  0  0  0  0  0  0  0
  133.6500  124.9640   63.9020 C   0  0  0  0  0  0  0  0  0  0  0  0
  134.6290  125.4980   63.5950 N   0  0  0  0  0  0  0  0  0  0  0  0
  127.0150  128.0210   68.1910 C   0  0  0  0  0  0  0  0  0  0  0  0
  125.7300  128.5250   68.0100 C   0  0  0  0  0  0  0  0  0  0  0  0
  1  2  1  0
  2  3  1  0
  3  4  2  0
  3  5  1  0
  5  6  2  0
  6  7  1  0
  7  8  2  0
  8  9  1  0
  9 10  1  0
 10 11  2  0
 10 12  1  0
 12 13  1  0
 13 14  1  0
 14 15  2  0
 15 16  1  0
 16 17  1  0
 16 18  2  0
 18 19  1  0
 19 20  1  0
 20 21  1  0
 20 22  1  0
 20 23  1  0
 19 24  2  0
 24 25  1  0
 25 26  3  0
  8 27  1  0
 27 28  2  0
 28  5  1  0
 24 14  1  0
M  END
>  <Binding energies>  (17) 
[-7.07]

>  <Ligand effiencies>  (17) 
[-0.24379310344827587]

>  <Interactions>  (17) 
["V-B:ARG:545:CG:9893, V-B:GLU:543:CB:9877, V-B:GLU:543:CD:9879, V-B:HIS:456:CE1:9040, H-A:GLY:454:N:4049, V-A:HIS:456:CE1:4069, H-A:ARG:545:NH1:4926, V-A:GLU:543:CD:4907, V-A:GLY:454:CA:4048, V-B:ARG:545:CZ:9897, H-B:TYR:484:OH:9318, H-A:ARG:545:NH2:4927, V-B:ARG:545:CD:9894, H-B:GLY:454:N:9020, V-A:TYR:484:CZ:4346, V-A:ARG:545:CZ:4925, V-B:ALA:541:CB:9863, H-A:TYR:484:OH:4347, H-B:ILE:455:N:9025, V-B:ALA:541:C:9859, V-B:GLU:543:CG:9878, V-A:TYR:484:CE2:4345, V-A:LEU:475:CD2:4258, V-B:GLY:453:CA:9014, V-B:GLY:454:CA:9019, H-B:GLU:543:OE2:9881, V-A:ILE:369:CD1:3238, V-A:SER:385:C:3404, V-A:LEU:475:CD1:4257, H-A:GLU:543:OE1:4908"]

$$$$
2c_Grossjean_2025
     RDKit          3D

 26 27  0  0  0  0  0  0  0  0999 V2000
  123.8940  129.2640   67.8870 C   0  0  0  0  0  0  0  0  0  0  0  0
  124.7230  128.5500   68.7980 O   0  0  0  0  0  0  0  0  0  0  0  0
  126.0440  128.3200   68.4680 C   0  0  0  0  0  0  0  0  0  0  0  0
  126.7240  127.3800   69.2420 C   0  0  0  0  0  0  0  0  0  0  0  0
  128.0600  127.0810   68.9870 C   0  0  0  0  0  0  0  0  0  0  0  0
  128.7380  127.7370   67.9480 C   0  0  0  0  0  0  0  0  0  0  0  0
  130.0790  127.4890   67.6040 N   0  0  0  0  0  0  0  0  0  0  0  0
  130.7220  126.3040   67.5200 C   0  0  0  0  0  0  0  0  0  0  0  0
  130.2210  125.2130   67.7980 O   0  0  0  0  0  0  0  0  0  0  0  0
  132.1910  126.3950   67.0780 C   0  0  0  0  0  0  0  0  0  0  0  0
  132.4830  126.2180   65.2840 S   0  0  0  0  0  0  0  0  0  0  0  0
  131.9350  124.6020   64.7490 C   0  0  0  0  0  0  0  0  0  0  0  0
  130.7740  124.1630   65.3000 N   0  0  0  0  0  0  0  0  0  0  0  0
  130.3040  122.9460   64.9500 C   0  0  0  0  0  0  0  0  0  0  0  0
  129.0130  122.5210   65.6220 C   0  0  0  0  0  0  0  0  0  0  0  0
  130.9580  122.1230   64.0350 C   0  0  0  0  0  0  0  0  0  0  0  0
  132.1530  122.5590   63.4470 C   0  0  0  0  0  0  0  0  0  0  0  0
  132.8630  121.6380   62.4360 C   0  0  0  0  0  0  0  0  0  0  0  0
  133.2190  122.3350   61.3550 F   0  0  0  0  0  0  0  0  0  0  0  0
  133.9550  121.1070   62.9880 F   0  0  0  0  0  0  0  0  0  0  0  0
  132.0900  120.6290   62.0260 F   0  0  0  0  0  0  0  0  0  0  0  0
  132.6610  123.8320   63.8100 C   0  0  0  0  0  0  0  0  0  0  0  0
  133.9090  124.3380   63.2280 C   0  0  0  0  0  0  0  0  0  0  0  0
  134.8940  124.7370   62.7680 N   0  0  0  0  0  0  0  0  0  0  0  0
  128.0570  128.6670   67.1610 C   0  0  0  0  0  0  0  0  0  0  0  0
  126.7220  128.9620   67.4190 C   0  0  0  0  0  0  0  0  0  0  0  0
  1  2  1  0
  2  3  1  0
  3  4  2  0
  4  5  1  0
  5  6  2  0
  6  7  1  0
  7  8  1  0
  8  9  2  0
  8 10  1  0
 10 11  1  0
 11 12  1  0
 12 13  2  0
 13 14  1  0
 14 15  1  0
 14 16  2  0
 16 17  1  0
 17 18  1  0
 18 19  1  0
 18 20  1  0
 18 21  1  0
 17 22  2  0
 22 23  1  0
 23 24  3  0
  6 25  1  0
 25 26  2  0
 26  3  1  0
 22 12  1  0
M  END
>  <Binding energies>  (18) 
[-6.48]

>  <Ligand effiencies>  (18) 
[-0.24000000000000002]

>  <Interactions>  (18) 
["V-B:ARG:545:CG:9893, V-B:GLU:543:CB:9877, V-B:GLU:543:CD:9879, V-B:HIS:456:CE1:9040, H-A:GLY:454:N:4049, V-A:HIS:456:CE1:4069, H-A:ARG:545:NH1:4926, V-A:GLU:543:CD:4907, V-A:GLY:454:CA:4048, H-B:TYR:484:OH:9318, H-A:ARG:545:NH2:4927, V-B:ARG:545:CD:9894, V-A:TYR:484:CZ:4346, V-B:ALA:541:CB:9863, V-A:ARG:545:CG:4921, H-A:ARG:545:NE:4923, H-A:TYR:484:OH:4347, V-B:GLU:543:CG:9878, V-A:SER:385:CB:3408, V-A:ILE:369:CG2:3236, V-A:SER:385:CA:3406, V-A:TYR:484:CE2:4345, V-A:LEU:475:CD2:4258, V-B:ARG:545:CB:9892, V-A:GLY:453:C:4041, V-A:ILE:369:CD1:3238, V-A:SER:385:C:3404, H-B:HIS:456:ND1:9037, V-A:LEU:475:CD1:4257, H-A:GLU:543:OE1:4908"]

$$$$
2d_Ghoteimi_2023
     RDKit          3D

 38 42  0  0  0  0  0  0  0  0999 V2000
  124.1070  133.3320   62.8000 C   0  0  0  0  0  0  0  0  0  0  0  0
  123.1990  132.2560   62.9820 O   0  0  0  0  0  0  0  0  0  0  0  0
  123.2380  131.1800   62.1690 C   0  0  0  0  0  0  0  0  0  0  0  0
  122.6810  131.0910   61.0720 O   0  0  0  0  0  0  0  0  0  0  0  0
  124.0850  130.0520   62.7780 C   0  0  0  0  0  0  0  0  0  0  0  0
  124.1210  130.1630   64.6000 S   0  0  0  0  0  0  0  0  0  0  0  0
  125.7770  129.8050   65.1490 C   0  0  0  0  0  0  0  0  0  0  0  0
  126.7220  130.0800   64.2170 N   0  0  0  0  0  0  0  0  0  0  0  0
  128.0290  129.8490   64.4980 C   0  0  0  0  0  0  0  0  0  0  0  0
  129.0110  130.1600   63.4140 C   0  0  0  0  0  0  0  0  0  0  0  0
  129.2060  131.4770   62.9860 C   0  0  0  0  0  0  0  0  0  0  0  0
  130.1190  131.7740   61.9770 C   0  0  0  0  0  0  0  0  0  0  0  0
  130.8790  130.7640   61.3680 C   0  0  0  0  0  0  0  0  0  0  0  0
  131.7870  131.0420   60.3410 N   0  0  0  0  0  0  0  0  0  0  0  0
  131.6370  132.2300   59.4780 C   0  0  0  0  0  0  0  0  0  0  0  0
  132.4890  132.1740   58.1930 C   0  0  0  0  0  0  0  0  0  0  0  0
  133.8520  131.9610   58.5250 O   0  0  0  0  0  0  0  0  0  0  0  0
  134.0340  130.7380   59.2210 C   0  0  0  0  0  0  0  0  0  0  0  0
  133.2220  130.7490   60.5340 C   0  0  0  0  0  0  0  0  0  0  0  0
  130.6700  129.4430   61.7910 C   0  0  0  0  0  0  0  0  0  0  0  0
  129.7560  129.1470   62.7980 C   0  0  0  0  0  0  0  0  0  0  0  0
  128.4200  129.3360   65.7370 C   0  0  0  0  0  0  0  0  0  0  0  0
  127.4680  129.0750   66.7300 C   0  0  0  0  0  0  0  0  0  0  0  0
  127.9620  128.5530   68.0390 C   0  0  0  0  0  0  0  0  0  0  0  0
  128.9540  129.2410   68.7400 C   0  0  0  0  0  0  0  0  0  0  0  0
  129.4130  128.7700   69.9670 C   0  0  0  0  0  0  0  0  0  0  0  0
  128.8910  127.5930   70.5280 C   0  0  0  0  0  0  0  0  0  0  0  0
  129.3270  127.1100   71.7650 N   0  0  0  0  0  0  0  0  0  0  0  0
  128.9120  125.7840   72.2620 C   0  0  0  0  0  0  0  0  0  0  0  0
  129.7610  125.2770   73.4480 C   0  0  0  0  0  0  0  0  0  0  0  0
  129.7550  126.2360   74.4940 O   0  0  0  0  0  0  0  0  0  0  0  0
  130.2890  127.4800   74.0680 C   0  0  0  0  0  0  0  0  0  0  0  0
  129.4510  128.0440   72.9010 C   0  0  0  0  0  0  0  0  0  0  0  0
  127.8820  126.9200   69.8270 C   0  0  0  0  0  0  0  0  0  0  0  0
  127.4230  127.3910   68.6000 C   0  0  0  0  0  0  0  0  0  0  0  0
  126.1030  129.3190   66.4370 C   0  0  0  0  0  0  0  0  0  0  0  0
  125.0710  129.0800   67.4500 C   0  0  0  0  0  0  0  0  0  0  0  0
  124.2590  128.8900   68.2530 N   0  0  0  0  0  0  0  0  0  0  0  0
  1  2  1  0
  2  3  1  0
  3  4  2  0
  3  5  1  0
  5  6  1  0
  6  7  1  0
  7  8  2  0
  8  9  1  0
  9 10  1  0
 10 11  2  0
 11 12  1  0
 12 13  2  0
 13 14  1  0
 14 15  1  0
 15 16  1  0
 16 17  1  0
 17 18  1  0
 18 19  1  0
 13 20  1  0
 20 21  2  0
  9 22  2  0
 22 23  1  0
 23 24  1  0
 24 25  2  0
 25 26  1  0
 26 27  2  0
 27 28  1  0
 28 29  1  0
 29 30  1  0
 30 31  1  0
 31 32  1  0
 32 33  1  0
 27 34  1  0
 34 35  2  0
 23 36  2  0
 36 37  1  0
 37 38  3  0
 36  7  1  0
 21 10  1  0
 35 24  1  0
 19 14  1  0
 33 28  1  0
M  END
>  <Binding energies>  (19) 
[-8.82]

>  <Ligand effiencies>  (19) 
[-0.23210526315789473]

>  <Interactions>  (19) 
["V-B:ARG:545:CG:9893, V-A:GLU:543:CB:4905, V-B:GLU:543:CB:9877, V-A:GLU:543:CG:4906, V-B:GLU:543:CD:9879, V-B:HIS:456:CE1:9040, V-B:SER:385:CB:8379, V-A:HIS:456:CE1:4069, V-A:GLU:543:CD:4907, V-B:LEU:475:CD1:9228, H-B:TYR:484:OH:9318, H-B:GLY:454:N:9020, V-B:ASP:366:CG:8183, V-A:ASP:366:CG:3212, V-A:ASN:362:C:3171, V-A:PRO:540:CB:4884, V-A:PRO:540:CA:4882, V-A:LEU:363:CA:3184, V-A:LEU:363:CD1:3188, V-A:PRO:540:N:4883, V-B:GLY:454:CA:9019, V-A:ASP:366:CB:3211, H-B:HIS:456:ND1:9037, H-B:LYS:547:NZ:9922, V-A:HIS:456:CD2:4067, H-A:LEU:363:N:3185, V-A:LEU:363:C:3182"]

$$$$
2d_Grossjean_2025
     RDKit          3D

 24 25  0  0  0  0  0  0  0  0999 V2000
  129.0120  122.4600   65.8770 C   0  0  0  0  0  0  0  0  0  0  0  0
  129.6560  122.7260   64.5300 C   0  0  0  0  0  0  0  0  0  0  0  0
  128.9550  122.5490   63.3390 C   0  0  0  0  0  0  0  0  0  0  0  0
  129.5930  122.8130   62.1180 C   0  0  0  0  0  0  0  0  0  0  0  0
  128.7990  122.6210   60.8110 C   0  0  0  0  0  0  0  0  0  0  0  0
  127.5730  122.1740   61.0840 F   0  0  0  0  0  0  0  0  0  0  0  0
  128.7000  123.7830   60.1620 F   0  0  0  0  0  0  0  0  0  0  0  0
  129.3710  121.7460   59.9830 F   0  0  0  0  0  0  0  0  0  0  0  0
  130.9440  123.2470   62.1380 C   0  0  0  0  0  0  0  0  0  0  0  0
  131.6400  123.5800   60.8930 C   0  0  0  0  0  0  0  0  0  0  0  0
  132.1890  123.8440   59.9090 N   0  0  0  0  0  0  0  0  0  0  0  0
  131.5830  123.3740   63.3940 C   0  0  0  0  0  0  0  0  0  0  0  0
  133.2810  123.8770   63.6000 S   0  0  0  0  0  0  0  0  0  0  0  0
  134.3400  122.7880   62.5920 C   0  0  0  0  0  0  0  0  0  0  0  0
  133.7620  121.3800   62.4220 C   0  0  0  0  0  0  0  0  0  0  0  0
  133.8920  120.5650   63.3360 O   0  0  0  0  0  0  0  0  0  0  0  0
  133.1660  121.1330   61.2360 N   0  0  0  0  0  0  0  0  0  0  0  0
  132.5440  119.9550   60.7830 C   0  0  0  0  0  0  0  0  0  0  0  0
  131.3160  119.6440   61.3730 C   0  0  0  0  0  0  0  0  0  0  0  0
  130.6260  118.4960   60.9950 C   0  0  0  0  0  0  0  0  0  0  0  0
  131.1700  117.6500   60.0300 C   0  0  0  0  0  0  0  0  0  0  0  0
  132.3990  117.9420   59.4450 C   0  0  0  0  0  0  0  0  0  0  0  0
  133.0910  119.0900   59.8200 C   0  0  0  0  0  0  0  0  0  0  0  0
  130.9450  123.1360   64.5660 N   0  0  0  0  0  0  0  0  0  0  0  0
  1  2  1  0
  2  3  2  0
  3  4  1  0
  4  5  1  0
  5  6  1  0
  5  7  1  0
  5  8  1  0
  4  9  2  0
  9 10  1  0
 10 11  3  0
  9 12  1  0
 12 13  1  0
 13 14  1  0
 14 15  1  0
 15 16  2  0
 15 17  1  0
 17 18  1  0
 18 19  2  0
 19 20  1  0
 20 21  2  0
 21 22  1  0
 22 23  2  0
 12 24  2  0
 24  2  1  0
 23 18  1  0
M  END
>  <Binding energies>  (20) 
[-6.17]

>  <Ligand effiencies>  (20) 
[-0.2468]

>  <Interactions>  (20) 
["V-B:GLU:543:CB:9877, V-B:GLU:543:CD:9879, H-A:GLY:454:N:4049, V-A:GLY:454:CA:4048, V-B:PRO:540:CA:9854, V-B:PRO:540:CB:9856, V-B:ALA:541:CB:9863, V-B:PRO:540:C:9852, V-B:TYR:539:CE2:9847, V-B:TYR:539:CD2:9845, H-A:TYR:484:OH:4347, V-B:TYR:539:CG:9843, V-B:GLU:543:CG:9878, V-B:ALA:541:CA:9861, V-B:TYR:539:CB:9842, V-A:ILE:369:CG2:3236, V-A:SER:385:CA:3406, V-A:TYR:484:CE2:4345, V-A:LEU:475:CD2:4258, V-B:TYR:539:C:9838, V-B:PRO:540:N:9855, V-A:GLY:453:C:4041, V-A:ILE:369:CD1:3238, V-A:SER:385:C:3404, V-A:LEU:475:CD1:4257, V-A:HIS:383:CE1:3393"]

$$$$
2e_Grossjean_2025
     RDKit          3D

 25 26  0  0  0  0  0  0  0  0999 V2000
  129.7690  118.1190   61.7150 C   0  0  0  0  0  0  0  0  0  0  0  0
  131.0470  118.5610   61.0270 C   0  0  0  0  0  0  0  0  0  0  0  0
  131.6200  117.8100   59.9980 C   0  0  0  0  0  0  0  0  0  0  0  0
  132.7910  118.2840   59.4030 C   0  0  0  0  0  0  0  0  0  0  0  0
  133.3540  119.4830   59.8480 C   0  0  0  0  0  0  0  0  0  0  0  0
  132.7330  120.1800   60.8900 C   0  0  0  0  0  0  0  0  0  0  0  0
  133.3170  121.4010   61.2680 N   0  0  0  0  0  0  0  0  0  0  0  0
  133.8160  121.7480   62.4750 C   0  0  0  0  0  0  0  0  0  0  0  0
  133.9050  120.9950   63.4460 O   0  0  0  0  0  0  0  0  0  0  0  0
  134.2540  123.2090   62.6200 C   0  0  0  0  0  0  0  0  0  0  0  0
  133.2220  124.1170   63.8150 S   0  0  0  0  0  0  0  0  0  0  0  0
  131.5670  123.5110   63.5690 C   0  0  0  0  0  0  0  0  0  0  0  0
  130.9270  123.1390   64.7050 N   0  0  0  0  0  0  0  0  0  0  0  0
  129.6810  122.6250   64.6050 C   0  0  0  0  0  0  0  0  0  0  0  0
  129.0230  122.2300   65.9130 C   0  0  0  0  0  0  0  0  0  0  0  0
  129.0320  122.4570   63.3820 C   0  0  0  0  0  0  0  0  0  0  0  0
  129.6840  122.8290   62.1970 C   0  0  0  0  0  0  0  0  0  0  0  0
  128.9620  122.6170   60.8530 C   0  0  0  0  0  0  0  0  0  0  0  0
  129.6240  121.7260   60.1140 F   0  0  0  0  0  0  0  0  0  0  0  0
  127.7250  122.1700   61.0660 F   0  0  0  0  0  0  0  0  0  0  0  0
  128.8670  123.7400   60.1380 F   0  0  0  0  0  0  0  0  0  0  0  0
  130.9890  123.3740   62.2860 C   0  0  0  0  0  0  0  0  0  0  0  0
  131.7350  123.7540   61.0830 C   0  0  0  0  0  0  0  0  0  0  0  0
  132.3240  124.0540   60.1320 N   0  0  0  0  0  0  0  0  0  0  0  0
  131.5830  119.7270   61.4710 N   0  0  0  0  0  0  0  0  0  0  0  0
  1  2  1  0
  2  3  2  0
  3  4  1  0
  4  5  2  0
  5  6  1  0
  6  7  1  0
  7  8  1  0
  8  9  2  0
  8 10  1  0
 10 11  1  0
 11 12  1  0
 12 13  2  0
 13 14  1  0
 14 15  1  0
 14 16  2  0
 16 17  1  0
 17 18  1  0
 18 19  1  0
 18 20  1  0
 18 21  1  0
 17 22  2  0
 22 23  1  0
 23 24  3  0
  6 25  2  0
 25  2  1  0
 22 12  1  0
M  END
>  <Binding energies>  (21) 
[-6.36]

>  <Ligand effiencies>  (21) 
[-0.24461538461538462]

>  <Interactions>  (21) 
["V-B:GLU:543:CB:9877, V-B:GLU:543:CD:9879, H-A:GLY:454:N:4049, V-A:GLY:454:CA:4048, V-A:TYR:484:CZ:4346, V-B:PRO:540:CA:9854, V-B:PRO:540:CB:9856, V-B:ALA:541:CB:9863, V-B:PRO:540:C:9852, V-B:TYR:539:CE2:9847, V-B:TYR:539:CD2:9845, H-A:TYR:484:OH:4347, V-A:PRO:482:CG:4326, V-B:TYR:539:CG:9843, V-A:PRO:482:CB:4325, V-A:LEU:373:CD2:3280, V-B:GLU:543:CG:9878, V-B:ALA:541:CA:9861, V-B:TYR:539:CB:9842, V-A:ILE:369:CG2:3236, V-A:SER:385:CA:3406, V-A:TYR:484:CE2:4345, V-A:LEU:475:CD2:4258, V-B:TYR:539:C:9838, V-B:PRO:540:N:9855, V-A:GLY:453:C:4041, V-A:ILE:369:CD1:3238, V-A:SER:385:C:3404, V-A:LEU:475:CD1:4257, V-A:HIS:383:CE1:3393"]

$$$$
2f_Grossjean_2025
     RDKit          3D

 24 25  0  0  0  0  0  0  0  0999 V2000
  125.6340  126.9980   70.1390 C   0  0  0  0  0  0  0  0  0  0  0  0
  126.0780  127.7720   68.9120 C   0  0  0  0  0  0  0  0  0  0  0  0
  125.1600  128.3880   68.0650 C   0  0  0  0  0  0  0  0  0  0  0  0
  125.6200  129.0860   66.9380 C   0  0  0  0  0  0  0  0  0  0  0  0
  124.5880  129.7500   66.0070 C   0  0  0  0  0  0  0  0  0  0  0  0
  123.3620  129.6290   66.5210 F   0  0  0  0  0  0  0  0  0  0  0  0
  124.8700  131.0450   65.8650 F   0  0  0  0  0  0  0  0  0  0  0  0
  124.5650  129.2070   64.7880 F   0  0  0  0  0  0  0  0  0  0  0  0
  127.0170  129.1460   66.7020 C   0  0  0  0  0  0  0  0  0  0  0  0
  127.5440  129.8130   65.5080 C   0  0  0  0  0  0  0  0  0  0  0  0
  127.9590  130.3420   64.5660 N   0  0  0  0  0  0  0  0  0  0  0  0
  127.8780  128.5120   67.6310 C   0  0  0  0  0  0  0  0  0  0  0  0
  129.6540  128.4970   67.4980 S   0  0  0  0  0  0  0  0  0  0  0  0
  130.2480  126.8590   68.0410 C   0  0  0  0  0  0  0  0  0  0  0  0
  130.6730  125.9120   66.9090 C   0  0  0  0  0  0  0  0  0  0  0  0
  130.2020  124.7770   66.8300 O   0  0  0  0  0  0  0  0  0  0  0  0
  131.5910  126.4280   66.0630 N   0  0  0  0  0  0  0  0  0  0  0  0
  132.1850  125.8480   64.9260 C   0  0  0  0  0  0  0  0  0  0  0  0
  131.5040  125.4550   63.7590 C   0  0  0  0  0  0  0  0  0  0  0  0
  132.2170  124.8940   62.6980 C   0  0  0  0  0  0  0  0  0  0  0  0
  133.5980  124.7440   62.8280 C   0  0  0  0  0  0  0  0  0  0  0  0
  134.2790  125.1220   63.9380 N   0  0  0  0  0  0  0  0  0  0  0  0
  133.5720  125.6660   64.9610 C   0  0  0  0  0  0  0  0  0  0  0  0
  127.4130  127.8240   68.7020 N   0  0  0  0  0  0  0  0  0  0  0  0
  1  2  1  0
  2  3  2  0
  3  4  1  0
  4  5  1  0
  5  6  1  0
  5  7  1  0
  5  8  1  0
  4  9  2  0
  9 10  1  0
 10 11  3  0
  9 12  1  0
 12 13  1  0
 13 14  1  0
 14 15  1  0
 15 16  2  0
 15 17  1  0
 17 18  1  0
 18 19  2  0
 19 20  1  0
 20 21  2  0
 21 22  1  0
 22 23  2  0
 12 24  2  0
 24  2  1  0
 23 18  1  0
M  END
>  <Binding energies>  (22) 
[-6.45]

>  <Ligand effiencies>  (22) 
[-0.258]

>  <Interactions>  (22) 
["V-B:ARG:545:CG:9893, V-B:GLU:543:CB:9877, V-B:GLU:543:CD:9879, V-B:HIS:456:CE1:9040, H-A:GLY:454:N:4049, V-A:HIS:456:CE1:4069, H-A:ARG:545:NH1:4926, V-A:GLU:543:CD:4907, V-B:ARG:545:CZ:9897, H-A:ARG:545:NH2:4927, V-B:ARG:545:CD:9894, V-B:TYR:484:CZ:9317, V-A:TYR:484:CZ:4346, V-A:ARG:545:CZ:4925, V-A:ASP:366:CG:3212, V-B:GLY:544:C:9883, H-A:TYR:484:OH:4347, H-A:GLU:543:OE2:4909, V-B:GLY:453:C:9012, V-B:GLY:453:CA:9014, V-B:ARG:545:CA:9890, V-B:ARG:545:CB:9892, V-B:GLY:454:CA:9019, H-A:GLU:543:OE1:4908"]

$$$$
2g_Grossjean_2025
     RDKit          3D

 25 26  0  0  0  0  0  0  0  0999 V2000
  129.1160  126.7850   63.3360 C   0  0  0  0  0  0  0  0  0  0  0  0
  130.4110  126.4380   64.0450 C   0  0  0  0  0  0  0  0  0  0  0  0
  131.4690  125.8290   63.3740 C   0  0  0  0  0  0  0  0  0  0  0  0
  132.6440  125.5200   64.0770 C   0  0  0  0  0  0  0  0  0  0  0  0
  133.8010  124.8380   63.3200 C   0  0  0  0  0  0  0  0  0  0  0  0
  134.9530  125.4580   63.5800 F   0  0  0  0  0  0  0  0  0  0  0  0
  133.9000  123.5640   63.7020 F   0  0  0  0  0  0  0  0  0  0  0  0
  133.6310  124.8510   61.9970 F   0  0  0  0  0  0  0  0  0  0  0  0
  132.7180  125.8500   65.4540 C   0  0  0  0  0  0  0  0  0  0  0  0
  133.8990  125.4980   66.2470 C   0  0  0  0  0  0  0  0  0  0  0  0
  134.8330  125.2200   66.8720 N   0  0  0  0  0  0  0  0  0  0  0  0
  131.6040  126.4960   66.0440 C   0  0  0  0  0  0  0  0  0  0  0  0
  131.5380  127.0010   67.7500 S   0  0  0  0  0  0  0  0  0  0  0  0
  129.7960  126.8980   68.2850 C   0  0  0  0  0  0  0  0  0  0  0  0
  128.9450  128.1290   67.9400 C   0  0  0  0  0  0  0  0  0  0  0  0
  128.7810  129.0430   68.7500 O   0  0  0  0  0  0  0  0  0  0  0  0
  128.3990  128.1280   66.7110 N   0  0  0  0  0  0  0  0  0  0  0  0
  127.5590  129.1890   66.1530 C   0  0  0  0  0  0  0  0  0  0  0  0
  126.1240  129.1920   66.6680 C   0  0  0  0  0  0  0  0  0  0  0  0
  125.8610  128.8490   67.9980 C   0  0  0  0  0  0  0  0  0  0  0  0
  124.5550  128.8870   68.4800 C   0  0  0  0  0  0  0  0  0  0  0  0
  123.5190  129.2770   67.6360 C   0  0  0  0  0  0  0  0  0  0  0  0
  123.7760  129.6330   66.3130 C   0  0  0  0  0  0  0  0  0  0  0  0
  125.0810  129.5950   65.8300 C   0  0  0  0  0  0  0  0  0  0  0  0
  130.4680  126.7650   65.3560 N   0  0  0  0  0  0  0  0  0  0  0  0
  1  2  1  0
  2  3  2  0
  3  4  1  0
  4  5  1  0
  5  6  1  0
  5  7  1  0
  5  8  1  0
  4  9  2  0
  9 10  1  0
 10 11  3  0
  9 12  1  0
 12 13  1  0
 13 14  1  0
 14 15  1  0
 15 16  2  0
 15 17  1  0
 17 18  1  0
 18 19  1  0
 19 20  2  0
 20 21  1  0
 21 22  2  0
 22 23  1  0
 23 24  2  0
 12 25  2  0
 25  2  1  0
 24 19  1  0
M  END
>  <Binding energies>  (23) 
[-6.33]

>  <Ligand effiencies>  (23) 
[-0.24346153846153845]

>  <Interactions>  (23) 
["V-B:ARG:545:CG:9893, V-B:GLU:543:CD:9879, V-B:HIS:456:CE1:9040, H-A:GLY:454:N:4049, V-A:HIS:456:CE1:4069, V-A:GLU:543:CD:4907, V-A:GLY:454:CA:4048, V-B:ARG:545:CZ:9897, V-B:ARG:545:CD:9894, V-B:TYR:484:CZ:9317, V-A:ARG:545:CZ:4925, V-A:GLY:453:CA:4043, V-A:ASP:366:CG:3212, V-A:ARG:545:CD:4922, H-A:TYR:484:OH:4347, V-B:GLY:453:C:9012, V-B:ARG:545:CA:9890, V-B:ARG:545:CB:9892, V-B:GLY:454:CA:9019, H-A:ILE:455:N:4054, H-B:GLU:543:OE2:9881, V-A:GLY:453:C:4041, V-A:ILE:369:CD1:3238, H-B:GLU:543:OE1:9880"]

$$$$
2h_Grossjean_2025
     RDKit          3D

 31 32  0  0  0  0  0  0  0  0999 V2000
  123.9160  129.6160   63.7960 C   0  0  0  0  0  0  0  0  0  0  0  0
  123.8280  130.0510   65.1490 O   0  0  0  0  0  0  0  0  0  0  0  0
  124.7740  129.6200   66.0630 C   0  0  0  0  0  0  0  0  0  0  0  0
  124.4600  128.9690   67.2660 C   0  0  0  0  0  0  0  0  0  0  0  0
  125.4680  128.5560   68.1340 C   0  0  0  0  0  0  0  0  0  0  0  0
  126.8090  128.7850   67.8210 C   0  0  0  0  0  0  0  0  0  0  0  0
  127.8990  128.3050   68.7790 C   0  0  0  0  0  0  0  0  0  0  0  0
  128.7720  127.2790   68.2090 N   0  0  0  0  0  0  0  0  0  0  0  0
  130.1140  127.3480   68.1630 C   0  0  0  0  0  0  0  0  0  0  0  0
  130.7520  128.3370   68.5290 O   0  0  0  0  0  0  0  0  0  0  0  0
  130.8230  126.0980   67.6250 C   0  0  0  0  0  0  0  0  0  0  0  0
  131.5370  126.2740   65.9550 S   0  0  0  0  0  0  0  0  0  0  0  0
  131.3500  124.6990   65.1480 C   0  0  0  0  0  0  0  0  0  0  0  0
  130.1940  124.0620   65.4560 N   0  0  0  0  0  0  0  0  0  0  0  0
  129.9580  122.8470   64.9110 C   0  0  0  0  0  0  0  0  0  0  0  0
  128.6490  122.1900   65.3060 C   0  0  0  0  0  0  0  0  0  0  0  0
  130.8530  122.2260   64.0420 C   0  0  0  0  0  0  0  0  0  0  0  0
  132.0450  122.8800   63.6950 C   0  0  0  0  0  0  0  0  0  0  0  0
  133.0180  122.1810   62.7250 C   0  0  0  0  0  0  0  0  0  0  0  0
  133.1090  122.8780   61.5920 F   0  0  0  0  0  0  0  0  0  0  0  0
  134.2500  122.0650   63.2240 F   0  0  0  0  0  0  0  0  0  0  0  0
  132.5810  120.9530   62.4440 F   0  0  0  0  0  0  0  0  0  0  0  0
  132.3030  124.1580   64.2530 C   0  0  0  0  0  0  0  0  0  0  0  0
  133.5050  124.9070   63.8770 C   0  0  0  0  0  0  0  0  0  0  0  0
  134.4540  125.4980   63.5760 N   0  0  0  0  0  0  0  0  0  0  0  0
  127.1370  129.4560   66.6340 C   0  0  0  0  0  0  0  0  0  0  0  0
  128.4550  129.6880   66.3200 O   0  0  0  0  0  0  0  0  0  0  0  0
  128.9720  128.8450   65.2980 C   0  0  0  0  0  0  0  0  0  0  0  0
  126.1190  129.8540   65.7500 C   0  0  0  0  0  0  0  0  0  0  0  0
  126.4370  130.4950   64.5770 O   0  0  0  0  0  0  0  0  0  0  0  0
  126.8840  131.8330   64.7480 C   0  0  0  0  0  0  0  0  0  0  0  0
  1  2  1  0
  2  3  1  0
  3  4  2  0
  4  5  1  0
  5  6  2  0
  6  7  1  0
  7  8  1  0
  8  9  1  0
  9 10  2  0
  9 11  1  0
 11 12  1  0
 12 13  1  0
 13 14  2  0
 14 15  1  0
 15 16  1  0
 15 17  2  0
 17 18  1  0
 18 19  1  0
 19 20  1  0
 19 21  1  0
 19 22  1  0
 18 23  2  0
 23 24  1  0
 24 25  3  0
  6 26  1  0
 26 27  1  0
 27 28  1  0
 26 29  2  0
 29 30  1  0
 30 31  1  0
 29  3  1  0
 23 13  1  0
M  END
>  <Binding energies>  (24) 
[-6.38]

>  <Ligand effiencies>  (24) 
[-0.199375]

>  <Interactions>  (24) 
["V-B:ARG:545:CG:9893, V-B:GLU:543:CB:9877, V-A:GLU:543:CG:4906, V-B:GLU:543:CD:9879, V-B:HIS:456:CE1:9040, H-A:GLY:454:N:4049, V-A:HIS:456:CE1:4069, H-A:ARG:545:NH1:4926, V-A:GLU:543:CD:4907, V-A:GLY:454:CA:4048, V-B:ARG:545:CZ:9897, H-A:ARG:545:NH2:4927, V-B:ARG:545:CD:9894, H-B:GLY:454:N:9020, V-A:TYR:484:CZ:4346, V-A:ARG:545:CZ:4925, V-B:ALA:541:CB:9863, H-A:TYR:484:OH:4347, V-B:ALA:541:C:9859, V-B:GLU:543:CG:9878, V-B:ALA:541:CA:9861, V-A:TYR:484:CE2:4345, V-A:LEU:475:CD2:4258, H-B:GLU:543:OE2:9881, V-A:GLY:453:C:4041, V-A:ILE:369:CD1:3238, V-A:SER:385:C:3404, H-B:GLU:543:OE1:9880, V-A:LEU:475:CD1:4257"]

$$$$
2i_Grossjean_2025
     RDKit          3D

 23 24  0  0  0  0  0  0  0  0999 V2000
  125.6380  127.0030   70.2820 C   0  0  0  0  0  0  0  0  0  0  0  0
  126.1340  127.7130   69.0350 C   0  0  0  0  0  0  0  0  0  0  0  0
  125.2530  128.2950   68.1280 C   0  0  0  0  0  0  0  0  0  0  0  0
  125.7610  128.9420   66.9920 C   0  0  0  0  0  0  0  0  0  0  0  0
  124.7720  129.5800   65.9980 C   0  0  0  0  0  0  0  0  0  0  0  0
  123.5230  129.4360   66.4410 F   0  0  0  0  0  0  0  0  0  0  0  0
  125.0360  130.8800   65.8610 F   0  0  0  0  0  0  0  0  0  0  0  0
  124.8330  129.0290   64.7830 F   0  0  0  0  0  0  0  0  0  0  0  0
  127.1670  128.9800   66.8060 C   0  0  0  0  0  0  0  0  0  0  0  0
  127.7520  129.6440   65.6370 C   0  0  0  0  0  0  0  0  0  0  0  0
  128.2150  130.1680   64.7150 N   0  0  0  0  0  0  0  0  0  0  0  0
  127.9880  128.3610   67.7770 C   0  0  0  0  0  0  0  0  0  0  0  0
  129.7680  128.3390   67.6440 S   0  0  0  0  0  0  0  0  0  0  0  0
  130.3480  126.6770   68.1000 C   0  0  0  0  0  0  0  0  0  0  0  0
  130.9030  125.9070   66.9000 C   0  0  0  0  0  0  0  0  0  0  0  0
  130.4260  124.8040   66.6240 O   0  0  0  0  0  0  0  0  0  0  0  0
  131.9160  126.5030   66.2360 N   0  0  0  0  0  0  0  0  0  0  0  0
  132.5920  126.0020   65.1350 C   0  0  0  0  0  0  0  0  0  0  0  0
  132.1800  125.8820   63.8000 C   0  0  0  0  0  0  0  0  0  0  0  0
  133.2570  125.3220   63.1510 C   0  0  0  0  0  0  0  0  0  0  0  0
  134.2580  125.1240   64.0420 O   0  0  0  0  0  0  0  0  0  0  0  0
  133.8230  125.5650   65.2940 N   0  0  0  0  0  0  0  0  0  0  0  0
  127.4750  127.7410   68.8700 N   0  0  0  0  0  0  0  0  0  0  0  0
  1  2  1  0
  2  3  2  0
  3  4  1  0
  4  5  1  0
  5  6  1  0
  5  7  1  0
  5  8  1  0
  4  9  2  0
  9 10  1  0
 10 11  3  0
  9 12  1  0
 12 13  1  0
 13 14  1  0
 14 15  1  0
 15 16  2  0
 15 17  1  0
 17 18  1  0
 18 19  1  0
 19 20  2  0
 20 21  1  0
 21 22  1  0
 12 23  2  0
 23  2  1  0
 22 18  2  0
M  END
>  <Binding energies>  (25) 
[-7.08]

>  <Ligand effiencies>  (25) 
[-0.295]

>  <Interactions>  (25) 
["V-B:ARG:545:CG:9893, V-B:GLU:543:CB:9877, V-B:GLU:543:CD:9879, V-B:HIS:456:CE1:9040, H-A:GLY:454:N:4049, V-A:HIS:456:CE1:4069, H-A:ARG:545:NH1:4926, V-A:GLU:543:CD:4907, V-B:ARG:545:CZ:9897, H-A:ARG:545:NH2:4927, V-B:ARG:545:CD:9894, V-B:TYR:484:CZ:9317, V-A:TYR:484:CZ:4346, V-A:ARG:545:CZ:4925, V-A:ASP:366:CG:3212, V-B:GLY:544:C:9883, H-A:ARG:545:NE:4923, H-A:TYR:484:OH:4347, V-B:GLY:453:C:9012, V-B:GLY:453:CA:9014, V-B:ARG:545:CA:9890, V-B:ARG:545:CB:9892, V-B:GLY:454:CA:9019, H-A:GLU:543:OE1:4908"]

$$$$
2k_Grossjean_2025
     RDKit          3D

 28 28  0  0  0  0  0  0  0  0999 V2000
  132.1170  125.5620   58.5010 C   0  0  0  0  0  0  0  0  0  0  0  0
  133.1970  124.6620   58.3130 O   0  0  0  0  0  0  0  0  0  0  0  0
  133.2460  123.6240   59.2840 C   0  0  0  0  0  0  0  0  0  0  0  0
  132.9850  124.2080   60.6790 C   0  0  0  0  0  0  0  0  0  0  0  0
  133.7680  123.5020   61.6300 O   0  0  0  0  0  0  0  0  0  0  0  0
  133.4900  123.8410   62.9840 C   0  0  0  0  0  0  0  0  0  0  0  0
  134.1340  125.2010   63.2840 C   0  0  0  0  0  0  0  0  0  0  0  0
  134.0150  125.4400   64.6780 O   0  0  0  0  0  0  0  0  0  0  0  0
  132.7430  125.1430   65.2350 C   0  0  0  0  0  0  0  0  0  0  0  0
  131.7580  126.2660   64.8590 C   0  0  0  0  0  0  0  0  0  0  0  0
  130.7390  126.5000   65.8840 N   0  0  0  0  0  0  0  0  0  0  0  0
  130.9650  126.5820   67.2090 C   0  0  0  0  0  0  0  0  0  0  0  0
  132.0870  126.4960   67.7120 O   0  0  0  0  0  0  0  0  0  0  0  0
  129.7190  126.7720   68.0870 C   0  0  0  0  0  0  0  0  0  0  0  0
  129.1540  128.4990   68.2810 S   0  0  0  0  0  0  0  0  0  0  0  0
  127.5500  128.6880   67.5140 C   0  0  0  0  0  0  0  0  0  0  0  0
  126.5010  128.8100   68.3660 N   0  0  0  0  0  0  0  0  0  0  0  0
  125.2570  128.9520   67.8560 C   0  0  0  0  0  0  0  0  0  0  0  0
  124.1380  129.0710   68.8720 C   0  0  0  0  0  0  0  0  0  0  0  0
  125.0070  128.9910   66.4870 C   0  0  0  0  0  0  0  0  0  0  0  0
  126.0780  128.8740   65.5870 C   0  0  0  0  0  0  0  0  0  0  0  0
  125.7840  128.9240   64.0750 C   0  0  0  0  0  0  0  0  0  0  0  0
  126.1110  127.7930   63.4480 F   0  0  0  0  0  0  0  0  0  0  0  0
  124.4830  129.1350   63.8690 F   0  0  0  0  0  0  0  0  0  0  0  0
  126.4770  129.9130   63.5080 F   0  0  0  0  0  0  0  0  0  0  0  0
  127.3870  128.7170   66.1080 C   0  0  0  0  0  0  0  0  0  0  0  0
  128.5420  128.5870   65.2140 C   0  0  0  0  0  0  0  0  0  0  0  0
  129.4530  128.4850   64.5080 N   0  0  0  0  0  0  0  0  0  0  0  0
  1  2  1  0
  2  3  1  0
  3  4  1  0
  4  5  1  0
  5  6  1  0
  6  7  1  0
  7  8  1  0
  8  9  1  0
  9 10  1  0
 10 11  1  0
 11 12  1  0
 12 13  2  0
 12 14  1  0
 14 15  1  0
 15 16  1  0
 16 17  2  0
 17 18  1  0
 18 19  1  0
 18 20  2  0
 20 21  1  0
 21 22  1  0
 22 23  1  0
 22 24  1  0
 22 25  1  0
 21 26  2  0
 26 27  1  0
 27 28  3  0
 26 16  1  0
M  END
>  <Binding energies>  (26) 
[-5.33]

>  <Ligand effiencies>  (26) 
[-0.18379310344827587]

>  <Interactions>  (26) 
["V-B:ARG:545:CG:9893, V-B:GLU:543:CD:9879, V-B:HIS:456:CE1:9040, H-A:GLY:454:N:4049, V-A:HIS:456:CE1:4069, H-A:ARG:545:NH1:4926, V-A:GLU:543:CD:4907, V-A:GLY:454:CA:4048, V-B:ARG:545:CZ:9897, H-B:TYR:484:OH:9318, H-A:ARG:545:NH2:4927, V-B:ARG:545:CD:9894, V-A:ARG:545:CZ:4925, V-A:GLY:453:CA:4043, V-A:ASP:366:CG:3212, V-B:TYR:539:CE2:9847, V-B:TYR:539:CZ:9848, H-A:ARG:545:NE:4923, H-A:TYR:484:OH:4347, V-A:ILE:369:CG2:3236, V-B:ARG:545:CA:9890, V-B:ARG:545:CB:9892, V-A:ASP:366:CB:3211, H-B:GLU:543:OE2:9881, V-A:GLY:453:C:4041, V-A:ILE:369:CD1:3238, H-A:GLU:543:OE1:4908, V-A:ILE:369:CB:3235, H-B:TYR:539:OH:9849, V-B:ILE:455:C:9022"]

$$$$
3aa_Grossjean_2025
     RDKit          3D

 34 36  0  0  0  0  0  0  0  0999 V2000
  123.4770  123.9020   58.9620 C   0  0  0  0  0  0  0  0  0  0  0  0
  124.0160  124.4220   57.6250 C   0  0  0  0  0  0  0  0  0  0  0  0
  125.4360  124.3410   57.6220 O   0  0  0  0  0  0  0  0  0  0  0  0
  126.1990  125.4370   57.8640 C   0  0  0  0  0  0  0  0  0  0  0  0
  125.8090  126.5930   57.6730 O   0  0  0  0  0  0  0  0  0  0  0  0
  127.5730  125.1040   58.3720 C   0  0  0  0  0  0  0  0  0  0  0  0
  128.7280  125.6740   57.8180 C   0  0  0  0  0  0  0  0  0  0  0  0
  129.9870  125.3460   58.3160 C   0  0  0  0  0  0  0  0  0  0  0  0
  130.1150  124.4520   59.3800 C   0  0  0  0  0  0  0  0  0  0  0  0
  131.4320  124.1930   59.8100 N   0  0  0  0  0  0  0  0  0  0  0  0
  132.6020  124.3770   59.1600 C   0  0  0  0  0  0  0  0  0  0  0  0
  132.7210  124.8040   58.0110 O   0  0  0  0  0  0  0  0  0  0  0  0
  133.8590  124.0000   59.9450 C   0  0  0  0  0  0  0  0  0  0  0  0
  133.6740  124.3430   61.7210 S   0  0  0  0  0  0  0  0  0  0  0  0
  132.4160  123.2450   62.3360 C   0  0  0  0  0  0  0  0  0  0  0  0
  132.3740  122.0540   61.6930 N   0  0  0  0  0  0  0  0  0  0  0  0
  131.4580  121.1220   62.0620 C   0  0  0  0  0  0  0  0  0  0  0  0
  131.4850  119.8240   61.3130 C   0  0  0  0  0  0  0  0  0  0  0  0
  130.4410  118.8950   61.4550 C   0  0  0  0  0  0  0  0  0  0  0  0
  130.4580  117.6870   60.7610 C   0  0  0  0  0  0  0  0  0  0  0  0
  131.5220  117.3920   59.9160 C   0  0  0  0  0  0  0  0  0  0  0  0
  132.5670  118.2960   59.7570 C   0  0  0  0  0  0  0  0  0  0  0  0
  132.5460  119.5040   60.4490 C   0  0  0  0  0  0  0  0  0  0  0  0
  130.5600  121.3710   63.1050 C   0  0  0  0  0  0  0  0  0  0  0  0
  130.5720  122.6050   63.7740 C   0  0  0  0  0  0  0  0  0  0  0  0
  129.5590  122.8450   64.9080 C   0  0  0  0  0  0  0  0  0  0  0  0
  129.1820  121.7170   65.5140 F   0  0  0  0  0  0  0  0  0  0  0  0
  130.0900  123.6380   65.8390 F   0  0  0  0  0  0  0  0  0  0  0  0
  128.4620  123.4260   64.4220 F   0  0  0  0  0  0  0  0  0  0  0  0
  131.5190  123.5800   63.3740 C   0  0  0  0  0  0  0  0  0  0  0  0
  131.5400  124.9060   63.9970 C   0  0  0  0  0  0  0  0  0  0  0  0
  131.5560  125.9540   64.4900 N   0  0  0  0  0  0  0  0  0  0  0  0
  128.9650  123.8680   59.9310 C   0  0  0  0  0  0  0  0  0  0  0  0
  127.7090  124.1950   59.4300 C   0  0  0  0  0  0  0  0  0  0  0  0
  1  2  1  0
  2  3  1  0
  3  4  1  0
  4  5  2  0
  4  6  1  0
  6  7  2  0
  7  8  1  0
  8  9  2  0
  9 10  1  0
 10 11  1  0
 11 12  2  0
 11 13  1  0
 13 14  1  0
 14 15  1  0
 15 16  2  0
 16 17  1  0
 17 18  1  0
 18 19  2  0
 19 20  1  0
 20 21  2  0
 21 22  1  0
 22 23  2  0
 17 24  2  0
 24 25  1  0
 25 26  1  0
 26 27  1  0
 26 28  1  0
 26 29  1  0
 25 30  2  0
 30 31  1  0
 31 32  3  0
  9 33  1  0
 33 34  2  0
 34  6  1  0
 30 15  1  0
 23 18  1  0
M  END
>  <Binding energies>  (27) 
[-7.3]

>  <Ligand effiencies>  (27) 
[-0.20857142857142857]

>  <Interactions>  (27) 
["V-B:GLU:543:CD:9879, V-B:ASP:366:CG:8183, V-A:TYR:484:CZ:4346, V-B:PRO:540:CB:9856, V-B:ALA:541:CB:9863, V-A:ASP:366:CG:3212, V-B:TYR:539:CE2:9847, V-B:TYR:539:CZ:9848, V-B:TYR:539:CD2:9845, V-B:MET:535:CE:9806, V-A:PRO:482:CG:4326, V-B:ASP:366:CB:8182, V-A:PRO:482:CB:4325, V-B:ALA:541:C:9859, V-B:GLU:543:CG:9878, V-B:ALA:541:CA:9861, V-B:TYR:539:CB:9842, V-A:ILE:369:CG2:3236, V-A:TYR:484:CE2:4345, V-A:LEU:475:CD2:4258, V-B:TYR:531:CE2:9764, V-B:LEU:363:CD1:8159, V-B:TYR:531:CZ:9765, H-B:TYR:531:OH:9766, V-A:ASP:366:CB:3211, V-B:TYR:539:C:9838, V-A:ILE:369:CD1:3238, V-A:LEU:475:CD1:4257, V-A:ILE:369:CB:3235, V-A:ILE:369:CG1:3237, V-A:HIS:383:CE1:3393, V-A:ASP:366:CA:3209, H-B:TYR:539:OH:9849, V-B:LEU:363:CA:8155, V-B:LEU:363:CB:8157"]

$$$$
3ad_Grossjean_2025
     RDKit          3D

 29 31  0  0  0  0  0  0  0  0999 V2000
  134.6310  119.1260   59.8570 N   0  0  0  0  0  0  0  0  0  0  0  0
  133.6550  119.6230   60.2320 C   0  0  0  0  0  0  0  0  0  0  0  0
  132.4180  120.2500   60.7080 C   0  0  0  0  0  0  0  0  0  0  0  0
  131.3040  119.4600   61.0820 C   0  0  0  0  0  0  0  0  0  0  0  0
  131.3310  117.9190   61.0590 C   0  0  0  0  0  0  0  0  0  0  0  0
  130.1770  117.3750   61.4510 F   0  0  0  0  0  0  0  0  0  0  0  0
  131.5780  117.4880   59.8200 F   0  0  0  0  0  0  0  0  0  0  0  0
  132.2840  117.4650   61.8740 F   0  0  0  0  0  0  0  0  0  0  0  0
  130.1280  120.1090   61.4860 C   0  0  0  0  0  0  0  0  0  0  0  0
  130.0640  121.5060   61.5120 C   0  0  0  0  0  0  0  0  0  0  0  0
  128.8280  122.2510   61.9210 C   0  0  0  0  0  0  0  0  0  0  0  0
  127.8840  122.6550   60.9640 C   0  0  0  0  0  0  0  0  0  0  0  0
  126.7350  123.3450   61.3360 C   0  0  0  0  0  0  0  0  0  0  0  0
  126.5120  123.6430   62.6770 C   0  0  0  0  0  0  0  0  0  0  0  0
  127.4310  123.2520   63.6460 C   0  0  0  0  0  0  0  0  0  0  0  0
  128.5790  122.5610   63.2690 C   0  0  0  0  0  0  0  0  0  0  0  0
  131.1330  122.2590   61.1470 N   0  0  0  0  0  0  0  0  0  0  0  0
  132.2850  121.6550   60.7730 C   0  0  0  0  0  0  0  0  0  0  0  0
  133.5810  122.7950   60.3410 S   0  0  0  0  0  0  0  0  0  0  0  0
  133.1630  124.3970   61.0920 C   0  0  0  0  0  0  0  0  0  0  0  0
  133.0430  124.3070   62.6150 C   0  0  0  0  0  0  0  0  0  0  0  0
  133.0760  123.2010   63.1540 O   0  0  0  0  0  0  0  0  0  0  0  0
  132.9060  125.4880   63.2550 N   0  0  0  0  0  0  0  0  0  0  0  0
  132.7860  125.7580   64.6310 C   0  0  0  0  0  0  0  0  0  0  0  0
  131.4840  125.9720   65.0950 C   0  0  0  0  0  0  0  0  0  0  0  0
  131.2540  126.2510   66.4390 C   0  0  0  0  0  0  0  0  0  0  0  0
  132.3270  126.3210   67.3230 C   0  0  0  0  0  0  0  0  0  0  0  0
  133.6290  126.1170   66.8740 C   0  0  0  0  0  0  0  0  0  0  0  0
  133.8640  125.8380   65.5300 C   0  0  0  0  0  0  0  0  0  0  0  0
  1  2  3  0
  2  3  1  0
  3  4  2  0
  4  5  1  0
  5  6  1  0
  5  7  1  0
  5  8  1  0
  4  9  1  0
  9 10  2  0
 10 11  1  0
 11 12  2  0
 12 13  1  0
 13 14  2  0
 14 15  1  0
 15 16  2  0
 10 17  1  0
 17 18  2  0
 18 19  1  0
 19 20  1  0
 20 21  1  0
 21 22  2  0
 21 23  1  0
 23 24  1  0
 24 25  2  0
 25 26  1  0
 26 27  2  0
 27 28  1  0
 28 29  2  0
 18  3  1  0
 29 24  1  0
 16 11  1  0
M  END
>  <Binding energies>  (28) 
[-7.77]

>  <Ligand effiencies>  (28) 
[-0.259]

>  <Interactions>  (28) 
["V-B:GLU:543:CD:9879, H-A:GLY:454:N:4049, V-A:HIS:456:CE1:4069, V-A:TYR:484:CZ:4346, V-B:PRO:540:CA:9854, V-A:ARG:545:CZ:4925, V-B:PRO:540:CB:9856, H-A:ASP:366:OD1:3213, V-A:GLY:453:CA:4043, V-B:ALA:541:CB:9863, V-A:ASP:366:CG:3212, V-A:ARG:545:CD:4922, V-A:ARG:545:CG:4921, V-B:PRO:540:C:9852, V-B:TYR:539:CE2:9847, V-B:TYR:539:CD2:9845, V-A:PRO:482:CG:4326, V-A:PRO:482:CB:4325, V-B:ALA:541:C:9859, V-B:GLU:543:CG:9878, V-B:ALA:541:CA:9861, V-B:TYR:539:CB:9842, V-A:SER:385:CB:3408, V-A:ILE:369:CG2:3236, V-A:SER:385:CA:3406, V-A:LEU:475:CD2:4258, H-A:ASP:366:OD2:3214, V-B:TYR:539:C:9838, V-A:ILE:369:CD1:3238, V-A:HIS:383:CE1:3393, V-A:THR:477:CG2:4272, H-A:SER:385:N:3407"]

$$$$
3ai_Grossjean_2025
     RDKit          3D

 28 30  0  0  0  0  0  0  0  0999 V2000
  133.8000  124.6240   63.5040 N   0  0  0  0  0  0  0  0  0  0  0  0
  132.8710  124.3890   62.8560 C   0  0  0  0  0  0  0  0  0  0  0  0
  131.6930  124.0880   62.0370 C   0  0  0  0  0  0  0  0  0  0  0  0
  131.5390  122.8190   61.4270 C   0  0  0  0  0  0  0  0  0  0  0  0
  132.5560  121.6770   61.6170 C   0  0  0  0  0  0  0  0  0  0  0  0
  132.8400  121.4450   62.9000 F   0  0  0  0  0  0  0  0  0  0  0  0
  132.0710  120.5460   61.1010 F   0  0  0  0  0  0  0  0  0  0  0  0
  133.7020  121.9760   61.0040 F   0  0  0  0  0  0  0  0  0  0  0  0
  130.4180  122.5970   60.6130 C   0  0  0  0  0  0  0  0  0  0  0  0
  129.4780  123.6130   60.4110 C   0  0  0  0  0  0  0  0  0  0  0  0
  128.2680  123.4350   59.5440 C   0  0  0  0  0  0  0  0  0  0  0  0
  128.3830  122.8790   58.2600 C   0  0  0  0  0  0  0  0  0  0  0  0
  127.2630  122.7060   57.4510 C   0  0  0  0  0  0  0  0  0  0  0  0
  126.0100  123.0880   57.9170 C   0  0  0  0  0  0  0  0  0  0  0  0
  125.8690  123.6390   59.1860 C   0  0  0  0  0  0  0  0  0  0  0  0
  126.9900  123.8100   59.9930 C   0  0  0  0  0  0  0  0  0  0  0  0
  129.6330  124.8310   60.9910 N   0  0  0  0  0  0  0  0  0  0  0  0
  130.6950  125.0620   61.8010 C   0  0  0  0  0  0  0  0  0  0  0  0
  130.7190  126.7040   62.4880 S   0  0  0  0  0  0  0  0  0  0  0  0
  130.0290  126.6160   64.1750 C   0  0  0  0  0  0  0  0  0  0  0  0
  130.9460  125.9580   65.2170 C   0  0  0  0  0  0  0  0  0  0  0  0
  130.5870  124.9450   65.8230 O   0  0  0  0  0  0  0  0  0  0  0  0
  132.1340  126.5790   65.3950 N   0  0  0  0  0  0  0  0  0  0  0  0
  133.1560  126.2080   66.2590 C   0  0  0  0  0  0  0  0  0  0  0  0
  133.0350  126.2570   67.6480 C   0  0  0  0  0  0  0  0  0  0  0  0
  134.2460  125.8190   68.1290 C   0  0  0  0  0  0  0  0  0  0  0  0
  135.0560  125.5200   67.0850 O   0  0  0  0  0  0  0  0  0  0  0  0
  134.3530  125.7700   65.9050 N   0  0  0  0  0  0  0  0  0  0  0  0
  1  2  3  0
  2  3  1  0
  3  4  2  0
  4  5  1  0
  5  6  1  0
  5  7  1  0
  5  8  1  0
  4  9  1  0
  9 10  2  0
 10 11  1  0
 11 12  2  0
 12 13  1  0
 13 14  2  0
 14 15  1  0
 15 16  2  0
 10 17  1  0
 17 18  2  0
 18 19  1  0
 19 20  1  0
 20 21  1  0
 21 22  2  0
 21 23  1  0
 23 24  1  0
 24 25  1  0
 25 26  2  0
 26 27  1  0
 27 28  1  0
 18  3  1  0
 28 24  2  0
 16 11  1  0
M  END
>  <Binding energies>  (29) 
[-7.74]

>  <Ligand effiencies>  (29) 
[-0.26689655172413795]

>  <Interactions>  (29) 
["H-A:GLY:454:N:4049, V-A:HIS:456:CE1:4069, H-A:ARG:545:NH1:4926, V-A:GLU:543:CD:4907, V-A:TYR:484:CZ:4346, V-B:PRO:540:CA:9854, V-A:ARG:545:CZ:4925, V-B:PRO:540:CB:9856, V-A:ARG:545:CD:4922, V-A:ARG:545:CG:4921, V-B:TYR:539:CE2:9847, V-B:TYR:539:CZ:9848, V-B:TYR:539:CD2:9845, H-A:ARG:545:NE:4923, V-B:MET:535:CE:9806, H-A:TYR:484:OH:4347, H-A:GLU:543:OE2:4909, V-B:TYR:539:CG:9843, V-A:ILE:369:CG2:3236, V-A:LEU:475:CD2:4258, H-A:ILE:455:N:4054, V-B:TYR:539:C:9838, V-B:PRO:540:N:9855, V-A:ILE:369:CD1:3238, H-A:GLU:543:OE1:4908, V-A:ILE:455:C:4051, V-A:HIS:456:CG:4065, V-A:HIS:456:CD2:4067, V-A:ARG:545:CB:4920, V-B:PRO:540:CD:9858"]

$$$$
3aj_Grossjean_2025
     RDKit          3D

 28 30  0  0  0  0  0  0  0  0999 V2000
  125.1960  128.4050   69.1980 N   0  0  0  0  0  0  0  0  0  0  0  0
  126.2490  128.1300   68.8070 C   0  0  0  0  0  0  0  0  0  0  0  0
  127.5840  127.7830   68.3100 C   0  0  0  0  0  0  0  0  0  0  0  0
  128.0940  128.3760   67.1300 C   0  0  0  0  0  0  0  0  0  0  0  0
  127.3150  129.4380   66.3290 C   0  0  0  0  0  0  0  0  0  0  0  0
  126.0010  129.1980   66.2940 F   0  0  0  0  0  0  0  0  0  0  0  0
  127.4900  130.6410   66.8750 F   0  0  0  0  0  0  0  0  0  0  0  0
  127.7480  129.4680   65.0680 F   0  0  0  0  0  0  0  0  0  0  0  0
  129.3580  127.9750   66.6700 C   0  0  0  0  0  0  0  0  0  0  0  0
  130.0890  127.0060   67.3650 C   0  0  0  0  0  0  0  0  0  0  0  0
  131.4370  126.5340   66.9120 C   0  0  0  0  0  0  0  0  0  0  0  0
  132.5510  126.6320   67.7600 C   0  0  0  0  0  0  0  0  0  0  0  0
  133.8070  126.1920   67.3470 C   0  0  0  0  0  0  0  0  0  0  0  0
  133.9640  125.6470   66.0760 C   0  0  0  0  0  0  0  0  0  0  0  0
  132.8740  125.5390   65.2180 C   0  0  0  0  0  0  0  0  0  0  0  0
  131.6220  125.9780   65.6350 C   0  0  0  0  0  0  0  0  0  0  0  0
  129.5920  126.4340   68.4920 N   0  0  0  0  0  0  0  0  0  0  0  0
  128.3860  126.8220   68.9690 C   0  0  0  0  0  0  0  0  0  0  0  0
  127.9100  125.9820   70.4640 S   0  0  0  0  0  0  0  0  0  0  0  0
  129.0550  126.5040   71.7870 C   0  0  0  0  0  0  0  0  0  0  0  0
  129.2560  125.4790   72.9130 C   0  0  0  0  0  0  0  0  0  0  0  0
  129.2730  125.8350   74.0940 O   0  0  0  0  0  0  0  0  0  0  0  0
  129.4030  124.2030   72.4950 N   0  0  0  0  0  0  0  0  0  0  0  0
  129.5920  123.0840   73.2960 C   0  0  0  0  0  0  0  0  0  0  0  0
  128.6840  122.2280   73.7140 N   0  0  0  0  0  0  0  0  0  0  0  0
  129.2180  121.2790   74.4580 C   0  0  0  0  0  0  0  0  0  0  0  0
  130.5940  121.3560   74.6590 C   0  0  0  0  0  0  0  0  0  0  0  0
  131.2100  122.7500   73.8250 S   0  0  0  0  0  0  0  0  0  0  0  0
  1  2  3  0
  2  3  1  0
  3  4  2  0
  4  5  1  0
  5  6  1  0
  5  7  1  0
  5  8  1  0
  4  9  1  0
  9 10  2  0
 10 11  1  0
 11 12  2  0
 12 13  1  0
 13 14  2  0
 14 15  1  0
 15 16  2  0
 10 17  1  0
 17 18  2  0
 18 19  1  0
 19 20  1  0
 20 21  1  0
 21 22  2  0
 21 23  1  0
 23 24  1  0
 24 25  2  0
 25 26  1  0
 26 27  2  0
 27 28  1  0
 18  3  1  0
 28 24  1  0
 16 11  1  0
M  END
>  <Binding energies>  (30) 
[-7.36]

>  <Ligand effiencies>  (30) 
[-0.2537931034482759]

>  <Interactions>  (30) 
["V-B:ARG:545:CG:9893, V-B:GLU:543:CB:9877, V-A:GLU:543:CG:4906, V-B:GLU:543:CD:9879, V-B:HIS:456:CE1:9040, V-A:HIS:456:CE1:4069, V-A:GLU:543:CD:4907, V-A:GLY:454:CA:4048, H-B:TYR:484:OH:9318, V-B:TYR:484:CZ:9317, V-B:TYR:484:CE2:9316, V-A:ARG:545:CZ:4925, V-A:GLY:453:CA:4043, V-A:ARG:545:CD:4922, V-A:ARG:545:CG:4921, V-B:GLU:543:C:9873, V-A:GLY:453:C:4041, H-B:HIS:456:ND1:9037, H-A:HIS:456:NE2:4070, H-B:GLU:543:O:9874, H-B:LYS:547:NZ:9922, V-A:HIS:456:CG:4065, V-A:HIS:456:CD2:4067, V-A:TYR:484:CG:4341, V-A:TYR:484:CB:4340, V-A:ASP:473:CG:4239, V-A:HIS:456:CB:4064, V-A:TYR:484:CD2:4343"]

$$$$
3ak_Grossjean_2025
     RDKit          3D

 33 34  0  0  0  0  0  0  0  0999 V2000
  134.2680  125.7470   67.5600 C   0  0  0  0  0  0  0  0  0  0  0  0
  134.1940  125.5240   66.1610 O   0  0  0  0  0  0  0  0  0  0  0  0
  132.9240  125.8360   65.6060 C   0  0  0  0  0  0  0  0  0  0  0  0
  132.8960  125.3910   64.1390 C   0  0  0  0  0  0  0  0  0  0  0  0
  134.2290  125.1360   63.7070 O   0  0  0  0  0  0  0  0  0  0  0  0
  134.3920  124.0110   62.8470 C   0  0  0  0  0  0  0  0  0  0  0  0
  133.1700  123.0750   62.8120 C   0  0  0  0  0  0  0  0  0  0  0  0
  132.5920  123.1110   61.5150 O   0  0  0  0  0  0  0  0  0  0  0  0
  133.4980  123.4940   60.4900 C   0  0  0  0  0  0  0  0  0  0  0  0
  132.7250  123.9620   59.2440 C   0  0  0  0  0  0  0  0  0  0  0  0
  131.2970  124.1790   59.4880 N   0  0  0  0  0  0  0  0  0  0  0  0
  130.5130  125.0680   58.8490 C   0  0  0  0  0  0  0  0  0  0  0  0
  130.9290  125.8000   57.9500 O   0  0  0  0  0  0  0  0  0  0  0  0
  129.0330  125.1750   59.2540 C   0  0  0  0  0  0  0  0  0  0  0  0
  128.1650  123.6020   59.6060 S   0  0  0  0  0  0  0  0  0  0  0  0
  129.0110  122.7660   60.9380 C   0  0  0  0  0  0  0  0  0  0  0  0
  129.7620  121.6970   60.5770 N   0  0  0  0  0  0  0  0  0  0  0  0
  130.4390  120.9920   61.5190 C   0  0  0  0  0  0  0  0  0  0  0  0
  131.2440  119.8260   61.0310 C   0  0  0  0  0  0  0  0  0  0  0  0
  130.7040  118.5310   61.0290 C   0  0  0  0  0  0  0  0  0  0  0  0
  131.4470  117.4440   60.5730 C   0  0  0  0  0  0  0  0  0  0  0  0
  132.7430  117.6400   60.1090 C   0  0  0  0  0  0  0  0  0  0  0  0
  133.3010  118.9130   60.0970 C   0  0  0  0  0  0  0  0  0  0  0  0
  132.5560  119.9980   60.5530 C   0  0  0  0  0  0  0  0  0  0  0  0
  130.3860  121.3650   62.8670 C   0  0  0  0  0  0  0  0  0  0  0  0
  129.6180  122.4670   63.2680 C   0  0  0  0  0  0  0  0  0  0  0  0
  129.5840  122.8450   64.7620 C   0  0  0  0  0  0  0  0  0  0  0  0
  128.3890  122.5570   65.2780 F   0  0  0  0  0  0  0  0  0  0  0  0
  130.5180  122.1650   65.4270 F   0  0  0  0  0  0  0  0  0  0  0  0
  129.8090  124.1440   64.9730 F   0  0  0  0  0  0  0  0  0  0  0  0
  128.9080  123.1920   62.2810 C   0  0  0  0  0  0  0  0  0  0  0  0
  128.0880  124.3530   62.6420 C   0  0  0  0  0  0  0  0  0  0  0  0
  127.4400  125.2700   62.9270 N   0  0  0  0  0  0  0  0  0  0  0  0
  1  2  1  0
  2  3  1  0
  3  4  1  0
  4  5  1  0
  5  6  1  0
  6  7  1  0
  7  8  1  0
  8  9  1  0
  9 10  1  0
 10 11  1  0
 11 12  1  0
 12 13  2  0
 12 14  1  0
 14 15  1  0
 15 16  1  0
 16 17  2  0
 17 18  1  0
 18 19  1  0
 19 20  2  0
 20 21  1  0
 21 22  2  0
 22 23  1  0
 23 24  2  0
 18 25  2  0
 25 26  1  0
 26 27  1  0
 27 28  1  0
 27 29  1  0
 27 30  1  0
 26 31  2  0
 31 32  1  0
 32 33  3  0
 31 16  1  0
 24 19  1  0
M  END
>  <Binding energies>  (31) 
[-6.24]

>  <Ligand effiencies>  (31) 
[-0.18352941176470589]

>  <Interactions>  (31) 
["V-B:GLU:543:CB:9877, V-B:GLU:543:CD:9879, H-A:GLY:454:N:4049, V-A:HIS:456:CE1:4069, H-A:ARG:545:NH1:4926, V-A:GLY:454:CA:4048, H-A:ARG:545:NH2:4927, V-A:TYR:484:CZ:4346, V-A:ARG:545:CZ:4925, V-A:GLY:453:CA:4043, V-B:ALA:541:CB:9863, V-A:ASP:366:CG:3212, V-A:ARG:545:CD:4922, V-A:ARG:545:CG:4921, V-B:TYR:539:CE2:9847, V-B:TYR:539:CZ:9848, V-B:TYR:539:CD2:9845, H-A:ARG:545:NE:4923, H-A:TYR:484:OH:4347, V-B:ALA:541:C:9859, V-B:GLU:543:CG:9878, V-B:ALA:541:CA:9861, V-A:SER:385:CB:3408, V-A:ILE:369:CG2:3236, V-A:SER:385:CA:3406, V-A:TYR:484:CE2:4345, V-A:LEU:475:CD2:4258, V-A:GLY:453:C:4041, V-A:ILE:369:CD1:3238, V-A:LEU:475:CD1:4257, V-A:ILE:369:CB:3235, V-A:HIS:383:CE1:3393, H-B:TYR:539:OH:9849, V-A:ILE:455:C:4051, V-A:LEU:475:CG:4256, V-A:VAL:384:C:3396"]

$$$$
3bk_Grossjean_2025
     RDKit          3D

 30 31  0  0  0  0  0  0  0  0999 V2000
  132.7250  124.4420   59.3820 C   0  0  0  0  0  0  0  0  0  0  0  0
  133.1900  124.6540   58.0580 O   0  0  0  0  0  0  0  0  0  0  0  0
  132.7330  125.8730   57.4860 C   0  0  0  0  0  0  0  0  0  0  0  0
  131.2050  125.9570   57.6040 C   0  0  0  0  0  0  0  0  0  0  0  0
  130.7860  127.2910   57.3560 O   0  0  0  0  0  0  0  0  0  0  0  0
  129.8860  127.8020   58.3300 C   0  0  0  0  0  0  0  0  0  0  0  0
  129.0280  126.6540   58.8780 C   0  0  0  0  0  0  0  0  0  0  0  0
  129.3190  126.4640   60.2560 O   0  0  0  0  0  0  0  0  0  0  0  0
  128.6470  125.3540   60.8380 C   0  0  0  0  0  0  0  0  0  0  0  0
  128.1110  125.7500   62.2210 C   0  0  0  0  0  0  0  0  0  0  0  0
  128.3630  124.7210   63.2320 N   0  0  0  0  0  0  0  0  0  0  0  0
  127.8780  123.4680   63.2080 C   0  0  0  0  0  0  0  0  0  0  0  0
  127.1650  123.0280   62.3040 O   0  0  0  0  0  0  0  0  0  0  0  0
  128.2780  122.5590   64.3730 C   0  0  0  0  0  0  0  0  0  0  0  0
  129.8650  123.0580   65.1120 S   0  0  0  0  0  0  0  0  0  0  0  0
  131.1690  122.7920   63.9230 C   0  0  0  0  0  0  0  0  0  0  0  0
  131.0840  121.6500   63.1950 N   0  0  0  0  0  0  0  0  0  0  0  0
  132.0350  121.3620   62.2670 C   0  0  0  0  0  0  0  0  0  0  0  0
  131.8540  120.0920   61.4920 C   0  0  0  0  0  0  0  0  0  0  0  0
  130.6880  119.3230   61.6360 C   0  0  0  0  0  0  0  0  0  0  0  0
  130.5170  118.1390   60.9230 C   0  0  0  0  0  0  0  0  0  0  0  0
  131.5120  117.7070   60.0540 C   0  0  0  0  0  0  0  0  0  0  0  0
  132.6760  118.4520   59.8900 C   0  0  0  0  0  0  0  0  0  0  0  0
  132.8420  119.6360   60.6030 C   0  0  0  0  0  0  0  0  0  0  0  0
  133.1060  122.2350   62.0430 C   0  0  0  0  0  0  0  0  0  0  0  0
  133.2100  123.4170   62.7860 C   0  0  0  0  0  0  0  0  0  0  0  0
  134.3960  124.3410   62.5110 C   0  0  0  0  0  0  0  0  0  0  0  0
  132.2250  123.7130   63.7510 C   0  0  0  0  0  0  0  0  0  0  0  0
  132.3070  124.9450   64.5420 C   0  0  0  0  0  0  0  0  0  0  0  0
  132.3720  125.9170   65.1670 N   0  0  0  0  0  0  0  0  0  0  0  0
  1  2  1  0
  2  3  1  0
  3  4  1  0
  4  5  1  0
  5  6  1  0
  6  7  1  0
  7  8  1  0
  8  9  1  0
  9 10  1  0
 10 11  1  0
 11 12  1  0
 12 13  2  0
 12 14  1  0
 14 15  1  0
 15 16  1  0
 16 17  2  0
 17 18  1  0
 18 19  1  0
 19 20  2  0
 20 21  1  0
 21 22  2  0
 22 23  1  0
 23 24  2  0
 18 25  2  0
 25 26  1  0
 26 27  1  0
 26 28  2  0
 28 29  1  0
 29 30  3  0
 28 16  1  0
 24 19  1  0
M  END
>  <Binding energies>  (32) 
[-6.63]

>  <Ligand effiencies>  (32) 
[-0.21387096774193548]

>  <Interactions>  (32) 
["V-B:GLU:543:CD:9879, H-A:ARG:545:NH2:4927, H-B:ALA:541:N:9862, V-A:GLY:453:CA:4043, V-B:ALA:541:CB:9863, V-A:ASP:366:CG:3212, V-B:TYR:539:CE2:9847, V-B:TYR:539:CD2:9845, H-A:TYR:484:OH:4347, V-B:ALA:541:C:9859, V-B:GLU:543:CG:9878, V-B:ALA:541:CA:9861, V-B:TYR:539:CB:9842, V-A:ILE:369:CG2:3236, V-A:SER:385:CA:3406, V-A:LEU:475:CD2:4258, V-A:ASP:366:CB:3211, V-B:TYR:539:C:9838, H-B:GLU:543:OE2:9881, V-A:GLY:453:C:4041, V-A:ILE:369:CD1:3238, H-B:GLU:543:OE1:9880, H-A:TYR:531:OH:4794, V-A:HIS:383:CE1:3393, V-A:ASP:366:CA:3209, H-B:TYR:539:OH:9849, V-A:ASP:366:C:3207"]

$$$$
3cb_Grossjean_2025
     RDKit          3D

 30 32  0  0  0  0  0  0  0  0999 V2000
  129.9970  128.5700   72.8360 C   0  0  0  0  0  0  0  0  0  0  0  0
  129.4180  127.2790   72.7170 O   0  0  0  0  0  0  0  0  0  0  0  0
  128.4540  127.0270   71.7940 C   0  0  0  0  0  0  0  0  0  0  0  0
  127.2520  126.9560   72.0690 O   0  0  0  0  0  0  0  0  0  0  0  0
  128.9950  126.8410   70.4050 C   0  0  0  0  0  0  0  0  0  0  0  0
  129.0020  125.5900   69.7710 C   0  0  0  0  0  0  0  0  0  0  0  0
  129.5080  125.4530   68.4820 C   0  0  0  0  0  0  0  0  0  0  0  0
  130.0220  126.5570   67.8020 C   0  0  0  0  0  0  0  0  0  0  0  0
  130.5050  126.3050   66.5020 N   0  0  0  0  0  0  0  0  0  0  0  0
  131.7730  126.1580   66.0610 C   0  0  0  0  0  0  0  0  0  0  0  0
  132.7780  126.2070   66.7720 O   0  0  0  0  0  0  0  0  0  0  0  0
  131.8960  125.8970   64.5520 C   0  0  0  0  0  0  0  0  0  0  0  0
  133.4920  125.1860   64.0210 S   0  0  0  0  0  0  0  0  0  0  0  0
  133.1760  124.1140   62.6350 C   0  0  0  0  0  0  0  0  0  0  0  0
  133.4030  124.7020   61.4350 N   0  0  0  0  0  0  0  0  0  0  0  0
  133.1970  123.9820   60.3100 C   0  0  0  0  0  0  0  0  0  0  0  0
  133.4840  124.7000   59.0050 C   0  0  0  0  0  0  0  0  0  0  0  0
  132.7550  122.6620   60.3350 C   0  0  0  0  0  0  0  0  0  0  0  0
  132.4970  122.0390   61.5630 C   0  0  0  0  0  0  0  0  0  0  0  0
  132.0180  120.6230   61.5370 C   0  0  0  0  0  0  0  0  0  0  0  0
  132.9250  119.5770   61.3270 C   0  0  0  0  0  0  0  0  0  0  0  0
  132.4910  118.2540   61.3120 C   0  0  0  0  0  0  0  0  0  0  0  0
  131.1420  117.9700   61.5110 C   0  0  0  0  0  0  0  0  0  0  0  0
  130.2280  118.9970   61.7290 C   0  0  0  0  0  0  0  0  0  0  0  0
  130.6660  120.3190   61.7450 C   0  0  0  0  0  0  0  0  0  0  0  0
  132.6960  122.7860   62.7530 C   0  0  0  0  0  0  0  0  0  0  0  0
  132.3540  122.2150   64.0600 C   0  0  0  0  0  0  0  0  0  0  0  0
  132.0850  121.7650   65.0910 N   0  0  0  0  0  0  0  0  0  0  0  0
  130.0150  127.8130   68.4270 C   0  0  0  0  0  0  0  0  0  0  0  0
  129.5070  127.9490   69.7170 C   0  0  0  0  0  0  0  0  0  0  0  0
  1  2  1  0
  2  3  1  0
  3  4  2  0
  3  5  1  0
  5  6  2  0
  6  7  1  0
  7  8  2  0
  8  9  1  0
  9 10  1  0
 10 11  2  0
 10 12  1  0
 12 13  1  0
 13 14  1  0
 14 15  2  0
 15 16  1  0
 16 17  1  0
 16 18  2  0
 18 19  1  0
 19 20  1  0
 20 21  2  0
 21 22  1  0
 22 23  2  0
 23 24  1  0
 24 25  2  0
 19 26  2  0
 26 27  1  0
 27 28  3  0
  8 29  1  0
 29 30  2  0
 30  5  1  0
 26 14  1  0
 25 20  1  0
M  END
>  <Binding energies>  (33) 
[-8.45]

>  <Ligand effiencies>  (33) 
[-0.2725806451612903]

>  <Interactions>  (33) 
["V-A:GLU:543:CB:4905, V-B:GLU:543:CB:9877, V-B:GLU:543:CD:9879, V-B:HIS:456:CE1:9040, H-A:GLY:454:N:4049, V-A:HIS:456:CE1:4069, V-A:GLY:454:CA:4048, H-A:ARG:545:NH2:4927, V-A:TYR:484:CZ:4346, V-B:ALA:541:CB:9863, V-A:ASP:366:CG:3212, V-B:TYR:539:CE2:9847, V-B:GLU:543:C:9873, V-B:TYR:539:CD2:9845, H-A:ARG:545:NE:4923, H-A:TYR:484:OH:4347, V-A:PRO:482:CB:4325, V-B:GLU:543:CG:9878, V-A:SER:385:CB:3408, V-A:ILE:369:CG2:3236, V-A:SER:385:CA:3406, V-A:TYR:484:CE2:4345, V-A:LEU:475:CD2:4258, V-A:ASP:366:CB:3211, H-B:GLU:543:OE2:9881, V-A:ILE:369:CD1:3238, V-B:GLU:543:CA:9875, V-A:ILE:369:CB:3235, V-A:ASP:366:CA:3209, V-A:ASP:366:C:3207"]

$$$$
3ch_Grossjean_2025
     RDKit          3D

 32 34  0  0  0  0  0  0  0  0999 V2000
  133.1680  128.1160   75.2880 C   0  0  0  0  0  0  0  0  0  0  0  0
  131.7910  128.4760   75.3210 O   0  0  0  0  0  0  0  0  0  0  0  0
  130.9170  127.9170   74.4070 C   0  0  0  0  0  0  0  0  0  0  0  0
  130.5440  128.5300   73.2000 C   0  0  0  0  0  0  0  0  0  0  0  0
  129.6580  127.8980   72.3160 C   0  0  0  0  0  0  0  0  0  0  0  0
  129.2310  128.4300   71.0840 N   0  0  0  0  0  0  0  0  0  0  0  0
  128.6270  127.8170   70.0430 C   0  0  0  0  0  0  0  0  0  0  0  0
  128.3180  126.6270   69.9960 O   0  0  0  0  0  0  0  0  0  0  0  0
  128.2760  128.7200   68.8600 C   0  0  0  0  0  0  0  0  0  0  0  0
  126.5610  128.4880   68.3040 S   0  0  0  0  0  0  0  0  0  0  0  0
  126.5190  129.0070   66.6030 C   0  0  0  0  0  0  0  0  0  0  0  0
  127.6710  128.7710   65.9270 N   0  0  0  0  0  0  0  0  0  0  0  0
  127.7440  129.1370   64.6280 C   0  0  0  0  0  0  0  0  0  0  0  0
  129.0620  128.8490   63.9340 C   0  0  0  0  0  0  0  0  0  0  0  0
  126.6860  129.7460   63.9580 C   0  0  0  0  0  0  0  0  0  0  0  0
  125.4840  129.9920   64.6370 C   0  0  0  0  0  0  0  0  0  0  0  0
  124.3790  130.6560   63.8810 C   0  0  0  0  0  0  0  0  0  0  0  0
  123.2730  129.9120   63.4530 C   0  0  0  0  0  0  0  0  0  0  0  0
  122.2440  130.5230   62.7410 C   0  0  0  0  0  0  0  0  0  0  0  0
  122.3190  131.8830   62.4510 C   0  0  0  0  0  0  0  0  0  0  0  0
  123.4150  132.6360   62.8640 C   0  0  0  0  0  0  0  0  0  0  0  0
  124.4430  132.0210   63.5750 C   0  0  0  0  0  0  0  0  0  0  0  0
  125.3850  129.5960   65.9960 C   0  0  0  0  0  0  0  0  0  0  0  0
  124.1230  129.7420   66.7270 C   0  0  0  0  0  0  0  0  0  0  0  0
  123.1270  129.8580   67.3050 N   0  0  0  0  0  0  0  0  0  0  0  0
  129.1300  126.6520   72.6580 C   0  0  0  0  0  0  0  0  0  0  0  0
  129.4860  126.0190   73.8590 C   0  0  0  0  0  0  0  0  0  0  0  0
  129.0060  124.7820   74.2530 O   0  0  0  0  0  0  0  0  0  0  0  0
  129.3650  123.6220   73.5100 C   0  0  0  0  0  0  0  0  0  0  0  0
  130.3780  126.6630   74.7260 C   0  0  0  0  0  0  0  0  0  0  0  0
  130.7480  126.0470   75.8980 O   0  0  0  0  0  0  0  0  0  0  0  0
  131.7160  125.0200   75.7310 C   0  0  0  0  0  0  0  0  0  0  0  0
  1  2  1  0
  2  3  1  0
  3  4  2  0
  4  5  1  0
  5  6  1  0
  6  7  1  0
  7  8  2  0
  7  9  1  0
  9 10  1  0
 10 11  1  0
 11 12  2  0
 12 13  1  0
 13 14  1  0
 13 15  2  0
 15 16  1  0
 16 17  1  0
 17 18  2  0
 18 19  1  0
 19 20  2  0
 20 21  1  0
 21 22  2  0
 16 23  2  0
 23 24  1  0
 24 25  3  0
  5 26  2  0
 26 27  1  0
 27 28  1  0
 28 29  1  0
 27 30  2  0
 30 31  1  0
 31 32  1  0
 30  3  1  0
 23 11  1  0
 22 17  1  0
M  END
>  <Binding energies>  (34) 
[-8.21]

>  <Ligand effiencies>  (34) 
[-0.2487878787878788]

>  <Interactions>  (34) 
["V-B:ARG:545:CG:9893, V-B:GLU:543:CD:9879, V-B:HIS:456:CE1:9040, V-A:HIS:456:CE1:4069, V-A:GLU:543:CD:4907, V-B:LEU:475:CD1:9228, V-B:ARG:545:CZ:9897, H-B:TYR:484:OH:9318, V-B:ARG:545:CD:9894, H-B:GLY:454:N:9020, V-B:ASP:366:CG:8183, V-B:ILE:369:CG1:8208, H-B:ILE:455:N:9025, V-B:GLY:453:C:9012, V-B:GLY:453:CA:9014, V-B:GLY:454:CA:9019, V-B:SER:385:C:8375, H-A:LYS:547:NZ:4950, H-B:LYS:547:NZ:9922, V-A:HIS:456:CD2:4067, V-A:LYS:547:CD:4948, V-A:LYS:547:CE:4949, H-A:GLU:543:O:4902, H-B:HIS:456:NE2:9041"]

$$$$
3ci_Grossjean_2025
     RDKit          3D

 25 27  0  0  0  0  0  0  0  0999 V2000
  128.7400  122.4880   64.7610 C   0  0  0  0  0  0  0  0  0  0  0  0
  129.6530  122.6300   63.5580 C   0  0  0  0  0  0  0  0  0  0  0  0
  130.2230  121.5220   62.9370 C   0  0  0  0  0  0  0  0  0  0  0  0
  131.0470  121.7040   61.8180 C   0  0  0  0  0  0  0  0  0  0  0  0
  131.6240  120.4850   61.1740 C   0  0  0  0  0  0  0  0  0  0  0  0
  130.8430  119.3380   60.9840 C   0  0  0  0  0  0  0  0  0  0  0  0
  131.3880  118.2020   60.3920 C   0  0  0  0  0  0  0  0  0  0  0  0
  132.7210  118.2060   59.9920 C   0  0  0  0  0  0  0  0  0  0  0  0
  133.5130  119.3360   60.1810 C   0  0  0  0  0  0  0  0  0  0  0  0
  132.9650  120.4700   60.7730 C   0  0  0  0  0  0  0  0  0  0  0  0
  131.2830  123.0260   61.3610 C   0  0  0  0  0  0  0  0  0  0  0  0
  132.1700  123.2800   60.2210 C   0  0  0  0  0  0  0  0  0  0  0  0
  132.8710  123.4800   59.3210 N   0  0  0  0  0  0  0  0  0  0  0  0
  130.6600  124.0960   62.0490 C   0  0  0  0  0  0  0  0  0  0  0  0
  130.8690  125.7990   61.5460 S   0  0  0  0  0  0  0  0  0  0  0  0
  131.3380  126.8060   62.9910 C   0  0  0  0  0  0  0  0  0  0  0  0
  132.3710  126.1260   63.8970 C   0  0  0  0  0  0  0  0  0  0  0  0
  132.9990  125.1550   63.4710 O   0  0  0  0  0  0  0  0  0  0  0  0
  132.5040  126.6540   65.1340 N   0  0  0  0  0  0  0  0  0  0  0  0
  133.3810  126.2480   66.1320 C   0  0  0  0  0  0  0  0  0  0  0  0
  133.0710  126.3160   67.4890 C   0  0  0  0  0  0  0  0  0  0  0  0
  134.1860  125.8310   68.1350 C   0  0  0  0  0  0  0  0  0  0  0  0
  135.1180  125.4890   67.2130 O   0  0  0  0  0  0  0  0  0  0  0  0
  134.5960  125.7590   65.9470 N   0  0  0  0  0  0  0  0  0  0  0  0
  129.8660  123.8940   63.1310 N   0  0  0  0  0  0  0  0  0  0  0  0
  1  2  1  0
  2  3  2  0
  3  4  1  0
  4  5  1  0
  5  6  2  0
  6  7  1  0
  7  8  2  0
  8  9  1  0
  9 10  2  0
  4 11  2  0
 11 12  1  0
 12 13  3  0
 11 14  1  0
 14 15  1  0
 15 16  1  0
 16 17  1  0
 17 18  2  0
 17 19  1  0
 19 20  1  0
 20 21  1  0
 21 22  2  0
 22 23  1  0
 23 24  1  0
 14 25  2  0
 25  2  1  0
 10  5  1  0
 24 20  2  0
M  END
>  <Binding energies>  (35) 
[-8.26]

>  <Ligand effiencies>  (35) 
[-0.31769230769230766]

>  <Interactions>  (35) 
["V-B:GLU:543:CD:9879, H-A:GLY:454:N:4049, V-A:HIS:456:CE1:4069, H-A:ARG:545:NH1:4926, V-A:GLU:543:CD:4907, H-A:ARG:545:NH2:4927, V-A:TYR:484:CZ:4346, V-A:ARG:545:CZ:4925, V-B:ALA:541:CB:9863, V-A:ARG:545:CD:4922, V-A:ARG:545:CG:4921, V-B:TYR:539:CE2:9847, V-B:TYR:539:CD2:9845, H-A:ARG:545:NE:4923, H-A:TYR:484:OH:4347, H-A:GLU:543:OE2:4909, V-B:ALA:541:C:9859, V-B:GLU:543:CG:9878, V-B:ALA:541:CA:9861, V-B:TYR:539:CB:9842, V-A:SER:385:CB:3408, V-A:ILE:369:CG2:3236, V-A:SER:385:CA:3406, V-A:LEU:475:CD2:4258, H-A:ILE:455:N:4054, H-A:GLU:543:OE1:4908, H-B:TYR:539:OH:9849, V-A:ILE:455:C:4051, V-A:HIS:456:CG:4065, V-A:HIS:456:CD2:4067, V-A:ARG:545:CB:4920"]

$$$$
3ck_Grossjean_2025
     RDKit          3D

 30 31  0  0  0  0  0  0  0  0999 V2000
  123.8510  129.6610   67.0640 C   0  0  0  0  0  0  0  0  0  0  0  0
  124.0650  130.0400   65.7130 O   0  0  0  0  0  0  0  0  0  0  0  0
  124.9530  129.1760   65.0170 C   0  0  0  0  0  0  0  0  0  0  0  0
  126.1710  129.9730   64.5320 C   0  0  0  0  0  0  0  0  0  0  0  0
  126.5420  130.9170   65.5290 O   0  0  0  0  0  0  0  0  0  0  0  0
  127.9420  130.9880   65.7630 C   0  0  0  0  0  0  0  0  0  0  0  0
  128.2160  130.7120   67.2470 C   0  0  0  0  0  0  0  0  0  0  0  0
  128.8930  129.4680   67.3530 O   0  0  0  0  0  0  0  0  0  0  0  0
  128.5810  128.7170   68.5160 C   0  0  0  0  0  0  0  0  0  0  0  0
  129.4010  127.4130   68.5240 C   0  0  0  0  0  0  0  0  0  0  0  0
  130.4680  127.3810   67.5190 N   0  0  0  0  0  0  0  0  0  0  0  0
  130.9540  126.2760   66.9260 C   0  0  0  0  0  0  0  0  0  0  0  0
  130.5240  125.1440   67.1510 O   0  0  0  0  0  0  0  0  0  0  0  0
  132.0970  126.5110   65.9250 C   0  0  0  0  0  0  0  0  0  0  0  0
  131.7080  126.1170   64.1850 S   0  0  0  0  0  0  0  0  0  0  0  0
  131.2710  124.3890   64.0600 C   0  0  0  0  0  0  0  0  0  0  0  0
  130.3660  123.9460   64.9680 N   0  0  0  0  0  0  0  0  0  0  0  0
  129.9930  122.6470   64.9340 C   0  0  0  0  0  0  0  0  0  0  0  0
  128.9800  122.2250   65.9810 C   0  0  0  0  0  0  0  0  0  0  0  0
  130.5010  121.7440   64.0050 C   0  0  0  0  0  0  0  0  0  0  0  0
  131.4420  122.1780   63.0610 C   0  0  0  0  0  0  0  0  0  0  0  0
  131.9780  121.1690   62.0980 C   0  0  0  0  0  0  0  0  0  0  0  0
  131.1250  120.2140   61.5340 C   0  0  0  0  0  0  0  0  0  0  0  0
  131.6190  119.2640   60.6430 C   0  0  0  0  0  0  0  0  0  0  0  0
  132.9730  119.2630   60.3180 C   0  0  0  0  0  0  0  0  0  0  0  0
  133.8360  120.2020   60.8780 C   0  0  0  0  0  0  0  0  0  0  0  0
  133.3390  121.1500   61.7680 C   0  0  0  0  0  0  0  0  0  0  0  0
  131.8330  123.5420   63.0770 C   0  0  0  0  0  0  0  0  0  0  0  0
  132.7830  124.0610   62.0870 C   0  0  0  0  0  0  0  0  0  0  0  0
  133.5320  124.4710   61.3050 N   0  0  0  0  0  0  0  0  0  0  0  0
  1  2  1  0
  2  3  1  0
  3  4  1  0
  4  5  1  0
  5  6  1  0
  6  7  1  0
  7  8  1  0
  8  9  1  0
  9 10  1  0
 10 11  1  0
 11 12  1  0
 12 13  2  0
 12 14  1  0
 14 15  1  0
 15 16  1  0
 16 17  2  0
 17 18  1  0
 18 19  1  0
 18 20  2  0
 20 21  1  0
 21 22  1  0
 22 23  2  0
 23 24  1  0
 24 25  2  0
 25 26  1  0
 26 27  2  0
 21 28  2  0
 28 29  1  0
 29 30  3  0
 28 16  1  0
 27 22  1  0
M  END
>  <Binding energies>  (36) 
[-6.34]

>  <Ligand effiencies>  (36) 
[-0.20451612903225805]

>  <Interactions>  (36) 
["V-B:ARG:545:CG:9893, V-A:GLU:543:CB:4905, V-B:GLU:543:CB:9877, V-A:GLU:543:CG:4906, V-B:GLU:543:CD:9879, V-B:HIS:456:CE1:9040, V-A:HIS:456:CE1:4069, V-A:GLU:543:CD:4907, V-B:ARG:545:CZ:9897, H-B:TYR:484:OH:9318, H-A:ARG:545:NH2:4927, V-B:ARG:545:CD:9894, H-B:GLY:454:N:9020, V-B:TYR:484:CZ:9317, V-B:TYR:484:CE2:9316, V-A:TYR:484:CZ:4346, V-A:ARG:545:CZ:4925, V-B:ALA:541:CB:9863, V-B:TYR:539:CE2:9847, V-B:TYR:539:CD2:9845, H-A:TYR:484:OH:4347, V-B:ALA:541:C:9859, V-B:GLU:543:CG:9878, V-A:SER:385:CB:3408, V-A:ILE:369:CG2:3236, V-A:SER:385:CA:3406, V-A:TYR:484:CE2:4345, V-A:LEU:475:CD2:4258, V-B:GLY:454:CA:9019, V-A:SER:385:C:3404, V-B:GLU:543:CA:9875, V-A:LEU:475:CD1:4257, H-A:GLU:543:OE1:4908"]

$$$$
4aa_Grossjean_2025
     RDKit          3D

 26 28  0  0  0  0  0  0  0  0999 V2000
  131.0990  122.4790   73.7840 C   0  0  0  0  0  0  0  0  0  0  0  0
  129.6910  122.9480   73.4030 C   0  0  0  0  0  0  0  0  0  0  0  0
  129.7820  124.1420   72.6370 O   0  0  0  0  0  0  0  0  0  0  0  0
  129.0790  125.2520   72.9820 C   0  0  0  0  0  0  0  0  0  0  0  0
  129.0500  125.7090   74.1300 O   0  0  0  0  0  0  0  0  0  0  0  0
  128.3380  125.8670   71.8310 C   0  0  0  0  0  0  0  0  0  0  0  0
  128.9990  126.0480   70.6090 C   0  0  0  0  0  0  0  0  0  0  0  0
  128.3400  126.6200   69.5250 C   0  0  0  0  0  0  0  0  0  0  0  0
  127.0060  127.0130   69.6350 C   0  0  0  0  0  0  0  0  0  0  0  0
  126.4400  127.5870   68.4800 N   0  0  0  0  0  0  0  0  0  0  0  0
  125.3210  128.3380   68.3370 C   0  0  0  0  0  0  0  0  0  0  0  0
  124.5520  128.6170   69.2570 O   0  0  0  0  0  0  0  0  0  0  0  0
  125.0500  128.7990   66.9740 C   0  0  0  0  0  0  0  0  0  0  0  0
  123.4210  129.3010   66.5120 S   0  0  0  0  0  0  0  0  0  0  0  0
  123.9340  129.6190   64.8700 C   0  0  0  0  0  0  0  0  0  0  0  0
  123.0880  130.0650   63.9400 N   0  0  0  0  0  0  0  0  0  0  0  0
  123.6130  130.2660   62.7070 C   0  0  0  0  0  0  0  0  0  0  0  0
  122.6320  130.7690   61.6620 C   0  0  0  0  0  0  0  0  0  0  0  0
  124.9490  130.0390   62.3860 C   0  0  0  0  0  0  0  0  0  0  0  0
  125.8340  129.5730   63.3650 C   0  0  0  0  0  0  0  0  0  0  0  0
  127.2840  129.3400   62.9670 C   0  0  0  0  0  0  0  0  0  0  0  0
  125.3200  129.3450   64.6700 C   0  0  0  0  0  0  0  0  0  0  0  0
  125.9310  128.8750   65.8840 C   0  0  0  0  0  0  0  0  0  0  0  0
  127.2600  128.5390   65.9520 N   0  0  0  0  0  0  0  0  0  0  0  0
  126.3360  126.8400   70.8550 C   0  0  0  0  0  0  0  0  0  0  0  0
  126.9980  126.2710   71.9410 C   0  0  0  0  0  0  0  0  0  0  0  0
  1  2  1  0
  2  3  1  0
  3  4  1  0
  4  5  2  0
  4  6  1  0
  6  7  2  0
  7  8  1  0
  8  9  2  0
  9 10  1  0
 10 11  1  0
 11 12  2  0
 11 13  1  0
 13 14  1  0
 14 15  1  0
 15 16  2  0
 16 17  1  0
 17 18  1  0
 17 19  2  0
 19 20  1  0
 20 21  1  0
 20 22  2  0
 22 23  1  0
 23 24  1  0
  9 25  1  0
 25 26  2  0
 26  6  1  0
 23 13  2  0
 22 15  1  0
M  END
>  <Binding energies>  (37) 
[-7.55]

>  <Ligand effiencies>  (37) 
[-0.2603448275862069]

>  <Interactions>  (37) 
["V-B:ARG:545:CG:9893, V-B:GLU:543:CB:9877, V-B:GLU:543:CD:9879, V-B:HIS:456:CE1:9040, V-A:HIS:456:CE1:4069, V-B:ARG:545:CZ:9897, H-B:TYR:484:OH:9318, V-B:ARG:545:CD:9894, H-B:GLY:454:N:9020, V-B:ASP:366:CG:8183, V-B:ILE:369:CG1:8208, V-B:GLU:543:C:9873, V-B:GLY:544:C:9883, H-B:ARG:545:NH1:9898, V-B:GLY:453:C:9012, V-B:GLY:453:CA:9014, V-B:ARG:545:CA:9890, H-B:GLU:543:OE2:9881, V-B:ASP:366:CA:8180, H-B:GLU:543:OE1:9880, H-B:HIS:456:ND1:9037, V-B:GLY:544:CA:9885, H-B:LYS:547:NZ:9922, V-A:HIS:456:CG:4065, V-A:HIS:456:CD2:4067, V-A:TYR:484:CG:4341, V-A:TYR:484:CB:4340, V-A:ASP:473:CG:4239, V-A:TYR:484:CD2:4343"]

$$$$
4ab_Grossjean_2025
     RDKit          3D

 25 27  0  0  0  0  0  0  0  0999 V2000
  129.5850  123.3340   73.3920 C   0  0  0  0  0  0  0  0  0  0  0  0
  128.7410  124.3600   73.8950 O   0  0  0  0  0  0  0  0  0  0  0  0
  129.0670  125.6690   73.7440 C   0  0  0  0  0  0  0  0  0  0  0  0
  129.7160  126.3090   74.5780 O   0  0  0  0  0  0  0  0  0  0  0  0
  128.5530  126.2650   72.4660 C   0  0  0  0  0  0  0  0  0  0  0  0
  127.2190  126.0440   72.0970 C   0  0  0  0  0  0  0  0  0  0  0  0
  126.7130  126.5820   70.9160 C   0  0  0  0  0  0  0  0  0  0  0  0
  127.5250  127.3560   70.0870 C   0  0  0  0  0  0  0  0  0  0  0  0
  126.9120  127.8430   68.9160 N   0  0  0  0  0  0  0  0  0  0  0  0
  125.6390  128.2550   68.7030 C   0  0  0  0  0  0  0  0  0  0  0  0
  124.7500  128.2270   69.5540 O   0  0  0  0  0  0  0  0  0  0  0  0
  125.3560  128.7320   67.3480 C   0  0  0  0  0  0  0  0  0  0  0  0
  123.7280  129.2530   66.9090 S   0  0  0  0  0  0  0  0  0  0  0  0
  124.2250  129.5850   65.2650 C   0  0  0  0  0  0  0  0  0  0  0  0
  123.3730  130.0460   64.3490 N   0  0  0  0  0  0  0  0  0  0  0  0
  123.8850  130.2580   63.1130 C   0  0  0  0  0  0  0  0  0  0  0  0
  122.8980  130.7780   62.0840 C   0  0  0  0  0  0  0  0  0  0  0  0
  125.2170  130.0270   62.7750 C   0  0  0  0  0  0  0  0  0  0  0  0
  126.1090  129.5430   63.7390 C   0  0  0  0  0  0  0  0  0  0  0  0
  127.5520  129.3050   63.3220 C   0  0  0  0  0  0  0  0  0  0  0  0
  125.6070  129.3030   65.0470 C   0  0  0  0  0  0  0  0  0  0  0  0
  126.2260  128.8130   66.2490 C   0  0  0  0  0  0  0  0  0  0  0  0
  127.5530  128.4640   66.2990 N   0  0  0  0  0  0  0  0  0  0  0  0
  128.8630  127.5780   70.4450 C   0  0  0  0  0  0  0  0  0  0  0  0
  129.3680  127.0380   71.6250 C   0  0  0  0  0  0  0  0  0  0  0  0
  1  2  1  0
  2  3  1  0
  3  4  2  0
  3  5  1  0
  5  6  2  0
  6  7  1  0
  7  8  2  0
  8  9  1  0
  9 10  1  0
 10 11  2  0
 10 12  1  0
 12 13  1  0
 13 14  1  0
 14 15  2  0
 15 16  1  0
 16 17  1  0
 16 18  2  0
 18 19  1  0
 19 20  1  0
 19 21  2  0
 21 22  1  0
 22 23  1  0
  8 24  1  0
 24 25  2  0
 25  5  1  0
 22 12  2  0
 21 14  1  0
M  END
>  <Binding energies>  (38) 
[-7.38]

>  <Ligand effiencies>  (38) 
[-0.26357142857142857]

>  <Interactions>  (38) 
["V-B:ARG:545:CG:9893, V-B:GLU:543:CB:9877, V-B:GLU:543:CD:9879, V-B:HIS:456:CE1:9040, V-A:HIS:456:CE1:4069, V-B:ARG:545:CZ:9897, V-B:ARG:545:CD:9894, H-B:GLY:454:N:9020, V-B:ASP:366:CG:8183, V-B:GLU:543:C:9873, V-B:GLY:544:C:9883, H-B:ARG:545:NH1:9898, H-B:ARG:545:N:9891, H-B:GLU:543:OE2:9881, H-B:GLU:543:OE1:9880, H-B:HIS:456:ND1:9037, V-B:GLY:544:CA:9885, V-B:LYS:547:CE:9921, H-B:LYS:547:NZ:9922, V-A:HIS:456:CD2:4067"]

$$$$
4ac_Grossjean_2025
     RDKit          3D

 23 25  0  0  0  0  0  0  0  0999 V2000
  129.8920  124.7120   73.7310 C   0  0  0  0  0  0  0  0  0  0  0  0
  128.9390  125.7700   73.7330 O   0  0  0  0  0  0  0  0  0  0  0  0
  128.5280  126.3100   72.5300 C   0  0  0  0  0  0  0  0  0  0  0  0
  127.1930  126.1110   72.1820 C   0  0  0  0  0  0  0  0  0  0  0  0
  126.6870  126.6190   70.9880 C   0  0  0  0  0  0  0  0  0  0  0  0
  127.5130  127.3430   70.1280 C   0  0  0  0  0  0  0  0  0  0  0  0
  126.9190  127.8060   68.9390 N   0  0  0  0  0  0  0  0  0  0  0  0
  125.6430  128.2010   68.7160 C   0  0  0  0  0  0  0  0  0  0  0  0
  124.7550  128.1760   69.5710 O   0  0  0  0  0  0  0  0  0  0  0  0
  125.3580  128.6660   67.3560 C   0  0  0  0  0  0  0  0  0  0  0  0
  123.7450  129.2380   66.9290 S   0  0  0  0  0  0  0  0  0  0  0  0
  124.2430  129.5600   65.2830 C   0  0  0  0  0  0  0  0  0  0  0  0
  123.4010  130.0520   64.3740 N   0  0  0  0  0  0  0  0  0  0  0  0
  123.9140  130.2550   63.1370 C   0  0  0  0  0  0  0  0  0  0  0  0
  122.9400  130.8160   62.1170 C   0  0  0  0  0  0  0  0  0  0  0  0
  125.2350  129.9780   62.7900 C   0  0  0  0  0  0  0  0  0  0  0  0
  126.1160  129.4620   63.7460 C   0  0  0  0  0  0  0  0  0  0  0  0
  127.5480  129.1760   63.3200 C   0  0  0  0  0  0  0  0  0  0  0  0
  125.6140  129.2380   65.0570 C   0  0  0  0  0  0  0  0  0  0  0  0
  126.2270  128.7320   66.2560 C   0  0  0  0  0  0  0  0  0  0  0  0
  127.5440  128.3510   66.2990 N   0  0  0  0  0  0  0  0  0  0  0  0
  128.8610  127.5370   70.4640 C   0  0  0  0  0  0  0  0  0  0  0  0
  129.3630  127.0270   71.6590 C   0  0  0  0  0  0  0  0  0  0  0  0
  1  2  1  0
  2  3  1  0
  3  4  2  0
  4  5  1  0
  5  6  2  0
  6  7  1  0
  7  8  1  0
  8  9  2  0
  8 10  1  0
 10 11  1  0
 11 12  1  0
 12 13  2  0
 13 14  1  0
 14 15  1  0
 14 16  2  0
 16 17  1  0
 17 18  1  0
 17 19  2  0
 19 20  1  0
 20 21  1  0
  6 22  1  0
 22 23  2  0
 23  3  1  0
 20 10  2  0
 19 12  1  0
M  END
>  <Binding energies>  (39) 
[-6.86]

>  <Ligand effiencies>  (39) 
[-0.26384615384615384]

>  <Interactions>  (39) 
["V-B:ARG:545:CG:9893, V-B:GLU:543:CB:9877, V-B:GLU:543:CD:9879, V-B:HIS:456:CE1:9040, V-A:HIS:456:CE1:4069, V-B:ARG:545:CZ:9897, V-B:ARG:545:CD:9894, H-B:GLY:454:N:9020, V-B:ASP:366:CG:8183, V-B:GLU:543:C:9873, V-B:GLY:544:C:9883, H-B:ARG:545:NH1:9898, H-B:ARG:545:N:9891, H-B:GLU:543:OE2:9881, H-B:GLU:543:OE1:9880, H-B:HIS:456:ND1:9037, V-B:GLY:544:CA:9885, H-B:LYS:547:NZ:9922, V-A:HIS:456:CD2:4067"]

$$$$
4ad_Grossjean_2025
     RDKit          3D

 21 23  0  0  0  0  0  0  0  0999 V2000
  122.5900  130.7690   61.6800 C   0  0  0  0  0  0  0  0  0  0  0  0
  123.5810  130.2580   62.7090 C   0  0  0  0  0  0  0  0  0  0  0  0
  124.9020  129.9850   62.3610 C   0  0  0  0  0  0  0  0  0  0  0  0
  125.7980  129.5120   63.3280 C   0  0  0  0  0  0  0  0  0  0  0  0
  127.2290  129.2260   62.8990 C   0  0  0  0  0  0  0  0  0  0  0  0
  125.3100  129.3280   64.6500 C   0  0  0  0  0  0  0  0  0  0  0  0
  125.9370  128.8700   65.8600 C   0  0  0  0  0  0  0  0  0  0  0  0
  127.2610  128.5090   65.9060 N   0  0  0  0  0  0  0  0  0  0  0  0
  125.0780  128.8310   66.9700 C   0  0  0  0  0  0  0  0  0  0  0  0
  125.3750  128.4060   68.3390 C   0  0  0  0  0  0  0  0  0  0  0  0
  124.5780  128.6270   69.2520 O   0  0  0  0  0  0  0  0  0  0  0  0
  126.5570  127.7610   68.5030 N   0  0  0  0  0  0  0  0  0  0  0  0
  127.1510  127.2680   69.6800 C   0  0  0  0  0  0  0  0  0  0  0  0
  128.5320  127.4570   69.7930 C   0  0  0  0  0  0  0  0  0  0  0  0
  129.2110  127.0140   70.9250 C   0  0  0  0  0  0  0  0  0  0  0  0
  128.5070  126.3870   71.9500 C   0  0  0  0  0  0  0  0  0  0  0  0
  127.1300  126.2050   71.8560 C   0  0  0  0  0  0  0  0  0  0  0  0
  126.4490  126.6460   70.7250 C   0  0  0  0  0  0  0  0  0  0  0  0
  123.4550  129.3720   66.5360 S   0  0  0  0  0  0  0  0  0  0  0  0
  123.9360  129.6430   64.8770 C   0  0  0  0  0  0  0  0  0  0  0  0
  123.0810  130.0940   63.9580 N   0  0  0  0  0  0  0  0  0  0  0  0
  1  2  1  0
  2  3  2  0
  3  4  1  0
  4  5  1  0
  4  6  2  0
  6  7  1  0
  7  8  1  0
  7  9  2  0
  9 10  1  0
 10 11  2  0
 10 12  1  0
 12 13  1  0
 13 14  2  0
 14 15  1  0
 15 16  2  0
 16 17  1  0
 17 18  2  0
  9 19  1  0
 19 20  1  0
 20 21  2  0
 21  2  1  0
 20  6  1  0
 18 13  1  0
M  END
>  <Binding energies>  (40) 
[-6.7]

>  <Ligand effiencies>  (40) 
[-0.2791666666666667]

>  <Interactions>  (40) 
["V-B:ARG:545:CG:9893, V-B:GLU:543:CB:9877, V-B:GLU:543:CD:9879, V-B:HIS:456:CE1:9040, V-A:HIS:456:CE1:4069, V-B:ARG:545:CZ:9897, H-B:TYR:484:OH:9318, V-B:ARG:545:CD:9894, H-B:GLY:454:N:9020, V-B:ASP:366:CG:8183, V-B:ILE:369:CG1:8208, V-B:GLU:543:C:9873, V-B:GLY:544:C:9883, H-B:ARG:545:NH1:9898, V-B:GLY:453:C:9012, V-B:GLY:453:CA:9014, V-B:ARG:545:CA:9890, V-B:GLY:454:CA:9019, H-B:GLU:543:OE2:9881, V-B:ASP:366:CA:8180, H-B:GLU:543:OE1:9880, H-B:HIS:456:ND1:9037, V-B:GLY:544:CA:9885"]

$$$$
4ae_Grossjean_2025
     RDKit          3D

 22 24  0  0  0  0  0  0  0  0999 V2000
  121.5850  131.5120   62.4960 C   0  0  0  0  0  0  0  0  0  0  0  0
  122.8940  130.7480   62.4370 C   0  0  0  0  0  0  0  0  0  0  0  0
  123.5420  130.5010   61.2250 C   0  0  0  0  0  0  0  0  0  0  0  0
  124.7390  129.7850   61.2470 C   0  0  0  0  0  0  0  0  0  0  0  0
  125.2530  129.3370   62.4660 C   0  0  0  0  0  0  0  0  0  0  0  0
  124.5570  129.6270   63.6450 C   0  0  0  0  0  0  0  0  0  0  0  0
  125.1130  129.1320   64.8370 N   0  0  0  0  0  0  0  0  0  0  0  0
  124.8900  129.5430   66.1110 C   0  0  0  0  0  0  0  0  0  0  0  0
  124.1290  130.4650   66.4110 O   0  0  0  0  0  0  0  0  0  0  0  0
  125.6280  128.8130   67.1440 C   0  0  0  0  0  0  0  0  0  0  0  0
  124.8640  128.4400   68.6900 S   0  0  0  0  0  0  0  0  0  0  0  0
  126.3200  127.6720   69.2790 C   0  0  0  0  0  0  0  0  0  0  0  0
  126.3930  127.1400   70.4990 N   0  0  0  0  0  0  0  0  0  0  0  0
  127.5800  126.5800   70.8350 C   0  0  0  0  0  0  0  0  0  0  0  0
  127.6430  125.9880   72.2310 C   0  0  0  0  0  0  0  0  0  0  0  0
  128.6850  126.5370   69.9860 C   0  0  0  0  0  0  0  0  0  0  0  0
  128.6040  127.0950   68.7050 C   0  0  0  0  0  0  0  0  0  0  0  0
  129.8370  127.0270   67.8160 C   0  0  0  0  0  0  0  0  0  0  0  0
  127.3740  127.6940   68.3180 C   0  0  0  0  0  0  0  0  0  0  0  0
  126.9530  128.3490   67.1080 C   0  0  0  0  0  0  0  0  0  0  0  0
  127.7850  128.4980   66.0270 N   0  0  0  0  0  0  0  0  0  0  0  0
  123.3810  130.3210   63.6300 N   0  0  0  0  0  0  0  0  0  0  0  0
  1  2  1  0
  2  3  2  0
  3  4  1  0
  4  5  2  0
  5  6  1  0
  6  7  1  0
  7  8  1  0
  8  9  2  0
  8 10  1  0
 10 11  1  0
 11 12  1  0
 12 13  2  0
 13 14  1  0
 14 15  1  0
 14 16  2  0
 16 17  1  0
 17 18  1  0
 17 19  2  0
 19 20  1  0
 20 21  1  0
  6 22  2  0
 22  2  1  0
 20 10  2  0
 19 12  1  0
M  END
>  <Binding energies>  (41) 
[-7.25]

>  <Ligand effiencies>  (41) 
[-0.29]

>  <Interactions>  (41) 
["V-B:ARG:545:CG:9893, V-B:GLU:543:CB:9877, V-B:GLU:543:CD:9879, V-B:HIS:456:CE1:9040, V-A:HIS:456:CE1:4069, V-B:ARG:545:CZ:9897, H-B:TYR:484:OH:9318, V-B:ARG:545:CD:9894, H-B:GLY:454:N:9020, V-B:ASP:366:CG:8183, V-B:ILE:369:CG1:8208, V-B:GLU:543:C:9873, V-B:GLY:544:C:9883, H-B:ARG:545:N:9891, V-B:ASP:366:CB:8182, V-B:GLY:453:C:9012, V-B:GLY:453:CA:9014, V-B:ARG:545:CA:9890, V-B:ARG:545:CB:9892, H-B:GLU:543:OE2:9881, H-B:GLU:543:OE1:9880, H-B:HIS:456:ND1:9037, V-B:GLY:544:CA:9885"]

$$$$
4af_Grossjean_2025
     RDKit          3D

 21 23  0  0  0  0  0  0  0  0999 V2000
  134.8640  125.3800   67.2110 C   0  0  0  0  0  0  0  0  0  0  0  0
  133.5170  125.9230   66.7680 C   0  0  0  0  0  0  0  0  0  0  0  0
  133.1030  125.8180   65.4420 C   0  0  0  0  0  0  0  0  0  0  0  0
  131.8580  126.3280   65.0550 C   0  0  0  0  0  0  0  0  0  0  0  0
  131.4500  126.1920   63.5970 C   0  0  0  0  0  0  0  0  0  0  0  0
  131.0550  126.9450   66.0520 C   0  0  0  0  0  0  0  0  0  0  0  0
  129.7560  127.5630   66.0070 C   0  0  0  0  0  0  0  0  0  0  0  0
  129.0260  127.6480   64.8480 N   0  0  0  0  0  0  0  0  0  0  0  0
  129.3180  128.0600   67.2440 C   0  0  0  0  0  0  0  0  0  0  0  0
  128.0730  128.7670   67.5530 C   0  0  0  0  0  0  0  0  0  0  0  0
  128.0610  129.6850   68.3740 O   0  0  0  0  0  0  0  0  0  0  0  0
  126.9820  128.3480   66.8670 N   0  0  0  0  0  0  0  0  0  0  0  0
  125.6450  128.7780   66.9600 C   0  0  0  0  0  0  0  0  0  0  0  0
  124.8930  128.8490   68.1470 C   0  0  0  0  0  0  0  0  0  0  0  0
  123.5650  129.2780   68.0980 C   0  0  0  0  0  0  0  0  0  0  0  0
  123.0180  129.6220   66.8610 C   0  0  0  0  0  0  0  0  0  0  0  0
  123.7200  129.5540   65.7020 N   0  0  0  0  0  0  0  0  0  0  0  0
  125.0090  129.1350   65.7650 C   0  0  0  0  0  0  0  0  0  0  0  0
  130.5180  127.7740   68.5070 S   0  0  0  0  0  0  0  0  0  0  0  0
  131.5930  126.9890   67.3730 C   0  0  0  0  0  0  0  0  0  0  0  0
  132.7780  126.5030   67.7450 N   0  0  0  0  0  0  0  0  0  0  0  0
  1  2  1  0
  2  3  2  0
  3  4  1  0
  4  5  1  0
  4  6  2  0
  6  7  1  0
  7  8  1  0
  7  9  2  0
  9 10  1  0
 10 11  2  0
 10 12  1  0
 12 13  1  0
 13 14  2  0
 14 15  1  0
 15 16  2  0
 16 17  1  0
 17 18  2  0
  9 19  1  0
 19 20  1  0
 20 21  2  0
 21  2  1  0
 20  6  1  0
 18 13  1  0
M  END
>  <Binding energies>  (42) 
[-6.62]

>  <Ligand effiencies>  (42) 
[-0.2758333333333333]

>  <Interactions>  (42) 
["V-B:ARG:545:CG:9893, V-A:GLU:543:CB:4905, V-B:GLU:543:CD:9879, V-B:HIS:456:CE1:9040, V-A:HIS:456:CE1:4069, V-A:GLU:543:CD:4907, V-A:GLY:454:CA:4048, V-B:ARG:545:CZ:9897, H-B:TYR:484:OH:9318, V-B:ARG:545:CD:9894, H-B:GLY:454:N:9020, V-A:ARG:545:CZ:4925, V-A:GLY:453:CA:4043, V-A:ARG:545:CD:4922, V-A:ARG:545:CG:4921, H-A:TYR:484:OH:4347, H-A:GLU:543:OE2:4909, H-B:ARG:545:NE:9895, V-B:GLY:453:C:9012, V-B:GLY:453:CA:9014, V-B:ARG:545:CB:9892, V-B:GLY:454:CA:9019, H-B:GLU:543:OE2:9881, V-A:GLY:453:C:4041, H-B:GLU:543:OE1:9880, H-A:GLU:543:OE1:4908, V-B:ILE:455:C:9022, V-A:ILE:455:C:4051, V-A:GLY:454:C:4046"]

$$$$
4ag_Grossjean_2025
     RDKit          3D

 22 24  0  0  0  0  0  0  0  0999 V2000
  123.2780  124.5450   57.5920 C   0  0  0  0  0  0  0  0  0  0  0  0
  124.1900  124.1850   58.7500 C   0  0  0  0  0  0  0  0  0  0  0  0
  123.6790  123.9980   60.0330 C   0  0  0  0  0  0  0  0  0  0  0  0
  124.5370  123.6650   61.0870 C   0  0  0  0  0  0  0  0  0  0  0  0
  123.9320  123.4700   62.4690 C   0  0  0  0  0  0  0  0  0  0  0  0
  125.9210  123.5310   60.7970 C   0  0  0  0  0  0  0  0  0  0  0  0
  127.0560  123.2060   61.6190 C   0  0  0  0  0  0  0  0  0  0  0  0
  126.9400  122.9490   62.9620 N   0  0  0  0  0  0  0  0  0  0  0  0
  128.2730  123.1810   60.9230 C   0  0  0  0  0  0  0  0  0  0  0  0
  129.6090  122.8810   61.4380 C   0  0  0  0  0  0  0  0  0  0  0  0
  130.2870  123.7410   62.0050 O   0  0  0  0  0  0  0  0  0  0  0  0
  130.0530  121.6220   61.2400 N   0  0  0  0  0  0  0  0  0  0  0  0
  131.3400  121.0960   61.6920 C   0  0  0  0  0  0  0  0  0  0  0  0
  131.8140  119.8700   60.9200 C   0  0  0  0  0  0  0  0  0  0  0  0
  133.0150  119.9190   60.2050 C   0  0  0  0  0  0  0  0  0  0  0  0
  133.4620  118.7930   59.5190 C   0  0  0  0  0  0  0  0  0  0  0  0
  132.7140  117.6180   59.5600 C   0  0  0  0  0  0  0  0  0  0  0  0
  131.5250  117.5570   60.2830 C   0  0  0  0  0  0  0  0  0  0  0  0
  131.0780  118.6830   60.9690 C   0  0  0  0  0  0  0  0  0  0  0  0
  128.0420  123.5520   59.2140 S   0  0  0  0  0  0  0  0  0  0  0  0
  126.3180  123.7470   59.4440 C   0  0  0  0  0  0  0  0  0  0  0  0
  125.5020  124.0630   58.4370 N   0  0  0  0  0  0  0  0  0  0  0  0
  1  2  1  0
  2  3  2  0
  3  4  1  0
  4  5  1  0
  4  6  2  0
  6  7  1  0
  7  8  1  0
  7  9  2  0
  9 10  1  0
 10 11  2  0
 10 12  1  0
 12 13  1  0
 13 14  1  0
 14 15  2  0
 15 16  1  0
 16 17  2  0
 17 18  1  0
 18 19  2  0
  9 20  1  0
 20 21  1  0
 21 22  2  0
 22  2  1  0
 21  6  1  0
 19 14  1  0
M  END
>  <Binding energies>  (43) 
[-7.15]

>  <Ligand effiencies>  (43) 
[-0.28600000000000003]

>  <Interactions>  (43) 
["V-B:GLU:543:CD:9879, V-B:ARG:545:CZ:9897, V-B:ASP:366:CG:8183, H-B:ALA:541:O:9860, V-B:PRO:540:CA:9854, V-B:PRO:540:CB:9856, V-B:ALA:541:CB:9863, V-B:PRO:540:C:9852, V-B:TYR:539:CE2:9847, V-B:ASN:362:CG:8147, V-B:TYR:539:CD2:9845, V-B:ASN:362:CB:8146, V-B:ASP:366:CB:8182, V-B:ALA:541:C:9859, V-A:LEU:373:CD2:3280, V-B:GLU:543:CG:9878, V-B:ALA:541:CA:9861, V-B:TYR:539:CB:9842, V-A:ILE:369:CG2:3236, V-A:SER:385:CA:3406, V-A:LEU:475:CD2:4258, V-B:TYR:531:CE2:9764, V-B:LEU:363:CD1:8159, V-B:TYR:531:CZ:9765, H-B:GLU:543:OE2:9881, H-B:TYR:539:O:9839, V-A:HIS:383:CE1:3393, V-B:LEU:363:CA:8155, V-A:VAL:384:C:3396"]

$$$$
4ah_Grossjean_2025
     RDKit          3D

 28 30  0  0  0  0  0  0  0  0999 V2000
  127.7650  131.1780   65.8740 C   0  0  0  0  0  0  0  0  0  0  0  0
  126.9380  130.1100   66.3210 O   0  0  0  0  0  0  0  0  0  0  0  0
  127.4940  129.0860   67.0670 C   0  0  0  0  0  0  0  0  0  0  0  0
  128.7930  128.5900   66.8710 C   0  0  0  0  0  0  0  0  0  0  0  0
  129.2880  127.5520   67.6610 C   0  0  0  0  0  0  0  0  0  0  0  0
  130.7170  127.0580   67.4650 C   0  0  0  0  0  0  0  0  0  0  0  0
  130.8540  126.0800   66.3850 N   0  0  0  0  0  0  0  0  0  0  0  0
  131.9900  125.8230   65.7030 C   0  0  0  0  0  0  0  0  0  0  0  0
  133.0400  126.4340   65.9070 O   0  0  0  0  0  0  0  0  0  0  0  0
  131.8960  124.7960   64.6660 C   0  0  0  0  0  0  0  0  0  0  0  0
  130.9800  123.3180   64.9630 S   0  0  0  0  0  0  0  0  0  0  0  0
  131.3910  122.6930   63.3810 C   0  0  0  0  0  0  0  0  0  0  0  0
  130.9590  121.5050   62.9570 N   0  0  0  0  0  0  0  0  0  0  0  0
  131.3480  121.1400   61.7120 C   0  0  0  0  0  0  0  0  0  0  0  0
  130.8470  119.7830   61.2500 C   0  0  0  0  0  0  0  0  0  0  0  0
  132.1500  121.9260   60.8890 C   0  0  0  0  0  0  0  0  0  0  0  0
  132.6050  123.1720   61.3370 C   0  0  0  0  0  0  0  0  0  0  0  0
  133.4790  123.9940   60.4020 C   0  0  0  0  0  0  0  0  0  0  0  0
  132.2190  123.5890   62.6400 C   0  0  0  0  0  0  0  0  0  0  0  0
  132.5020  124.7760   63.4010 C   0  0  0  0  0  0  0  0  0  0  0  0
  133.2860  125.7910   62.9150 N   0  0  0  0  0  0  0  0  0  0  0  0
  128.4930  127.0210   68.6780 C   0  0  0  0  0  0  0  0  0  0  0  0
  127.1890  127.4940   68.8930 C   0  0  0  0  0  0  0  0  0  0  0  0
  126.3420  127.0040   69.8710 O   0  0  0  0  0  0  0  0  0  0  0  0
  126.8900  126.5410   71.1010 C   0  0  0  0  0  0  0  0  0  0  0  0
  126.7000  128.5230   68.0770 C   0  0  0  0  0  0  0  0  0  0  0  0
  125.4310  129.0080   68.2880 O   0  0  0  0  0  0  0  0  0  0  0  0
  124.5630  128.8630   67.1730 C   0  0  0  0  0  0  0  0  0  0  0  0
  1  2  1  0
  2  3  1  0
  3  4  2  0
  4  5  1  0
  5  6  1  0
  6  7  1  0
  7  8  1  0
  8  9  2  0
  8 10  1  0
 10 11  1  0
 11 12  1  0
 12 13  2  0
 13 14  1  0
 14 15  1  0
 14 16  2  0
 16 17  1  0
 17 18  1  0
 17 19  2  0
 19 20  1  0
 20 21  1  0
  5 22  2  0
 22 23  1  0
 23 24  1  0
 24 25  1  0
 23 26  2  0
 26 27  1  0
 27 28  1  0
 26  3  1  0
 20 10  2  0
 19 12  1  0
M  END
>  <Binding energies>  (44) 
[-6.51]

>  <Ligand effiencies>  (44) 
[-0.21]

>  <Interactions>  (44) 
["V-B:ARG:545:CG:9893, V-B:GLU:543:CB:9877, V-A:GLU:543:CG:4906, V-B:GLU:543:CD:9879, V-B:HIS:456:CE1:9040, V-A:HIS:456:CE1:4069, V-A:GLU:543:CD:4907, V-B:ARG:545:CZ:9897, H-B:TYR:484:OH:9318, H-A:ARG:545:NH2:4927, V-B:ARG:545:CD:9894, V-A:TYR:484:CZ:4346, V-A:ARG:545:CZ:4925, H-A:ASP:366:OD1:3213, V-A:ASP:366:CG:3212, V-B:TYR:539:CE2:9847, V-B:GLU:543:C:9873, V-B:GLY:544:C:9883, V-B:TYR:539:CD2:9845, H-A:ARG:545:NE:4923, H-A:TYR:484:OH:4347, H-B:ARG:545:N:9891, V-A:ILE:369:CG2:3236, V-A:TYR:484:CE2:4345, V-A:LEU:475:CD2:4258, H-A:ASP:366:OD2:3214, H-B:GLU:543:OE2:9881, V-A:ILE:369:CD1:3238, H-B:HIS:456:ND1:9037, V-B:GLY:544:CA:9885"]

$$$$
4ai_Grossjean_2025
     RDKit          3D

 20 22  0  0  0  0  0  0  0  0999 V2000
  128.0850  125.7000   72.5600 C   0  0  0  0  0  0  0  0  0  0  0  0
  127.9330  126.3280   71.1870 C   0  0  0  0  0  0  0  0  0  0  0  0
  128.9970  126.3520   70.2880 C   0  0  0  0  0  0  0  0  0  0  0  0
  128.8330  126.9310   69.0240 C   0  0  0  0  0  0  0  0  0  0  0  0
  130.0230  126.9300   68.0770 C   0  0  0  0  0  0  0  0  0  0  0  0
  127.5610  127.4800   68.7060 C   0  0  0  0  0  0  0  0  0  0  0  0
  127.0540  128.1340   67.5300 C   0  0  0  0  0  0  0  0  0  0  0  0
  127.8310  128.3480   66.4190 N   0  0  0  0  0  0  0  0  0  0  0  0
  125.7080  128.5200   67.6270 C   0  0  0  0  0  0  0  0  0  0  0  0
  124.8840  129.2100   66.6330 C   0  0  0  0  0  0  0  0  0  0  0  0
  124.0340  130.0320   66.9810 O   0  0  0  0  0  0  0  0  0  0  0  0
  125.1430  128.8890   65.3400 N   0  0  0  0  0  0  0  0  0  0  0  0
  124.5250  129.3960   64.2040 C   0  0  0  0  0  0  0  0  0  0  0  0
  125.0850  129.3100   62.9290 C   0  0  0  0  0  0  0  0  0  0  0  0
  124.1770  129.9230   62.0970 C   0  0  0  0  0  0  0  0  0  0  0  0
  123.1240  130.3550   62.8310 O   0  0  0  0  0  0  0  0  0  0  0  0
  123.3550  130.0140   64.1650 N   0  0  0  0  0  0  0  0  0  0  0  0
  125.0370  128.1000   69.2050 S   0  0  0  0  0  0  0  0  0  0  0  0
  126.5540  127.3920   69.7150 C   0  0  0  0  0  0  0  0  0  0  0  0
  126.7080  126.8430   70.9200 N   0  0  0  0  0  0  0  0  0  0  0  0
  1  2  1  0
  2  3  2  0
  3  4  1  0
  4  5  1  0
  4  6  2  0
  6  7  1  0
  7  8  1  0
  7  9  2  0
  9 10  1  0
 10 11  2  0
 10 12  1  0
 12 13  1  0
 13 14  1  0
 14 15  2  0
 15 16  1  0
 16 17  1  0
  9 18  1  0
 18 19  1  0
 19 20  2  0
 20  2  1  0
 19  6  1  0
 17 13  2  0
M  END
>  <Binding energies>  (45) 
[-6.52]

>  <Ligand effiencies>  (45) 
[-0.2834782608695652]

>  <Interactions>  (45) 
["V-B:ARG:545:CG:9893, V-B:GLU:543:CB:9877, V-B:GLU:543:CD:9879, V-B:HIS:456:CE1:9040, H-B:ARG:545:NH2:9899, V-A:HIS:456:CE1:4069, V-B:ARG:545:CZ:9897, H-B:TYR:484:OH:9318, V-B:ARG:545:CD:9894, H-B:GLY:454:N:9020, V-B:ASP:366:CG:8183, V-B:GLU:543:C:9873, H-B:ARG:545:NH1:9898, H-B:ILE:455:N:9025, H-B:ARG:545:N:9891, V-B:ARG:545:CA:9890, V-B:ARG:545:CB:9892, H-B:GLU:543:OE2:9881, H-B:GLU:543:OE1:9880, H-B:HIS:456:ND1:9037"]

$$$$
4aj_Grossjean_2025
     RDKit          3D

 20 22  0  0  0  0  0  0  0  0999 V2000
  128.0650  125.7060   72.5000 C   0  0  0  0  0  0  0  0  0  0  0  0
  127.9200  126.3170   71.1180 C   0  0  0  0  0  0  0  0  0  0  0  0
  128.9840  126.3180   70.2200 C   0  0  0  0  0  0  0  0  0  0  0  0
  128.8300  126.8920   68.9520 C   0  0  0  0  0  0  0  0  0  0  0  0
  130.0220  126.8690   68.0080 C   0  0  0  0  0  0  0  0  0  0  0  0
  127.5680  127.4580   68.6290 C   0  0  0  0  0  0  0  0  0  0  0  0
  127.0740  128.1150   67.4490 C   0  0  0  0  0  0  0  0  0  0  0  0
  127.8530  128.3090   66.3380 N   0  0  0  0  0  0  0  0  0  0  0  0
  125.7350  128.5250   67.5440 C   0  0  0  0  0  0  0  0  0  0  0  0
  124.9230  129.2240   66.5460 C   0  0  0  0  0  0  0  0  0  0  0  0
  124.0990  130.0750   66.8880 O   0  0  0  0  0  0  0  0  0  0  0  0
  125.1580  128.8760   65.2570 N   0  0  0  0  0  0  0  0  0  0  0  0
  124.5380  129.3930   64.1270 C   0  0  0  0  0  0  0  0  0  0  0  0
  123.3760  130.0040   64.0530 N   0  0  0  0  0  0  0  0  0  0  0  0
  123.0980  130.3680   62.8160 C   0  0  0  0  0  0  0  0  0  0  0  0
  124.0510  130.0500   61.8520 C   0  0  0  0  0  0  0  0  0  0  0  0
  125.3780  129.2300   62.6190 S   0  0  0  0  0  0  0  0  0  0  0  0
  125.0540  128.1180   69.1200 S   0  0  0  0  0  0  0  0  0  0  0  0
  126.5590  127.3910   69.6360 C   0  0  0  0  0  0  0  0  0  0  0  0
  126.7020  126.8460   70.8450 N   0  0  0  0  0  0  0  0  0  0  0  0
  1  2  1  0
  2  3  2  0
  3  4  1  0
  4  5  1  0
  4  6  2  0
  6  7  1  0
  7  8  1  0
  7  9  2  0
  9 10  1  0
 10 11  2  0
 10 12  1  0
 12 13  1  0
 13 14  2  0
 14 15  1  0
 15 16  2  0
 16 17  1  0
  9 18  1  0
 18 19  1  0
 19 20  2  0
 20  2  1  0
 19  6  1  0
 17 13  1  0
M  END
>  <Binding energies>  (46) 
[-6.6]

>  <Ligand effiencies>  (46) 
[-0.28695652173913044]

>  <Interactions>  (46) 
["V-B:ARG:545:CG:9893, V-B:GLU:543:CB:9877, V-B:GLU:543:CD:9879, V-B:HIS:456:CE1:9040, H-B:ARG:545:NH2:9899, V-A:HIS:456:CE1:4069, V-B:ARG:545:CZ:9897, H-B:TYR:484:OH:9318, H-B:GLY:454:N:9020, V-B:ASP:366:CG:8183, V-B:GLU:543:C:9873, H-B:ARG:545:NH1:9898, H-B:ARG:545:N:9891, V-B:GLY:453:CA:9014, V-B:ARG:545:CA:9890, V-B:ARG:545:CB:9892, H-B:GLU:543:OE2:9881, H-B:GLU:543:OE1:9880, H-B:HIS:456:ND1:9037"]

$$$$
4ak_Grossjean_2025
     RDKit          3D

 25 26  0  0  0  0  0  0  0  0999 V2000
  129.3340  123.9480   73.6270 C   0  0  0  0  0  0  0  0  0  0  0  0
  129.2460  125.2750   74.1240 O   0  0  0  0  0  0  0  0  0  0  0  0
  129.2550  126.2630   73.1010 C   0  0  0  0  0  0  0  0  0  0  0  0
  127.9850  126.1290   72.2500 C   0  0  0  0  0  0  0  0  0  0  0  0
  127.9990  127.1150   71.2260 O   0  0  0  0  0  0  0  0  0  0  0  0
  128.3960  126.6160   69.9550 C   0  0  0  0  0  0  0  0  0  0  0  0
  128.3770  127.7590   68.9330 C   0  0  0  0  0  0  0  0  0  0  0  0
  127.0820  128.3440   68.9070 O   0  0  0  0  0  0  0  0  0  0  0  0
  126.2660  127.8870   67.8370 C   0  0  0  0  0  0  0  0  0  0  0  0
  125.0390  128.8080   67.7030 C   0  0  0  0  0  0  0  0  0  0  0  0
  125.1250  129.7380   66.5780 N   0  0  0  0  0  0  0  0  0  0  0  0
  124.1970  129.8800   65.6100 C   0  0  0  0  0  0  0  0  0  0  0  0
  123.1500  129.2320   65.5990 O   0  0  0  0  0  0  0  0  0  0  0  0
  124.4990  130.8610   64.5690 C   0  0  0  0  0  0  0  0  0  0  0  0
  125.6510  132.1600   64.8760 S   0  0  0  0  0  0  0  0  0  0  0  0
  125.4410  132.7910   63.2580 C   0  0  0  0  0  0  0  0  0  0  0  0
  126.0950  133.8720   62.8320 N   0  0  0  0  0  0  0  0  0  0  0  0
  125.8400  134.2580   61.5580 C   0  0  0  0  0  0  0  0  0  0  0  0
  126.5950  135.4900   61.0920 C   0  0  0  0  0  0  0  0  0  0  0  0
  124.9570  133.5940   60.7090 C   0  0  0  0  0  0  0  0  0  0  0  0
  124.2720  132.4590   61.1590 C   0  0  0  0  0  0  0  0  0  0  0  0
  123.3160  131.7720   60.1970 C   0  0  0  0  0  0  0  0  0  0  0  0
  124.5130  132.0250   62.4900 C   0  0  0  0  0  0  0  0  0  0  0  0
  123.9950  130.9270   63.2600 C   0  0  0  0  0  0  0  0  0  0  0  0
  123.0880  130.0340   62.7470 N   0  0  0  0  0  0  0  0  0  0  0  0
  1  2  1  0
  2  3  1  0
  3  4  1  0
  4  5  1  0
  5  6  1  0
  6  7  1  0
  7  8  1  0
  8  9  1  0
  9 10  1  0
 10 11  1  0
 11 12  1  0
 12 13  2  0
 12 14  1  0
 14 15  1  0
 15 16  1  0
 16 17  2  0
 17 18  1  0
 18 19  1  0
 18 20  2  0
 20 21  1  0
 21 22  1  0
 21 23  2  0
 23 24  1  0
 24 25  1  0
 24 14  2  0
 23 16  1  0
M  END
>  <Binding energies>  (47) 
[-5.39]

>  <Ligand effiencies>  (47) 
[-0.19249999999999998]

>  <Interactions>  (47) 
["V-B:ARG:545:CG:9893, V-B:GLU:543:CB:9877, V-B:GLU:543:CD:9879, V-B:HIS:456:CE1:9040, V-B:SER:385:CB:8379, H-B:ARG:545:NH2:9899, V-A:HIS:456:CE1:4069, V-A:TYR:539:CD1:4872, V-B:LEU:475:CD1:9228, V-B:ARG:545:CZ:9897, H-B:TYR:484:OH:9318, V-B:ARG:545:CD:9894, H-B:GLY:454:N:9020, V-B:ILE:369:CG2:8207, H-B:ASP:366:OD2:8185, V-B:ASP:366:CG:8183, V-B:ILE:369:CG1:8208, V-B:GLU:543:C:9873, H-B:ARG:545:NH1:9898, H-B:ARG:545:NE:9895, V-B:GLY:453:CA:9014, V-B:GLY:454:CA:9019, V-B:ILE:369:CB:8206, V-B:LYS:547:CE:9921, H-B:LYS:547:NZ:9922"]

$$$$
4al_Grossjean_2025
     RDKit          3D

 16 17  0  0  0  0  0  0  0  0999 V2000
  123.8200  129.6250   64.5840 C   0  0  0  0  0  0  0  0  0  0  0  0
  123.8440  130.3520   65.8030 O   0  0  0  0  0  0  0  0  0  0  0  0
  123.7870  129.7100   66.9990 C   0  0  0  0  0  0  0  0  0  0  0  0
  122.7730  129.6420   67.6970 O   0  0  0  0  0  0  0  0  0  0  0  0
  125.0760  129.0950   67.3840 C   0  0  0  0  0  0  0  0  0  0  0  0
  126.4630  129.2010   66.2980 S   0  0  0  0  0  0  0  0  0  0  0  0
  127.4610  128.3030   67.4190 C   0  0  0  0  0  0  0  0  0  0  0  0
  128.7380  128.0230   67.1570 N   0  0  0  0  0  0  0  0  0  0  0  0
  129.4020  127.3210   68.1090 C   0  0  0  0  0  0  0  0  0  0  0  0
  130.8530  127.0130   67.7900 C   0  0  0  0  0  0  0  0  0  0  0  0
  128.8230  126.8980   69.3030 C   0  0  0  0  0  0  0  0  0  0  0  0
  127.4830  127.1930   69.5750 C   0  0  0  0  0  0  0  0  0  0  0  0
  126.8960  126.7100   70.8920 C   0  0  0  0  0  0  0  0  0  0  0  0
  126.7560  127.9280   68.6000 C   0  0  0  0  0  0  0  0  0  0  0  0
  125.3970  128.3930   68.5520 C   0  0  0  0  0  0  0  0  0  0  0  0
  124.5020  128.1650   69.5660 N   0  0  0  0  0  0  0  0  0  0  0  0
  1  2  1  0
  2  3  1  0
  3  4  2  0
  3  5  1  0
  5  6  1  0
  6  7  1  0
  7  8  2  0
  8  9  1  0
  9 10  1  0
  9 11  2  0
 11 12  1  0
 12 13  1  0
 12 14  2  0
 14 15  1  0
 15 16  1  0
 15  5  2  0
 14  7  1  0
M  END
>  <Binding energies>  (48) 
[-5.29]

>  <Ligand effiencies>  (48) 
[-0.29388888888888887]

>  <Interactions>  (48) 
["V-B:ARG:545:CG:9893, V-B:GLU:543:CB:9877, V-B:GLU:543:CD:9879, V-B:HIS:456:CE1:9040, V-A:HIS:456:CE1:4069, V-B:ARG:545:CZ:9897, H-B:TYR:484:OH:9318, V-B:ARG:545:CD:9894, H-B:GLY:454:N:9020, V-B:GLU:543:C:9873, V-B:GLY:544:C:9883, H-B:ILE:455:N:9025, V-B:GLY:453:CA:9014, V-B:ARG:545:CA:9890, V-B:ARG:545:CB:9892, V-B:GLY:454:CA:9019, H-B:ILE:455:O:9023, H-B:GLY:544:O:9884"]

$$$$
4bc_Grossjean_2025
     RDKit          3D

 26 28  0  0  0  0  0  0  0  0999 V2000
  129.8980  123.9780   74.3020 C   0  0  0  0  0  0  0  0  0  0  0  0
  128.9950  125.0770   74.2540 O   0  0  0  0  0  0  0  0  0  0  0  0
  128.6120  125.5810   73.0270 C   0  0  0  0  0  0  0  0  0  0  0  0
  127.4740  126.3880   73.0130 C   0  0  0  0  0  0  0  0  0  0  0  0
  127.0110  126.9410   71.8220 C   0  0  0  0  0  0  0  0  0  0  0  0
  127.6890  126.7010   70.6250 C   0  0  0  0  0  0  0  0  0  0  0  0
  127.1400  127.2890   69.4710 N   0  0  0  0  0  0  0  0  0  0  0  0
  125.8830  127.7500   69.2590 C   0  0  0  0  0  0  0  0  0  0  0  0
  124.9770  127.6840   70.0910 O   0  0  0  0  0  0  0  0  0  0  0  0
  125.6450  128.3460   67.9410 C   0  0  0  0  0  0  0  0  0  0  0  0
  124.0450  128.9500   67.5160 S   0  0  0  0  0  0  0  0  0  0  0  0
  124.5990  129.4360   65.9320 C   0  0  0  0  0  0  0  0  0  0  0  0
  123.7770  130.0130   65.0550 N   0  0  0  0  0  0  0  0  0  0  0  0
  124.3200  130.3430   63.8610 C   0  0  0  0  0  0  0  0  0  0  0  0
  123.3700  131.0040   62.8790 C   0  0  0  0  0  0  0  0  0  0  0  0
  125.6520  130.1120   63.5250 C   0  0  0  0  0  0  0  0  0  0  0  0
  126.5210  129.5050   64.4440 C   0  0  0  0  0  0  0  0  0  0  0  0
  127.9780  129.2690   64.0280 C   0  0  0  0  0  0  0  0  0  0  0  0
  128.3490  127.9910   64.1320 F   0  0  0  0  0  0  0  0  0  0  0  0
  128.1460  129.6320   62.7570 F   0  0  0  0  0  0  0  0  0  0  0  0
  128.7910  129.9860   64.8030 F   0  0  0  0  0  0  0  0  0  0  0  0
  125.9810  129.1450   65.7150 C   0  0  0  0  0  0  0  0  0  0  0  0
  126.5520  128.5240   66.8850 C   0  0  0  0  0  0  0  0  0  0  0  0
  127.8680  128.1430   66.9520 N   0  0  0  0  0  0  0  0  0  0  0  0
  128.8270  125.8790   70.6290 C   0  0  0  0  0  0  0  0  0  0  0  0
  129.2860  125.3270   71.8210 C   0  0  0  0  0  0  0  0  0  0  0  0
  1  2  1  0
  2  3  1  0
  3  4  2  0
  4  5  1  0
  5  6  2  0
  6  7  1  0
  7  8  1  0
  8  9  2  0
  8 10  1  0
 10 11  1  0
 11 12  1  0
 12 13  2  0
 13 14  1  0
 14 15  1  0
 14 16  2  0
 16 17  1  0
 17 18  1  0
 18 19  1  0
 18 20  1  0
 18 21  1  0
 17 22  2  0
 22 23  1  0
 23 24  1  0
  6 25  1  0
 25 26  2  0
 26  3  1  0
 23 10  2  0
 22 12  1  0
M  END
>  <Binding energies>  (49) 
[-6.45]

>  <Ligand effiencies>  (49) 
[-0.22241379310344828]

>  <Interactions>  (49) 
["V-B:ARG:545:CG:9893, V-B:GLU:543:CB:9877, V-A:GLU:543:CG:4906, V-B:GLU:543:CD:9879, V-B:HIS:456:CE1:9040, V-A:HIS:456:CE1:4069, V-A:GLU:543:CD:4907, V-B:ARG:545:CZ:9897, V-B:ARG:545:CD:9894, H-B:GLY:454:N:9020, V-B:GLU:543:C:9873, V-B:GLY:544:C:9883, H-B:ARG:545:N:9891, V-B:ARG:545:CA:9890, V-B:ARG:545:CB:9892, H-B:GLU:543:OE2:9881, H-B:GLU:543:OE1:9880, H-B:HIS:456:ND1:9037, V-B:LYS:547:CE:9921, H-B:LYS:547:NZ:9922, V-A:HIS:456:CD2:4067"]

$$$$
4bf_Grossjean_2025
     RDKit          3D

 24 26  0  0  0  0  0  0  0  0999 V2000
  134.8690  125.4040   67.2170 C   0  0  0  0  0  0  0  0  0  0  0  0
  133.5220  125.9440   66.7710 C   0  0  0  0  0  0  0  0  0  0  0  0
  133.1200  125.8570   65.4410 C   0  0  0  0  0  0  0  0  0  0  0  0
  131.8740  126.3640   65.0410 C   0  0  0  0  0  0  0  0  0  0  0  0
  131.4750  126.2480   63.5660 C   0  0  0  0  0  0  0  0  0  0  0  0
  130.3740  125.5150   63.3780 F   0  0  0  0  0  0  0  0  0  0  0  0
  131.2370  127.4600   63.0650 F   0  0  0  0  0  0  0  0  0  0  0  0
  132.4590  125.6710   62.8760 F   0  0  0  0  0  0  0  0  0  0  0  0
  131.0580  126.9600   66.0480 C   0  0  0  0  0  0  0  0  0  0  0  0
  129.7530  127.5730   66.0180 C   0  0  0  0  0  0  0  0  0  0  0  0
  129.0120  127.6800   64.8680 N   0  0  0  0  0  0  0  0  0  0  0  0
  129.3100  128.0430   67.2660 C   0  0  0  0  0  0  0  0  0  0  0  0
  128.0600  128.7390   67.5890 C   0  0  0  0  0  0  0  0  0  0  0  0
  128.0390  129.6250   68.4440 O   0  0  0  0  0  0  0  0  0  0  0  0
  126.9760  128.3450   66.8770 N   0  0  0  0  0  0  0  0  0  0  0  0
  125.6370  128.7700   66.9750 C   0  0  0  0  0  0  0  0  0  0  0  0
  124.8840  128.8260   68.1610 C   0  0  0  0  0  0  0  0  0  0  0  0
  123.5550  129.2530   68.1170 C   0  0  0  0  0  0  0  0  0  0  0  0
  123.0100  129.6110   66.8830 C   0  0  0  0  0  0  0  0  0  0  0  0
  123.7120  129.5600   65.7240 N   0  0  0  0  0  0  0  0  0  0  0  0
  125.0030  129.1420   65.7830 C   0  0  0  0  0  0  0  0  0  0  0  0
  130.5080  127.7410   68.5220 S   0  0  0  0  0  0  0  0  0  0  0  0
  131.5880  126.9850   67.3750 C   0  0  0  0  0  0  0  0  0  0  0  0
  132.7720  126.5010   67.7500 N   0  0  0  0  0  0  0  0  0  0  0  0
  1  2  1  0
  2  3  2  0
  3  4  1  0
  4  5  1  0
  5  6  1  0
  5  7  1  0
  5  8  1  0
  4  9  2  0
  9 10  1  0
 10 11  1  0
 10 12  2  0
 12 13  1  0
 13 14  2  0
 13 15  1  0
 15 16  1  0
 16 17  2  0
 17 18  1  0
 18 19  2  0
 19 20  1  0
 20 21  2  0
 12 22  1  0
 22 23  1  0
 23 24  2  0
 24  2  1  0
 23  9  1  0
 21 16  1  0
M  END
>  <Binding energies>  (50) 
[-6.32]

>  <Ligand effiencies>  (50) 
[-0.23407407407407407]

>  <Interactions>  (50) 
["V-B:ARG:545:CG:9893, V-A:GLU:543:CB:4905, V-B:GLU:543:CD:9879, V-B:HIS:456:CE1:9040, V-A:HIS:456:CE1:4069, V-A:GLU:543:CD:4907, V-A:GLY:454:CA:4048, V-B:ARG:545:CZ:9897, H-B:TYR:484:OH:9318, V-B:ARG:545:CD:9894, H-B:GLY:454:N:9020, V-A:ARG:545:CZ:4925, V-A:GLY:453:CA:4043, V-A:ASP:366:CG:3212, V-A:ARG:545:CD:4922, V-A:ARG:545:CG:4921, H-A:TYR:484:OH:4347, H-A:GLU:543:OE2:4909, H-B:ARG:545:NE:9895, V-B:GLY:453:C:9012, V-B:GLY:453:CA:9014, V-B:ARG:545:CB:9892, V-B:GLY:454:CA:9019, H-B:GLU:543:OE2:9881, V-A:GLY:453:C:4041, H-B:GLU:543:OE1:9880, H-A:GLU:543:OE1:4908, V-B:ILE:455:C:9022, V-A:ILE:455:C:4051, V-A:GLY:454:C:4046"]

$$$$
4bh_Grossjean_2025
     RDKit          3D

 31 33  0  0  0  0  0  0  0  0999 V2000
  129.4690  123.3640   73.3400 C   0  0  0  0  0  0  0  0  0  0  0  0
  128.4820  124.3880   73.3020 O   0  0  0  0  0  0  0  0  0  0  0  0
  128.7720  125.5890   72.6790 C   0  0  0  0  0  0  0  0  0  0  0  0
  128.3010  125.9450   71.4060 C   0  0  0  0  0  0  0  0  0  0  0  0
  128.6370  127.1740   70.8370 C   0  0  0  0  0  0  0  0  0  0  0  0
  128.0790  127.5630   69.4730 C   0  0  0  0  0  0  0  0  0  0  0  0
  128.9240  127.1410   68.3550 N   0  0  0  0  0  0  0  0  0  0  0  0
  130.1900  127.5510   68.1330 C   0  0  0  0  0  0  0  0  0  0  0  0
  130.7550  128.3760   68.8540 O   0  0  0  0  0  0  0  0  0  0  0  0
  130.8490  126.9940   66.9520 C   0  0  0  0  0  0  0  0  0  0  0  0
  132.4060  126.1870   67.1090 S   0  0  0  0  0  0  0  0  0  0  0  0
  132.4810  125.9020   65.3860 C   0  0  0  0  0  0  0  0  0  0  0  0
  133.5130  125.2680   64.8310 N   0  0  0  0  0  0  0  0  0  0  0  0
  133.4570  125.1040   63.4890 C   0  0  0  0  0  0  0  0  0  0  0  0
  134.6440  124.3810   62.8760 C   0  0  0  0  0  0  0  0  0  0  0  0
  132.4040  125.5530   62.6970 C   0  0  0  0  0  0  0  0  0  0  0  0
  131.3140  126.2230   63.2760 C   0  0  0  0  0  0  0  0  0  0  0  0
  130.1770  126.6960   62.3640 C   0  0  0  0  0  0  0  0  0  0  0  0
  130.3400  126.3310   61.0910 F   0  0  0  0  0  0  0  0  0  0  0  0
  129.0210  126.1810   62.7810 F   0  0  0  0  0  0  0  0  0  0  0  0
  130.1020  128.0270   62.3920 F   0  0  0  0  0  0  0  0  0  0  0  0
  131.3430  126.4150   64.6890 C   0  0  0  0  0  0  0  0  0  0  0  0
  130.4330  127.0460   65.6120 C   0  0  0  0  0  0  0  0  0  0  0  0
  129.2620  127.6380   65.2140 N   0  0  0  0  0  0  0  0  0  0  0  0
  129.4280  128.0720   71.5560 C   0  0  0  0  0  0  0  0  0  0  0  0
  129.9190  127.7390   72.8280 C   0  0  0  0  0  0  0  0  0  0  0  0
  130.7180  128.5730   73.5900 O   0  0  0  0  0  0  0  0  0  0  0  0
  130.8520  129.9410   73.2190 C   0  0  0  0  0  0  0  0  0  0  0  0
  129.5880  126.4910   73.3760 C   0  0  0  0  0  0  0  0  0  0  0  0
  130.0470  126.1600   74.6290 O   0  0  0  0  0  0  0  0  0  0  0  0
  131.4380  125.8700   74.6760 C   0  0  0  0  0  0  0  0  0  0  0  0
  1  2  1  0
  2  3  1  0
  3  4  2  0
  4  5  1  0
  5  6  1  0
  6  7  1  0
  7  8  1  0
  8  9  2  0
  8 10  1  0
 10 11  1  0
 11 12  1  0
 12 13  2  0
 13 14  1  0
 14 15  1  0
 14 16  2  0
 16 17  1  0
 17 18  1  0
 18 19  1  0
 18 20  1  0
 18 21  1  0
 17 22  2  0
 22 23  1  0
 23 24  1  0
  5 25  2  0
 25 26  1  0
 26 27  1  0
 27 28  1  0
 26 29  2  0
 29 30  1  0
 30 31  1  0
 29  3  1  0
 23 10  2  0
 22 12  1  0
M  END
>  <Binding energies>  (51) 
[-6.12]

>  <Ligand effiencies>  (51) 
[-0.18]

>  <Interactions>  (51) 
["V-B:GLU:543:CB:9877, V-B:GLU:543:CD:9879, V-B:HIS:456:CE1:9040, H-A:GLY:454:N:4049, V-A:HIS:456:CE1:4069, V-A:GLU:543:CD:4907, V-A:GLY:454:CA:4048, H-A:ARG:545:NH2:4927, V-A:GLU:543:C:4901, V-A:TYR:484:CZ:4346, V-A:ARG:545:CZ:4925, V-A:GLY:453:CA:4043, V-A:ASP:366:CG:3212, V-A:ARG:545:CG:4921, V-B:GLU:543:C:9873, H-A:TYR:484:OH:4347, H-A:GLU:543:OE2:4909, H-B:GLU:543:OE2:9881, V-A:GLY:453:C:4041, V-A:ILE:369:CD1:3238, H-B:GLU:543:OE1:9880, V-A:GLY:544:C:4911, V-A:GLY:544:CA:4913, H-A:GLU:543:OE1:4908, H-A:LYS:547:NZ:4950, H-B:LYS:547:NZ:9922, V-A:HIS:456:CG:4065, V-A:HIS:456:CD2:4067, V-A:LYS:547:CE:4949, V-A:HIS:456:CB:4064"]

$$$$
4bi_Grossjean_2025
     RDKit          3D

 23 25  0  0  0  0  0  0  0  0999 V2000
  134.8110  125.4190   67.3760 C   0  0  0  0  0  0  0  0  0  0  0  0
  133.4870  125.9580   66.8660 C   0  0  0  0  0  0  0  0  0  0  0  0
  133.1440  125.8630   65.5200 C   0  0  0  0  0  0  0  0  0  0  0  0
  131.9130  126.3620   65.0630 C   0  0  0  0  0  0  0  0  0  0  0  0
  131.5770  126.2280   63.5740 C   0  0  0  0  0  0  0  0  0  0  0  0
  131.3200  127.4010   62.9900 F   0  0  0  0  0  0  0  0  0  0  0  0
  132.6030  125.6770   62.9270 F   0  0  0  0  0  0  0  0  0  0  0  0
  130.4960  125.4620   63.4220 F   0  0  0  0  0  0  0  0  0  0  0  0
  131.0530  126.9610   66.0310 C   0  0  0  0  0  0  0  0  0  0  0  0
  129.7480  127.5700   65.9400 C   0  0  0  0  0  0  0  0  0  0  0  0
  129.0620  127.6820   64.7580 N   0  0  0  0  0  0  0  0  0  0  0  0
  129.2430  128.0300   67.1680 C   0  0  0  0  0  0  0  0  0  0  0  0
  127.9690  128.7040   67.4370 C   0  0  0  0  0  0  0  0  0  0  0  0
  127.8690  129.5150   68.3590 O   0  0  0  0  0  0  0  0  0  0  0  0
  126.9520  128.3820   66.5990 N   0  0  0  0  0  0  0  0  0  0  0  0
  125.6540  128.8750   66.6160 C   0  0  0  0  0  0  0  0  0  0  0  0
  124.8590  128.8850   67.7610 C   0  0  0  0  0  0  0  0  0  0  0  0
  123.6650  129.4440   67.3640 C   0  0  0  0  0  0  0  0  0  0  0  0
  123.7390  129.7550   66.0480 O   0  0  0  0  0  0  0  0  0  0  0  0
  125.0050  129.3890   65.5850 N   0  0  0  0  0  0  0  0  0  0  0  0
  130.3880  127.7430   68.4760 S   0  0  0  0  0  0  0  0  0  0  0  0
  131.5240  126.9940   67.3790 C   0  0  0  0  0  0  0  0  0  0  0  0
  132.6930  126.5170   67.8080 N   0  0  0  0  0  0  0  0  0  0  0  0
  1  2  1  0
  2  3  2  0
  3  4  1  0
  4  5  1  0
  5  6  1  0
  5  7  1  0
  5  8  1  0
  4  9  2  0
  9 10  1  0
 10 11  1  0
 10 12  2  0
 12 13  1  0
 13 14  2  0
 13 15  1  0
 15 16  1  0
 16 17  1  0
 17 18  2  0
 18 19  1  0
 19 20  1  0
 12 21  1  0
 21 22  1  0
 22 23  2  0
 23  2  1  0
 22  9  1  0
 20 16  2  0
M  END
>  <Binding energies>  (52) 
[-5.91]

>  <Ligand effiencies>  (52) 
[-0.22730769230769232]

>  <Interactions>  (52) 
["V-B:ARG:545:CG:9893, V-A:GLU:543:CB:4905, V-B:GLU:543:CD:9879, V-A:HIS:456:CE1:4069, V-A:GLU:543:CD:4907, V-A:GLY:454:CA:4048, H-B:TYR:484:OH:9318, V-B:ARG:545:CD:9894, H-B:GLY:454:N:9020, V-A:ARG:545:CZ:4925, V-A:GLY:453:CA:4043, V-A:ASP:366:CG:3212, V-A:ARG:545:CD:4922, V-A:ARG:545:CG:4921, H-A:TYR:484:OH:4347, H-A:GLU:543:OE2:4909, H-B:ARG:545:NE:9895, H-B:GLU:543:OE2:9881, V-A:GLY:453:C:4041, H-B:GLU:543:OE1:9880, H-A:GLU:543:OE1:4908, V-A:ILE:455:C:4051, V-A:GLY:454:C:4046"]

$$$$
4bj_Grossjean_2025
     RDKit          3D

 23 25  0  0  0  0  0  0  0  0999 V2000
  128.0700  125.7600   72.4690 C   0  0  0  0  0  0  0  0  0  0  0  0
  127.9270  126.3770   71.0890 C   0  0  0  0  0  0  0  0  0  0  0  0
  129.0000  126.4070   70.2030 C   0  0  0  0  0  0  0  0  0  0  0  0
  128.8560  126.9860   68.9320 C   0  0  0  0  0  0  0  0  0  0  0  0
  130.0660  126.9990   67.9920 C   0  0  0  0  0  0  0  0  0  0  0  0
  129.7250  127.0550   66.7030 F   0  0  0  0  0  0  0  0  0  0  0  0
  130.8280  128.0610   68.2510 F   0  0  0  0  0  0  0  0  0  0  0  0
  130.7830  125.8890   68.1670 F   0  0  0  0  0  0  0  0  0  0  0  0
  127.5780  127.5280   68.6030 C   0  0  0  0  0  0  0  0  0  0  0  0
  127.0640  128.1880   67.4280 C   0  0  0  0  0  0  0  0  0  0  0  0
  127.8320  128.4240   66.3150 N   0  0  0  0  0  0  0  0  0  0  0  0
  125.7130  128.5590   67.5220 C   0  0  0  0  0  0  0  0  0  0  0  0
  124.8840  129.2480   66.5300 C   0  0  0  0  0  0  0  0  0  0  0  0
  124.0330  130.0690   66.8800 O   0  0  0  0  0  0  0  0  0  0  0  0
  125.1360  128.9290   65.2370 N   0  0  0  0  0  0  0  0  0  0  0  0
  124.5050  129.4430   64.1130 C   0  0  0  0  0  0  0  0  0  0  0  0
  123.3400  130.0500   64.0470 N   0  0  0  0  0  0  0  0  0  0  0  0
  123.0520  130.4150   62.8130 C   0  0  0  0  0  0  0  0  0  0  0  0
  123.9980  130.1020   61.8420 C   0  0  0  0  0  0  0  0  0  0  0  0
  125.3330  129.2830   62.5970 S   0  0  0  0  0  0  0  0  0  0  0  0
  125.0380  128.1190   69.0890 S   0  0  0  0  0  0  0  0  0  0  0  0
  126.5600  127.4280   69.6010 C   0  0  0  0  0  0  0  0  0  0  0  0
  126.7030  126.8800   70.8070 N   0  0  0  0  0  0  0  0  0  0  0  0
  1  2  1  0
  2  3  2  0
  3  4  1  0
  4  5  1  0
  5  6  1  0
  5  7  1  0
  5  8  1  0
  4  9  2  0
  9 10  1  0
 10 11  1  0
 10 12  2  0
 12 13  1  0
 13 14  2  0
 13 15  1  0
 15 16  1  0
 16 17  2  0
 17 18  1  0
 18 19  2  0
 19 20  1  0
 12 21  1  0
 21 22  1  0
 22 23  2  0
 23  2  1  0
 22  9  1  0
 20 16  1  0
M  END
>  <Binding energies>  (53) 
[-6.16]

>  <Ligand effiencies>  (53) 
[-0.23692307692307693]

>  <Interactions>  (53) 
["V-B:ARG:545:CG:9893, V-A:GLU:543:CB:4905, V-B:GLU:543:CB:9877, V-A:GLU:543:CG:4906, V-B:GLU:543:CD:9879, V-B:HIS:456:CE1:9040, H-B:ARG:545:NH2:9899, V-A:HIS:456:CE1:4069, V-A:GLU:543:CD:4907, V-B:ARG:545:CZ:9897, H-B:TYR:484:OH:9318, H-B:GLY:454:N:9020, V-B:ASP:366:CG:8183, V-A:TYR:484:CZ:4346, V-B:GLU:543:C:9873, H-B:ARG:545:NH1:9898, H-B:ILE:455:N:9025, H-B:ARG:545:N:9891, V-B:GLY:453:C:9012, V-A:TYR:484:CE2:4345, V-B:GLY:453:CA:9014, V-B:ARG:545:CA:9890, V-B:ARG:545:CB:9892, H-B:GLU:543:OE2:9881, H-B:GLU:543:OE1:9880, H-B:HIS:456:ND1:9037, V-A:HIS:456:CD2:4067"]

$$$$
4bk_Grossjean_2025
     RDKit          3D

 28 29  0  0  0  0  0  0  0  0999 V2000
  133.5180  124.3100   59.3860 C   0  0  0  0  0  0  0  0  0  0  0  0
  132.8640  124.7310   58.1990 O   0  0  0  0  0  0  0  0  0  0  0  0
  131.5780  125.2910   58.4300 C   0  0  0  0  0  0  0  0  0  0  0  0
  130.8700  124.5070   59.5420 C   0  0  0  0  0  0  0  0  0  0  0  0
  129.6850  123.9180   59.0250 O   0  0  0  0  0  0  0  0  0  0  0  0
  129.1200  124.6300   57.9330 C   0  0  0  0  0  0  0  0  0  0  0  0
  128.0160  123.7820   57.2870 C   0  0  0  0  0  0  0  0  0  0  0  0
  126.7810  124.4800   57.3660 O   0  0  0  0  0  0  0  0  0  0  0  0
  125.6660  123.6460   57.6610 C   0  0  0  0  0  0  0  0  0  0  0  0
  125.4350  123.6230   59.1820 C   0  0  0  0  0  0  0  0  0  0  0  0
  126.6700  123.6740   59.9650 N   0  0  0  0  0  0  0  0  0  0  0  0
  126.7710  123.3920   61.2800 C   0  0  0  0  0  0  0  0  0  0  0  0
  125.8040  123.0360   61.9560 O   0  0  0  0  0  0  0  0  0  0  0  0
  128.1060  123.5230   61.8670 C   0  0  0  0  0  0  0  0  0  0  0  0
  128.4210  124.7600   63.0800 S   0  0  0  0  0  0  0  0  0  0  0  0
  130.0810  124.2410   63.2420 C   0  0  0  0  0  0  0  0  0  0  0  0
  130.9190  124.8430   64.0860 N   0  0  0  0  0  0  0  0  0  0  0  0
  132.1790  124.3520   64.1250 C   0  0  0  0  0  0  0  0  0  0  0  0
  133.1150  125.0510   65.0940 C   0  0  0  0  0  0  0  0  0  0  0  0
  132.6170  123.2830   63.3470 C   0  0  0  0  0  0  0  0  0  0  0  0
  131.7410  122.6450   62.4550 C   0  0  0  0  0  0  0  0  0  0  0  0
  132.2700  121.4760   61.6180 C   0  0  0  0  0  0  0  0  0  0  0  0
  131.5370  120.3670   61.7480 F   0  0  0  0  0  0  0  0  0  0  0  0
  132.2670  121.8080   60.3280 F   0  0  0  0  0  0  0  0  0  0  0  0
  133.5130  121.1780   61.9940 F   0  0  0  0  0  0  0  0  0  0  0  0
  130.4030  123.1380   62.3910 C   0  0  0  0  0  0  0  0  0  0  0  0
  129.2490  122.7480   61.6200 C   0  0  0  0  0  0  0  0  0  0  0  0
  129.2730  121.7110   60.7220 N   0  0  0  0  0  0  0  0  0  0  0  0
  1  2  1  0
  2  3  1  0
  3  4  1  0
  4  5  1  0
  5  6  1  0
  6  7  1  0
  7  8  1  0
  8  9  1  0
  9 10  1  0
 10 11  1  0
 11 12  1  0
 12 13  2  0
 12 14  1  0
 14 15  1  0
 15 16  1  0
 16 17  2  0
 17 18  1  0
 18 19  1  0
 18 20  2  0
 20 21  1  0
 21 22  1  0
 22 23  1  0
 22 24  1  0
 22 25  1  0
 21 26  2  0
 26 27  1  0
 27 28  1  0
 27 14  2  0
 26 16  1  0
M  END
>  <Binding energies>  (54) 
[-4.12]

>  <Ligand effiencies>  (54) 
[-0.1329032258064516]

>  <Interactions>  (54) 
["V-B:GLU:543:CD:9879, V-A:GLY:454:CA:4048, H-B:ALA:541:N:9862, V-B:PRO:540:CA:9854, V-B:PRO:540:CB:9856, V-A:ASP:366:CG:3212, V-B:PRO:540:C:9852, V-B:TYR:539:CE2:9847, V-B:TYR:539:CZ:9848, V-B:TYR:539:CD2:9845, V-B:MET:535:CE:9806, V-A:ILE:369:CG2:3236, V-A:SER:385:CA:3406, V-A:LEU:475:CD2:4258, H-B:TYR:531:OH:9766, V-A:ASP:366:CB:3211, V-B:TYR:539:C:9838, H-B:TYR:539:O:9839, V-A:ILE:369:CD1:3238, V-A:SER:385:C:3404, V-A:ILE:369:CB:3235, V-A:ASP:366:CA:3209, H-B:TYR:539:OH:9849"]

$$$$
4cd_Grossjean_2025
     RDKit          3D

 29 32  0  0  0  0  0  0  0  0999 V2000
  125.6050  128.8140   68.2440 N   0  0  0  0  0  0  0  0  0  0  0  0
  126.5290  128.7650   67.2310 C   0  0  0  0  0  0  0  0  0  0  0  0
  126.3170  129.3390   65.9670 C   0  0  0  0  0  0  0  0  0  0  0  0
  125.1340  130.0530   65.4750 C   0  0  0  0  0  0  0  0  0  0  0  0
  124.2240  130.3650   66.2430 O   0  0  0  0  0  0  0  0  0  0  0  0
  125.1370  130.3350   64.1490 N   0  0  0  0  0  0  0  0  0  0  0  0
  124.1470  130.9540   63.3630 C   0  0  0  0  0  0  0  0  0  0  0  0
  124.4690  132.2150   62.8540 C   0  0  0  0  0  0  0  0  0  0  0  0
  123.5610  132.9020   62.0540 C   0  0  0  0  0  0  0  0  0  0  0  0
  122.3300  132.3250   61.7540 C   0  0  0  0  0  0  0  0  0  0  0  0
  122.0020  131.0630   62.2430 C   0  0  0  0  0  0  0  0  0  0  0  0
  122.9080  130.3720   63.0450 C   0  0  0  0  0  0  0  0  0  0  0  0
  127.7120  129.0990   64.9170 S   0  0  0  0  0  0  0  0  0  0  0  0
  128.5610  128.2270   66.1700 C   0  0  0  0  0  0  0  0  0  0  0  0
  129.7820  127.7360   65.9690 N   0  0  0  0  0  0  0  0  0  0  0  0
  130.3570  127.0600   66.9980 C   0  0  0  0  0  0  0  0  0  0  0  0
  131.7330  126.5160   66.7410 C   0  0  0  0  0  0  0  0  0  0  0  0
  132.0880  126.0310   65.4720 C   0  0  0  0  0  0  0  0  0  0  0  0
  133.3610  125.5260   65.2260 C   0  0  0  0  0  0  0  0  0  0  0  0
  134.3020  125.4990   66.2500 C   0  0  0  0  0  0  0  0  0  0  0  0
  133.9780  125.9770   67.5150 C   0  0  0  0  0  0  0  0  0  0  0  0
  132.7050  126.4830   67.7560 C   0  0  0  0  0  0  0  0  0  0  0  0
  129.7130  126.8980   68.2280 C   0  0  0  0  0  0  0  0  0  0  0  0
  128.4260  127.4150   68.4520 C   0  0  0  0  0  0  0  0  0  0  0  0
  127.7760  127.1980   69.8230 C   0  0  0  0  0  0  0  0  0  0  0  0
  126.4450  127.3010   69.7940 F   0  0  0  0  0  0  0  0  0  0  0  0
  128.0730  125.9790   70.2750 F   0  0  0  0  0  0  0  0  0  0  0  0
  128.2270  128.1090   70.6850 F   0  0  0  0  0  0  0  0  0  0  0  0
  127.8090  128.1150   67.3760 C   0  0  0  0  0  0  0  0  0  0  0  0
  1  2  1  0
  2  3  2  0
  3  4  1  0
  4  5  2  0
  4  6  1  0
  6  7  1  0
  7  8  2  0
  8  9  1  0
  9 10  2  0
 10 11  1  0
 11 12  2  0
  3 13  1  0
 13 14  1  0
 14 15  2  0
 15 16  1  0
 16 17  1  0
 17 18  2  0
 18 19  1  0
 19 20  2  0
 20 21  1  0
 21 22  2  0
 16 23  2  0
 23 24  1  0
 24 25  1  0
 25 26  1  0
 25 27  1  0
 25 28  1  0
 24 29  2  0
 29  2  1  0
 12  7  1  0
 29 14  1  0
 22 17  1  0
M  END
>  <Binding energies>  (55) 
[-7.3]

>  <Ligand effiencies>  (55) 
[-0.228125]

>  <Interactions>  (55) 
["V-B:ARG:545:CG:9893, V-B:GLU:543:CB:9877, V-B:GLU:543:CD:9879, V-B:HIS:456:CE1:9040, V-B:SER:385:CB:8379, V-A:HIS:456:CE1:4069, V-A:GLU:543:CD:4907, V-A:GLY:454:CA:4048, H-B:TYR:484:OH:9318, H-B:GLY:454:N:9020, V-B:ILE:369:CG2:8207, V-B:ASP:366:CG:8183, V-B:ILE:369:CG1:8208, V-B:TYR:484:CZ:9317, V-A:ARG:545:CZ:4925, V-A:GLY:453:CA:4043, V-A:ARG:545:CD:4922, V-A:ARG:545:CG:4921, V-B:GLU:543:C:9873, V-B:GLY:453:C:9012, V-B:GLY:453:CA:9014, V-B:ILE:369:CD1:8209, V-B:SER:385:C:8375, V-B:ILE:369:CB:8206, V-A:GLY:453:C:4041, V-B:GLU:543:CA:9875, V-A:ARG:545:CB:4920"]

$$$$
4cg_Grossjean_2025
     RDKit          3D

 30 33  0  0  0  0  0  0  0  0999 V2000
  129.3380  125.6560   63.9490 N   0  0  0  0  0  0  0  0  0  0  0  0
  129.8250  125.1740   62.7620 C   0  0  0  0  0  0  0  0  0  0  0  0
  130.0190  125.9780   61.6290 C   0  0  0  0  0  0  0  0  0  0  0  0
  129.8070  127.4180   61.4850 C   0  0  0  0  0  0  0  0  0  0  0  0
  128.7220  127.8740   61.1180 O   0  0  0  0  0  0  0  0  0  0  0  0
  130.8770  128.2010   61.7380 N   0  0  0  0  0  0  0  0  0  0  0  0
  130.8900  129.6620   61.6800 C   0  0  0  0  0  0  0  0  0  0  0  0
  131.8810  130.2190   60.6650 C   0  0  0  0  0  0  0  0  0  0  0  0
  132.8770  131.1060   61.0830 C   0  0  0  0  0  0  0  0  0  0  0  0
  133.8040  131.5930   60.1650 C   0  0  0  0  0  0  0  0  0  0  0  0
  133.7380  131.1840   58.8350 C   0  0  0  0  0  0  0  0  0  0  0  0
  132.7580  130.2870   58.4160 C   0  0  0  0  0  0  0  0  0  0  0  0
  131.8320  129.7990   59.3330 C   0  0  0  0  0  0  0  0  0  0  0  0
  130.6760  125.0470   60.2850 S   0  0  0  0  0  0  0  0  0  0  0  0
  130.6650  123.5830   61.2420 C   0  0  0  0  0  0  0  0  0  0  0  0
  131.0820  122.4240   60.7400 N   0  0  0  0  0  0  0  0  0  0  0  0
  131.0430  121.3410   61.5590 C   0  0  0  0  0  0  0  0  0  0  0  0
  131.5180  120.0470   60.9630 C   0  0  0  0  0  0  0  0  0  0  0  0
  130.7710  118.8670   61.1100 C   0  0  0  0  0  0  0  0  0  0  0  0
  131.2070  117.6650   60.5600 C   0  0  0  0  0  0  0  0  0  0  0  0
  132.4060  117.6240   59.8540 C   0  0  0  0  0  0  0  0  0  0  0  0
  133.1680  118.7770   59.6950 C   0  0  0  0  0  0  0  0  0  0  0  0
  132.7270  119.9760   60.2470 C   0  0  0  0  0  0  0  0  0  0  0  0
  130.5660  121.4250   62.8720 C   0  0  0  0  0  0  0  0  0  0  0  0
  130.1230  122.6430   63.4110 C   0  0  0  0  0  0  0  0  0  0  0  0
  129.6120  122.6650   64.8570 C   0  0  0  0  0  0  0  0  0  0  0  0
  128.2950  122.8590   64.9440 F   0  0  0  0  0  0  0  0  0  0  0  0
  129.8850  121.5010   65.4480 F   0  0  0  0  0  0  0  0  0  0  0  0
  130.2060  123.6490   65.5300 F   0  0  0  0  0  0  0  0  0  0  0  0
  130.1750  123.7880   62.5650 C   0  0  0  0  0  0  0  0  0  0  0  0
  1  2  1  0
  2  3  2  0
  3  4  1  0
  4  5  2  0
  4  6  1  0
  6  7  1  0
  7  8  1  0
  8  9  2  0
  9 10  1  0
 10 11  2  0
 11 12  1  0
 12 13  2  0
  3 14  1  0
 14 15  1  0
 15 16  2  0
 16 17  1  0
 17 18  1  0
 18 19  2  0
 19 20  1  0
 20 21  2  0
 21 22  1  0
 22 23  2  0
 17 24  2  0
 24 25  1  0
 25 26  1  0
 26 27  1  0
 26 28  1  0
 26 29  1  0
 25 30  2  0
 30  2  1  0
 13  8  1  0
 30 15  1  0
 23 18  1  0
M  END
>  <Binding energies>  (56) 
[-7.5]

>  <Ligand effiencies>  (56) 
[-0.22727272727272727]

>  <Interactions>  (56) 
["V-B:GLU:543:CD:9879, V-A:TYR:484:CZ:4346, V-B:ALA:541:CB:9863, V-A:ASP:366:CG:3212, V-B:TYR:539:CE2:9847, V-B:TYR:539:CD2:9845, H-A:GLU:543:OE2:4909, V-A:ASN:362:C:3171, V-A:ASN:362:CB:3175, V-A:PRO:540:CB:4884, V-B:ALA:541:C:9859, V-A:LEU:373:CD2:3280, V-B:GLU:543:CG:9878, V-B:ALA:541:CA:9861, V-B:TYR:539:CB:9842, V-A:ILE:369:CG2:3236, V-A:SER:385:CA:3406, V-A:TYR:484:CE2:4345, V-A:LEU:475:CD2:4258, H-A:ASP:366:OD2:3214, V-A:LEU:363:CA:3184, V-A:ASP:366:CB:3211, H-B:GLU:543:OE2:9881, H-B:GLU:543:OE1:9880, V-A:LEU:475:CD1:4257, V-A:HIS:383:CE1:3393, V-A:LEU:475:CG:4256, V-A:TYR:531:CZ:4793"]

$$$$
4ch_Grossjean_2025
     RDKit          3D

 36 39  0  0  0  0  0  0  0  0999 V2000
  124.1330  130.4080   63.6720 C   0  0  0  0  0  0  0  0  0  0  0  0
  124.2410  130.5540   65.0840 O   0  0  0  0  0  0  0  0  0  0  0  0
  125.2650  129.9130   65.7550 C   0  0  0  0  0  0  0  0  0  0  0  0
  126.5510  129.7200   65.2240 C   0  0  0  0  0  0  0  0  0  0  0  0
  127.5390  129.0640   65.9610 C   0  0  0  0  0  0  0  0  0  0  0  0
  128.9200  128.8400   65.3570 C   0  0  0  0  0  0  0  0  0  0  0  0
  129.0680  127.5660   64.6530 N   0  0  0  0  0  0  0  0  0  0  0  0
  130.1930  127.1300   64.0480 C   0  0  0  0  0  0  0  0  0  0  0  0
  131.2430  127.7770   64.0550 O   0  0  0  0  0  0  0  0  0  0  0  0
  130.1080  125.8180   63.4050 C   0  0  0  0  0  0  0  0  0  0  0  0
  131.3390  124.6000   63.7230 S   0  0  0  0  0  0  0  0  0  0  0  0
  130.5310  123.4500   62.6850 C   0  0  0  0  0  0  0  0  0  0  0  0
  131.0190  122.2290   62.4880 N   0  0  0  0  0  0  0  0  0  0  0  0
  130.3180  121.4020   61.6690 C   0  0  0  0  0  0  0  0  0  0  0  0
  130.9000  120.0330   61.4620 C   0  0  0  0  0  0  0  0  0  0  0  0
  132.2110  119.8740   60.9830 C   0  0  0  0  0  0  0  0  0  0  0  0
  132.7560  118.6070   60.7880 C   0  0  0  0  0  0  0  0  0  0  0  0
  131.9960  117.4780   61.0700 C   0  0  0  0  0  0  0  0  0  0  0  0
  130.6940  117.6070   61.5420 C   0  0  0  0  0  0  0  0  0  0  0  0
  130.1520  118.8750   61.7330 C   0  0  0  0  0  0  0  0  0  0  0  0
  129.1400  121.8130   61.0390 C   0  0  0  0  0  0  0  0  0  0  0  0
  128.6150  123.1000   61.2380 C   0  0  0  0  0  0  0  0  0  0  0  0
  127.3190  123.4850   60.5170 C   0  0  0  0  0  0  0  0  0  0  0  0
  127.3270  124.7390   60.0580 F   0  0  0  0  0  0  0  0  0  0  0  0
  127.1260  122.6800   59.4730 F   0  0  0  0  0  0  0  0  0  0  0  0
  126.2870  123.3740   61.3530 F   0  0  0  0  0  0  0  0  0  0  0  0
  129.3350  123.9700   62.1060 C   0  0  0  0  0  0  0  0  0  0  0  0
  129.1130  125.3260   62.5460 C   0  0  0  0  0  0  0  0  0  0  0  0
  128.0300  126.0690   62.1500 N   0  0  0  0  0  0  0  0  0  0  0  0
  127.2390  128.5790   67.2340 C   0  0  0  0  0  0  0  0  0  0  0  0
  125.9610  128.7560   67.7900 C   0  0  0  0  0  0  0  0  0  0  0  0
  125.5960  128.3030   69.0440 O   0  0  0  0  0  0  0  0  0  0  0  0
  126.1470  127.0860   69.5360 C   0  0  0  0  0  0  0  0  0  0  0  0
  124.9850  129.4310   67.0420 C   0  0  0  0  0  0  0  0  0  0  0  0
  123.7270  129.5970   67.5670 O   0  0  0  0  0  0  0  0  0  0  0  0
  122.6760  129.2580   66.6720 C   0  0  0  0  0  0  0  0  0  0  0  0
  1  2  1  0
  2  3  1  0
  3  4  2  0
  4  5  1  0
  5  6  1  0
  6  7  1  0
  7  8  1  0
  8  9  2  0
  8 10  1  0
 10 11  1  0
 11 12  1  0
 12 13  2  0
 13 14  1  0
 14 15  1  0
 15 16  2  0
 16 17  1  0
 17 18  2  0
 18 19  1  0
 19 20  2  0
 14 21  2  0
 21 22  1  0
 22 23  1  0
 23 24  1  0
 23 25  1  0
 23 26  1  0
 22 27  2  0
 27 28  1  0
 28 29  1  0
  5 30  2  0
 30 31  1  0
 31 32  1  0
 32 33  1  0
 31 34  2  0
 34 35  1  0
 35 36  1  0
 34  3  1  0
 28 10  2  0
 27 12  1  0
 20 15  1  0
M  END
>  <Binding energies>  (57) 
[-7.17]

>  <Ligand effiencies>  (57) 
[-0.18384615384615385]

>  <Interactions>  (57) 
["V-B:ARG:545:CG:9893, V-B:GLU:543:CB:9877, V-A:GLU:543:CG:4906, V-B:GLU:543:CD:9879, V-B:HIS:456:CE1:9040, V-A:GLU:543:CD:4907, V-B:ARG:545:CZ:9897, H-B:TYR:484:OH:9318, H-A:ARG:545:NH2:4927, V-B:ARG:545:CD:9894, H-B:GLY:454:N:9020, V-B:TYR:484:CZ:9317, V-B:PRO:540:CA:9854, V-B:PRO:540:CB:9856, V-B:ALA:541:CB:9863, V-B:PRO:540:C:9852, V-B:TYR:539:CE2:9847, V-B:GLY:544:C:9883, V-B:TYR:539:CD2:9845, H-B:ILE:455:N:9025, V-A:PRO:482:CG:4326, V-A:PRO:482:CB:4325, V-A:SER:385:CB:3408, V-A:SER:385:CA:3406, V-B:GLY:453:C:9012, V-A:LEU:475:CD2:4258, V-B:GLY:453:CA:9014, V-B:ARG:545:CA:9890, V-B:GLY:454:CA:9019, V-B:TYR:539:C:9838, H-B:GLU:543:OE2:9881, V-B:PRO:540:N:9855, H-B:GLU:543:OE1:9880, H-B:HIS:456:ND1:9037, V-A:HIS:383:CE1:3393"]

$$$$
4cj_Grossjean_2025
     RDKit          3D

 28 31  0  0  0  0  0  0  0  0999 V2000
  129.3270  125.7050   63.6730 N   0  0  0  0  0  0  0  0  0  0  0  0
  130.3410  124.7860   63.7690 C   0  0  0  0  0  0  0  0  0  0  0  0
  131.3770  124.8800   64.7120 C   0  0  0  0  0  0  0  0  0  0  0  0
  131.5880  125.9030   65.7390 C   0  0  0  0  0  0  0  0  0  0  0  0
  132.6860  126.4520   65.8660 O   0  0  0  0  0  0  0  0  0  0  0  0
  130.5120  126.1790   66.5170 N   0  0  0  0  0  0  0  0  0  0  0  0
  130.4470  127.1010   67.5530 C   0  0  0  0  0  0  0  0  0  0  0  0
  131.4480  127.6770   68.1850 N   0  0  0  0  0  0  0  0  0  0  0  0
  131.0200  128.5050   69.1170 C   0  0  0  0  0  0  0  0  0  0  0  0
  129.6390  128.6150   69.2560 C   0  0  0  0  0  0  0  0  0  0  0  0
  128.8690  127.5730   68.0970 S   0  0  0  0  0  0  0  0  0  0  0  0
  132.4970  123.5270   64.5640 S   0  0  0  0  0  0  0  0  0  0  0  0
  131.5740  122.8500   63.2430 C   0  0  0  0  0  0  0  0  0  0  0  0
  131.9410  121.7180   62.6480 N   0  0  0  0  0  0  0  0  0  0  0  0
  131.1580  121.2650   61.6360 C   0  0  0  0  0  0  0  0  0  0  0  0
  131.5930  119.9780   60.9950 C   0  0  0  0  0  0  0  0  0  0  0  0
  130.8410  118.8040   61.1570 C   0  0  0  0  0  0  0  0  0  0  0  0
  131.2430  117.6060   60.5700 C   0  0  0  0  0  0  0  0  0  0  0  0
  132.4080  117.5660   59.8120 C   0  0  0  0  0  0  0  0  0  0  0  0
  133.1730  118.7140   59.6370 C   0  0  0  0  0  0  0  0  0  0  0  0
  132.7670  119.9090   60.2250 C   0  0  0  0  0  0  0  0  0  0  0  0
  130.0230  121.9630   61.2100 C   0  0  0  0  0  0  0  0  0  0  0  0
  129.6270  123.1600   61.8290 C   0  0  0  0  0  0  0  0  0  0  0  0
  128.3710  123.8720   61.3150 C   0  0  0  0  0  0  0  0  0  0  0  0
  127.7930  123.2410   60.2920 F   0  0  0  0  0  0  0  0  0  0  0  0
  127.4700  123.9570   62.2930 F   0  0  0  0  0  0  0  0  0  0  0  0
  128.6870  125.1000   60.9000 F   0  0  0  0  0  0  0  0  0  0  0  0
  130.4320  123.6340   62.9050 C   0  0  0  0  0  0  0  0  0  0  0  0
  1  2  1  0
  2  3  2  0
  3  4  1  0
  4  5  2  0
  4  6  1  0
  6  7  1  0
  7  8  2  0
  8  9  1  0
  9 10  2  0
 10 11  1  0
  3 12  1  0
 12 13  1  0
 13 14  2  0
 14 15  1  0
 15 16  1  0
 16 17  2  0
 17 18  1  0
 18 19  2  0
 19 20  1  0
 20 21  2  0
 15 22  2  0
 22 23  1  0
 23 24  1  0
 24 25  1  0
 24 26  1  0
 24 27  1  0
 23 28  2  0
 28  2  1  0
 11  7  1  0
 28 13  1  0
 21 16  1  0
M  END
>  <Binding energies>  (58) 
[-6.94]

>  <Ligand effiencies>  (58) 
[-0.2238709677419355]

>  <Interactions>  (58) 
["V-A:GLU:543:CB:4905, V-B:GLU:543:CD:9879, V-A:HIS:456:CE1:4069, V-A:GLU:543:CD:4907, V-A:GLY:454:CA:4048, H-A:ARG:545:NH2:4927, V-A:GLU:543:C:4901, V-B:PRO:540:CA:9854, V-B:TYR:539:CE2:9847, V-B:TYR:539:CD2:9845, H-A:ARG:545:NE:4923, H-A:TYR:484:OH:4347, V-A:LEU:373:CD2:3280, V-A:ILE:369:CG2:3236, V-A:SER:385:CA:3406, V-A:LEU:475:CD2:4258, H-B:GLU:543:OE2:9881, H-B:GLU:543:OE1:9880, V-A:HIS:383:CE1:3393, V-A:VAL:384:C:3396"]

$$$$
4ck_Grossjean_2025
     RDKit          3D

 33 35  0  0  0  0  0  0  0  0999 V2000
  125.9290  127.0580   69.5700 C   0  0  0  0  0  0  0  0  0  0  0  0
  126.8720  126.3810   70.3860 O   0  0  0  0  0  0  0  0  0  0  0  0
  128.1980  126.8700   70.2410 C   0  0  0  0  0  0  0  0  0  0  0  0
  128.6150  126.7550   68.7700 C   0  0  0  0  0  0  0  0  0  0  0  0
  129.5990  127.7420   68.4890 O   0  0  0  0  0  0  0  0  0  0  0  0
  129.3170  128.5100   67.3260 C   0  0  0  0  0  0  0  0  0  0  0  0
  127.8030  128.7360   67.2290 C   0  0  0  0  0  0  0  0  0  0  0  0
  127.3240  128.1190   66.0410 O   0  0  0  0  0  0  0  0  0  0  0  0
  126.3600  128.8940   65.3390 C   0  0  0  0  0  0  0  0  0  0  0  0
  126.2780  128.4160   63.8820 C   0  0  0  0  0  0  0  0  0  0  0  0
  127.1060  127.2340   63.6420 N   0  0  0  0  0  0  0  0  0  0  0  0
  127.0850  126.4660   62.5330 C   0  0  0  0  0  0  0  0  0  0  0  0
  126.3600  126.7110   61.5680 O   0  0  0  0  0  0  0  0  0  0  0  0
  127.9910  125.3170   62.5340 C   0  0  0  0  0  0  0  0  0  0  0  0
  127.6050  123.8860   61.5820 S   0  0  0  0  0  0  0  0  0  0  0  0
  129.0970  123.1120   62.0610 C   0  0  0  0  0  0  0  0  0  0  0  0
  129.4180  121.8950   61.6300 N   0  0  0  0  0  0  0  0  0  0  0  0
  130.5980  121.3740   62.0570 C   0  0  0  0  0  0  0  0  0  0  0  0
  130.9400  120.0070   61.5380 C   0  0  0  0  0  0  0  0  0  0  0  0
  132.1520  119.7740   60.8680 C   0  0  0  0  0  0  0  0  0  0  0  0
  132.4740  118.5090   60.3820 C   0  0  0  0  0  0  0  0  0  0  0  0
  131.5840  117.4550   60.5600 C   0  0  0  0  0  0  0  0  0  0  0  0
  130.3790  117.6570   61.2240 C   0  0  0  0  0  0  0  0  0  0  0  0
  130.0620  118.9230   61.7100 C   0  0  0  0  0  0  0  0  0  0  0  0
  131.4540  122.0820   62.9080 C   0  0  0  0  0  0  0  0  0  0  0  0
  131.1240  123.3660   63.3700 C   0  0  0  0  0  0  0  0  0  0  0  0
  132.1060  124.0840   64.3040 C   0  0  0  0  0  0  0  0  0  0  0  0
  133.0610  123.2820   64.7760 F   0  0  0  0  0  0  0  0  0  0  0  0
  132.7060  125.0780   63.6490 F   0  0  0  0  0  0  0  0  0  0  0  0
  131.4480  124.5820   65.3510 F   0  0  0  0  0  0  0  0  0  0  0  0
  129.8880  123.9210   62.9300 C   0  0  0  0  0  0  0  0  0  0  0  0
  129.2320  125.1820   63.1770 C   0  0  0  0  0  0  0  0  0  0  0  0
  129.7730  126.1580   63.9730 N   0  0  0  0  0  0  0  0  0  0  0  0
  1  2  1  0
  2  3  1  0
  3  4  1  0
  4  5  1  0
  5  6  1  0
  6  7  1  0
  7  8  1  0
  8  9  1  0
  9 10  1  0
 10 11  1  0
 11 12  1  0
 12 13  2  0
 12 14  1  0
 14 15  1  0
 15 16  1  0
 16 17  2  0
 17 18  1  0
 18 19  1  0
 19 20  2  0
 20 21  1  0
 21 22  2  0
 22 23  1  0
 23 24  2  0
 18 25  2  0
 25 26  1  0
 26 27  1  0
 27 28  1  0
 27 29  1  0
 27 30  1  0
 26 31  2  0
 31 32  1  0
 32 33  1  0
 32 14  2  0
 31 16  1  0
 24 19  1  0
M  END
>  <Binding energies>  (59) 
[-5.19]

>  <Ligand effiencies>  (59) 
[-0.14416666666666667]

>  <Interactions>  (59) 
["V-B:ARG:545:CG:9893, V-A:GLU:543:CB:4905, V-B:GLU:543:CB:9877, V-A:GLU:543:CG:4906, V-B:GLU:543:CD:9879, V-B:HIS:456:CE1:9040, H-B:ARG:545:NH2:9899, V-A:GLU:543:CD:4907, V-A:GLY:454:CA:4048, V-A:TYR:484:CZ:4346, V-B:ALA:541:CB:9863, V-B:TYR:539:CE2:9847, V-B:GLY:544:C:9883, V-B:TYR:539:CD2:9845, H-B:ARG:545:N:9891, V-A:PRO:482:CG:4326, V-A:PRO:482:CB:4325, V-A:SER:385:CA:3406, V-A:LEU:475:CD2:4258, V-B:ARG:545:CA:9890, H-B:GLU:543:OE2:9881, H-B:GLU:543:OE1:9880, V-A:HIS:383:CE1:3393"]

$$$$
4dd_Grossjean_2025
     RDKit          3D

 26 29  0  0  0  0  0  0  0  0999 V2000
  133.5090  124.3210   60.9360 C   0  0  0  0  0  0  0  0  0  0  0  0
  132.6290  123.3690   61.7310 C   0  0  0  0  0  0  0  0  0  0  0  0
  132.3750  122.1010   61.1950 C   0  0  0  0  0  0  0  0  0  0  0  0
  131.5730  121.1780   61.8780 C   0  0  0  0  0  0  0  0  0  0  0  0
  131.2800  119.8150   61.3250 C   0  0  0  0  0  0  0  0  0  0  0  0
  132.1470  119.2110   60.4000 C   0  0  0  0  0  0  0  0  0  0  0  0
  131.8820  117.9450   59.8850 C   0  0  0  0  0  0  0  0  0  0  0  0
  130.7400  117.2620   60.2880 C   0  0  0  0  0  0  0  0  0  0  0  0
  129.8650  117.8340   61.2040 C   0  0  0  0  0  0  0  0  0  0  0  0
  130.1340  119.1010   61.7190 C   0  0  0  0  0  0  0  0  0  0  0  0
  131.0000  121.4730   63.0770 N   0  0  0  0  0  0  0  0  0  0  0  0
  131.2460  122.6770   63.5910 C   0  0  0  0  0  0  0  0  0  0  0  0
  130.5880  123.1810   65.1320 S   0  0  0  0  0  0  0  0  0  0  0  0
  131.3750  124.7550   65.0070 C   0  0  0  0  0  0  0  0  0  0  0  0
  131.2290  125.7440   66.0770 C   0  0  0  0  0  0  0  0  0  0  0  0
  132.0510  126.6520   66.2090 O   0  0  0  0  0  0  0  0  0  0  0  0
  130.1450  125.5810   66.8740 N   0  0  0  0  0  0  0  0  0  0  0  0
  129.7470  126.3130   68.0070 C   0  0  0  0  0  0  0  0  0  0  0  0
  130.0730  127.6730   68.0020 C   0  0  0  0  0  0  0  0  0  0  0  0
  129.7100  128.4860   69.0720 C   0  0  0  0  0  0  0  0  0  0  0  0
  129.0130  127.9410   70.1470 C   0  0  0  0  0  0  0  0  0  0  0  0
  128.6710  126.5920   70.1600 C   0  0  0  0  0  0  0  0  0  0  0  0
  129.0330  125.7760   69.0910 C   0  0  0  0  0  0  0  0  0  0  0  0
  132.1040  124.8620   63.8120 C   0  0  0  0  0  0  0  0  0  0  0  0
  132.8140  125.9800   63.4480 N   0  0  0  0  0  0  0  0  0  0  0  0
  132.0480  123.6850   62.9860 C   0  0  0  0  0  0  0  0  0  0  0  0
  1  2  1  0
  2  3  2  0
  3  4  1  0
  4  5  1  0
  5  6  2  0
  6  7  1  0
  7  8  2  0
  8  9  1  0
  9 10  2  0
  4 11  2  0
 11 12  1  0
 12 13  1  0
 13 14  1  0
 14 15  1  0
 15 16  2  0
 15 17  1  0
 17 18  1  0
 18 19  2  0
 19 20  1  0
 20 21  2  0
 21 22  1  0
 22 23  2  0
 14 24  2  0
 24 25  1  0
 24 26  1  0
 26  2  1  0
 10  5  1  0
 26 12  2  0
 23 18  1  0
M  END
>  <Binding energies>  (60) 
[-8.08]

>  <Ligand effiencies>  (60) 
[-0.2786206896551724]

>  <Interactions>  (60) 
["V-A:GLU:543:CB:4905, V-B:GLU:543:CB:9877, V-B:GLU:543:CD:9879, V-B:HIS:456:CE1:9040, V-A:HIS:456:CE1:4069, V-A:GLU:543:CD:4907, V-A:TYR:484:CZ:4346, V-A:ARG:545:CZ:4925, H-A:ASP:366:OD1:3213, V-B:ALA:541:CB:9863, V-A:ASP:366:CG:3212, V-B:TYR:539:CE2:9847, V-B:TYR:539:CD2:9845, H-A:ARG:545:NE:4923, H-A:TYR:484:OH:4347, V-A:PRO:482:CG:4326, V-B:TYR:539:CG:9843, V-A:PRO:482:CB:4325, V-B:GLU:543:CG:9878, V-B:TYR:539:CB:9842, V-A:TYR:484:CE2:4345, V-A:LEU:475:CD2:4258, H-A:ASP:366:OD2:3214, V-B:TYR:539:C:9838, H-B:GLU:543:OE2:9881, V-A:ILE:369:CD1:3238, V-B:GLU:543:CA:9875, H-A:GLU:543:OE1:4908, V-A:HIS:383:CE1:3393"]

$$$$
4dg_Grossjean_2025
     RDKit          3D

 27 30  0  0  0  0  0  0  0  0999 V2000
  128.4180  122.5090   62.9290 C   0  0  0  0  0  0  0  0  0  0  0  0
  129.8900  122.2010   62.7000 C   0  0  0  0  0  0  0  0  0  0  0  0
  130.2180  121.1580   61.8260 C   0  0  0  0  0  0  0  0  0  0  0  0
  131.5540  120.8250   61.5720 C   0  0  0  0  0  0  0  0  0  0  0  0
  131.9370  119.7110   60.6380 C   0  0  0  0  0  0  0  0  0  0  0  0
  131.1320  118.5670   60.5120 C   0  0  0  0  0  0  0  0  0  0  0  0
  131.4840  117.5310   59.6500 C   0  0  0  0  0  0  0  0  0  0  0  0
  132.6500  117.6240   58.8990 C   0  0  0  0  0  0  0  0  0  0  0  0
  133.4690  118.7450   59.0060 C   0  0  0  0  0  0  0  0  0  0  0  0
  133.1130  119.7770   59.8690 C   0  0  0  0  0  0  0  0  0  0  0  0
  132.5850  121.5050   62.1440 N   0  0  0  0  0  0  0  0  0  0  0  0
  132.2740  122.4970   62.9770 C   0  0  0  0  0  0  0  0  0  0  0  0
  133.5010  123.4470   63.7830 S   0  0  0  0  0  0  0  0  0  0  0  0
  132.2750  124.4240   64.5900 C   0  0  0  0  0  0  0  0  0  0  0  0
  132.6720  125.4720   65.5290 C   0  0  0  0  0  0  0  0  0  0  0  0
  133.8340  125.8800   65.5830 O   0  0  0  0  0  0  0  0  0  0  0  0
  131.7020  125.9280   66.3480 N   0  0  0  0  0  0  0  0  0  0  0  0
  131.8640  126.9840   67.3470 C   0  0  0  0  0  0  0  0  0  0  0  0
  130.6150  127.2170   68.1900 C   0  0  0  0  0  0  0  0  0  0  0  0
  130.2900  128.5120   68.6070 C   0  0  0  0  0  0  0  0  0  0  0  0
  129.1340  128.7330   69.3500 C   0  0  0  0  0  0  0  0  0  0  0  0
  128.3000  127.6620   69.6640 C   0  0  0  0  0  0  0  0  0  0  0  0
  128.6080  126.3720   69.2370 C   0  0  0  0  0  0  0  0  0  0  0  0
  129.7640  126.1510   68.4920 C   0  0  0  0  0  0  0  0  0  0  0  0
  130.9810  124.0040   64.2480 C   0  0  0  0  0  0  0  0  0  0  0  0
  129.8370  124.5790   64.7400 N   0  0  0  0  0  0  0  0  0  0  0  0
  130.9540  122.9100   63.3150 C   0  0  0  0  0  0  0  0  0  0  0  0
  1  2  1  0
  2  3  2  0
  3  4  1  0
  4  5  1  0
  5  6  2  0
  6  7  1  0
  7  8  2  0
  8  9  1  0
  9 10  2  0
  4 11  2  0
 11 12  1  0
 12 13  1  0
 13 14  1  0
 14 15  1  0
 15 16  2  0
 15 17  1  0
 17 18  1  0
 18 19  1  0
 19 20  2  0
 20 21  1  0
 21 22  2  0
 22 23  1  0
 23 24  2  0
 14 25  2  0
 25 26  1  0
 25 27  1  0
 27  2  1  0
 10  5  1  0
 27 12  2  0
 24 19  1  0
M  END
>  <Binding energies>  (61) 
[-8.53]

>  <Ligand effiencies>  (61) 
[-0.2843333333333333]

>  <Interactions>  (61) 
["V-A:GLU:543:CB:4905, V-B:GLU:543:CB:9877, V-A:GLU:543:CG:4906, V-B:GLU:543:CD:9879, V-B:HIS:456:CE1:9040, H-A:GLY:454:N:4049, V-A:HIS:456:CE1:4069, H-A:ARG:545:NH1:4926, V-A:GLU:543:CD:4907, V-A:GLY:454:CA:4048, H-A:ARG:545:NH2:4927, V-B:ALA:541:CB:9863, V-A:ARG:545:CG:4921, V-B:TYR:539:CE2:9847, V-B:TYR:539:CD2:9845, H-A:ARG:545:NE:4923, H-A:TYR:484:OH:4347, V-B:TYR:539:CG:9843, V-A:LEU:373:CD2:3280, V-B:ALA:541:CA:9861, V-B:TYR:539:CB:9842, V-A:ILE:369:CG2:3236, V-A:LEU:373:CD1:3279, V-A:TYR:484:CE2:4345, V-A:LEU:475:CD2:4258, V-A:LEU:373:CG:3278, H-B:GLU:543:OE2:9881, V-A:HIS:383:CE1:3393, V-A:VAL:384:C:3396"]

$$$$
4dj_Grossjean_2025
     RDKit          3D

 25 28  0  0  0  0  0  0  0  0999 V2000
  128.4260  123.9140   61.3340 C   0  0  0  0  0  0  0  0  0  0  0  0
  129.6620  123.1950   61.8530 C   0  0  0  0  0  0  0  0  0  0  0  0
  130.0430  122.0030   61.2260 C   0  0  0  0  0  0  0  0  0  0  0  0
  131.1700  121.2920   61.6570 C   0  0  0  0  0  0  0  0  0  0  0  0
  131.6060  120.0130   61.0010 C   0  0  0  0  0  0  0  0  0  0  0  0
  130.8460  118.8390   61.1340 C   0  0  0  0  0  0  0  0  0  0  0  0
  131.2450  117.6500   60.5280 C   0  0  0  0  0  0  0  0  0  0  0  0
  132.4180  117.6170   59.7810 C   0  0  0  0  0  0  0  0  0  0  0  0
  133.1920  118.7630   59.6350 C   0  0  0  0  0  0  0  0  0  0  0  0
  132.7890  119.9500   60.2410 C   0  0  0  0  0  0  0  0  0  0  0  0
  131.9480  121.7320   62.6840 N   0  0  0  0  0  0  0  0  0  0  0  0
  131.5850  122.8660   63.2810 C   0  0  0  0  0  0  0  0  0  0  0  0
  132.4900  123.5410   64.6180 S   0  0  0  0  0  0  0  0  0  0  0  0
  131.3790  124.9070   64.7420 C   0  0  0  0  0  0  0  0  0  0  0  0
  131.5820  125.9350   65.7630 C   0  0  0  0  0  0  0  0  0  0  0  0
  132.6850  126.4690   65.9100 O   0  0  0  0  0  0  0  0  0  0  0  0
  130.4940  126.2350   66.5140 N   0  0  0  0  0  0  0  0  0  0  0  0
  130.4190  127.1640   67.5420 C   0  0  0  0  0  0  0  0  0  0  0  0
  131.4090  127.6710   68.2460 N   0  0  0  0  0  0  0  0  0  0  0  0
  130.9720  128.5310   69.1460 C   0  0  0  0  0  0  0  0  0  0  0  0
  129.5970  128.7380   69.1840 C   0  0  0  0  0  0  0  0  0  0  0  0
  128.8430  127.7460   67.9710 S   0  0  0  0  0  0  0  0  0  0  0  0
  130.3590  124.8170   63.7810 C   0  0  0  0  0  0  0  0  0  0  0  0
  129.3530  125.7410   63.6490 N   0  0  0  0  0  0  0  0  0  0  0  0
  130.4560  123.6610   62.9320 C   0  0  0  0  0  0  0  0  0  0  0  0
  1  2  1  0
  2  3  2  0
  3  4  1  0
  4  5  1  0
  5  6  2  0
  6  7  1  0
  7  8  2  0
  8  9  1  0
  9 10  2  0
  4 11  2  0
 11 12  1  0
 12 13  1  0
 13 14  1  0
 14 15  1  0
 15 16  2  0
 15 17  1  0
 17 18  1  0
 18 19  2  0
 19 20  1  0
 20 21  2  0
 21 22  1  0
 14 23  2  0
 23 24  1  0
 23 25  1  0
 25  2  1  0
 10  5  1  0
 25 12  2  0
 22 18  1  0
M  END
>  <Binding energies>  (62) 
[-7.28]

>  <Ligand effiencies>  (62) 
[-0.26]

>  <Interactions>  (62) 
["V-A:GLU:543:CB:4905, V-B:GLU:543:CD:9879, V-A:HIS:456:CE1:4069, V-A:GLU:543:CD:4907, V-A:GLY:454:CA:4048, H-A:ARG:545:NH2:4927, V-A:GLU:543:C:4901, V-A:TYR:484:CZ:4346, V-B:TYR:539:CE2:9847, V-B:TYR:539:CD2:9845, H-A:ARG:545:NE:4923, H-A:TYR:484:OH:4347, V-A:LEU:373:CD2:3280, V-B:TYR:539:CB:9842, V-A:ILE:369:CG2:3236, V-A:SER:385:CA:3406, V-A:LEU:475:CD2:4258, H-B:GLU:543:OE2:9881, H-B:GLU:543:OE1:9880, V-A:HIS:383:CE1:3393"]

$$$$
4ea_Grossjean_2025
     RDKit          3D

 31 34  0  0  0  0  0  0  0  0999 V2000
  131.1150  122.4710   73.7950 C   0  0  0  0  0  0  0  0  0  0  0  0
  129.7110  122.9020   73.3620 C   0  0  0  0  0  0  0  0  0  0  0  0
  129.7960  124.1110   72.6190 O   0  0  0  0  0  0  0  0  0  0  0  0
  129.0960  125.2140   72.9900 C   0  0  0  0  0  0  0  0  0  0  0  0
  129.0710  125.6460   74.1470 O   0  0  0  0  0  0  0  0  0  0  0  0
  128.3560  125.8570   71.8530 C   0  0  0  0  0  0  0  0  0  0  0  0
  128.9850  125.9720   70.6070 C   0  0  0  0  0  0  0  0  0  0  0  0
  128.3260  126.5630   69.5320 C   0  0  0  0  0  0  0  0  0  0  0  0
  127.0260  127.0500   69.6800 C   0  0  0  0  0  0  0  0  0  0  0  0
  126.4600  127.6270   68.5270 N   0  0  0  0  0  0  0  0  0  0  0  0
  125.3180  128.3410   68.3720 C   0  0  0  0  0  0  0  0  0  0  0  0
  124.5420  128.6150   69.2880 O   0  0  0  0  0  0  0  0  0  0  0  0
  125.0420  128.7880   67.0040 C   0  0  0  0  0  0  0  0  0  0  0  0
  123.4170  129.3030   66.5430 S   0  0  0  0  0  0  0  0  0  0  0  0
  123.9350  129.6360   64.9070 C   0  0  0  0  0  0  0  0  0  0  0  0
  123.0910  130.0950   63.9800 N   0  0  0  0  0  0  0  0  0  0  0  0
  123.6180  130.3130   62.7500 C   0  0  0  0  0  0  0  0  0  0  0  0
  122.6420  130.8350   61.7130 C   0  0  0  0  0  0  0  0  0  0  0  0
  124.9540  130.0850   62.4280 C   0  0  0  0  0  0  0  0  0  0  0  0
  125.8350  129.6040   63.4030 C   0  0  0  0  0  0  0  0  0  0  0  0
  127.2520  129.3670   63.0450 C   0  0  0  0  0  0  0  0  0  0  0  0
  128.1130  130.4480   62.8280 C   0  0  0  0  0  0  0  0  0  0  0  0
  129.4460  130.2260   62.4940 C   0  0  0  0  0  0  0  0  0  0  0  0
  129.9180  128.9210   62.3730 C   0  0  0  0  0  0  0  0  0  0  0  0
  129.0680  127.8370   62.5830 C   0  0  0  0  0  0  0  0  0  0  0  0
  127.7360  128.0610   62.9170 C   0  0  0  0  0  0  0  0  0  0  0  0
  125.3210  129.3620   64.7070 C   0  0  0  0  0  0  0  0  0  0  0  0
  125.9290  128.8790   65.9200 C   0  0  0  0  0  0  0  0  0  0  0  0
  127.2570  128.5440   65.9900 N   0  0  0  0  0  0  0  0  0  0  0  0
  126.3880  126.9380   70.9250 C   0  0  0  0  0  0  0  0  0  0  0  0
  127.0490  126.3470   71.9980 C   0  0  0  0  0  0  0  0  0  0  0  0
  1  2  1  0
  2  3  1  0
  3  4  1  0
  4  5  2  0
  4  6  1  0
  6  7  2  0
  7  8  1  0
  8  9  2  0
  9 10  1  0
 10 11  1  0
 11 12  2  0
 11 13  1  0
 13 14  1  0
 14 15  1  0
 15 16  2  0
 16 17  1  0
 17 18  1  0
 17 19  2  0
 19 20  1  0
 20 21  1  0
 21 22  2  0
 22 23  1  0
 23 24  2  0
 24 25  1  0
 25 26  2  0
 20 27  2  0
 27 28  1  0
 28 29  1  0
  9 30  1  0
 30 31  2  0
 31  6  1  0
 28 13  2  0
 27 15  1  0
 26 21  1  0
M  END
>  <Binding energies>  (63) 
[-7.85]

>  <Ligand effiencies>  (63) 
[-0.23088235294117646]

>  <Interactions>  (63) 
["V-B:ARG:545:CG:9893, V-B:GLU:543:CB:9877, V-B:GLU:543:CD:9879, V-B:HIS:456:CE1:9040, V-A:HIS:456:CE1:4069, V-A:GLU:543:CD:4907, V-B:ARG:545:CZ:9897, H-B:TYR:484:OH:9318, V-B:ARG:545:CD:9894, H-B:GLY:454:N:9020, V-B:ASP:366:CG:8183, V-B:ILE:369:CG1:8208, V-B:GLU:543:C:9873, V-B:GLY:544:C:9883, H-B:ARG:545:NH1:9898, V-B:GLY:453:C:9012, V-B:GLY:453:CA:9014, V-B:ARG:545:CA:9890, H-B:GLU:543:OE2:9881, H-B:GLU:543:OE1:9880, H-B:HIS:456:ND1:9037, V-B:GLY:544:CA:9885, H-B:LYS:547:NZ:9922, V-A:HIS:456:CG:4065, V-A:HIS:456:CD2:4067, V-A:TYR:484:CG:4341, V-A:TYR:484:CB:4340, V-A:ASP:473:CG:4239, V-A:TYR:484:CD2:4343"]

$$$$
4eb_Grossjean_2025
     RDKit          3D

 30 33  0  0  0  0  0  0  0  0999 V2000
  124.7680  129.3540   63.0130 C   0  0  0  0  0  0  0  0  0  0  0  0
  125.4480  128.9940   64.2070 O   0  0  0  0  0  0  0  0  0  0  0  0
  124.8940  129.2320   65.4250 C   0  0  0  0  0  0  0  0  0  0  0  0
  123.7440  129.6510   65.5780 O   0  0  0  0  0  0  0  0  0  0  0  0
  125.8240  128.9360   66.5660 C   0  0  0  0  0  0  0  0  0  0  0  0
  125.3000  128.4100   67.7550 C   0  0  0  0  0  0  0  0  0  0  0  0
  126.1350  128.1240   68.8310 C   0  0  0  0  0  0  0  0  0  0  0  0
  127.5080  128.3580   68.7430 C   0  0  0  0  0  0  0  0  0  0  0  0
  128.2550  128.0310   69.8920 N   0  0  0  0  0  0  0  0  0  0  0  0
  128.1240  126.9980   70.7590 C   0  0  0  0  0  0  0  0  0  0  0  0
  127.2670  126.1180   70.6670 O   0  0  0  0  0  0  0  0  0  0  0  0
  129.0940  126.9770   71.8570 C   0  0  0  0  0  0  0  0  0  0  0  0
  129.9660  128.4450   72.3060 S   0  0  0  0  0  0  0  0  0  0  0  0
  130.8240  127.6050   73.5770 C   0  0  0  0  0  0  0  0  0  0  0  0
  131.7150  128.2240   74.3540 N   0  0  0  0  0  0  0  0  0  0  0  0
  132.3110  127.4610   75.3010 C   0  0  0  0  0  0  0  0  0  0  0  0
  133.3200  128.1850   76.1740 C   0  0  0  0  0  0  0  0  0  0  0  0
  132.0410  126.1070   75.4890 C   0  0  0  0  0  0  0  0  0  0  0  0
  131.1060  125.4620   74.6710 C   0  0  0  0  0  0  0  0  0  0  0  0
  130.8300  124.0220   74.8820 C   0  0  0  0  0  0  0  0  0  0  0  0
  130.1590  123.5980   76.0330 C   0  0  0  0  0  0  0  0  0  0  0  0
  129.8970  122.2440   76.2310 C   0  0  0  0  0  0  0  0  0  0  0  0
  130.3110  121.3150   75.2790 C   0  0  0  0  0  0  0  0  0  0  0  0
  130.9830  121.7280   74.1310 C   0  0  0  0  0  0  0  0  0  0  0  0
  131.2440  123.0810   73.9340 C   0  0  0  0  0  0  0  0  0  0  0  0
  130.4590  126.2280   73.6640 C   0  0  0  0  0  0  0  0  0  0  0  0
  129.4700  125.8980   72.6720 C   0  0  0  0  0  0  0  0  0  0  0  0
  128.9520  124.6330   72.5480 N   0  0  0  0  0  0  0  0  0  0  0  0
  128.0420  128.8850   67.5570 C   0  0  0  0  0  0  0  0  0  0  0  0
  127.2050  129.1700   66.4810 C   0  0  0  0  0  0  0  0  0  0  0  0
  1  2  1  0
  2  3  1  0
  3  4  2  0
  3  5  1  0
  5  6  2  0
  6  7  1  0
  7  8  2  0
  8  9  1  0
  9 10  1  0
 10 11  2  0
 10 12  1  0
 12 13  1  0
 13 14  1  0
 14 15  2  0
 15 16  1  0
 16 17  1  0
 16 18  2  0
 18 19  1  0
 19 20  1  0
 20 21  2  0
 21 22  1  0
 22 23  2  0
 23 24  1  0
 24 25  2  0
 19 26  2  0
 26 27  1  0
 27 28  1  0
  8 29  1  0
 29 30  2  0
 30  5  1  0
 27 12  2  0
 26 14  1  0
 25 20  1  0
M  END
>  <Binding energies>  (64) 
[-7.79]

>  <Ligand effiencies>  (64) 
[-0.23606060606060605]

>  <Interactions>  (64) 
["V-B:ARG:545:CG:9893, V-B:GLU:543:CD:9879, V-B:HIS:456:CE1:9040, H-B:ARG:545:NH2:9899, V-A:HIS:456:CE1:4069, V-B:ARG:545:CZ:9897, V-B:ARG:545:CD:9894, H-B:GLY:454:N:9020, V-B:ASP:366:CG:8183, V-B:GLU:543:C:9873, H-A:HIS:456:ND1:4066, H-B:ARG:545:NE:9895, H-A:HIS:456:NE2:4070, H-B:GLU:543:O:9874, H-A:LYS:547:NZ:4950, V-A:HIS:456:CG:4065, V-A:HIS:456:CD2:4067, V-A:TYR:484:CG:4341, V-A:ASP:473:CB:4238, V-A:TYR:484:CB:4340, V-A:ASP:473:CG:4239, V-A:LYS:547:CD:4948, V-A:LYS:547:CE:4949, V-A:HIS:456:CB:4064, H-B:HIS:456:NE2:9041"]

$$$$
8b_Ghoteimi_2023
     RDKit          3D

 34 38  0  0  0  0  0  0  0  0999 V2000
  128.0130  129.1560   76.4280 C   0  0  0  0  0  0  0  0  0  0  0  0
  128.6940  128.0820   75.7870 O   0  0  0  0  0  0  0  0  0  0  0  0
  128.8220  128.0910   74.4110 C   0  0  0  0  0  0  0  0  0  0  0  0
  127.9490  127.2710   73.7000 C   0  0  0  0  0  0  0  0  0  0  0  0
  128.0040  127.2140   72.3110 C   0  0  0  0  0  0  0  0  0  0  0  0
  128.9370  127.9780   71.5950 C   0  0  0  0  0  0  0  0  0  0  0  0
  129.0030  127.9200   70.1020 C   0  0  0  0  0  0  0  0  0  0  0  0
  127.9740  128.4230   69.2990 C   0  0  0  0  0  0  0  0  0  0  0  0
  128.0600  128.3570   67.9050 C   0  0  0  0  0  0  0  0  0  0  0  0
  126.9480  128.8890   67.0840 C   0  0  0  0  0  0  0  0  0  0  0  0
  127.1890  129.8820   66.1330 C   0  0  0  0  0  0  0  0  0  0  0  0
  126.1440  130.3740   65.3560 C   0  0  0  0  0  0  0  0  0  0  0  0
  124.8470  129.8850   65.5170 C   0  0  0  0  0  0  0  0  0  0  0  0
  123.8750  130.4300   64.7010 O   0  0  0  0  0  0  0  0  0  0  0  0
  123.8020  130.0220   63.3390 C   0  0  0  0  0  0  0  0  0  0  0  0
  124.6070  128.8890   66.4770 C   0  0  0  0  0  0  0  0  0  0  0  0
  125.6530  128.3970   67.2540 C   0  0  0  0  0  0  0  0  0  0  0  0
  129.2230  127.7740   67.3340 C   0  0  0  0  0  0  0  0  0  0  0  0
  129.6360  127.5530   65.9730 C   0  0  0  0  0  0  0  0  0  0  0  0
  128.8640  127.9240   64.9020 N   0  0  0  0  0  0  0  0  0  0  0  0
  130.8890  126.9320   65.8530 C   0  0  0  0  0  0  0  0  0  0  0  0
  131.6120  126.5660   64.6330 C   0  0  0  0  0  0  0  0  0  0  0  0
  131.4310  127.1880   63.5830 O   0  0  0  0  0  0  0  0  0  0  0  0
  132.4650  125.5180   64.7550 N   0  0  0  0  0  0  0  0  0  0  0  0
  133.2720  124.9660   63.7690 C   0  0  0  0  0  0  0  0  0  0  0  0
  132.7800  124.1550   62.7480 C   0  0  0  0  0  0  0  0  0  0  0  0
  133.8820  123.8160   61.9970 C   0  0  0  0  0  0  0  0  0  0  0  0
  134.9810  124.3960   62.5350 O   0  0  0  0  0  0  0  0  0  0  0  0
  134.5820  125.1240   63.6580 N   0  0  0  0  0  0  0  0  0  0  0  0
  131.5930  126.6060   67.4380 S   0  0  0  0  0  0  0  0  0  0  0  0
  130.2080  127.3010   68.2480 C   0  0  0  0  0  0  0  0  0  0  0  0
  130.1260  127.3610   69.5760 N   0  0  0  0  0  0  0  0  0  0  0  0
  129.8110  128.8030   72.3170 C   0  0  0  0  0  0  0  0  0  0  0  0
  129.7580  128.8610   73.7070 C   0  0  0  0  0  0  0  0  0  0  0  0
  1  2  1  0
  2  3  1  0
  3  4  2  0
  4  5  1  0
  5  6  2  0
  6  7  1  0
  7  8  2  0
  8  9  1  0
  9 10  1  0
 10 11  2  0
 11 12  1  0
 12 13  2  0
 13 14  1  0
 14 15  1  0
 13 16  1  0
 16 17  2  0
  9 18  2  0
 18 19  1  0
 19 20  1  0
 19 21  2  0
 21 22  1  0
 22 23  2  0
 22 24  1  0
 24 25  1  0
 25 26  1  0
 26 27  2  0
 27 28  1  0
 28 29  1  0
 21 30  1  0
 30 31  1  0
 31 32  2  0
  6 33  1  0
 33 34  2  0
 34  3  1  0
 32  7  1  0
 17 10  1  0
 31 18  1  0
 29 25  2  0
M  END
>  <Binding energies>  (65) 
[-7.45]

>  <Ligand effiencies>  (65) 
[-0.20135135135135135]

>  <Interactions>  (65) 
["V-B:ARG:545:CG:9893, V-B:GLU:543:CD:9879, V-B:HIS:456:CE1:9040, H-A:GLY:454:N:4049, V-A:HIS:456:CE1:4069, H-A:ARG:545:NH1:4926, V-A:GLU:543:CD:4907, V-B:ARG:545:CZ:9897, H-A:ARG:545:NH2:4927, V-B:ARG:545:CD:9894, H-B:GLY:454:N:9020, V-A:ARG:545:CZ:4925, V-A:ASP:366:CG:3212, H-A:TYR:484:OH:4347, H-A:GLU:543:OE2:4909, H-B:GLU:543:OE2:9881, V-A:ILE:369:CD1:3238, H-B:GLU:543:OE1:9880, V-B:LYS:547:CE:9921, H-A:GLU:543:OE1:4908, H-B:LYS:547:NZ:9922, V-B:HIS:456:CD2:9038"]

$$$$
9d_Ghoteimi_2023
     RDKit          3D

 38 43  0  0  0  0  0  0  0  0999 V2000
  123.0160  130.7600   60.2580 C   0  0  0  0  0  0  0  0  0  0  0  0
  123.5010  131.1500   61.5350 O   0  0  0  0  0  0  0  0  0  0  0  0
  123.1000  130.5020   62.6600 C   0  0  0  0  0  0  0  0  0  0  0  0
  121.9240  130.2370   62.9210 O   0  0  0  0  0  0  0  0  0  0  0  0
  124.2260  130.1470   63.5520 C   0  0  0  0  0  0  0  0  0  0  0  0
  123.9050  129.6380   65.2100 S   0  0  0  0  0  0  0  0  0  0  0  0
  125.6100  129.4040   65.5100 C   0  0  0  0  0  0  0  0  0  0  0  0
  126.0570  128.9540   66.6820 N   0  0  0  0  0  0  0  0  0  0  0  0
  127.4000  128.7900   66.8080 C   0  0  0  0  0  0  0  0  0  0  0  0
  127.8760  128.2590   68.1230 C   0  0  0  0  0  0  0  0  0  0  0  0
  127.0960  127.3530   68.8480 C   0  0  0  0  0  0  0  0  0  0  0  0
  127.5290  126.8550   70.0730 C   0  0  0  0  0  0  0  0  0  0  0  0
  128.7670  127.2370   70.6140 C   0  0  0  0  0  0  0  0  0  0  0  0
  129.2080  126.7590   71.8530 N   0  0  0  0  0  0  0  0  0  0  0  0
  129.5420  127.6800   72.9580 C   0  0  0  0  0  0  0  0  0  0  0  0
  130.3290  127.0180   74.1070 C   0  0  0  0  0  0  0  0  0  0  0  0
  129.6270  125.8830   74.5860 O   0  0  0  0  0  0  0  0  0  0  0  0
  129.4520  124.9120   73.5670 C   0  0  0  0  0  0  0  0  0  0  0  0
  128.6380  125.5090   72.3990 C   0  0  0  0  0  0  0  0  0  0  0  0
  129.5390  128.1580   69.8910 C   0  0  0  0  0  0  0  0  0  0  0  0
  129.1040  128.6570   68.6660 C   0  0  0  0  0  0  0  0  0  0  0  0
  128.2910  129.1060   65.7790 C   0  0  0  0  0  0  0  0  0  0  0  0
  127.8280  129.5980   64.5540 C   0  0  0  0  0  0  0  0  0  0  0  0
  128.8200  129.9450   63.5020 C   0  0  0  0  0  0  0  0  0  0  0  0
  129.5030  128.9450   62.8080 C   0  0  0  0  0  0  0  0  0  0  0  0
  130.4180  129.2750   61.8110 C   0  0  0  0  0  0  0  0  0  0  0  0
  130.6610  130.6150   61.4720 C   0  0  0  0  0  0  0  0  0  0  0  0
  131.5800  130.9730   60.4830 N   0  0  0  0  0  0  0  0  0  0  0  0
  133.0190  130.7590   60.7300 C   0  0  0  0  0  0  0  0  0  0  0  0
  133.8740  130.8220   59.4460 C   0  0  0  0  0  0  0  0  0  0  0  0
  133.6520  132.0530   58.7730 O   0  0  0  0  0  0  0  0  0  0  0  0
  132.2890  132.2110   58.4040 C   0  0  0  0  0  0  0  0  0  0  0  0
  131.3980  132.1870   59.6640 C   0  0  0  0  0  0  0  0  0  0  0  0
  129.9700  131.6120   62.1770 C   0  0  0  0  0  0  0  0  0  0  0  0
  129.0570  131.2810   63.1740 C   0  0  0  0  0  0  0  0  0  0  0  0
  126.4220  129.7380   64.3850 C   0  0  0  0  0  0  0  0  0  0  0  0
  125.5980  130.1410   63.2750 C   0  0  0  0  0  0  0  0  0  0  0  0
  126.1120  130.4680   62.0470 N   0  0  0  0  0  0  0  0  0  0  0  0
  1  2  1  0
  2  3  1  0
  3  4  2  0
  3  5  1  0
  5  6  1  0
  6  7  1  0
  7  8  2  0
  8  9  1  0
  9 10  1  0
 10 11  2  0
 11 12  1  0
 12 13  2  0
 13 14  1  0
 14 15  1  0
 15 16  1  0
 16 17  1  0
 17 18  1  0
 18 19  1  0
 13 20  1  0
 20 21  2  0
  9 22  2  0
 22 23  1  0
 23 24  1  0
 24 25  2  0
 25 26  1  0
 26 27  2  0
 27 28  1  0
 28 29  1  0
 29 30  1  0
 30 31  1  0
 31 32  1  0
 32 33  1  0
 27 34  1  0
 34 35  2  0
 23 36  2  0
 36 37  1  0
 37 38  1  0
 37  5  2  0
 36  7  1  0
 21 10  1  0
 35 24  1  0
 19 14  1  0
 33 28  1  0
M  END
>  <Binding energies>  (66) 
[-8.2]

>  <Ligand effiencies>  (66) 
[-0.205]

>  <Interactions>  (66) 
["V-A:GLU:543:CB:4905, V-B:GLU:543:CB:9877, V-A:GLU:543:CG:4906, V-B:GLU:543:CD:9879, V-B:HIS:456:CE1:9040, V-A:HIS:456:CE1:4069, V-A:GLU:543:CD:4907, V-B:ARG:545:CZ:9897, H-B:TYR:484:OH:9318, H-B:GLY:454:N:9020, V-B:ILE:369:CG2:8207, V-B:ASP:366:CG:8183, V-B:ILE:369:CG1:8208, V-A:ASP:366:CG:3212, V-B:GLU:543:C:9873, H-B:ARG:545:NH1:9898, V-A:ASN:362:C:3171, V-A:PRO:540:CB:4884, V-A:PRO:540:CA:4882, V-B:ASP:366:CB:8182, V-B:GLY:453:CA:9014, V-A:LEU:363:CA:3184, V-B:ILE:369:CB:8206, V-A:ASP:366:CB:3211, V-B:ASP:366:CA:8180, H-B:LYS:547:NZ:9922, V-A:HIS:456:CD2:4067, H-A:LEU:363:N:3185"]

$$$$
RR10_Rahimova_2017
     RDKit          3D

 34 38  0  0  0  0  0  0  0  0999 V2000
  124.7650  119.9740   72.6560 C   0  0  0  0  0  0  0  0  0  0  0  0
  126.0610  120.2240   73.4470 C   0  0  1  0  0  0  0  0  0  0  0  0
  127.2470  120.5700   72.5170 C   0  0  0  0  0  0  0  0  0  0  0  0
  128.5440  120.7830   73.3290 C   0  0  0  0  0  0  0  0  0  0  0  0
  128.3910  121.9000   74.3930 C   0  0  1  0  0  0  0  0  0  0  0  0
  128.2470  123.2140   73.7520 N   0  0  0  0  0  0  0  0  0  0  0  0
  128.9200  124.3270   74.0940 C   0  0  0  0  0  0  0  0  0  0  0  0
  129.7650  124.3520   74.9920 O   0  0  0  0  0  0  0  0  0  0  0  0
  128.5790  125.6130   73.3120 C   0  0  1  0  0  0  0  0  0  0  0  0
  129.1630  126.8400   74.0600 C   0  0  0  0  0  0  0  0  0  0  0  0
  128.9030  128.1220   73.2320 C   0  0  0  0  0  0  0  0  0  0  0  0
  129.3850  127.9890   71.7690 C   0  0  0  0  0  0  0  0  0  0  0  0
  128.8350  126.7560   71.1440 N   0  0  0  0  0  0  0  0  0  0  0  0
  129.0730  126.6530   69.3910 S   0  0  0  0  0  0  0  0  0  0  0  0
  129.0120  125.2380   69.0040 O   0  0  0  0  0  0  0  0  0  0  0  0
  130.2480  127.4630   69.0470 O   0  0  0  0  0  0  0  0  0  0  0  0
  127.6300  127.4440   68.6780 C   0  0  0  0  0  0  0  0  0  0  0  0
  126.4100  127.3860   69.3600 C   0  0  0  0  0  0  0  0  0  0  0  0
  125.2490  127.9800   68.8570 C   0  0  0  0  0  0  0  0  0  0  0  0
  125.3660  128.6420   67.6320 C   0  0  0  0  0  0  0  0  0  0  0  0
  124.4830  129.3240   66.8300 N   0  0  0  0  0  0  0  0  0  0  0  0
  125.1730  129.7690   65.7210 C   0  0  0  0  0  0  0  0  0  0  0  0
  124.5390  130.5510   64.6070 C   0  0  0  0  0  0  0  0  0  0  0  0
  123.6140  129.9420   63.7480 C   0  0  0  0  0  0  0  0  0  0  0  0
  123.0230  130.6670   62.7170 C   0  0  0  0  0  0  0  0  0  0  0  0
  123.3550  132.0070   62.5380 C   0  0  0  0  0  0  0  0  0  0  0  0
  124.2710  132.6280   63.3820 C   0  0  0  0  0  0  0  0  0  0  0  0
  124.8610  131.9010   64.4130 C   0  0  0  0  0  0  0  0  0  0  0  0
  126.4410  129.4240   65.7580 N   0  0  0  0  0  0  0  0  0  0  0  0
  126.5910  128.7230   66.9260 C   0  0  0  0  0  0  0  0  0  0  0  0
  127.7400  128.1200   67.4570 C   0  0  0  0  0  0  0  0  0  0  0  0
  129.1730  125.5150   71.8850 C   0  0  0  0  0  0  0  0  0  0  0  0
  127.1870  121.5490   75.3080 C   0  0  0  0  0  0  0  0  0  0  0  0
  125.8860  121.3430   74.5010 C   0  0  0  0  0  0  0  0  0  0  0  0
  2  1  1  6
  2  3  1  0
  3  4  1  0
  4  5  1  0
  5  6  1  6
  6  7  1  0
  7  8  2  0
  9  7  1  1
  9 10  1  0
 10 11  1  0
 11 12  1  0
 12 13  1  0
 13 14  1  0
 14 15  2  0
 14 16  2  0
 14 17  1  0
 17 18  2  0
 18 19  1  0
 19 20  2  0
 20 21  1  0
 21 22  1  0
 22 23  1  0
 23 24  2  0
 24 25  1  0
 25 26  2  0
 26 27  1  0
 27 28  2  0
 22 29  2  0
 29 30  1  0
 30 31  2  0
 13 32  1  0
  5 33  1  0
 33 34  1  0
 34  2  1  0
 32  9  1  0
 31 17  1  0
 30 20  1  0
 28 23  1  0
M  END
>  <Binding energies>  (67) 
[-9.78]

>  <Ligand effiencies>  (67) 
[-0.27166666666666667]

>  <Interactions>  (67) 
["V-B:ARG:545:CG:9893, V-B:GLU:543:CB:9877, V-B:GLU:543:CD:9879, V-B:HIS:456:CE1:9040, V-A:HIS:456:CE1:4069, V-B:LEU:475:CD1:9228, V-B:ARG:545:CZ:9897, H-B:TYR:484:OH:9318, V-B:ARG:545:CD:9894, V-B:GLU:543:C:9873, V-B:GLY:453:C:9012, V-B:GLY:453:CA:9014, V-B:ARG:545:CA:9890, V-B:ARG:545:CB:9892, V-B:GLY:454:CA:9019, H-B:ILE:455:O:9023, H-B:GLU:543:O:9874, V-B:GLY:544:CA:9885, V-B:LYS:547:CE:9921, H-B:LYS:547:NZ:9922, V-A:HIS:456:CD2:4067, V-B:HIS:456:CD2:9038, V-A:TYR:484:CG:4341, V-A:TYR:484:CB:4340, V-B:LYS:547:CG:9919, V-A:TYR:484:CA:4338, V-B:VAL:542:CG1:9870"]

$$$$
RR12_Rahimova_2017
     RDKit          3D

 26 28  0  0  0  0  0  0  0  0999 V2000
  129.4610  122.5410   65.4730 C   0  0  0  0  0  0  0  0  0  0  0  0
  130.7110  122.1570   64.6690 C   0  0  0  0  0  0  0  0  0  0  0  0
  130.4260  122.0200   63.1620 C   0  0  0  0  0  0  0  0  0  0  0  0
  131.5560  121.3980   62.4760 N   0  0  0  0  0  0  0  0  0  0  0  0
  132.8780  121.8170   62.4770 C   0  0  0  0  0  0  0  0  0  0  0  0
  133.3700  123.0670   63.1850 C   0  0  0  0  0  0  0  0  0  0  0  0
  132.6380  124.3370   62.7120 C   0  0  0  0  0  0  0  0  0  0  0  0
  133.1800  125.6180   63.3720 C   0  0  0  0  0  0  0  0  0  0  0  0
  132.6400  125.8690   64.7070 N   0  0  0  0  0  0  0  0  0  0  0  0
  133.3740  125.9830   65.8290 C   0  0  0  0  0  0  0  0  0  0  0  0
  134.6030  125.8830   65.8450 O   0  0  0  0  0  0  0  0  0  0  0  0
  132.5840  126.2570   67.1150 C   0  0  0  0  0  0  0  0  0  0  0  0
  131.2000  125.9820   66.8920 O   0  0  0  0  0  0  0  0  0  0  0  0
  130.2530  126.5700   67.7090 C   0  0  0  0  0  0  0  0  0  0  0  0
  129.5570  125.7160   68.5660 C   0  0  0  0  0  0  0  0  0  0  0  0
  128.5850  126.2170   69.4290 C   0  0  0  0  0  0  0  0  0  0  0  0
  128.3090  127.5810   69.4360 C   0  0  0  0  0  0  0  0  0  0  0  0
  128.9920  128.4470   68.5870 C   0  0  0  0  0  0  0  0  0  0  0  0
  129.9630  127.9450   67.7230 C   0  0  0  0  0  0  0  0  0  0  0  0
  133.6710  121.0350   61.7870 N   0  0  0  0  0  0  0  0  0  0  0  0
  132.8610  120.0350   61.3230 C   0  0  0  0  0  0  0  0  0  0  0  0
  133.1960  118.9210   60.5380 C   0  0  0  0  0  0  0  0  0  0  0  0
  132.1790  118.0290   60.1970 C   0  0  0  0  0  0  0  0  0  0  0  0
  130.8650  118.2310   60.6200 C   0  0  0  0  0  0  0  0  0  0  0  0
  130.5000  119.3300   61.4000 C   0  0  0  0  0  0  0  0  0  0  0  0
  131.5210  120.2260   61.7420 C   0  0  0  0  0  0  0  0  0  0  0  0
  1  2  1  0
  2  3  1  0
  3  4  1  0
  4  5  1  0
  5  6  1  0
  6  7  1  0
  7  8  1  0
  8  9  1  0
  9 10  1  0
 10 11  2  0
 10 12  1  0
 12 13  1  0
 13 14  1  0
 14 15  2  0
 15 16  1  0
 16 17  2  0
 17 18  1  0
 18 19  2  0
  5 20  2  0
 20 21  1  0
 21 22  2  0
 22 23  1  0
 23 24  2  0
 24 25  1  0
 25 26  2  0
 26  4  1  0
 19 14  1  0
 26 21  1  0
M  END
>  <Binding energies>  (68) 
[-7.18]

>  <Ligand effiencies>  (68) 
[-0.2659259259259259]

>  <Interactions>  (68) 
["V-A:GLU:543:CB:4905, V-B:GLU:543:CB:9877, V-A:GLU:543:CG:4906, V-B:GLU:543:CD:9879, V-B:HIS:456:CE1:9040, H-A:GLY:454:N:4049, V-A:HIS:456:CE1:4069, H-A:ARG:545:NH1:4926, V-A:GLU:543:CD:4907, V-A:GLY:454:CA:4048, V-A:TYR:484:CZ:4346, V-A:ARG:545:CZ:4925, V-B:ALA:541:CB:9863, V-A:ASP:366:CG:3212, V-A:ARG:545:CD:4922, V-A:ARG:545:CG:4921, V-B:TYR:539:CD2:9845, H-A:ARG:545:NE:4923, H-A:TYR:484:OH:4347, V-B:GLU:543:CG:9878, V-B:TYR:539:CB:9842, V-A:SER:385:CB:3408, V-A:SER:385:CA:3406, V-A:TYR:484:CE2:4345, V-A:LEU:475:CD2:4258, V-A:LEU:475:CD1:4257, H-A:GLU:543:OE1:4908"]

$$$$
RR13_Rahimova_2017
     RDKit          3D

 48 54  0  0  0  0  0  0  0  0999 V2000
  127.8220  132.9090   64.9760 Cl  0  0  0  0  0  0  0  0  0  0  0  0
  126.4750  132.1120   64.2350 C   0  0  0  0  0  0  0  0  0  0  0  0
  125.5610  132.8980   63.5310 C   0  0  0  0  0  0  0  0  0  0  0  0
  124.4460  132.3200   62.9310 C   0  0  0  0  0  0  0  0  0  0  0  0
  124.2360  130.9480   63.0330 C   0  0  0  0  0  0  0  0  0  0  0  0
  125.1440  130.1560   63.7330 C   0  0  0  0  0  0  0  0  0  0  0  0
  126.2810  130.7190   64.3350 C   0  0  0  0  0  0  0  0  0  0  0  0
  127.2590  129.8230   65.1270 C   0  0  1  0  0  0  0  0  0  0  0  0
  126.5710  129.2030   66.3530 C   0  0  0  0  0  0  0  0  0  0  0  0
  125.4280  128.5540   66.3670 N   0  0  0  0  0  0  0  0  0  0  0  0
  125.2020  128.2080   67.6950 N   0  0  0  0  0  0  0  0  0  0  0  0
  126.2280  128.6810   68.4890 N   0  0  0  0  0  0  0  0  0  0  0  0
  127.0470  129.3130   67.6420 N   0  0  0  0  0  0  0  0  0  0  0  0
  128.2830  129.9180   68.1230 C   0  0  0  0  0  0  0  0  0  0  0  0
  129.3800  128.8460   68.2710 C   0  0  0  0  0  0  0  0  0  0  0  0
  129.1610  127.9650   69.4910 C   0  0  0  0  0  0  0  0  0  0  0  0
  128.7160  126.6500   69.3310 C   0  0  0  0  0  0  0  0  0  0  0  0
  128.5090  125.8460   70.4500 C   0  0  0  0  0  0  0  0  0  0  0  0
  128.7480  126.3600   71.7230 C   0  0  0  0  0  0  0  0  0  0  0  0
  129.1900  127.6700   71.8880 C   0  0  0  0  0  0  0  0  0  0  0  0
  129.3980  128.4750   70.7710 C   0  0  0  0  0  0  0  0  0  0  0  0
  127.9410  128.8080   64.2880 N   0  0  0  0  0  0  0  0  0  0  0  0
  126.9890  127.7650   63.8630 C   0  0  0  0  0  0  0  0  0  0  0  0
  127.6600  126.7770   62.8800 C   0  0  0  0  0  0  0  0  0  0  0  0
  128.7960  126.0970   63.5240 N   0  0  0  0  0  0  0  0  0  0  0  0
  129.4190  125.0800   62.6450 C   0  0  1  0  0  0  0  0  0  0  0  0
  130.7080  124.4270   63.1910 C   0  0  0  0  0  0  0  0  0  0  0  0
  131.9160  124.7830   62.5760 C   0  0  0  0  0  0  0  0  0  0  0  0
  133.1310  124.2570   63.0150 C   0  0  0  0  0  0  0  0  0  0  0  0
  133.1540  123.3570   64.0760 C   0  0  0  0  0  0  0  0  0  0  0  0
  131.9640  122.9770   64.6900 C   0  0  0  0  0  0  0  0  0  0  0  0
  130.7410  123.4970   64.2560 C   0  0  0  0  0  0  0  0  0  0  0  0
  129.3120  122.9100   65.0390 Cl  0  0  0  0  0  0  0  0  0  0  0  0
  128.4380  124.0000   62.1850 C   0  0  0  0  0  0  0  0  0  0  0  0
  127.1330  124.0450   62.3290 N   0  0  0  0  0  0  0  0  0  0  0  0
  126.6450  122.8750   61.7570 N   0  0  0  0  0  0  0  0  0  0  0  0
  127.6860  122.1270   61.2470 N   0  0  0  0  0  0  0  0  0  0  0  0
  128.7820  122.8520   61.5040 N   0  0  0  0  0  0  0  0  0  0  0  0
  130.0960  122.3500   61.1170 C   0  0  0  0  0  0  0  0  0  0  0  0
  130.5500  121.2370   62.0780 C   0  0  0  0  0  0  0  0  0  0  0  0
  131.2330  120.0910   61.3480 C   0  0  0  0  0  0  0  0  0  0  0  0
  132.4770  120.2920   60.7420 C   0  0  0  0  0  0  0  0  0  0  0  0
  133.1050  119.2410   60.0800 C   0  0  0  0  0  0  0  0  0  0  0  0
  132.4870  117.9920   60.0240 C   0  0  0  0  0  0  0  0  0  0  0  0
  131.2470  117.7860   60.6270 C   0  0  0  0  0  0  0  0  0  0  0  0
  130.6190  118.8360   61.2910 C   0  0  0  0  0  0  0  0  0  0  0  0
  129.7480  127.1420   63.9430 C   0  0  0  0  0  0  0  0  0  0  0  0
  129.0740  128.1210   64.9330 C   0  0  0  0  0  0  0  0  0  0  0  0
  1  2  1  0
  2  3  2  0
  3  4  1  0
  4  5  2  0
  5  6  1  0
  6  7  2  0
  7  8  1  0
  8  9  1  0
  9 10  2  0
 10 11  1  0
 11 12  2  0
 12 13  1  0
 13 14  1  0
 14 15  1  0
 15 16  1  0
 16 17  2  0
 17 18  1  0
 18 19  2  0
 19 20  1  0
 20 21  2  0
  8 22  1  6
 22 23  1  0
 23 24  1  0
 24 25  1  0
 26 25  1  1
 26 27  1  0
 27 28  2  0
 28 29  1  0
 29 30  2  0
 30 31  1  0
 31 32  2  0
 32 33  1  0
 26 34  1  0
 34 35  2  0
 35 36  1  0
 36 37  2  0
 37 38  1  0
 38 39  1  0
 39 40  1  0
 40 41  1  0
 41 42  2  0
 42 43  1  0
 43 44  2  0
 44 45  1  0
 45 46  2  0
 25 47  1  0
 47 48  1  0
  7  2  1  0
 13  9  1  0
 21 16  1  0
 48 22  1  0
 32 27  1  0
 38 34  1  0
 46 41  1  0
M  END
>  <Binding energies>  (69) 
[-11.85]

>  <Ligand effiencies>  (69) 
[-0.24687499999999998]

>  <Interactions>  (69) 
["V-A:GLU:543:CB:4905, V-B:GLU:543:CB:9877, V-A:GLU:543:CG:4906, V-B:GLU:543:CD:9879, V-B:HIS:456:CE1:9040, V-A:ALA:541:CB:4891, V-A:HIS:456:CE1:4069, V-A:GLU:543:CD:4907, V-A:GLY:454:CA:4048, V-B:LEU:475:CD1:9228, H-B:TYR:484:OH:9318, H-B:ALA:541:N:9862, V-B:TYR:484:CZ:9317, V-B:TYR:484:CE2:9316, V-A:TYR:484:CZ:4346, V-B:ALA:541:CB:9863, V-B:TYR:539:CE2:9847, V-B:GLU:543:C:9873, V-B:TYR:539:CD2:9845, H-B:ARG:545:NE:9895, V-B:GLU:543:CG:9878, V-A:ILE:369:CG2:3236, V-A:SER:385:CA:3406, V-A:LEU:475:CD2:4258, H-B:HIS:456:ND1:9037, V-B:GLU:543:CA:9875, V-A:HIS:383:CE1:3393"]

$$$$
RR14_Rahimova_2017
     RDKit          3D

 39 43  0  0  0  0  0  0  0  0999 V2000
  133.8770  120.7180   61.1090 C   0  0  0  0  0  0  0  0  0  0  0  0
  133.1070  120.7670   62.3050 O   0  0  0  0  0  0  0  0  0  0  0  0
  132.8380  121.9940   62.8820 C   0  0  0  0  0  0  0  0  0  0  0  0
  133.4600  123.1020   62.3080 C   0  0  0  0  0  0  0  0  0  0  0  0
  133.2680  124.3750   62.8360 C   0  0  0  0  0  0  0  0  0  0  0  0
  132.4510  124.5510   63.9550 C   0  0  0  0  0  0  0  0  0  0  0  0
  132.2910  125.9330   64.5760 C   0  0  0  0  0  0  0  0  0  0  0  0
  132.8260  126.0230   65.9340 N   0  0  0  0  0  0  0  0  0  0  0  0
  134.1000  125.7020   66.1810 N   0  0  0  0  0  0  0  0  0  0  0  0
  134.2470  125.8710   67.5440 N   0  0  0  0  0  0  0  0  0  0  0  0
  133.0450  126.2900   68.1060 N   0  0  0  0  0  0  0  0  0  0  0  0
  132.1950  126.3680   67.1100 C   0  0  0  0  0  0  0  0  0  0  0  0
  130.7300  126.7650   67.2360 C   0  0  0  0  0  0  0  0  0  0  0  0
  130.3580  127.1080   68.6190 N   0  0  0  0  0  0  0  0  0  0  0  0
  130.4030  128.5570   68.8560 C   0  0  0  0  0  0  0  0  0  0  0  0
  130.6190  128.9290   70.3390 C   0  0  0  0  0  0  0  0  0  0  0  0
  129.4440  128.5300   71.2560 C   0  0  0  0  0  0  0  0  0  0  0  0
  129.7370  127.3700   72.1040 N   0  0  0  0  0  0  0  0  0  0  0  0
  128.5180  126.5820   72.3300 C   0  0  0  0  0  0  0  0  0  0  0  0
  128.7810  125.3810   73.2630 C   0  0  0  0  0  0  0  0  0  0  0  0
  129.3700  125.8270   74.4800 O   0  0  0  0  0  0  0  0  0  0  0  0
  130.6090  126.4920   74.2680 C   0  0  0  0  0  0  0  0  0  0  0  0
  130.4010  127.7280   73.3670 C   0  0  0  0  0  0  0  0  0  0  0  0
  129.0220  126.5780   68.9290 C   0  0  0  0  0  0  0  0  0  0  0  0
  127.8400  127.3650   68.3680 C   0  0  0  0  0  0  0  0  0  0  0  0
  127.9730  128.1290   67.2560 C   0  0  0  0  0  0  0  0  0  0  0  0
  126.8570  128.9310   66.7160 C   0  0  0  0  0  0  0  0  0  0  0  0
  126.9530  129.7170   65.5550 C   0  0  0  0  0  0  0  0  0  0  0  0
  128.2440  129.8000   64.7520 C   0  0  0  0  0  0  0  0  0  0  0  0
  125.8350  130.4380   65.1280 C   0  0  0  0  0  0  0  0  0  0  0  0
  124.6370  130.3820   65.8380 C   0  0  0  0  0  0  0  0  0  0  0  0
  124.5300  129.6010   66.9930 C   0  0  0  0  0  0  0  0  0  0  0  0
  123.2070  129.5580   67.7470 C   0  0  0  0  0  0  0  0  0  0  0  0
  125.6470  128.8730   67.4320 C   0  0  0  0  0  0  0  0  0  0  0  0
  125.5870  128.0740   68.5930 N   0  0  0  0  0  0  0  0  0  0  0  0
  126.5840  127.3220   69.1240 C   0  0  0  0  0  0  0  0  0  0  0  0
  126.3980  126.6810   70.1580 O   0  0  0  0  0  0  0  0  0  0  0  0
  131.8000  123.4520   64.5190 C   0  0  0  0  0  0  0  0  0  0  0  0
  131.9940  122.1790   63.9900 C   0  0  0  0  0  0  0  0  0  0  0  0
  1  2  1  0
  2  3  1  0
  3  4  2  0
  4  5  1  0
  5  6  2  0
  6  7  1  0
  7  8  1  0
  8  9  1  0
  9 10  2  0
 10 11  1  0
 11 12  2  0
 12 13  1  0
 13 14  1  0
 14 15  1  0
 15 16  1  0
 16 17  1  0
 17 18  1  0
 18 19  1  0
 19 20  1  0
 20 21  1  0
 21 22  1  0
 22 23  1  0
 14 24  1  0
 24 25  1  0
 25 26  2  0
 26 27  1  0
 27 28  2  0
 28 29  1  0
 28 30  1  0
 30 31  2  0
 31 32  1  0
 32 33  1  0
 32 34  2  0
 34 35  1  0
 35 36  1  0
 36 37  2  0
  6 38  1  0
 38 39  2  0
 39  3  1  0
 12  8  1  0
 23 18  1  0
 36 25  1  0
 34 27  1  0
M  END
>  <Binding energies>  (70) 
[-10.03]

>  <Ligand effiencies>  (70) 
[-0.25075]

>  <Interactions>  (70) 
["V-B:ARG:545:CG:9893, V-A:GLU:543:CB:4905, V-B:GLU:543:CB:9877, V-A:GLU:543:CG:4906, V-B:GLU:543:CD:9879, V-B:HIS:456:CE1:9040, H-A:GLY:454:N:4049, V-A:HIS:456:CE1:4069, V-A:GLU:543:CD:4907, V-A:GLY:454:CA:4048, V-B:ARG:545:CD:9894, V-A:GLU:543:C:4901, V-A:ARG:545:CZ:4925, V-A:ASP:366:CG:3212, V-A:ARG:545:CG:4921, H-A:HIS:456:ND1:4066, H-A:ARG:545:NE:4923, H-A:TYR:484:OH:4347, H-B:ARG:545:N:9891, V-A:ILE:369:CG2:3236, V-A:SER:385:CA:3406, V-A:LEU:475:CD2:4258, V-B:ARG:545:CB:9892, V-B:GLY:454:CA:9019, V-A:ILE:369:CD1:3238, V-A:SER:385:C:3404, H-B:ILE:455:O:9023, V-B:LYS:547:CE:9921, V-B:ILE:455:C:9022, H-B:LYS:547:NZ:9922"]

$$$$
RR15_Rahimova_2017
     RDKit          3D

 45 49  0  0  0  0  0  0  0  0999 V2000
  130.7640  124.4800   74.9600 C   0  0  0  0  0  0  0  0  0  0  0  0
  129.7640  125.4910   74.9020 O   0  0  0  0  0  0  0  0  0  0  0  0
  129.4900  126.1110   73.6950 C   0  0  0  0  0  0  0  0  0  0  0  0
  128.7350  125.5190   72.6700 C   0  0  0  0  0  0  0  0  0  0  0  0
  128.4980  126.1970   71.4770 C   0  0  0  0  0  0  0  0  0  0  0  0
  129.0100  127.4820   71.2710 C   0  0  0  0  0  0  0  0  0  0  0  0
  128.7600  128.2120   69.9800 C   0  0  0  0  0  0  0  0  0  0  0  0
  129.4800  129.2550   69.5910 N   0  0  0  0  0  0  0  0  0  0  0  0
  128.9540  129.6520   68.3790 N   0  0  0  0  0  0  0  0  0  0  0  0
  127.9850  128.7640   68.1520 N   0  0  0  0  0  0  0  0  0  0  0  0
  127.0490  128.9080   67.0380 C   0  0  0  0  0  0  0  0  0  0  0  0
  127.6090  129.6750   65.8140 C   0  0  0  0  0  0  0  0  0  0  0  0
  127.7860  130.8910   65.9200 O   0  0  0  0  0  0  0  0  0  0  0  0
  127.9200  128.9910   64.6700 N   0  0  0  0  0  0  0  0  0  0  0  0
  126.8930  128.2350   63.9250 C   0  0  0  0  0  0  0  0  0  0  0  0
  125.7490  129.1170   63.3820 C   0  0  0  0  0  0  0  0  0  0  0  0
  124.6870  129.5220   64.4320 C   0  0  0  0  0  0  0  0  0  0  0  0
  123.8830  130.6840   64.0410 N   0  0  0  0  0  0  0  0  0  0  0  0
  124.6850  131.8830   63.7540 C   0  0  0  0  0  0  0  0  0  0  0  0
  123.8000  133.0500   63.2650 C   0  0  0  0  0  0  0  0  0  0  0  0
  123.0230  132.6420   62.1450 O   0  0  0  0  0  0  0  0  0  0  0  0
  122.1680  131.5450   62.4490 C   0  0  0  0  0  0  0  0  0  0  0  0
  123.0080  130.3350   62.9130 C   0  0  0  0  0  0  0  0  0  0  0  0
  129.2400  129.1030   63.9780 C   0  0  2  0  0  0  0  0  0  0  0  0
  129.1500  129.6400   62.5160 C   0  0  0  0  0  0  0  0  0  0  0  0
  128.4090  129.1090   61.6880 O   0  0  0  0  0  0  0  0  0  0  0  0
  129.8930  130.7280   62.2490 N   0  0  0  0  0  0  0  0  0  0  0  0
  129.8910  131.4640   60.9900 C   0  0  0  0  0  0  0  0  0  0  0  0
  131.1980  132.2570   60.8060 C   0  0  2  0  0  0  0  0  0  0  0  0
  132.3700  131.4660   60.1980 C   0  0  0  0  0  0  0  0  0  0  0  0
  133.2450  131.1190   61.3780 C   0  0  0  0  0  0  0  0  0  0  0  0
  133.0440  132.3340   62.2680 C   0  0  0  0  0  0  0  0  0  0  0  0
  131.6510  132.5910   62.1250 O   0  0  0  0  0  0  0  0  0  0  0  0
  130.0790  127.8520   64.2150 C   0  0  0  0  0  0  0  0  0  0  0  0
  130.1320  127.3290   65.5130 C   0  0  0  0  0  0  0  0  0  0  0  0
  130.8830  126.1900   65.7880 C   0  0  0  0  0  0  0  0  0  0  0  0
  131.5860  125.5620   64.7650 C   0  0  0  0  0  0  0  0  0  0  0  0
  132.3150  124.4550   65.0310 F   0  0  0  0  0  0  0  0  0  0  0  0
  131.5440  126.0660   63.4670 C   0  0  0  0  0  0  0  0  0  0  0  0
  130.7940  127.2070   63.1930 C   0  0  0  0  0  0  0  0  0  0  0  0
  127.8030  127.8760   69.1360 N   0  0  0  0  0  0  0  0  0  0  0  0
  129.7620  128.0720   72.2960 C   0  0  0  0  0  0  0  0  0  0  0  0
  130.0060  127.4020   73.5070 C   0  0  0  0  0  0  0  0  0  0  0  0
  130.7390  127.9430   74.5490 O   0  0  0  0  0  0  0  0  0  0  0  0
  132.1490  127.7560   74.5880 C   0  0  0  0  0  0  0  0  0  0  0  0
  1  2  1  0
  2  3  1  0
  3  4  2  0
  4  5  1  0
  5  6  2  0
  6  7  1  0
  7  8  1  0
  8  9  2  0
  9 10  1  0
 10 11  1  0
 11 12  1  0
 12 13  2  0
 12 14  1  0
 14 15  1  0
 15 16  1  0
 16 17  1  0
 17 18  1  0
 18 19  1  0
 19 20  1  0
 20 21  1  0
 21 22  1  0
 22 23  1  0
 24 14  1  6
 24 25  1  0
 25 26  2  0
 25 27  1  0
 27 28  1  0
 29 28  1  1
 29 30  1  0
 30 31  1  0
 31 32  1  0
 32 33  1  0
 24 34  1  0
 34 35  2  0
 35 36  1  0
 36 37  2  0
 37 38  1  0
 37 39  1  0
 39 40  2  0
 10 41  1  0
  6 42  1  0
 42 43  2  0
 43 44  1  0
 44 45  1  0
 43  3  1  0
 41  7  2  0
 23 18  1  0
 33 29  1  0
 40 34  1  0
M  END
>  <Binding energies>  (71) 
[-9.26]

>  <Ligand effiencies>  (71) 
[-0.20130434782608694]

>  <Interactions>  (71) 
["V-A:GLU:543:CG:4906, V-B:GLU:543:CD:9879, V-B:HIS:456:CE1:9040, V-B:SER:385:CB:8379, V-A:HIS:456:CE1:4069, V-A:GLU:543:CD:4907, V-B:LEU:475:CD1:9228, V-B:ARG:545:CZ:9897, H-B:TYR:484:OH:9318, H-B:GLY:454:N:9020, V-B:ASP:366:CG:8183, V-B:ILE:369:CG1:8208, V-A:TYR:484:CZ:4346, V-B:GLU:543:C:9873, V-A:PRO:540:C:4880, H-A:GLU:543:OE2:4909, V-A:ASN:362:C:3171, V-A:ASN:362:CB:3175, V-A:PRO:540:CB:4884, V-A:PRO:540:CA:4882, H-A:ALA:541:N:4890, V-B:GLY:453:C:9012, V-B:GLY:453:CA:9014, V-B:GLY:454:CA:9019, V-B:SER:385:C:8375, H-A:LYS:547:NZ:4950, H-B:LYS:547:NZ:9922"]

$$$$
RR17_Rahimova_2017
     RDKit          3D

 38 41  0  0  0  0  0  0  0  0999 V2000
  123.3340  129.6110   67.6940 C   0  0  0  0  0  0  0  0  0  0  0  0
  124.1530  129.6370   66.4000 C   0  0  0  0  0  0  0  0  0  0  0  0
  124.9640  128.4660   66.3470 O   0  0  0  0  0  0  0  0  0  0  0  0
  126.2370  128.4990   66.8850 C   0  0  0  0  0  0  0  0  0  0  0  0
  126.3900  127.9540   68.1580 C   0  0  0  0  0  0  0  0  0  0  0  0
  127.6330  127.9430   68.7810 C   0  0  0  0  0  0  0  0  0  0  0  0
  128.7570  128.4830   68.1390 C   0  0  0  0  0  0  0  0  0  0  0  0
  130.0870  128.4560   68.8350 C   0  0  0  0  0  0  0  0  0  0  0  0
  130.2780  129.0180   69.9170 O   0  0  0  0  0  0  0  0  0  0  0  0
  131.2340  127.7000   68.1280 C   0  0  0  0  0  0  0  0  0  0  0  0
  130.6650  126.1330   67.3750 S   0  0  0  0  0  0  0  0  0  0  0  0
  131.9650  125.8690   66.2020 C   0  0  0  0  0  0  0  0  0  0  0  0
  133.2070  126.2700   66.3410 N   0  0  0  0  0  0  0  0  0  0  0  0
  133.9140  125.8650   65.2160 N   0  0  0  0  0  0  0  0  0  0  0  0
  133.0720  125.2290   64.4400 C   0  0  0  0  0  0  0  0  0  0  0  0
  133.4340  124.6040   63.1010 C   0  0  0  0  0  0  0  0  0  0  0  0
  132.3140  123.9440   62.4350 N   0  0  0  0  0  0  0  0  0  0  0  0
  132.3450  122.6100   61.9920 C   0  0  0  0  0  0  0  0  0  0  0  0
  131.1230  121.9960   61.7160 C   0  0  0  0  0  0  0  0  0  0  0  0
  131.0820  120.6750   61.2790 C   0  0  0  0  0  0  0  0  0  0  0  0
  132.2660  119.9520   61.1090 C   0  0  0  0  0  0  0  0  0  0  0  0
  132.2020  118.5010   60.6340 C   0  0  0  0  0  0  0  0  0  0  0  0
  132.8450  118.3180   59.4780 F   0  0  0  0  0  0  0  0  0  0  0  0
  132.7490  117.6900   61.5410 F   0  0  0  0  0  0  0  0  0  0  0  0
  130.9270  118.1520   60.4630 F   0  0  0  0  0  0  0  0  0  0  0  0
  133.4920  120.5680   61.3770 C   0  0  0  0  0  0  0  0  0  0  0  0
  133.5330  121.8890   61.8130 C   0  0  0  0  0  0  0  0  0  0  0  0
  131.8120  125.2060   65.0020 N   0  0  0  0  0  0  0  0  0  0  0  0
  130.6500  124.6140   64.4840 C   0  0  0  0  0  0  0  0  0  0  0  0
  130.2960  123.3270   64.8880 C   0  0  0  0  0  0  0  0  0  0  0  0
  129.1450  122.7380   64.3710 C   0  0  0  0  0  0  0  0  0  0  0  0
  128.3460  123.4340   63.4500 C   0  0  0  0  0  0  0  0  0  0  0  0
  127.1900  122.9300   62.8860 O   0  0  0  0  0  0  0  0  0  0  0  0
  126.0430  123.7680   62.7870 C   0  0  0  0  0  0  0  0  0  0  0  0
  128.7180  124.7210   63.0550 C   0  0  0  0  0  0  0  0  0  0  0  0
  129.8670  125.3160   63.5690 C   0  0  0  0  0  0  0  0  0  0  0  0
  128.6030  129.0300   66.8570 C   0  0  0  0  0  0  0  0  0  0  0  0
  127.3570  129.0390   66.2350 C   0  0  0  0  0  0  0  0  0  0  0  0
  1  2  1  0
  2  3  1  0
  3  4  1  0
  4  5  2  0
  5  6  1  0
  6  7  2  0
  7  8  1  0
  8  9  2  0
  8 10  1  0
 10 11  1  0
 11 12  1  0
 12 13  2  0
 13 14  1  0
 14 15  2  0
 15 16  1  0
 16 17  1  0
 17 18  1  0
 18 19  2  0
 19 20  1  0
 20 21  2  0
 21 22  1  0
 22 23  1  0
 22 24  1  0
 22 25  1  0
 21 26  1  0
 26 27  2  0
 15 28  1  0
 28 29  1  0
 29 30  2  0
 30 31  1  0
 31 32  2  0
 32 33  1  0
 33 34  1  0
 32 35  1  0
 35 36  2  0
  7 37  1  0
 37 38  2  0
 38  4  1  0
 28 12  1  0
 36 29  1  0
 27 18  1  0
M  END
>  <Binding energies>  (72) 
[-8.98]

>  <Ligand effiencies>  (72) 
[-0.23025641025641028]

>  <Interactions>  (72) 
["V-B:ARG:545:CG:9893, V-A:GLU:543:CB:4905, V-B:GLU:543:CB:9877, V-A:GLU:543:CG:4906, V-B:GLU:543:CD:9879, V-B:HIS:456:CE1:9040, H-B:ARG:545:NH2:9899, H-A:GLY:454:N:4049, V-A:HIS:456:CE1:4069, H-A:ARG:545:NH1:4926, V-A:GLU:543:CD:4907, V-B:ARG:545:CZ:9897, H-A:ARG:545:NH2:4927, V-B:ARG:545:CD:9894, H-B:ALA:541:N:9862, V-A:ARG:545:CZ:4925, V-B:ALA:541:CB:9863, V-A:ASP:366:CG:3212, V-B:TYR:539:CE2:9847, V-B:TYR:539:CD2:9845, H-A:ARG:545:NE:4923, H-A:TYR:484:OH:4347, H-B:ARG:545:NE:9895, V-A:LEU:373:CD2:3280, V-B:GLU:543:CG:9878, V-B:TYR:539:CB:9842, V-A:SER:385:CB:3408, V-A:ILE:369:CG2:3236, V-A:SER:385:CA:3406, V-A:LEU:475:CD2:4258, V-B:ARG:545:CB:9892, H-A:ASP:366:OD2:3214, V-A:ILE:369:CD1:3238, V-A:SER:385:C:3404, V-B:ILE:455:C:9022, V-A:THR:477:CG2:4272"]

$$$$
RR19_Rahimova_2017
     RDKit          3D

 46 51  0  0  0  0  0  0  0  0999 V2000
  131.0300  128.3500   68.7480 O   0  0  0  0  0  0  0  0  0  0  0  0
  130.1230  127.6560   68.2800 C   0  0  0  0  0  0  0  0  0  0  0  0
  130.2470  126.7610   67.2670 N   0  0  0  0  0  0  0  0  0  0  0  0
  131.3340  126.2040   66.6380 C   0  0  0  0  0  0  0  0  0  0  0  0
  132.9410  126.3260   67.1540 S   0  0  0  0  0  0  0  0  0  0  0  0
  130.8990  125.5340   65.5210 N   0  0  0  0  0  0  0  0  0  0  0  0
  131.5170  124.7080   64.6400 C   0  0  0  0  0  0  0  0  0  0  0  0
  132.6410  124.2150   64.7640 O   0  0  0  0  0  0  0  0  0  0  0  0
  130.6870  124.4140   63.3650 C   0  0  2  0  0  0  0  0  0  0  0  0
  129.1460  124.3830   63.5830 C   0  0  0  0  0  0  0  0  0  0  0  0
  128.3230  124.0820   62.3410 C   0  0  0  0  0  0  0  0  0  0  0  0
  126.9570  123.7420   62.4430 C   0  0  0  0  0  0  0  0  0  0  0  0
  126.2010  123.5480   61.2940 C   0  0  0  0  0  0  0  0  0  0  0  0
  126.7800  123.7050   60.0400 C   0  0  0  0  0  0  0  0  0  0  0  0
  128.1150  124.0700   59.9240 C   0  0  0  0  0  0  0  0  0  0  0  0
  128.8870  124.2710   61.0610 C   0  0  0  0  0  0  0  0  0  0  0  0
  131.1670  123.1840   62.6790 N   0  0  0  0  0  0  0  0  0  0  0  0
  130.5320  121.9880   62.8400 C   0  0  0  0  0  0  0  0  0  0  0  0
  129.5520  121.7530   63.5510 O   0  0  0  0  0  0  0  0  0  0  0  0
  131.2650  121.0300   61.9770 C   0  0  0  0  0  0  0  0  0  0  0  0
  131.0660  119.6680   61.7480 C   0  0  0  0  0  0  0  0  0  0  0  0
  131.9210  119.0050   60.8610 C   0  0  0  0  0  0  0  0  0  0  0  0
  132.9520  119.7050   60.2190 C   0  0  0  0  0  0  0  0  0  0  0  0
  133.1340  121.0720   60.4610 C   0  0  0  0  0  0  0  0  0  0  0  0
  132.2710  121.7130   61.3510 C   0  0  0  0  0  0  0  0  0  0  0  0
  132.2080  123.1270   61.7950 C   0  0  0  0  0  0  0  0  0  0  0  0
  132.9370  124.0530   61.4340 O   0  0  0  0  0  0  0  0  0  0  0  0
  128.6870  127.7840   68.8520 C   0  0  2  0  0  0  0  0  0  0  0  0
  128.2130  126.5380   69.6540 C   0  0  0  0  0  0  0  0  0  0  0  0
  128.2370  126.7290   71.1600 C   0  0  0  0  0  0  0  0  0  0  0  0
  129.2650  127.4870   71.7620 C   0  0  0  0  0  0  0  0  0  0  0  0
  129.2290  127.7450   73.1260 C   0  0  0  0  0  0  0  0  0  0  0  0
  128.1700  127.2850   73.8990 C   0  0  0  0  0  0  0  0  0  0  0  0
  127.1320  126.5720   73.3130 C   0  0  0  0  0  0  0  0  0  0  0  0
  127.1500  126.3010   71.9510 C   0  0  0  0  0  0  0  0  0  0  0  0
  127.6780  128.1920   67.8320 N   0  0  0  0  0  0  0  0  0  0  0  0
  126.3590  128.3310   68.1440 C   0  0  0  0  0  0  0  0  0  0  0  0
  125.8260  128.1360   69.2370 O   0  0  0  0  0  0  0  0  0  0  0  0
  125.7020  128.7660   66.8860 C   0  0  0  0  0  0  0  0  0  0  0  0
  124.3650  129.0550   66.6060 C   0  0  0  0  0  0  0  0  0  0  0  0
  124.0240  129.4530   65.3080 C   0  0  0  0  0  0  0  0  0  0  0  0
  125.0110  129.5600   64.3200 C   0  0  0  0  0  0  0  0  0  0  0  0
  126.3470  129.2680   64.6220 C   0  0  0  0  0  0  0  0  0  0  0  0
  126.6660  128.8700   65.9210 C   0  0  0  0  0  0  0  0  0  0  0  0
  127.9660  128.5050   66.5340 C   0  0  0  0  0  0  0  0  0  0  0  0
  129.0690  128.4870   65.9870 O   0  0  0  0  0  0  0  0  0  0  0  0
  1  2  2  0
  2  3  1  0
  3  4  1  0
  4  5  2  0
  4  6  1  0
  6  7  1  0
  7  8  2  0
  7  9  1  0
  9 10  1  1
 10 11  1  0
 11 12  2  0
 12 13  1  0
 13 14  2  0
 14 15  1  0
 15 16  2  0
  9 17  1  0
 17 18  1  0
 18 19  2  0
 18 20  1  0
 20 21  2  0
 21 22  1  0
 22 23  2  0
 23 24  1  0
 24 25  2  0
 25 26  1  0
 26 27  2  0
  2 28  1  0
 28 29  1  6
 29 30  1  0
 30 31  2  0
 31 32  1  0
 32 33  2  0
 33 34  1  0
 34 35  2  0
 28 36  1  0
 36 37  1  0
 37 38  2  0
 37 39  1  0
 39 40  2  0
 40 41  1  0
 41 42  2  0
 42 43  1  0
 43 44  2  0
 44 45  1  0
 45 46  2  0
 16 11  1  0
 26 17  1  0
 35 30  1  0
 45 36  1  0
 25 20  1  0
 44 39  1  0
M  END
>  <Binding energies>  (73) 
[-11.94]

>  <Ligand effiencies>  (73) 
[-0.24875]

>  <Interactions>  (73) 
["V-B:ARG:545:CG:9893, V-A:GLU:543:CB:4905, V-B:GLU:543:CB:9877, V-B:GLU:543:CD:9879, V-B:HIS:456:CE1:9040, H-A:GLY:454:N:4049, V-A:HIS:456:CE1:4069, V-B:ARG:545:CZ:9897, V-B:ARG:545:CD:9894, V-B:PRO:540:CA:9854, V-B:PRO:540:CB:9856, V-B:ALA:541:CB:9863, V-A:ARG:545:CD:4922, V-A:ARG:545:CG:4921, V-B:TYR:539:CE2:9847, V-B:GLU:543:C:9873, V-B:GLY:544:C:9883, V-B:TYR:539:CD2:9845, H-A:TYR:484:OH:4347, V-A:ILE:369:CG2:3236, V-A:SER:385:CA:3406, V-A:LEU:475:CD2:4258, H-B:GLU:543:OE2:9881, H-B:HIS:456:ND1:9037, V-B:GLY:544:CA:9885, V-B:LYS:547:CE:9921"]

$$$$
RR1_Rahimova_2017
     RDKit          3D

 41 44  0  0  0  0  0  0  0  0999 V2000
  133.8470  121.8380   62.8430 C   0  0  0  0  0  0  0  0  0  0  0  0
  132.5430  122.4080   62.8250 O   0  0  0  0  0  0  0  0  0  0  0  0
  132.2640  123.4800   63.6500 C   0  0  0  0  0  0  0  0  0  0  0  0
  133.1520  124.5390   63.8990 C   0  0  0  0  0  0  0  0  0  0  0  0
  132.7860  125.5750   64.7530 C   0  0  0  0  0  0  0  0  0  0  0  0
  131.5320  125.5780   65.3640 C   0  0  0  0  0  0  0  0  0  0  0  0
  131.2730  126.6450   66.2450 N   0  0  0  0  0  0  0  0  0  0  0  0
  130.6300  126.6370   67.4330 C   0  0  0  0  0  0  0  0  0  0  0  0
  130.0790  125.6530   67.9260 O   0  0  0  0  0  0  0  0  0  0  0  0
  130.6190  127.9900   68.1630 C   0  0  0  0  0  0  0  0  0  0  0  0
  128.9640  128.6450   68.5720 S   0  0  0  0  0  0  0  0  0  0  0  0
  128.5480  127.4820   69.8280 C   0  0  0  0  0  0  0  0  0  0  0  0
  129.3740  127.0760   70.7580 N   0  0  0  0  0  0  0  0  0  0  0  0
  128.6490  126.2280   71.4800 C   0  0  0  0  0  0  0  0  0  0  0  0
  129.2020  125.5210   72.6850 C   0  0  0  0  0  0  0  0  0  0  0  0
  129.6280  124.1840   72.6200 C   0  0  0  0  0  0  0  0  0  0  0  0
  130.1350  123.5520   73.7570 C   0  0  0  0  0  0  0  0  0  0  0  0
  130.2050  124.2780   74.9450 C   0  0  0  0  0  0  0  0  0  0  0  0
  129.8020  125.5700   75.0430 N   0  0  0  0  0  0  0  0  0  0  0  0
  129.3130  126.1670   73.9260 C   0  0  0  0  0  0  0  0  0  0  0  0
  127.4070  126.0540   71.0690 N   0  0  0  0  0  0  0  0  0  0  0  0
  127.3390  126.8590   70.0050 N   0  0  0  0  0  0  0  0  0  0  0  0
  126.0940  126.9860   69.2470 C   0  0  0  0  0  0  0  0  0  0  0  0
  125.9920  128.2480   68.3720 C   0  0  0  0  0  0  0  0  0  0  0  0
  125.3860  129.2480   68.7730 O   0  0  0  0  0  0  0  0  0  0  0  0
  126.6010  128.1590   67.1740 N   0  0  0  0  0  0  0  0  0  0  0  0
  126.6770  129.3050   66.3930 N   0  0  0  0  0  0  0  0  0  0  0  0
  127.7280  129.4260   65.5530 C   0  0  0  0  0  0  0  0  0  0  0  0
  128.5660  128.5380   65.3600 O   0  0  0  0  0  0  0  0  0  0  0  0
  127.8220  130.7400   64.8050 C   0  0  0  0  0  0  0  0  0  0  0  0
  126.7690  131.6590   64.8740 C   0  0  0  0  0  0  0  0  0  0  0  0
  126.8290  132.8670   64.1860 C   0  0  0  0  0  0  0  0  0  0  0  0
  127.9450  133.1900   63.3980 C   0  0  0  0  0  0  0  0  0  0  0  0
  128.0620  134.3660   62.6790 O   0  0  0  0  0  0  0  0  0  0  0  0
  127.4780  134.4560   61.3840 C   0  0  0  0  0  0  0  0  0  0  0  0
  129.0070  132.2790   63.3100 C   0  0  0  0  0  0  0  0  0  0  0  0
  130.0750  132.6360   62.5040 O   0  0  0  0  0  0  0  0  0  0  0  0
  130.7240  131.6450   61.7160 C   0  0  0  0  0  0  0  0  0  0  0  0
  128.9370  131.0650   64.0160 C   0  0  0  0  0  0  0  0  0  0  0  0
  130.6410  124.5220   65.1170 C   0  0  0  0  0  0  0  0  0  0  0  0
  131.0100  123.4880   64.2620 C   0  0  0  0  0  0  0  0  0  0  0  0
  1  2  1  0
  2  3  1  0
  3  4  2  0
  4  5  1  0
  5  6  2  0
  6  7  1  0
  7  8  1  0
  8  9  2  0
  8 10  1  0
 10 11  1  0
 11 12  1  0
 12 13  2  0
 13 14  1  0
 14 15  1  0
 15 16  2  0
 16 17  1  0
 17 18  2  0
 18 19  1  0
 19 20  2  0
 14 21  2  0
 21 22  1  0
 22 23  1  0
 23 24  1  0
 24 25  2  0
 24 26  1  0
 26 27  1  0
 27 28  1  0
 28 29  2  0
 28 30  1  0
 30 31  2  0
 31 32  1  0
 32 33  2  0
 33 34  1  0
 34 35  1  0
 33 36  1  0
 36 37  1  0
 37 38  1  0
 36 39  2  0
  6 40  1  0
 40 41  2  0
 41  3  1  0
 22 12  1  0
 39 30  1  0
 20 15  1  0
M  END
>  <Binding energies>  (74) 
[-8.32]

>  <Ligand effiencies>  (74) 
[-0.1890909090909091]

>  <Interactions>  (74) 
["V-B:ARG:545:CG:9893, V-A:GLU:543:CB:4905, V-B:GLU:543:CB:9877, V-A:GLU:543:CG:4906, V-B:GLU:543:CD:9879, V-B:HIS:456:CE1:9040, V-A:ALA:541:CB:4891, V-A:HIS:456:CE1:4069, V-A:TYR:539:CD1:4872, V-A:GLU:543:CD:4907, V-A:GLY:454:CA:4048, V-B:LEU:475:CD1:9228, H-B:TYR:484:OH:9318, V-A:ARG:545:CZ:4925, H-A:TYR:484:OH:4347, H-A:GLU:543:OE2:4909, H-A:ALA:541:N:4890, V-B:GLU:543:CG:9878, V-A:LEU:475:CD2:4258, V-B:ARG:545:CA:9890, H-B:GLU:543:OE2:9881, V-A:ILE:369:CD1:3238, V-A:SER:385:C:3404, H-B:GLU:543:OE1:9880, H-B:HIS:456:ND1:9037, V-B:LYS:547:CE:9921, H-A:GLU:543:OE1:4908, H-B:LYS:547:NZ:9922, V-A:HIS:456:CD2:4067, V-A:TYR:484:CD2:4343"]

$$$$
RR22_Rahimova_2017
     RDKit          3D

 31 36  0  0  0  0  0  0  0  0999 V2000
  126.8940  128.4500   76.2160 O   0  0  0  0  0  0  0  0  0  0  0  0
  127.8130  128.1430   75.4600 C   0  0  0  0  0  0  0  0  0  0  0  0
  129.1280  127.8730   75.7970 N   0  0  0  0  0  0  0  0  0  0  0  0
  130.0670  127.4670   74.7960 C   0  0  1  0  0  0  0  0  0  0  0  0
  131.1440  128.4050   74.8900 O   0  0  0  0  0  0  0  0  0  0  0  0
  132.4200  127.9210   75.1800 C   0  0  0  0  0  0  0  0  0  0  0  0
  133.3540  128.8580   75.6250 C   0  0  0  0  0  0  0  0  0  0  0  0
  134.6620  128.4570   75.8960 C   0  0  0  0  0  0  0  0  0  0  0  0
  135.0370  127.1250   75.7150 C   0  0  0  0  0  0  0  0  0  0  0  0
  134.1030  126.1880   75.2700 C   0  0  0  0  0  0  0  0  0  0  0  0
  132.7810  126.5700   75.0170 C   0  0  0  0  0  0  0  0  0  0  0  0
  131.7080  125.6440   74.4920 C   0  0  1  0  0  0  0  0  0  0  0  0
  131.6680  124.1680   74.8320 C   0  0  0  0  0  0  0  0  0  0  0  0
  130.1580  123.9260   74.7690 C   0  0  0  0  0  0  0  0  0  0  0  0
  129.5700  122.5770   74.6400 C   0  0  0  0  0  0  0  0  0  0  0  0
  128.2690  122.4110   74.1440 C   0  0  0  0  0  0  0  0  0  0  0  0
  127.7200  121.1370   74.0220 C   0  0  0  0  0  0  0  0  0  0  0  0
  128.4670  120.0230   74.3960 C   0  0  0  0  0  0  0  0  0  0  0  0
  129.7610  120.1720   74.8900 C   0  0  0  0  0  0  0  0  0  0  0  0
  130.3120  121.4450   75.0110 C   0  0  0  0  0  0  0  0  0  0  0  0
  129.5090  125.0250   74.8690 N   0  0  0  0  0  0  0  0  0  0  0  0
  130.4440  126.0630   75.0170 N   0  0  0  0  0  0  0  0  0  0  0  0
  129.3950  127.6940   73.4500 C   0  0  0  0  0  0  0  0  0  0  0  0
  130.0790  127.7500   72.2840 C   0  0  0  0  0  0  0  0  0  0  0  0
  129.5550  127.9420   70.9180 C   0  0  0  0  0  0  0  0  0  0  0  0
  128.8850  126.9380   70.2050 C   0  0  0  0  0  0  0  0  0  0  0  0
  128.4170  127.1920   68.9150 C   0  0  0  0  0  0  0  0  0  0  0  0
  128.6380  128.4540   68.3640 C   0  0  0  0  0  0  0  0  0  0  0  0
  129.2900  129.4420   69.0260 N   0  0  0  0  0  0  0  0  0  0  0  0
  129.7370  129.1750   70.2810 C   0  0  0  0  0  0  0  0  0  0  0  0
  127.6580  127.9650   73.6570 S   0  0  0  0  0  0  0  0  0  0  0  0
  1  2  2  0
  2  3  1  0
  4  3  1  1
  4  5  1  0
  5  6  1  0
  6  7  2  0
  7  8  1  0
  8  9  2  0
  9 10  1  0
 10 11  2  0
 11 12  1  0
 12 13  1  1
 13 14  1  0
 14 15  1  0
 15 16  2  0
 16 17  1  0
 17 18  2  0
 18 19  1  0
 19 20  2  0
 14 21  2  0
 21 22  1  0
  4 23  1  0
 23 24  2  0
 24 25  1  0
 25 26  2  0
 26 27  1  0
 27 28  2  0
 28 29  1  0
 29 30  2  0
 23 31  1  0
 31  2  1  0
 22  4  1  0
 30 25  1  0
 11  6  1  0
 22 12  1  0
 20 15  1  0
M  END
>  <Binding energies>  (75) 
[-8.52]

>  <Ligand effiencies>  (75) 
[-0.26625]

>  <Interactions>  (75) 
["V-A:GLU:543:CB:4905, V-B:GLU:543:CB:9877, V-B:GLU:543:CD:9879, V-B:HIS:456:CE1:9040, V-A:HIS:456:CE1:4069, V-A:GLU:543:C:4901, V-B:LYS:547:CE:9921, H-A:LYS:547:NZ:4950, H-B:LYS:547:NZ:9922, V-A:HIS:456:CG:4065, V-A:HIS:456:CD2:4067, V-B:HIS:456:CD2:9038, V-A:TYR:484:C:4336, V-A:TYR:484:CB:4340, V-A:LYS:547:CD:4948, V-A:LYS:547:CE:4949, V-A:VAL:457:C:4072, V-A:VAL:458:CG2:4086, V-A:LYS:547:CG:4947, V-A:LYS:547:CB:4946, V-A:HIS:456:C:4060, V-A:VAL:457:CA:4074, V-A:HIS:456:CB:4064, V-A:HIS:456:CA:4062"]

$$$$
RR24_Rahimova_2017
     RDKit          3D

 43 49  0  0  0  0  0  0  0  0999 V2000
  129.4530  127.7600   67.2310 C   0  0  0  0  0  0  0  0  0  0  0  0
  128.1640  127.7870   68.0650 C   0  0  2  0  0  0  0  0  0  0  0  0
  127.2140  128.9630   67.6890 C   0  0  0  0  0  0  0  0  0  0  0  0
  126.0030  128.7970   67.5100 O   0  0  0  0  0  0  0  0  0  0  0  0
  127.8770  130.1500   67.5620 O   0  0  0  0  0  0  0  0  0  0  0  0
  127.9610  130.7520   66.3270 C   0  0  0  0  0  0  0  0  0  0  0  0
  128.0480  132.1440   66.2490 C   0  0  0  0  0  0  0  0  0  0  0  0
  128.1430  132.7640   65.0070 C   0  0  0  0  0  0  0  0  0  0  0  0
  128.1610  131.9960   63.8390 C   0  0  0  0  0  0  0  0  0  0  0  0
  128.2460  132.6860   62.4720 C   0  0  1  0  0  0  0  0  0  0  0  0
  129.5120  132.2640   61.6900 C   0  0  0  0  0  0  0  0  0  0  0  0
  129.4700  131.8240   60.4190 C   0  0  0  0  0  0  0  0  0  0  0  0
  128.2920  131.7150   59.7200 N   0  0  0  0  0  0  0  0  0  0  0  0
  127.0880  132.0530   60.2920 C   0  0  0  0  0  0  0  0  0  0  0  0
  126.0220  131.8970   59.4670 N   0  0  0  0  0  0  0  0  0  0  0  0
  124.7430  132.1070   59.8830 C   0  0  0  0  0  0  0  0  0  0  0  0
  123.8110  131.6550   59.2150 O   0  0  0  0  0  0  0  0  0  0  0  0
  124.6440  132.6860   61.1380 N   0  0  0  0  0  0  0  0  0  0  0  0
  123.2810  133.0190   61.6000 C   0  0  0  0  0  0  0  0  0  0  0  0
  125.6600  132.8870   62.0580 C   0  0  0  0  0  0  0  0  0  0  0  0
  125.4900  133.3630   63.1840 O   0  0  0  0  0  0  0  0  0  0  0  0
  126.9890  132.5050   61.5700 C   0  0  0  0  0  0  0  0  0  0  0  0
  130.8020  131.4990   59.9390 C   0  0  0  0  0  0  0  0  0  0  0  0
  131.2830  131.0110   58.7230 C   0  0  0  0  0  0  0  0  0  0  0  0
  132.6550  130.7970   58.5690 C   0  0  0  0  0  0  0  0  0  0  0  0
  133.5330  131.0700   59.6230 C   0  0  0  0  0  0  0  0  0  0  0  0
  133.0460  131.5590   60.8380 C   0  0  0  0  0  0  0  0  0  0  0  0
  131.6730  131.7690   60.9860 C   0  0  0  0  0  0  0  0  0  0  0  0
  130.8990  132.2720   62.1410 C   0  0  0  0  0  0  0  0  0  0  0  0
  131.2870  132.6290   63.2520 O   0  0  0  0  0  0  0  0  0  0  0  0
  128.0930  130.6020   63.9210 C   0  0  0  0  0  0  0  0  0  0  0  0
  127.9990  129.9810   65.1630 C   0  0  0  0  0  0  0  0  0  0  0  0
  128.4420  127.7270   69.5300 N   0  0  0  0  0  0  0  0  0  0  0  0
  129.4530  128.4450   70.0940 C   0  0  0  0  0  0  0  0  0  0  0  0
  130.2460  129.1960   69.5230 O   0  0  0  0  0  0  0  0  0  0  0  0
  129.3990  128.1320   71.5440 C   0  0  0  0  0  0  0  0  0  0  0  0
  130.1910  128.5760   72.6040 C   0  0  0  0  0  0  0  0  0  0  0  0
  129.9060  128.1090   73.8930 C   0  0  0  0  0  0  0  0  0  0  0  0
  128.8460  127.2180   74.1030 C   0  0  0  0  0  0  0  0  0  0  0  0
  128.0640  126.7850   73.0270 C   0  0  0  0  0  0  0  0  0  0  0  0
  128.3640  127.2600   71.7490 C   0  0  0  0  0  0  0  0  0  0  0  0
  127.7270  126.9910   70.4360 C   0  0  0  0  0  0  0  0  0  0  0  0
  126.7590  126.2650   70.2120 O   0  0  0  0  0  0  0  0  0  0  0  0
  2  1  1  6
  2  3  1  0
  3  4  2  0
  3  5  1  0
  5  6  1  0
  6  7  2  0
  7  8  1  0
  8  9  2  0
 10  9  1  1
 10 11  1  0
 11 12  2  0
 12 13  1  0
 13 14  1  0
 14 15  1  0
 15 16  1  0
 16 17  2  0
 16 18  1  0
 18 19  1  0
 18 20  1  0
 20 21  2  0
 20 22  1  0
 12 23  1  0
 23 24  2  0
 24 25  1  0
 25 26  2  0
 26 27  1  0
 27 28  2  0
 28 29  1  0
 29 30  2  0
  9 31  1  0
 31 32  2  0
  2 33  1  0
 33 34  1  0
 34 35  2  0
 34 36  1  0
 36 37  2  0
 37 38  1  0
 38 39  2  0
 39 40  1  0
 40 41  2  0
 41 42  1  0
 42 43  2  0
 32  6  1  0
 42 33  1  0
 22 10  1  0
 28 23  1  0
 41 36  1  0
 29 11  1  0
 22 14  2  0
M  END
>  <Binding energies>  (76) 
[-9.82]

>  <Ligand effiencies>  (76) 
[-0.21822222222222223]

>  <Interactions>  (76) 
["V-A:GLU:543:CB:4905, V-B:GLU:543:CB:9877, V-A:GLU:543:CG:4906, V-B:GLU:543:CD:9879, V-B:HIS:456:CE1:9040, V-B:SER:385:CB:8379, V-A:ALA:541:CB:4891, V-A:HIS:456:CE1:4069, V-A:GLU:543:CD:4907, H-B:TYR:484:OH:9318, V-B:ILE:369:CG2:8207, V-B:ILE:369:CG1:8208, V-B:TYR:484:CZ:9317, V-B:TYR:484:CE2:9316, V-A:TYR:539:CE1:4874, V-A:ASN:362:C:3171, V-A:ASN:362:CB:3175, V-A:PRO:540:CB:4884, H-B:ARG:545:N:9891, V-A:PRO:540:CA:4882, H-A:ALA:541:N:4890, V-A:LEU:363:CA:3184, V-B:SER:385:C:8375, V-B:ILE:369:CB:8206, V-B:SER:385:CA:8377, V-A:ASP:366:CB:3211"]

$$$$
RR25_Rahimova_2017
     RDKit          3D

 39 44  0  0  0  0  0  0  0  0999 V2000
  123.8550  128.9440   67.7620 O   0  0  0  0  0  0  0  0  0  0  0  0
  125.0390  128.8630   67.4330 C   0  0  0  0  0  0  0  0  0  0  0  0
  125.9240  128.5300   68.4290 O   0  0  0  0  0  0  0  0  0  0  0  0
  127.2270  128.1660   68.1440 C   0  0  0  0  0  0  0  0  0  0  0  0
  127.8660  127.3420   69.0700 C   0  0  0  0  0  0  0  0  0  0  0  0
  129.1820  126.9440   68.8500 C   0  0  0  0  0  0  0  0  0  0  0  0
  129.8800  127.3650   67.7080 C   0  0  0  0  0  0  0  0  0  0  0  0
  131.2790  126.9330   67.4730 N   0  0  0  0  0  0  0  0  0  0  0  0
  131.4830  125.9900   66.7130 O   0  0  0  0  0  0  0  0  0  0  0  0
  132.1840  127.5330   68.0460 O   0  0  0  0  0  0  0  0  0  0  0  0
  129.2230  128.2050   66.7940 C   0  0  0  0  0  0  0  0  0  0  0  0
  127.9050  128.6200   67.0040 C   0  0  0  0  0  0  0  0  0  0  0  0
  127.1490  129.5170   66.0410 C   0  0  0  0  0  0  0  0  0  0  0  0
  125.6460  129.1170   66.0230 C   0  0  2  0  0  0  0  0  0  0  0  0
  124.8200  130.0790   65.1200 C   0  0  0  0  0  0  0  0  0  0  0  0
  124.1100  130.8990   65.7090 O   0  0  0  0  0  0  0  0  0  0  0  0
  124.9650  130.1060   63.7610 N   0  0  0  0  0  0  0  0  0  0  0  0
  125.5390  128.9800   62.9950 C   0  0  0  0  0  0  0  0  0  0  0  0
  126.3800  129.5430   61.8300 C   0  0  0  0  0  0  0  0  0  0  0  0
  125.5950  130.4570   60.9960 N   0  0  0  0  0  0  0  0  0  0  0  0
  126.3520  130.8890   59.8130 C   0  0  0  0  0  0  0  0  0  0  0  0
  127.0610  132.2550   60.0170 C   0  0  0  0  0  0  0  0  0  0  0  0
  128.5500  132.2410   59.9270 N   0  0  0  0  0  0  0  0  0  0  0  0
  129.2140  132.3130   61.1330 C   0  0  0  0  0  0  0  0  0  0  0  0
  128.6340  132.4190   62.2190 O   0  0  0  0  0  0  0  0  0  0  0  0
  130.7250  132.2310   61.0280 C   0  0  0  0  0  0  0  0  0  0  0  0
  131.4990  132.2680   62.1950 C   0  0  0  0  0  0  0  0  0  0  0  0
  132.8890  132.1870   62.1360 C   0  0  0  0  0  0  0  0  0  0  0  0
  133.5480  132.0630   60.9140 C   0  0  0  0  0  0  0  0  0  0  0  0
  132.8080  132.0210   59.7080 C   0  0  0  0  0  0  0  0  0  0  0  0
  133.4120  131.8950   58.4350 C   0  0  0  0  0  0  0  0  0  0  0  0
  132.6240  131.8570   57.2860 C   0  0  0  0  0  0  0  0  0  0  0  0
  131.2350  131.9430   57.3680 C   0  0  0  0  0  0  0  0  0  0  0  0
  130.5930  132.0680   58.6070 C   0  0  0  0  0  0  0  0  0  0  0  0
  131.3890  132.1070   59.7810 C   0  0  0  0  0  0  0  0  0  0  0  0
  129.0790  132.1500   58.6550 C   0  0  0  0  0  0  0  0  0  0  0  0
  128.3890  132.1190   57.6320 O   0  0  0  0  0  0  0  0  0  0  0  0
  125.1450  131.5970   61.7960 C   0  0  0  0  0  0  0  0  0  0  0  0
  124.2580  131.1480   62.9820 C   0  0  0  0  0  0  0  0  0  0  0  0
  1  2  2  0
  2  3  1  0
  3  4  1  0
  4  5  2  0
  5  6  1  0
  6  7  2  0
  7  8  1  0
  8  9  2  0
  8 10  1  0
  7 11  1  0
 11 12  2  0
 12 13  1  0
 13 14  1  0
 14 15  1  1
 15 16  2  0
 15 17  1  0
 17 18  1  0
 18 19  1  0
 19 20  1  0
 20 21  1  0
 21 22  1  0
 22 23  1  0
 23 24  1  0
 24 25  2  0
 24 26  1  0
 26 27  2  0
 27 28  1  0
 28 29  2  0
 29 30  1  0
 30 31  2  0
 31 32  1  0
 32 33  2  0
 33 34  1  0
 34 35  2  0
 34 36  1  0
 36 37  2  0
 20 38  1  0
 38 39  1  0
 14  2  1  0
 39 17  1  0
 12  4  1  0
 36 23  1  0
 35 26  1  0
 35 30  1  0
M  CHG  2   8   1  10  -1
M  END
>  <Binding energies>  (77) 
[-9.94]

>  <Ligand effiencies>  (77) 
[-0.25487179487179484]

>  <Interactions>  (77) 
["V-B:ARG:545:CG:9893, V-B:GLU:543:CB:9877, V-A:GLU:543:CG:4906, V-B:GLU:543:CD:9879, V-B:HIS:456:CE1:9040, V-A:HIS:456:CE1:4069, V-A:TYR:539:CD1:4872, V-A:GLU:543:CD:4907, H-B:TYR:484:OH:9318, V-B:ARG:545:CD:9894, H-B:GLY:454:N:9020, H-A:TYR:484:OH:4347, V-A:PRO:540:C:4880, V-A:TYR:539:CE1:4874, V-A:ASN:362:C:3171, V-A:ASN:362:CB:3175, H-B:ARG:545:NE:9895, V-A:PRO:540:CB:4884, V-A:PRO:540:CA:4882, V-A:LEU:363:CA:3184, V-A:TYR:531:CE2:4792, V-A:LEU:363:CD1:3188, H-B:HIS:456:ND1:9037, V-A:TYR:531:CZ:4793, V-A:LEU:363:CB:3186"]

$$$$
RR27_Rahimova_2017
     RDKit          3D

 39 44  0  0  0  0  0  0  0  0999 V2000
  129.1850  129.1530   61.4460 O   0  0  0  0  0  0  0  0  0  0  0  0
  128.4020  130.1060   61.4720 C   0  0  0  0  0  0  0  0  0  0  0  0
  128.9930  131.5460   61.5080 C   0  0  0  0  0  0  0  0  0  0  0  0
  130.5070  131.5850   61.2290 C   0  0  0  0  0  0  0  0  0  0  0  0
  131.4020  132.2460   62.0850 C   0  0  0  0  0  0  0  0  0  0  0  0
  132.7650  132.2600   61.8040 C   0  0  0  0  0  0  0  0  0  0  0  0
  133.2400  131.6140   60.6660 C   0  0  0  0  0  0  0  0  0  0  0  0
  132.3650  130.9570   59.8060 C   0  0  0  0  0  0  0  0  0  0  0  0
  131.0020  130.9430   60.0870 C   0  0  0  0  0  0  0  0  0  0  0  0
  128.5450  132.3160   62.7650 C   0  0  0  0  0  0  0  0  0  0  0  0
  128.7200  131.7920   64.0530 C   0  0  0  0  0  0  0  0  0  0  0  0
  128.2930  132.5100   65.1670 C   0  0  0  0  0  0  0  0  0  0  0  0
  127.6850  133.7510   64.9980 C   0  0  0  0  0  0  0  0  0  0  0  0
  127.4950  134.2790   63.7240 C   0  0  0  0  0  0  0  0  0  0  0  0
  127.9210  133.5610   62.6110 C   0  0  0  0  0  0  0  0  0  0  0  0
  127.0590  129.9330   61.3190 N   0  0  0  0  0  0  0  0  0  0  0  0
  126.0690  130.9850   61.5920 C   0  0  0  0  0  0  0  0  0  0  0  0
  125.7180  130.8910   63.0940 C   0  0  0  0  0  0  0  0  0  0  0  0
  125.2330  129.4660   63.5110 C   0  0  0  0  0  0  0  0  0  0  0  0
  124.9780  129.2880   65.0200 C   0  0  0  0  0  0  0  0  0  0  0  0
  123.7330  129.6230   65.4680 N   0  0  0  0  0  0  0  0  0  0  0  0
  123.4460  129.4580   66.7900 C   0  0  0  0  0  0  0  0  0  0  0  0
  122.2350  129.7540   67.3570 O   0  0  0  0  0  0  0  0  0  0  0  0
  124.4480  128.9510   67.6400 C   0  0  0  0  0  0  0  0  0  0  0  0
  124.4950  128.6650   68.9730 N   0  0  0  0  0  0  0  0  0  0  0  0
  125.7640  128.1920   69.2470 N   0  0  0  0  0  0  0  0  0  0  0  0
  126.4810  128.1790   68.1040 N   0  0  0  0  0  0  0  0  0  0  0  0
  127.8760  127.7450   68.1080 C   0  0  0  0  0  0  0  0  0  0  0  0
  128.5500  127.8640   69.4680 C   0  0  0  0  0  0  0  0  0  0  0  0
  129.4540  128.9020   69.7170 C   0  0  0  0  0  0  0  0  0  0  0  0
  130.0640  129.0180   70.9680 C   0  0  0  0  0  0  0  0  0  0  0  0
  129.7690  128.1000   71.9760 C   0  0  0  0  0  0  0  0  0  0  0  0
  128.8600  127.0680   71.7370 C   0  0  0  0  0  0  0  0  0  0  0  0
  128.4730  125.9470   72.9920 Cl  0  0  0  0  0  0  0  0  0  0  0  0
  128.2570  126.9480   70.4850 C   0  0  0  0  0  0  0  0  0  0  0  0
  125.7010  128.6520   67.0620 C   0  0  0  0  0  0  0  0  0  0  0  0
  126.0100  128.8110   65.7720 N   0  0  0  0  0  0  0  0  0  0  0  0
  126.1270  128.3440   62.8980 C   0  0  0  0  0  0  0  0  0  0  0  0
  126.4720  128.5860   61.4070 C   0  0  0  0  0  0  0  0  0  0  0  0
  1  2  2  0
  2  3  1  0
  3  4  1  0
  4  5  2  0
  5  6  1  0
  6  7  2  0
  7  8  1  0
  8  9  2  0
  3 10  1  0
 10 11  2  0
 11 12  1  0
 12 13  2  0
 13 14  1  0
 14 15  2  0
  2 16  1  0
 16 17  1  0
 17 18  1  0
 18 19  1  0
 19 20  1  0
 20 21  2  0
 21 22  1  0
 22 23  1  0
 22 24  2  0
 24 25  1  0
 25 26  2  0
 26 27  1  0
 27 28  1  0
 28 29  1  0
 29 30  2  0
 30 31  1  0
 31 32  2  0
 32 33  1  0
 33 34  1  0
 33 35  2  0
 27 36  1  0
 36 37  2  0
 19 38  1  0
 38 39  1  0
  9  4  1  0
 15 10  1  0
 39 16  1  0
 37 20  1  0
 36 24  1  0
 35 29  1  0
M  END
>  <Binding energies>  (78) 
[-10.24]

>  <Ligand effiencies>  (78) 
[-0.256]

>  <Interactions>  (78) 
["V-B:ARG:545:CG:9893, V-A:GLU:543:CB:4905, V-B:GLU:543:CB:9877, V-A:GLU:543:CG:4906, V-B:GLU:543:CD:9879, V-B:HIS:456:CE1:9040, V-A:ALA:541:CB:4891, H-B:ARG:545:NH2:9899, V-A:HIS:456:CE1:4069, V-A:GLU:543:CD:4907, V-B:LEU:475:CD1:9228, V-B:ARG:545:CZ:9897, H-B:TYR:484:OH:9318, V-B:ARG:545:CD:9894, H-B:GLY:454:N:9020, V-A:GLU:543:C:4901, V-B:LEU:475:CG:9227, V-B:LEU:475:CD2:9229, V-A:PRO:540:C:4880, V-A:ASN:362:C:3171, H-B:ILE:455:N:9025, V-A:ASN:362:CB:3175, H-B:ARG:545:NE:9895, V-A:PRO:540:CB:4884, V-A:PRO:540:CA:4882, V-B:GLY:453:C:9012, V-B:GLY:453:CA:9014, V-B:GLY:454:CA:9019, H-B:ILE:455:O:9023, H-B:HIS:456:ND1:9037, V-B:LYS:547:CE:9921"]

$$$$
RR28_Rahimova_2017
     RDKit          3D

 46 49  0  0  0  0  0  0  0  0999 V2000
  121.5890  129.2430   67.4050 C   0  0  0  0  0  0  0  0  0  0  0  0
  123.0260  129.7230   67.2330 C   0  0  0  0  0  0  0  0  0  0  0  0
  123.5650  130.3610   68.1360 O   0  0  0  0  0  0  0  0  0  0  0  0
  123.6260  129.4060   66.0680 N   0  0  0  0  0  0  0  0  0  0  0  0
  124.9980  129.7410   65.6240 C   0  0  0  0  0  0  0  0  0  0  0  0
  126.0030  129.0910   66.6190 C   0  0  0  0  0  0  0  0  0  0  0  0
  127.3690  129.3990   66.5160 C   0  0  0  0  0  0  0  0  0  0  0  0
  128.2960  128.8340   67.3850 C   0  0  0  0  0  0  0  0  0  0  0  0
  127.8800  127.9450   68.3780 C   0  0  0  0  0  0  0  0  0  0  0  0
  128.9140  127.3310   69.3200 C   0  0  0  0  0  0  0  0  0  0  0  0
  128.3480  126.6750   70.3360 F   0  0  0  0  0  0  0  0  0  0  0  0
  129.6920  126.4740   68.6590 F   0  0  0  0  0  0  0  0  0  0  0  0
  129.6770  128.3010   69.8260 F   0  0  0  0  0  0  0  0  0  0  0  0
  126.5230  127.6300   68.4900 C   0  0  0  0  0  0  0  0  0  0  0  0
  125.5960  128.1960   67.6200 C   0  0  0  0  0  0  0  0  0  0  0  0
  125.1660  131.2960   65.4810 C   0  0  0  0  0  0  0  0  0  0  0  0
  124.2940  131.9060   64.3550 C   0  0  0  0  0  0  0  0  0  0  0  0
  124.6920  131.2320   63.1080 N   0  0  0  0  0  0  0  0  0  0  0  0
  125.6430  131.7820   62.3040 C   0  0  0  0  0  0  0  0  0  0  0  0
  126.0780  132.9200   62.4890 O   0  0  0  0  0  0  0  0  0  0  0  0
  126.0710  131.0210   61.0250 C   0  0  0  0  0  0  0  0  0  0  0  0
  127.2260  129.9980   61.1990 C   0  0  0  0  0  0  0  0  0  0  0  0
  127.3670  128.9660   60.0550 C   0  0  0  0  0  0  0  0  0  0  0  0
  126.8780  129.2490   58.9570 O   0  0  0  0  0  0  0  0  0  0  0  0
  128.1310  127.8520   60.2390 N   0  0  0  0  0  0  0  0  0  0  0  0
  128.4630  127.3110   61.5620 C   0  0  0  0  0  0  0  0  0  0  0  0
  127.2870  126.3990   61.9740 C   0  0  0  0  0  0  0  0  0  0  0  0
  126.9610  125.2490   60.9580 C   0  0  0  0  0  0  0  0  0  0  0  0
  125.6110  124.7180   61.2430 N   0  0  0  0  0  0  0  0  0  0  0  0
  125.2670  123.7420   62.1060 C   0  0  0  0  0  0  0  0  0  0  0  0
  123.7840  123.3910   62.1740 C   0  0  0  0  0  0  0  0  0  0  0  0
  126.0680  123.1370   62.8180 O   0  0  0  0  0  0  0  0  0  0  0  0
  127.9850  124.0960   61.2120 C   0  0  0  0  0  0  0  0  0  0  0  0
  128.6550  123.9290   62.4360 C   0  0  0  0  0  0  0  0  0  0  0  0
  129.5590  122.8870   62.6220 C   0  0  0  0  0  0  0  0  0  0  0  0
  129.8200  121.9860   61.5870 C   0  0  0  0  0  0  0  0  0  0  0  0
  130.8070  120.8350   61.7770 C   0  0  0  0  0  0  0  0  0  0  0  0
  130.1670  119.7220   62.1420 F   0  0  0  0  0  0  0  0  0  0  0  0
  131.4380  120.6050   60.6260 F   0  0  0  0  0  0  0  0  0  0  0  0
  131.7230  121.1060   62.7090 F   0  0  0  0  0  0  0  0  0  0  0  0
  129.1690  122.1440   60.3630 C   0  0  0  0  0  0  0  0  0  0  0  0
  128.2660  123.1860   60.1800 C   0  0  0  0  0  0  0  0  0  0  0  0
  127.0270  125.8260   59.4900 C   0  0  0  0  0  0  0  0  0  0  0  0
  128.1860  126.8170   59.1990 C   0  0  0  0  0  0  0  0  0  0  0  0
  124.3740  129.7980   63.0940 C   0  0  0  0  0  0  0  0  0  0  0  0
  125.2290  129.1310   64.2030 C   0  0  0  0  0  0  0  0  0  0  0  0
  1  2  1  0
  2  3  2  0
  2  4  1  0
  4  5  1  0
  5  6  1  0
  6  7  2  0
  7  8  1  0
  8  9  2  0
  9 10  1  0
 10 11  1  0
 10 12  1  0
 10 13  1  0
  9 14  1  0
 14 15  2  0
  5 16  1  0
 16 17  1  0
 17 18  1  0
 18 19  1  0
 19 20  2  0
 19 21  1  0
 21 22  1  0
 22 23  1  0
 23 24  2  0
 23 25  1  0
 25 26  1  0
 26 27  1  0
 27 28  1  0
 28 29  1  0
 29 30  1  0
 30 31  1  0
 30 32  2  0
 28 33  1  0
 33 34  2  0
 34 35  1  0
 35 36  2  0
 36 37  1  0
 37 38  1  0
 37 39  1  0
 37 40  1  0
 36 41  1  0
 41 42  2  0
 28 43  1  0
 43 44  1  0
 18 45  1  0
 45 46  1  0
 46  5  1  0
 15  6  1  0
 44 25  1  0
 42 33  1  0
M  END
>  <Binding energies>  (79) 
[-8.23]

>  <Ligand effiencies>  (79) 
[-0.17145833333333335]

>  <Interactions>  (79) 
["V-B:ARG:545:CG:9893, V-B:GLU:543:CB:9877, V-B:GLU:543:CD:9879, V-B:HIS:456:CE1:9040, V-A:HIS:456:CE1:4069, V-B:LEU:475:CD1:9228, V-B:ARG:545:CZ:9897, H-B:TYR:484:OH:9318, V-B:ARG:545:CD:9894, H-B:GLY:454:N:9020, H-B:ASP:366:OD1:8184, H-B:ALA:541:N:9862, V-B:PRO:540:CA:9854, V-B:PRO:540:CB:9856, V-B:ALA:541:CB:9863, V-B:TYR:539:CE2:9847, V-B:ASN:362:CG:8147, V-B:TYR:539:CD2:9845, V-B:ASN:362:CB:8146, H-B:ILE:455:N:9025, V-B:GLY:453:C:9012, V-A:LEU:475:CD2:4258, V-B:GLY:453:CA:9014, V-B:ARG:545:CB:9892, V-B:GLY:454:CA:9019, V-B:TYR:539:C:9838, V-B:ILE:455:CA:9024, V-B:GLY:454:C:9017, V-B:ILE:455:C:9022, V-B:VAL:452:C:9004, V-B:VAL:452:CG2:9010"]

$$$$
RR29_Rahimova_2017
     RDKit          3D

 18 19  0  0  0  0  0  0  0  0999 V2000
  128.2720  126.2310   71.3670 C   0  0  0  0  0  0  0  0  0  0  0  0
  128.5500  126.5080   69.8970 C   0  0  0  0  0  0  0  0  0  0  0  0
  127.7470  127.7070   69.3460 C   0  0  0  0  0  0  0  0  0  0  0  0
  126.2340  127.4060   69.2980 C   0  0  0  0  0  0  0  0  0  0  0  0
  125.5240  128.1930   68.2080 C   0  0  0  0  0  0  0  0  0  0  0  0
  124.3350  128.8900   68.5040 C   0  0  0  0  0  0  0  0  0  0  0  0
  123.6650  129.6230   67.5140 C   0  0  0  0  0  0  0  0  0  0  0  0
  124.2100  129.6240   66.2350 C   0  0  0  0  0  0  0  0  0  0  0  0
  125.3610  128.9480   65.9420 C   0  0  0  0  0  0  0  0  0  0  0  0
  126.0530  128.2220   66.9050 C   0  0  0  0  0  0  0  0  0  0  0  0
  125.6800  129.1490   64.6360 O   0  0  0  0  0  0  0  0  0  0  0  0
  124.5720  129.7980   64.0710 C   0  0  0  0  0  0  0  0  0  0  0  0
  123.7720  130.2700   65.1220 O   0  0  0  0  0  0  0  0  0  0  0  0
  129.3790  125.7520   69.2760 N   0  0  0  0  0  0  0  0  0  0  0  0
  129.5680  125.9460   67.9260 N   0  0  0  0  0  0  0  0  0  0  0  0
  130.3880  126.8750   67.4080 C   0  0  0  0  0  0  0  0  0  0  0  0
  131.1380  127.7140   68.1230 N   0  0  0  0  0  0  0  0  0  0  0  0
  130.4610  126.9660   66.0880 N   0  0  0  0  0  0  0  0  0  0  0  0
  1  2  1  0
  2  3  1  0
  3  4  1  0
  4  5  1  0
  5  6  2  0
  6  7  1  0
  7  8  2  0
  8  9  1  0
  9 10  2  0
  9 11  1  0
 11 12  1  0
 12 13  1  0
  2 14  2  0
 14 15  1  0
 15 16  1  0
 16 17  1  0
 16 18  2  0
 10  5  1  0
 13  8  1  0
M  CHG  1  18   1
M  END
>  <Binding energies>  (80) 
[-8.07]

>  <Ligand effiencies>  (80) 
[-0.3508695652173913]

>  <Interactions>  (80) 
["V-B:ARG:545:CG:9893, V-A:GLU:543:CB:4905, V-B:GLU:543:CB:9877, V-B:GLU:543:CD:9879, V-B:HIS:456:CE1:9040, H-B:ARG:545:NH2:9899, V-A:HIS:456:CE1:4069, V-A:GLU:543:CD:4907, V-B:ARG:545:CZ:9897, V-B:ARG:545:CD:9894, H-B:GLY:454:N:9020, V-B:GLU:543:C:9873, H-A:GLU:543:OE2:4909, V-B:GLU:543:CG:9878, V-A:TYR:484:CE2:4345, V-B:ARG:545:CA:9890, V-B:ARG:545:CB:9892, H-B:GLU:543:OE2:9881, H-A:HIS:456:NE2:4070, H-A:GLU:543:OE1:4908"]

$$$$
RR30_Rahimova_2017
     RDKit          3D

 18 19  0  0  0  0  0  0  0  0999 V2000
  124.0010  129.5990   67.0250 C   0  0  0  0  0  0  0  0  0  0  0  0
  124.3220  129.0990   68.4410 C   0  0  0  0  0  0  0  0  0  0  0  0
  125.6680  128.4110   68.5150 C   0  0  0  0  0  0  0  0  0  0  0  0
  126.0160  127.3890   69.2560 N   0  0  0  0  0  0  0  0  0  0  0  0
  127.3560  127.1450   68.9660 N   0  0  0  0  0  0  0  0  0  0  0  0
  127.7040  128.0460   68.0830 C   0  0  0  0  0  0  0  0  0  0  0  0
  129.2800  128.2460   67.3150 S   0  0  0  0  0  0  0  0  0  0  0  0
  130.1390  126.7840   67.9780 C   0  0  0  0  0  0  0  0  0  0  0  0
  130.7850  125.9430   66.8740 C   0  0  0  0  0  0  0  0  0  0  0  0
  130.3490  124.8130   66.6450 O   0  0  0  0  0  0  0  0  0  0  0  0
  131.8370  126.5080   66.2410 N   0  0  0  0  0  0  0  0  0  0  0  0
  132.5820  125.9430   65.2160 C   0  0  0  0  0  0  0  0  0  0  0  0
  133.8710  125.6900   65.1910 N   0  0  0  0  0  0  0  0  0  0  0  0
  134.2740  125.1180   63.9910 N   0  0  0  0  0  0  0  0  0  0  0  0
  133.2890  124.9500   63.1370 C   0  0  0  0  0  0  0  0  0  0  0  0
  133.4780  124.3500   61.7630 C   0  0  0  0  0  0  0  0  0  0  0  0
  131.7540  125.4920   63.7580 S   0  0  0  0  0  0  0  0  0  0  0  0
  126.6850  128.8780   67.7480 O   0  0  0  0  0  0  0  0  0  0  0  0
  1  2  1  0
  2  3  1  0
  3  4  2  0
  4  5  1  0
  5  6  2  0
  6  7  1  0
  7  8  1  0
  8  9  1  0
  9 10  2  0
  9 11  1  0
 11 12  1  0
 12 13  2  0
 13 14  1  0
 14 15  2  0
 15 16  1  0
 15 17  1  0
  6 18  1  0
 18  3  1  0
 17 12  1  0
M  END
>  <Binding energies>  (81) 
[-6.65]

>  <Ligand effiencies>  (81) 
[-0.35000000000000003]

>  <Interactions>  (81) 
["V-B:ARG:545:CG:9893, V-B:GLU:543:CD:9879, V-B:HIS:456:CE1:9040, H-A:GLY:454:N:4049, V-A:HIS:456:CE1:4069, H-A:ARG:545:NH1:4926, V-A:GLU:543:CD:4907, H-B:TYR:484:OH:9318, H-A:ARG:545:NH2:4927, V-B:ARG:545:CD:9894, V-B:TYR:484:CZ:9317, V-A:TYR:484:CZ:4346, V-A:ARG:545:CZ:4925, V-A:ASP:366:CG:3212, H-A:ARG:545:NE:4923, H-A:TYR:484:OH:4347, V-B:ARG:545:CB:9892, V-A:ILE:369:CD1:3238, H-A:GLU:543:OE1:4908"]

$$$$
RR31_Rahimova_2017
     RDKit          3D

 18 19  0  0  0  0  0  0  0  0999 V2000
  132.3320  117.6210   59.4860 C   0  0  0  0  0  0  0  0  0  0  0  0
  132.4120  118.8830   60.3360 C   0  0  0  0  0  0  0  0  0  0  0  0
  133.5310  119.7080   60.2240 C   0  0  0  0  0  0  0  0  0  0  0  0
  133.6330  120.8710   60.9850 C   0  0  0  0  0  0  0  0  0  0  0  0
  132.6140  121.2480   61.8740 C   0  0  0  0  0  0  0  0  0  0  0  0
  132.7060  122.4050   62.6510 N   0  0  0  0  0  0  0  0  0  0  0  0
  131.9700  122.5550   63.9210 C   0  0  0  0  0  0  0  0  0  0  0  0
  131.8630  124.0160   64.4200 C   0  0  0  0  0  0  0  0  0  0  0  0
  133.1890  124.6230   64.5480 N   0  0  0  0  0  0  0  0  0  0  0  0
  133.1230  125.9980   65.0540 C   0  0  0  0  0  0  0  0  0  0  0  0
  132.9990  126.0710   66.5890 C   0  0  0  0  0  0  0  0  0  0  0  0
  131.5520  126.3120   67.0470 C   0  0  0  0  0  0  0  0  0  0  0  0
  130.6910  126.7470   65.8550 N   0  0  0  0  0  0  0  0  0  0  0  0
  133.8040  124.6160   63.2220 C   0  0  0  0  0  0  0  0  0  0  0  0
  133.9690  123.1700   62.7010 C   0  0  0  0  0  0  0  0  0  0  0  0
  131.4990  120.4050   61.9830 C   0  0  0  0  0  0  0  0  0  0  0  0
  131.3850  119.2330   61.2260 C   0  0  0  0  0  0  0  0  0  0  0  0
  130.1490  118.3580   61.3930 C   0  0  0  0  0  0  0  0  0  0  0  0
  1  2  1  0
  2  3  2  0
  3  4  1  0
  4  5  2  0
  5  6  1  0
  6  7  1  0
  7  8  1  0
  8  9  1  0
  9 10  1  0
 10 11  1  0
 11 12  1  0
 12 13  1  0
  9 14  1  0
 14 15  1  0
  5 16  1  0
 16 17  2  0
 17 18  1  0
 17  2  1  0
 15  6  1  0
M  CHG  1  13   1
M  END
>  <Binding energies>  (82) 
[-7.47]

>  <Ligand effiencies>  (82) 
[-0.3557142857142857]

>  <Interactions>  (82) 
["H-A:GLY:454:N:4049, V-A:HIS:456:CE1:4069, V-A:GLU:543:CD:4907, V-A:GLY:454:CA:4048, V-A:ARG:545:CZ:4925, V-B:ALA:541:CB:9863, V-A:ASP:366:CG:3212, V-A:ARG:545:CD:4922, V-A:ARG:545:CG:4921, V-B:TYR:539:CE2:9847, V-B:TYR:539:CD2:9845, H-A:TYR:484:OH:4347, H-A:GLU:543:OE2:4909, V-A:PRO:482:CG:4326, V-A:PRO:482:CB:4325, V-B:TYR:539:CB:9842, V-A:ILE:369:CG2:3236, V-A:SER:385:CA:3406, V-A:LEU:475:CD2:4258, V-B:TYR:539:C:9838, H-B:GLU:543:OE2:9881, V-A:ILE:369:CD1:3238, H-A:GLU:543:OE1:4908, V-A:HIS:383:CE1:3393"]

$$$$
RR32_Rahimova_2017
     RDKit          3D

 18 20  0  0  0  0  0  0  0  0999 V2000
  133.5120  123.2530   60.6400 C   0  0  0  0  0  0  0  0  0  0  0  0
  132.2930  122.3670   60.8760 C   0  0  0  0  0  0  0  0  0  0  0  0
  131.0710  122.9830   61.1480 C   0  0  0  0  0  0  0  0  0  0  0  0
  129.9370  122.2070   61.3650 C   0  0  0  0  0  0  0  0  0  0  0  0
  128.7270  122.8220   61.6350 N   0  0  0  0  0  0  0  0  0  0  0  0
  127.6800  122.7360   60.6000 C   0  0  0  0  0  0  0  0  0  0  0  0
  126.4380  123.6030   60.9150 C   0  0  0  0  0  0  0  0  0  0  0  0
  125.8590  123.2090   62.1990 N   0  0  0  0  0  0  0  0  0  0  0  0
  124.6690  124.0050   62.4810 C   0  0  0  0  0  0  0  0  0  0  0  0
  126.8680  123.4230   63.2340 C   0  0  0  0  0  0  0  0  0  0  0  0
  128.1180  122.5570   62.9520 C   0  0  0  0  0  0  0  0  0  0  0  0
  129.9610  120.8490   61.3270 N   0  0  0  0  0  0  0  0  0  0  0  0
  131.1390  120.2180   61.0670 C   0  0  0  0  0  0  0  0  0  0  0  0
  131.1350  118.8030   61.0360 C   0  0  0  0  0  0  0  0  0  0  0  0
  132.3090  118.1050   60.7760 C   0  0  0  0  0  0  0  0  0  0  0  0
  133.4970  118.7860   60.5420 C   0  0  0  0  0  0  0  0  0  0  0  0
  133.5350  120.1780   60.5650 C   0  0  0  0  0  0  0  0  0  0  0  0
  132.3570  120.9350   60.8290 C   0  0  0  0  0  0  0  0  0  0  0  0
  1  2  1  0
  2  3  2  0
  3  4  1  0
  4  5  1  0
  5  6  1  0
  6  7  1  0
  7  8  1  0
  8  9  1  0
  8 10  1  0
 10 11  1  0
  4 12  2  0
 12 13  1  0
 13 14  2  0
 14 15  1  0
 15 16  2  0
 16 17  1  0
 17 18  2  0
 18  2  1  0
 11  5  1  0
 18 13  1  0
M  END
>  <Binding energies>  (83) 
[-6.26]

>  <Ligand effiencies>  (83) 
[-0.34777777777777774]

>  <Interactions>  (83) 
["V-B:GLU:543:CD:9879, V-B:ARG:545:CZ:9897, H-B:ALA:541:N:9862, V-B:PRO:540:CA:9854, V-B:PRO:540:CB:9856, V-B:ALA:541:CB:9863, V-B:PRO:540:C:9852, V-B:TYR:539:CE2:9847, V-B:TYR:539:CD2:9845, V-B:ASN:362:CB:8146, V-B:ALA:541:C:9859, V-B:GLU:543:CG:9878, V-B:ALA:541:CA:9861, V-A:SER:385:CB:3408, V-A:ILE:369:CG2:3236, V-A:SER:385:CA:3406, V-A:LEU:475:CD2:4258, V-B:TYR:539:C:9838, V-B:PRO:540:N:9855, V-A:ILE:369:CD1:3238, V-A:ILE:369:CB:3235, V-A:VAL:384:C:3396"]

$$$$
RR5_Rahimova_2017
     RDKit          3D

 45 50  0  0  0  0  0  0  0  0999 V2000
  129.8980  126.4930   62.0980 O   0  0  0  0  0  0  0  0  0  0  0  0
  130.9090  126.0390   62.6340 C   0  0  0  0  0  0  0  0  0  0  0  0
  131.5560  126.7990   63.8080 C   0  0  0  0  0  0  0  0  0  0  0  0
  131.9140  125.8900   65.0370 C   0  0  2  0  0  0  0  0  0  0  0  0
  131.5980  126.4720   66.3570 N   0  0  0  0  0  0  0  0  0  0  0  0
  130.6830  125.8760   67.2140 C   0  0  0  0  0  0  0  0  0  0  0  0
  130.0800  124.8160   67.0270 O   0  0  0  0  0  0  0  0  0  0  0  0
  130.5440  126.6610   68.2970 O   0  0  0  0  0  0  0  0  0  0  0  0
  130.5590  128.0810   68.1920 C   0  0  0  0  0  0  0  0  0  0  0  0
  129.2980  128.6930   68.8420 C   0  0  0  0  0  0  0  0  0  0  0  0
  128.1400  128.8670   67.8770 C   0  0  0  0  0  0  0  0  0  0  0  0
  128.0780  129.5900   66.6820 C   0  0  0  0  0  0  0  0  0  0  0  0
  126.9010  129.5940   65.9320 C   0  0  0  0  0  0  0  0  0  0  0  0
  125.7860  128.8800   66.3740 C   0  0  0  0  0  0  0  0  0  0  0  0
  125.8430  128.1600   67.5680 C   0  0  0  0  0  0  0  0  0  0  0  0
  127.0220  128.1580   68.3170 C   0  0  0  0  0  0  0  0  0  0  0  0
  127.3560  127.5060   69.5930 C   0  0  0  0  0  0  0  0  0  0  0  0
  126.5930  126.7000   70.4420 C   0  0  0  0  0  0  0  0  0  0  0  0
  127.1540  126.2190   71.6250 C   0  0  0  0  0  0  0  0  0  0  0  0
  128.4730  126.5390   71.9570 C   0  0  0  0  0  0  0  0  0  0  0  0
  129.2320  127.3410   71.1040 C   0  0  0  0  0  0  0  0  0  0  0  0
  128.6760  127.8220   69.9170 C   0  0  0  0  0  0  0  0  0  0  0  0
  133.4050  125.4720   64.9960 C   0  0  0  0  0  0  0  0  0  0  0  0
  134.0120  125.1700   63.9870 O   0  0  0  0  0  0  0  0  0  0  0  0
  133.9290  125.5160   66.2560 O   0  0  0  0  0  0  0  0  0  0  0  0
  131.5070  124.8760   62.2940 N   0  0  0  0  0  0  0  0  0  0  0  0
  131.2270  123.8440   61.2510 C   0  0  0  0  0  0  0  0  0  0  0  0
  131.7660  124.5350   59.9530 C   0  0  0  0  0  0  0  0  0  0  0  0
  131.0200  125.5170   59.2820 C   0  0  0  0  0  0  0  0  0  0  0  0
  131.5110  126.1260   58.1300 C   0  0  0  0  0  0  0  0  0  0  0  0
  132.7510  125.7550   57.6240 C   0  0  0  0  0  0  0  0  0  0  0  0
  133.5120  124.7860   58.2690 C   0  0  0  0  0  0  0  0  0  0  0  0
  133.0250  124.1860   59.4260 C   0  0  0  0  0  0  0  0  0  0  0  0
  132.0400  122.5620   61.6330 C   0  0  0  0  0  0  0  0  0  0  0  0
  133.0590  122.5940   62.5980 C   0  0  0  0  0  0  0  0  0  0  0  0
  133.7830  121.4450   62.9080 C   0  0  0  0  0  0  0  0  0  0  0  0
  133.4990  120.2500   62.2550 C   0  0  0  0  0  0  0  0  0  0  0  0
  132.4920  120.1920   61.2980 C   0  0  0  0  0  0  0  0  0  0  0  0
  131.7640  121.3380   60.9960 C   0  0  0  0  0  0  0  0  0  0  0  0
  129.6730  123.6510   61.2360 C   0  0  0  0  0  0  0  0  0  0  0  0
  128.9280  123.6840   62.4290 C   0  0  0  0  0  0  0  0  0  0  0  0
  127.5470  123.5050   62.4230 C   0  0  0  0  0  0  0  0  0  0  0  0
  126.8840  123.2950   61.2200 C   0  0  0  0  0  0  0  0  0  0  0  0
  127.5900  123.2720   60.0230 C   0  0  0  0  0  0  0  0  0  0  0  0
  128.9710  123.4510   60.0340 C   0  0  0  0  0  0  0  0  0  0  0  0
  1  2  2  0
  2  3  1  0
  4  3  1  6
  4  5  1  0
  5  6  1  0
  6  7  2  0
  6  8  1  0
  8  9  1  0
  9 10  1  0
 10 11  1  0
 11 12  2  0
 12 13  1  0
 13 14  2  0
 14 15  1  0
 15 16  2  0
 16 17  1  0
 17 18  2  0
 18 19  1  0
 19 20  2  0
 20 21  1  0
 21 22  2  0
  4 23  1  0
 23 24  2  0
 23 25  1  0
  2 26  1  0
 26 27  1  0
 27 28  1  0
 28 29  2  0
 29 30  1  0
 30 31  2  0
 31 32  1  0
 32 33  2  0
 27 34  1  0
 34 35  2  0
 35 36  1  0
 36 37  2  0
 37 38  1  0
 38 39  2  0
 27 40  1  0
 40 41  2  0
 41 42  1  0
 42 43  2  0
 43 44  1  0
 44 45  2  0
 22 10  1  0
 33 28  1  0
 39 34  1  0
 45 40  1  0
 16 11  1  0
 22 17  1  0
M  END
>  <Binding energies>  (84) 
[-11.94]

>  <Ligand effiencies>  (84) 
[-0.24875]

>  <Interactions>  (84) 
["V-B:ARG:545:CG:9893, V-A:GLU:543:CB:4905, V-B:GLU:543:CB:9877, V-A:GLU:543:CG:4906, V-B:GLU:543:CD:9879, V-B:HIS:456:CE1:9040, H-A:GLY:454:N:4049, V-A:HIS:456:CE1:4069, H-A:ARG:545:NH1:4926, V-A:GLU:543:CD:4907, V-A:GLY:454:CA:4048, H-A:ARG:545:NH2:4927, V-A:TYR:484:CZ:4346, V-B:PRO:540:CA:9854, V-A:ARG:545:CZ:4925, V-B:PRO:540:CB:9856, V-A:ASP:366:CG:3212, V-B:PRO:540:C:9852, V-B:TYR:539:CE2:9847, V-B:GLU:543:C:9873, V-B:GLY:544:C:9883, V-B:TYR:539:CZ:9848, V-B:TYR:539:CD2:9845, H-A:ARG:545:NE:4923, H-A:TYR:484:OH:4347, V-A:SER:385:CB:3408, V-A:ILE:369:CG2:3236, V-A:SER:385:CA:3406, V-A:TYR:484:CE2:4345, V-A:LEU:475:CD2:4258, H-A:ASP:366:OD2:3214, V-A:ASP:366:CB:3211, V-A:SER:385:C:3404, V-B:GLY:544:CA:9885, H-A:GLU:543:OE1:4908, V-A:ILE:369:CB:3235, V-A:ASP:366:CA:3209, V-A:ASP:366:C:3207"]

$$$$
