1a_Ghoteimi_2023
     RDKit          3D

 67 70  0  0  0  0  0  0  0  0999 V2000
  132.7390  117.7890   58.9670 C   0  0  0  0  0  0  0  0  0  0  0  0
  133.5130  119.1000   59.1340 C   0  0  0  0  0  0  0  0  0  0  0  0
  133.7680  119.3240   60.5150 O   0  0  0  0  0  0  0  0  0  0  0  0
  132.7500  119.4290   61.4080 C   0  0  0  0  0  0  0  0  0  0  0  0
  132.0200  118.4840   61.7220 O   0  0  0  0  0  0  0  0  0  0  0  0
  132.6050  120.8090   61.9820 C   0  0  0  0  0  0  0  0  0  0  0  0
  133.6960  121.5080   62.5190 C   0  0  0  0  0  0  0  0  0  0  0  0
  133.5300  122.7860   63.0460 C   0  0  0  0  0  0  0  0  0  0  0  0
  132.2650  123.3920   63.0420 C   0  0  0  0  0  0  0  0  0  0  0  0
  131.9820  124.6740   63.5510 N   0  0  0  0  0  0  0  0  0  0  0  0
  132.6950  125.4420   64.4040 C   0  0  0  0  0  0  0  0  0  0  0  0
  133.7810  125.1440   64.8990 O   0  0  0  0  0  0  0  0  0  0  0  0
  132.0670  126.7910   64.7540 C   0  0  0  0  0  0  0  0  0  0  0  0
  130.3190  126.8680   64.2600 S   0  0  0  0  0  0  0  0  0  0  0  0
  129.4810  127.7660   65.5460 C   0  0  0  0  0  0  0  0  0  0  0  0
  128.5620  128.6490   65.0890 N   0  0  0  0  0  0  0  0  0  0  0  0
  127.8460  129.3960   65.9710 C   0  0  0  0  0  0  0  0  0  0  0  0
  126.8330  130.3370   65.3880 C   0  0  0  0  0  0  0  0  0  0  0  0
  127.1700  131.6600   65.0580 C   0  0  0  0  0  0  0  0  0  0  0  0
  126.2280  132.5310   64.5170 C   0  0  0  0  0  0  0  0  0  0  0  0
  124.9210  132.1080   64.2900 C   0  0  0  0  0  0  0  0  0  0  0  0
  124.0540  133.0380   63.7480 O   0  0  0  0  0  0  0  0  0  0  0  0
  123.7270  132.9570   62.3650 C   0  0  0  0  0  0  0  0  0  0  0  0
  124.5670  130.7920   64.6180 C   0  0  0  0  0  0  0  0  0  0  0  0
  125.5110  129.9250   65.1590 C   0  0  0  0  0  0  0  0  0  0  0  0
  128.0530  129.2610   67.3500 C   0  0  0  0  0  0  0  0  0  0  0  0
  129.0150  128.3720   67.8450 C   0  0  0  0  0  0  0  0  0  0  0  0
  129.2030  128.3040   69.3260 C   0  0  0  0  0  0  0  0  0  0  0  0
  130.0320  129.2170   69.9860 C   0  0  0  0  0  0  0  0  0  0  0  0
  130.1900  129.1560   71.3680 C   0  0  0  0  0  0  0  0  0  0  0  0
  129.5180  128.1900   72.1170 C   0  0  0  0  0  0  0  0  0  0  0  0
  129.7350  128.2080   73.4810 O   0  0  0  0  0  0  0  0  0  0  0  0
  131.0530  128.0070   73.9770 C   0  0  0  0  0  0  0  0  0  0  0  0
  128.6780  127.2790   71.4590 C   0  0  0  0  0  0  0  0  0  0  0  0
  128.5230  127.3400   70.0760 C   0  0  0  0  0  0  0  0  0  0  0  0
  129.7530  127.5940   66.9200 C   0  0  0  0  0  0  0  0  0  0  0  0
  130.7630  126.6350   67.3790 C   0  0  0  0  0  0  0  0  0  0  0  0
  131.5600  125.8780   67.7420 N   0  0  0  0  0  0  0  0  0  0  0  0
  131.1770  122.6980   62.5120 C   0  0  0  0  0  0  0  0  0  0  0  0
  131.3440  121.4190   61.9840 C   0  0  0  0  0  0  0  0  0  0  0  0
  132.4962  117.3778   59.9579 H   0  0  0  0  0  0  0  0  0  0  0  0
  131.8090  117.9804   58.4116 H   0  0  0  0  0  0  0  0  0  0  0  0
  133.3559  117.0672   58.4116 H   0  0  0  0  0  0  0  0  0  0  0  0
  134.4670  119.0350   58.5902 H   0  0  0  0  0  0  0  0  0  0  0  0
  132.9183  119.9325   58.7299 H   0  0  0  0  0  0  0  0  0  0  0  0
  134.6924  121.0420   62.5238 H   0  0  0  0  0  0  0  0  0  0  0  0
  134.3935  123.3221   63.4668 H   0  0  0  0  0  0  0  0  0  0  0  0
  131.1320  125.0810   63.1920 H   0  0  0  0  0  0  0  0  0  0  0  0
  132.1374  126.9456   65.8408 H   0  0  0  0  0  0  0  0  0  0  0  0
  132.6123  127.5749   64.2079 H   0  0  0  0  0  0  0  0  0  0  0  0
  128.1970  132.0145   65.2301 H   0  0  0  0  0  0  0  0  0  0  0  0
  126.5188  133.5619   64.2668 H   0  0  0  0  0  0  0  0  0  0  0  0
  122.6647  132.6939   62.2542 H   0  0  0  0  0  0  0  0  0  0  0  0
  123.9159  133.9291   61.8860 H   0  0  0  0  0  0  0  0  0  0  0  0
  124.3478  132.1855   61.8860 H   0  0  0  0  0  0  0  0  0  0  0  0
  123.5379  130.4431   64.4468 H   0  0  0  0  0  0  0  0  0  0  0  0
  125.2154  128.8962   65.4123 H   0  0  0  0  0  0  0  0  0  0  0  0
  127.4534  129.8598   68.0514 H   0  0  0  0  0  0  0  0  0  0  0  0
  130.5629  129.9886   69.4092 H   0  0  0  0  0  0  0  0  0  0  0  0
  130.8505  129.8758   71.8736 H   0  0  0  0  0  0  0  0  0  0  0  0
  131.0352  128.0097   75.0769 H   0  0  0  0  0  0  0  0  0  0  0  0
  131.4361  127.0401   73.6188 H   0  0  0  0  0  0  0  0  0  0  0  0
  131.7069  128.8158   73.6188 H   0  0  0  0  0  0  0  0  0  0  0  0
  128.1398  126.5137   72.0374 H   0  0  0  0  0  0  0  0  0  0  0  0
  127.8597  126.6233   69.5696 H   0  0  0  0  0  0  0  0  0  0  0  0
  130.1804  123.1635   62.5108 H   0  0  0  0  0  0  0  0  0  0  0  0
  130.4786  120.8843   61.5655 H   0  0  0  0  0  0  0  0  0  0  0  0
  1  2  1  0
  2  3  1  0
  3  4  1  0
  4  5  2  0
  4  6  1  0
  6  7  2  0
  7  8  1  0
  8  9  2  0
  9 10  1  0
 10 11  1  0
 11 12  2  0
 11 13  1  0
 13 14  1  0
 14 15  1  0
 15 16  2  0
 16 17  1  0
 17 18  1  0
 18 19  2  0
 19 20  1  0
 20 21  2  0
 21 22  1  0
 22 23  1  0
 21 24  1  0
 24 25  2  0
 17 26  2  0
 26 27  1  0
 27 28  1  0
 28 29  2  0
 29 30  1  0
 30 31  2  0
 31 32  1  0
 32 33  1  0
 31 34  1  0
 34 35  2  0
 27 36  2  0
 36 37  1  0
 37 38  3  0
  9 39  1  0
 39 40  2  0
 40  6  1  0
 36 15  1  0
 25 18  1  0
 35 28  1  0
  1 41  1  0
  1 42  1  0
  1 43  1  0
  2 44  1  0
  2 45  1  0
  7 46  1  0
  8 47  1  0
 10 48  1  0
 13 49  1  0
 13 50  1  0
 19 51  1  0
 20 52  1  0
 23 53  1  0
 23 54  1  0
 23 55  1  0
 24 56  1  0
 25 57  1  0
 26 58  1  0
 29 59  1  0
 30 60  1  0
 33 61  1  0
 33 62  1  0
 33 63  1  0
 34 64  1  0
 35 65  1  0
 39 66  1  0
 40 67  1  0
M  END
>  <Binding energies>  (1) 
[-8.57]

>  <Ligand effiencies>  (1) 
[-0.20902439024390246]

>  <Interactions>  (1) 
["V-A:GLU:543:CB:4905, V-A:GLU:543:CG:4906, V-B:GLU:543:CD:9879, V-B:HIS:456:CE1:9040, V-B:SER:385:CB:8379, H-A:GLY:454:N:4049, V-A:HIS:456:CE1:4069, V-A:GLU:543:CD:4907, V-A:GLY:454:CA:4048, V-B:LEU:475:CD1:9228, H-B:GLY:454:N:9020, V-A:GLU:543:C:4901, V-A:ARG:545:CZ:4925, V-A:GLU:543:CA:4903, V-B:TYR:539:CE2:9847, V-B:TYR:539:CD2:9845, H-A:TYR:484:OH:4347, V-B:TYR:539:CG:9843, V-A:LEU:373:CD2:3280, V-B:TYR:539:CB:9842, V-A:SER:385:CB:3408, V-A:ILE:369:CG2:3236, V-A:LEU:373:CD1:3279, V-A:SER:385:CA:3406, V-A:LEU:475:CD2:4258, V-A:LEU:373:CG:3278, V-B:GLY:454:CA:9019, V-A:ILE:369:CD1:3238, V-A:SER:385:C:3404"]

$$$$
1a_Grossjean_2025
     RDKit          3D

 45 46  0  0  0  0  0  0  0  0999 V2000
  124.5160  130.2150   65.3350 C   0  0  0  0  0  0  0  0  0  0  0  0
  123.9270  129.1850   66.3030 C   0  0  0  0  0  0  0  0  0  0  0  0
  124.0560  129.6600   67.6370 O   0  0  0  0  0  0  0  0  0  0  0  0
  124.6820  128.9190   68.5880 C   0  0  0  0  0  0  0  0  0  0  0  0
  124.1350  128.5540   69.6340 O   0  0  0  0  0  0  0  0  0  0  0  0
  126.1090  128.6010   68.2490 C   0  0  0  0  0  0  0  0  0  0  0  0
  126.6820  127.4190   68.7370 C   0  0  0  0  0  0  0  0  0  0  0  0
  128.0040  127.0990   68.4430 C   0  0  0  0  0  0  0  0  0  0  0  0
  128.7820  127.9520   67.6600 C   0  0  0  0  0  0  0  0  0  0  0  0
  130.1060  127.5310   67.4290 N   0  0  0  0  0  0  0  0  0  0  0  0
  130.6820  126.3270   67.6330 C   0  0  0  0  0  0  0  0  0  0  0  0
  130.1160  125.3300   68.0810 O   0  0  0  0  0  0  0  0  0  0  0  0
  132.1640  126.2390   67.2630 C   0  0  0  0  0  0  0  0  0  0  0  0
  132.4200  126.1960   65.4630 S   0  0  0  0  0  0  0  0  0  0  0  0
  131.9030  124.5940   64.8880 C   0  0  0  0  0  0  0  0  0  0  0  0
  130.7400  124.1640   65.4370 N   0  0  0  0  0  0  0  0  0  0  0  0
  130.2570  122.9530   65.0730 C   0  0  0  0  0  0  0  0  0  0  0  0
  128.9590  122.5330   65.7380 C   0  0  0  0  0  0  0  0  0  0  0  0
  130.9010  122.1340   64.1480 C   0  0  0  0  0  0  0  0  0  0  0  0
  132.0900  122.5770   63.5600 C   0  0  0  0  0  0  0  0  0  0  0  0
  132.7700  121.6690   62.5370 C   0  0  0  0  0  0  0  0  0  0  0  0
  132.6120  123.8400   63.9220 C   0  0  0  0  0  0  0  0  0  0  0  0
  133.8300  124.3460   63.2840 C   0  0  0  0  0  0  0  0  0  0  0  0
  134.7910  124.7440   62.7780 N   0  0  0  0  0  0  0  0  0  0  0  0
  128.2150  129.1340   67.1600 C   0  0  0  0  0  0  0  0  0  0  0  0
  126.8920  129.4540   67.4550 C   0  0  0  0  0  0  0  0  0  0  0  0
  124.9825  131.0307   65.9068 H   0  0  0  0  0  0  0  0  0  0  0  0
  125.2740  129.7312   64.7014 H   0  0  0  0  0  0  0  0  0  0  0  0
  123.7146  130.6229   64.7014 H   0  0  0  0  0  0  0  0  0  0  0  0
  122.8632  129.0297   66.0704 H   0  0  0  0  0  0  0  0  0  0  0  0
  124.4680  128.2329   66.1990 H   0  0  0  0  0  0  0  0  0  0  0  0
  126.0815  126.7380   69.3580 H   0  0  0  0  0  0  0  0  0  0  0  0
  128.4389  126.1661   68.8311 H   0  0  0  0  0  0  0  0  0  0  0  0
  130.6950  128.2410   67.0200 H   0  0  0  0  0  0  0  0  0  0  0  0
  132.6847  127.1164   67.6742 H   0  0  0  0  0  0  0  0  0  0  0  0
  132.5626  125.3040   67.6837 H   0  0  0  0  0  0  0  0  0  0  0  0
  129.0778  122.5714   66.8309 H   0  0  0  0  0  0  0  0  0  0  0  0
  128.1527  123.2161   65.4325 H   0  0  0  0  0  0  0  0  0  0  0  0
  128.7057  121.5071   65.4325 H   0  0  0  0  0  0  0  0  0  0  0  0
  130.4801  121.1526   63.8839 H   0  0  0  0  0  0  0  0  0  0  0  0
  133.3496  120.8951   63.0616 H   0  0  0  0  0  0  0  0  0  0  0  0
  132.0062  121.1906   61.9064 H   0  0  0  0  0  0  0  0  0  0  0  0
  133.4440  122.2674   61.9064 H   0  0  0  0  0  0  0  0  0  0  0  0
  128.8166  129.8093   66.5338 H   0  0  0  0  0  0  0  0  0  0  0  0
  126.4562  130.3844   67.0620 H   0  0  0  0  0  0  0  0  0  0  0  0
  1  2  1  0
  2  3  1  0
  3  4  1  0
  4  5  2  0
  4  6  1  0
  6  7  2  0
  7  8  1  0
  8  9  2  0
  9 10  1  0
 10 11  1  0
 11 12  2  0
 11 13  1  0
 13 14  1  0
 14 15  1  0
 15 16  2  0
 16 17  1  0
 17 18  1  0
 17 19  2  0
 19 20  1  0
 20 21  1  0
 20 22  2  0
 22 23  1  0
 23 24  3  0
  9 25  1  0
 25 26  2  0
 26  6  1  0
 22 15  1  0
  1 27  1  0
  1 28  1  0
  1 29  1  0
  2 30  1  0
  2 31  1  0
  7 32  1  0
  8 33  1  0
 10 34  1  0
 13 35  1  0
 13 36  1  0
 18 37  1  0
 18 38  1  0
 18 39  1  0
 19 40  1  0
 21 41  1  0
 21 42  1  0
 21 43  1  0
 25 44  1  0
 26 45  1  0
M  END
>  <Binding energies>  (1) 
[-7.12]

>  <Ligand effiencies>  (1) 
[-0.2637037037037037]

>  <Interactions>  (1) 
["V-B:ARG:545:CG:9893, V-B:GLU:543:CB:9877, V-A:GLU:543:CG:4906, V-B:GLU:543:CD:9879, V-B:HIS:456:CE1:9040, H-A:GLY:454:N:4049, V-A:HIS:456:CE1:4069, V-A:GLU:543:CD:4907, V-A:GLY:454:CA:4048, V-B:ARG:545:CZ:9897, H-B:TYR:484:OH:9318, H-A:ARG:545:NH2:4927, V-B:ARG:545:CD:9894, V-B:TYR:484:CZ:9317, V-A:TYR:484:CZ:4346, V-B:ALA:541:CB:9863, H-A:ARG:545:NE:4923, H-A:TYR:484:OH:4347, H-A:GLU:543:OE2:4909, V-B:GLU:543:CG:9878, V-A:TYR:484:CE2:4345, V-A:LEU:475:CD2:4258, V-B:ARG:545:CA:9890, V-B:ARG:545:CB:9892, V-B:GLY:454:CA:9019, V-A:GLY:453:C:4041, H-B:HIS:456:ND1:9037, V-A:LEU:475:CD1:4257, H-A:GLU:543:OE1:4908"]

$$$$
1aa_Ghoteimi_2023
     RDKit          3D

 67 70  0  0  0  0  0  0  0  0999 V2000
  130.5710  117.2760   61.1280 C   0  0  0  0  0  0  0  0  0  0  0  0
  131.0940  118.6430   60.6760 C   0  0  0  0  0  0  0  0  0  0  0  0
  132.1720  119.0380   61.5160 O   0  0  0  0  0  0  0  0  0  0  0  0
  132.9690  120.0870   61.1870 C   0  0  0  0  0  0  0  0  0  0  0  0
  133.7470  120.0760   60.2280 O   0  0  0  0  0  0  0  0  0  0  0  0
  132.8100  121.2640   62.1060 C   0  0  0  0  0  0  0  0  0  0  0  0
  133.8610  122.1610   62.3510 C   0  0  0  0  0  0  0  0  0  0  0  0
  133.6850  123.2450   63.2080 C   0  0  0  0  0  0  0  0  0  0  0  0
  132.4470  123.4530   63.8350 C   0  0  0  0  0  0  0  0  0  0  0  0
  132.1540  124.5090   64.7170 N   0  0  0  0  0  0  0  0  0  0  0  0
  132.9660  125.4350   65.2760 C   0  0  0  0  0  0  0  0  0  0  0  0
  134.1800  125.5150   65.0850 O   0  0  0  0  0  0  0  0  0  0  0  0
  132.3180  126.4640   66.2170 C   0  0  0  0  0  0  0  0  0  0  0  0
  131.0140  126.0250   66.6190 O   0  0  0  0  0  0  0  0  0  0  0  0
  130.1340  126.9060   67.2300 C   0  0  0  0  0  0  0  0  0  0  0  0
  130.0340  126.8730   68.5880 N   0  0  0  0  0  0  0  0  0  0  0  0
  129.1730  127.7120   69.2230 C   0  0  0  0  0  0  0  0  0  0  0  0
  129.1230  127.6150   70.7200 C   0  0  0  0  0  0  0  0  0  0  0  0
  128.4270  126.5750   71.3540 C   0  0  0  0  0  0  0  0  0  0  0  0
  128.3780  126.4840   72.7420 C   0  0  0  0  0  0  0  0  0  0  0  0
  129.0230  127.4260   73.5390 C   0  0  0  0  0  0  0  0  0  0  0  0
  128.9200  127.2570   74.9070 O   0  0  0  0  0  0  0  0  0  0  0  0
  128.8870  128.4040   75.7480 C   0  0  0  0  0  0  0  0  0  0  0  0
  129.7280  128.4680   72.9210 C   0  0  0  0  0  0  0  0  0  0  0  0
  129.7760  128.5560   71.5330 C   0  0  0  0  0  0  0  0  0  0  0  0
  128.4000  128.6250   68.4950 C   0  0  0  0  0  0  0  0  0  0  0  0
  128.4920  128.6870   67.0980 C   0  0  0  0  0  0  0  0  0  0  0  0
  127.6490  129.6890   66.3810 C   0  0  0  0  0  0  0  0  0  0  0  0
  128.1140  130.9950   66.1950 C   0  0  0  0  0  0  0  0  0  0  0  0
  127.3380  131.9320   65.5200 C   0  0  0  0  0  0  0  0  0  0  0  0
  126.0870  131.5850   65.0120 C   0  0  0  0  0  0  0  0  0  0  0  0
  125.3880  132.5800   64.3570 O   0  0  0  0  0  0  0  0  0  0  0  0
  124.3910  132.2190   63.4070 C   0  0  0  0  0  0  0  0  0  0  0  0
  125.6200  130.2740   65.1900 C   0  0  0  0  0  0  0  0  0  0  0  0
  126.3960  129.3380   65.8660 C   0  0  0  0  0  0  0  0  0  0  0  0
  129.3780  127.7960   66.4490 C   0  0  0  0  0  0  0  0  0  0  0  0
  129.5090  127.7570   64.9910 C   0  0  0  0  0  0  0  0  0  0  0  0
  129.6140  127.7250   63.8390 N   0  0  0  0  0  0  0  0  0  0  0  0
  131.4010  122.5610   63.5940 C   0  0  0  0  0  0  0  0  0  0  0  0
  131.5790  121.4780   62.7390 C   0  0  0  0  0  0  0  0  0  0  0  0
  130.5552  117.2346   62.2271 H   0  0  0  0  0  0  0  0  0  0  0  0
  129.5523  117.1268   60.7407 H   0  0  0  0  0  0  0  0  0  0  0  0
  131.2300  116.4849   60.7407 H   0  0  0  0  0  0  0  0  0  0  0  0
  131.4450  118.5759   59.6357 H   0  0  0  0  0  0  0  0  0  0  0  0
  130.2854  119.3859   60.7422 H   0  0  0  0  0  0  0  0  0  0  0  0
  134.8338  122.0066   61.8613 H   0  0  0  0  0  0  0  0  0  0  0  0
  134.5179  123.9391   63.3935 H   0  0  0  0  0  0  0  0  0  0  0  0
  131.1760  124.5800   64.9620 H   0  0  0  0  0  0  0  0  0  0  0  0
  132.9496  126.5869   67.1092 H   0  0  0  0  0  0  0  0  0  0  0  0
  132.2227  127.4221   65.6851 H   0  0  0  0  0  0  0  0  0  0  0  0
  127.9113  125.8188   70.7439 H   0  0  0  0  0  0  0  0  0  0  0  0
  127.8240  125.6593   73.2142 H   0  0  0  0  0  0  0  0  0  0  0  0
  128.8961  128.0868   76.8012 H   0  0  0  0  0  0  0  0  0  0  0  0
  129.7675  129.0319   75.5465 H   0  0  0  0  0  0  0  0  0  0  0  0
  127.9719  128.9802   75.5465 H   0  0  0  0  0  0  0  0  0  0  0  0
  130.2455  129.2193   73.5357 H   0  0  0  0  0  0  0  0  0  0  0  0
  130.3360  129.3782   71.0636 H   0  0  0  0  0  0  0  0  0  0  0  0
  127.7131  129.3009   69.0255 H   0  0  0  0  0  0  0  0  0  0  0  0
  129.1010  131.2836   66.5855 H   0  0  0  0  0  0  0  0  0  0  0  0
  127.7152  132.9565   65.3859 H   0  0  0  0  0  0  0  0  0  0  0  0
  123.4835  131.8904   63.9348 H   0  0  0  0  0  0  0  0  0  0  0  0
  124.1538  133.0883   62.7761 H   0  0  0  0  0  0  0  0  0  0  0  0
  124.7653  131.3993   62.7761 H   0  0  0  0  0  0  0  0  0  0  0  0
  124.6356  129.9849   64.7932 H   0  0  0  0  0  0  0  0  0  0  0  0
  126.0211  128.3122   65.9970 H   0  0  0  0  0  0  0  0  0  0  0  0
  130.4283  122.7154   64.0839 H   0  0  0  0  0  0  0  0  0  0  0  0
  130.7453  120.7834   62.5585 H   0  0  0  0  0  0  0  0  0  0  0  0
  1  2  1  0
  2  3  1  0
  3  4  1  0
  4  5  2  0
  4  6  1  0
  6  7  2  0
  7  8  1  0
  8  9  2  0
  9 10  1  0
 10 11  1  0
 11 12  2  0
 11 13  1  0
 13 14  1  0
 14 15  1  0
 15 16  2  0
 16 17  1  0
 17 18  1  0
 18 19  2  0
 19 20  1  0
 20 21  2  0
 21 22  1  0
 22 23  1  0
 21 24  1  0
 24 25  2  0
 17 26  2  0
 26 27  1  0
 27 28  1  0
 28 29  2  0
 29 30  1  0
 30 31  2  0
 31 32  1  0
 32 33  1  0
 31 34  1  0
 34 35  2  0
 27 36  2  0
 36 37  1  0
 37 38  3  0
  9 39  1  0
 39 40  2  0
 40  6  1  0
 36 15  1  0
 25 18  1  0
 35 28  1  0
  1 41  1  0
  1 42  1  0
  1 43  1  0
  2 44  1  0
  2 45  1  0
  7 46  1  0
  8 47  1  0
 10 48  1  0
 13 49  1  0
 13 50  1  0
 19 51  1  0
 20 52  1  0
 23 53  1  0
 23 54  1  0
 23 55  1  0
 24 56  1  0
 25 57  1  0
 26 58  1  0
 29 59  1  0
 30 60  1  0
 33 61  1  0
 33 62  1  0
 33 63  1  0
 34 64  1  0
 35 65  1  0
 39 66  1  0
 40 67  1  0
M  END
>  <Binding energies>  (1) 
[-8.5]

>  <Ligand effiencies>  (1) 
[-0.2073170731707317]

>  <Interactions>  (1) 
["V-A:GLU:543:CB:4905, V-A:GLU:543:CG:4906, V-B:GLU:543:CD:9879, V-B:HIS:456:CE1:9040, H-A:GLY:454:N:4049, V-A:HIS:456:CE1:4069, H-A:ARG:545:NH1:4926, V-A:GLU:543:CD:4907, V-A:GLY:454:CA:4048, V-B:LEU:475:CD1:9228, H-A:ARG:545:NH2:4927, V-B:TYR:484:CZ:9317, V-B:TYR:484:CE2:9316, V-A:ARG:545:CZ:4925, V-B:TYR:539:CD2:9845, H-A:ARG:545:NE:4923, H-A:TYR:484:OH:4347, V-A:PRO:482:CG:4326, V-A:PRO:482:CB:4325, V-B:TYR:539:CB:9842, V-A:SER:385:CB:3408, V-A:SER:385:CA:3406, V-A:LEU:475:CD2:4258, V-B:GLY:454:CA:9019, H-B:GLU:543:OE2:9881, V-A:ILE:369:CD1:3238, V-A:HIS:383:CE1:3393, H-B:LYS:547:NZ:9922"]

$$$$
1b_Ghoteimi_2023
     RDKit          3D

 54 57  0  0  0  0  0  0  0  0999 V2000
  133.8200  121.6870   61.7900 C   0  0  0  0  0  0  0  0  0  0  0  0
  134.2470  122.4580   62.9070 O   0  0  0  0  0  0  0  0  0  0  0  0
  133.3620  123.3430   63.4930 C   0  0  0  0  0  0  0  0  0  0  0  0
  133.6600  124.6980   63.3690 C   0  0  0  0  0  0  0  0  0  0  0  0
  132.8270  125.6630   63.9280 C   0  0  0  0  0  0  0  0  0  0  0  0
  131.6650  125.3000   64.6260 C   0  0  0  0  0  0  0  0  0  0  0  0
  130.7690  126.3440   65.2300 C   0  0  0  0  0  0  0  0  0  0  0  0
  130.5230  126.4340   66.6050 C   0  0  0  0  0  0  0  0  0  0  0  0
  129.6810  127.4290   67.1170 C   0  0  0  0  0  0  0  0  0  0  0  0
  129.4600  127.4610   68.5940 C   0  0  0  0  0  0  0  0  0  0  0  0
  128.7450  126.4370   69.2230 C   0  0  0  0  0  0  0  0  0  0  0  0
  128.5290  126.4670   70.5980 C   0  0  0  0  0  0  0  0  0  0  0  0
  129.0180  127.5210   71.3700 C   0  0  0  0  0  0  0  0  0  0  0  0
  128.7550  127.4670   72.7250 O   0  0  0  0  0  0  0  0  0  0  0  0
  127.5500  126.8560   73.1740 C   0  0  0  0  0  0  0  0  0  0  0  0
  129.7290  128.5550   70.7420 C   0  0  0  0  0  0  0  0  0  0  0  0
  129.9420  128.5220   69.3670 C   0  0  0  0  0  0  0  0  0  0  0  0
  129.0960  128.3490   66.2130 C   0  0  0  0  0  0  0  0  0  0  0  0
  128.2860  129.4660   66.7080 C   0  0  0  0  0  0  0  0  0  0  0  0
  127.6460  130.3480   67.1000 N   0  0  0  0  0  0  0  0  0  0  0  0
  129.3690  128.1900   64.8360 C   0  0  0  0  0  0  0  0  0  0  0  0
  128.7160  129.2450   63.5580 S   0  0  0  0  0  0  0  0  0  0  0  0
  126.9580  128.8200   63.3230 C   0  0  0  0  0  0  0  0  0  0  0  0
  125.9890  129.4980   64.3020 C   0  0  0  0  0  0  0  0  0  0  0  0
  125.7200  130.6960   64.1930 O   0  0  0  0  0  0  0  0  0  0  0  0
  125.4860  128.6810   65.2540 N   0  0  0  0  0  0  0  0  0  0  0  0
  124.5920  129.0160   66.2640 C   0  0  0  0  0  0  0  0  0  0  0  0
  124.8870  128.8770   67.6200 C   0  0  0  0  0  0  0  0  0  0  0  0
  123.7600  129.3110   68.2780 C   0  0  0  0  0  0  0  0  0  0  0  0
  122.8350  129.6950   67.3660 O   0  0  0  0  0  0  0  0  0  0  0  0
  123.3740  129.5040   66.0930 N   0  0  0  0  0  0  0  0  0  0  0  0
  130.1990  127.2270   64.3690 N   0  0  0  0  0  0  0  0  0  0  0  0
  131.3760  123.9320   64.7470 C   0  0  0  0  0  0  0  0  0  0  0  0
  132.2070  122.9640   64.1910 C   0  0  0  0  0  0  0  0  0  0  0  0
  133.3155  120.7761   62.1446 H   0  0  0  0  0  0  0  0  0  0  0  0
  133.1215  122.2796   61.1809 H   0  0  0  0  0  0  0  0  0  0  0  0
  134.6929  121.4093   61.1809 H   0  0  0  0  0  0  0  0  0  0  0  0
  134.5632  125.0088   62.8235 H   0  0  0  0  0  0  0  0  0  0  0  0
  133.0837  126.7272   63.8209 H   0  0  0  0  0  0  0  0  0  0  0  0
  130.9961  125.7156   67.2906 H   0  0  0  0  0  0  0  0  0  0  0  0
  128.3501  125.6012   68.6267 H   0  0  0  0  0  0  0  0  0  0  0  0
  127.9680  125.6527   71.0798 H   0  0  0  0  0  0  0  0  0  0  0  0
  127.5314  126.8466   74.2738 H   0  0  0  0  0  0  0  0  0  0  0  0
  126.6876  127.4257   72.7976 H   0  0  0  0  0  0  0  0  0  0  0  0
  127.5000  125.8236   72.7976 H   0  0  0  0  0  0  0  0  0  0  0  0
  130.1189  129.3935   71.3378 H   0  0  0  0  0  0  0  0  0  0  0  0
  130.4958  129.3398   68.8828 H   0  0  0  0  0  0  0  0  0  0  0  0
  126.6703  129.1110   62.3019 H   0  0  0  0  0  0  0  0  0  0  0  0
  126.8760  127.7390   63.5091 H   0  0  0  0  0  0  0  0  0  0  0  0
  125.7750  127.7140   65.2330 H   0  0  0  0  0  0  0  0  0  0  0  0
  125.8195  128.5014   68.0666 H   0  0  0  0  0  0  0  0  0  0  0  0
  123.6305  129.3414   69.3699 H   0  0  0  0  0  0  0  0  0  0  0  0
  130.4739  123.6184   65.2927 H   0  0  0  0  0  0  0  0  0  0  0  0
  131.9567  121.8984   64.2996 H   0  0  0  0  0  0  0  0  0  0  0  0
  1  2  1  0
  2  3  1  0
  3  4  2  0
  4  5  1  0
  5  6  2  0
  6  7  1  0
  7  8  2  0
  8  9  1  0
  9 10  1  0
 10 11  2  0
 11 12  1  0
 12 13  2  0
 13 14  1  0
 14 15  1  0
 13 16  1  0
 16 17  2  0
  9 18  2  0
 18 19  1  0
 19 20  3  0
 18 21  1  0
 21 22  1  0
 22 23  1  0
 23 24  1  0
 24 25  2  0
 24 26  1  0
 26 27  1  0
 27 28  1  0
 28 29  2  0
 29 30  1  0
 30 31  1  0
 21 32  2  0
  6 33  1  0
 33 34  2  0
 34  3  1  0
 32  7  1  0
 17 10  1  0
 31 27  2  0
  1 35  1  0
  1 36  1  0
  1 37  1  0
  4 38  1  0
  5 39  1  0
  8 40  1  0
 11 41  1  0
 12 42  1  0
 15 43  1  0
 15 44  1  0
 15 45  1  0
 16 46  1  0
 17 47  1  0
 23 48  1  0
 23 49  1  0
 26 50  1  0
 28 51  1  0
 29 52  1  0
 33 53  1  0
 34 54  1  0
M  END
>  <Binding energies>  (1) 
[-8.43]

>  <Ligand effiencies>  (1) 
[-0.24085714285714285]

>  <Interactions>  (1) 
["V-B:ARG:545:CG:9893, V-A:GLU:543:CB:4905, V-B:GLU:543:CB:9877, V-A:GLU:543:CG:4906, V-B:GLU:543:CD:9879, V-B:HIS:456:CE1:9040, H-A:GLY:454:N:4049, V-A:HIS:456:CE1:4069, V-A:GLU:543:CD:4907, V-A:GLY:454:CA:4048, V-B:ARG:545:CZ:9897, H-B:TYR:484:OH:9318, V-B:ARG:545:CD:9894, H-B:GLY:454:N:9020, V-A:ARG:545:CZ:4925, V-A:ASP:366:CG:3212, H-B:ILE:455:N:9025, H-B:ARG:545:NE:9895, V-A:ILE:369:CG2:3236, V-A:LEU:475:CD2:4258, V-B:ARG:545:CB:9892, H-B:GLU:543:OE2:9881, V-A:ILE:369:CD1:3238, H-B:GLU:543:OE1:9880, V-B:LYS:547:CE:9921, V-B:ILE:455:C:9022"]

$$$$
1b_Grossjean_2025
     RDKit          3D

 42 43  0  0  0  0  0  0  0  0999 V2000
  123.8480  129.2630   65.9710 C   0  0  0  0  0  0  0  0  0  0  0  0
  124.1090  129.8710   67.2290 O   0  0  0  0  0  0  0  0  0  0  0  0
  124.6040  129.1470   68.2650 C   0  0  0  0  0  0  0  0  0  0  0  0
  123.9480  128.8670   69.2740 O   0  0  0  0  0  0  0  0  0  0  0  0
  126.0270  128.7120   68.0600 C   0  0  0  0  0  0  0  0  0  0  0  0
  126.8370  129.2710   67.0600 C   0  0  0  0  0  0  0  0  0  0  0  0
  128.1510  128.8450   66.8960 C   0  0  0  0  0  0  0  0  0  0  0  0
  128.6840  127.8560   67.7230 C   0  0  0  0  0  0  0  0  0  0  0  0
  130.0230  127.5030   67.4650 N   0  0  0  0  0  0  0  0  0  0  0  0
  130.6360  126.3020   67.5430 C   0  0  0  0  0  0  0  0  0  0  0  0
  130.0990  125.2440   67.8670 O   0  0  0  0  0  0  0  0  0  0  0  0
  132.1220  126.3010   67.1790 C   0  0  0  0  0  0  0  0  0  0  0  0
  132.3870  126.2230   65.3820 S   0  0  0  0  0  0  0  0  0  0  0  0
  131.8830  124.6040   64.8400 C   0  0  0  0  0  0  0  0  0  0  0  0
  130.7560  124.1520   65.4450 N   0  0  0  0  0  0  0  0  0  0  0  0
  130.2820  122.9310   65.1060 C   0  0  0  0  0  0  0  0  0  0  0  0
  129.0100  122.4970   65.8120 C   0  0  0  0  0  0  0  0  0  0  0  0
  130.9120  122.1130   64.1700 C   0  0  0  0  0  0  0  0  0  0  0  0
  132.0860  122.5610   63.5570 C   0  0  0  0  0  0  0  0  0  0  0  0
  132.7670  121.6410   62.5460 C   0  0  0  0  0  0  0  0  0  0  0  0
  132.6000  123.8340   63.8950 C   0  0  0  0  0  0  0  0  0  0  0  0
  133.8530  124.3050   63.3000 C   0  0  0  0  0  0  0  0  0  0  0  0
  134.8420  124.6750   62.8280 N   0  0  0  0  0  0  0  0  0  0  0  0
  127.8810  127.2920   68.7250 C   0  0  0  0  0  0  0  0  0  0  0  0
  126.5660  127.7200   68.8890 C   0  0  0  0  0  0  0  0  0  0  0  0
  123.4186  128.2627   66.1292 H   0  0  0  0  0  0  0  0  0  0  0  0
  123.1364  129.8822   65.4051 H   0  0  0  0  0  0  0  0  0  0  0  0
  124.7870  129.1736   65.4051 H   0  0  0  0  0  0  0  0  0  0  0  0
  126.4299  130.0519   66.4008 H   0  0  0  0  0  0  0  0  0  0  0  0
  128.7749  129.2916   66.1078 H   0  0  0  0  0  0  0  0  0  0  0  0
  130.6060  128.2810   67.1910 H   0  0  0  0  0  0  0  0  0  0  0  0
  132.5823  127.2222   67.5656 H   0  0  0  0  0  0  0  0  0  0  0  0
  132.5796  125.4070   67.6276 H   0  0  0  0  0  0  0  0  0  0  0  0
  129.1592  122.5479   66.9006 H   0  0  0  0  0  0  0  0  0  0  0  0
  128.1845  123.1643   65.5235 H   0  0  0  0  0  0  0  0  0  0  0  0
  128.7646  121.4643   65.5235 H   0  0  0  0  0  0  0  0  0  0  0  0
  130.4915  121.1286   63.9170 H   0  0  0  0  0  0  0  0  0  0  0  0
  133.3390  120.8683   63.0806 H   0  0  0  0  0  0  0  0  0  0  0  0
  132.0044  121.1617   61.9146 H   0  0  0  0  0  0  0  0  0  0  0  0
  133.4482  122.2304   61.9146 H   0  0  0  0  0  0  0  0  0  0  0  0
  128.2904  126.5106   69.3822 H   0  0  0  0  0  0  0  0  0  0  0  0
  125.9435  127.2739   69.6786 H   0  0  0  0  0  0  0  0  0  0  0  0
  1  2  1  0
  2  3  1  0
  3  4  2  0
  3  5  1  0
  5  6  2  0
  6  7  1  0
  7  8  2  0
  8  9  1  0
  9 10  1  0
 10 11  2  0
 10 12  1  0
 12 13  1  0
 13 14  1  0
 14 15  2  0
 15 16  1  0
 16 17  1  0
 16 18  2  0
 18 19  1  0
 19 20  1  0
 19 21  2  0
 21 22  1  0
 22 23  3  0
  8 24  1  0
 24 25  2  0
 25  5  1  0
 21 14  1  0
  1 26  1  0
  1 27  1  0
  1 28  1  0
  6 29  1  0
  7 30  1  0
  9 31  1  0
 12 32  1  0
 12 33  1  0
 17 34  1  0
 17 35  1  0
 17 36  1  0
 18 37  1  0
 20 38  1  0
 20 39  1  0
 20 40  1  0
 24 41  1  0
 25 42  1  0
M  END
>  <Binding energies>  (1) 
[-7.36]

>  <Ligand effiencies>  (1) 
[-0.2830769230769231]

>  <Interactions>  (1) 
["V-B:ARG:545:CG:9893, V-B:GLU:543:CB:9877, V-B:GLU:543:CD:9879, V-B:HIS:456:CE1:9040, H-A:GLY:454:N:4049, V-A:HIS:456:CE1:4069, V-A:GLU:543:CD:4907, V-A:GLY:454:CA:4048, V-B:ARG:545:CZ:9897, H-B:TYR:484:OH:9318, H-A:ARG:545:NH2:4927, V-B:ARG:545:CD:9894, H-B:GLY:454:N:9020, V-B:TYR:484:CZ:9317, V-A:TYR:484:CZ:4346, V-B:ALA:541:CB:9863, H-A:ARG:545:NE:4923, H-A:TYR:484:OH:4347, V-B:GLU:543:CG:9878, V-A:TYR:484:CE2:4345, V-A:LEU:475:CD2:4258, V-A:GLY:453:C:4041, H-B:HIS:456:ND1:9037, V-A:LEU:475:CD1:4257, H-A:GLU:543:OE1:4908"]

$$$$
1c_Ghoteimi_2023
     RDKit          3D

 54 57  0  0  0  0  0  0  0  0999 V2000
  135.1140  125.5220   67.2530 C   0  0  0  0  0  0  0  0  0  0  0  0
  134.2250  125.7850   66.1720 O   0  0  0  0  0  0  0  0  0  0  0  0
  132.9300  126.1830   66.4440 C   0  0  0  0  0  0  0  0  0  0  0  0
  132.6740  126.6380   67.7350 C   0  0  0  0  0  0  0  0  0  0  0  0
  131.3960  127.0560   68.0970 C   0  0  0  0  0  0  0  0  0  0  0  0
  130.3350  127.0300   67.1790 C   0  0  0  0  0  0  0  0  0  0  0  0
  128.9550  127.4750   67.5670 C   0  0  0  0  0  0  0  0  0  0  0  0
  128.1660  128.2930   66.7510 C   0  0  0  0  0  0  0  0  0  0  0  0
  126.8740  128.6600   67.1440 C   0  0  0  0  0  0  0  0  0  0  0  0
  126.0640  129.4780   66.1940 C   0  0  0  0  0  0  0  0  0  0  0  0
  124.8400  129.0060   65.7120 C   0  0  0  0  0  0  0  0  0  0  0  0
  124.0970  129.7600   64.8100 C   0  0  0  0  0  0  0  0  0  0  0  0
  124.5640  130.9980   64.3680 C   0  0  0  0  0  0  0  0  0  0  0  0
  123.7600  131.6780   63.4730 O   0  0  0  0  0  0  0  0  0  0  0  0
  122.9840  130.9380   62.5360 C   0  0  0  0  0  0  0  0  0  0  0  0
  125.7960  131.4740   64.8450 C   0  0  0  0  0  0  0  0  0  0  0  0
  126.5370  130.7160   65.7470 C   0  0  0  0  0  0  0  0  0  0  0  0
  126.3980  128.2090   68.3970 C   0  0  0  0  0  0  0  0  0  0  0  0
  125.0650  128.5860   68.8810 C   0  0  0  0  0  0  0  0  0  0  0  0
  124.0140  128.8850   69.2620 N   0  0  0  0  0  0  0  0  0  0  0  0
  127.2380  127.3730   69.1620 C   0  0  0  0  0  0  0  0  0  0  0  0
  126.7060  126.5970   70.6730 S   0  0  0  0  0  0  0  0  0  0  0  0
  128.2130  126.4780   71.6900 C   0  0  0  0  0  0  0  0  0  0  0  0
  127.9540  126.8510   73.1540 C   0  0  0  0  0  0  0  0  0  0  0  0
  128.8830  126.8260   73.9620 O   0  0  0  0  0  0  0  0  0  0  0  0
  126.6880  127.2310   73.4350 N   0  0  0  0  0  0  0  0  0  0  0  0
  126.2280  127.7590   74.6310 C   0  0  0  0  0  0  0  0  0  0  0  0
  126.9370  128.2780   75.6110 N   0  0  0  0  0  0  0  0  0  0  0  0
  126.1650  128.7230   76.5830 C   0  0  0  0  0  0  0  0  0  0  0  0
  124.7940  128.5690   76.4000 C   0  0  0  0  0  0  0  0  0  0  0  0
  124.5110  127.7960   74.8690 S   0  0  0  0  0  0  0  0  0  0  0  0
  128.4770  127.0110   68.7520 N   0  0  0  0  0  0  0  0  0  0  0  0
  130.6070  126.5760   65.8800 C   0  0  0  0  0  0  0  0  0  0  0  0
  131.8820  126.1560   65.5130 C   0  0  0  0  0  0  0  0  0  0  0  0
  134.5880  125.6776   68.2065 H   0  0  0  0  0  0  0  0  0  0  0  0
  135.4656  124.4814   67.1938 H   0  0  0  0  0  0  0  0  0  0  0  0
  135.9751  126.2039   67.1938 H   0  0  0  0  0  0  0  0  0  0  0  0
  133.4877  126.6674   68.4746 H   0  0  0  0  0  0  0  0  0  0  0  0
  131.2148  127.4132   69.1215 H   0  0  0  0  0  0  0  0  0  0  0  0
  128.5653  128.6513   65.7907 H   0  0  0  0  0  0  0  0  0  0  0  0
  124.4611  128.0298   66.0489 H   0  0  0  0  0  0  0  0  0  0  0  0
  123.1336  129.3772   64.4422 H   0  0  0  0  0  0  0  0  0  0  0  0
  122.2903  130.2765   63.0757 H   0  0  0  0  0  0  0  0  0  0  0  0
  122.4113  131.6329   61.9043 H   0  0  0  0  0  0  0  0  0  0  0  0
  123.6509  130.3329   61.9043 H   0  0  0  0  0  0  0  0  0  0  0  0
  126.1764  132.4485   64.5049 H   0  0  0  0  0  0  0  0  0  0  0  0
  127.5035  131.0941   66.1116 H   0  0  0  0  0  0  0  0  0  0  0  0
  128.5877  125.4446   71.6486 H   0  0  0  0  0  0  0  0  0  0  0  0
  128.9502  127.1874   71.2859 H   0  0  0  0  0  0  0  0  0  0  0  0
  126.0160  127.1990   72.6840 H   0  0  0  0  0  0  0  0  0  0  0  0
  126.5813  129.1898   77.4878 H   0  0  0  0  0  0  0  0  0  0  0  0
  124.0153  128.8853   77.1096 H   0  0  0  0  0  0  0  0  0  0  0  0
  129.7965  126.5515   65.1367 H   0  0  0  0  0  0  0  0  0  0  0  0
  132.0683  125.8015   64.4885 H   0  0  0  0  0  0  0  0  0  0  0  0
  1  2  1  0
  2  3  1  0
  3  4  2  0
  4  5  1  0
  5  6  2  0
  6  7  1  0
  7  8  2  0
  8  9  1  0
  9 10  1  0
 10 11  2  0
 11 12  1  0
 12 13  2  0
 13 14  1  0
 14 15  1  0
 13 16  1  0
 16 17  2  0
  9 18  2  0
 18 19  1  0
 19 20  3  0
 18 21  1  0
 21 22  1  0
 22 23  1  0
 23 24  1  0
 24 25  2  0
 24 26  1  0
 26 27  1  0
 27 28  2  0
 28 29  1  0
 29 30  2  0
 30 31  1  0
 21 32  2  0
  6 33  1  0
 33 34  2  0
 34  3  1  0
 32  7  1  0
 17 10  1  0
 31 27  1  0
  1 35  1  0
  1 36  1  0
  1 37  1  0
  4 38  1  0
  5 39  1  0
  8 40  1  0
 11 41  1  0
 12 42  1  0
 15 43  1  0
 15 44  1  0
 15 45  1  0
 16 46  1  0
 17 47  1  0
 23 48  1  0
 23 49  1  0
 26 50  1  0
 29 51  1  0
 30 52  1  0
 33 53  1  0
 34 54  1  0
M  END
>  <Binding energies>  (1) 
[-9.11]

>  <Ligand effiencies>  (1) 
[-0.2602857142857143]

>  <Interactions>  (1) 
["V-B:ARG:545:CG:9893, V-B:GLU:543:CB:9877, V-B:GLU:543:CD:9879, V-B:HIS:456:CE1:9040, H-A:GLY:454:N:4049, V-A:HIS:456:CE1:4069, V-A:GLU:543:CD:4907, V-A:GLY:454:CA:4048, V-B:ARG:545:CZ:9897, H-B:TYR:484:OH:9318, H-B:GLY:454:N:9020, V-B:TYR:484:CZ:9317, V-A:ARG:545:CZ:4925, V-A:GLY:453:CA:4043, V-A:ARG:545:CD:4922, V-A:ARG:545:CG:4921, V-B:GLY:544:C:9883, H-A:ARG:545:NE:4923, H-A:TYR:484:OH:4347, H-B:ARG:545:N:9891, V-B:GLY:453:CA:9014, V-B:ARG:545:CA:9890, V-B:ARG:545:CB:9892, V-B:GLY:454:CA:9019, V-A:GLY:453:C:4041, H-B:HIS:456:ND1:9037, V-B:LYS:547:CE:9921, H-B:LYS:547:NZ:9922, V-A:ILE:455:C:4051, V-A:GLY:454:C:4046, H-B:GLY:544:O:9884, V-B:HIS:456:CG:9036, V-B:HIS:456:CD2:9038, V-B:HIS:456:CB:9035, V-B:LYS:547:CD:9920, H-B:HIS:456:NE2:9041, V-B:VAL:458:CG2:9057"]

$$$$
1c_Grossjean_2025
     RDKit          3D

 40 41  0  0  0  0  0  0  0  0999 V2000
  133.6970  124.8920   63.0400 C   0  0  0  0  0  0  0  0  0  0  0  0
  134.1000  125.1280   64.3850 O   0  0  0  0  0  0  0  0  0  0  0  0
  133.1850  125.6450   65.2810 C   0  0  0  0  0  0  0  0  0  0  0  0
  131.8700  125.7610   64.8300 C   0  0  0  0  0  0  0  0  0  0  0  0
  130.8750  126.2690   65.6600 C   0  0  0  0  0  0  0  0  0  0  0  0
  131.1880  126.6650   66.9690 C   0  0  0  0  0  0  0  0  0  0  0  0
  130.2640  127.2010   67.8870 N   0  0  0  0  0  0  0  0  0  0  0  0
  130.4540  128.1210   68.8570 C   0  0  0  0  0  0  0  0  0  0  0  0
  131.5180  128.6890   69.1040 O   0  0  0  0  0  0  0  0  0  0  0  0
  129.2170  128.4620   69.6890 C   0  0  0  0  0  0  0  0  0  0  0  0
  127.7450  127.5650   69.1130 S   0  0  0  0  0  0  0  0  0  0  0  0
  127.2060  128.2950   67.5800 C   0  0  0  0  0  0  0  0  0  0  0  0
  128.1720  128.3240   66.6270 N   0  0  0  0  0  0  0  0  0  0  0  0
  127.8790  128.8580   65.4180 C   0  0  0  0  0  0  0  0  0  0  0  0
  129.0060  128.8460   64.4020 C   0  0  0  0  0  0  0  0  0  0  0  0
  126.6280  129.3880   65.1150 C   0  0  0  0  0  0  0  0  0  0  0  0
  125.6320  129.3850   66.0960 C   0  0  0  0  0  0  0  0  0  0  0  0
  124.2730  129.9880   65.7450 C   0  0  0  0  0  0  0  0  0  0  0  0
  125.9160  128.8350   67.3680 C   0  0  0  0  0  0  0  0  0  0  0  0
  124.9030  128.8730   68.4260 C   0  0  0  0  0  0  0  0  0  0  0  0
  124.1030  128.9030   69.2610 N   0  0  0  0  0  0  0  0  0  0  0  0
  132.5050  126.5610   67.4200 C   0  0  0  0  0  0  0  0  0  0  0  0
  133.4970  126.0530   66.5870 C   0  0  0  0  0  0  0  0  0  0  0  0
  132.7478  124.3361   63.0338 H   0  0  0  0  0  0  0  0  0  0  0  0
  133.5621  125.8538   62.5235 H   0  0  0  0  0  0  0  0  0  0  0  0
  134.4698  124.3037   62.5235 H   0  0  0  0  0  0  0  0  0  0  0  0
  131.6166  125.4473   63.8066 H   0  0  0  0  0  0  0  0  0  0  0  0
  129.8432  126.3600   65.2897 H   0  0  0  0  0  0  0  0  0  0  0  0
  129.3170  126.8770   67.7600 H   0  0  0  0  0  0  0  0  0  0  0  0
  129.4091  128.1937   70.7383 H   0  0  0  0  0  0  0  0  0  0  0  0
  129.0223  129.5396   69.5847 H   0  0  0  0  0  0  0  0  0  0  0  0
  129.9727  128.8357   64.9268 H   0  0  0  0  0  0  0  0  0  0  0  0
  128.9216  127.9487   63.7713 H   0  0  0  0  0  0  0  0  0  0  0  0
  128.9407  129.7449   63.7713 H   0  0  0  0  0  0  0  0  0  0  0  0
  126.4258  129.8037   64.1168 H   0  0  0  0  0  0  0  0  0  0  0  0
  123.7290  130.2294   66.6701 H   0  0  0  0  0  0  0  0  0  0  0  0
  124.4200  130.9054   65.1561 H   0  0  0  0  0  0  0  0  0  0  0  0
  123.6914  129.2635   65.1561 H   0  0  0  0  0  0  0  0  0  0  0  0
  132.7602  126.8827   68.4405 H   0  0  0  0  0  0  0  0  0  0  0  0
  134.5307  125.9708   66.9539 H   0  0  0  0  0  0  0  0  0  0  0  0
  1  2  1  0
  2  3  1  0
  3  4  2  0
  4  5  1  0
  5  6  2  0
  6  7  1  0
  7  8  1  0
  8  9  2  0
  8 10  1  0
 10 11  1  0
 11 12  1  0
 12 13  2  0
 13 14  1  0
 14 15  1  0
 14 16  2  0
 16 17  1  0
 17 18  1  0
 17 19  2  0
 19 20  1  0
 20 21  3  0
  6 22  1  0
 22 23  2  0
 23  3  1  0
 19 12  1  0
  1 24  1  0
  1 25  1  0
  1 26  1  0
  4 27  1  0
  5 28  1  0
  7 29  1  0
 10 30  1  0
 10 31  1  0
 15 32  1  0
 15 33  1  0
 15 34  1  0
 16 35  1  0
 18 36  1  0
 18 37  1  0
 18 38  1  0
 22 39  1  0
 23 40  1  0
M  END
>  <Binding energies>  (1) 
[-6.68]

>  <Ligand effiencies>  (1) 
[-0.2783333333333333]

>  <Interactions>  (1) 
["V-B:ARG:545:CG:9893, V-A:GLU:543:CB:4905, V-B:GLU:543:CD:9879, V-B:HIS:456:CE1:9040, H-A:GLY:454:N:4049, V-A:HIS:456:CE1:4069, H-A:ARG:545:NH1:4926, V-A:GLU:543:CD:4907, V-B:ARG:545:CZ:9897, H-B:TYR:484:OH:9318, H-A:ARG:545:NH2:4927, V-A:ARG:545:CZ:4925, V-A:ASP:366:CG:3212, V-A:ARG:545:CD:4922, V-A:ARG:545:CG:4921, V-B:GLY:454:CA:9019, H-B:GLU:543:OE2:9881, H-B:HIS:456:ND1:9037"]

$$$$
1d_Ghoteimi_2023
     RDKit          3D

 50 52  0  0  0  0  0  0  0  0999 V2000
  124.6700  129.3380   64.3190 C   0  0  0  0  0  0  0  0  0  0  0  0
  124.0840  130.0330   65.4090 O   0  0  0  0  0  0  0  0  0  0  0  0
  124.0170  129.4610   66.6290 C   0  0  0  0  0  0  0  0  0  0  0  0
  123.1190  129.6160   67.4580 O   0  0  0  0  0  0  0  0  0  0  0  0
  125.2160  128.5600   66.9140 C   0  0  0  0  0  0  0  0  0  0  0  0
  126.6970  129.6130   66.9390 S   0  0  0  0  0  0  0  0  0  0  0  0
  128.0540  128.5910   67.4700 C   0  0  0  0  0  0  0  0  0  0  0  0
  128.0860  128.3780   68.8070 N   0  0  0  0  0  0  0  0  0  0  0  0
  129.0720  127.6170   69.3480 C   0  0  0  0  0  0  0  0  0  0  0  0
  129.0320  127.4260   70.8370 C   0  0  0  0  0  0  0  0  0  0  0  0
  129.7120  128.2980   71.7020 C   0  0  0  0  0  0  0  0  0  0  0  0
  129.6790  128.1150   73.0810 C   0  0  0  0  0  0  0  0  0  0  0  0
  128.9680  127.0550   73.6390 C   0  0  0  0  0  0  0  0  0  0  0  0
  128.9940  126.9490   75.0170 O   0  0  0  0  0  0  0  0  0  0  0  0
  130.2370  127.0760   75.6980 C   0  0  0  0  0  0  0  0  0  0  0  0
  128.2850  126.1750   72.7890 C   0  0  0  0  0  0  0  0  0  0  0  0
  128.3190  126.3620   71.4100 C   0  0  0  0  0  0  0  0  0  0  0  0
  130.0540  127.0390   68.5350 C   0  0  0  0  0  0  0  0  0  0  0  0
  130.0530  127.2550   67.1520 C   0  0  0  0  0  0  0  0  0  0  0  0
  131.1360  126.6140   66.3440 C   0  0  0  0  0  0  0  0  0  0  0  0
  130.8450  126.0550   65.0960 C   0  0  0  0  0  0  0  0  0  0  0  0
  131.8480  125.4560   64.3390 C   0  0  0  0  0  0  0  0  0  0  0  0
  133.1600  125.4090   64.8090 C   0  0  0  0  0  0  0  0  0  0  0  0
  134.0870  124.7890   63.9940 O   0  0  0  0  0  0  0  0  0  0  0  0
  133.8480  124.7250   62.5920 C   0  0  0  0  0  0  0  0  0  0  0  0
  133.4590  125.9800   66.0560 C   0  0  0  0  0  0  0  0  0  0  0  0
  132.4540  126.5790   66.8110 C   0  0  0  0  0  0  0  0  0  0  0  0
  129.0370  128.0720   66.5970 C   0  0  0  0  0  0  0  0  0  0  0  0
  129.0480  128.4160   65.1720 C   0  0  0  0  0  0  0  0  0  0  0  0
  129.0570  128.6870   64.0470 N   0  0  0  0  0  0  0  0  0  0  0  0
  125.3348  128.5496   64.7017 H   0  0  0  0  0  0  0  0  0  0  0  0
  123.8780  128.8839   63.7053 H   0  0  0  0  0  0  0  0  0  0  0  0
  125.2513  130.0419   63.7053 H   0  0  0  0  0  0  0  0  0  0  0  0
  125.0906  128.0650   67.8883 H   0  0  0  0  0  0  0  0  0  0  0  0
  125.3074  127.7812   66.1426 H   0  0  0  0  0  0  0  0  0  0  0  0
  130.2809  129.1407   71.2822 H   0  0  0  0  0  0  0  0  0  0  0  0
  130.2193  128.8138   73.7365 H   0  0  0  0  0  0  0  0  0  0  0  0
  130.0635  127.0583   76.7841 H   0  0  0  0  0  0  0  0  0  0  0  0
  130.8954  126.2405   75.4182 H   0  0  0  0  0  0  0  0  0  0  0  0
  130.7129  128.0274   75.4182 H   0  0  0  0  0  0  0  0  0  0  0  0
  127.7193  125.3325   73.2134 H   0  0  0  0  0  0  0  0  0  0  0  0
  127.7766  125.6623   70.7571 H   0  0  0  0  0  0  0  0  0  0  0  0
  130.8340  126.4089   68.9873 H   0  0  0  0  0  0  0  0  0  0  0  0
  129.8157  126.0888   64.7094 H   0  0  0  0  0  0  0  0  0  0  0  0
  131.6033  125.0157   63.3611 H   0  0  0  0  0  0  0  0  0  0  0  0
  132.7999  124.4443   62.4112 H   0  0  0  0  0  0  0  0  0  0  0  0
  134.0474  125.7082   62.1408 H   0  0  0  0  0  0  0  0  0  0  0  0
  134.5120  123.9730   62.1408 H   0  0  0  0  0  0  0  0  0  0  0  0
  134.4903  125.9542   66.4379 H   0  0  0  0  0  0  0  0  0  0  0  0
  132.6990  127.0291   67.7843 H   0  0  0  0  0  0  0  0  0  0  0  0
  1  2  1  0
  2  3  1  0
  3  4  2  0
  3  5  1  0
  5  6  1  0
  6  7  1  0
  7  8  2  0
  8  9  1  0
  9 10  1  0
 10 11  2  0
 11 12  1  0
 12 13  2  0
 13 14  1  0
 14 15  1  0
 13 16  1  0
 16 17  2  0
  9 18  2  0
 18 19  1  0
 19 20  1  0
 20 21  2  0
 21 22  1  0
 22 23  2  0
 23 24  1  0
 24 25  1  0
 23 26  1  0
 26 27  2  0
 19 28  2  0
 28 29  1  0
 29 30  3  0
 28  7  1  0
 17 10  1  0
 27 20  1  0
  1 31  1  0
  1 32  1  0
  1 33  1  0
  5 34  1  0
  5 35  1  0
 11 36  1  0
 12 37  1  0
 15 38  1  0
 15 39  1  0
 15 40  1  0
 16 41  1  0
 17 42  1  0
 18 43  1  0
 21 44  1  0
 22 45  1  0
 25 46  1  0
 25 47  1  0
 25 48  1  0
 26 49  1  0
 27 50  1  0
M  END
>  <Binding energies>  (1) 
[-7.99]

>  <Ligand effiencies>  (1) 
[-0.26633333333333337]

>  <Interactions>  (1) 
["V-B:ARG:545:CG:9893, V-A:GLU:543:CG:4906, V-B:GLU:543:CD:9879, V-B:HIS:456:CE1:9040, H-A:GLY:454:N:4049, V-A:HIS:456:CE1:4069, V-A:GLU:543:CD:4907, V-B:ARG:545:CZ:9897, H-B:TYR:484:OH:9318, V-B:ARG:545:CD:9894, H-B:GLY:454:N:9020, V-A:ARG:545:CZ:4925, V-A:ASP:366:CG:3212, V-A:ARG:545:CD:4922, V-A:ARG:545:CG:4921, H-B:ILE:455:N:9025, V-A:ILE:369:CD1:3238, H-B:LYS:547:NZ:9922"]

$$$$
1d_Grossjean_2025
     RDKit          3D

 36 37  0  0  0  0  0  0  0  0999 V2000
  121.0750  130.7500   62.1160 C   0  0  0  0  0  0  0  0  0  0  0  0
  122.4220  131.1580   62.6810 C   0  0  0  0  0  0  0  0  0  0  0  0
  123.0260  132.3630   62.3310 C   0  0  0  0  0  0  0  0  0  0  0  0
  124.2650  132.6920   62.8910 C   0  0  0  0  0  0  0  0  0  0  0  0
  124.9000  134.0260   62.5040 C   0  0  0  0  0  0  0  0  0  0  0  0
  124.8770  131.7900   63.7920 C   0  0  0  0  0  0  0  0  0  0  0  0
  126.1510  132.1340   64.4270 C   0  0  0  0  0  0  0  0  0  0  0  0
  127.1570  132.4090   64.9280 N   0  0  0  0  0  0  0  0  0  0  0  0
  124.2030  130.5780   64.0710 C   0  0  0  0  0  0  0  0  0  0  0  0
  124.8270  129.3310   65.1770 S   0  0  0  0  0  0  0  0  0  0  0  0
  123.7660  129.3350   66.6540 C   0  0  0  0  0  0  0  0  0  0  0  0
  124.5340  128.9420   67.9160 C   0  0  0  0  0  0  0  0  0  0  0  0
  124.1320  129.3360   69.0110 O   0  0  0  0  0  0  0  0  0  0  0  0
  125.6090  128.1500   67.7160 N   0  0  0  0  0  0  0  0  0  0  0  0
  126.5310  127.6280   68.6420 C   0  0  0  0  0  0  0  0  0  0  0  0
  125.9760  126.9950   69.7580 C   0  0  0  0  0  0  0  0  0  0  0  0
  126.7980  126.4390   70.7330 C   0  0  0  0  0  0  0  0  0  0  0  0
  128.1820  126.5090   70.5900 C   0  0  0  0  0  0  0  0  0  0  0  0
  128.7490  127.1290   69.4790 C   0  0  0  0  0  0  0  0  0  0  0  0
  127.9280  127.6870   68.5030 C   0  0  0  0  0  0  0  0  0  0  0  0
  122.9910  130.2780   63.5390 N   0  0  0  0  0  0  0  0  0  0  0  0
  120.3796  130.5394   62.9418 H   0  0  0  0  0  0  0  0  0  0  0  0
  120.6739  131.5669   61.4982 H   0  0  0  0  0  0  0  0  0  0  0  0
  121.1946  129.8478   61.4982 H   0  0  0  0  0  0  0  0  0  0  0  0
  122.5352  133.0473   61.6233 H   0  0  0  0  0  0  0  0  0  0  0  0
  125.1654  134.5835   63.4143 H   0  0  0  0  0  0  0  0  0  0  0  0
  125.8069  133.8416   61.9095 H   0  0  0  0  0  0  0  0  0  0  0  0
  124.1850  134.6137   61.9095 H   0  0  0  0  0  0  0  0  0  0  0  0
  123.3525  130.3451   66.7908 H   0  0  0  0  0  0  0  0  0  0  0  0
  122.9678  128.5941   66.4992 H   0  0  0  0  0  0  0  0  0  0  0  0
  125.7830  127.8710   66.7610 H   0  0  0  0  0  0  0  0  0  0  0  0
  124.8829  126.9362   69.8659 H   0  0  0  0  0  0  0  0  0  0  0  0
  126.3574  125.9466   71.6124 H   0  0  0  0  0  0  0  0  0  0  0  0
  128.8327  126.0709   71.3611 H   0  0  0  0  0  0  0  0  0  0  0  0
  129.8428  127.1776   69.3731 H   0  0  0  0  0  0  0  0  0  0  0  0
  128.3730  128.1742   67.6229 H   0  0  0  0  0  0  0  0  0  0  0  0
  1  2  1  0
  2  3  2  0
  3  4  1  0
  4  5  1  0
  4  6  2  0
  6  7  1  0
  7  8  3  0
  6  9  1  0
  9 10  1  0
 10 11  1  0
 11 12  1  0
 12 13  2  0
 12 14  1  0
 14 15  1  0
 15 16  2  0
 16 17  1  0
 17 18  2  0
 18 19  1  0
 19 20  2  0
  9 21  2  0
 21  2  1  0
 20 15  1  0
  1 22  1  0
  1 23  1  0
  1 24  1  0
  3 25  1  0
  5 26  1  0
  5 27  1  0
  5 28  1  0
 11 29  1  0
 11 30  1  0
 14 31  1  0
 16 32  1  0
 17 33  1  0
 18 34  1  0
 19 35  1  0
 20 36  1  0
M  END
>  <Binding energies>  (1) 
[-6.99]

>  <Ligand effiencies>  (1) 
[-0.31772727272727275]

>  <Interactions>  (1) 
["V-B:ARG:545:CG:9893, V-B:GLU:543:CB:9877, V-B:GLU:543:CD:9879, V-B:HIS:456:CE1:9040, V-B:SER:385:CB:8379, H-B:ARG:545:NH2:9899, V-A:HIS:456:CE1:4069, V-B:LEU:475:CD1:9228, V-B:ARG:545:CZ:9897, H-B:TYR:484:OH:9318, V-B:ARG:545:CD:9894, H-B:GLY:454:N:9020, V-B:ASP:366:CG:8183, V-B:ILE:369:CG1:8208, V-B:GLU:543:C:9873, V-B:GLY:544:C:9883, H-B:ARG:545:NH1:9898, H-B:ARG:545:NE:9895, V-B:GLY:453:C:9012, V-B:GLY:453:CA:9014, V-B:ARG:545:CA:9890, V-B:ARG:545:CB:9892, V-B:GLY:454:CA:9019, H-B:GLU:543:OE2:9881, V-B:ASP:366:CA:8180, H-B:GLU:543:OE1:9880, H-B:HIS:456:ND1:9037, V-B:GLY:544:CA:9885"]

$$$$
1e_Grossjean_2025
     RDKit          3D

 38 39  0  0  0  0  0  0  0  0999 V2000
  122.6040  130.7300   62.4890 C   0  0  0  0  0  0  0  0  0  0  0  0
  123.7870  131.0710   63.3750 C   0  0  0  0  0  0  0  0  0  0  0  0
  124.7390  132.0190   62.9910 C   0  0  0  0  0  0  0  0  0  0  0  0
  125.8020  132.2790   63.8560 C   0  0  0  0  0  0  0  0  0  0  0  0
  125.8890  131.5930   65.0700 C   0  0  0  0  0  0  0  0  0  0  0  0
  124.8980  130.6590   65.3950 C   0  0  0  0  0  0  0  0  0  0  0  0
  125.0450  129.9920   66.6240 N   0  0  0  0  0  0  0  0  0  0  0  0
  124.0820  129.5620   67.4680 C   0  0  0  0  0  0  0  0  0  0  0  0
  122.8710  129.7040   67.2900 O   0  0  0  0  0  0  0  0  0  0  0  0
  124.5730  128.8780   68.7460 C   0  0  0  0  0  0  0  0  0  0  0  0
  125.6290  127.4420   68.3850 S   0  0  0  0  0  0  0  0  0  0  0  0
  127.0950  127.5450   69.3930 C   0  0  0  0  0  0  0  0  0  0  0  0
  127.0520  126.7470   70.4910 N   0  0  0  0  0  0  0  0  0  0  0  0
  128.1090  126.7420   71.3360 C   0  0  0  0  0  0  0  0  0  0  0  0
  127.9920  125.8210   72.5350 C   0  0  0  0  0  0  0  0  0  0  0  0
  129.2380  127.5320   71.1310 C   0  0  0  0  0  0  0  0  0  0  0  0
  129.2830  128.3760   70.0170 C   0  0  0  0  0  0  0  0  0  0  0  0
  130.5250  129.2460   69.8250 C   0  0  0  0  0  0  0  0  0  0  0  0
  128.1890  128.4010   69.1220 C   0  0  0  0  0  0  0  0  0  0  0  0
  128.1960  129.3220   67.9830 C   0  0  0  0  0  0  0  0  0  0  0  0
  128.2030  130.0500   67.0840 N   0  0  0  0  0  0  0  0  0  0  0  0
  123.8570  130.3970   64.5510 N   0  0  0  0  0  0  0  0  0  0  0  0
  121.7360  130.4798   63.1166 H   0  0  0  0  0  0  0  0  0  0  0  0
  122.3603  131.5945   61.8539 H   0  0  0  0  0  0  0  0  0  0  0  0
  122.8578  129.8685   61.8539 H   0  0  0  0  0  0  0  0  0  0  0  0
  124.6523  132.5473   62.0301 H   0  0  0  0  0  0  0  0  0  0  0  0
  126.5678  133.0203   63.5837 H   0  0  0  0  0  0  0  0  0  0  0  0
  126.7239  131.7839   65.7603 H   0  0  0  0  0  0  0  0  0  0  0  0
  126.0010  129.8710   66.9270 H   0  0  0  0  0  0  0  0  0  0  0  0
  125.1499  129.6035   69.3384 H   0  0  0  0  0  0  0  0  0  0  0  0
  123.6928  128.5223   69.3016 H   0  0  0  0  0  0  0  0  0  0  0  0
  128.0670  126.4118   73.4599 H   0  0  0  0  0  0  0  0  0  0  0  0
  127.0211  125.3048   72.5074 H   0  0  0  0  0  0  0  0  0  0  0  0
  128.8030  125.0784   72.5074 H   0  0  0  0  0  0  0  0  0  0  0  0
  130.0820  127.4924   71.8354 H   0  0  0  0  0  0  0  0  0  0  0  0
  130.9296  129.5294   70.8078 H   0  0  0  0  0  0  0  0  0  0  0  0
  131.2849  128.6817   69.2645 H   0  0  0  0  0  0  0  0  0  0  0  0
  130.2543  130.1530   69.2645 H   0  0  0  0  0  0  0  0  0  0  0  0
  1  2  1  0
  2  3  2  0
  3  4  1  0
  4  5  2  0
  5  6  1  0
  6  7  1  0
  7  8  1  0
  8  9  2  0
  8 10  1  0
 10 11  1  0
 11 12  1  0
 12 13  2  0
 13 14  1  0
 14 15  1  0
 14 16  2  0
 16 17  1  0
 17 18  1  0
 17 19  2  0
 19 20  1  0
 20 21  3  0
  6 22  2  0
 22  2  1  0
 19 12  1  0
  1 23  1  0
  1 24  1  0
  1 25  1  0
  3 26  1  0
  4 27  1  0
  5 28  1  0
  7 29  1  0
 10 30  1  0
 10 31  1  0
 15 32  1  0
 15 33  1  0
 15 34  1  0
 16 35  1  0
 18 36  1  0
 18 37  1  0
 18 38  1  0
M  END
>  <Binding energies>  (1) 
[-7.01]

>  <Ligand effiencies>  (1) 
[-0.30478260869565216]

>  <Interactions>  (1) 
["V-B:ARG:545:CG:9893, V-A:GLU:543:CB:4905, V-B:GLU:543:CB:9877, V-B:HIS:456:CE1:9040, V-A:HIS:456:CE1:4069, V-B:LEU:475:CD1:9228, H-B:TYR:484:OH:9318, V-B:ARG:545:CD:9894, H-B:GLY:454:N:9020, V-B:ASP:366:CG:8183, V-A:GLU:543:C:4901, V-B:TYR:484:CZ:9317, V-B:TYR:484:CE2:9316, V-A:GLU:543:CA:4903, V-B:GLU:543:C:9873, V-B:GLY:544:C:9883, H-B:ILE:455:N:9025, V-B:GLY:453:C:9012, V-B:GLY:453:CA:9014, V-B:ARG:545:CA:9890, V-B:ARG:545:CB:9892, V-B:GLY:454:CA:9019"]

$$$$
1f_Grossjean_2025
     RDKit          3D

 35 36  0  0  0  0  0  0  0  0999 V2000
  129.2720  127.1450   69.0640 C   0  0  0  0  0  0  0  0  0  0  0  0
  128.1400  127.7940   68.2910 C   0  0  0  0  0  0  0  0  0  0  0  0
  126.8980  128.0290   68.8750 C   0  0  0  0  0  0  0  0  0  0  0  0
  125.8880  128.6200   68.1090 C   0  0  0  0  0  0  0  0  0  0  0  0
  124.5280  128.8500   68.7660 C   0  0  0  0  0  0  0  0  0  0  0  0
  126.1540  128.9700   66.7650 C   0  0  0  0  0  0  0  0  0  0  0  0
  125.0920  129.5380   65.9300 C   0  0  0  0  0  0  0  0  0  0  0  0
  124.2520  129.9870   65.2730 N   0  0  0  0  0  0  0  0  0  0  0  0
  127.4520  128.7210   66.2630 C   0  0  0  0  0  0  0  0  0  0  0  0
  127.9710  129.0940   64.6000 S   0  0  0  0  0  0  0  0  0  0  0  0
  128.6460  127.5720   63.8510 C   0  0  0  0  0  0  0  0  0  0  0  0
  130.1400  127.3300   64.1130 C   0  0  0  0  0  0  0  0  0  0  0  0
  130.9750  127.5750   63.2410 O   0  0  0  0  0  0  0  0  0  0  0  0
  130.4210  126.8200   65.3310 N   0  0  0  0  0  0  0  0  0  0  0  0
  131.6640  126.4870   65.9020 C   0  0  0  0  0  0  0  0  0  0  0  0
  132.0060  126.6240   67.2600 C   0  0  0  0  0  0  0  0  0  0  0  0
  133.2810  126.2490   67.6930 C   0  0  0  0  0  0  0  0  0  0  0  0
  134.1830  125.7440   66.7570 C   0  0  0  0  0  0  0  0  0  0  0  0
  133.8760  125.5970   65.4440 N   0  0  0  0  0  0  0  0  0  0  0  0
  132.6340  125.9650   65.0380 C   0  0  0  0  0  0  0  0  0  0  0  0
  128.4180  128.1260   67.0080 N   0  0  0  0  0  0  0  0  0  0  0  0
  129.0871  127.2510   70.1432 H   0  0  0  0  0  0  0  0  0  0  0  0
  129.3282  126.0775   68.8047 H   0  0  0  0  0  0  0  0  0  0  0  0
  130.2217  127.6358   68.8047 H   0  0  0  0  0  0  0  0  0  0  0  0
  126.7138  127.7537   69.9239 H   0  0  0  0  0  0  0  0  0  0  0  0
  124.6413  128.8308   69.8600 H   0  0  0  0  0  0  0  0  0  0  0  0
  124.1315  129.8280   68.4555 H   0  0  0  0  0  0  0  0  0  0  0  0
  123.8320  128.0568   68.4555 H   0  0  0  0  0  0  0  0  0  0  0  0
  128.0854  126.7154   64.2534 H   0  0  0  0  0  0  0  0  0  0  0  0
  128.5388  127.6900   62.7626 H   0  0  0  0  0  0  0  0  0  0  0  0
  129.6270  126.6310   65.9270 H   0  0  0  0  0  0  0  0  0  0  0  0
  131.2739  127.0240   67.9770 H   0  0  0  0  0  0  0  0  0  0  0  0
  133.5670  126.3501   68.7503 H   0  0  0  0  0  0  0  0  0  0  0  0
  135.1872  125.4522   67.0983 H   0  0  0  0  0  0  0  0  0  0  0  0
  132.3764  125.8469   63.9751 H   0  0  0  0  0  0  0  0  0  0  0  0
  1  2  1  0
  2  3  2  0
  3  4  1  0
  4  5  1  0
  4  6  2  0
  6  7  1  0
  7  8  3  0
  6  9  1  0
  9 10  1  0
 10 11  1  0
 11 12  1  0
 12 13  2  0
 12 14  1  0
 14 15  1  0
 15 16  2  0
 16 17  1  0
 17 18  2  0
 18 19  1  0
 19 20  2  0
  9 21  2  0
 21  2  1  0
 20 15  1  0
  1 22  1  0
  1 23  1  0
  1 24  1  0
  3 25  1  0
  5 26  1  0
  5 27  1  0
  5 28  1  0
 11 29  1  0
 11 30  1  0
 14 31  1  0
 16 32  1  0
 17 33  1  0
 18 34  1  0
 20 35  1  0
M  END
>  <Binding energies>  (1) 
[-6.88]

>  <Ligand effiencies>  (1) 
[-0.31272727272727274]

>  <Interactions>  (1) 
["V-B:ARG:545:CG:9893, V-B:GLU:543:CD:9879, V-B:HIS:456:CE1:9040, H-A:GLY:454:N:4049, V-A:HIS:456:CE1:4069, H-A:ARG:545:NH1:4926, V-A:GLU:543:CD:4907, H-A:ARG:545:NH2:4927, V-B:ARG:545:CD:9894, H-B:GLY:454:N:9020, V-A:TYR:484:CZ:4346, V-A:ARG:545:CZ:4925, V-A:ARG:545:CD:4922, V-A:ARG:545:CG:4921, H-A:ARG:545:NE:4923, H-A:TYR:484:OH:4347, V-B:ARG:545:CA:9890, V-B:ARG:545:CB:9892, H-B:GLU:543:OE2:9881, H-A:GLU:543:OE1:4908"]

$$$$
1g_Grossjean_2025
     RDKit          3D

 39 40  0  0  0  0  0  0  0  0999 V2000
  129.3540  126.2480   63.2800 C   0  0  0  0  0  0  0  0  0  0  0  0
  130.6750  126.0930   64.0100 C   0  0  0  0  0  0  0  0  0  0  0  0
  131.8260  125.6640   63.3530 C   0  0  0  0  0  0  0  0  0  0  0  0
  133.0120  125.5240   64.0820 C   0  0  0  0  0  0  0  0  0  0  0  0
  134.2580  125.0380   63.3420 C   0  0  0  0  0  0  0  0  0  0  0  0
  133.0160  125.8270   65.4620 C   0  0  0  0  0  0  0  0  0  0  0  0
  134.2320  125.6370   66.2560 C   0  0  0  0  0  0  0  0  0  0  0  0
  135.1950  125.4850   66.8810 N   0  0  0  0  0  0  0  0  0  0  0  0
  131.8070  126.2800   66.0410 C   0  0  0  0  0  0  0  0  0  0  0  0
  131.6360  126.7140   67.7570 S   0  0  0  0  0  0  0  0  0  0  0  0
  129.8800  126.5280   68.1890 C   0  0  0  0  0  0  0  0  0  0  0  0
  129.0970  127.8240   67.9760 C   0  0  0  0  0  0  0  0  0  0  0  0
  128.9160  128.5980   68.9170 O   0  0  0  0  0  0  0  0  0  0  0  0
  128.6330  128.0410   66.7330 N   0  0  0  0  0  0  0  0  0  0  0  0
  127.9130  129.2360   66.2930 C   0  0  0  0  0  0  0  0  0  0  0  0
  126.4340  129.2520   66.6680 C   0  0  0  0  0  0  0  0  0  0  0  0
  126.0370  128.8790   67.9560 C   0  0  0  0  0  0  0  0  0  0  0  0
  124.6880  128.8930   68.2990 C   0  0  0  0  0  0  0  0  0  0  0  0
  123.7410  129.2860   67.3550 C   0  0  0  0  0  0  0  0  0  0  0  0
  124.1300  129.6630   66.0730 C   0  0  0  0  0  0  0  0  0  0  0  0
  125.4790  129.6470   65.7280 C   0  0  0  0  0  0  0  0  0  0  0  0
  130.6550  126.3910   65.3310 N   0  0  0  0  0  0  0  0  0  0  0  0
  128.5392  126.3436   64.0127 H   0  0  0  0  0  0  0  0  0  0  0  0
  129.3872  127.1484   62.6490 H   0  0  0  0  0  0  0  0  0  0  0  0
  129.1779  125.3644   62.6490 H   0  0  0  0  0  0  0  0  0  0  0  0
  131.8028  125.4386   62.2766 H   0  0  0  0  0  0  0  0  0  0  0  0
  135.0247  124.7390   64.0719 H   0  0  0  0  0  0  0  0  0  0  0  0
  133.9966  124.1759   62.7108 H   0  0  0  0  0  0  0  0  0  0  0  0
  134.6494  125.8494   62.7108 H   0  0  0  0  0  0  0  0  0  0  0  0
  129.4409  125.7403   67.5592 H   0  0  0  0  0  0  0  0  0  0  0  0
  129.8186  126.2654   69.2554 H   0  0  0  0  0  0  0  0  0  0  0  0
  128.8450  127.3630   66.0150 H   0  0  0  0  0  0  0  0  0  0  0  0
  128.3933  130.1147   66.7483 H   0  0  0  0  0  0  0  0  0  0  0  0
  127.9593  129.2447   65.1940 H   0  0  0  0  0  0  0  0  0  0  0  0
  126.7903  128.5747   68.6976 H   0  0  0  0  0  0  0  0  0  0  0  0
  124.3712  128.5955   69.3095 H   0  0  0  0  0  0  0  0  0  0  0  0
  122.6750  129.2983   67.6260 H   0  0  0  0  0  0  0  0  0  0  0  0
  123.3749  129.9723   65.3353 H   0  0  0  0  0  0  0  0  0  0  0  0
  125.7923  129.9450   64.7165 H   0  0  0  0  0  0  0  0  0  0  0  0
  1  2  1  0
  2  3  2  0
  3  4  1  0
  4  5  1  0
  4  6  2  0
  6  7  1  0
  7  8  3  0
  6  9  1  0
  9 10  1  0
 10 11  1  0
 11 12  1  0
 12 13  2  0
 12 14  1  0
 14 15  1  0
 15 16  1  0
 16 17  2  0
 17 18  1  0
 18 19  2  0
 19 20  1  0
 20 21  2  0
  9 22  2  0
 22  2  1  0
 21 16  1  0
  1 23  1  0
  1 24  1  0
  1 25  1  0
  3 26  1  0
  5 27  1  0
  5 28  1  0
  5 29  1  0
 11 30  1  0
 11 31  1  0
 14 32  1  0
 15 33  1  0
 15 34  1  0
 17 35  1  0
 18 36  1  0
 19 37  1  0
 20 38  1  0
 21 39  1  0
M  END
>  <Binding energies>  (1) 
[-6.78]

>  <Ligand effiencies>  (1) 
[-0.2947826086956522]

>  <Interactions>  (1) 
["V-B:ARG:545:CG:9893, V-B:GLU:543:CD:9879, V-B:HIS:456:CE1:9040, H-A:GLY:454:N:4049, V-A:HIS:456:CE1:4069, V-A:GLY:454:CA:4048, V-B:ARG:545:CZ:9897, V-B:ARG:545:CD:9894, V-B:TYR:484:CZ:9317, V-A:ARG:545:CZ:4925, V-A:GLY:453:CA:4043, V-A:ASP:366:CG:3212, V-A:ARG:545:CD:4922, V-A:ARG:545:CG:4921, H-A:ARG:545:NE:4923, H-A:TYR:484:OH:4347, V-B:ARG:545:CB:9892, V-B:GLY:454:CA:9019, H-A:ILE:455:N:4054, H-B:GLU:543:OE2:9881, V-A:GLY:453:C:4041, H-B:GLU:543:OE1:9880"]

$$$$
1h_Grossjean_2025
     RDKit          3D

 51 52  0  0  0  0  0  0  0  0999 V2000
  128.1350  129.3070   64.0760 C   0  0  0  0  0  0  0  0  0  0  0  0
  126.8090  129.5830   64.5120 O   0  0  0  0  0  0  0  0  0  0  0  0
  126.4200  129.2000   65.7830 C   0  0  0  0  0  0  0  0  0  0  0  0
  127.2290  128.4640   66.6620 C   0  0  0  0  0  0  0  0  0  0  0  0
  126.7650  128.1010   67.9270 C   0  0  0  0  0  0  0  0  0  0  0  0
  127.6630  127.3200   68.8820 C   0  0  0  0  0  0  0  0  0  0  0  0
  128.8810  126.8000   68.2610 N   0  0  0  0  0  0  0  0  0  0  0  0
  130.1080  127.3360   68.3890 C   0  0  0  0  0  0  0  0  0  0  0  0
  130.3520  128.3270   69.0770 O   0  0  0  0  0  0  0  0  0  0  0  0
  131.2350  126.6510   67.6170 C   0  0  0  0  0  0  0  0  0  0  0  0
  130.8500  126.4950   65.8460 S   0  0  0  0  0  0  0  0  0  0  0  0
  130.9280  124.7650   65.4130 C   0  0  0  0  0  0  0  0  0  0  0  0
  129.8700  124.0090   65.8100 N   0  0  0  0  0  0  0  0  0  0  0  0
  129.8630  122.6890   65.5100 C   0  0  0  0  0  0  0  0  0  0  0  0
  128.6470  121.9140   65.9820 C   0  0  0  0  0  0  0  0  0  0  0  0
  130.8970  122.0710   64.8120 C   0  0  0  0  0  0  0  0  0  0  0  0
  131.9930  122.8370   64.4000 C   0  0  0  0  0  0  0  0  0  0  0  0
  133.1150  122.1400   63.6340 C   0  0  0  0  0  0  0  0  0  0  0  0
  132.0210  124.2180   64.7020 C   0  0  0  0  0  0  0  0  0  0  0  0
  133.1570  125.0450   64.2850 C   0  0  0  0  0  0  0  0  0  0  0  0
  134.0540  125.6980   63.9560 N   0  0  0  0  0  0  0  0  0  0  0  0
  125.4930  128.5060   68.3360 C   0  0  0  0  0  0  0  0  0  0  0  0
  124.6650  129.2480   67.4800 C   0  0  0  0  0  0  0  0  0  0  0  0
  123.3950  129.6810   67.8180 O   0  0  0  0  0  0  0  0  0  0  0  0
  122.2810  129.2520   67.0430 C   0  0  0  0  0  0  0  0  0  0  0  0
  125.1360  129.5800   66.2010 C   0  0  0  0  0  0  0  0  0  0  0  0
  124.3380  130.3110   65.3540 O   0  0  0  0  0  0  0  0  0  0  0  0
  123.9980  129.6340   64.1530 C   0  0  0  0  0  0  0  0  0  0  0  0
  128.7878  129.1711   64.9508 H   0  0  0  0  0  0  0  0  0  0  0  0
  128.1381  128.3890   63.4700 H   0  0  0  0  0  0  0  0  0  0  0  0
  128.5042  130.1476   63.4700 H   0  0  0  0  0  0  0  0  0  0  0  0
  128.2418  128.1694   66.3500 H   0  0  0  0  0  0  0  0  0  0  0  0
  127.9530  127.9867   69.7075 H   0  0  0  0  0  0  0  0  0  0  0  0
  127.0835  126.4499   69.2243 H   0  0  0  0  0  0  0  0  0  0  0  0
  128.7670  125.9930   67.6650 H   0  0  0  0  0  0  0  0  0  0  0  0
  132.1545  127.2442   67.7298 H   0  0  0  0  0  0  0  0  0  0  0  0
  131.3621  125.6385   68.0278 H   0  0  0  0  0  0  0  0  0  0  0  0
  128.6252  121.9001   67.0817 H   0  0  0  0  0  0  0  0  0  0  0  0
  127.7344  122.3974   65.6033 H   0  0  0  0  0  0  0  0  0  0  0  0
  128.6998  120.8826   65.6033 H   0  0  0  0  0  0  0  0  0  0  0  0
  130.8529  120.9951   64.5874 H   0  0  0  0  0  0  0  0  0  0  0  0
  133.8264  121.6981   64.3472 H   0  0  0  0  0  0  0  0  0  0  0  0
  132.6895  121.3470   63.0015 H   0  0  0  0  0  0  0  0  0  0  0  0
  133.6374  122.8728   63.0015 H   0  0  0  0  0  0  0  0  0  0  0  0
  125.1355  128.2401   69.3417 H   0  0  0  0  0  0  0  0  0  0  0  0
  121.4670  128.9385   67.7132 H   0  0  0  0  0  0  0  0  0  0  0  0
  121.9347  130.0811   66.4084 H   0  0  0  0  0  0  0  0  0  0  0  0
  122.5803  128.4048   66.4084 H   0  0  0  0  0  0  0  0  0  0  0  0
  123.5165  128.6753   64.3962 H   0  0  0  0  0  0  0  0  0  0  0  0
  123.3044  130.2542   63.5662 H   0  0  0  0  0  0  0  0  0  0  0  0
  124.9097  129.4480   63.5662 H   0  0  0  0  0  0  0  0  0  0  0  0
  1  2  1  0
  2  3  1  0
  3  4  2  0
  4  5  1  0
  5  6  1  0
  6  7  1  0
  7  8  1  0
  8  9  2  0
  8 10  1  0
 10 11  1  0
 11 12  1  0
 12 13  2  0
 13 14  1  0
 14 15  1  0
 14 16  2  0
 16 17  1  0
 17 18  1  0
 17 19  2  0
 19 20  1  0
 20 21  3  0
  5 22  2  0
 22 23  1  0
 23 24  1  0
 24 25  1  0
 23 26  2  0
 26 27  1  0
 27 28  1  0
 26  3  1  0
 19 12  1  0
  1 29  1  0
  1 30  1  0
  1 31  1  0
  4 32  1  0
  6 33  1  0
  6 34  1  0
  7 35  1  0
 10 36  1  0
 10 37  1  0
 15 38  1  0
 15 39  1  0
 15 40  1  0
 16 41  1  0
 18 42  1  0
 18 43  1  0
 18 44  1  0
 22 45  1  0
 25 46  1  0
 25 47  1  0
 25 48  1  0
 28 49  1  0
 28 50  1  0
 28 51  1  0
M  END
>  <Binding energies>  (1) 
[-6.84]

>  <Ligand effiencies>  (1) 
[-0.23586206896551723]

>  <Interactions>  (1) 
["V-B:ARG:545:CG:9893, V-B:GLU:543:CB:9877, V-B:GLU:543:CD:9879, V-B:HIS:456:CE1:9040, H-A:GLY:454:N:4049, V-A:HIS:456:CE1:4069, H-A:ARG:545:NH1:4926, V-A:GLY:454:CA:4048, V-B:ARG:545:CZ:9897, H-B:TYR:484:OH:9318, H-A:ARG:545:NH2:4927, V-B:ARG:545:CD:9894, H-B:GLY:454:N:9020, V-A:TYR:484:CZ:4346, V-A:ARG:545:CZ:4925, V-B:ALA:541:CB:9863, H-A:ARG:545:NE:4923, H-A:TYR:484:OH:4347, H-B:ILE:455:N:9025, V-B:ALA:541:C:9859, V-B:GLU:543:CG:9878, V-B:ALA:541:CA:9861, V-B:GLY:453:C:9012, V-A:TYR:484:CE2:4345, V-A:LEU:475:CD2:4258, V-B:GLY:453:CA:9014, V-B:ARG:545:CB:9892, V-B:GLY:454:CA:9019, H-B:GLU:543:OE2:9881, V-B:GLU:543:CA:9875, V-A:LEU:475:CD1:4257, V-A:LEU:475:CG:4256, V-B:VAL:542:C:9865"]

$$$$
1i_Grossjean_2025
     RDKit          3D

 32 33  0  0  0  0  0  0  0  0999 V2000
  126.3780  126.5770   70.8060 C   0  0  0  0  0  0  0  0  0  0  0  0
  126.4100  127.3720   69.5150 C   0  0  0  0  0  0  0  0  0  0  0  0
  125.2610  127.9670   68.9960 C   0  0  0  0  0  0  0  0  0  0  0  0
  125.3530  128.6970   67.8060 C   0  0  0  0  0  0  0  0  0  0  0  0
  124.0830  129.3540   67.2660 C   0  0  0  0  0  0  0  0  0  0  0  0
  126.6040  128.8090   67.1570 C   0  0  0  0  0  0  0  0  0  0  0  0
  126.7320  129.6110   65.9380 C   0  0  0  0  0  0  0  0  0  0  0  0
  126.8310  130.2470   64.9760 N   0  0  0  0  0  0  0  0  0  0  0  0
  127.7120  128.1520   67.7440 C   0  0  0  0  0  0  0  0  0  0  0  0
  129.3550  128.1860   67.0630 S   0  0  0  0  0  0  0  0  0  0  0  0
  130.2690  126.7780   67.7620 C   0  0  0  0  0  0  0  0  0  0  0  0
  130.9020  125.9070   66.6750 C   0  0  0  0  0  0  0  0  0  0  0  0
  130.4690  124.7700   66.4840 O   0  0  0  0  0  0  0  0  0  0  0  0
  131.9160  126.4780   65.9880 N   0  0  0  0  0  0  0  0  0  0  0  0
  132.6610  125.9120   64.9630 C   0  0  0  0  0  0  0  0  0  0  0  0
  132.1530  125.6970   63.6830 C   0  0  0  0  0  0  0  0  0  0  0  0
  133.1890  125.1290   62.9780 C   0  0  0  0  0  0  0  0  0  0  0  0
  134.2640  125.0060   63.7910 O   0  0  0  0  0  0  0  0  0  0  0  0
  133.9170  125.5050   65.0480 N   0  0  0  0  0  0  0  0  0  0  0  0
  127.6170  127.4630   68.9080 N   0  0  0  0  0  0  0  0  0  0  0  0
  126.4058  127.2670   71.6623 H   0  0  0  0  0  0  0  0  0  0  0  0
  125.4551  125.9798   70.8461 H   0  0  0  0  0  0  0  0  0  0  0  0
  127.2499  125.9076   70.8461 H   0  0  0  0  0  0  0  0  0  0  0  0
  124.2963  127.8640   69.5144 H   0  0  0  0  0  0  0  0  0  0  0  0
  123.4529  129.6800   68.1067 H   0  0  0  0  0  0  0  0  0  0  0  0
  124.3537  130.2252   66.6514 H   0  0  0  0  0  0  0  0  0  0  0  0
  123.5284  128.6297   66.6514 H   0  0  0  0  0  0  0  0  0  0  0  0
  131.0648  127.1617   68.4174 H   0  0  0  0  0  0  0  0  0  0  0  0
  129.5561  126.1557   68.3227 H   0  0  0  0  0  0  0  0  0  0  0  0
  132.1960  127.4090   66.2630 H   0  0  0  0  0  0  0  0  0  0  0  0
  131.1427  125.9308   63.3160 H   0  0  0  0  0  0  0  0  0  0  0  0
  133.1498  124.8236   61.9220 H   0  0  0  0  0  0  0  0  0  0  0  0
  1  2  1  0
  2  3  2  0
  3  4  1  0
  4  5  1  0
  4  6  2  0
  6  7  1  0
  7  8  3  0
  6  9  1  0
  9 10  1  0
 10 11  1  0
 11 12  1  0
 12 13  2  0
 12 14  1  0
 14 15  1  0
 15 16  1  0
 16 17  2  0
 17 18  1  0
 18 19  1  0
  9 20  2  0
 20  2  1  0
 19 15  2  0
  1 21  1  0
  1 22  1  0
  1 23  1  0
  3 24  1  0
  5 25  1  0
  5 26  1  0
  5 27  1  0
 11 28  1  0
 11 29  1  0
 14 30  1  0
 16 31  1  0
 17 32  1  0
M  END
>  <Binding energies>  (1) 
[-7.36]

>  <Ligand effiencies>  (1) 
[-0.3504761904761905]

>  <Interactions>  (1) 
["V-B:ARG:545:CG:9893, V-B:GLU:543:CB:9877, V-B:GLU:543:CD:9879, V-B:HIS:456:CE1:9040, H-A:GLY:454:N:4049, V-A:HIS:456:CE1:4069, H-A:ARG:545:NH1:4926, V-A:GLU:543:CD:4907, H-A:ARG:545:NH2:4927, V-B:ARG:545:CD:9894, V-A:TYR:484:CZ:4346, V-A:ARG:545:CZ:4925, V-A:ASP:366:CG:3212, V-B:GLU:543:C:9873, V-B:GLY:544:C:9883, H-A:ARG:545:NE:4923, H-A:TYR:484:OH:4347, H-A:GLU:543:OE2:4909, V-B:ARG:545:CA:9890, V-B:ARG:545:CB:9892, V-B:GLY:544:CA:9885, H-A:GLU:543:OE1:4908"]

$$$$
1j_Grossjean_2025
     RDKit          3D

 32 33  0  0  0  0  0  0  0  0999 V2000
  134.9920  125.5280   67.2520 C   0  0  0  0  0  0  0  0  0  0  0  0
  133.7590  125.6640   66.3790 C   0  0  0  0  0  0  0  0  0  0  0  0
  132.5880  126.2490   66.8580 C   0  0  0  0  0  0  0  0  0  0  0  0
  131.4860  126.3600   66.0040 C   0  0  0  0  0  0  0  0  0  0  0  0
  130.2190  127.0200   66.5460 C   0  0  0  0  0  0  0  0  0  0  0  0
  131.5850  125.8700   64.6820 C   0  0  0  0  0  0  0  0  0  0  0  0
  130.4610  126.0240   63.7540 C   0  0  0  0  0  0  0  0  0  0  0  0
  129.5720  126.1480   63.0240 N   0  0  0  0  0  0  0  0  0  0  0  0
  132.8030  125.2680   64.2890 C   0  0  0  0  0  0  0  0  0  0  0  0
  133.1010  124.5970   62.6680 S   0  0  0  0  0  0  0  0  0  0  0  0
  133.8970  122.9770   62.8780 C   0  0  0  0  0  0  0  0  0  0  0  0
  133.1140  121.8590   62.1870 C   0  0  0  0  0  0  0  0  0  0  0  0
  131.8840  121.8510   62.2560 O   0  0  0  0  0  0  0  0  0  0  0  0
  133.8610  120.9420   61.5330 N   0  0  0  0  0  0  0  0  0  0  0  0
  133.3930  119.8360   60.8390 C   0  0  0  0  0  0  0  0  0  0  0  0
  133.6730  119.4810   59.6020 N   0  0  0  0  0  0  0  0  0  0  0  0
  133.0510  118.3690   59.2660 C   0  0  0  0  0  0  0  0  0  0  0  0
  132.2430  117.7940   60.2430 C   0  0  0  0  0  0  0  0  0  0  0  0
  132.3110  118.7720   61.6780 S   0  0  0  0  0  0  0  0  0  0  0  0
  133.8740  125.1840   65.1190 N   0  0  0  0  0  0  0  0  0  0  0  0
  134.6968  125.5606   68.3111 H   0  0  0  0  0  0  0  0  0  0  0  0
  135.4882  124.5697   67.0390 H   0  0  0  0  0  0  0  0  0  0  0  0
  135.6852  126.3551   67.0390 H   0  0  0  0  0  0  0  0  0  0  0  0
  132.5314  126.6180   67.8927 H   0  0  0  0  0  0  0  0  0  0  0  0
  130.2412  127.0084   67.6457 H   0  0  0  0  0  0  0  0  0  0  0  0
  130.1668  128.0599   66.1912 H   0  0  0  0  0  0  0  0  0  0  0  0
  129.3369  126.4668   66.1912 H   0  0  0  0  0  0  0  0  0  0  0  0
  134.9086  123.0201   62.4480 H   0  0  0  0  0  0  0  0  0  0  0  0
  133.9310  122.7525   63.9543 H   0  0  0  0  0  0  0  0  0  0  0  0
  134.8640  121.0440   61.5710 H   0  0  0  0  0  0  0  0  0  0  0  0
  133.1640  117.9197   58.2683 H   0  0  0  0  0  0  0  0  0  0  0  0
  131.6568  116.8707   60.1258 H   0  0  0  0  0  0  0  0  0  0  0  0
  1  2  1  0
  2  3  2  0
  3  4  1  0
  4  5  1  0
  4  6  2  0
  6  7  1  0
  7  8  3  0
  6  9  1  0
  9 10  1  0
 10 11  1  0
 11 12  1  0
 12 13  2  0
 12 14  1  0
 14 15  1  0
 15 16  2  0
 16 17  1  0
 17 18  2  0
 18 19  1  0
  9 20  2  0
 20  2  1  0
 19 15  1  0
  1 21  1  0
  1 22  1  0
  1 23  1  0
  3 24  1  0
  5 25  1  0
  5 26  1  0
  5 27  1  0
 11 28  1  0
 11 29  1  0
 14 30  1  0
 17 31  1  0
 18 32  1  0
M  END
>  <Binding energies>  (1) 
[-6.65]

>  <Ligand effiencies>  (1) 
[-0.3166666666666667]

>  <Interactions>  (1) 
["H-A:GLY:454:N:4049, V-A:HIS:456:CE1:4069, V-A:GLU:543:CD:4907, V-A:GLY:454:CA:4048, V-A:ARG:545:CZ:4925, V-A:GLY:453:CA:4043, V-A:ARG:545:CD:4922, V-A:ARG:545:CG:4921, V-B:TYR:539:CD2:9845, H-A:TYR:484:OH:4347, V-A:LEU:373:CD2:3280, V-A:SER:385:CB:3408, V-A:ILE:369:CG2:3236, V-A:SER:385:CA:3406, V-A:LEU:475:CD2:4258, V-A:LEU:373:CG:3278, H-A:SER:385:O:3405, V-A:GLY:453:C:4041, V-A:ILE:369:CD1:3238, V-A:SER:385:C:3404, V-A:HIS:383:CE1:3393, V-A:ILE:455:C:4051, V-A:GLY:454:C:4046"]

$$$$
1k_Grossjean_2025
     RDKit          3D

 50 50  0  0  0  0  0  0  0  0999 V2000
  125.8160  123.8440   62.8550 C   0  0  0  0  0  0  0  0  0  0  0  0
  126.8980  122.9510   62.6430 O   0  0  0  0  0  0  0  0  0  0  0  0
  128.0300  123.2300   63.4550 C   0  0  0  0  0  0  0  0  0  0  0  0
  129.2970  122.7090   62.7630 C   0  0  0  0  0  0  0  0  0  0  0  0
  130.4260  123.4360   63.2330 O   0  0  0  0  0  0  0  0  0  0  0  0
  131.6470  122.7140   63.1470 C   0  0  0  0  0  0  0  0  0  0  0  0
  132.5340  123.0680   64.3470 C   0  0  0  0  0  0  0  0  0  0  0  0
  133.4110  124.1290   63.9910 O   0  0  0  0  0  0  0  0  0  0  0  0
  133.3200  125.2570   64.8520 C   0  0  0  0  0  0  0  0  0  0  0  0
  131.8800  125.8020   64.8390 C   0  0  0  0  0  0  0  0  0  0  0  0
  131.5520  126.6450   65.9900 N   0  0  0  0  0  0  0  0  0  0  0  0
  130.8310  126.2560   67.0560 C   0  0  0  0  0  0  0  0  0  0  0  0
  130.3680  125.1200   67.1760 O   0  0  0  0  0  0  0  0  0  0  0  0
  130.6090  127.3280   68.1340 C   0  0  0  0  0  0  0  0  0  0  0  0
  128.9130  127.4370   68.8030 S   0  0  0  0  0  0  0  0  0  0  0  0
  127.8670  128.2700   67.6170 C   0  0  0  0  0  0  0  0  0  0  0  0
  128.4970  128.7920   66.5330 N   0  0  0  0  0  0  0  0  0  0  0  0
  127.7650  129.4440   65.6010 C   0  0  0  0  0  0  0  0  0  0  0  0
  128.5420  130.0050   64.4260 C   0  0  0  0  0  0  0  0  0  0  0  0
  126.3840  129.5970   65.7030 C   0  0  0  0  0  0  0  0  0  0  0  0
  125.7210  129.0580   66.8110 C   0  0  0  0  0  0  0  0  0  0  0  0
  124.2070  129.2370   66.9030 C   0  0  0  0  0  0  0  0  0  0  0  0
  126.4680  128.3770   67.7970 C   0  0  0  0  0  0  0  0  0  0  0  0
  125.8010  127.8050   68.9700 C   0  0  0  0  0  0  0  0  0  0  0  0
  125.2720  127.3540   69.8960 N   0  0  0  0  0  0  0  0  0  0  0  0
  125.6559  123.9761   63.9352 H   0  0  0  0  0  0  0  0  0  0  0  0
  126.0483  124.8168   62.3971 H   0  0  0  0  0  0  0  0  0  0  0  0
  124.9049  123.4314   62.3971 H   0  0  0  0  0  0  0  0  0  0  0  0
  128.1146  124.3164   63.6053 H   0  0  0  0  0  0  0  0  0  0  0  0
  127.9137  122.7330   64.4294 H   0  0  0  0  0  0  0  0  0  0  0  0
  129.4272  121.6410   62.9918 H   0  0  0  0  0  0  0  0  0  0  0  0
  129.2020  122.8415   61.6751 H   0  0  0  0  0  0  0  0  0  0  0  0
  131.4361  121.6344   63.1524 H   0  0  0  0  0  0  0  0  0  0  0  0
  132.1666  122.9807   62.2148 H   0  0  0  0  0  0  0  0  0  0  0  0
  131.9016  123.3822   65.1904 H   0  0  0  0  0  0  0  0  0  0  0  0
  133.1240  122.1869   64.6396 H   0  0  0  0  0  0  0  0  0  0  0  0
  133.5892  124.9586   65.8759 H   0  0  0  0  0  0  0  0  0  0  0  0
  134.0099  126.0395   64.5030 H   0  0  0  0  0  0  0  0  0  0  0  0
  131.7438  126.3974   63.9242 H   0  0  0  0  0  0  0  0  0  0  0  0
  131.2096  124.9309   64.8812 H   0  0  0  0  0  0  0  0  0  0  0  0
  131.8980  127.5930   65.9610 H   0  0  0  0  0  0  0  0  0  0  0  0
  131.2895  127.1121   68.9709 H   0  0  0  0  0  0  0  0  0  0  0  0
  130.8004  128.2930   67.6419 H   0  0  0  0  0  0  0  0  0  0  0  0
  129.3815  130.6111   64.7974 H   0  0  0  0  0  0  0  0  0  0  0  0
  128.9299  129.1773   63.8141 H   0  0  0  0  0  0  0  0  0  0  0  0
  127.8784  130.6336   63.8141 H   0  0  0  0  0  0  0  0  0  0  0  0
  125.8230  130.1337   64.9238 H   0  0  0  0  0  0  0  0  0  0  0  0
  123.9056  129.2726   67.9603 H   0  0  0  0  0  0  0  0  0  0  0  0
  123.9180  130.1756   66.4075 H   0  0  0  0  0  0  0  0  0  0  0  0
  123.7071  128.3917   66.4075 H   0  0  0  0  0  0  0  0  0  0  0  0
  1  2  1  0
  2  3  1  0
  3  4  1  0
  4  5  1  0
  5  6  1  0
  6  7  1  0
  7  8  1  0
  8  9  1  0
  9 10  1  0
 10 11  1  0
 11 12  1  0
 12 13  2  0
 12 14  1  0
 14 15  1  0
 15 16  1  0
 16 17  2  0
 17 18  1  0
 18 19  1  0
 18 20  2  0
 20 21  1  0
 21 22  1  0
 21 23  2  0
 23 24  1  0
 24 25  3  0
 23 16  1  0
  1 26  1  0
  1 27  1  0
  1 28  1  0
  3 29  1  0
  3 30  1  0
  4 31  1  0
  4 32  1  0
  6 33  1  0
  6 34  1  0
  7 35  1  0
  7 36  1  0
  9 37  1  0
  9 38  1  0
 10 39  1  0
 10 40  1  0
 11 41  1  0
 14 42  1  0
 14 43  1  0
 19 44  1  0
 19 45  1  0
 19 46  1  0
 20 47  1  0
 22 48  1  0
 22 49  1  0
 22 50  1  0
M  END
>  <Binding energies>  (1) 
[-5.47]

>  <Ligand effiencies>  (1) 
[-0.21038461538461536]

>  <Interactions>  (1) 
["V-B:ARG:545:CG:9893, V-B:GLU:543:CB:9877, V-A:GLU:543:CG:4906, V-B:GLU:543:CD:9879, V-B:HIS:456:CE1:9040, H-A:GLY:454:N:4049, V-A:HIS:456:CE1:4069, V-A:GLU:543:CD:4907, V-A:GLY:454:CA:4048, V-B:ARG:545:CZ:9897, V-B:ARG:545:CD:9894, H-B:ALA:541:N:9862, V-A:ARG:545:CZ:4925, V-B:ALA:541:CB:9863, H-A:TYR:484:OH:4347, H-A:GLU:543:OE2:4909, H-B:ARG:545:N:9891, V-B:GLU:543:CG:9878, V-A:LEU:475:CD2:4258, V-B:ARG:545:CA:9890, H-B:HIS:456:ND1:9037, H-A:GLU:543:OE1:4908"]

$$$$
1l_Grossjean_2025
     RDKit          3D

 30 30  0  0  0  0  0  0  0  0999 V2000
  124.4940  129.6370   63.9980 C   0  0  0  0  0  0  0  0  0  0  0  0
  123.5690  129.9100   65.0410 O   0  0  0  0  0  0  0  0  0  0  0  0
  124.1490  129.6260   66.2770 N   0  0  0  0  0  0  0  0  0  0  0  0
  123.3710  129.6190   67.3760 C   0  0  0  0  0  0  0  0  0  0  0  0
  122.1380  129.6230   67.3420 O   0  0  0  0  0  0  0  0  0  0  0  0
  124.1300  129.5870   68.7110 C   0  0  0  0  0  0  0  0  0  0  0  0
  125.1760  128.1140   68.9700 S   0  0  0  0  0  0  0  0  0  0  0  0
  126.7230  128.3740   68.1180 C   0  0  0  0  0  0  0  0  0  0  0  0
  126.6860  129.2520   67.0820 N   0  0  0  0  0  0  0  0  0  0  0  0
  127.8240  129.4960   66.3910 C   0  0  0  0  0  0  0  0  0  0  0  0
  127.7030  130.4870   65.2490 C   0  0  0  0  0  0  0  0  0  0  0  0
  129.0360  128.8830   66.7000 C   0  0  0  0  0  0  0  0  0  0  0  0
  129.0880  127.9790   67.7650 C   0  0  0  0  0  0  0  0  0  0  0  0
  130.4280  127.3190   68.0870 C   0  0  0  0  0  0  0  0  0  0  0  0
  127.9110  127.7090   68.4990 C   0  0  0  0  0  0  0  0  0  0  0  0
  127.9360  126.7650   69.6210 C   0  0  0  0  0  0  0  0  0  0  0  0
  127.9570  126.0200   70.5050 N   0  0  0  0  0  0  0  0  0  0  0  0
  125.4631  129.3510   64.4329 H   0  0  0  0  0  0  0  0  0  0  0  0
  124.1134  128.8129   63.3767 H   0  0  0  0  0  0  0  0  0  0  0  0
  124.6218  130.5357   63.3767 H   0  0  0  0  0  0  0  0  0  0  0  0
  125.1390  129.8280   66.2900 H   0  0  0  0  0  0  0  0  0  0  0  0
  124.7758  130.4763   68.7575 H   0  0  0  0  0  0  0  0  0  0  0  0
  123.3633  129.5615   69.4994 H   0  0  0  0  0  0  0  0  0  0  0  0
  127.5791  131.5016   65.6555 H   0  0  0  0  0  0  0  0  0  0  0  0
  128.6126  130.4479   64.6317 H   0  0  0  0  0  0  0  0  0  0  0  0
  126.8295  130.2302   64.6317 H   0  0  0  0  0  0  0  0  0  0  0  0
  129.9396  129.1071   66.1141 H   0  0  0  0  0  0  0  0  0  0  0  0
  130.5535  127.2572   69.1781 H   0  0  0  0  0  0  0  0  0  0  0  0
  130.4507  126.3066   67.6574 H   0  0  0  0  0  0  0  0  0  0  0  0
  131.2444  127.9181   67.6574 H   0  0  0  0  0  0  0  0  0  0  0  0
  1  2  1  0
  2  3  1  0
  3  4  1  0
  4  5  2  0
  4  6  1  0
  6  7  1  0
  7  8  1  0
  8  9  2  0
  9 10  1  0
 10 11  1  0
 10 12  2  0
 12 13  1  0
 13 14  1  0
 13 15  2  0
 15 16  1  0
 16 17  3  0
 15  8  1  0
  1 18  1  0
  1 19  1  0
  1 20  1  0
  3 21  1  0
  6 22  1  0
  6 23  1  0
 11 24  1  0
 11 25  1  0
 11 26  1  0
 12 27  1  0
 14 28  1  0
 14 29  1  0
 14 30  1  0
M  END
>  <Binding energies>  (1) 
[-5.91]

>  <Ligand effiencies>  (1) 
[-0.32833333333333337]

>  <Interactions>  (1) 
["V-B:ARG:545:CG:9893, V-A:GLU:543:CB:4905, V-B:GLU:543:CB:9877, V-A:GLU:543:CG:4906, V-B:GLU:543:CD:9879, V-B:HIS:456:CE1:9040, V-A:HIS:456:CE1:4069, V-A:GLU:543:CD:4907, V-B:ARG:545:CZ:9897, H-B:TYR:484:OH:9318, V-B:ARG:545:CD:9894, H-B:GLY:454:N:9020, V-B:TYR:484:CZ:9317, H-B:ILE:455:N:9025, V-B:ARG:545:CB:9892, V-B:GLY:454:CA:9019, H-B:HIS:456:ND1:9037, V-B:ILE:455:C:9022"]

$$$$
1m_Grossjean_2025
     RDKit          3D

 35 35  0  0  0  0  0  0  0  0999 V2000
  133.6380  125.3980   63.6180 C   0  0  0  0  0  0  0  0  0  0  0  0
  134.2530  125.5090   64.8940 O   0  0  0  0  0  0  0  0  0  0  0  0
  133.5300  125.8680   65.9740 C   0  0  0  0  0  0  0  0  0  0  0  0
  133.9470  125.9120   67.1350 O   0  0  0  0  0  0  0  0  0  0  0  0
  132.0830  126.2400   65.5890 C   0  0  0  0  0  0  0  0  0  0  0  0
  131.2640  126.6210   66.7500 N   0  0  0  0  0  0  0  0  0  0  0  0
  130.3660  125.8320   67.3700 C   0  0  0  0  0  0  0  0  0  0  0  0
  130.1200  124.6800   67.0080 O   0  0  0  0  0  0  0  0  0  0  0  0
  129.6480  126.4640   68.5700 C   0  0  0  0  0  0  0  0  0  0  0  0
  129.6690  128.2900   68.5960 S   0  0  0  0  0  0  0  0  0  0  0  0
  128.3200  128.8700   67.5900 C   0  0  0  0  0  0  0  0  0  0  0  0
  128.7030  129.7280   66.6100 N   0  0  0  0  0  0  0  0  0  0  0  0
  127.7610  130.2290   65.7790 C   0  0  0  0  0  0  0  0  0  0  0  0
  128.2670  131.1650   64.6970 C   0  0  0  0  0  0  0  0  0  0  0  0
  126.4090  129.9110   65.8940 C   0  0  0  0  0  0  0  0  0  0  0  0
  125.9990  129.0490   66.9170 C   0  0  0  0  0  0  0  0  0  0  0  0
  124.5110  128.7270   67.0340 C   0  0  0  0  0  0  0  0  0  0  0  0
  126.9660  128.5130   67.7990 C   0  0  0  0  0  0  0  0  0  0  0  0
  126.5520  127.6480   68.9070 C   0  0  0  0  0  0  0  0  0  0  0  0
  126.2250  126.9650   69.7810 N   0  0  0  0  0  0  0  0  0  0  0  0
  132.5627  125.2039   63.7449 H   0  0  0  0  0  0  0  0  0  0  0  0
  133.7780  126.3359   63.0606 H   0  0  0  0  0  0  0  0  0  0  0  0
  134.0971  124.5682   63.0606 H   0  0  0  0  0  0  0  0  0  0  0  0
  132.1127  127.0863   64.8870 H   0  0  0  0  0  0  0  0  0  0  0  0
  131.6217  125.3500   65.1362 H   0  0  0  0  0  0  0  0  0  0  0  0
  131.3890  127.5630   67.0900 H   0  0  0  0  0  0  0  0  0  0  0  0
  128.5989  126.1335   68.5547 H   0  0  0  0  0  0  0  0  0  0  0  0
  130.1924  126.1340   69.4671 H   0  0  0  0  0  0  0  0  0  0  0  0
  128.7409  132.0416   65.1627 H   0  0  0  0  0  0  0  0  0  0  0  0
  129.0035  130.6388   64.0720 H   0  0  0  0  0  0  0  0  0  0  0  0
  127.4234  131.4930   64.0720 H   0  0  0  0  0  0  0  0  0  0  0  0
  125.6750  130.3315   65.1908 H   0  0  0  0  0  0  0  0  0  0  0  0
  124.2314  128.6665   68.0961 H   0  0  0  0  0  0  0  0  0  0  0  0
  123.9249  129.5191   66.5451 H   0  0  0  0  0  0  0  0  0  0  0  0
  124.3048  127.7634   66.5451 H   0  0  0  0  0  0  0  0  0  0  0  0
  1  2  1  0
  2  3  1  0
  3  4  2  0
  3  5  1  0
  5  6  1  0
  6  7  1  0
  7  8  2  0
  7  9  1  0
  9 10  1  0
 10 11  1  0
 11 12  2  0
 12 13  1  0
 13 14  1  0
 13 15  2  0
 15 16  1  0
 16 17  1  0
 16 18  2  0
 18 19  1  0
 19 20  3  0
 18 11  1  0
  1 21  1  0
  1 22  1  0
  1 23  1  0
  5 24  1  0
  5 25  1  0
  6 26  1  0
  9 27  1  0
  9 28  1  0
 14 29  1  0
 14 30  1  0
 14 31  1  0
 15 32  1  0
 17 33  1  0
 17 34  1  0
 17 35  1  0
M  END
>  <Binding energies>  (1) 
[-6.19]

>  <Ligand effiencies>  (1) 
[-0.2947619047619048]

>  <Interactions>  (1) 
["V-B:ARG:545:CG:9893, V-B:GLU:543:CB:9877, V-A:GLU:543:CG:4906, V-B:GLU:543:CD:9879, V-B:HIS:456:CE1:9040, H-A:GLY:454:N:4049, V-A:HIS:456:CE1:4069, H-A:ARG:545:NH1:4926, V-A:GLU:543:CD:4907, V-B:ARG:545:CZ:9897, H-A:ARG:545:NH2:4927, V-B:ARG:545:CD:9894, V-A:TYR:484:CZ:4346, V-A:ARG:545:CZ:4925, V-A:ASP:366:CG:3212, V-A:ARG:545:CD:4922, H-A:ARG:545:NE:4923, H-A:TYR:484:OH:4347, H-B:ARG:545:N:9891, V-A:TYR:484:CE2:4345, H-A:GLU:543:OE1:4908"]

$$$$
1n_Grossjean_2025
     RDKit          3D

 48 49  0  0  0  0  0  0  0  0999 V2000
  122.7570  130.7720   62.8340 C   0  0  0  0  0  0  0  0  0  0  0  0
  123.7290  129.7400   63.4150 C   0  0  0  0  0  0  0  0  0  0  0  0
  123.6300  129.7440   64.8330 O   0  0  0  0  0  0  0  0  0  0  0  0
  124.5300  130.4140   65.5980 C   0  0  0  0  0  0  0  0  0  0  0  0
  124.7260  131.6290   65.5090 O   0  0  0  0  0  0  0  0  0  0  0  0
  125.2550  129.5300   66.5720 C   0  0  0  0  0  0  0  0  0  0  0  0
  124.6040  128.9400   67.6670 C   0  0  0  0  0  0  0  0  0  0  0  0
  125.3050  128.1280   68.5530 C   0  0  0  0  0  0  0  0  0  0  0  0
  126.6690  127.8950   68.3710 C   0  0  0  0  0  0  0  0  0  0  0  0
  127.2810  127.0630   69.3290 N   0  0  0  0  0  0  0  0  0  0  0  0
  128.2880  127.3310   70.1880 C   0  0  0  0  0  0  0  0  0  0  0  0
  128.8690  128.4110   70.2910 O   0  0  0  0  0  0  0  0  0  0  0  0
  128.7100  126.1690   71.0970 C   0  0  0  0  0  0  0  0  0  0  0  0
  127.8510  126.0570   72.3750 C   0  0  0  0  0  0  0  0  0  0  0  0
  128.3680  127.1550   73.7290 S   0  0  0  0  0  0  0  0  0  0  0  0
  129.9250  126.5530   74.3460 C   0  0  0  0  0  0  0  0  0  0  0  0
  129.8540  125.3080   74.8800 N   0  0  0  0  0  0  0  0  0  0  0  0
  130.9830  124.7430   75.3660 C   0  0  0  0  0  0  0  0  0  0  0  0
  130.8290  123.3460   75.9360 C   0  0  0  0  0  0  0  0  0  0  0  0
  132.2170  125.3900   75.3470 C   0  0  0  0  0  0  0  0  0  0  0  0
  132.2970  126.6830   74.8170 C   0  0  0  0  0  0  0  0  0  0  0  0
  133.6570  127.3780   74.8190 C   0  0  0  0  0  0  0  0  0  0  0  0
  131.1290  127.2950   74.3080 C   0  0  0  0  0  0  0  0  0  0  0  0
  131.1800  128.6660   73.7970 C   0  0  0  0  0  0  0  0  0  0  0  0
  131.2230  129.7510   73.3950 N   0  0  0  0  0  0  0  0  0  0  0  0
  127.3250  128.4720   67.2730 C   0  0  0  0  0  0  0  0  0  0  0  0
  126.6200  129.2810   66.3860 C   0  0  0  0  0  0  0  0  0  0  0  0
  122.2547  131.3053   63.6546 H   0  0  0  0  0  0  0  0  0  0  0  0
  123.3130  131.4916   62.2151 H   0  0  0  0  0  0  0  0  0  0  0  0
  122.0054  130.2600   62.2151 H   0  0  0  0  0  0  0  0  0  0  0  0
  123.4751  128.7405   63.0322 H   0  0  0  0  0  0  0  0  0  0  0  0
  124.7568  129.9953   63.1178 H   0  0  0  0  0  0  0  0  0  0  0  0
  123.5307  129.1212   67.8258 H   0  0  0  0  0  0  0  0  0  0  0  0
  124.7806  127.6665   69.4027 H   0  0  0  0  0  0  0  0  0  0  0  0
  126.8700  126.1440   69.3980 H   0  0  0  0  0  0  0  0  0  0  0  0
  128.6188  125.2305   70.5306 H   0  0  0  0  0  0  0  0  0  0  0  0
  129.7460  126.3599   71.4138 H   0  0  0  0  0  0  0  0  0  0  0  0
  126.8110  126.3012   72.1126 H   0  0  0  0  0  0  0  0  0  0  0  0
  127.9710  125.0276   72.7436 H   0  0  0  0  0  0  0  0  0  0  0  0
  130.8345  123.3957   77.0349 H   0  0  0  0  0  0  0  0  0  0  0  0
  129.8777  122.9130   75.5933 H   0  0  0  0  0  0  0  0  0  0  0  0
  131.6632  122.7161   75.5933 H   0  0  0  0  0  0  0  0  0  0  0  0
  133.1146  124.8922   75.7425 H   0  0  0  0  0  0  0  0  0  0  0  0
  133.9823  127.5442   75.8566 H   0  0  0  0  0  0  0  0  0  0  0  0
  134.3928  126.7454   74.3009 H   0  0  0  0  0  0  0  0  0  0  0  0
  133.5754  128.3449   74.3009 H   0  0  0  0  0  0  0  0  0  0  0  0
  128.3971  128.2850   67.1129 H   0  0  0  0  0  0  0  0  0  0  0  0
  127.1421  129.7302   65.5283 H   0  0  0  0  0  0  0  0  0  0  0  0
  1  2  1  0
  2  3  1  0
  3  4  1  0
  4  5  2  0
  4  6  1  0
  6  7  2  0
  7  8  1  0
  8  9  2  0
  9 10  1  0
 10 11  1  0
 11 12  2  0
 11 13  1  0
 13 14  1  0
 14 15  1  0
 15 16  1  0
 16 17  2  0
 17 18  1  0
 18 19  1  0
 18 20  2  0
 20 21  1  0
 21 22  1  0
 21 23  2  0
 23 24  1  0
 24 25  3  0
  9 26  1  0
 26 27  2  0
 27  6  1  0
 23 16  1  0
  1 28  1  0
  1 29  1  0
  1 30  1  0
  2 31  1  0
  2 32  1  0
  7 33  1  0
  8 34  1  0
 10 35  1  0
 13 36  1  0
 13 37  1  0
 14 38  1  0
 14 39  1  0
 19 40  1  0
 19 41  1  0
 19 42  1  0
 20 43  1  0
 22 44  1  0
 22 45  1  0
 22 46  1  0
 26 47  1  0
 27 48  1  0
M  END
>  <Binding energies>  (1) 
[-7.29]

>  <Ligand effiencies>  (1) 
[-0.26035714285714284]

>  <Interactions>  (1) 
["V-B:ARG:545:CG:9893, V-B:GLU:543:CB:9877, V-B:GLU:543:CD:9879, V-B:HIS:456:CE1:9040, H-B:ARG:545:NH2:9899, V-A:HIS:456:CE1:4069, V-B:ARG:545:CZ:9897, H-B:TYR:484:OH:9318, V-B:ARG:545:CD:9894, H-B:GLY:454:N:9020, V-B:ASP:366:CG:8183, V-B:GLU:543:C:9873, V-B:GLY:544:C:9883, H-B:ARG:545:NH1:9898, H-B:ARG:545:NE:9895, V-B:GLY:453:C:9012, V-B:GLY:453:CA:9014, V-B:ARG:545:CA:9890, V-B:ARG:545:CB:9892, V-B:GLY:454:CA:9019, H-B:GLU:543:OE2:9881, H-B:GLU:543:O:9874, V-A:GLY:544:C:4911, H-A:LYS:547:NZ:4950, H-B:LYS:547:NZ:9922, V-A:HIS:456:CG:4065, V-A:HIS:456:CB:4064"]

$$$$
1o_Grossjean_2025
     RDKit          3D

 45 46  0  0  0  0  0  0  0  0999 V2000
  125.5550  131.7300   64.5530 C   0  0  0  0  0  0  0  0  0  0  0  0
  124.4940  131.3110   65.3990 O   0  0  0  0  0  0  0  0  0  0  0  0
  124.1740  129.9970   65.5220 C   0  0  0  0  0  0  0  0  0  0  0  0
  123.3340  129.4320   64.8150 O   0  0  0  0  0  0  0  0  0  0  0  0
  124.9480  129.2960   66.6010 C   0  0  0  0  0  0  0  0  0  0  0  0
  124.3970  129.0480   67.8670 C   0  0  0  0  0  0  0  0  0  0  0  0
  125.1410  128.3930   68.8460 C   0  0  0  0  0  0  0  0  0  0  0  0
  126.4470  127.9780   68.5830 C   0  0  0  0  0  0  0  0  0  0  0  0
  127.1030  127.3170   69.6400 N   0  0  0  0  0  0  0  0  0  0  0  0
  128.2950  126.6790   69.6540 C   0  0  0  0  0  0  0  0  0  0  0  0
  129.0700  126.6020   68.7010 O   0  0  0  0  0  0  0  0  0  0  0  0
  128.6860  126.0400   70.9950 C   0  0  0  0  0  0  0  0  0  0  0  0
  127.7990  126.4960   72.1710 C   0  0  0  0  0  0  0  0  0  0  0  0
  128.7300  127.1490   73.5880 S   0  0  0  0  0  0  0  0  0  0  0  0
  129.7930  125.8600   74.2070 C   0  0  0  0  0  0  0  0  0  0  0  0
  129.2630  124.6170   74.0820 N   0  0  0  0  0  0  0  0  0  0  0  0
  129.9840  123.5550   74.5110 C   0  0  0  0  0  0  0  0  0  0  0  0
  129.3330  122.1970   74.3240 C   0  0  0  0  0  0  0  0  0  0  0  0
  131.2450  123.6870   75.0890 C   0  0  0  0  0  0  0  0  0  0  0  0
  131.7900  124.9650   75.2460 C   0  0  0  0  0  0  0  0  0  0  0  0
  133.1670  125.0850   75.8960 C   0  0  0  0  0  0  0  0  0  0  0  0
  131.0530  126.0900   74.8100 C   0  0  0  0  0  0  0  0  0  0  0  0
  131.5810  127.4400   75.0210 C   0  0  0  0  0  0  0  0  0  0  0  0
  132.0010  128.5050   75.1870 N   0  0  0  0  0  0  0  0  0  0  0  0
  127.0020  128.2170   67.3170 C   0  0  0  0  0  0  0  0  0  0  0  0
  126.2570  128.8720   66.3400 C   0  0  0  0  0  0  0  0  0  0  0  0
  126.4035  132.0651   65.1676 H   0  0  0  0  0  0  0  0  0  0  0  0
  125.8715  130.8894   63.9181 H   0  0  0  0  0  0  0  0  0  0  0  0
  125.2117  132.5601   63.9181 H   0  0  0  0  0  0  0  0  0  0  0  0
  123.3697  129.3731   68.0884 H   0  0  0  0  0  0  0  0  0  0  0  0
  124.6957  128.2016   69.8334 H   0  0  0  0  0  0  0  0  0  0  0  0
  126.6090  127.3530   70.5190 H   0  0  0  0  0  0  0  0  0  0  0  0
  128.6027  124.9474   70.8983 H   0  0  0  0  0  0  0  0  0  0  0  0
  129.7142  126.3597   71.2201 H   0  0  0  0  0  0  0  0  0  0  0  0
  127.1224  127.2840   71.8088 H   0  0  0  0  0  0  0  0  0  0  0  0
  127.2598  125.6058   72.5271 H   0  0  0  0  0  0  0  0  0  0  0  0
  129.1205  121.7536   75.3080 H   0  0  0  0  0  0  0  0  0  0  0  0
  128.3934  122.3147   73.7642 H   0  0  0  0  0  0  0  0  0  0  0  0
  130.0132  121.5383   73.7642 H   0  0  0  0  0  0  0  0  0  0  0  0
  131.8039  122.7982   75.4172 H   0  0  0  0  0  0  0  0  0  0  0  0
  133.0579  125.0755   76.9905 H   0  0  0  0  0  0  0  0  0  0  0  0
  133.7954  124.2382   75.5828 H   0  0  0  0  0  0  0  0  0  0  0  0
  133.6394  126.0277   75.5828 H   0  0  0  0  0  0  0  0  0  0  0  0
  128.0275  127.8864   67.0958 H   0  0  0  0  0  0  0  0  0  0  0  0
  126.7018  129.0587   65.3514 H   0  0  0  0  0  0  0  0  0  0  0  0
  1  2  1  0
  2  3  1  0
  3  4  2  0
  3  5  1  0
  5  6  2  0
  6  7  1  0
  7  8  2  0
  8  9  1  0
  9 10  1  0
 10 11  2  0
 10 12  1  0
 12 13  1  0
 13 14  1  0
 14 15  1  0
 15 16  2  0
 16 17  1  0
 17 18  1  0
 17 19  2  0
 19 20  1  0
 20 21  1  0
 20 22  2  0
 22 23  1  0
 23 24  3  0
  8 25  1  0
 25 26  2  0
 26  5  1  0
 22 15  1  0
  1 27  1  0
  1 28  1  0
  1 29  1  0
  6 30  1  0
  7 31  1  0
  9 32  1  0
 12 33  1  0
 12 34  1  0
 13 35  1  0
 13 36  1  0
 18 37  1  0
 18 38  1  0
 18 39  1  0
 19 40  1  0
 21 41  1  0
 21 42  1  0
 21 43  1  0
 25 44  1  0
 26 45  1  0
M  END
>  <Binding energies>  (1) 
[-7.25]

>  <Ligand effiencies>  (1) 
[-0.26851851851851855]

>  <Interactions>  (1) 
["V-B:ARG:545:CG:9893, V-B:GLU:543:CB:9877, V-B:GLU:543:CD:9879, V-B:HIS:456:CE1:9040, H-B:ARG:545:NH2:9899, V-A:HIS:456:CE1:4069, V-B:LEU:475:CD1:9228, V-B:ARG:545:CZ:9897, H-B:TYR:484:OH:9318, V-B:ARG:545:CD:9894, H-B:GLY:454:N:9020, V-B:GLU:543:C:9873, V-B:GLY:544:C:9883, H-B:ARG:545:NH1:9898, H-B:ARG:545:NE:9895, V-B:ARG:545:CA:9890, V-B:ARG:545:CB:9892, V-B:GLY:454:CA:9019, H-A:LYS:547:NZ:4950, H-B:LYS:547:NZ:9922, V-A:HIS:456:CG:4065, V-A:TYR:484:CB:4340, V-A:HIS:456:CB:4064, H-B:HIS:456:NE2:9041"]

$$$$
1p_Grossjean_2025
     RDKit          3D

 35 36  0  0  0  0  0  0  0  0999 V2000
  128.1940  132.0230   64.9500 C   0  0  0  0  0  0  0  0  0  0  0  0
  127.6050  130.9440   65.8400 C   0  0  0  0  0  0  0  0  0  0  0  0
  126.3420  130.4090   65.5970 C   0  0  0  0  0  0  0  0  0  0  0  0
  125.8430  129.4260   66.4590 C   0  0  0  0  0  0  0  0  0  0  0  0
  124.4500  128.8640   66.1830 C   0  0  0  0  0  0  0  0  0  0  0  0
  126.6350  128.9940   67.5470 C   0  0  0  0  0  0  0  0  0  0  0  0
  126.1170  128.0020   68.4900 C   0  0  0  0  0  0  0  0  0  0  0  0
  125.7060  127.2170   69.2350 N   0  0  0  0  0  0  0  0  0  0  0  0
  127.9150  129.5770   67.7040 C   0  0  0  0  0  0  0  0  0  0  0  0
  129.0410  129.1430   69.0100 S   0  0  0  0  0  0  0  0  0  0  0  0
  130.3270  128.0950   68.2690 C   0  0  0  0  0  0  0  0  0  0  0  0
  129.9340  126.6090   68.1650 C   0  0  0  0  0  0  0  0  0  0  0  0
  130.6560  125.8610   67.0340 C   0  0  0  0  0  0  0  0  0  0  0  0
  130.2200  124.7740   66.6500 O   0  0  0  0  0  0  0  0  0  0  0  0
  131.7410  126.4830   66.5210 N   0  0  0  0  0  0  0  0  0  0  0  0
  132.5660  126.0290   65.5000 C   0  0  0  0  0  0  0  0  0  0  0  0
  132.1770  126.0060   64.1610 C   0  0  0  0  0  0  0  0  0  0  0  0
  133.2600  125.4970   63.4820 C   0  0  0  0  0  0  0  0  0  0  0  0
  134.2490  125.2260   64.3660 O   0  0  0  0  0  0  0  0  0  0  0  0
  133.7960  125.5660   65.6420 N   0  0  0  0  0  0  0  0  0  0  0  0
  128.3810  130.5450   66.8750 N   0  0  0  0  0  0  0  0  0  0  0  0
  128.6277  132.8175   65.5750 H   0  0  0  0  0  0  0  0  0  0  0  0
  128.9789  131.5864   64.3150 H   0  0  0  0  0  0  0  0  0  0  0  0
  127.4023  132.4471   64.3150 H   0  0  0  0  0  0  0  0  0  0  0  0
  125.7454  130.7543   64.7398 H   0  0  0  0  0  0  0  0  0  0  0  0
  123.9418  128.6590   67.1368 H   0  0  0  0  0  0  0  0  0  0  0  0
  123.8664  129.5970   65.6067 H   0  0  0  0  0  0  0  0  0  0  0  0
  124.5385  127.9312   65.6067 H   0  0  0  0  0  0  0  0  0  0  0  0
  130.5389  128.4694   67.2566 H   0  0  0  0  0  0  0  0  0  0  0  0
  131.2047  128.1490   68.9299 H   0  0  0  0  0  0  0  0  0  0  0  0
  130.1773  126.1171   69.1183 H   0  0  0  0  0  0  0  0  0  0  0  0
  128.8578  126.5743   67.9399 H   0  0  0  0  0  0  0  0  0  0  0  0
  131.9970  127.3730   66.9230 H   0  0  0  0  0  0  0  0  0  0  0  0
  131.2128  126.3257   63.7389 H   0  0  0  0  0  0  0  0  0  0  0  0
  133.3137  125.3360   62.3952 H   0  0  0  0  0  0  0  0  0  0  0  0
  1  2  1  0
  2  3  2  0
  3  4  1  0
  4  5  1  0
  4  6  2  0
  6  7  1  0
  7  8  3  0
  6  9  1  0
  9 10  1  0
 10 11  1  0
 11 12  1  0
 12 13  1  0
 13 14  2  0
 13 15  1  0
 15 16  1  0
 16 17  1  0
 17 18  2  0
 18 19  1  0
 19 20  1  0
  9 21  2  0
 21  2  1  0
 20 16  2  0
  1 22  1  0
  1 23  1  0
  1 24  1  0
  3 25  1  0
  5 26  1  0
  5 27  1  0
  5 28  1  0
 11 29  1  0
 11 30  1  0
 12 31  1  0
 12 32  1  0
 15 33  1  0
 17 34  1  0
 18 35  1  0
M  END
>  <Binding energies>  (1) 
[-7.49]

>  <Ligand effiencies>  (1) 
[-0.34045454545454545]

>  <Interactions>  (1) 
["V-B:ARG:545:CG:9893, V-A:GLU:543:CB:4905, V-B:GLU:543:CB:9877, V-A:GLU:543:CG:4906, V-B:GLU:543:CD:9879, V-B:HIS:456:CE1:9040, V-A:ALA:541:CB:4891, H-A:GLY:454:N:4049, V-A:HIS:456:CE1:4069, H-A:ARG:545:NH1:4926, V-A:GLU:543:CD:4907, V-B:ARG:545:CZ:9897, H-B:TYR:484:OH:9318, H-A:ARG:545:NH2:4927, V-B:ARG:545:CD:9894, V-B:TYR:484:CZ:9317, V-B:TYR:484:CE2:9316, V-A:TYR:484:CZ:4346, V-A:ARG:545:CZ:4925, V-A:ASP:366:CG:3212, H-A:ARG:545:NE:4923, H-A:TYR:484:OH:4347, H-B:ARG:545:N:9891, V-A:TYR:484:CE2:4345, H-A:GLU:543:OE1:4908"]

$$$$
1q_Grossjean_2025
     RDKit          3D

 38 38  0  0  0  0  0  0  0  0999 V2000
  133.3280  125.0830   62.9890 C   0  0  0  0  0  0  0  0  0  0  0  0
  133.7110  124.7640   64.3190 O   0  0  0  0  0  0  0  0  0  0  0  0
  133.4520  125.6250   65.3340 C   0  0  0  0  0  0  0  0  0  0  0  0
  134.1830  125.8260   66.3050 O   0  0  0  0  0  0  0  0  0  0  0  0
  132.0970  126.3540   65.2110 C   0  0  0  0  0  0  0  0  0  0  0  0
  131.4650  126.6160   66.5120 N   0  0  0  0  0  0  0  0  0  0  0  0
  130.5670  125.8230   67.1270 C   0  0  0  0  0  0  0  0  0  0  0  0
  130.1690  124.7590   66.6500 O   0  0  0  0  0  0  0  0  0  0  0  0
  130.0620  126.3120   68.4930 C   0  0  0  0  0  0  0  0  0  0  0  0
  128.6940  127.0210   68.4460 C   0  0  0  0  0  0  0  0  0  0  0  0
  128.7330  128.6200   67.5820 S   0  0  0  0  0  0  0  0  0  0  0  0
  127.1710  128.8590   66.7600 C   0  0  0  0  0  0  0  0  0  0  0  0
  126.1250  128.9880   67.6170 N   0  0  0  0  0  0  0  0  0  0  0  0
  124.8850  129.1720   67.1090 C   0  0  0  0  0  0  0  0  0  0  0  0
  123.7660  129.2890   68.1280 C   0  0  0  0  0  0  0  0  0  0  0  0
  124.6360  129.2470   65.7400 C   0  0  0  0  0  0  0  0  0  0  0  0
  125.7080  129.1420   64.8490 C   0  0  0  0  0  0  0  0  0  0  0  0
  125.4120  129.2450   63.3530 C   0  0  0  0  0  0  0  0  0  0  0  0
  127.0140  128.9510   65.3560 C   0  0  0  0  0  0  0  0  0  0  0  0
  128.1550  128.8960   64.4400 C   0  0  0  0  0  0  0  0  0  0  0  0
  129.0550  128.8540   63.7130 N   0  0  0  0  0  0  0  0  0  0  0  0
  132.4829  125.7869   63.0096 H   0  0  0  0  0  0  0  0  0  0  0  0
  134.1770  125.5447   62.4637 H   0  0  0  0  0  0  0  0  0  0  0  0
  133.0274  124.1645   62.4637 H   0  0  0  0  0  0  0  0  0  0  0  0
  132.2610  127.3149   64.7013 H   0  0  0  0  0  0  0  0  0  0  0  0
  131.4209  125.6978   64.6432 H   0  0  0  0  0  0  0  0  0  0  0  0
  131.7190  127.4850   66.9600 H   0  0  0  0  0  0  0  0  0  0  0  0
  129.9765  125.4419   69.1605 H   0  0  0  0  0  0  0  0  0  0  0  0
  130.7901  127.0549   68.8509 H   0  0  0  0  0  0  0  0  0  0  0  0
  127.9791  126.3638   67.9293 H   0  0  0  0  0  0  0  0  0  0  0  0
  128.3994  127.2233   69.4863 H   0  0  0  0  0  0  0  0  0  0  0  0
  124.1881  129.2449   69.1428 H   0  0  0  0  0  0  0  0  0  0  0  0
  123.2429  130.2467   67.9898 H   0  0  0  0  0  0  0  0  0  0  0  0
  123.0561  128.4602   67.9898 H   0  0  0  0  0  0  0  0  0  0  0  0
  123.6110  129.3868   65.3660 H   0  0  0  0  0  0  0  0  0  0  0  0
  124.3823  129.6033   63.2068 H   0  0  0  0  0  0  0  0  0  0  0  0
  126.1155  129.9512   62.8878 H   0  0  0  0  0  0  0  0  0  0  0  0
  125.5252  128.2547   62.8878 H   0  0  0  0  0  0  0  0  0  0  0  0
  1  2  1  0
  2  3  1  0
  3  4  2  0
  3  5  1  0
  5  6  1  0
  6  7  1  0
  7  8  2  0
  7  9  1  0
  9 10  1  0
 10 11  1  0
 11 12  1  0
 12 13  2  0
 13 14  1  0
 14 15  1  0
 14 16  2  0
 16 17  1  0
 17 18  1  0
 17 19  2  0
 19 20  1  0
 20 21  3  0
 19 12  1  0
  1 22  1  0
  1 23  1  0
  1 24  1  0
  5 25  1  0
  5 26  1  0
  6 27  1  0
  9 28  1  0
  9 29  1  0
 10 30  1  0
 10 31  1  0
 15 32  1  0
 15 33  1  0
 15 34  1  0
 16 35  1  0
 18 36  1  0
 18 37  1  0
 18 38  1  0
M  END
>  <Binding energies>  (1) 
[-5.8]

>  <Ligand effiencies>  (1) 
[-0.2636363636363636]

>  <Interactions>  (1) 
["V-B:ARG:545:CG:9893, V-B:GLU:543:CB:9877, V-B:GLU:543:CD:9879, H-A:GLY:454:N:4049, V-A:HIS:456:CE1:4069, V-A:GLU:543:CD:4907, V-B:ARG:545:CZ:9897, H-B:TYR:484:OH:9318, V-B:ARG:545:CD:9894, V-A:TYR:484:CZ:4346, V-A:ARG:545:CZ:4925, V-A:ASP:366:CG:3212, H-A:ARG:545:NE:4923, H-A:TYR:484:OH:4347, V-A:TYR:484:CE2:4345, V-B:ARG:545:CB:9892, H-A:GLU:543:OE1:4908, V-B:ILE:455:C:9022"]

$$$$
2a_Ghoteimi_2023
     RDKit          3D

 85 90  0  0  0  0  0  0  0  0999 V2000
  123.6710  124.0590   58.7840 C   0  0  0  0  0  0  0  0  0  0  0  0
  124.7690  123.9510   57.7220 C   0  0  0  0  0  0  0  0  0  0  0  0
  126.0250  123.7590   58.3600 O   0  0  0  0  0  0  0  0  0  0  0  0
  126.9430  124.7580   58.4190 C   0  0  0  0  0  0  0  0  0  0  0  0
  128.0470  124.7000   57.8690 O   0  0  0  0  0  0  0  0  0  0  0  0
  126.4770  125.9440   59.2140 C   0  0  0  0  0  0  0  0  0  0  0  0
  126.4780  125.9450   60.6170 C   0  0  0  0  0  0  0  0  0  0  0  0
  126.0410  127.0610   61.3230 C   0  0  0  0  0  0  0  0  0  0  0  0
  125.6000  128.2000   60.6470 C   0  0  0  0  0  0  0  0  0  0  0  0
  125.1770  129.2690   61.4600 N   0  0  0  0  0  0  0  0  0  0  0  0
  124.2550  130.2260   61.2210 C   0  0  0  0  0  0  0  0  0  0  0  0
  123.6260  130.3570   60.1700 O   0  0  0  0  0  0  0  0  0  0  0  0
  124.0400  131.2250   62.3660 C   0  0  0  0  0  0  0  0  0  0  0  0
  123.7890  130.4580   63.9990 S   0  0  0  0  0  0  0  0  0  0  0  0
  125.4170  130.1020   64.6170 C   0  0  0  0  0  0  0  0  0  0  0  0
  126.4090  130.3690   63.7360 N   0  0  0  0  0  0  0  0  0  0  0  0
  127.6970  130.1300   64.0880 C   0  0  0  0  0  0  0  0  0  0  0  0
  128.7380  130.4410   63.0610 C   0  0  0  0  0  0  0  0  0  0  0  0
  129.1360  131.7590   62.8070 C   0  0  0  0  0  0  0  0  0  0  0  0
  130.0970  132.0430   61.8410 C   0  0  0  0  0  0  0  0  0  0  0  0
  130.7020  131.0200   61.0980 C   0  0  0  0  0  0  0  0  0  0  0  0
  131.6450  131.3230   60.1090 N   0  0  0  0  0  0  0  0  0  0  0  0
  131.2640  132.0420   58.8760 C   0  0  0  0  0  0  0  0  0  0  0  0
  132.4650  132.6030   58.0860 C   0  0  0  0  0  0  0  0  0  0  0  0
  133.3890  131.5640   57.8040 O   0  0  0  0  0  0  0  0  0  0  0  0
  133.8900  130.9800   58.9950 C   0  0  0  0  0  0  0  0  0  0  0  0
  132.7340  130.3690   59.8150 C   0  0  0  0  0  0  0  0  0  0  0  0
  130.2910  129.7010   61.3480 C   0  0  0  0  0  0  0  0  0  0  0  0
  129.3320  129.4170   62.3150 C   0  0  0  0  0  0  0  0  0  0  0  0
  128.0190  129.6250   65.3510 C   0  0  0  0  0  0  0  0  0  0  0  0
  127.0090  129.3400   66.2800 C   0  0  0  0  0  0  0  0  0  0  0  0
  127.4230  128.7960   67.6090 C   0  0  0  0  0  0  0  0  0  0  0  0
  128.5500  129.3090   68.2580 C   0  0  0  0  0  0  0  0  0  0  0  0
  128.9550  128.7960   69.4860 C   0  0  0  0  0  0  0  0  0  0  0  0
  128.2440  127.7560   70.1050 C   0  0  0  0  0  0  0  0  0  0  0  0
  128.6450  127.2140   71.3290 N   0  0  0  0  0  0  0  0  0  0  0  0
  127.7330  126.3040   72.0510 C   0  0  0  0  0  0  0  0  0  0  0  0
  128.4350  125.4880   73.1570 C   0  0  0  0  0  0  0  0  0  0  0  0
  129.0950  126.3610   74.0610 O   0  0  0  0  0  0  0  0  0  0  0  0
  130.0780  127.1480   73.4070 C   0  0  0  0  0  0  0  0  0  0  0  0
  129.4210  128.0050   72.3040 C   0  0  0  0  0  0  0  0  0  0  0  0
  127.1220  127.2390   69.4410 C   0  0  0  0  0  0  0  0  0  0  0  0
  126.7170  127.7510   68.2120 C   0  0  0  0  0  0  0  0  0  0  0  0
  125.6650  129.5890   65.9100 C   0  0  0  0  0  0  0  0  0  0  0  0
  124.5700  129.3640   66.8590 C   0  0  0  0  0  0  0  0  0  0  0  0
  123.7070  129.1850   67.6100 N   0  0  0  0  0  0  0  0  0  0  0  0
  125.5890  128.2040   59.2440 C   0  0  0  0  0  0  0  0  0  0  0  0
  126.0270  127.0870   58.5380 C   0  0  0  0  0  0  0  0  0  0  0  0
  124.1239  124.0145   59.7855 H   0  0  0  0  0  0  0  0  0  0  0  0
  123.1381  125.0139   58.6647 H   0  0  0  0  0  0  0  0  0  0  0  0
  122.9623  123.2262   58.6647 H   0  0  0  0  0  0  0  0  0  0  0  0
  124.5583  123.0969   57.0617 H   0  0  0  0  0  0  0  0  0  0  0  0
  124.7966  124.8754   57.1264 H   0  0  0  0  0  0  0  0  0  0  0  0
  126.8271  125.0562   61.1630 H   0  0  0  0  0  0  0  0  0  0  0  0
  126.0429  127.0459   62.4229 H   0  0  0  0  0  0  0  0  0  0  0  0
  125.6630  129.3310   62.3430 H   0  0  0  0  0  0  0  0  0  0  0  0
  124.9244  131.8764   62.4245 H   0  0  0  0  0  0  0  0  0  0  0  0
  123.1162  131.7747   62.1328 H   0  0  0  0  0  0  0  0  0  0  0  0
  128.6827  132.5820   63.3791 H   0  0  0  0  0  0  0  0  0  0  0  0
  130.3866  133.0882   61.6575 H   0  0  0  0  0  0  0  0  0  0  0  0
  130.7148  131.3464   58.2245 H   0  0  0  0  0  0  0  0  0  0  0  0
  130.6522  132.9030   59.1832 H   0  0  0  0  0  0  0  0  0  0  0  0
  132.1079  133.0390   57.1414 H   0  0  0  0  0  0  0  0  0  0  0  0
  132.9641  133.3759   58.6889 H   0  0  0  0  0  0  0  0  0  0  0  0
  134.6103  130.1896   58.7372 H   0  0  0  0  0  0  0  0  0  0  0  0
  134.3851  131.7572   59.5957 H   0  0  0  0  0  0  0  0  0  0  0  0
  132.3133  129.5260   59.2472 H   0  0  0  0  0  0  0  0  0  0  0  0
  133.1561  130.0555   60.7812 H   0  0  0  0  0  0  0  0  0  0  0  0
  130.7350  128.8777   60.7691 H   0  0  0  0  0  0  0  0  0  0  0  0
  129.0366  128.3729   62.4957 H   0  0  0  0  0  0  0  0  0  0  0  0
  129.0718  129.4502   65.6175 H   0  0  0  0  0  0  0  0  0  0  0  0
  129.1218  130.1258   67.7933 H   0  0  0  0  0  0  0  0  0  0  0  0
  129.8459  129.2117   69.9794 H   0  0  0  0  0  0  0  0  0  0  0  0
  126.9347  126.9036   72.5128 H   0  0  0  0  0  0  0  0  0  0  0  0
  127.3396  125.5862   71.3162 H   0  0  0  0  0  0  0  0  0  0  0  0
  127.6861  124.8961   73.7037 H   0  0  0  0  0  0  0  0  0  0  0  0
  129.1762  124.8187   72.6959 H   0  0  0  0  0  0  0  0  0  0  0  0
  130.5631  127.8084   74.1408 H   0  0  0  0  0  0  0  0  0  0  0  0
  130.8265  126.4839   72.9501 H   0  0  0  0  0  0  0  0  0  0  0  0
  128.7449  128.7292   72.7819 H   0  0  0  0  0  0  0  0  0  0  0  0
  130.2334  128.4968   71.7489 H   0  0  0  0  0  0  0  0  0  0  0  0
  126.5534  126.4161   69.8987 H   0  0  0  0  0  0  0  0  0  0  0  0
  125.8333  127.3296   67.7105 H   0  0  0  0  0  0  0  0  0  0  0  0
  125.2334  129.0919   58.7006 H   0  0  0  0  0  0  0  0  0  0  0  0
  126.0200  127.1013   57.4381 H   0  0  0  0  0  0  0  0  0  0  0  0
  1  2  1  0
  2  3  1  0
  3  4  1  0
  4  5  2  0
  4  6  1  0
  6  7  2  0
  7  8  1  0
  8  9  2  0
  9 10  1  0
 10 11  1  0
 11 12  2  0
 11 13  1  0
 13 14  1  0
 14 15  1  0
 15 16  2  0
 16 17  1  0
 17 18  1  0
 18 19  2  0
 19 20  1  0
 20 21  2  0
 21 22  1  0
 22 23  1  0
 23 24  1  0
 24 25  1  0
 25 26  1  0
 26 27  1  0
 21 28  1  0
 28 29  2  0
 17 30  2  0
 30 31  1  0
 31 32  1  0
 32 33  2  0
 33 34  1  0
 34 35  2  0
 35 36  1  0
 36 37  1  0
 37 38  1  0
 38 39  1  0
 39 40  1  0
 40 41  1  0
 35 42  1  0
 42 43  2  0
 31 44  2  0
 44 45  1  0
 45 46  3  0
  9 47  1  0
 47 48  2  0
 48  6  1  0
 44 15  1  0
 29 18  1  0
 43 32  1  0
 27 22  1  0
 41 36  1  0
  1 49  1  0
  1 50  1  0
  1 51  1  0
  2 52  1  0
  2 53  1  0
  7 54  1  0
  8 55  1  0
 10 56  1  0
 13 57  1  0
 13 58  1  0
 19 59  1  0
 20 60  1  0
 23 61  1  0
 23 62  1  0
 24 63  1  0
 24 64  1  0
 26 65  1  0
 26 66  1  0
 27 67  1  0
 27 68  1  0
 28 69  1  0
 29 70  1  0
 30 71  1  0
 33 72  1  0
 34 73  1  0
 37 74  1  0
 37 75  1  0
 38 76  1  0
 38 77  1  0
 40 78  1  0
 40 79  1  0
 41 80  1  0
 41 81  1  0
 42 82  1  0
 43 83  1  0
 47 84  1  0
 48 85  1  0
M  END
>  <Binding energies>  (1) 
[-9.56]

>  <Ligand effiencies>  (1) 
[-0.19510204081632654]

>  <Interactions>  (1) 
["V-B:ARG:545:CG:9893, V-A:GLU:543:CB:4905, V-B:GLU:543:CB:9877, V-A:GLU:543:CG:4906, V-B:GLU:543:CD:9879, V-B:HIS:456:CE1:9040, V-A:HIS:456:CE1:4069, V-A:GLU:543:CD:4907, H-B:TYR:484:OH:9318, V-B:ARG:545:CD:9894, H-B:GLY:454:N:9020, V-B:ASP:366:CG:8183, V-B:TYR:484:CE2:9316, V-B:PRO:540:CB:9856, V-A:ASP:366:CG:3212, V-B:GLU:543:C:9873, V-B:GLY:544:C:9883, V-A:ASN:362:C:3171, H-B:ARG:545:NE:9895, V-A:PRO:540:CB:4884, V-A:PRO:540:CA:4882, V-B:ASP:366:CB:8182, V-B:TYR:531:CE2:9764, V-B:LEU:363:CD1:8159, V-A:LEU:363:CA:3184, V-A:LEU:363:CD1:3188, V-A:PRO:540:N:4883, V-A:ASP:366:CB:3211, H-A:TYR:531:OH:4794, V-B:LYS:547:CE:9921, H-B:LYS:547:NZ:9922, V-B:LEU:363:CA:8155, V-B:LEU:363:CB:8157, V-A:LEU:363:C:3182"]

$$$$
2a_Grossjean_2025
     RDKit          3D

 45 46  0  0  0  0  0  0  0  0999 V2000
  123.3250  130.4400   63.0930 C   0  0  0  0  0  0  0  0  0  0  0  0
  124.1310  130.5910   64.3860 C   0  0  0  0  0  0  0  0  0  0  0  0
  123.6840  129.6280   65.3340 O   0  0  0  0  0  0  0  0  0  0  0  0
  124.1260  129.6500   66.6170 C   0  0  0  0  0  0  0  0  0  0  0  0
  123.4330  130.0160   67.5710 O   0  0  0  0  0  0  0  0  0  0  0  0
  125.5400  129.1620   66.7630 C   0  0  0  0  0  0  0  0  0  0  0  0
  126.4710  129.2650   65.7190 C   0  0  0  0  0  0  0  0  0  0  0  0
  127.7730  128.8010   65.8860 C   0  0  0  0  0  0  0  0  0  0  0  0
  128.1690  128.2220   67.0920 C   0  0  0  0  0  0  0  0  0  0  0  0
  129.5030  127.7760   67.1440 N   0  0  0  0  0  0  0  0  0  0  0  0
  130.0210  126.6500   67.6790 C   0  0  0  0  0  0  0  0  0  0  0  0
  129.3820  125.7790   68.2700 O   0  0  0  0  0  0  0  0  0  0  0  0
  131.5360  126.4800   67.5190 C   0  0  0  0  0  0  0  0  0  0  0  0
  132.0680  126.3520   65.7790 S   0  0  0  0  0  0  0  0  0  0  0  0
  131.6340  124.7410   65.1320 C   0  0  0  0  0  0  0  0  0  0  0  0
  130.4900  124.1980   65.6220 N   0  0  0  0  0  0  0  0  0  0  0  0
  130.1080  122.9770   65.1870 C   0  0  0  0  0  0  0  0  0  0  0  0
  128.8340  122.4250   65.8010 C   0  0  0  0  0  0  0  0  0  0  0  0
  130.8350  122.2520   64.2470 C   0  0  0  0  0  0  0  0  0  0  0  0
  132.0160  122.7980   63.7200 C   0  0  0  0  0  0  0  0  0  0  0  0
  132.8090  121.9840   62.6800 C   0  0  0  0  0  0  0  0  0  0  0  0
  133.0820  122.7420   61.6170 F   0  0  0  0  0  0  0  0  0  0  0  0
  133.9540  121.5560   63.2130 F   0  0  0  0  0  0  0  0  0  0  0  0
  132.1420  120.9110   62.2470 F   0  0  0  0  0  0  0  0  0  0  0  0
  132.4310  124.0770   64.1710 C   0  0  0  0  0  0  0  0  0  0  0  0
  133.6580  124.6920   63.6560 C   0  0  0  0  0  0  0  0  0  0  0  0
  134.6270  125.1780   63.2500 N   0  0  0  0  0  0  0  0  0  0  0  0
  127.2460  128.1240   68.1430 C   0  0  0  0  0  0  0  0  0  0  0  0
  125.9450  128.5910   67.9760 C   0  0  0  0  0  0  0  0  0  0  0  0
  122.2711  130.2426   63.3388 H   0  0  0  0  0  0  0  0  0  0  0  0
  123.3970  131.3673   62.5056 H   0  0  0  0  0  0  0  0  0  0  0  0
  123.7278  129.6017   62.5056 H   0  0  0  0  0  0  0  0  0  0  0  0
  125.1985  130.4304   64.1745 H   0  0  0  0  0  0  0  0  0  0  0  0
  123.9883  131.6028   64.7932 H   0  0  0  0  0  0  0  0  0  0  0  0
  126.1703  129.7155   64.7616 H   0  0  0  0  0  0  0  0  0  0  0  0
  128.4948  128.8916   65.0609 H   0  0  0  0  0  0  0  0  0  0  0  0
  130.1560  128.3780   66.6670 H   0  0  0  0  0  0  0  0  0  0  0  0
  132.0347  127.3487   67.9736 H   0  0  0  0  0  0  0  0  0  0  0  0
  131.8121  125.5374   68.0142 H   0  0  0  0  0  0  0  0  0  0  0  0
  128.9112  122.4584   66.8978 H   0  0  0  0  0  0  0  0  0  0  0  0
  127.9768  123.0324   65.4751 H   0  0  0  0  0  0  0  0  0  0  0  0
  128.6909  121.3842   65.4751 H   0  0  0  0  0  0  0  0  0  0  0  0
  130.4874  121.2608   63.9203 H   0  0  0  0  0  0  0  0  0  0  0  0
  127.5503  127.6774   69.1011 H   0  0  0  0  0  0  0  0  0  0  0  0
  125.2274  128.5106   68.8058 H   0  0  0  0  0  0  0  0  0  0  0  0
  1  2  1  0
  2  3  1  0
  3  4  1  0
  4  5  2  0
  4  6  1  0
  6  7  2  0
  7  8  1  0
  8  9  2  0
  9 10  1  0
 10 11  1  0
 11 12  2  0
 11 13  1  0
 13 14  1  0
 14 15  1  0
 15 16  2  0
 16 17  1  0
 17 18  1  0
 17 19  2  0
 19 20  1  0
 20 21  1  0
 21 22  1  0
 21 23  1  0
 21 24  1  0
 20 25  2  0
 25 26  1  0
 26 27  3  0
  9 28  1  0
 28 29  2  0
 29  6  1  0
 25 15  1  0
  1 30  1  0
  1 31  1  0
  1 32  1  0
  2 33  1  0
  2 34  1  0
  7 35  1  0
  8 36  1  0
 10 37  1  0
 13 38  1  0
 13 39  1  0
 18 40  1  0
 18 41  1  0
 18 42  1  0
 19 43  1  0
 28 44  1  0
 29 45  1  0
M  END
>  <Binding energies>  (1) 
[-7.27]

>  <Ligand effiencies>  (1) 
[-0.24233333333333332]

>  <Interactions>  (1) 
["V-B:ARG:545:CG:9893, V-B:GLU:543:CB:9877, V-B:GLU:543:CD:9879, V-B:HIS:456:CE1:9040, H-B:ARG:545:NH2:9899, H-A:GLY:454:N:4049, V-A:HIS:456:CE1:4069, H-A:ARG:545:NH1:4926, V-A:GLU:543:CD:4907, V-A:GLY:454:CA:4048, H-B:TYR:484:OH:9318, H-A:ARG:545:NH2:4927, V-B:ARG:545:CD:9894, H-B:GLY:454:N:9020, V-A:TYR:484:CZ:4346, V-B:ALA:541:CB:9863, H-A:TYR:484:OH:4347, H-A:GLU:543:OE2:4909, H-B:ARG:545:NH1:9898, H-B:ILE:455:N:9025, H-B:ARG:545:NE:9895, V-B:ALA:541:C:9859, V-B:GLU:543:CG:9878, V-B:GLY:453:C:9012, V-A:TYR:484:CE2:4345, V-A:LEU:475:CD2:4258, V-B:GLY:453:CA:9014, V-B:GLY:454:CA:9019, H-B:GLU:543:OE2:9881, V-A:ILE:369:CD1:3238, V-A:SER:385:C:3404, V-A:LEU:475:CD1:4257, H-A:GLU:543:OE1:4908"]

$$$$
2aa_Ghoteimi_2023
     RDKit          3D

 85 90  0  0  0  0  0  0  0  0999 V2000
  124.5650  123.4970   57.5970 C   0  0  0  0  0  0  0  0  0  0  0  0
  125.0960  124.8070   58.1890 C   0  0  0  0  0  0  0  0  0  0  0  0
  126.5040  124.8700   58.0050 O   0  0  0  0  0  0  0  0  0  0  0  0
  127.1970  126.0090   58.2660 C   0  0  0  0  0  0  0  0  0  0  0  0
  128.2500  126.3110   57.6940 O   0  0  0  0  0  0  0  0  0  0  0  0
  126.5470  126.8720   59.3080 C   0  0  0  0  0  0  0  0  0  0  0  0
  125.8190  128.0220   58.9680 C   0  0  0  0  0  0  0  0  0  0  0  0
  125.2240  128.8000   59.9570 C   0  0  0  0  0  0  0  0  0  0  0  0
  125.3500  128.4520   61.3030 C   0  0  0  0  0  0  0  0  0  0  0  0
  124.7060  129.3070   62.2190 N   0  0  0  0  0  0  0  0  0  0  0  0
  124.4380  130.6270   62.1280 C   0  0  0  0  0  0  0  0  0  0  0  0
  124.7040  131.3390   61.1570 O   0  0  0  0  0  0  0  0  0  0  0  0
  123.7260  131.2190   63.3510 C   0  0  0  0  0  0  0  0  0  0  0  0
  123.9800  130.4020   64.4990 O   0  0  0  0  0  0  0  0  0  0  0  0
  125.2850  130.1050   64.8670 C   0  0  0  0  0  0  0  0  0  0  0  0
  126.2760  130.3460   63.9640 N   0  0  0  0  0  0  0  0  0  0  0  0
  127.5630  130.0710   64.2930 C   0  0  0  0  0  0  0  0  0  0  0  0
  128.5970  130.3570   63.2500 C   0  0  0  0  0  0  0  0  0  0  0  0
  129.0940  129.3330   62.4380 C   0  0  0  0  0  0  0  0  0  0  0  0
  130.0510  129.5950   61.4610 C   0  0  0  0  0  0  0  0  0  0  0  0
  130.5370  130.8950   61.2510 C   0  0  0  0  0  0  0  0  0  0  0  0
  131.5080  131.1730   60.2820 N   0  0  0  0  0  0  0  0  0  0  0  0
  131.3280  132.2640   59.3020 C   0  0  0  0  0  0  0  0  0  0  0  0
  132.3060  132.1980   58.1100 C   0  0  0  0  0  0  0  0  0  0  0  0
  133.6430  132.1550   58.5810 O   0  0  0  0  0  0  0  0  0  0  0  0
  133.8710  131.0140   59.3930 C   0  0  0  0  0  0  0  0  0  0  0  0
  132.9400  131.0450   60.6230 C   0  0  0  0  0  0  0  0  0  0  0  0
  130.0510  131.9140   62.0820 C   0  0  0  0  0  0  0  0  0  0  0  0
  129.0960  131.6510   63.0600 C   0  0  0  0  0  0  0  0  0  0  0  0
  127.8900  129.5280   65.5400 C   0  0  0  0  0  0  0  0  0  0  0  0
  126.8890  129.2600   66.4820 C   0  0  0  0  0  0  0  0  0  0  0  0
  127.2960  128.6560   67.7870 C   0  0  0  0  0  0  0  0  0  0  0  0
  128.4630  129.0800   68.4270 C   0  0  0  0  0  0  0  0  0  0  0  0
  128.8590  128.5080   69.6330 C   0  0  0  0  0  0  0  0  0  0  0  0
  128.1060  127.4830   70.2260 C   0  0  0  0  0  0  0  0  0  0  0  0
  128.4820  126.8960   71.4380 N   0  0  0  0  0  0  0  0  0  0  0  0
  127.5470  126.0540   72.2070 C   0  0  0  0  0  0  0  0  0  0  0  0
  128.2350  125.2190   73.3080 C   0  0  0  0  0  0  0  0  0  0  0  0
  128.9760  126.0690   74.1700 O   0  0  0  0  0  0  0  0  0  0  0  0
  129.9810  126.7800   73.4650 C   0  0  0  0  0  0  0  0  0  0  0  0
  129.3400  127.6570   72.3690 C   0  0  0  0  0  0  0  0  0  0  0  0
  126.9330  127.0690   69.5800 C   0  0  0  0  0  0  0  0  0  0  0  0
  126.5370  127.6420   68.3760 C   0  0  0  0  0  0  0  0  0  0  0  0
  125.5520  129.5710   66.1410 C   0  0  0  0  0  0  0  0  0  0  0  0
  124.4470  129.3720   67.0810 C   0  0  0  0  0  0  0  0  0  0  0  0
  123.5740  129.2140   67.8250 N   0  0  0  0  0  0  0  0  0  0  0  0
  126.0710  127.3000   61.6500 C   0  0  0  0  0  0  0  0  0  0  0  0
  126.6620  126.5210   60.6590 C   0  0  0  0  0  0  0  0  0  0  0  0
  124.2875  122.8123   58.4119 H   0  0  0  0  0  0  0  0  0  0  0  0
  123.6808  123.7066   56.9771 H   0  0  0  0  0  0  0  0  0  0  0  0
  125.3456  123.0318   56.9771 H   0  0  0  0  0  0  0  0  0  0  0  0
  124.6207  125.6590   57.6808 H   0  0  0  0  0  0  0  0  0  0  0  0
  124.8630  124.8465   59.2633 H   0  0  0  0  0  0  0  0  0  0  0  0
  125.7176  128.3111   57.9115 H   0  0  0  0  0  0  0  0  0  0  0  0
  124.6504  129.6955   59.6759 H   0  0  0  0  0  0  0  0  0  0  0  0
  124.3660  128.8410   63.0470 H   0  0  0  0  0  0  0  0  0  0  0  0
  124.1013  132.2363   63.5358 H   0  0  0  0  0  0  0  0  0  0  0  0
  122.6431  131.2539   63.1609 H   0  0  0  0  0  0  0  0  0  0  0  0
  128.7238  128.3060   62.5729 H   0  0  0  0  0  0  0  0  0  0  0  0
  130.4327  128.7689   60.8431 H   0  0  0  0  0  0  0  0  0  0  0  0
  130.3010  132.2133   58.9112 H   0  0  0  0  0  0  0  0  0  0  0  0
  131.5309  133.2068   59.8312 H   0  0  0  0  0  0  0  0  0  0  0  0
  132.0989  131.2939   57.5186 H   0  0  0  0  0  0  0  0  0  0  0  0
  132.1725  133.0924   57.4837 H   0  0  0  0  0  0  0  0  0  0  0  0
  133.6704  130.1046   58.8075 H   0  0  0  0  0  0  0  0  0  0  0  0
  134.9172  131.0167   59.7328 H   0  0  0  0  0  0  0  0  0  0  0  0
  133.0802  130.1117   61.1881 H   0  0  0  0  0  0  0  0  0  0  0  0
  133.2114  131.9356   61.2088 H   0  0  0  0  0  0  0  0  0  0  0  0
  130.4308  132.9390   61.9591 H   0  0  0  0  0  0  0  0  0  0  0  0
  128.7280  132.4721   63.6928 H   0  0  0  0  0  0  0  0  0  0  0  0
  128.9406  129.3100   65.7823 H   0  0  0  0  0  0  0  0  0  0  0  0
  129.0751  129.8736   67.9737 H   0  0  0  0  0  0  0  0  0  0  0  0
  129.7746  128.8644   70.1277 H   0  0  0  0  0  0  0  0  0  0  0  0
  126.7994  126.7070   72.6810 H   0  0  0  0  0  0  0  0  0  0  0  0
  127.0923  125.3452   71.4993 H   0  0  0  0  0  0  0  0  0  0  0  0
  127.4705  124.6852   73.8917 H   0  0  0  0  0  0  0  0  0  0  0  0
  128.9184  124.4959   72.8389 H   0  0  0  0  0  0  0  0  0  0  0  0
  130.5336  127.4214   74.1674 H   0  0  0  0  0  0  0  0  0  0  0  0
  130.6681  126.0611   72.9949 H   0  0  0  0  0  0  0  0  0  0  0  0
  128.7273  128.4306   72.8550 H   0  0  0  0  0  0  0  0  0  0  0  0
  130.1602  128.0887   71.7766 H   0  0  0  0  0  0  0  0  0  0  0  0
  126.3160  126.2786   70.0323 H   0  0  0  0  0  0  0  0  0  0  0  0
  125.6175  127.2934   67.8831 H   0  0  0  0  0  0  0  0  0  0  0  0
  126.1696  127.0116   62.7069 H   0  0  0  0  0  0  0  0  0  0  0  0
  127.2258  125.6194   60.9403 H   0  0  0  0  0  0  0  0  0  0  0  0
  1  2  1  0
  2  3  1  0
  3  4  1  0
  4  5  2  0
  4  6  1  0
  6  7  2  0
  7  8  1  0
  8  9  2  0
  9 10  1  0
 10 11  1  0
 11 12  2  0
 11 13  1  0
 13 14  1  0
 14 15  1  0
 15 16  2  0
 16 17  1  0
 17 18  1  0
 18 19  2  0
 19 20  1  0
 20 21  2  0
 21 22  1  0
 22 23  1  0
 23 24  1  0
 24 25  1  0
 25 26  1  0
 26 27  1  0
 21 28  1  0
 28 29  2  0
 17 30  2  0
 30 31  1  0
 31 32  1  0
 32 33  2  0
 33 34  1  0
 34 35  2  0
 35 36  1  0
 36 37  1  0
 37 38  1  0
 38 39  1  0
 39 40  1  0
 40 41  1  0
 35 42  1  0
 42 43  2  0
 31 44  2  0
 44 45  1  0
 45 46  3  0
  9 47  1  0
 47 48  2  0
 48  6  1  0
 44 15  1  0
 29 18  1  0
 43 32  1  0
 27 22  1  0
 41 36  1  0
  1 49  1  0
  1 50  1  0
  1 51  1  0
  2 52  1  0
  2 53  1  0
  7 54  1  0
  8 55  1  0
 10 56  1  0
 13 57  1  0
 13 58  1  0
 19 59  1  0
 20 60  1  0
 23 61  1  0
 23 62  1  0
 24 63  1  0
 24 64  1  0
 26 65  1  0
 26 66  1  0
 27 67  1  0
 27 68  1  0
 28 69  1  0
 29 70  1  0
 30 71  1  0
 33 72  1  0
 34 73  1  0
 37 74  1  0
 37 75  1  0
 38 76  1  0
 38 77  1  0
 40 78  1  0
 40 79  1  0
 41 80  1  0
 41 81  1  0
 42 82  1  0
 43 83  1  0
 47 84  1  0
 48 85  1  0
M  END
>  <Binding energies>  (1) 
[-9.5]

>  <Ligand effiencies>  (1) 
[-0.19387755102040816]

>  <Interactions>  (1) 
["V-B:ARG:545:CG:9893, V-A:GLU:543:CB:4905, V-B:GLU:543:CB:9877, V-A:GLU:543:CG:4906, V-B:GLU:543:CD:9879, V-B:HIS:456:CE1:9040, V-A:HIS:456:CE1:4069, V-A:GLU:543:CD:4907, H-B:TYR:484:OH:9318, V-B:ARG:545:CD:9894, H-B:GLY:454:N:9020, H-B:ASP:366:OD2:8185, H-B:ASP:366:OD1:8184, V-B:ASP:366:CG:8183, V-B:PRO:540:CB:9856, V-A:ASP:366:CG:3212, V-B:GLU:543:C:9873, V-B:GLY:544:C:9883, V-A:ASN:362:C:3171, H-B:ARG:545:NE:9895, V-A:PRO:540:CB:4884, V-A:PRO:540:CA:4882, V-B:ASP:366:CB:8182, V-B:TYR:531:CE2:9764, V-B:LEU:363:CD1:8159, H-B:TYR:531:OH:9766, V-A:LEU:363:CA:3184, V-A:PRO:540:N:4883, V-B:GLY:454:CA:9019, V-A:ASP:366:CB:3211, V-B:GLY:544:CA:9885, V-B:LYS:547:CE:9921, H-B:LYS:547:NZ:9922"]

$$$$
2b_Ghoteimi_2023
     RDKit          3D

 72 77  0  0  0  0  0  0  0  0999 V2000
  123.7720  129.1600   67.5720 N   0  0  0  0  0  0  0  0  0  0  0  0
  124.6290  129.3660   66.8220 C   0  0  0  0  0  0  0  0  0  0  0  0
  125.7180  129.6240   65.8750 C   0  0  0  0  0  0  0  0  0  0  0  0
  127.0610  129.3420   66.2290 C   0  0  0  0  0  0  0  0  0  0  0  0
  127.4710  128.7760   67.5490 C   0  0  0  0  0  0  0  0  0  0  0  0
  128.5980  129.2710   68.2080 C   0  0  0  0  0  0  0  0  0  0  0  0
  128.9850  128.7470   69.4370 C   0  0  0  0  0  0  0  0  0  0  0  0
  128.2650  127.7000   70.0340 C   0  0  0  0  0  0  0  0  0  0  0  0
  128.6260  127.1660   71.2730 N   0  0  0  0  0  0  0  0  0  0  0  0
  129.3650  128.0120   72.2320 C   0  0  0  0  0  0  0  0  0  0  0  0
  130.0230  127.2090   73.3740 C   0  0  0  0  0  0  0  0  0  0  0  0
  129.0500  126.4140   74.0360 O   0  0  0  0  0  0  0  0  0  0  0  0
  128.4340  125.4930   73.1500 C   0  0  0  0  0  0  0  0  0  0  0  0
  127.7280  126.2550   72.0090 C   0  0  0  0  0  0  0  0  0  0  0  0
  127.1370  127.2080   69.3640 C   0  0  0  0  0  0  0  0  0  0  0  0
  126.7470  127.7350   68.1360 C   0  0  0  0  0  0  0  0  0  0  0  0
  128.0670  129.6010   65.2900 C   0  0  0  0  0  0  0  0  0  0  0  0
  127.7420  130.0950   64.0230 C   0  0  0  0  0  0  0  0  0  0  0  0
  128.7740  130.3590   62.9740 C   0  0  0  0  0  0  0  0  0  0  0  0
  129.4490  129.3010   62.3540 C   0  0  0  0  0  0  0  0  0  0  0  0
  130.3990  129.5390   61.3650 C   0  0  0  0  0  0  0  0  0  0  0  0
  130.7220  130.8470   60.9680 C   0  0  0  0  0  0  0  0  0  0  0  0
  131.6530  131.1000   59.9540 N   0  0  0  0  0  0  0  0  0  0  0  0
  131.5130  132.3050   59.1110 C   0  0  0  0  0  0  0  0  0  0  0  0
  132.3530  132.2540   57.8160 C   0  0  0  0  0  0  0  0  0  0  0  0
  133.7150  132.0080   58.1300 O   0  0  0  0  0  0  0  0  0  0  0  0
  133.8780  130.7670   58.7980 C   0  0  0  0  0  0  0  0  0  0  0  0
  133.0820  130.7710   60.1210 C   0  0  0  0  0  0  0  0  0  0  0  0
  130.0390  131.9030   61.5870 C   0  0  0  0  0  0  0  0  0  0  0  0
  129.0860  131.6640   62.5730 C   0  0  0  0  0  0  0  0  0  0  0  0
  126.4540  130.3630   63.6860 N   0  0  0  0  0  0  0  0  0  0  0  0
  125.4680  130.1520   64.5890 C   0  0  0  0  0  0  0  0  0  0  0  0
  123.8460  130.5610   63.9810 S   0  0  0  0  0  0  0  0  0  0  0  0
  124.0410  131.2170   62.2960 C   0  0  0  0  0  0  0  0  0  0  0  0
  124.4750  132.6830   62.2960 C   0  0  0  0  0  0  0  0  0  0  0  0
  123.6160  133.5670   62.2680 O   0  0  0  0  0  0  0  0  0  0  0  0
  125.8080  132.8950   62.3230 N   0  0  0  0  0  0  0  0  0  0  0  0
  126.4670  134.1170   62.3400 C   0  0  0  0  0  0  0  0  0  0  0  0
  126.3140  135.0770   61.3410 C   0  0  0  0  0  0  0  0  0  0  0  0
  127.1210  136.1230   61.7230 C   0  0  0  0  0  0  0  0  0  0  0  0
  127.7280  135.8090   62.8920 O   0  0  0  0  0  0  0  0  0  0  0  0
  127.3030  134.5350   63.2750 N   0  0  0  0  0  0  0  0  0  0  0  0
  129.1846  130.0819   67.7516 H   0  0  0  0  0  0  0  0  0  0  0  0
  129.8676  129.1587   69.9484 H   0  0  0  0  0  0  0  0  0  0  0  0
  130.1526  128.5521   71.6862 H   0  0  0  0  0  0  0  0  0  0  0  0
  128.6362  128.6954   72.6923 H   0  0  0  0  0  0  0  0  0  0  0  0
  130.8035  126.5559   72.9566 H   0  0  0  0  0  0  0  0  0  0  0  0
  130.4675  127.9093   74.0965 H   0  0  0  0  0  0  0  0  0  0  0  0
  129.1999  124.8275   72.7251 H   0  0  0  0  0  0  0  0  0  0  0  0
  127.6914  124.8992   73.7031 H   0  0  0  0  0  0  0  0  0  0  0  0
  127.3179  125.5207   71.3000 H   0  0  0  0  0  0  0  0  0  0  0  0
  126.9413  126.8724   72.4672 H   0  0  0  0  0  0  0  0  0  0  0  0
  126.5511  126.3935   69.8149 H   0  0  0  0  0  0  0  0  0  0  0  0
  125.8622  127.3289   67.6239 H   0  0  0  0  0  0  0  0  0  0  0  0
  129.1193  129.4147   65.5507 H   0  0  0  0  0  0  0  0  0  0  0  0
  129.2254  128.2663   62.6528 H   0  0  0  0  0  0  0  0  0  0  0  0
  130.9055  128.6881   60.8861 H   0  0  0  0  0  0  0  0  0  0  0  0
  130.4540  132.4150   58.8346 H   0  0  0  0  0  0  0  0  0  0  0  0
  131.8816  133.1567   59.7015 H   0  0  0  0  0  0  0  0  0  0  0  0
  131.9769  131.4475   57.1694 H   0  0  0  0  0  0  0  0  0  0  0  0
  132.2714  133.2191   57.2946 H   0  0  0  0  0  0  0  0  0  0  0  0
  133.5095  129.9553   58.1536 H   0  0  0  0  0  0  0  0  0  0  0  0
  134.9446  130.6131   59.0187 H   0  0  0  0  0  0  0  0  0  0  0  0
  133.1573  129.7716   60.5744 H   0  0  0  0  0  0  0  0  0  0  0  0
  133.5197  131.5550   60.7565 H   0  0  0  0  0  0  0  0  0  0  0  0
  130.2599  132.9384   61.2884 H   0  0  0  0  0  0  0  0  0  0  0  0
  128.5700  132.5133   63.0445 H   0  0  0  0  0  0  0  0  0  0  0  0
  124.8018  130.6219   61.7696 H   0  0  0  0  0  0  0  0  0  0  0  0
  123.0651  131.1527   61.7925 H   0  0  0  0  0  0  0  0  0  0  0  0
  126.4050  132.0820   62.3600 H   0  0  0  0  0  0  0  0  0  0  0  0
  125.6840  135.0120   60.4416 H   0  0  0  0  0  0  0  0  0  0  0  0
  127.2523  137.0636   61.1681 H   0  0  0  0  0  0  0  0  0  0  0  0
  1  2  3  0
  2  3  1  0
  3  4  2  0
  4  5  1  0
  5  6  2  0
  6  7  1  0
  7  8  2  0
  8  9  1  0
  9 10  1  0
 10 11  1  0
 11 12  1  0
 12 13  1  0
 13 14  1  0
  8 15  1  0
 15 16  2  0
  4 17  1  0
 17 18  2  0
 18 19  1  0
 19 20  2  0
 20 21  1  0
 21 22  2  0
 22 23  1  0
 23 24  1  0
 24 25  1  0
 25 26  1  0
 26 27  1  0
 27 28  1  0
 22 29  1  0
 29 30  2  0
 18 31  1  0
 31 32  2  0
 32 33  1  0
 33 34  1  0
 34 35  1  0
 35 36  2  0
 35 37  1  0
 37 38  1  0
 38 39  1  0
 39 40  2  0
 40 41  1  0
 41 42  1  0
 32  3  1  0
 42 38  2  0
 16  5  1  0
 30 19  1  0
 14  9  1  0
 28 23  1  0
  6 43  1  0
  7 44  1  0
 10 45  1  0
 10 46  1  0
 11 47  1  0
 11 48  1  0
 13 49  1  0
 13 50  1  0
 14 51  1  0
 14 52  1  0
 15 53  1  0
 16 54  1  0
 17 55  1  0
 20 56  1  0
 21 57  1  0
 24 58  1  0
 24 59  1  0
 25 60  1  0
 25 61  1  0
 27 62  1  0
 27 63  1  0
 28 64  1  0
 28 65  1  0
 29 66  1  0
 30 67  1  0
 34 68  1  0
 34 69  1  0
 37 70  1  0
 39 71  1  0
 40 72  1  0
M  END
>  <Binding energies>  (1) 
[-9.61]

>  <Ligand effiencies>  (1) 
[-0.22348837209302325]

>  <Interactions>  (1) 
["V-B:ARG:545:CG:9893, V-A:GLU:543:CB:4905, V-B:GLU:543:CB:9877, V-A:GLU:543:CG:4906, V-B:GLU:543:CD:9879, V-B:HIS:456:CE1:9040, V-A:HIS:456:CE1:4069, V-A:TYR:539:CD1:4872, V-A:GLU:543:CD:4907, V-B:LEU:475:CD1:9228, H-B:TYR:484:OH:9318, V-B:ARG:545:CD:9894, H-B:GLY:454:N:9020, V-A:ASP:366:CG:3212, V-B:GLU:543:C:9873, V-B:GLY:544:C:9883, V-A:ASN:362:C:3171, H-B:ARG:545:NE:9895, V-A:PRO:540:CB:4884, V-A:PRO:540:CA:4882, V-A:LEU:363:CA:3184, V-A:LEU:363:CD1:3188, V-A:PRO:540:N:4883, V-A:ASP:366:CB:3211, V-B:LYS:547:CE:9921, H-B:LYS:547:NZ:9922, V-A:LEU:363:C:3182"]

$$$$
2b_Grossjean_2025
     RDKit          3D

 42 43  0  0  0  0  0  0  0  0999 V2000
  123.7130  129.6150   64.2800 C   0  0  0  0  0  0  0  0  0  0  0  0
  123.7840  130.3600   65.4880 O   0  0  0  0  0  0  0  0  0  0  0  0
  123.9910  129.7420   66.6790 C   0  0  0  0  0  0  0  0  0  0  0  0
  123.1190  129.6280   67.5470 O   0  0  0  0  0  0  0  0  0  0  0  0
  125.3870  129.2130   66.8390 C   0  0  0  0  0  0  0  0  0  0  0  0
  126.3630  129.3830   65.8460 C   0  0  0  0  0  0  0  0  0  0  0  0
  127.6480  128.8780   66.0240 C   0  0  0  0  0  0  0  0  0  0  0  0
  127.9860  128.2020   67.1960 C   0  0  0  0  0  0  0  0  0  0  0  0
  129.3100  127.7280   67.2690 N   0  0  0  0  0  0  0  0  0  0  0  0
  129.8010  126.6340   67.8890 C   0  0  0  0  0  0  0  0  0  0  0  0
  129.1400  125.8330   68.5520 O   0  0  0  0  0  0  0  0  0  0  0  0
  131.3110  126.4220   67.7410 C   0  0  0  0  0  0  0  0  0  0  0  0
  131.8710  126.4430   66.0060 S   0  0  0  0  0  0  0  0  0  0  0  0
  131.5300  124.8660   65.2350 C   0  0  0  0  0  0  0  0  0  0  0  0
  130.3740  124.2640   65.6120 N   0  0  0  0  0  0  0  0  0  0  0  0
  130.0550  123.0660   65.0730 C   0  0  0  0  0  0  0  0  0  0  0  0
  128.7540  122.4540   65.5560 C   0  0  0  0  0  0  0  0  0  0  0  0
  130.8610  122.4250   64.1370 C   0  0  0  0  0  0  0  0  0  0  0  0
  132.0580  123.0320   63.7270 C   0  0  0  0  0  0  0  0  0  0  0  0
  132.9370  122.3120   62.6870 C   0  0  0  0  0  0  0  0  0  0  0  0
  133.1360  123.1030   61.6320 F   0  0  0  0  0  0  0  0  0  0  0  0
  134.1180  122.0000   63.2220 F   0  0  0  0  0  0  0  0  0  0  0  0
  132.3870  121.1800   62.2410 F   0  0  0  0  0  0  0  0  0  0  0  0
  132.4090  124.2870   64.2890 C   0  0  0  0  0  0  0  0  0  0  0  0
  133.6500  124.9640   63.9020 C   0  0  0  0  0  0  0  0  0  0  0  0
  134.6290  125.4980   63.5950 N   0  0  0  0  0  0  0  0  0  0  0  0
  127.0150  128.0210   68.1910 C   0  0  0  0  0  0  0  0  0  0  0  0
  125.7300  128.5250   68.0100 C   0  0  0  0  0  0  0  0  0  0  0  0
  123.6110  128.5451   64.5145 H   0  0  0  0  0  0  0  0  0  0  0  0
  122.8424  129.9468   63.6952 H   0  0  0  0  0  0  0  0  0  0  0  0
  124.6306  129.7764   63.6952 H   0  0  0  0  0  0  0  0  0  0  0  0
  126.1110  129.9196   64.9194 H   0  0  0  0  0  0  0  0  0  0  0  0
  128.4021  129.0131   65.2346 H   0  0  0  0  0  0  0  0  0  0  0  0
  129.9900  128.3310   66.8300 H   0  0  0  0  0  0  0  0  0  0  0  0
  131.8318  127.2228   68.2864 H   0  0  0  0  0  0  0  0  0  0  0  0
  131.5434  125.4269   68.1481 H   0  0  0  0  0  0  0  0  0  0  0  0
  128.7383  122.4466   66.6559 H   0  0  0  0  0  0  0  0  0  0  0  0
  127.9078  123.0485   65.1812 H   0  0  0  0  0  0  0  0  0  0  0  0
  128.6724  121.4230   65.1812 H   0  0  0  0  0  0  0  0  0  0  0  0
  130.5624  121.4510   63.7221 H   0  0  0  0  0  0  0  0  0  0  0  0
  127.2686  127.4806   69.1149 H   0  0  0  0  0  0  0  0  0  0  0  0
  124.9745  128.3812   68.7964 H   0  0  0  0  0  0  0  0  0  0  0  0
  1  2  1  0
  2  3  1  0
  3  4  2  0
  3  5  1  0
  5  6  2  0
  6  7  1  0
  7  8  2  0
  8  9  1  0
  9 10  1  0
 10 11  2  0
 10 12  1  0
 12 13  1  0
 13 14  1  0
 14 15  2  0
 15 16  1  0
 16 17  1  0
 16 18  2  0
 18 19  1  0
 19 20  1  0
 20 21  1  0
 20 22  1  0
 20 23  1  0
 19 24  2  0
 24 25  1  0
 25 26  3  0
  8 27  1  0
 27 28  2  0
 28  5  1  0
 24 14  1  0
  1 29  1  0
  1 30  1  0
  1 31  1  0
  6 32  1  0
  7 33  1  0
  9 34  1  0
 12 35  1  0
 12 36  1  0
 17 37  1  0
 17 38  1  0
 17 39  1  0
 18 40  1  0
 27 41  1  0
 28 42  1  0
M  END
>  <Binding energies>  (1) 
[-7.07]

>  <Ligand effiencies>  (1) 
[-0.24379310344827587]

>  <Interactions>  (1) 
["V-B:ARG:545:CG:9893, V-B:GLU:543:CB:9877, V-B:GLU:543:CD:9879, V-B:HIS:456:CE1:9040, H-A:GLY:454:N:4049, V-A:HIS:456:CE1:4069, H-A:ARG:545:NH1:4926, V-A:GLU:543:CD:4907, V-A:GLY:454:CA:4048, V-B:ARG:545:CZ:9897, H-B:TYR:484:OH:9318, H-A:ARG:545:NH2:4927, V-B:ARG:545:CD:9894, H-B:GLY:454:N:9020, V-A:TYR:484:CZ:4346, V-A:ARG:545:CZ:4925, V-B:ALA:541:CB:9863, H-A:TYR:484:OH:4347, H-B:ILE:455:N:9025, V-B:ALA:541:C:9859, V-B:GLU:543:CG:9878, V-A:TYR:484:CE2:4345, V-A:LEU:475:CD2:4258, V-B:GLY:453:CA:9014, V-B:GLY:454:CA:9019, H-B:GLU:543:OE2:9881, V-A:ILE:369:CD1:3238, V-A:SER:385:C:3404, V-A:LEU:475:CD1:4257, H-A:GLU:543:OE1:4908"]

$$$$
2c_Ghoteimi_2023
     RDKit          3D

 72 77  0  0  0  0  0  0  0  0999 V2000
  123.3430  129.7890   67.0700 N   0  0  0  0  0  0  0  0  0  0  0  0
  124.2330  129.9410   66.3480 C   0  0  0  0  0  0  0  0  0  0  0  0
  125.3650  130.1300   65.4350 C   0  0  0  0  0  0  0  0  0  0  0  0
  126.6570  129.6610   65.7800 C   0  0  0  0  0  0  0  0  0  0  0  0
  126.9720  128.9590   67.0610 C   0  0  0  0  0  0  0  0  0  0  0  0
  128.1790  129.2040   67.7180 C   0  0  0  0  0  0  0  0  0  0  0  0
  128.4780  128.5580   68.9140 C   0  0  0  0  0  0  0  0  0  0  0  0
  127.5840  127.6350   69.4800 C   0  0  0  0  0  0  0  0  0  0  0  0
  127.8540  126.9900   70.6890 N   0  0  0  0  0  0  0  0  0  0  0  0
  126.7360  126.6420   71.5880 C   0  0  0  0  0  0  0  0  0  0  0  0
  127.1910  126.3010   73.0230 C   0  0  0  0  0  0  0  0  0  0  0  0
  128.1590  125.2630   72.9920 O   0  0  0  0  0  0  0  0  0  0  0  0
  129.3070  125.6380   72.2470 C   0  0  0  0  0  0  0  0  0  0  0  0
  128.9080  125.9620   70.7920 C   0  0  0  0  0  0  0  0  0  0  0  0
  126.3760  127.3930   68.8100 C   0  0  0  0  0  0  0  0  0  0  0  0
  126.0760  128.0410   67.6150 C   0  0  0  0  0  0  0  0  0  0  0  0
  127.7040  129.8630   64.8730 C   0  0  0  0  0  0  0  0  0  0  0  0
  127.4670  130.4900   63.6460 C   0  0  0  0  0  0  0  0  0  0  0  0
  128.5470  130.7130   62.6360 C   0  0  0  0  0  0  0  0  0  0  0  0
  129.0400  129.6520   61.8700 C   0  0  0  0  0  0  0  0  0  0  0  0
  130.0420  129.8550   60.9240 C   0  0  0  0  0  0  0  0  0  0  0  0
  130.5980  131.1280   60.7180 C   0  0  0  0  0  0  0  0  0  0  0  0
  131.5870  131.3540   59.7550 N   0  0  0  0  0  0  0  0  0  0  0  0
  131.5110  132.5480   58.8890 C   0  0  0  0  0  0  0  0  0  0  0  0
  132.4230  132.4700   57.6460 C   0  0  0  0  0  0  0  0  0  0  0  0
  133.7610  132.2170   58.0400 O   0  0  0  0  0  0  0  0  0  0  0  0
  133.8740  130.9860   58.7360 C   0  0  0  0  0  0  0  0  0  0  0  0
  133.0020  131.0150   60.0090 C   0  0  0  0  0  0  0  0  0  0  0  0
  130.0920  132.1910   61.4800 C   0  0  0  0  0  0  0  0  0  0  0  0
  129.0890  131.9870   62.4240 C   0  0  0  0  0  0  0  0  0  0  0  0
  126.2290  130.9370   63.3160 N   0  0  0  0  0  0  0  0  0  0  0  0
  125.2060  130.7810   64.1900 C   0  0  0  0  0  0  0  0  0  0  0  0
  123.6600  131.4340   63.6010 S   0  0  0  0  0  0  0  0  0  0  0  0
  123.8550  131.7810   61.8270 C   0  0  0  0  0  0  0  0  0  0  0  0
  124.2820  133.2270   61.5690 C   0  0  0  0  0  0  0  0  0  0  0  0
  123.4570  134.0320   61.1330 O   0  0  0  0  0  0  0  0  0  0  0  0
  125.5730  133.5120   61.8450 N   0  0  0  0  0  0  0  0  0  0  0  0
  126.1970  134.7440   61.7140 C   0  0  0  0  0  0  0  0  0  0  0  0
  125.9840  135.6640   60.7990 N   0  0  0  0  0  0  0  0  0  0  0  0
  126.7540  136.7170   60.9820 C   0  0  0  0  0  0  0  0  0  0  0  0
  127.6210  136.6640   62.0700 C   0  0  0  0  0  0  0  0  0  0  0  0
  127.4050  135.1480   62.8910 S   0  0  0  0  0  0  0  0  0  0  0  0
  128.9002  129.9139   67.2867 H   0  0  0  0  0  0  0  0  0  0  0  0
  129.4288  128.7737   69.4234 H   0  0  0  0  0  0  0  0  0  0  0  0
  126.0458  127.4973   71.6344 H   0  0  0  0  0  0  0  0  0  0  0  0
  126.2541  125.7429   71.1763 H   0  0  0  0  0  0  0  0  0  0  0  0
  127.6310  127.1956   73.4878 H   0  0  0  0  0  0  0  0  0  0  0  0
  126.3213  125.9662   73.6074 H   0  0  0  0  0  0  0  0  0  0  0  0
  129.7650  126.5267   72.7058 H   0  0  0  0  0  0  0  0  0  0  0  0
  130.0263  124.8057   72.2478 H   0  0  0  0  0  0  0  0  0  0  0  0
  129.7996  126.3219   70.2577 H   0  0  0  0  0  0  0  0  0  0  0  0
  128.5048  125.0379   70.3521 H   0  0  0  0  0  0  0  0  0  0  0  0
  125.6543  126.6801   69.2353 H   0  0  0  0  0  0  0  0  0  0  0  0
  125.1260  127.8287   67.1028 H   0  0  0  0  0  0  0  0  0  0  0  0
  128.7198  129.5262   65.1273 H   0  0  0  0  0  0  0  0  0  0  0  0
  128.6303  128.6418   62.0168 H   0  0  0  0  0  0  0  0  0  0  0  0
  130.4038  129.0040   60.3283 H   0  0  0  0  0  0  0  0  0  0  0  0
  130.4711  132.6661   58.5503 H   0  0  0  0  0  0  0  0  0  0  0  0
  131.8559  133.4033   59.4885 H   0  0  0  0  0  0  0  0  0  0  0  0
  132.0766  131.6572   56.9907 H   0  0  0  0  0  0  0  0  0  0  0  0
  132.3808  133.4281   57.1072 H   0  0  0  0  0  0  0  0  0  0  0  0
  133.5380  130.1668   58.0833 H   0  0  0  0  0  0  0  0  0  0  0  0
  134.9244  130.8293   59.0224 H   0  0  0  0  0  0  0  0  0  0  0  0
  133.0415  130.0213   60.4791 H   0  0  0  0  0  0  0  0  0  0  0  0
  133.4089  131.8044   60.6580 H   0  0  0  0  0  0  0  0  0  0  0  0
  130.4945  133.2036   61.3293 H   0  0  0  0  0  0  0  0  0  0  0  0
  128.7168  132.8389   63.0119 H   0  0  0  0  0  0  0  0  0  0  0  0
  124.6198  131.1061   61.4152 H   0  0  0  0  0  0  0  0  0  0  0  0
  122.8810  131.6227   61.3410 H   0  0  0  0  0  0  0  0  0  0  0  0
  126.1480  132.7650   62.2090 H   0  0  0  0  0  0  0  0  0  0  0  0
  126.7142  137.5891   60.3128 H   0  0  0  0  0  0  0  0  0  0  0  0
  128.3283  137.4540   62.3625 H   0  0  0  0  0  0  0  0  0  0  0  0
  1  2  3  0
  2  3  1  0
  3  4  2  0
  4  5  1  0
  5  6  2  0
  6  7  1  0
  7  8  2  0
  8  9  1  0
  9 10  1  0
 10 11  1  0
 11 12  1  0
 12 13  1  0
 13 14  1  0
  8 15  1  0
 15 16  2  0
  4 17  1  0
 17 18  2  0
 18 19  1  0
 19 20  2  0
 20 21  1  0
 21 22  2  0
 22 23  1  0
 23 24  1  0
 24 25  1  0
 25 26  1  0
 26 27  1  0
 27 28  1  0
 22 29  1  0
 29 30  2  0
 18 31  1  0
 31 32  2  0
 32 33  1  0
 33 34  1  0
 34 35  1  0
 35 36  2  0
 35 37  1  0
 37 38  1  0
 38 39  2  0
 39 40  1  0
 40 41  2  0
 41 42  1  0
 32  3  1  0
 42 38  1  0
 16  5  1  0
 30 19  1  0
 14  9  1  0
 28 23  1  0
  6 43  1  0
  7 44  1  0
 10 45  1  0
 10 46  1  0
 11 47  1  0
 11 48  1  0
 13 49  1  0
 13 50  1  0
 14 51  1  0
 14 52  1  0
 15 53  1  0
 16 54  1  0
 17 55  1  0
 20 56  1  0
 21 57  1  0
 24 58  1  0
 24 59  1  0
 25 60  1  0
 25 61  1  0
 27 62  1  0
 27 63  1  0
 28 64  1  0
 28 65  1  0
 29 66  1  0
 30 67  1  0
 34 68  1  0
 34 69  1  0
 37 70  1  0
 40 71  1  0
 41 72  1  0
M  END
>  <Binding energies>  (1) 
[-9.96]

>  <Ligand effiencies>  (1) 
[-0.2316279069767442]

>  <Interactions>  (1) 
["V-B:ARG:545:CG:9893, V-A:GLU:543:CB:4905, V-B:GLU:543:CB:9877, V-B:GLU:543:CD:9879, V-B:HIS:456:CE1:9040, V-B:SER:385:CB:8379, H-B:SER:385:OG:8380, V-A:ALA:541:CB:4891, V-A:HIS:456:CE1:4069, V-A:TYR:539:CD1:4872, V-B:LEU:475:CD1:9228, H-B:TYR:484:OH:9318, H-B:GLY:454:N:9020, V-B:ILE:369:CG2:8207, V-B:GLU:543:C:9873, V-B:GLY:544:C:9883, V-A:ASN:362:C:3171, H-B:ILE:455:N:9025, V-A:PRO:540:CB:4884, V-A:PRO:540:CA:4882, V-A:LEU:363:CA:3184, V-A:TYR:531:CE2:4792, V-A:LEU:363:CD1:3188, V-A:PRO:540:N:4883, V-B:GLY:454:CA:9019, V-A:ASP:366:CB:3211, V-B:GLY:544:CA:9885, V-B:LYS:547:CE:9921, H-B:LYS:547:NZ:9922, V-A:HIS:456:CD2:4067, V-A:TYR:539:CB:4870, V-A:LEU:363:C:3182, V-B:PRO:482:CB:9296"]

$$$$
2c_Grossjean_2025
     RDKit          3D

 40 41  0  0  0  0  0  0  0  0999 V2000
  123.8940  129.2640   67.8870 C   0  0  0  0  0  0  0  0  0  0  0  0
  124.7230  128.5500   68.7980 O   0  0  0  0  0  0  0  0  0  0  0  0
  126.0440  128.3200   68.4680 C   0  0  0  0  0  0  0  0  0  0  0  0
  126.7240  127.3800   69.2420 C   0  0  0  0  0  0  0  0  0  0  0  0
  128.0600  127.0810   68.9870 C   0  0  0  0  0  0  0  0  0  0  0  0
  128.7380  127.7370   67.9480 C   0  0  0  0  0  0  0  0  0  0  0  0
  130.0790  127.4890   67.6040 N   0  0  0  0  0  0  0  0  0  0  0  0
  130.7220  126.3040   67.5200 C   0  0  0  0  0  0  0  0  0  0  0  0
  130.2210  125.2130   67.7980 O   0  0  0  0  0  0  0  0  0  0  0  0
  132.1910  126.3950   67.0780 C   0  0  0  0  0  0  0  0  0  0  0  0
  132.4830  126.2180   65.2840 S   0  0  0  0  0  0  0  0  0  0  0  0
  131.9350  124.6020   64.7490 C   0  0  0  0  0  0  0  0  0  0  0  0
  130.7740  124.1630   65.3000 N   0  0  0  0  0  0  0  0  0  0  0  0
  130.3040  122.9460   64.9500 C   0  0  0  0  0  0  0  0  0  0  0  0
  129.0130  122.5210   65.6220 C   0  0  0  0  0  0  0  0  0  0  0  0
  130.9580  122.1230   64.0350 C   0  0  0  0  0  0  0  0  0  0  0  0
  132.1530  122.5590   63.4470 C   0  0  0  0  0  0  0  0  0  0  0  0
  132.8630  121.6380   62.4360 C   0  0  0  0  0  0  0  0  0  0  0  0
  133.2190  122.3350   61.3550 F   0  0  0  0  0  0  0  0  0  0  0  0
  133.9550  121.1070   62.9880 F   0  0  0  0  0  0  0  0  0  0  0  0
  132.0900  120.6290   62.0260 F   0  0  0  0  0  0  0  0  0  0  0  0
  132.6610  123.8320   63.8100 C   0  0  0  0  0  0  0  0  0  0  0  0
  133.9090  124.3380   63.2280 C   0  0  0  0  0  0  0  0  0  0  0  0
  134.8940  124.7370   62.7680 N   0  0  0  0  0  0  0  0  0  0  0  0
  128.0570  128.6670   67.1610 C   0  0  0  0  0  0  0  0  0  0  0  0
  126.7220  128.9620   67.4190 C   0  0  0  0  0  0  0  0  0  0  0  0
  123.1777  129.8810   68.4494 H   0  0  0  0  0  0  0  0  0  0  0  0
  124.5180  129.9119   67.2539 H   0  0  0  0  0  0  0  0  0  0  0  0
  123.3458  128.5508   67.2539 H   0  0  0  0  0  0  0  0  0  0  0  0
  126.1993  126.8692   70.0628 H   0  0  0  0  0  0  0  0  0  0  0  0
  128.5832  126.3316   69.5991 H   0  0  0  0  0  0  0  0  0  0  0  0
  130.6390  128.3170   67.4630 H   0  0  0  0  0  0  0  0  0  0  0  0
  132.5788  127.3761   67.3895 H   0  0  0  0  0  0  0  0  0  0  0  0
  132.7031  125.5454   67.5532 H   0  0  0  0  0  0  0  0  0  0  0  0
  129.1374  122.5620   66.7142 H   0  0  0  0  0  0  0  0  0  0  0  0
  128.2016  123.1995   65.3197 H   0  0  0  0  0  0  0  0  0  0  0  0
  128.7633  121.4932   65.3197 H   0  0  0  0  0  0  0  0  0  0  0  0
  130.5396  121.1391   63.7764 H   0  0  0  0  0  0  0  0  0  0  0  0
  128.5783  129.1692   66.3327 H   0  0  0  0  0  0  0  0  0  0  0  0
  126.1951  129.7017   66.7983 H   0  0  0  0  0  0  0  0  0  0  0  0
  1  2  1  0
  2  3  1  0
  3  4  2  0
  4  5  1  0
  5  6  2  0
  6  7  1  0
  7  8  1  0
  8  9  2  0
  8 10  1  0
 10 11  1  0
 11 12  1  0
 12 13  2  0
 13 14  1  0
 14 15  1  0
 14 16  2  0
 16 17  1  0
 17 18  1  0
 18 19  1  0
 18 20  1  0
 18 21  1  0
 17 22  2  0
 22 23  1  0
 23 24  3  0
  6 25  1  0
 25 26  2  0
 26  3  1  0
 22 12  1  0
  1 27  1  0
  1 28  1  0
  1 29  1  0
  4 30  1  0
  5 31  1  0
  7 32  1  0
 10 33  1  0
 10 34  1  0
 15 35  1  0
 15 36  1  0
 15 37  1  0
 16 38  1  0
 25 39  1  0
 26 40  1  0
M  END
>  <Binding energies>  (1) 
[-6.48]

>  <Ligand effiencies>  (1) 
[-0.24000000000000002]

>  <Interactions>  (1) 
["V-B:ARG:545:CG:9893, V-B:GLU:543:CB:9877, V-B:GLU:543:CD:9879, V-B:HIS:456:CE1:9040, H-A:GLY:454:N:4049, V-A:HIS:456:CE1:4069, H-A:ARG:545:NH1:4926, V-A:GLU:543:CD:4907, V-A:GLY:454:CA:4048, H-B:TYR:484:OH:9318, H-A:ARG:545:NH2:4927, V-B:ARG:545:CD:9894, V-A:TYR:484:CZ:4346, V-B:ALA:541:CB:9863, V-A:ARG:545:CG:4921, H-A:ARG:545:NE:4923, H-A:TYR:484:OH:4347, V-B:GLU:543:CG:9878, V-A:SER:385:CB:3408, V-A:ILE:369:CG2:3236, V-A:SER:385:CA:3406, V-A:TYR:484:CE2:4345, V-A:LEU:475:CD2:4258, V-B:ARG:545:CB:9892, V-A:GLY:453:C:4041, V-A:ILE:369:CD1:3238, V-A:SER:385:C:3404, H-B:HIS:456:ND1:9037, V-A:LEU:475:CD1:4257, H-A:GLU:543:OE1:4908"]

$$$$
2d_Ghoteimi_2023
     RDKit          3D

 68 72  0  0  0  0  0  0  0  0999 V2000
  124.1070  133.3320   62.8000 C   0  0  0  0  0  0  0  0  0  0  0  0
  123.1990  132.2560   62.9820 O   0  0  0  0  0  0  0  0  0  0  0  0
  123.2380  131.1800   62.1690 C   0  0  0  0  0  0  0  0  0  0  0  0
  122.6810  131.0910   61.0720 O   0  0  0  0  0  0  0  0  0  0  0  0
  124.0850  130.0520   62.7780 C   0  0  0  0  0  0  0  0  0  0  0  0
  124.1210  130.1630   64.6000 S   0  0  0  0  0  0  0  0  0  0  0  0
  125.7770  129.8050   65.1490 C   0  0  0  0  0  0  0  0  0  0  0  0
  126.7220  130.0800   64.2170 N   0  0  0  0  0  0  0  0  0  0  0  0
  128.0290  129.8490   64.4980 C   0  0  0  0  0  0  0  0  0  0  0  0
  129.0110  130.1600   63.4140 C   0  0  0  0  0  0  0  0  0  0  0  0
  129.2060  131.4770   62.9860 C   0  0  0  0  0  0  0  0  0  0  0  0
  130.1190  131.7740   61.9770 C   0  0  0  0  0  0  0  0  0  0  0  0
  130.8790  130.7640   61.3680 C   0  0  0  0  0  0  0  0  0  0  0  0
  131.7870  131.0420   60.3410 N   0  0  0  0  0  0  0  0  0  0  0  0
  131.6370  132.2300   59.4780 C   0  0  0  0  0  0  0  0  0  0  0  0
  132.4890  132.1740   58.1930 C   0  0  0  0  0  0  0  0  0  0  0  0
  133.8520  131.9610   58.5250 O   0  0  0  0  0  0  0  0  0  0  0  0
  134.0340  130.7380   59.2210 C   0  0  0  0  0  0  0  0  0  0  0  0
  133.2220  130.7490   60.5340 C   0  0  0  0  0  0  0  0  0  0  0  0
  130.6700  129.4430   61.7910 C   0  0  0  0  0  0  0  0  0  0  0  0
  129.7560  129.1470   62.7980 C   0  0  0  0  0  0  0  0  0  0  0  0
  128.4200  129.3360   65.7370 C   0  0  0  0  0  0  0  0  0  0  0  0
  127.4680  129.0750   66.7300 C   0  0  0  0  0  0  0  0  0  0  0  0
  127.9620  128.5530   68.0390 C   0  0  0  0  0  0  0  0  0  0  0  0
  128.9540  129.2410   68.7400 C   0  0  0  0  0  0  0  0  0  0  0  0
  129.4130  128.7700   69.9670 C   0  0  0  0  0  0  0  0  0  0  0  0
  128.8910  127.5930   70.5280 C   0  0  0  0  0  0  0  0  0  0  0  0
  129.3270  127.1100   71.7650 N   0  0  0  0  0  0  0  0  0  0  0  0
  128.9120  125.7840   72.2620 C   0  0  0  0  0  0  0  0  0  0  0  0
  129.7610  125.2770   73.4480 C   0  0  0  0  0  0  0  0  0  0  0  0
  129.7550  126.2360   74.4940 O   0  0  0  0  0  0  0  0  0  0  0  0
  130.2890  127.4800   74.0680 C   0  0  0  0  0  0  0  0  0  0  0  0
  129.4510  128.0440   72.9010 C   0  0  0  0  0  0  0  0  0  0  0  0
  127.8820  126.9200   69.8270 C   0  0  0  0  0  0  0  0  0  0  0  0
  127.4230  127.3910   68.6000 C   0  0  0  0  0  0  0  0  0  0  0  0
  126.1030  129.3190   66.4370 C   0  0  0  0  0  0  0  0  0  0  0  0
  125.0710  129.0800   67.4500 C   0  0  0  0  0  0  0  0  0  0  0  0
  124.2590  128.8900   68.2530 N   0  0  0  0  0  0  0  0  0  0  0  0
  124.4273  133.7115   63.7815 H   0  0  0  0  0  0  0  0  0  0  0  0
  124.9851  132.9799   62.2387 H   0  0  0  0  0  0  0  0  0  0  0  0
  123.6122  134.1383   62.2387 H   0  0  0  0  0  0  0  0  0  0  0  0
  123.6547  129.0826   62.4861 H   0  0  0  0  0  0  0  0  0  0  0  0
  125.1146  130.1483   62.4029 H   0  0  0  0  0  0  0  0  0  0  0  0
  128.6302  132.2898   63.4528 H   0  0  0  0  0  0  0  0  0  0  0  0
  130.2463  132.8173   61.6523 H   0  0  0  0  0  0  0  0  0  0  0  0
  130.5791  132.3187   59.1898 H   0  0  0  0  0  0  0  0  0  0  0  0
  131.9875  133.0959   60.0589 H   0  0  0  0  0  0  0  0  0  0  0  0
  132.1355  131.3491   57.5569 H   0  0  0  0  0  0  0  0  0  0  0  0
  132.3929  133.1278   57.6535 H   0  0  0  0  0  0  0  0  0  0  0  0
  133.6922  129.9052   58.5888 H   0  0  0  0  0  0  0  0  0  0  0  0
  135.1009  130.6142   59.4585 H   0  0  0  0  0  0  0  0  0  0  0  0
  133.3142  129.7606   61.0079 H   0  0  0  0  0  0  0  0  0  0  0  0
  133.6336  131.5541   61.1604 H   0  0  0  0  0  0  0  0  0  0  0  0
  131.2378  128.6276   61.3191 H   0  0  0  0  0  0  0  0  0  0  0  0
  129.6169  128.1027   63.1144 H   0  0  0  0  0  0  0  0  0  0  0  0
  129.4835  129.1356   65.9340 H   0  0  0  0  0  0  0  0  0  0  0  0
  129.3773  130.1647   68.3186 H   0  0  0  0  0  0  0  0  0  0  0  0
  130.1948  129.3270   70.5042 H   0  0  0  0  0  0  0  0  0  0  0  0
  127.8628  125.8466   72.5866 H   0  0  0  0  0  0  0  0  0  0  0  0
  129.0516  125.0709   71.4362 H   0  0  0  0  0  0  0  0  0  0  0  0
  129.3403  124.3307   73.8189 H   0  0  0  0  0  0  0  0  0  0  0  0
  130.7955  125.1181   73.1097 H   0  0  0  0  0  0  0  0  0  0  0  0
  130.2694  128.1910   74.9071 H   0  0  0  0  0  0  0  0  0  0  0  0
  131.3247  127.3305   73.7288 H   0  0  0  0  0  0  0  0  0  0  0  0
  128.4425  128.2743   73.2750 H   0  0  0  0  0  0  0  0  0  0  0  0
  129.9709  128.9397   72.5304 H   0  0  0  0  0  0  0  0  0  0  0  0
  127.4453  126.0046   70.2529 H   0  0  0  0  0  0  0  0  0  0  0  0
  126.6303  126.8449   68.0677 H   0  0  0  0  0  0  0  0  0  0  0  0
  1  2  1  0
  2  3  1  0
  3  4  2  0
  3  5  1  0
  5  6  1  0
  6  7  1  0
  7  8  2  0
  8  9  1  0
  9 10  1  0
 10 11  2  0
 11 12  1  0
 12 13  2  0
 13 14  1  0
 14 15  1  0
 15 16  1  0
 16 17  1  0
 17 18  1  0
 18 19  1  0
 13 20  1  0
 20 21  2  0
  9 22  2  0
 22 23  1  0
 23 24  1  0
 24 25  2  0
 25 26  1  0
 26 27  2  0
 27 28  1  0
 28 29  1  0
 29 30  1  0
 30 31  1  0
 31 32  1  0
 32 33  1  0
 27 34  1  0
 34 35  2  0
 23 36  2  0
 36 37  1  0
 37 38  3  0
 36  7  1  0
 21 10  1  0
 35 24  1  0
 19 14  1  0
 33 28  1  0
  1 39  1  0
  1 40  1  0
  1 41  1  0
  5 42  1  0
  5 43  1  0
 11 44  1  0
 12 45  1  0
 15 46  1  0
 15 47  1  0
 16 48  1  0
 16 49  1  0
 18 50  1  0
 18 51  1  0
 19 52  1  0
 19 53  1  0
 20 54  1  0
 21 55  1  0
 22 56  1  0
 25 57  1  0
 26 58  1  0
 29 59  1  0
 29 60  1  0
 30 61  1  0
 30 62  1  0
 32 63  1  0
 32 64  1  0
 33 65  1  0
 33 66  1  0
 34 67  1  0
 35 68  1  0
M  END
>  <Binding energies>  (1) 
[-8.82]

>  <Ligand effiencies>  (1) 
[-0.23210526315789473]

>  <Interactions>  (1) 
["V-B:ARG:545:CG:9893, V-A:GLU:543:CB:4905, V-B:GLU:543:CB:9877, V-A:GLU:543:CG:4906, V-B:GLU:543:CD:9879, V-B:HIS:456:CE1:9040, V-B:SER:385:CB:8379, V-A:HIS:456:CE1:4069, V-A:GLU:543:CD:4907, V-B:LEU:475:CD1:9228, H-B:TYR:484:OH:9318, H-B:GLY:454:N:9020, V-B:ASP:366:CG:8183, V-A:ASP:366:CG:3212, V-A:ASN:362:C:3171, V-A:PRO:540:CB:4884, V-A:PRO:540:CA:4882, V-A:LEU:363:CA:3184, V-A:LEU:363:CD1:3188, V-A:PRO:540:N:4883, V-B:GLY:454:CA:9019, V-A:ASP:366:CB:3211, H-B:HIS:456:ND1:9037, H-B:LYS:547:NZ:9922, V-A:HIS:456:CD2:4067, H-A:LEU:363:N:3185, V-A:LEU:363:C:3182"]

$$$$
2d_Grossjean_2025
     RDKit          3D

 36 37  0  0  0  0  0  0  0  0999 V2000
  129.0120  122.4600   65.8770 C   0  0  0  0  0  0  0  0  0  0  0  0
  129.6560  122.7260   64.5300 C   0  0  0  0  0  0  0  0  0  0  0  0
  128.9550  122.5490   63.3390 C   0  0  0  0  0  0  0  0  0  0  0  0
  129.5930  122.8130   62.1180 C   0  0  0  0  0  0  0  0  0  0  0  0
  128.7990  122.6210   60.8110 C   0  0  0  0  0  0  0  0  0  0  0  0
  127.5730  122.1740   61.0840 F   0  0  0  0  0  0  0  0  0  0  0  0
  128.7000  123.7830   60.1620 F   0  0  0  0  0  0  0  0  0  0  0  0
  129.3710  121.7460   59.9830 F   0  0  0  0  0  0  0  0  0  0  0  0
  130.9440  123.2470   62.1380 C   0  0  0  0  0  0  0  0  0  0  0  0
  131.6400  123.5800   60.8930 C   0  0  0  0  0  0  0  0  0  0  0  0
  132.1890  123.8440   59.9090 N   0  0  0  0  0  0  0  0  0  0  0  0
  131.5830  123.3740   63.3940 C   0  0  0  0  0  0  0  0  0  0  0  0
  133.2810  123.8770   63.6000 S   0  0  0  0  0  0  0  0  0  0  0  0
  134.3400  122.7880   62.5920 C   0  0  0  0  0  0  0  0  0  0  0  0
  133.7620  121.3800   62.4220 C   0  0  0  0  0  0  0  0  0  0  0  0
  133.8920  120.5650   63.3360 O   0  0  0  0  0  0  0  0  0  0  0  0
  133.1660  121.1330   61.2360 N   0  0  0  0  0  0  0  0  0  0  0  0
  132.5440  119.9550   60.7830 C   0  0  0  0  0  0  0  0  0  0  0  0
  131.3160  119.6440   61.3730 C   0  0  0  0  0  0  0  0  0  0  0  0
  130.6260  118.4960   60.9950 C   0  0  0  0  0  0  0  0  0  0  0  0
  131.1700  117.6500   60.0300 C   0  0  0  0  0  0  0  0  0  0  0  0
  132.3990  117.9420   59.4450 C   0  0  0  0  0  0  0  0  0  0  0  0
  133.0910  119.0900   59.8200 C   0  0  0  0  0  0  0  0  0  0  0  0
  130.9450  123.1360   64.5660 N   0  0  0  0  0  0  0  0  0  0  0  0
  129.7077  122.7473   66.6792 H   0  0  0  0  0  0  0  0  0  0  0  0
  128.0877  123.0500   65.9644 H   0  0  0  0  0  0  0  0  0  0  0  0
  128.7735  121.3897   65.9644 H   0  0  0  0  0  0  0  0  0  0  0  0
  127.9102  122.2052   63.3561 H   0  0  0  0  0  0  0  0  0  0  0  0
  134.4602  123.2400   61.5964 H   0  0  0  0  0  0  0  0  0  0  0  0
  135.3016  122.6874   63.1166 H   0  0  0  0  0  0  0  0  0  0  0  0
  133.2150  121.8710   60.5490 H   0  0  0  0  0  0  0  0  0  0  0  0
  130.8928  120.3096   62.1397 H   0  0  0  0  0  0  0  0  0  0  0  0
  129.6560  118.2574   61.4556 H   0  0  0  0  0  0  0  0  0  0  0  0
  130.6237  116.7442   59.7282 H   0  0  0  0  0  0  0  0  0  0  0  0
  132.8227  117.2664   58.6874 H   0  0  0  0  0  0  0  0  0  0  0  0
  134.0649  119.3199   59.3631 H   0  0  0  0  0  0  0  0  0  0  0  0
  1  2  1  0
  2  3  2  0
  3  4  1  0
  4  5  1  0
  5  6  1  0
  5  7  1  0
  5  8  1  0
  4  9  2  0
  9 10  1  0
 10 11  3  0
  9 12  1  0
 12 13  1  0
 13 14  1  0
 14 15  1  0
 15 16  2  0
 15 17  1  0
 17 18  1  0
 18 19  2  0
 19 20  1  0
 20 21  2  0
 21 22  1  0
 22 23  2  0
 12 24  2  0
 24  2  1  0
 23 18  1  0
  1 25  1  0
  1 26  1  0
  1 27  1  0
  3 28  1  0
 14 29  1  0
 14 30  1  0
 17 31  1  0
 19 32  1  0
 20 33  1  0
 21 34  1  0
 22 35  1  0
 23 36  1  0
M  END
>  <Binding energies>  (1) 
[-6.17]

>  <Ligand effiencies>  (1) 
[-0.2468]

>  <Interactions>  (1) 
["V-B:GLU:543:CB:9877, V-B:GLU:543:CD:9879, H-A:GLY:454:N:4049, V-A:GLY:454:CA:4048, V-B:PRO:540:CA:9854, V-B:PRO:540:CB:9856, V-B:ALA:541:CB:9863, V-B:PRO:540:C:9852, V-B:TYR:539:CE2:9847, V-B:TYR:539:CD2:9845, H-A:TYR:484:OH:4347, V-B:TYR:539:CG:9843, V-B:GLU:543:CG:9878, V-B:ALA:541:CA:9861, V-B:TYR:539:CB:9842, V-A:ILE:369:CG2:3236, V-A:SER:385:CA:3406, V-A:TYR:484:CE2:4345, V-A:LEU:475:CD2:4258, V-B:TYR:539:C:9838, V-B:PRO:540:N:9855, V-A:GLY:453:C:4041, V-A:ILE:369:CD1:3238, V-A:SER:385:C:3404, V-A:LEU:475:CD1:4257, V-A:HIS:383:CE1:3393"]

$$$$
2e_Grossjean_2025
     RDKit          3D

 38 39  0  0  0  0  0  0  0  0999 V2000
  129.7690  118.1190   61.7150 C   0  0  0  0  0  0  0  0  0  0  0  0
  131.0470  118.5610   61.0270 C   0  0  0  0  0  0  0  0  0  0  0  0
  131.6200  117.8100   59.9980 C   0  0  0  0  0  0  0  0  0  0  0  0
  132.7910  118.2840   59.4030 C   0  0  0  0  0  0  0  0  0  0  0  0
  133.3540  119.4830   59.8480 C   0  0  0  0  0  0  0  0  0  0  0  0
  132.7330  120.1800   60.8900 C   0  0  0  0  0  0  0  0  0  0  0  0
  133.3170  121.4010   61.2680 N   0  0  0  0  0  0  0  0  0  0  0  0
  133.8160  121.7480   62.4750 C   0  0  0  0  0  0  0  0  0  0  0  0
  133.9050  120.9950   63.4460 O   0  0  0  0  0  0  0  0  0  0  0  0
  134.2540  123.2090   62.6200 C   0  0  0  0  0  0  0  0  0  0  0  0
  133.2220  124.1170   63.8150 S   0  0  0  0  0  0  0  0  0  0  0  0
  131.5670  123.5110   63.5690 C   0  0  0  0  0  0  0  0  0  0  0  0
  130.9270  123.1390   64.7050 N   0  0  0  0  0  0  0  0  0  0  0  0
  129.6810  122.6250   64.6050 C   0  0  0  0  0  0  0  0  0  0  0  0
  129.0230  122.2300   65.9130 C   0  0  0  0  0  0  0  0  0  0  0  0
  129.0320  122.4570   63.3820 C   0  0  0  0  0  0  0  0  0  0  0  0
  129.6840  122.8290   62.1970 C   0  0  0  0  0  0  0  0  0  0  0  0
  128.9620  122.6170   60.8530 C   0  0  0  0  0  0  0  0  0  0  0  0
  129.6240  121.7260   60.1140 F   0  0  0  0  0  0  0  0  0  0  0  0
  127.7250  122.1700   61.0660 F   0  0  0  0  0  0  0  0  0  0  0  0
  128.8670  123.7400   60.1380 F   0  0  0  0  0  0  0  0  0  0  0  0
  130.9890  123.3740   62.2860 C   0  0  0  0  0  0  0  0  0  0  0  0
  131.7350  123.7540   61.0830 C   0  0  0  0  0  0  0  0  0  0  0  0
  132.3240  124.0540   60.1320 N   0  0  0  0  0  0  0  0  0  0  0  0
  131.5830  119.7270   61.4710 N   0  0  0  0  0  0  0  0  0  0  0  0
  129.9046  118.1659   62.8056 H   0  0  0  0  0  0  0  0  0  0  0  0
  128.9444  118.7841   61.4191 H   0  0  0  0  0  0  0  0  0  0  0  0
  129.5315  117.0865   61.4191 H   0  0  0  0  0  0  0  0  0  0  0  0
  131.1600  116.8681   59.6645 H   0  0  0  0  0  0  0  0  0  0  0  0
  133.2671  117.7172   58.5893 H   0  0  0  0  0  0  0  0  0  0  0  0
  134.2726  119.8733   59.3855 H   0  0  0  0  0  0  0  0  0  0  0  0
  133.4010  122.0810   60.5270 H   0  0  0  0  0  0  0  0  0  0  0  0
  135.2990  123.2339   62.9626 H   0  0  0  0  0  0  0  0  0  0  0  0
  134.1444  123.6949   61.6392 H   0  0  0  0  0  0  0  0  0  0  0  0
  129.6308  122.5949   66.7541 H   0  0  0  0  0  0  0  0  0  0  0  0
  128.0182  122.6744   65.9668 H   0  0  0  0  0  0  0  0  0  0  0  0
  128.9427  121.1343   65.9668 H   0  0  0  0  0  0  0  0  0  0  0  0
  128.0164  122.0359   63.3469 H   0  0  0  0  0  0  0  0  0  0  0  0
  1  2  1  0
  2  3  2  0
  3  4  1  0
  4  5  2  0
  5  6  1  0
  6  7  1  0
  7  8  1  0
  8  9  2  0
  8 10  1  0
 10 11  1  0
 11 12  1  0
 12 13  2  0
 13 14  1  0
 14 15  1  0
 14 16  2  0
 16 17  1  0
 17 18  1  0
 18 19  1  0
 18 20  1  0
 18 21  1  0
 17 22  2  0
 22 23  1  0
 23 24  3  0
  6 25  2  0
 25  2  1  0
 22 12  1  0
  1 26  1  0
  1 27  1  0
  1 28  1  0
  3 29  1  0
  4 30  1  0
  5 31  1  0
  7 32  1  0
 10 33  1  0
 10 34  1  0
 15 35  1  0
 15 36  1  0
 15 37  1  0
 16 38  1  0
M  END
>  <Binding energies>  (1) 
[-6.36]

>  <Ligand effiencies>  (1) 
[-0.24461538461538462]

>  <Interactions>  (1) 
["V-B:GLU:543:CB:9877, V-B:GLU:543:CD:9879, H-A:GLY:454:N:4049, V-A:GLY:454:CA:4048, V-A:TYR:484:CZ:4346, V-B:PRO:540:CA:9854, V-B:PRO:540:CB:9856, V-B:ALA:541:CB:9863, V-B:PRO:540:C:9852, V-B:TYR:539:CE2:9847, V-B:TYR:539:CD2:9845, H-A:TYR:484:OH:4347, V-A:PRO:482:CG:4326, V-B:TYR:539:CG:9843, V-A:PRO:482:CB:4325, V-A:LEU:373:CD2:3280, V-B:GLU:543:CG:9878, V-B:ALA:541:CA:9861, V-B:TYR:539:CB:9842, V-A:ILE:369:CG2:3236, V-A:SER:385:CA:3406, V-A:TYR:484:CE2:4345, V-A:LEU:475:CD2:4258, V-B:TYR:539:C:9838, V-B:PRO:540:N:9855, V-A:GLY:453:C:4041, V-A:ILE:369:CD1:3238, V-A:SER:385:C:3404, V-A:LEU:475:CD1:4257, V-A:HIS:383:CE1:3393"]

$$$$
2f_Grossjean_2025
     RDKit          3D

 35 36  0  0  0  0  0  0  0  0999 V2000
  125.6340  126.9980   70.1390 C   0  0  0  0  0  0  0  0  0  0  0  0
  126.0780  127.7720   68.9120 C   0  0  0  0  0  0  0  0  0  0  0  0
  125.1600  128.3880   68.0650 C   0  0  0  0  0  0  0  0  0  0  0  0
  125.6200  129.0860   66.9380 C   0  0  0  0  0  0  0  0  0  0  0  0
  124.5880  129.7500   66.0070 C   0  0  0  0  0  0  0  0  0  0  0  0
  123.3620  129.6290   66.5210 F   0  0  0  0  0  0  0  0  0  0  0  0
  124.8700  131.0450   65.8650 F   0  0  0  0  0  0  0  0  0  0  0  0
  124.5650  129.2070   64.7880 F   0  0  0  0  0  0  0  0  0  0  0  0
  127.0170  129.1460   66.7020 C   0  0  0  0  0  0  0  0  0  0  0  0
  127.5440  129.8130   65.5080 C   0  0  0  0  0  0  0  0  0  0  0  0
  127.9590  130.3420   64.5660 N   0  0  0  0  0  0  0  0  0  0  0  0
  127.8780  128.5120   67.6310 C   0  0  0  0  0  0  0  0  0  0  0  0
  129.6540  128.4970   67.4980 S   0  0  0  0  0  0  0  0  0  0  0  0
  130.2480  126.8590   68.0410 C   0  0  0  0  0  0  0  0  0  0  0  0
  130.6730  125.9120   66.9090 C   0  0  0  0  0  0  0  0  0  0  0  0
  130.2020  124.7770   66.8300 O   0  0  0  0  0  0  0  0  0  0  0  0
  131.5910  126.4280   66.0630 N   0  0  0  0  0  0  0  0  0  0  0  0
  132.1850  125.8480   64.9260 C   0  0  0  0  0  0  0  0  0  0  0  0
  131.5040  125.4550   63.7590 C   0  0  0  0  0  0  0  0  0  0  0  0
  132.2170  124.8940   62.6980 C   0  0  0  0  0  0  0  0  0  0  0  0
  133.5980  124.7440   62.8280 C   0  0  0  0  0  0  0  0  0  0  0  0
  134.2790  125.1220   63.9380 N   0  0  0  0  0  0  0  0  0  0  0  0
  133.5720  125.6660   64.9610 C   0  0  0  0  0  0  0  0  0  0  0  0
  127.4130  127.8240   68.7020 N   0  0  0  0  0  0  0  0  0  0  0  0
  125.9440  127.5385   71.0455 H   0  0  0  0  0  0  0  0  0  0  0  0
  124.5390  126.8941   70.1306 H   0  0  0  0  0  0  0  0  0  0  0  0
  126.0971  126.0003   70.1306 H   0  0  0  0  0  0  0  0  0  0  0  0
  124.0825  128.3278   68.2779 H   0  0  0  0  0  0  0  0  0  0  0  0
  131.1149  127.0123   68.7005 H   0  0  0  0  0  0  0  0  0  0  0  0
  129.3966  126.3750   68.5419 H   0  0  0  0  0  0  0  0  0  0  0  0
  131.9330  127.3520   66.2850 H   0  0  0  0  0  0  0  0  0  0  0  0
  130.4149  125.5892   63.6831 H   0  0  0  0  0  0  0  0  0  0  0  0
  131.7013  124.5771   61.7795 H   0  0  0  0  0  0  0  0  0  0  0  0
  134.1593  124.2994   61.9930 H   0  0  0  0  0  0  0  0  0  0  0  0
  134.1171  125.9798   65.8635 H   0  0  0  0  0  0  0  0  0  0  0  0
  1  2  1  0
  2  3  2  0
  3  4  1  0
  4  5  1  0
  5  6  1  0
  5  7  1  0
  5  8  1  0
  4  9  2  0
  9 10  1  0
 10 11  3  0
  9 12  1  0
 12 13  1  0
 13 14  1  0
 14 15  1  0
 15 16  2  0
 15 17  1  0
 17 18  1  0
 18 19  2  0
 19 20  1  0
 20 21  2  0
 21 22  1  0
 22 23  2  0
 12 24  2  0
 24  2  1  0
 23 18  1  0
  1 25  1  0
  1 26  1  0
  1 27  1  0
  3 28  1  0
 14 29  1  0
 14 30  1  0
 17 31  1  0
 19 32  1  0
 20 33  1  0
 21 34  1  0
 23 35  1  0
M  END
>  <Binding energies>  (1) 
[-6.45]

>  <Ligand effiencies>  (1) 
[-0.258]

>  <Interactions>  (1) 
["V-B:ARG:545:CG:9893, V-B:GLU:543:CB:9877, V-B:GLU:543:CD:9879, V-B:HIS:456:CE1:9040, H-A:GLY:454:N:4049, V-A:HIS:456:CE1:4069, H-A:ARG:545:NH1:4926, V-A:GLU:543:CD:4907, V-B:ARG:545:CZ:9897, H-A:ARG:545:NH2:4927, V-B:ARG:545:CD:9894, V-B:TYR:484:CZ:9317, V-A:TYR:484:CZ:4346, V-A:ARG:545:CZ:4925, V-A:ASP:366:CG:3212, V-B:GLY:544:C:9883, H-A:TYR:484:OH:4347, H-A:GLU:543:OE2:4909, V-B:GLY:453:C:9012, V-B:GLY:453:CA:9014, V-B:ARG:545:CA:9890, V-B:ARG:545:CB:9892, V-B:GLY:454:CA:9019, H-A:GLU:543:OE1:4908"]

$$$$
2g_Grossjean_2025
     RDKit          3D

 39 40  0  0  0  0  0  0  0  0999 V2000
  129.1160  126.7850   63.3360 C   0  0  0  0  0  0  0  0  0  0  0  0
  130.4110  126.4380   64.0450 C   0  0  0  0  0  0  0  0  0  0  0  0
  131.4690  125.8290   63.3740 C   0  0  0  0  0  0  0  0  0  0  0  0
  132.6440  125.5200   64.0770 C   0  0  0  0  0  0  0  0  0  0  0  0
  133.8010  124.8380   63.3200 C   0  0  0  0  0  0  0  0  0  0  0  0
  134.9530  125.4580   63.5800 F   0  0  0  0  0  0  0  0  0  0  0  0
  133.9000  123.5640   63.7020 F   0  0  0  0  0  0  0  0  0  0  0  0
  133.6310  124.8510   61.9970 F   0  0  0  0  0  0  0  0  0  0  0  0
  132.7180  125.8500   65.4540 C   0  0  0  0  0  0  0  0  0  0  0  0
  133.8990  125.4980   66.2470 C   0  0  0  0  0  0  0  0  0  0  0  0
  134.8330  125.2200   66.8720 N   0  0  0  0  0  0  0  0  0  0  0  0
  131.6040  126.4960   66.0440 C   0  0  0  0  0  0  0  0  0  0  0  0
  131.5380  127.0010   67.7500 S   0  0  0  0  0  0  0  0  0  0  0  0
  129.7960  126.8980   68.2850 C   0  0  0  0  0  0  0  0  0  0  0  0
  128.9450  128.1290   67.9400 C   0  0  0  0  0  0  0  0  0  0  0  0
  128.7810  129.0430   68.7500 O   0  0  0  0  0  0  0  0  0  0  0  0
  128.3990  128.1280   66.7110 N   0  0  0  0  0  0  0  0  0  0  0  0
  127.5590  129.1890   66.1530 C   0  0  0  0  0  0  0  0  0  0  0  0
  126.1240  129.1920   66.6680 C   0  0  0  0  0  0  0  0  0  0  0  0
  125.8610  128.8490   67.9980 C   0  0  0  0  0  0  0  0  0  0  0  0
  124.5550  128.8870   68.4800 C   0  0  0  0  0  0  0  0  0  0  0  0
  123.5190  129.2770   67.6360 C   0  0  0  0  0  0  0  0  0  0  0  0
  123.7760  129.6330   66.3130 C   0  0  0  0  0  0  0  0  0  0  0  0
  125.0810  129.5950   65.8300 C   0  0  0  0  0  0  0  0  0  0  0  0
  130.4680  126.7650   65.3560 N   0  0  0  0  0  0  0  0  0  0  0  0
  128.3346  126.9944   64.0814 H   0  0  0  0  0  0  0  0  0  0  0  0
  129.2695  127.6737   62.7062 H   0  0  0  0  0  0  0  0  0  0  0  0
  128.8046  125.9386   62.7062 H   0  0  0  0  0  0  0  0  0  0  0  0
  131.3844  125.5924   62.3031 H   0  0  0  0  0  0  0  0  0  0  0  0
  129.3407  126.0205   67.8026 H   0  0  0  0  0  0  0  0  0  0  0  0
  129.8116  126.8288   69.3827 H   0  0  0  0  0  0  0  0  0  0  0  0
  128.6000  127.3530   66.0960 H   0  0  0  0  0  0  0  0  0  0  0  0
  128.0165  130.1576   66.4033 H   0  0  0  0  0  0  0  0  0  0  0  0
  127.5035  129.0085   65.0693 H   0  0  0  0  0  0  0  0  0  0  0  0
  126.6847  128.5495   68.6626 H   0  0  0  0  0  0  0  0  0  0  0  0
  124.3430  128.6100   69.5232 H   0  0  0  0  0  0  0  0  0  0  0  0
  122.4874  129.3045   68.0168 H   0  0  0  0  0  0  0  0  0  0  0  0
  122.9515  129.9425   65.6538 H   0  0  0  0  0  0  0  0  0  0  0  0
  125.2911  129.8821   64.7891 H   0  0  0  0  0  0  0  0  0  0  0  0
  1  2  1  0
  2  3  2  0
  3  4  1  0
  4  5  1  0
  5  6  1  0
  5  7  1  0
  5  8  1  0
  4  9  2  0
  9 10  1  0
 10 11  3  0
  9 12  1  0
 12 13  1  0
 13 14  1  0
 14 15  1  0
 15 16  2  0
 15 17  1  0
 17 18  1  0
 18 19  1  0
 19 20  2  0
 20 21  1  0
 21 22  2  0
 22 23  1  0
 23 24  2  0
 12 25  2  0
 25  2  1  0
 24 19  1  0
  1 26  1  0
  1 27  1  0
  1 28  1  0
  3 29  1  0
 14 30  1  0
 14 31  1  0
 17 32  1  0
 18 33  1  0
 18 34  1  0
 20 35  1  0
 21 36  1  0
 22 37  1  0
 23 38  1  0
 24 39  1  0
M  END
>  <Binding energies>  (1) 
[-6.33]

>  <Ligand effiencies>  (1) 
[-0.24346153846153845]

>  <Interactions>  (1) 
["V-B:ARG:545:CG:9893, V-B:GLU:543:CD:9879, V-B:HIS:456:CE1:9040, H-A:GLY:454:N:4049, V-A:HIS:456:CE1:4069, V-A:GLU:543:CD:4907, V-A:GLY:454:CA:4048, V-B:ARG:545:CZ:9897, V-B:ARG:545:CD:9894, V-B:TYR:484:CZ:9317, V-A:ARG:545:CZ:4925, V-A:GLY:453:CA:4043, V-A:ASP:366:CG:3212, V-A:ARG:545:CD:4922, H-A:TYR:484:OH:4347, V-B:GLY:453:C:9012, V-B:ARG:545:CA:9890, V-B:ARG:545:CB:9892, V-B:GLY:454:CA:9019, H-A:ILE:455:N:4054, H-B:GLU:543:OE2:9881, V-A:GLY:453:C:4041, V-A:ILE:369:CD1:3238, H-B:GLU:543:OE1:9880"]

$$$$
2h_Grossjean_2025
     RDKit          3D

 51 52  0  0  0  0  0  0  0  0999 V2000
  123.9160  129.6160   63.7960 C   0  0  0  0  0  0  0  0  0  0  0  0
  123.8280  130.0510   65.1490 O   0  0  0  0  0  0  0  0  0  0  0  0
  124.7740  129.6200   66.0630 C   0  0  0  0  0  0  0  0  0  0  0  0
  124.4600  128.9690   67.2660 C   0  0  0  0  0  0  0  0  0  0  0  0
  125.4680  128.5560   68.1340 C   0  0  0  0  0  0  0  0  0  0  0  0
  126.8090  128.7850   67.8210 C   0  0  0  0  0  0  0  0  0  0  0  0
  127.8990  128.3050   68.7790 C   0  0  0  0  0  0  0  0  0  0  0  0
  128.7720  127.2790   68.2090 N   0  0  0  0  0  0  0  0  0  0  0  0
  130.1140  127.3480   68.1630 C   0  0  0  0  0  0  0  0  0  0  0  0
  130.7520  128.3370   68.5290 O   0  0  0  0  0  0  0  0  0  0  0  0
  130.8230  126.0980   67.6250 C   0  0  0  0  0  0  0  0  0  0  0  0
  131.5370  126.2740   65.9550 S   0  0  0  0  0  0  0  0  0  0  0  0
  131.3500  124.6990   65.1480 C   0  0  0  0  0  0  0  0  0  0  0  0
  130.1940  124.0620   65.4560 N   0  0  0  0  0  0  0  0  0  0  0  0
  129.9580  122.8470   64.9110 C   0  0  0  0  0  0  0  0  0  0  0  0
  128.6490  122.1900   65.3060 C   0  0  0  0  0  0  0  0  0  0  0  0
  130.8530  122.2260   64.0420 C   0  0  0  0  0  0  0  0  0  0  0  0
  132.0450  122.8800   63.6950 C   0  0  0  0  0  0  0  0  0  0  0  0
  133.0180  122.1810   62.7250 C   0  0  0  0  0  0  0  0  0  0  0  0
  133.1090  122.8780   61.5920 F   0  0  0  0  0  0  0  0  0  0  0  0
  134.2500  122.0650   63.2240 F   0  0  0  0  0  0  0  0  0  0  0  0
  132.5810  120.9530   62.4440 F   0  0  0  0  0  0  0  0  0  0  0  0
  132.3030  124.1580   64.2530 C   0  0  0  0  0  0  0  0  0  0  0  0
  133.5050  124.9070   63.8770 C   0  0  0  0  0  0  0  0  0  0  0  0
  134.4540  125.4980   63.5760 N   0  0  0  0  0  0  0  0  0  0  0  0
  127.1370  129.4560   66.6340 C   0  0  0  0  0  0  0  0  0  0  0  0
  128.4550  129.6880   66.3200 O   0  0  0  0  0  0  0  0  0  0  0  0
  128.9720  128.8450   65.2980 C   0  0  0  0  0  0  0  0  0  0  0  0
  126.1190  129.8540   65.7500 C   0  0  0  0  0  0  0  0  0  0  0  0
  126.4370  130.4950   64.5770 O   0  0  0  0  0  0  0  0  0  0  0  0
  126.8840  131.8330   64.7480 C   0  0  0  0  0  0  0  0  0  0  0  0
  124.1341  128.5381   63.7708 H   0  0  0  0  0  0  0  0  0  0  0  0
  122.9607  129.8088   63.2860 H   0  0  0  0  0  0  0  0  0  0  0  0
  124.7213  130.1650   63.2860 H   0  0  0  0  0  0  0  0  0  0  0  0
  123.4075  128.7831   67.5260 H   0  0  0  0  0  0  0  0  0  0  0  0
  125.2056  128.0459   69.0726 H   0  0  0  0  0  0  0  0  0  0  0  0
  128.5177  129.1693   69.0623 H   0  0  0  0  0  0  0  0  0  0  0  0
  127.3911  127.8515   69.6429 H   0  0  0  0  0  0  0  0  0  0  0  0
  128.3220  126.4220   67.9210 H   0  0  0  0  0  0  0  0  0  0  0  0
  131.6374  125.8425   68.3189 H   0  0  0  0  0  0  0  0  0  0  0  0
  130.0524  125.3168   67.5487 H   0  0  0  0  0  0  0  0  0  0  0  0
  128.5740  122.1523   66.4028 H   0  0  0  0  0  0  0  0  0  0  0  0
  127.8090  122.7733   64.9008 H   0  0  0  0  0  0  0  0  0  0  0  0
  128.6148  121.1679   64.9008 H   0  0  0  0  0  0  0  0  0  0  0  0
  130.6268  121.2309   63.6313 H   0  0  0  0  0  0  0  0  0  0  0  0
  129.4949  127.9923   65.7557 H   0  0  0  0  0  0  0  0  0  0  0  0
  128.1448  128.4758   64.6739 H   0  0  0  0  0  0  0  0  0  0  0  0
  129.6761  129.4149   64.6739 H   0  0  0  0  0  0  0  0  0  0  0  0
  126.9598  132.0599   65.8217 H   0  0  0  0  0  0  0  0  0  0  0  0
  127.8710  131.9528   64.2773 H   0  0  0  0  0  0  0  0  0  0  0  0
  126.1672  132.5220   64.2773 H   0  0  0  0  0  0  0  0  0  0  0  0
  1  2  1  0
  2  3  1  0
  3  4  2  0
  4  5  1  0
  5  6  2  0
  6  7  1  0
  7  8  1  0
  8  9  1  0
  9 10  2  0
  9 11  1  0
 11 12  1  0
 12 13  1  0
 13 14  2  0
 14 15  1  0
 15 16  1  0
 15 17  2  0
 17 18  1  0
 18 19  1  0
 19 20  1  0
 19 21  1  0
 19 22  1  0
 18 23  2  0
 23 24  1  0
 24 25  3  0
  6 26  1  0
 26 27  1  0
 27 28  1  0
 26 29  2  0
 29 30  1  0
 30 31  1  0
 29  3  1  0
 23 13  1  0
  1 32  1  0
  1 33  1  0
  1 34  1  0
  4 35  1  0
  5 36  1  0
  7 37  1  0
  7 38  1  0
  8 39  1  0
 11 40  1  0
 11 41  1  0
 16 42  1  0
 16 43  1  0
 16 44  1  0
 17 45  1  0
 28 46  1  0
 28 47  1  0
 28 48  1  0
 31 49  1  0
 31 50  1  0
 31 51  1  0
M  END
>  <Binding energies>  (1) 
[-6.38]

>  <Ligand effiencies>  (1) 
[-0.199375]

>  <Interactions>  (1) 
["V-B:ARG:545:CG:9893, V-B:GLU:543:CB:9877, V-A:GLU:543:CG:4906, V-B:GLU:543:CD:9879, V-B:HIS:456:CE1:9040, H-A:GLY:454:N:4049, V-A:HIS:456:CE1:4069, H-A:ARG:545:NH1:4926, V-A:GLU:543:CD:4907, V-A:GLY:454:CA:4048, V-B:ARG:545:CZ:9897, H-A:ARG:545:NH2:4927, V-B:ARG:545:CD:9894, H-B:GLY:454:N:9020, V-A:TYR:484:CZ:4346, V-A:ARG:545:CZ:4925, V-B:ALA:541:CB:9863, H-A:TYR:484:OH:4347, V-B:ALA:541:C:9859, V-B:GLU:543:CG:9878, V-B:ALA:541:CA:9861, V-A:TYR:484:CE2:4345, V-A:LEU:475:CD2:4258, H-B:GLU:543:OE2:9881, V-A:GLY:453:C:4041, V-A:ILE:369:CD1:3238, V-A:SER:385:C:3404, H-B:GLU:543:OE1:9880, V-A:LEU:475:CD1:4257"]

$$$$
2i_Grossjean_2025
     RDKit          3D

 32 33  0  0  0  0  0  0  0  0999 V2000
  125.6380  127.0030   70.2820 C   0  0  0  0  0  0  0  0  0  0  0  0
  126.1340  127.7130   69.0350 C   0  0  0  0  0  0  0  0  0  0  0  0
  125.2530  128.2950   68.1280 C   0  0  0  0  0  0  0  0  0  0  0  0
  125.7610  128.9420   66.9920 C   0  0  0  0  0  0  0  0  0  0  0  0
  124.7720  129.5800   65.9980 C   0  0  0  0  0  0  0  0  0  0  0  0
  123.5230  129.4360   66.4410 F   0  0  0  0  0  0  0  0  0  0  0  0
  125.0360  130.8800   65.8610 F   0  0  0  0  0  0  0  0  0  0  0  0
  124.8330  129.0290   64.7830 F   0  0  0  0  0  0  0  0  0  0  0  0
  127.1670  128.9800   66.8060 C   0  0  0  0  0  0  0  0  0  0  0  0
  127.7520  129.6440   65.6370 C   0  0  0  0  0  0  0  0  0  0  0  0
  128.2150  130.1680   64.7150 N   0  0  0  0  0  0  0  0  0  0  0  0
  127.9880  128.3610   67.7770 C   0  0  0  0  0  0  0  0  0  0  0  0
  129.7680  128.3390   67.6440 S   0  0  0  0  0  0  0  0  0  0  0  0
  130.3480  126.6770   68.1000 C   0  0  0  0  0  0  0  0  0  0  0  0
  130.9030  125.9070   66.9000 C   0  0  0  0  0  0  0  0  0  0  0  0
  130.4260  124.8040   66.6240 O   0  0  0  0  0  0  0  0  0  0  0  0
  131.9160  126.5030   66.2360 N   0  0  0  0  0  0  0  0  0  0  0  0
  132.5920  126.0020   65.1350 C   0  0  0  0  0  0  0  0  0  0  0  0
  132.1800  125.8820   63.8000 C   0  0  0  0  0  0  0  0  0  0  0  0
  133.2570  125.3220   63.1510 C   0  0  0  0  0  0  0  0  0  0  0  0
  134.2580  125.1240   64.0420 O   0  0  0  0  0  0  0  0  0  0  0  0
  133.8230  125.5650   65.2940 N   0  0  0  0  0  0  0  0  0  0  0  0
  127.4750  127.7410   68.8700 N   0  0  0  0  0  0  0  0  0  0  0  0
  126.0060  127.5298   71.1748 H   0  0  0  0  0  0  0  0  0  0  0  0
  124.5380  126.9967   70.2874 H   0  0  0  0  0  0  0  0  0  0  0  0
  126.0106  125.9680   70.2874 H   0  0  0  0  0  0  0  0  0  0  0  0
  124.1677  128.2479   68.3007 H   0  0  0  0  0  0  0  0  0  0  0  0
  131.1413  126.7740   68.8558 H   0  0  0  0  0  0  0  0  0  0  0  0
  129.4870  126.1154   68.4916 H   0  0  0  0  0  0  0  0  0  0  0  0
  132.2470  127.3910   66.5840 H   0  0  0  0  0  0  0  0  0  0  0  0
  131.2109  126.1713   63.3673 H   0  0  0  0  0  0  0  0  0  0  0  0
  133.2982  125.0748   62.0799 H   0  0  0  0  0  0  0  0  0  0  0  0
  1  2  1  0
  2  3  2  0
  3  4  1  0
  4  5  1  0
  5  6  1  0
  5  7  1  0
  5  8  1  0
  4  9  2  0
  9 10  1  0
 10 11  3  0
  9 12  1  0
 12 13  1  0
 13 14  1  0
 14 15  1  0
 15 16  2  0
 15 17  1  0
 17 18  1  0
 18 19  1  0
 19 20  2  0
 20 21  1  0
 21 22  1  0
 12 23  2  0
 23  2  1  0
 22 18  2  0
  1 24  1  0
  1 25  1  0
  1 26  1  0
  3 27  1  0
 14 28  1  0
 14 29  1  0
 17 30  1  0
 19 31  1  0
 20 32  1  0
M  END
>  <Binding energies>  (1) 
[-7.08]

>  <Ligand effiencies>  (1) 
[-0.295]

>  <Interactions>  (1) 
["V-B:ARG:545:CG:9893, V-B:GLU:543:CB:9877, V-B:GLU:543:CD:9879, V-B:HIS:456:CE1:9040, H-A:GLY:454:N:4049, V-A:HIS:456:CE1:4069, H-A:ARG:545:NH1:4926, V-A:GLU:543:CD:4907, V-B:ARG:545:CZ:9897, H-A:ARG:545:NH2:4927, V-B:ARG:545:CD:9894, V-B:TYR:484:CZ:9317, V-A:TYR:484:CZ:4346, V-A:ARG:545:CZ:4925, V-A:ASP:366:CG:3212, V-B:GLY:544:C:9883, H-A:ARG:545:NE:4923, H-A:TYR:484:OH:4347, V-B:GLY:453:C:9012, V-B:GLY:453:CA:9014, V-B:ARG:545:CA:9890, V-B:ARG:545:CB:9892, V-B:GLY:454:CA:9019, H-A:GLU:543:OE1:4908"]

$$$$
2j_Grossjean_2025
     RDKit          3D

 32 33  0  0  0  0  0  0  0  0999 V2000
  124.1460  123.3520   63.1990 C   0  0  0  0  0  0  0  0  0  0  0  0
  125.2510  123.4180   62.1620 C   0  0  0  0  0  0  0  0  0  0  0  0
  124.9730  123.6270   60.8130 C   0  0  0  0  0  0  0  0  0  0  0  0
  126.0300  123.6830   59.8910 C   0  0  0  0  0  0  0  0  0  0  0  0
  125.7050  123.9160   58.4030 C   0  0  0  0  0  0  0  0  0  0  0  0
  126.2860  125.0390   57.9810 F   0  0  0  0  0  0  0  0  0  0  0  0
  126.1550  122.8950   57.6720 F   0  0  0  0  0  0  0  0  0  0  0  0
  124.3950  124.0280   58.1730 F   0  0  0  0  0  0  0  0  0  0  0  0
  127.3540  123.5220   60.3700 C   0  0  0  0  0  0  0  0  0  0  0  0
  128.4970  123.5710   59.4520 C   0  0  0  0  0  0  0  0  0  0  0  0
  129.3980  123.6110   58.7270 N   0  0  0  0  0  0  0  0  0  0  0  0
  127.5440  123.3130   61.7570 C   0  0  0  0  0  0  0  0  0  0  0  0
  129.1680  123.1000   62.4720 S   0  0  0  0  0  0  0  0  0  0  0  0
  129.6610  124.6710   63.2600 C   0  0  0  0  0  0  0  0  0  0  0  0
  130.6480  124.5260   64.4270 C   0  0  0  0  0  0  0  0  0  0  0  0
  130.6650  123.5030   65.1140 O   0  0  0  0  0  0  0  0  0  0  0  0
  131.4540  125.5940   64.6220 N   0  0  0  0  0  0  0  0  0  0  0  0
  132.4330  125.7270   65.5990 C   0  0  0  0  0  0  0  0  0  0  0  0
  133.7160  125.4580   65.4970 N   0  0  0  0  0  0  0  0  0  0  0  0
  134.3550  125.7050   66.6240 C   0  0  0  0  0  0  0  0  0  0  0  0
  133.5820  126.1870   67.6770 C   0  0  0  0  0  0  0  0  0  0  0  0
  131.9310  126.3200   67.1500 S   0  0  0  0  0  0  0  0  0  0  0  0
  126.5080  123.2640   62.6330 N   0  0  0  0  0  0  0  0  0  0  0  0
  124.5867  123.3783   64.2065 H   0  0  0  0  0  0  0  0  0  0  0  0
  123.4715  124.2115   63.0712 H   0  0  0  0  0  0  0  0  0  0  0  0
  123.5786  122.4184   63.0712 H   0  0  0  0  0  0  0  0  0  0  0  0
  123.9337  123.7472   60.4731 H   0  0  0  0  0  0  0  0  0  0  0  0
  130.1290  125.3059   62.4933 H   0  0  0  0  0  0  0  0  0  0  0  0
  128.7435  125.1053   63.6836 H   0  0  0  0  0  0  0  0  0  0  0  0
  131.3430  126.3830   64.0020 H   0  0  0  0  0  0  0  0  0  0  0  0
  135.4377  125.5395   66.7263 H   0  0  0  0  0  0  0  0  0  0  0  0
  133.9555  126.4422   68.6797 H   0  0  0  0  0  0  0  0  0  0  0  0
  1  2  1  0
  2  3  2  0
  3  4  1  0
  4  5  1  0
  5  6  1  0
  5  7  1  0
  5  8  1  0
  4  9  2  0
  9 10  1  0
 10 11  3  0
  9 12  1  0
 12 13  1  0
 13 14  1  0
 14 15  1  0
 15 16  2  0
 15 17  1  0
 17 18  1  0
 18 19  2  0
 19 20  1  0
 20 21  2  0
 21 22  1  0
 12 23  2  0
 23  2  1  0
 22 18  1  0
  1 24  1  0
  1 25  1  0
  1 26  1  0
  3 27  1  0
 14 28  1  0
 14 29  1  0
 17 30  1  0
 20 31  1  0
 21 32  1  0
M  END
>  <Binding energies>  (1) 
[-6.23]

>  <Ligand effiencies>  (1) 
[-0.25958333333333333]

>  <Interactions>  (1) 
["H-A:GLY:454:N:4049, V-A:HIS:456:CE1:4069, V-A:GLY:454:CA:4048, V-B:ARG:545:CZ:9897, H-B:ALA:541:N:9862, V-B:PRO:540:CA:9854, V-A:ARG:545:CZ:4925, V-B:PRO:540:CB:9856, V-A:GLY:453:CA:4043, V-A:ARG:545:CD:4922, V-A:ARG:545:CG:4921, V-B:PRO:540:C:9852, V-B:TYR:539:CE2:9847, V-B:ASN:362:CG:8147, H-A:ARG:545:NE:4923, H-A:TYR:484:OH:4347, V-B:ASN:362:CB:8146, V-B:ALA:541:C:9859, V-B:LEU:363:CD1:8159, V-B:TYR:539:C:9838, V-B:PRO:540:N:9855, V-A:GLY:453:C:4041, H-A:GLU:543:OE1:4908, V-B:PRO:540:CD:9858"]

$$$$
2k_Grossjean_2025
     RDKit          3D

 50 50  0  0  0  0  0  0  0  0999 V2000
  132.1170  125.5620   58.5010 C   0  0  0  0  0  0  0  0  0  0  0  0
  133.1970  124.6620   58.3130 O   0  0  0  0  0  0  0  0  0  0  0  0
  133.2460  123.6240   59.2840 C   0  0  0  0  0  0  0  0  0  0  0  0
  132.9850  124.2080   60.6790 C   0  0  0  0  0  0  0  0  0  0  0  0
  133.7680  123.5020   61.6300 O   0  0  0  0  0  0  0  0  0  0  0  0
  133.4900  123.8410   62.9840 C   0  0  0  0  0  0  0  0  0  0  0  0
  134.1340  125.2010   63.2840 C   0  0  0  0  0  0  0  0  0  0  0  0
  134.0150  125.4400   64.6780 O   0  0  0  0  0  0  0  0  0  0  0  0
  132.7430  125.1430   65.2350 C   0  0  0  0  0  0  0  0  0  0  0  0
  131.7580  126.2660   64.8590 C   0  0  0  0  0  0  0  0  0  0  0  0
  130.7390  126.5000   65.8840 N   0  0  0  0  0  0  0  0  0  0  0  0
  130.9650  126.5820   67.2090 C   0  0  0  0  0  0  0  0  0  0  0  0
  132.0870  126.4960   67.7120 O   0  0  0  0  0  0  0  0  0  0  0  0
  129.7190  126.7720   68.0870 C   0  0  0  0  0  0  0  0  0  0  0  0
  129.1540  128.4990   68.2810 S   0  0  0  0  0  0  0  0  0  0  0  0
  127.5500  128.6880   67.5140 C   0  0  0  0  0  0  0  0  0  0  0  0
  126.5010  128.8100   68.3660 N   0  0  0  0  0  0  0  0  0  0  0  0
  125.2570  128.9520   67.8560 C   0  0  0  0  0  0  0  0  0  0  0  0
  124.1380  129.0710   68.8720 C   0  0  0  0  0  0  0  0  0  0  0  0
  125.0070  128.9910   66.4870 C   0  0  0  0  0  0  0  0  0  0  0  0
  126.0780  128.8740   65.5870 C   0  0  0  0  0  0  0  0  0  0  0  0
  125.7840  128.9240   64.0750 C   0  0  0  0  0  0  0  0  0  0  0  0
  126.1110  127.7930   63.4480 F   0  0  0  0  0  0  0  0  0  0  0  0
  124.4830  129.1350   63.8690 F   0  0  0  0  0  0  0  0  0  0  0  0
  126.4770  129.9130   63.5080 F   0  0  0  0  0  0  0  0  0  0  0  0
  127.3870  128.7170   66.1080 C   0  0  0  0  0  0  0  0  0  0  0  0
  128.5420  128.5870   65.2140 C   0  0  0  0  0  0  0  0  0  0  0  0
  129.4530  128.4850   64.5080 N   0  0  0  0  0  0  0  0  0  0  0  0
  131.9434  125.7067   59.5775 H   0  0  0  0  0  0  0  0  0  0  0  0
  132.3600  126.5286   58.0356 H   0  0  0  0  0  0  0  0  0  0  0  0
  131.2100  125.1487   58.0356 H   0  0  0  0  0  0  0  0  0  0  0  0
  132.4781  122.8710   59.0533 H   0  0  0  0  0  0  0  0  0  0  0  0
  134.2407  123.1548   59.2658 H   0  0  0  0  0  0  0  0  0  0  0  0
  133.2619  125.2725   60.6908 H   0  0  0  0  0  0  0  0  0  0  0  0
  131.9184  124.1094   60.9294 H   0  0  0  0  0  0  0  0  0  0  0  0
  132.4023  123.9033   63.1357 H   0  0  0  0  0  0  0  0  0  0  0  0
  133.8974  123.0727   63.6576 H   0  0  0  0  0  0  0  0  0  0  0  0
  135.1957  125.1837   62.9967 H   0  0  0  0  0  0  0  0  0  0  0  0
  133.6331  125.9972   62.7138 H   0  0  0  0  0  0  0  0  0  0  0  0
  132.3799  124.1845   64.8356 H   0  0  0  0  0  0  0  0  0  0  0  0
  132.8238  125.0698   66.3296 H   0  0  0  0  0  0  0  0  0  0  0  0
  132.3265  127.1960   64.7112 H   0  0  0  0  0  0  0  0  0  0  0  0
  131.2368  125.9533   63.9422 H   0  0  0  0  0  0  0  0  0  0  0  0
  129.7900  126.5970   65.5540 H   0  0  0  0  0  0  0  0  0  0  0  0
  128.8970  126.1941   67.6395 H   0  0  0  0  0  0  0  0  0  0  0  0
  130.0021  126.4304   69.0936 H   0  0  0  0  0  0  0  0  0  0  0  0
  124.5585  129.0263   69.8875 H   0  0  0  0  0  0  0  0  0  0  0  0
  123.6168  130.0296   68.7328 H   0  0  0  0  0  0  0  0  0  0  0  0
  123.4268  128.2434   68.7328 H   0  0  0  0  0  0  0  0  0  0  0  0
  123.9794  129.1124   66.1138 H   0  0  0  0  0  0  0  0  0  0  0  0
  1  2  1  0
  2  3  1  0
  3  4  1  0
  4  5  1  0
  5  6  1  0
  6  7  1  0
  7  8  1  0
  8  9  1  0
  9 10  1  0
 10 11  1  0
 11 12  1  0
 12 13  2  0
 12 14  1  0
 14 15  1  0
 15 16  1  0
 16 17  2  0
 17 18  1  0
 18 19  1  0
 18 20  2  0
 20 21  1  0
 21 22  1  0
 22 23  1  0
 22 24  1  0
 22 25  1  0
 21 26  2  0
 26 27  1  0
 27 28  3  0
 26 16  1  0
  1 29  1  0
  1 30  1  0
  1 31  1  0
  3 32  1  0
  3 33  1  0
  4 34  1  0
  4 35  1  0
  6 36  1  0
  6 37  1  0
  7 38  1  0
  7 39  1  0
  9 40  1  0
  9 41  1  0
 10 42  1  0
 10 43  1  0
 11 44  1  0
 14 45  1  0
 14 46  1  0
 19 47  1  0
 19 48  1  0
 19 49  1  0
 20 50  1  0
M  END
>  <Binding energies>  (1) 
[-5.33]

>  <Ligand effiencies>  (1) 
[-0.18379310344827587]

>  <Interactions>  (1) 
["V-B:ARG:545:CG:9893, V-B:GLU:543:CD:9879, V-B:HIS:456:CE1:9040, H-A:GLY:454:N:4049, V-A:HIS:456:CE1:4069, H-A:ARG:545:NH1:4926, V-A:GLU:543:CD:4907, V-A:GLY:454:CA:4048, V-B:ARG:545:CZ:9897, H-B:TYR:484:OH:9318, H-A:ARG:545:NH2:4927, V-B:ARG:545:CD:9894, V-A:ARG:545:CZ:4925, V-A:GLY:453:CA:4043, V-A:ASP:366:CG:3212, V-B:TYR:539:CE2:9847, V-B:TYR:539:CZ:9848, H-A:ARG:545:NE:4923, H-A:TYR:484:OH:4347, V-A:ILE:369:CG2:3236, V-B:ARG:545:CA:9890, V-B:ARG:545:CB:9892, V-A:ASP:366:CB:3211, H-B:GLU:543:OE2:9881, V-A:GLY:453:C:4041, V-A:ILE:369:CD1:3238, H-A:GLU:543:OE1:4908, V-A:ILE:369:CB:3235, H-B:TYR:539:OH:9849, V-B:ILE:455:C:9022"]

$$$$
3aa_Grossjean_2025
     RDKit          3D

 52 54  0  0  0  0  0  0  0  0999 V2000
  123.4770  123.9020   58.9620 C   0  0  0  0  0  0  0  0  0  0  0  0
  124.0160  124.4220   57.6250 C   0  0  0  0  0  0  0  0  0  0  0  0
  125.4360  124.3410   57.6220 O   0  0  0  0  0  0  0  0  0  0  0  0
  126.1990  125.4370   57.8640 C   0  0  0  0  0  0  0  0  0  0  0  0
  125.8090  126.5930   57.6730 O   0  0  0  0  0  0  0  0  0  0  0  0
  127.5730  125.1040   58.3720 C   0  0  0  0  0  0  0  0  0  0  0  0
  128.7280  125.6740   57.8180 C   0  0  0  0  0  0  0  0  0  0  0  0
  129.9870  125.3460   58.3160 C   0  0  0  0  0  0  0  0  0  0  0  0
  130.1150  124.4520   59.3800 C   0  0  0  0  0  0  0  0  0  0  0  0
  131.4320  124.1930   59.8100 N   0  0  0  0  0  0  0  0  0  0  0  0
  132.6020  124.3770   59.1600 C   0  0  0  0  0  0  0  0  0  0  0  0
  132.7210  124.8040   58.0110 O   0  0  0  0  0  0  0  0  0  0  0  0
  133.8590  124.0000   59.9450 C   0  0  0  0  0  0  0  0  0  0  0  0
  133.6740  124.3430   61.7210 S   0  0  0  0  0  0  0  0  0  0  0  0
  132.4160  123.2450   62.3360 C   0  0  0  0  0  0  0  0  0  0  0  0
  132.3740  122.0540   61.6930 N   0  0  0  0  0  0  0  0  0  0  0  0
  131.4580  121.1220   62.0620 C   0  0  0  0  0  0  0  0  0  0  0  0
  131.4850  119.8240   61.3130 C   0  0  0  0  0  0  0  0  0  0  0  0
  130.4410  118.8950   61.4550 C   0  0  0  0  0  0  0  0  0  0  0  0
  130.4580  117.6870   60.7610 C   0  0  0  0  0  0  0  0  0  0  0  0
  131.5220  117.3920   59.9160 C   0  0  0  0  0  0  0  0  0  0  0  0
  132.5670  118.2960   59.7570 C   0  0  0  0  0  0  0  0  0  0  0  0
  132.5460  119.5040   60.4490 C   0  0  0  0  0  0  0  0  0  0  0  0
  130.5600  121.3710   63.1050 C   0  0  0  0  0  0  0  0  0  0  0  0
  130.5720  122.6050   63.7740 C   0  0  0  0  0  0  0  0  0  0  0  0
  129.5590  122.8450   64.9080 C   0  0  0  0  0  0  0  0  0  0  0  0
  129.1820  121.7170   65.5140 F   0  0  0  0  0  0  0  0  0  0  0  0
  130.0900  123.6380   65.8390 F   0  0  0  0  0  0  0  0  0  0  0  0
  128.4620  123.4260   64.4220 F   0  0  0  0  0  0  0  0  0  0  0  0
  131.5190  123.5800   63.3740 C   0  0  0  0  0  0  0  0  0  0  0  0
  131.5400  124.9060   63.9970 C   0  0  0  0  0  0  0  0  0  0  0  0
  131.5560  125.9540   64.4900 N   0  0  0  0  0  0  0  0  0  0  0  0
  128.9650  123.8680   59.9310 C   0  0  0  0  0  0  0  0  0  0  0  0
  127.7090  124.1950   59.4300 C   0  0  0  0  0  0  0  0  0  0  0  0
  123.9992  124.4058   59.7887 H   0  0  0  0  0  0  0  0  0  0  0  0
  122.3989  124.1099   59.0285 H   0  0  0  0  0  0  0  0  0  0  0  0
  123.6460  122.8171   59.0285 H   0  0  0  0  0  0  0  0  0  0  0  0
  123.6122  123.8108   56.8044 H   0  0  0  0  0  0  0  0  0  0  0  0
  123.7084  125.4692   57.4883 H   0  0  0  0  0  0  0  0  0  0  0  0
  128.6394  126.3856   56.9838 H   0  0  0  0  0  0  0  0  0  0  0  0
  130.8859  125.7945   57.8678 H   0  0  0  0  0  0  0  0  0  0  0  0
  131.4930  123.7640   60.7230 H   0  0  0  0  0  0  0  0  0  0  0  0
  134.0556  122.9264   59.8083 H   0  0  0  0  0  0  0  0  0  0  0  0
  134.6943  124.6064   59.5648 H   0  0  0  0  0  0  0  0  0  0  0  0
  129.5982  119.1245   62.1235 H   0  0  0  0  0  0  0  0  0  0  0  0
  129.6329  116.9695   60.8811 H   0  0  0  0  0  0  0  0  0  0  0  0
  131.5374  116.4374   59.3696 H   0  0  0  0  0  0  0  0  0  0  0  0
  133.4065  118.0576   59.0874 H   0  0  0  0  0  0  0  0  0  0  0  0
  133.3721  120.2184   60.3174 H   0  0  0  0  0  0  0  0  0  0  0  0
  129.8397  120.5948   63.4030 H   0  0  0  0  0  0  0  0  0  0  0  0
  129.0562  123.1508   60.7600 H   0  0  0  0  0  0  0  0  0  0  0  0
  126.8119  123.7346   59.8696 H   0  0  0  0  0  0  0  0  0  0  0  0
  1  2  1  0
  2  3  1  0
  3  4  1  0
  4  5  2  0
  4  6  1  0
  6  7  2  0
  7  8  1  0
  8  9  2  0
  9 10  1  0
 10 11  1  0
 11 12  2  0
 11 13  1  0
 13 14  1  0
 14 15  1  0
 15 16  2  0
 16 17  1  0
 17 18  1  0
 18 19  2  0
 19 20  1  0
 20 21  2  0
 21 22  1  0
 22 23  2  0
 17 24  2  0
 24 25  1  0
 25 26  1  0
 26 27  1  0
 26 28  1  0
 26 29  1  0
 25 30  2  0
 30 31  1  0
 31 32  3  0
  9 33  1  0
 33 34  2  0
 34  6  1  0
 30 15  1  0
 23 18  1  0
  1 35  1  0
  1 36  1  0
  1 37  1  0
  2 38  1  0
  2 39  1  0
  7 40  1  0
  8 41  1  0
 10 42  1  0
 13 43  1  0
 13 44  1  0
 19 45  1  0
 20 46  1  0
 21 47  1  0
 22 48  1  0
 23 49  1  0
 24 50  1  0
 33 51  1  0
 34 52  1  0
M  END
>  <Binding energies>  (1) 
[-7.3]

>  <Ligand effiencies>  (1) 
[-0.20857142857142857]

>  <Interactions>  (1) 
["V-B:GLU:543:CD:9879, V-B:ASP:366:CG:8183, V-A:TYR:484:CZ:4346, V-B:PRO:540:CB:9856, V-B:ALA:541:CB:9863, V-A:ASP:366:CG:3212, V-B:TYR:539:CE2:9847, V-B:TYR:539:CZ:9848, V-B:TYR:539:CD2:9845, V-B:MET:535:CE:9806, V-A:PRO:482:CG:4326, V-B:ASP:366:CB:8182, V-A:PRO:482:CB:4325, V-B:ALA:541:C:9859, V-B:GLU:543:CG:9878, V-B:ALA:541:CA:9861, V-B:TYR:539:CB:9842, V-A:ILE:369:CG2:3236, V-A:TYR:484:CE2:4345, V-A:LEU:475:CD2:4258, V-B:TYR:531:CE2:9764, V-B:LEU:363:CD1:8159, V-B:TYR:531:CZ:9765, H-B:TYR:531:OH:9766, V-A:ASP:366:CB:3211, V-B:TYR:539:C:9838, V-A:ILE:369:CD1:3238, V-A:LEU:475:CD1:4257, V-A:ILE:369:CB:3235, V-A:ILE:369:CG1:3237, V-A:HIS:383:CE1:3393, V-A:ASP:366:CA:3209, H-B:TYR:539:OH:9849, V-B:LEU:363:CA:8155, V-B:LEU:363:CB:8157"]

$$$$
3ab_Grossjean_2025
     RDKit          3D

 49 51  0  0  0  0  0  0  0  0999 V2000
  133.0910  132.2450   62.1050 C   0  0  0  0  0  0  0  0  0  0  0  0
  131.7250  132.6160   61.9790 O   0  0  0  0  0  0  0  0  0  0  0  0
  131.0790  132.5090   60.7900 C   0  0  0  0  0  0  0  0  0  0  0  0
  131.6580  132.3490   59.7120 O   0  0  0  0  0  0  0  0  0  0  0  0
  129.5860  132.6030   60.9170 C   0  0  0  0  0  0  0  0  0  0  0  0
  128.9620  132.9310   62.1300 C   0  0  0  0  0  0  0  0  0  0  0  0
  127.5750  133.0120   62.2180 C   0  0  0  0  0  0  0  0  0  0  0  0
  126.7830  132.7630   61.0860 C   0  0  0  0  0  0  0  0  0  0  0  0
  125.3760  132.8220   61.0580 N   0  0  0  0  0  0  0  0  0  0  0  0
  124.5150  133.3790   61.9340 C   0  0  0  0  0  0  0  0  0  0  0  0
  124.8270  133.9550   62.9770 O   0  0  0  0  0  0  0  0  0  0  0  0
  123.0340  133.2620   61.5640 C   0  0  0  0  0  0  0  0  0  0  0  0
  122.2560  131.7980   62.3110 S   0  0  0  0  0  0  0  0  0  0  0  0
  123.5510  130.6290   62.6690 C   0  0  0  0  0  0  0  0  0  0  0  0
  123.7100  130.3860   63.9920 N   0  0  0  0  0  0  0  0  0  0  0  0
  124.6590  129.5090   64.4090 C   0  0  0  0  0  0  0  0  0  0  0  0
  124.7690  129.2940   65.8890 C   0  0  0  0  0  0  0  0  0  0  0  0
  125.9530  128.7960   66.4570 C   0  0  0  0  0  0  0  0  0  0  0  0
  126.0610  128.5950   67.8310 C   0  0  0  0  0  0  0  0  0  0  0  0
  124.9820  128.8890   68.6580 C   0  0  0  0  0  0  0  0  0  0  0  0
  123.7960  129.3800   68.1210 C   0  0  0  0  0  0  0  0  0  0  0  0
  123.6930  129.5790   66.7470 C   0  0  0  0  0  0  0  0  0  0  0  0
  125.4940  128.8660   63.4880 C   0  0  0  0  0  0  0  0  0  0  0  0
  125.3620  129.1160   62.1140 C   0  0  0  0  0  0  0  0  0  0  0  0
  126.3050  128.3920   61.1340 C   0  0  0  0  0  0  0  0  0  0  0  0
  127.0030  127.4140   61.7150 F   0  0  0  0  0  0  0  0  0  0  0  0
  125.6030  127.8440   60.1410 F   0  0  0  0  0  0  0  0  0  0  0  0
  127.1780  129.2580   60.6190 F   0  0  0  0  0  0  0  0  0  0  0  0
  124.3680  130.0300   61.6840 C   0  0  0  0  0  0  0  0  0  0  0  0
  124.2250  130.3690   60.2660 C   0  0  0  0  0  0  0  0  0  0  0  0
  124.1150  130.6360   59.1450 N   0  0  0  0  0  0  0  0  0  0  0  0
  127.4000  132.4420   59.8770 C   0  0  0  0  0  0  0  0  0  0  0  0
  128.7870  132.3610   59.7920 C   0  0  0  0  0  0  0  0  0  0  0  0
  133.3547  132.1734   63.1705 H   0  0  0  0  0  0  0  0  0  0  0  0
  133.2524  131.2705   61.6210 H   0  0  0  0  0  0  0  0  0  0  0  0
  133.7232  133.0040   61.6210 H   0  0  0  0  0  0  0  0  0  0  0  0
  129.5757  133.1264   63.0217 H   0  0  0  0  0  0  0  0  0  0  0  0
  127.0993  133.2713   63.1753 H   0  0  0  0  0  0  0  0  0  0  0  0
  124.9620  132.3400   60.2730 H   0  0  0  0  0  0  0  0  0  0  0  0
  122.5082  134.1617   61.9163 H   0  0  0  0  0  0  0  0  0  0  0  0
  122.9648  133.1617   60.4708 H   0  0  0  0  0  0  0  0  0  0  0  0
  126.8084  128.5610   65.8066 H   0  0  0  0  0  0  0  0  0  0  0  0
  126.9958  128.2053   68.2603 H   0  0  0  0  0  0  0  0  0  0  0  0
  125.0668  128.7323   69.7435 H   0  0  0  0  0  0  0  0  0  0  0  0
  122.9445  129.6096   68.7785 H   0  0  0  0  0  0  0  0  0  0  0  0
  122.7534  129.9659   66.3257 H   0  0  0  0  0  0  0  0  0  0  0  0
  126.2588  128.1600   63.8439 H   0  0  0  0  0  0  0  0  0  0  0  0
  126.7861  132.2515   58.9843 H   0  0  0  0  0  0  0  0  0  0  0  0
  129.2601  132.1046   58.8326 H   0  0  0  0  0  0  0  0  0  0  0  0
  1  2  1  0
  2  3  1  0
  3  4  2  0
  3  5  1  0
  5  6  2  0
  6  7  1  0
  7  8  2  0
  8  9  1  0
  9 10  1  0
 10 11  2  0
 10 12  1  0
 12 13  1  0
 13 14  1  0
 14 15  2  0
 15 16  1  0
 16 17  1  0
 17 18  2  0
 18 19  1  0
 19 20  2  0
 20 21  1  0
 21 22  2  0
 16 23  2  0
 23 24  1  0
 24 25  1  0
 25 26  1  0
 25 27  1  0
 25 28  1  0
 24 29  2  0
 29 30  1  0
 30 31  3  0
  8 32  1  0
 32 33  2  0
 33  5  1  0
 29 14  1  0
 22 17  1  0
  1 34  1  0
  1 35  1  0
  1 36  1  0
  6 37  1  0
  7 38  1  0
  9 39  1  0
 12 40  1  0
 12 41  1  0
 18 42  1  0
 19 43  1  0
 20 44  1  0
 21 45  1  0
 22 46  1  0
 23 47  1  0
 32 48  1  0
 33 49  1  0
M  END
>  <Binding energies>  (1) 
[-7.11]

>  <Ligand effiencies>  (1) 
[-0.20911764705882355]

>  <Interactions>  (1) 
["V-B:ARG:545:CG:9893, V-B:GLU:543:CD:9879, V-B:HIS:456:CE1:9040, V-B:SER:385:CB:8379, V-A:ALA:541:CB:4891, V-A:TYR:539:CD1:4872, V-B:ARG:545:CZ:9897, V-B:ARG:545:CD:9894, H-B:GLY:454:N:9020, V-B:ILE:369:CG2:8207, V-B:ASP:366:CG:8183, V-B:ILE:369:CG1:8208, V-B:TYR:484:CZ:9317, V-A:PRO:540:C:4880, V-A:TYR:539:CE1:4874, V-A:ASN:362:CB:3175, V-A:PRO:540:CB:4884, V-A:PRO:540:CA:4882, H-A:ALA:541:N:4890, V-B:ASP:366:CB:8182, V-B:ARG:545:CB:9892, V-B:GLY:454:CA:9019, V-B:SER:385:C:8375, V-B:ILE:369:CB:8206, V-B:SER:385:CA:8377, V-B:ILE:455:C:9022"]

$$$$
3ac_Grossjean_2025
     RDKit          3D

 47 49  0  0  0  0  0  0  0  0999 V2000
  133.5370  125.8720   66.2230 C   0  0  0  0  0  0  0  0  0  0  0  0
  134.2290  125.5130   65.0300 O   0  0  0  0  0  0  0  0  0  0  0  0
  133.5040  125.1810   63.9020 C   0  0  0  0  0  0  0  0  0  0  0  0
  132.2160  125.7100   63.8130 C   0  0  0  0  0  0  0  0  0  0  0  0
  131.4120  125.4350   62.7110 C   0  0  0  0  0  0  0  0  0  0  0  0
  131.8830  124.6160   61.6830 C   0  0  0  0  0  0  0  0  0  0  0  0
  131.0060  124.4110   60.6020 N   0  0  0  0  0  0  0  0  0  0  0  0
  130.2880  125.3190   59.9050 C   0  0  0  0  0  0  0  0  0  0  0  0
  130.3170  126.5370   60.0820 O   0  0  0  0  0  0  0  0  0  0  0  0
  129.3830  124.7450   58.8140 C   0  0  0  0  0  0  0  0  0  0  0  0
  128.1960  123.5330   59.4710 S   0  0  0  0  0  0  0  0  0  0  0  0
  128.9260  122.7290   60.8860 C   0  0  0  0  0  0  0  0  0  0  0  0
  129.7020  121.6690   60.5550 N   0  0  0  0  0  0  0  0  0  0  0  0
  130.3300  120.9600   61.5280 C   0  0  0  0  0  0  0  0  0  0  0  0
  131.1650  119.7980   61.0780 C   0  0  0  0  0  0  0  0  0  0  0  0
  132.4820  119.9910   60.6280 C   0  0  0  0  0  0  0  0  0  0  0  0
  133.2630  118.9160   60.2150 C   0  0  0  0  0  0  0  0  0  0  0  0
  132.7360  117.6290   60.2420 C   0  0  0  0  0  0  0  0  0  0  0  0
  131.4340  117.4100   60.6780 C   0  0  0  0  0  0  0  0  0  0  0  0
  130.6550  118.4880   61.0900 C   0  0  0  0  0  0  0  0  0  0  0  0
  130.1720  121.2980   62.8750 C   0  0  0  0  0  0  0  0  0  0  0  0
  129.3560  122.3770   63.2470 C   0  0  0  0  0  0  0  0  0  0  0  0
  129.2060  122.7110   64.7440 C   0  0  0  0  0  0  0  0  0  0  0  0
  130.0060  121.9780   65.5210 F   0  0  0  0  0  0  0  0  0  0  0  0
  129.5050  123.9930   64.9630 F   0  0  0  0  0  0  0  0  0  0  0  0
  127.9500  122.4880   65.1340 F   0  0  0  0  0  0  0  0  0  0  0  0
  128.6980  123.1100   62.2280 C   0  0  0  0  0  0  0  0  0  0  0  0
  127.7760  124.1950   62.5710 C   0  0  0  0  0  0  0  0  0  0  0  0
  127.0460  125.0520   62.8420 N   0  0  0  0  0  0  0  0  0  0  0  0
  133.1800  124.0860   61.7620 C   0  0  0  0  0  0  0  0  0  0  0  0
  133.9820  124.3640   62.8660 C   0  0  0  0  0  0  0  0  0  0  0  0
  134.1296  125.5646   67.0973 H   0  0  0  0  0  0  0  0  0  0  0  0
  133.3872  126.9615   66.2463 H   0  0  0  0  0  0  0  0  0  0  0  0
  132.5600  125.3670   66.2463 H   0  0  0  0  0  0  0  0  0  0  0  0
  131.8326  126.3502   64.6212 H   0  0  0  0  0  0  0  0  0  0  0  0
  130.4012  125.8646   62.6496 H   0  0  0  0  0  0  0  0  0  0  0  0
  130.9520  123.4560   60.2820 H   0  0  0  0  0  0  0  0  0  0  0  0
  128.8249  125.5698   58.3468 H   0  0  0  0  0  0  0  0  0  0  0  0
  130.0223  124.2286   58.0828 H   0  0  0  0  0  0  0  0  0  0  0  0
  132.9020  121.0073   60.6018 H   0  0  0  0  0  0  0  0  0  0  0  0
  134.2935  119.0833   59.8684 H   0  0  0  0  0  0  0  0  0  0  0  0
  133.3534  116.7789   59.9163 H   0  0  0  0  0  0  0  0  0  0  0  0
  131.0215  116.3904   60.6973 H   0  0  0  0  0  0  0  0  0  0  0  0
  129.6239  118.3118   61.4304 H   0  0  0  0  0  0  0  0  0  0  0  0
  130.6912  120.7138   63.6491 H   0  0  0  0  0  0  0  0  0  0  0  0
  133.5637  123.4500   60.9507 H   0  0  0  0  0  0  0  0  0  0  0  0
  134.9956  123.9409   62.9263 H   0  0  0  0  0  0  0  0  0  0  0  0
  1  2  1  0
  2  3  1  0
  3  4  2  0
  4  5  1  0
  5  6  2  0
  6  7  1  0
  7  8  1  0
  8  9  2  0
  8 10  1  0
 10 11  1  0
 11 12  1  0
 12 13  2  0
 13 14  1  0
 14 15  1  0
 15 16  2  0
 16 17  1  0
 17 18  2  0
 18 19  1  0
 19 20  2  0
 14 21  2  0
 21 22  1  0
 22 23  1  0
 23 24  1  0
 23 25  1  0
 23 26  1  0
 22 27  2  0
 27 28  1  0
 28 29  3  0
  6 30  1  0
 30 31  2  0
 31  3  1  0
 27 12  1  0
 20 15  1  0
  1 32  1  0
  1 33  1  0
  1 34  1  0
  4 35  1  0
  5 36  1  0
  7 37  1  0
 10 38  1  0
 10 39  1  0
 16 40  1  0
 17 41  1  0
 18 42  1  0
 19 43  1  0
 20 44  1  0
 21 45  1  0
 30 46  1  0
 31 47  1  0
M  END
>  <Binding energies>  (1) 
[-7.03]

>  <Ligand effiencies>  (1) 
[-0.2196875]

>  <Interactions>  (1) 
["V-B:GLU:543:CB:9877, V-B:GLU:543:CD:9879, H-A:GLY:454:N:4049, H-A:ARG:545:NH1:4926, V-A:GLY:454:CA:4048, H-A:ARG:545:NH2:4927, V-A:TYR:484:CZ:4346, V-A:ARG:545:CZ:4925, V-B:ALA:541:CB:9863, V-A:ASP:366:CG:3212, V-A:ARG:545:CD:4922, V-A:ARG:545:CG:4921, V-B:TYR:539:CE2:9847, V-B:TYR:539:CD2:9845, H-A:ARG:545:NE:4923, H-A:TYR:484:OH:4347, V-B:ALA:541:C:9859, V-B:GLU:543:CG:9878, V-B:ALA:541:CA:9861, V-A:SER:385:CB:3408, V-A:ILE:369:CG2:3236, V-A:SER:385:CA:3406, V-A:TYR:484:CE2:4345, V-A:LEU:475:CD2:4258, V-A:ILE:369:CD1:3238, V-A:LEU:475:CD1:4257, V-A:HIS:383:CE1:3393, V-A:LEU:475:CG:4256, V-A:VAL:384:C:3396"]

$$$$
3ad_Grossjean_2025
     RDKit          3D

 43 45  0  0  0  0  0  0  0  0999 V2000
  134.6310  119.1260   59.8570 N   0  0  0  0  0  0  0  0  0  0  0  0
  133.6550  119.6230   60.2320 C   0  0  0  0  0  0  0  0  0  0  0  0
  132.4180  120.2500   60.7080 C   0  0  0  0  0  0  0  0  0  0  0  0
  131.3040  119.4600   61.0820 C   0  0  0  0  0  0  0  0  0  0  0  0
  131.3310  117.9190   61.0590 C   0  0  0  0  0  0  0  0  0  0  0  0
  130.1770  117.3750   61.4510 F   0  0  0  0  0  0  0  0  0  0  0  0
  131.5780  117.4880   59.8200 F   0  0  0  0  0  0  0  0  0  0  0  0
  132.2840  117.4650   61.8740 F   0  0  0  0  0  0  0  0  0  0  0  0
  130.1280  120.1090   61.4860 C   0  0  0  0  0  0  0  0  0  0  0  0
  130.0640  121.5060   61.5120 C   0  0  0  0  0  0  0  0  0  0  0  0
  128.8280  122.2510   61.9210 C   0  0  0  0  0  0  0  0  0  0  0  0
  127.8840  122.6550   60.9640 C   0  0  0  0  0  0  0  0  0  0  0  0
  126.7350  123.3450   61.3360 C   0  0  0  0  0  0  0  0  0  0  0  0
  126.5120  123.6430   62.6770 C   0  0  0  0  0  0  0  0  0  0  0  0
  127.4310  123.2520   63.6460 C   0  0  0  0  0  0  0  0  0  0  0  0
  128.5790  122.5610   63.2690 C   0  0  0  0  0  0  0  0  0  0  0  0
  131.1330  122.2590   61.1470 N   0  0  0  0  0  0  0  0  0  0  0  0
  132.2850  121.6550   60.7730 C   0  0  0  0  0  0  0  0  0  0  0  0
  133.5810  122.7950   60.3410 S   0  0  0  0  0  0  0  0  0  0  0  0
  133.1630  124.3970   61.0920 C   0  0  0  0  0  0  0  0  0  0  0  0
  133.0430  124.3070   62.6150 C   0  0  0  0  0  0  0  0  0  0  0  0
  133.0760  123.2010   63.1540 O   0  0  0  0  0  0  0  0  0  0  0  0
  132.9060  125.4880   63.2550 N   0  0  0  0  0  0  0  0  0  0  0  0
  132.7860  125.7580   64.6310 C   0  0  0  0  0  0  0  0  0  0  0  0
  131.4840  125.9720   65.0950 C   0  0  0  0  0  0  0  0  0  0  0  0
  131.2540  126.2510   66.4390 C   0  0  0  0  0  0  0  0  0  0  0  0
  132.3270  126.3210   67.3230 C   0  0  0  0  0  0  0  0  0  0  0  0
  133.6290  126.1170   66.8740 C   0  0  0  0  0  0  0  0  0  0  0  0
  133.8640  125.8380   65.5300 C   0  0  0  0  0  0  0  0  0  0  0  0
  129.2509  119.5158   61.7841 H   0  0  0  0  0  0  0  0  0  0  0  0
  128.0556  122.4222   59.9027 H   0  0  0  0  0  0  0  0  0  0  0  0
  126.0053  123.6540   60.5731 H   0  0  0  0  0  0  0  0  0  0  0  0
  125.6047  124.1904   62.9724 H   0  0  0  0  0  0  0  0  0  0  0  0
  127.2510  123.4879   64.7052 H   0  0  0  0  0  0  0  0  0  0  0  0
  129.3026  122.2528   64.0381 H   0  0  0  0  0  0  0  0  0  0  0  0
  133.9508  125.1224   60.8409 H   0  0  0  0  0  0  0  0  0  0  0  0
  132.1872  124.7124   60.6941 H   0  0  0  0  0  0  0  0  0  0  0  0
  132.8420  126.3070   62.6680 H   0  0  0  0  0  0  0  0  0  0  0  0
  130.6377  125.9195   64.3943 H   0  0  0  0  0  0  0  0  0  0  0  0
  130.2285  126.4155   66.8012 H   0  0  0  0  0  0  0  0  0  0  0  0
  132.1446  126.5394   68.3856 H   0  0  0  0  0  0  0  0  0  0  0  0
  134.4707  126.1761   67.5797 H   0  0  0  0  0  0  0  0  0  0  0  0
  134.8921  125.6804   65.1721 H   0  0  0  0  0  0  0  0  0  0  0  0
  1  2  3  0
  2  3  1  0
  3  4  2  0
  4  5  1  0
  5  6  1  0
  5  7  1  0
  5  8  1  0
  4  9  1  0
  9 10  2  0
 10 11  1  0
 11 12  2  0
 12 13  1  0
 13 14  2  0
 14 15  1  0
 15 16  2  0
 10 17  1  0
 17 18  2  0
 18 19  1  0
 19 20  1  0
 20 21  1  0
 21 22  2  0
 21 23  1  0
 23 24  1  0
 24 25  2  0
 25 26  1  0
 26 27  2  0
 27 28  1  0
 28 29  2  0
 18  3  1  0
 29 24  1  0
 16 11  1  0
  9 30  1  0
 12 31  1  0
 13 32  1  0
 14 33  1  0
 15 34  1  0
 16 35  1  0
 20 36  1  0
 20 37  1  0
 23 38  1  0
 25 39  1  0
 26 40  1  0
 27 41  1  0
 28 42  1  0
 29 43  1  0
M  END
>  <Binding energies>  (1) 
[-7.77]

>  <Ligand effiencies>  (1) 
[-0.259]

>  <Interactions>  (1) 
["V-B:GLU:543:CD:9879, H-A:GLY:454:N:4049, V-A:HIS:456:CE1:4069, V-A:TYR:484:CZ:4346, V-B:PRO:540:CA:9854, V-A:ARG:545:CZ:4925, V-B:PRO:540:CB:9856, H-A:ASP:366:OD1:3213, V-A:GLY:453:CA:4043, V-B:ALA:541:CB:9863, V-A:ASP:366:CG:3212, V-A:ARG:545:CD:4922, V-A:ARG:545:CG:4921, V-B:PRO:540:C:9852, V-B:TYR:539:CE2:9847, V-B:TYR:539:CD2:9845, V-A:PRO:482:CG:4326, V-A:PRO:482:CB:4325, V-B:ALA:541:C:9859, V-B:GLU:543:CG:9878, V-B:ALA:541:CA:9861, V-B:TYR:539:CB:9842, V-A:SER:385:CB:3408, V-A:ILE:369:CG2:3236, V-A:SER:385:CA:3406, V-A:LEU:475:CD2:4258, H-A:ASP:366:OD2:3214, V-B:TYR:539:C:9838, V-A:ILE:369:CD1:3238, V-A:HIS:383:CE1:3393, V-A:THR:477:CG2:4272, H-A:SER:385:N:3407"]

$$$$
3af_Grossjean_2025
     RDKit          3D

 42 44  0  0  0  0  0  0  0  0999 V2000
  125.2450  128.2160   69.2540 N   0  0  0  0  0  0  0  0  0  0  0  0
  126.3030  127.9680   68.8560 C   0  0  0  0  0  0  0  0  0  0  0  0
  127.6420  127.6550   68.3510 C   0  0  0  0  0  0  0  0  0  0  0  0
  128.1190  128.2440   67.1550 C   0  0  0  0  0  0  0  0  0  0  0  0
  127.2990  129.2690   66.3470 C   0  0  0  0  0  0  0  0  0  0  0  0
  125.9910  129.0010   66.3450 F   0  0  0  0  0  0  0  0  0  0  0  0
  127.4590  130.4880   66.8640 F   0  0  0  0  0  0  0  0  0  0  0  0
  127.7040  129.2800   65.0760 F   0  0  0  0  0  0  0  0  0  0  0  0
  129.3870  127.8710   66.6820 C   0  0  0  0  0  0  0  0  0  0  0  0
  130.1560  126.9360   67.3840 C   0  0  0  0  0  0  0  0  0  0  0  0
  131.5080  126.4890   66.9150 C   0  0  0  0  0  0  0  0  0  0  0  0
  132.6300  126.5950   67.7530 C   0  0  0  0  0  0  0  0  0  0  0  0
  133.8870  126.1790   67.3230 C   0  0  0  0  0  0  0  0  0  0  0  0
  134.0400  125.6480   66.0470 C   0  0  0  0  0  0  0  0  0  0  0  0
  132.9440  125.5290   65.1980 C   0  0  0  0  0  0  0  0  0  0  0  0
  131.6880  125.9460   65.6320 C   0  0  0  0  0  0  0  0  0  0  0  0
  129.6940  126.3720   68.5280 N   0  0  0  0  0  0  0  0  0  0  0  0
  128.4820  126.7330   69.0160 C   0  0  0  0  0  0  0  0  0  0  0  0
  128.0550  125.8990   70.5310 S   0  0  0  0  0  0  0  0  0  0  0  0
  129.1980  126.4650   71.8270 C   0  0  0  0  0  0  0  0  0  0  0  0
  129.3460  125.4340   72.9450 C   0  0  0  0  0  0  0  0  0  0  0  0
  129.3830  125.8190   74.1140 O   0  0  0  0  0  0  0  0  0  0  0  0
  129.4350  124.1490   72.5390 N   0  0  0  0  0  0  0  0  0  0  0  0
  129.5850  122.9740   73.3020 C   0  0  0  0  0  0  0  0  0  0  0  0
  128.5430  122.1210   73.7090 C   0  0  0  0  0  0  0  0  0  0  0  0
  128.8360  120.9860   74.4680 C   0  0  0  0  0  0  0  0  0  0  0  0
  130.1670  120.7310   74.8020 C   0  0  0  0  0  0  0  0  0  0  0  0
  131.1890  121.5360   74.4220 N   0  0  0  0  0  0  0  0  0  0  0  0
  130.8880  122.6350   73.6850 C   0  0  0  0  0  0  0  0  0  0  0  0
  129.7780  128.3158   65.7551 H   0  0  0  0  0  0  0  0  0  0  0  0
  132.5139  127.0128   68.7639 H   0  0  0  0  0  0  0  0  0  0  0  0
  134.7565  126.2701   67.9906 H   0  0  0  0  0  0  0  0  0  0  0  0
  135.0333  125.3201   65.7067 H   0  0  0  0  0  0  0  0  0  0  0  0
  133.0689  125.1079   64.1895 H   0  0  0  0  0  0  0  0  0  0  0  0
  130.8231  125.8486   64.9593 H   0  0  0  0  0  0  0  0  0  0  0  0
  130.1852  126.6456   71.3766 H   0  0  0  0  0  0  0  0  0  0  0  0
  128.7878  127.3869   72.2650 H   0  0  0  0  0  0  0  0  0  0  0  0
  129.3820  123.9920   71.5440 H   0  0  0  0  0  0  0  0  0  0  0  0
  127.5030  122.3468   73.4309 H   0  0  0  0  0  0  0  0  0  0  0  0
  128.0348  120.3073   74.7957 H   0  0  0  0  0  0  0  0  0  0  0  0
  130.3967  119.8369   75.4002 H   0  0  0  0  0  0  0  0  0  0  0  0
  131.7112  123.2941   73.3721 H   0  0  0  0  0  0  0  0  0  0  0  0
  1  2  3  0
  2  3  1  0
  3  4  2  0
  4  5  1  0
  5  6  1  0
  5  7  1  0
  5  8  1  0
  4  9  1  0
  9 10  2  0
 10 11  1  0
 11 12  2  0
 12 13  1  0
 13 14  2  0
 14 15  1  0
 15 16  2  0
 10 17  1  0
 17 18  2  0
 18 19  1  0
 19 20  1  0
 20 21  1  0
 21 22  2  0
 21 23  1  0
 23 24  1  0
 24 25  2  0
 25 26  1  0
 26 27  2  0
 27 28  1  0
 28 29  2  0
 18  3  1  0
 29 24  1  0
 16 11  1  0
  9 30  1  0
 12 31  1  0
 13 32  1  0
 14 33  1  0
 15 34  1  0
 16 35  1  0
 20 36  1  0
 20 37  1  0
 23 38  1  0
 25 39  1  0
 26 40  1  0
 27 41  1  0
 29 42  1  0
M  END
>  <Binding energies>  (1) 
[-7.5]

>  <Ligand effiencies>  (1) 
[-0.25]

>  <Interactions>  (1) 
["V-B:ARG:545:CG:9893, V-B:GLU:543:CB:9877, V-A:GLU:543:CG:4906, V-B:GLU:543:CD:9879, V-B:HIS:456:CE1:9040, V-A:HIS:456:CE1:4069, V-A:GLU:543:CD:4907, V-A:GLY:454:CA:4048, V-B:TYR:484:CZ:9317, V-B:TYR:484:CE2:9316, V-A:ARG:545:CZ:4925, V-A:GLY:453:CA:4043, V-A:ARG:545:CD:4922, V-A:ARG:545:CG:4921, V-B:GLU:543:C:9873, V-A:GLY:453:C:4041, H-B:HIS:456:ND1:9037, H-A:HIS:456:NE2:4070, H-B:GLU:543:O:9874, H-B:LYS:547:NZ:9922, V-A:HIS:456:CG:4065, V-A:HIS:456:CD2:4067, V-A:ARG:545:CB:4920, V-A:TYR:484:CG:4341, V-A:TYR:484:CB:4340, V-A:TYR:484:CD2:4343"]

$$$$
3ag_Grossjean_2025
     RDKit          3D

 46 48  0  0  0  0  0  0  0  0999 V2000
  132.8540  124.3710   63.9760 N   0  0  0  0  0  0  0  0  0  0  0  0
  131.7420  124.2820   63.6660 C   0  0  0  0  0  0  0  0  0  0  0  0
  130.3340  124.1670   63.2760 C   0  0  0  0  0  0  0  0  0  0  0  0
  129.4450  123.3440   64.0100 C   0  0  0  0  0  0  0  0  0  0  0  0
  129.8740  122.5780   65.2770 C   0  0  0  0  0  0  0  0  0  0  0  0
  128.9340  121.7400   65.7180 F   0  0  0  0  0  0  0  0  0  0  0  0
  130.9670  121.8590   65.0230 F   0  0  0  0  0  0  0  0  0  0  0  0
  130.1390  123.4350   66.2640 F   0  0  0  0  0  0  0  0  0  0  0  0
  128.1190  123.2250   63.5650 C   0  0  0  0  0  0  0  0  0  0  0  0
  127.6970  123.8970   62.4130 C   0  0  0  0  0  0  0  0  0  0  0  0
  126.2950  123.8040   61.8920 C   0  0  0  0  0  0  0  0  0  0  0  0
  125.2380  123.4390   62.7400 C   0  0  0  0  0  0  0  0  0  0  0  0
  123.9330  123.3500   62.2630 C   0  0  0  0  0  0  0  0  0  0  0  0
  123.6670  123.6260   60.9250 C   0  0  0  0  0  0  0  0  0  0  0  0
  124.6980  123.9870   60.0630 C   0  0  0  0  0  0  0  0  0  0  0  0
  126.0010  124.0740   60.5440 C   0  0  0  0  0  0  0  0  0  0  0  0
  128.5500  124.6950   61.7190 N   0  0  0  0  0  0  0  0  0  0  0  0
  129.8290  124.8400   62.1420 C   0  0  0  0  0  0  0  0  0  0  0  0
  130.7980  125.9220   61.1140 S   0  0  0  0  0  0  0  0  0  0  0  0
  131.0450  125.0790   59.5220 C   0  0  0  0  0  0  0  0  0  0  0  0
  132.1670  124.0410   59.5860 C   0  0  0  0  0  0  0  0  0  0  0  0
  133.0870  124.0790   58.7670 O   0  0  0  0  0  0  0  0  0  0  0  0
  132.0790  123.1270   60.5680 N   0  0  0  0  0  0  0  0  0  0  0  0
  133.0550  122.0700   60.8330 C   0  0  0  0  0  0  0  0  0  0  0  0
  132.4510  120.6730   60.9250 C   0  0  0  0  0  0  0  0  0  0  0  0
  131.1570  120.5090   61.4250 C   0  0  0  0  0  0  0  0  0  0  0  0
  130.5900  119.2380   61.4830 C   0  0  0  0  0  0  0  0  0  0  0  0
  131.3160  118.1380   61.0310 C   0  0  0  0  0  0  0  0  0  0  0  0
  132.6010  118.2970   60.5170 C   0  0  0  0  0  0  0  0  0  0  0  0
  133.1680  119.5670   60.4590 C   0  0  0  0  0  0  0  0  0  0  0  0
  127.4080  122.6000   64.1252 H   0  0  0  0  0  0  0  0  0  0  0  0
  125.4438  123.2198   63.7981 H   0  0  0  0  0  0  0  0  0  0  0  0
  123.1156  123.0628   62.9408 H   0  0  0  0  0  0  0  0  0  0  0  0
  122.6362  123.5584   60.5469 H   0  0  0  0  0  0  0  0  0  0  0  0
  124.4840  124.2027   59.0058 H   0  0  0  0  0  0  0  0  0  0  0  0
  126.8133  124.3584   59.8590 H   0  0  0  0  0  0  0  0  0  0  0  0
  130.1098  124.5730   59.2402 H   0  0  0  0  0  0  0  0  0  0  0  0
  131.3291  125.8381   58.7783 H   0  0  0  0  0  0  0  0  0  0  0  0
  131.2950  123.1750   61.2020 H   0  0  0  0  0  0  0  0  0  0  0  0
  133.7964  122.0729   60.0204 H   0  0  0  0  0  0  0  0  0  0  0  0
  133.4998  122.2883   61.8151 H   0  0  0  0  0  0  0  0  0  0  0  0
  130.5863  121.3828   61.7726 H   0  0  0  0  0  0  0  0  0  0  0  0
  129.5744  119.1034   61.8835 H   0  0  0  0  0  0  0  0  0  0  0  0
  130.8699  117.1337   61.0805 H   0  0  0  0  0  0  0  0  0  0  0  0
  133.1649  117.4231   60.1587 H   0  0  0  0  0  0  0  0  0  0  0  0
  134.1792  119.7002   60.0469 H   0  0  0  0  0  0  0  0  0  0  0  0
  1  2  3  0
  2  3  1  0
  3  4  2  0
  4  5  1  0
  5  6  1  0
  5  7  1  0
  5  8  1  0
  4  9  1  0
  9 10  2  0
 10 11  1  0
 11 12  2  0
 12 13  1  0
 13 14  2  0
 14 15  1  0
 15 16  2  0
 10 17  1  0
 17 18  2  0
 18 19  1  0
 19 20  1  0
 20 21  1  0
 21 22  2  0
 21 23  1  0
 23 24  1  0
 24 25  1  0
 25 26  2  0
 26 27  1  0
 27 28  2  0
 28 29  1  0
 29 30  2  0
 18  3  1  0
 30 25  1  0
 16 11  1  0
  9 31  1  0
 12 32  1  0
 13 33  1  0
 14 34  1  0
 15 35  1  0
 16 36  1  0
 20 37  1  0
 20 38  1  0
 23 39  1  0
 24 40  1  0
 24 41  1  0
 26 42  1  0
 27 43  1  0
 28 44  1  0
 29 45  1  0
 30 46  1  0
M  END
>  <Binding energies>  (1) 
[-7.73]

>  <Ligand effiencies>  (1) 
[-0.24935483870967742]

>  <Interactions>  (1) 
["V-B:GLU:543:CD:9879, H-A:GLY:454:N:4049, V-B:ASP:366:CG:8183, V-A:TYR:484:CZ:4346, V-B:PRO:540:CA:9854, V-B:PRO:540:CB:9856, V-B:ALA:541:CB:9863, V-B:TYR:539:CE2:9847, V-B:TYR:539:CZ:9848, V-B:TYR:539:CD2:9845, H-A:TYR:484:OH:4347, V-B:ASN:362:CB:8146, V-B:ALA:541:C:9859, V-B:GLU:543:CG:9878, V-B:ALA:541:CA:9861, V-A:SER:385:CB:3408, V-A:ILE:369:CG2:3236, V-A:SER:385:CA:3406, V-A:TYR:484:CE2:4345, V-A:LEU:475:CD2:4258, V-A:ILE:369:CD1:3238, V-A:LEU:475:CD1:4257, H-B:TYR:539:OH:9849, V-A:LEU:475:CG:4256, V-B:LEU:363:CA:8155, V-B:ASN:362:C:8142"]

$$$$
3ai_Grossjean_2025
     RDKit          3D

 39 41  0  0  0  0  0  0  0  0999 V2000
  133.8000  124.6240   63.5040 N   0  0  0  0  0  0  0  0  0  0  0  0
  132.8710  124.3890   62.8560 C   0  0  0  0  0  0  0  0  0  0  0  0
  131.6930  124.0880   62.0370 C   0  0  0  0  0  0  0  0  0  0  0  0
  131.5390  122.8190   61.4270 C   0  0  0  0  0  0  0  0  0  0  0  0
  132.5560  121.6770   61.6170 C   0  0  0  0  0  0  0  0  0  0  0  0
  132.8400  121.4450   62.9000 F   0  0  0  0  0  0  0  0  0  0  0  0
  132.0710  120.5460   61.1010 F   0  0  0  0  0  0  0  0  0  0  0  0
  133.7020  121.9760   61.0040 F   0  0  0  0  0  0  0  0  0  0  0  0
  130.4180  122.5970   60.6130 C   0  0  0  0  0  0  0  0  0  0  0  0
  129.4780  123.6130   60.4110 C   0  0  0  0  0  0  0  0  0  0  0  0
  128.2680  123.4350   59.5440 C   0  0  0  0  0  0  0  0  0  0  0  0
  128.3830  122.8790   58.2600 C   0  0  0  0  0  0  0  0  0  0  0  0
  127.2630  122.7060   57.4510 C   0  0  0  0  0  0  0  0  0  0  0  0
  126.0100  123.0880   57.9170 C   0  0  0  0  0  0  0  0  0  0  0  0
  125.8690  123.6390   59.1860 C   0  0  0  0  0  0  0  0  0  0  0  0
  126.9900  123.8100   59.9930 C   0  0  0  0  0  0  0  0  0  0  0  0
  129.6330  124.8310   60.9910 N   0  0  0  0  0  0  0  0  0  0  0  0
  130.6950  125.0620   61.8010 C   0  0  0  0  0  0  0  0  0  0  0  0
  130.7190  126.7040   62.4880 S   0  0  0  0  0  0  0  0  0  0  0  0
  130.0290  126.6160   64.1750 C   0  0  0  0  0  0  0  0  0  0  0  0
  130.9460  125.9580   65.2170 C   0  0  0  0  0  0  0  0  0  0  0  0
  130.5870  124.9450   65.8230 O   0  0  0  0  0  0  0  0  0  0  0  0
  132.1340  126.5790   65.3950 N   0  0  0  0  0  0  0  0  0  0  0  0
  133.1560  126.2080   66.2590 C   0  0  0  0  0  0  0  0  0  0  0  0
  133.0350  126.2570   67.6480 C   0  0  0  0  0  0  0  0  0  0  0  0
  134.2460  125.8190   68.1290 C   0  0  0  0  0  0  0  0  0  0  0  0
  135.0560  125.5200   67.0850 O   0  0  0  0  0  0  0  0  0  0  0  0
  134.3530  125.7700   65.9050 N   0  0  0  0  0  0  0  0  0  0  0  0
  130.2775  121.6183   60.1309 H   0  0  0  0  0  0  0  0  0  0  0  0
  129.3725  122.5755   57.8876 H   0  0  0  0  0  0  0  0  0  0  0  0
  127.3691  122.2688   56.4472 H   0  0  0  0  0  0  0  0  0  0  0  0
  125.1248  122.9536   57.2780 H   0  0  0  0  0  0  0  0  0  0  0  0
  124.8753  123.9385   59.5506 H   0  0  0  0  0  0  0  0  0  0  0  0
  126.8741  124.2449   60.9967 H   0  0  0  0  0  0  0  0  0  0  0  0
  129.8129  127.6414   64.5094 H   0  0  0  0  0  0  0  0  0  0  0  0
  129.1333  125.9809   64.1085 H   0  0  0  0  0  0  0  0  0  0  0  0
  132.3130  127.4030   64.8400 H   0  0  0  0  0  0  0  0  0  0  0  0
  132.1596  126.5770   68.2322 H   0  0  0  0  0  0  0  0  0  0  0  0
  134.5145  125.7261   69.1917 H   0  0  0  0  0  0  0  0  0  0  0  0
  1  2  3  0
  2  3  1  0
  3  4  2  0
  4  5  1  0
  5  6  1  0
  5  7  1  0
  5  8  1  0
  4  9  1  0
  9 10  2  0
 10 11  1  0
 11 12  2  0
 12 13  1  0
 13 14  2  0
 14 15  1  0
 15 16  2  0
 10 17  1  0
 17 18  2  0
 18 19  1  0
 19 20  1  0
 20 21  1  0
 21 22  2  0
 21 23  1  0
 23 24  1  0
 24 25  1  0
 25 26  2  0
 26 27  1  0
 27 28  1  0
 18  3  1  0
 28 24  2  0
 16 11  1  0
  9 29  1  0
 12 30  1  0
 13 31  1  0
 14 32  1  0
 15 33  1  0
 16 34  1  0
 20 35  1  0
 20 36  1  0
 23 37  1  0
 25 38  1  0
 26 39  1  0
M  END
>  <Binding energies>  (1) 
[-7.74]

>  <Ligand effiencies>  (1) 
[-0.26689655172413795]

>  <Interactions>  (1) 
["H-A:GLY:454:N:4049, V-A:HIS:456:CE1:4069, H-A:ARG:545:NH1:4926, V-A:GLU:543:CD:4907, V-A:TYR:484:CZ:4346, V-B:PRO:540:CA:9854, V-A:ARG:545:CZ:4925, V-B:PRO:540:CB:9856, V-A:ARG:545:CD:4922, V-A:ARG:545:CG:4921, V-B:TYR:539:CE2:9847, V-B:TYR:539:CZ:9848, V-B:TYR:539:CD2:9845, H-A:ARG:545:NE:4923, V-B:MET:535:CE:9806, H-A:TYR:484:OH:4347, H-A:GLU:543:OE2:4909, V-B:TYR:539:CG:9843, V-A:ILE:369:CG2:3236, V-A:LEU:475:CD2:4258, H-A:ILE:455:N:4054, V-B:TYR:539:C:9838, V-B:PRO:540:N:9855, V-A:ILE:369:CD1:3238, H-A:GLU:543:OE1:4908, V-A:ILE:455:C:4051, V-A:HIS:456:CG:4065, V-A:HIS:456:CD2:4067, V-A:ARG:545:CB:4920, V-B:PRO:540:CD:9858"]

$$$$
3aj_Grossjean_2025
     RDKit          3D

 39 41  0  0  0  0  0  0  0  0999 V2000
  125.1960  128.4050   69.1980 N   0  0  0  0  0  0  0  0  0  0  0  0
  126.2490  128.1300   68.8070 C   0  0  0  0  0  0  0  0  0  0  0  0
  127.5840  127.7830   68.3100 C   0  0  0  0  0  0  0  0  0  0  0  0
  128.0940  128.3760   67.1300 C   0  0  0  0  0  0  0  0  0  0  0  0
  127.3150  129.4380   66.3290 C   0  0  0  0  0  0  0  0  0  0  0  0
  126.0010  129.1980   66.2940 F   0  0  0  0  0  0  0  0  0  0  0  0
  127.4900  130.6410   66.8750 F   0  0  0  0  0  0  0  0  0  0  0  0
  127.7480  129.4680   65.0680 F   0  0  0  0  0  0  0  0  0  0  0  0
  129.3580  127.9750   66.6700 C   0  0  0  0  0  0  0  0  0  0  0  0
  130.0890  127.0060   67.3650 C   0  0  0  0  0  0  0  0  0  0  0  0
  131.4370  126.5340   66.9120 C   0  0  0  0  0  0  0  0  0  0  0  0
  132.5510  126.6320   67.7600 C   0  0  0  0  0  0  0  0  0  0  0  0
  133.8070  126.1920   67.3470 C   0  0  0  0  0  0  0  0  0  0  0  0
  133.9640  125.6470   66.0760 C   0  0  0  0  0  0  0  0  0  0  0  0
  132.8740  125.5390   65.2180 C   0  0  0  0  0  0  0  0  0  0  0  0
  131.6220  125.9780   65.6350 C   0  0  0  0  0  0  0  0  0  0  0  0
  129.5920  126.4340   68.4920 N   0  0  0  0  0  0  0  0  0  0  0  0
  128.3860  126.8220   68.9690 C   0  0  0  0  0  0  0  0  0  0  0  0
  127.9100  125.9820   70.4640 S   0  0  0  0  0  0  0  0  0  0  0  0
  129.0550  126.5040   71.7870 C   0  0  0  0  0  0  0  0  0  0  0  0
  129.2560  125.4790   72.9130 C   0  0  0  0  0  0  0  0  0  0  0  0
  129.2730  125.8350   74.0940 O   0  0  0  0  0  0  0  0  0  0  0  0
  129.4030  124.2030   72.4950 N   0  0  0  0  0  0  0  0  0  0  0  0
  129.5920  123.0840   73.2960 C   0  0  0  0  0  0  0  0  0  0  0  0
  128.6840  122.2280   73.7140 N   0  0  0  0  0  0  0  0  0  0  0  0
  129.2180  121.2790   74.4580 C   0  0  0  0  0  0  0  0  0  0  0  0
  130.5940  121.3560   74.6590 C   0  0  0  0  0  0  0  0  0  0  0  0
  131.2100  122.7500   73.8250 S   0  0  0  0  0  0  0  0  0  0  0  0
  129.7761  128.4254   65.7577 H   0  0  0  0  0  0  0  0  0  0  0  0
  132.4309  127.0624   68.7652 H   0  0  0  0  0  0  0  0  0  0  0  0
  134.6709  126.2751   68.0228 H   0  0  0  0  0  0  0  0  0  0  0  0
  134.9549  125.2999   65.7481 H   0  0  0  0  0  0  0  0  0  0  0  0
  133.0020  125.1082   64.2140 H   0  0  0  0  0  0  0  0  0  0  0  0
  130.7627  125.8885   64.9541 H   0  0  0  0  0  0  0  0  0  0  0  0
  130.0351  126.7057   71.3302 H   0  0  0  0  0  0  0  0  0  0  0  0
  128.6008  127.3898   72.2550 H   0  0  0  0  0  0  0  0  0  0  0  0
  129.3660  124.0300   71.5010 H   0  0  0  0  0  0  0  0  0  0  0  0
  128.6110  120.4724   74.8950 H   0  0  0  0  0  0  0  0  0  0  0  0
  131.1938  120.6485   75.2503 H   0  0  0  0  0  0  0  0  0  0  0  0
  1  2  3  0
  2  3  1  0
  3  4  2  0
  4  5  1  0
  5  6  1  0
  5  7  1  0
  5  8  1  0
  4  9  1  0
  9 10  2  0
 10 11  1  0
 11 12  2  0
 12 13  1  0
 13 14  2  0
 14 15  1  0
 15 16  2  0
 10 17  1  0
 17 18  2  0
 18 19  1  0
 19 20  1  0
 20 21  1  0
 21 22  2  0
 21 23  1  0
 23 24  1  0
 24 25  2  0
 25 26  1  0
 26 27  2  0
 27 28  1  0
 18  3  1  0
 28 24  1  0
 16 11  1  0
  9 29  1  0
 12 30  1  0
 13 31  1  0
 14 32  1  0
 15 33  1  0
 16 34  1  0
 20 35  1  0
 20 36  1  0
 23 37  1  0
 26 38  1  0
 27 39  1  0
M  END
>  <Binding energies>  (1) 
[-7.36]

>  <Ligand effiencies>  (1) 
[-0.2537931034482759]

>  <Interactions>  (1) 
["V-B:ARG:545:CG:9893, V-B:GLU:543:CB:9877, V-A:GLU:543:CG:4906, V-B:GLU:543:CD:9879, V-B:HIS:456:CE1:9040, V-A:HIS:456:CE1:4069, V-A:GLU:543:CD:4907, V-A:GLY:454:CA:4048, H-B:TYR:484:OH:9318, V-B:TYR:484:CZ:9317, V-B:TYR:484:CE2:9316, V-A:ARG:545:CZ:4925, V-A:GLY:453:CA:4043, V-A:ARG:545:CD:4922, V-A:ARG:545:CG:4921, V-B:GLU:543:C:9873, V-A:GLY:453:C:4041, H-B:HIS:456:ND1:9037, H-A:HIS:456:NE2:4070, H-B:GLU:543:O:9874, H-B:LYS:547:NZ:9922, V-A:HIS:456:CG:4065, V-A:HIS:456:CD2:4067, V-A:TYR:484:CG:4341, V-A:TYR:484:CB:4340, V-A:ASP:473:CG:4239, V-A:HIS:456:CB:4064, V-A:TYR:484:CD2:4343"]

$$$$
3ak_Grossjean_2025
     RDKit          3D

 57 58  0  0  0  0  0  0  0  0999 V2000
  134.2680  125.7470   67.5600 C   0  0  0  0  0  0  0  0  0  0  0  0
  134.1940  125.5240   66.1610 O   0  0  0  0  0  0  0  0  0  0  0  0
  132.9240  125.8360   65.6060 C   0  0  0  0  0  0  0  0  0  0  0  0
  132.8960  125.3910   64.1390 C   0  0  0  0  0  0  0  0  0  0  0  0
  134.2290  125.1360   63.7070 O   0  0  0  0  0  0  0  0  0  0  0  0
  134.3920  124.0110   62.8470 C   0  0  0  0  0  0  0  0  0  0  0  0
  133.1700  123.0750   62.8120 C   0  0  0  0  0  0  0  0  0  0  0  0
  132.5920  123.1110   61.5150 O   0  0  0  0  0  0  0  0  0  0  0  0
  133.4980  123.4940   60.4900 C   0  0  0  0  0  0  0  0  0  0  0  0
  132.7250  123.9620   59.2440 C   0  0  0  0  0  0  0  0  0  0  0  0
  131.2970  124.1790   59.4880 N   0  0  0  0  0  0  0  0  0  0  0  0
  130.5130  125.0680   58.8490 C   0  0  0  0  0  0  0  0  0  0  0  0
  130.9290  125.8000   57.9500 O   0  0  0  0  0  0  0  0  0  0  0  0
  129.0330  125.1750   59.2540 C   0  0  0  0  0  0  0  0  0  0  0  0
  128.1650  123.6020   59.6060 S   0  0  0  0  0  0  0  0  0  0  0  0
  129.0110  122.7660   60.9380 C   0  0  0  0  0  0  0  0  0  0  0  0
  129.7620  121.6970   60.5770 N   0  0  0  0  0  0  0  0  0  0  0  0
  130.4390  120.9920   61.5190 C   0  0  0  0  0  0  0  0  0  0  0  0
  131.2440  119.8260   61.0310 C   0  0  0  0  0  0  0  0  0  0  0  0
  130.7040  118.5310   61.0290 C   0  0  0  0  0  0  0  0  0  0  0  0
  131.4470  117.4440   60.5730 C   0  0  0  0  0  0  0  0  0  0  0  0
  132.7430  117.6400   60.1090 C   0  0  0  0  0  0  0  0  0  0  0  0
  133.3010  118.9130   60.0970 C   0  0  0  0  0  0  0  0  0  0  0  0
  132.5560  119.9980   60.5530 C   0  0  0  0  0  0  0  0  0  0  0  0
  130.3860  121.3650   62.8670 C   0  0  0  0  0  0  0  0  0  0  0  0
  129.6180  122.4670   63.2680 C   0  0  0  0  0  0  0  0  0  0  0  0
  129.5840  122.8450   64.7620 C   0  0  0  0  0  0  0  0  0  0  0  0
  128.3890  122.5570   65.2780 F   0  0  0  0  0  0  0  0  0  0  0  0
  130.5180  122.1650   65.4270 F   0  0  0  0  0  0  0  0  0  0  0  0
  129.8090  124.1440   64.9730 F   0  0  0  0  0  0  0  0  0  0  0  0
  128.9080  123.1920   62.2810 C   0  0  0  0  0  0  0  0  0  0  0  0
  128.0880  124.3530   62.6420 C   0  0  0  0  0  0  0  0  0  0  0  0
  127.4400  125.2700   62.9270 N   0  0  0  0  0  0  0  0  0  0  0  0
  133.9650  124.8339   68.0934 H   0  0  0  0  0  0  0  0  0  0  0  0
  135.3006  126.0071   67.8357 H   0  0  0  0  0  0  0  0  0  0  0  0
  133.5958  126.5729   67.8357 H   0  0  0  0  0  0  0  0  0  0  0  0
  132.1375  125.3090   66.1661 H   0  0  0  0  0  0  0  0  0  0  0  0
  132.7479  126.9200   65.6684 H   0  0  0  0  0  0  0  0  0  0  0  0
  132.2953  124.4745   64.0429 H   0  0  0  0  0  0  0  0  0  0  0  0
  132.4489  126.1819   63.5189 H   0  0  0  0  0  0  0  0  0  0  0  0
  134.5773  124.3781   61.8267 H   0  0  0  0  0  0  0  0  0  0  0  0
  135.2344  123.4243   63.2422 H   0  0  0  0  0  0  0  0  0  0  0  0
  133.4864  122.0477   63.0455 H   0  0  0  0  0  0  0  0  0  0  0  0
  132.4300  123.4049   63.5560 H   0  0  0  0  0  0  0  0  0  0  0  0
  134.1320  124.3159   60.8541 H   0  0  0  0  0  0  0  0  0  0  0  0
  134.1218  122.6288   60.2211 H   0  0  0  0  0  0  0  0  0  0  0  0
  133.1661  124.9076   58.8958 H   0  0  0  0  0  0  0  0  0  0  0  0
  132.8065  123.1616   58.4939 H   0  0  0  0  0  0  0  0  0  0  0  0
  130.8760  123.6000   60.2000 H   0  0  0  0  0  0  0  0  0  0  0  0
  128.9788  125.7963   60.1601 H   0  0  0  0  0  0  0  0  0  0  0  0
  128.5218  125.5990   58.3771 H   0  0  0  0  0  0  0  0  0  0  0  0
  129.6783  118.3714   61.3930 H   0  0  0  0  0  0  0  0  0  0  0  0
  131.0099  116.4346   60.5801 H   0  0  0  0  0  0  0  0  0  0  0  0
  133.3303  116.7823   59.7492 H   0  0  0  0  0  0  0  0  0  0  0  0
  134.3267  119.0630   59.7289 H   0  0  0  0  0  0  0  0  0  0  0  0
  133.0001  121.0043   60.5392 H   0  0  0  0  0  0  0  0  0  0  0  0
  130.9503  120.7901   63.6161 H   0  0  0  0  0  0  0  0  0  0  0  0
  1  2  1  0
  2  3  1  0
  3  4  1  0
  4  5  1  0
  5  6  1  0
  6  7  1  0
  7  8  1  0
  8  9  1  0
  9 10  1  0
 10 11  1  0
 11 12  1  0
 12 13  2  0
 12 14  1  0
 14 15  1  0
 15 16  1  0
 16 17  2  0
 17 18  1  0
 18 19  1  0
 19 20  2  0
 20 21  1  0
 21 22  2  0
 22 23  1  0
 23 24  2  0
 18 25  2  0
 25 26  1  0
 26 27  1  0
 27 28  1  0
 27 29  1  0
 27 30  1  0
 26 31  2  0
 31 32  1  0
 32 33  3  0
 31 16  1  0
 24 19  1  0
  1 34  1  0
  1 35  1  0
  1 36  1  0
  3 37  1  0
  3 38  1  0
  4 39  1  0
  4 40  1  0
  6 41  1  0
  6 42  1  0
  7 43  1  0
  7 44  1  0
  9 45  1  0
  9 46  1  0
 10 47  1  0
 10 48  1  0
 11 49  1  0
 14 50  1  0
 14 51  1  0
 20 52  1  0
 21 53  1  0
 22 54  1  0
 23 55  1  0
 24 56  1  0
 25 57  1  0
M  END
>  <Binding energies>  (1) 
[-6.24]

>  <Ligand effiencies>  (1) 
[-0.18352941176470589]

>  <Interactions>  (1) 
["V-B:GLU:543:CB:9877, V-B:GLU:543:CD:9879, H-A:GLY:454:N:4049, V-A:HIS:456:CE1:4069, H-A:ARG:545:NH1:4926, V-A:GLY:454:CA:4048, H-A:ARG:545:NH2:4927, V-A:TYR:484:CZ:4346, V-A:ARG:545:CZ:4925, V-A:GLY:453:CA:4043, V-B:ALA:541:CB:9863, V-A:ASP:366:CG:3212, V-A:ARG:545:CD:4922, V-A:ARG:545:CG:4921, V-B:TYR:539:CE2:9847, V-B:TYR:539:CZ:9848, V-B:TYR:539:CD2:9845, H-A:ARG:545:NE:4923, H-A:TYR:484:OH:4347, V-B:ALA:541:C:9859, V-B:GLU:543:CG:9878, V-B:ALA:541:CA:9861, V-A:SER:385:CB:3408, V-A:ILE:369:CG2:3236, V-A:SER:385:CA:3406, V-A:TYR:484:CE2:4345, V-A:LEU:475:CD2:4258, V-A:GLY:453:C:4041, V-A:ILE:369:CD1:3238, V-A:LEU:475:CD1:4257, V-A:ILE:369:CB:3235, V-A:HIS:383:CE1:3393, H-B:TYR:539:OH:9849, V-A:ILE:455:C:4051, V-A:LEU:475:CG:4256, V-A:VAL:384:C:3396"]

$$$$
3bc_Grossjean_2025
     RDKit          3D

 47 49  0  0  0  0  0  0  0  0999 V2000
  123.8880  129.6420   63.6100 C   0  0  0  0  0  0  0  0  0  0  0  0
  123.7920  130.2400   64.8980 O   0  0  0  0  0  0  0  0  0  0  0  0
  124.4970  129.6880   65.9510 C   0  0  0  0  0  0  0  0  0  0  0  0
  125.8370  129.3850   65.7100 C   0  0  0  0  0  0  0  0  0  0  0  0
  126.6290  128.8260   66.7090 C   0  0  0  0  0  0  0  0  0  0  0  0
  126.0850  128.5540   67.9660 C   0  0  0  0  0  0  0  0  0  0  0  0
  126.9650  128.0010   68.9160 N   0  0  0  0  0  0  0  0  0  0  0  0
  126.7210  127.0680   69.8610 C   0  0  0  0  0  0  0  0  0  0  0  0
  125.6400  126.4980   70.0220 O   0  0  0  0  0  0  0  0  0  0  0  0
  127.9300  126.7120   70.7370 C   0  0  0  0  0  0  0  0  0  0  0  0
  127.6250  126.7570   72.5360 S   0  0  0  0  0  0  0  0  0  0  0  0
  129.0670  126.1050   73.3480 C   0  0  0  0  0  0  0  0  0  0  0  0
  129.0120  124.7680   73.5680 N   0  0  0  0  0  0  0  0  0  0  0  0
  130.0490  124.1390   74.1790 C   0  0  0  0  0  0  0  0  0  0  0  0
  129.9010  122.6630   74.4030 C   0  0  0  0  0  0  0  0  0  0  0  0
  130.8860  121.9400   75.0910 C   0  0  0  0  0  0  0  0  0  0  0  0
  130.7550  120.5700   75.3040 C   0  0  0  0  0  0  0  0  0  0  0  0
  129.6320  119.9030   74.8260 C   0  0  0  0  0  0  0  0  0  0  0  0
  128.6410  120.5960   74.1380 C   0  0  0  0  0  0  0  0  0  0  0  0
  128.7770  121.9660   73.9280 C   0  0  0  0  0  0  0  0  0  0  0  0
  131.1810  124.8520   74.5890 C   0  0  0  0  0  0  0  0  0  0  0  0
  131.2630  126.2280   74.3500 C   0  0  0  0  0  0  0  0  0  0  0  0
  132.5250  126.9630   74.7990 C   0  0  0  0  0  0  0  0  0  0  0  0
  130.1920  126.8830   73.7050 C   0  0  0  0  0  0  0  0  0  0  0  0
  130.2780  128.3120   73.4000 C   0  0  0  0  0  0  0  0  0  0  0  0
  130.3480  129.4420   73.1610 N   0  0  0  0  0  0  0  0  0  0  0  0
  124.7420  128.8680   68.2210 C   0  0  0  0  0  0  0  0  0  0  0  0
  123.9540  129.4280   67.2180 C   0  0  0  0  0  0  0  0  0  0  0  0
  124.0615  128.5613   63.7195 H   0  0  0  0  0  0  0  0  0  0  0  0
  122.9516  129.8089   63.0575 H   0  0  0  0  0  0  0  0  0  0  0  0
  124.7251  130.0936   63.0575 H   0  0  0  0  0  0  0  0  0  0  0  0
  126.2722  129.5898   64.7207 H   0  0  0  0  0  0  0  0  0  0  0  0
  127.6861  128.5979   66.5077 H   0  0  0  0  0  0  0  0  0  0  0  0
  127.9210  128.3130   68.8300 H   0  0  0  0  0  0  0  0  0  0  0  0
  128.2547  125.6950   70.4721 H   0  0  0  0  0  0  0  0  0  0  0  0
  128.6899  127.4816   70.5365 H   0  0  0  0  0  0  0  0  0  0  0  0
  131.7767  122.4635   75.4686 H   0  0  0  0  0  0  0  0  0  0  0  0
  131.5359  120.0181   75.8477 H   0  0  0  0  0  0  0  0  0  0  0  0
  129.5267  118.8209   74.9930 H   0  0  0  0  0  0  0  0  0  0  0  0
  127.7545  120.0645   73.7618 H   0  0  0  0  0  0  0  0  0  0  0  0
  127.9927  122.5108   73.3820 H   0  0  0  0  0  0  0  0  0  0  0  0
  132.0052  124.3314   75.0985 H   0  0  0  0  0  0  0  0  0  0  0  0
  132.5645  126.9860   75.8981 H   0  0  0  0  0  0  0  0  0  0  0  0
  133.4116  126.4400   74.4111 H   0  0  0  0  0  0  0  0  0  0  0  0
  132.5075  127.9922   74.4111 H   0  0  0  0  0  0  0  0  0  0  0  0
  124.3107  128.6719   69.2137 H   0  0  0  0  0  0  0  0  0  0  0  0
  122.8998  129.6677   67.4207 H   0  0  0  0  0  0  0  0  0  0  0  0
  1  2  1  0
  2  3  1  0
  3  4  2  0
  4  5  1  0
  5  6  2  0
  6  7  1  0
  7  8  1  0
  8  9  2  0
  8 10  1  0
 10 11  1  0
 11 12  1  0
 12 13  2  0
 13 14  1  0
 14 15  1  0
 15 16  2  0
 16 17  1  0
 17 18  2  0
 18 19  1  0
 19 20  2  0
 14 21  2  0
 21 22  1  0
 22 23  1  0
 22 24  2  0
 24 25  1  0
 25 26  3  0
  6 27  1  0
 27 28  2  0
 28  3  1  0
 24 12  1  0
 20 15  1  0
  1 29  1  0
  1 30  1  0
  1 31  1  0
  4 32  1  0
  5 33  1  0
  7 34  1  0
 10 35  1  0
 10 36  1  0
 16 37  1  0
 17 38  1  0
 18 39  1  0
 19 40  1  0
 20 41  1  0
 21 42  1  0
 23 43  1  0
 23 44  1  0
 23 45  1  0
 27 46  1  0
 28 47  1  0
M  END
>  <Binding energies>  (1) 
[-8.03]

>  <Ligand effiencies>  (1) 
[-0.2768965517241379]

>  <Interactions>  (1) 
["V-B:ARG:545:CG:9893, V-B:GLU:543:CB:9877, V-B:GLU:543:CD:9879, V-B:HIS:456:CE1:9040, V-A:HIS:456:CE1:4069, V-B:ARG:545:CZ:9897, V-B:ARG:545:CD:9894, H-B:GLY:454:N:9020, H-B:ARG:545:N:9891, V-B:ARG:545:CB:9892, H-A:LYS:547:NZ:4950, H-B:LYS:547:NZ:9922, V-A:HIS:456:CG:4065, V-A:HIS:456:CD2:4067, V-A:ASP:473:CB:4238, V-A:TYR:484:C:4336, V-A:TYR:484:CB:4340, V-A:ASP:473:CG:4239, V-A:HIS:456:CB:4064"]

$$$$
3bd_Grossjean_2025
     RDKit          3D

 43 45  0  0  0  0  0  0  0  0999 V2000
  134.6390  124.3220   62.5230 C   0  0  0  0  0  0  0  0  0  0  0  0
  133.3670  123.4980   62.7110 C   0  0  0  0  0  0  0  0  0  0  0  0
  133.2580  122.2830   62.0240 C   0  0  0  0  0  0  0  0  0  0  0  0
  132.1060  121.5000   62.1660 C   0  0  0  0  0  0  0  0  0  0  0  0
  131.9270  120.1880   61.4630 C   0  0  0  0  0  0  0  0  0  0  0  0
  130.7490  119.4410   61.6260 C   0  0  0  0  0  0  0  0  0  0  0  0
  130.5770  118.2210   60.9780 C   0  0  0  0  0  0  0  0  0  0  0  0
  131.5840  117.7290   60.1530 C   0  0  0  0  0  0  0  0  0  0  0  0
  132.7620  118.4480   59.9770 C   0  0  0  0  0  0  0  0  0  0  0  0
  132.9300  119.6670   60.6270 C   0  0  0  0  0  0  0  0  0  0  0  0
  131.0920  121.8970   62.9780 N   0  0  0  0  0  0  0  0  0  0  0  0
  131.1800  123.0720   63.6510 C   0  0  0  0  0  0  0  0  0  0  0  0
  129.7760  123.4850   64.6740 S   0  0  0  0  0  0  0  0  0  0  0  0
  128.3580  122.4990   64.1080 C   0  0  0  0  0  0  0  0  0  0  0  0
  127.9250  122.8770   62.6910 C   0  0  0  0  0  0  0  0  0  0  0  0
  126.7600  123.2220   62.4930 O   0  0  0  0  0  0  0  0  0  0  0  0
  128.8830  122.7860   61.7430 N   0  0  0  0  0  0  0  0  0  0  0  0
  128.8020  123.0870   60.3700 C   0  0  0  0  0  0  0  0  0  0  0  0
  129.7070  124.0400   59.8960 C   0  0  0  0  0  0  0  0  0  0  0  0
  129.6970  124.4090   58.5530 C   0  0  0  0  0  0  0  0  0  0  0  0
  128.7730  123.8330   57.6860 C   0  0  0  0  0  0  0  0  0  0  0  0
  127.8560  122.8920   58.1500 C   0  0  0  0  0  0  0  0  0  0  0  0
  127.8650  122.5200   59.4910 C   0  0  0  0  0  0  0  0  0  0  0  0
  132.3080  123.9140   63.5470 C   0  0  0  0  0  0  0  0  0  0  0  0
  132.3920  125.1800   64.2810 C   0  0  0  0  0  0  0  0  0  0  0  0
  132.4610  126.1790   64.8610 N   0  0  0  0  0  0  0  0  0  0  0  0
  135.0515  124.5892   63.5071 H   0  0  0  0  0  0  0  0  0  0  0  0
  135.3791  123.7313   61.9633 H   0  0  0  0  0  0  0  0  0  0  0  0
  134.4025  125.2389   61.9633 H   0  0  0  0  0  0  0  0  0  0  0  0
  134.0771  121.9437   61.3729 H   0  0  0  0  0  0  0  0  0  0  0  0
  129.9495  119.8260   62.2760 H   0  0  0  0  0  0  0  0  0  0  0  0
  129.6485  117.6479   61.1176 H   0  0  0  0  0  0  0  0  0  0  0  0
  131.4479  116.7669   59.6375 H   0  0  0  0  0  0  0  0  0  0  0  0
  133.5573  118.0546   59.3268 H   0  0  0  0  0  0  0  0  0  0  0  0
  133.8629  120.2321   60.4843 H   0  0  0  0  0  0  0  0  0  0  0  0
  128.6373  121.4351   64.1218 H   0  0  0  0  0  0  0  0  0  0  0  0
  127.5143  122.6983   64.7851 H   0  0  0  0  0  0  0  0  0  0  0  0
  129.7690  122.4000   62.0360 H   0  0  0  0  0  0  0  0  0  0  0  0
  130.4298  124.5004   60.5857 H   0  0  0  0  0  0  0  0  0  0  0  0
  130.4163  125.1525   58.1791 H   0  0  0  0  0  0  0  0  0  0  0  0
  128.7666  124.1232   56.6250 H   0  0  0  0  0  0  0  0  0  0  0  0
  127.1271  122.4445   57.4583 H   0  0  0  0  0  0  0  0  0  0  0  0
  127.1385  121.7822   59.8623 H   0  0  0  0  0  0  0  0  0  0  0  0
  1  2  1  0
  2  3  2  0
  3  4  1  0
  4  5  1  0
  5  6  2  0
  6  7  1  0
  7  8  2  0
  8  9  1  0
  9 10  2  0
  4 11  2  0
 11 12  1  0
 12 13  1  0
 13 14  1  0
 14 15  1  0
 15 16  2  0
 15 17  1  0
 17 18  1  0
 18 19  2  0
 19 20  1  0
 20 21  2  0
 21 22  1  0
 22 23  2  0
 12 24  2  0
 24 25  1  0
 25 26  3  0
 24  2  1  0
 10  5  1  0
 23 18  1  0
  1 27  1  0
  1 28  1  0
  1 29  1  0
  3 30  1  0
  6 31  1  0
  7 32  1  0
  8 33  1  0
  9 34  1  0
 10 35  1  0
 14 36  1  0
 14 37  1  0
 17 38  1  0
 19 39  1  0
 20 40  1  0
 21 41  1  0
 22 42  1  0
 23 43  1  0
M  END
>  <Binding energies>  (1) 
[-7.89]

>  <Ligand effiencies>  (1) 
[-0.2922222222222222]

>  <Interactions>  (1) 
["V-B:GLU:543:CD:9879, H-A:ARG:545:NH2:4927, H-B:ALA:541:N:9862, V-B:PRO:540:CA:9854, V-A:GLY:453:CA:4043, V-B:ALA:541:CB:9863, V-A:ASP:366:CG:3212, V-B:TYR:539:CE2:9847, V-B:TYR:539:CZ:9848, V-B:TYR:539:CD2:9845, H-A:ARG:545:NE:4923, V-B:MET:535:CE:9806, V-B:ALA:541:C:9859, V-B:GLU:543:CG:9878, V-B:ALA:541:CA:9861, V-B:TYR:539:CB:9842, V-A:ILE:369:CG2:3236, V-A:SER:385:CA:3406, V-A:LEU:475:CD2:4258, V-B:TYR:539:C:9838, V-B:PRO:540:N:9855, V-A:GLY:453:C:4041, V-A:ILE:369:CD1:3238, V-A:HIS:383:CE1:3393"]

$$$$
3be_Grossjean_2025
     RDKit          3D

 45 47  0  0  0  0  0  0  0  0999 V2000
  134.7340  125.8390   67.3640 C   0  0  0  0  0  0  0  0  0  0  0  0
  133.5150  125.8720   66.4630 C   0  0  0  0  0  0  0  0  0  0  0  0
  132.2870  126.3620   66.9120 C   0  0  0  0  0  0  0  0  0  0  0  0
  131.2060  126.3590   66.0290 C   0  0  0  0  0  0  0  0  0  0  0  0
  131.3790  125.8710   64.7310 C   0  0  0  0  0  0  0  0  0  0  0  0
  132.6370  125.3980   64.3440 C   0  0  0  0  0  0  0  0  0  0  0  0
  132.7430  124.9100   63.0290 N   0  0  0  0  0  0  0  0  0  0  0  0
  133.8370  124.4490   62.3830 C   0  0  0  0  0  0  0  0  0  0  0  0
  134.9660  124.3890   62.8740 O   0  0  0  0  0  0  0  0  0  0  0  0
  133.5830  123.9820   60.9410 C   0  0  0  0  0  0  0  0  0  0  0  0
  132.7490  122.3660   60.7850 S   0  0  0  0  0  0  0  0  0  0  0  0
  131.0970  122.5320   61.4250 C   0  0  0  0  0  0  0  0  0  0  0  0
  130.1530  122.6760   60.4630 N   0  0  0  0  0  0  0  0  0  0  0  0
  128.8450  122.8090   60.8110 C   0  0  0  0  0  0  0  0  0  0  0  0
  127.8660  122.9780   59.6870 C   0  0  0  0  0  0  0  0  0  0  0  0
  128.1630  122.5030   58.3990 C   0  0  0  0  0  0  0  0  0  0  0  0
  127.2600  122.6580   57.3520 C   0  0  0  0  0  0  0  0  0  0  0  0
  126.0440  123.2940   57.5770 C   0  0  0  0  0  0  0  0  0  0  0  0
  125.7260  123.7750   58.8420 C   0  0  0  0  0  0  0  0  0  0  0  0
  126.6320  123.6190   59.8870 C   0  0  0  0  0  0  0  0  0  0  0  0
  128.4570  122.8040   62.1550 C   0  0  0  0  0  0  0  0  0  0  0  0
  129.4150  122.6320   63.1590 C   0  0  0  0  0  0  0  0  0  0  0  0
  128.9420  122.6160   64.6110 C   0  0  0  0  0  0  0  0  0  0  0  0
  130.7720  122.4800   62.8000 C   0  0  0  0  0  0  0  0  0  0  0  0
  131.7840  122.2440   63.8320 C   0  0  0  0  0  0  0  0  0  0  0  0
  132.5820  122.0580   64.6490 N   0  0  0  0  0  0  0  0  0  0  0  0
  133.6970  125.3950   65.2060 N   0  0  0  0  0  0  0  0  0  0  0  0
  134.4127  125.8477   68.4160 H   0  0  0  0  0  0  0  0  0  0  0  0
  135.3125  124.9249   67.1648 H   0  0  0  0  0  0  0  0  0  0  0  0
  135.3611  126.7205   67.1648 H   0  0  0  0  0  0  0  0  0  0  0  0
  132.1741  126.7417   67.9382 H   0  0  0  0  0  0  0  0  0  0  0  0
  130.2253  126.7379   66.3524 H   0  0  0  0  0  0  0  0  0  0  0  0
  130.5371  125.8591   64.0232 H   0  0  0  0  0  0  0  0  0  0  0  0
  131.8840  124.9380   62.4990 H   0  0  0  0  0  0  0  0  0  0  0  0
  132.9573  124.7376   60.4435 H   0  0  0  0  0  0  0  0  0  0  0  0
  134.5742  123.8606   60.4797 H   0  0  0  0  0  0  0  0  0  0  0  0
  129.1243  122.0008   58.2153 H   0  0  0  0  0  0  0  0  0  0  0  0
  127.5071  122.2787   56.3495 H   0  0  0  0  0  0  0  0  0  0  0  0
  125.3298  123.4172   56.7495 H   0  0  0  0  0  0  0  0  0  0  0  0
  124.7627  124.2766   59.0163 H   0  0  0  0  0  0  0  0  0  0  0  0
  126.3777  124.0038   60.8856 H   0  0  0  0  0  0  0  0  0  0  0  0
  127.3980  122.9354   62.4221 H   0  0  0  0  0  0  0  0  0  0  0  0
  129.8139  122.6455   65.2810 H   0  0  0  0  0  0  0  0  0  0  0  0
  128.3053  123.4931   64.7989 H   0  0  0  0  0  0  0  0  0  0  0  0
  128.3661  121.6979   64.7989 H   0  0  0  0  0  0  0  0  0  0  0  0
  1  2  1  0
  2  3  2  0
  3  4  1  0
  4  5  2  0
  5  6  1  0
  6  7  1  0
  7  8  1  0
  8  9  2  0
  8 10  1  0
 10 11  1  0
 11 12  1  0
 12 13  2  0
 13 14  1  0
 14 15  1  0
 15 16  2  0
 16 17  1  0
 17 18  2  0
 18 19  1  0
 19 20  2  0
 14 21  2  0
 21 22  1  0
 22 23  1  0
 22 24  2  0
 24 25  1  0
 25 26  3  0
  6 27  2  0
 27  2  1  0
 24 12  1  0
 20 15  1  0
  1 28  1  0
  1 29  1  0
  1 30  1  0
  3 31  1  0
  4 32  1  0
  5 33  1  0
  7 34  1  0
 10 35  1  0
 10 36  1  0
 16 37  1  0
 17 38  1  0
 18 39  1  0
 19 40  1  0
 20 41  1  0
 21 42  1  0
 23 43  1  0
 23 44  1  0
 23 45  1  0
M  END
>  <Binding energies>  (1) 
[-8.58]

>  <Ligand effiencies>  (1) 
[-0.30642857142857144]

>  <Interactions>  (1) 
["V-B:GLU:543:CD:9879, H-A:GLY:454:N:4049, V-A:HIS:456:CE1:4069, V-B:PRO:540:CA:9854, V-A:ARG:545:CZ:4925, V-B:PRO:540:CB:9856, V-B:ALA:541:CB:9863, V-A:ASP:366:CG:3212, V-A:ARG:545:CD:4922, V-A:ARG:545:CG:4921, V-B:TYR:539:CE2:9847, V-B:TYR:539:CZ:9848, V-B:TYR:539:CD2:9845, H-A:ARG:545:NE:4923, V-B:MET:535:CE:9806, H-A:TYR:484:OH:4347, V-B:TYR:539:CG:9843, V-B:GLU:543:CG:9878, V-A:LEU:475:CD2:4258, H-A:ASP:366:OD2:3214, V-B:TYR:539:C:9838, V-B:PRO:540:N:9855, V-A:ILE:369:CD1:3238, V-A:ILE:455:C:4051, V-A:ARG:545:CB:4920"]

$$$$
3bf_Grossjean_2025
     RDKit          3D

 42 44  0  0  0  0  0  0  0  0999 V2000
  122.9750  129.5950   67.3570 C   0  0  0  0  0  0  0  0  0  0  0  0
  124.4530  129.2410   67.2060 C   0  0  0  0  0  0  0  0  0  0  0  0
  125.0900  128.6030   68.2750 C   0  0  0  0  0  0  0  0  0  0  0  0
  126.4400  128.2470   68.1730 C   0  0  0  0  0  0  0  0  0  0  0  0
  127.1750  127.5420   69.2730 C   0  0  0  0  0  0  0  0  0  0  0  0
  128.5750  127.4550   69.2570 C   0  0  0  0  0  0  0  0  0  0  0  0
  129.2650  126.8010   70.2750 C   0  0  0  0  0  0  0  0  0  0  0  0
  128.5600  126.2250   71.3260 C   0  0  0  0  0  0  0  0  0  0  0  0
  127.1710  126.2970   71.3650 C   0  0  0  0  0  0  0  0  0  0  0  0
  126.4850  126.9500   70.3440 C   0  0  0  0  0  0  0  0  0  0  0  0
  127.1470  128.5130   67.0420 N   0  0  0  0  0  0  0  0  0  0  0  0
  126.5500  129.1530   66.0070 C   0  0  0  0  0  0  0  0  0  0  0  0
  127.6290  129.4220   64.6170 S   0  0  0  0  0  0  0  0  0  0  0  0
  128.2270  127.7970   64.0430 C   0  0  0  0  0  0  0  0  0  0  0  0
  129.7440  127.5810   64.1610 C   0  0  0  0  0  0  0  0  0  0  0  0
  130.5150  128.0700   63.3330 O   0  0  0  0  0  0  0  0  0  0  0  0
  130.1280  126.8590   65.2360 N   0  0  0  0  0  0  0  0  0  0  0  0
  131.4250  126.4760   65.6250 C   0  0  0  0  0  0  0  0  0  0  0  0
  131.7550  126.6230   66.9760 C   0  0  0  0  0  0  0  0  0  0  0  0
  133.0230  126.2490   67.4280 C   0  0  0  0  0  0  0  0  0  0  0  0
  133.9310  125.7280   66.5060 C   0  0  0  0  0  0  0  0  0  0  0  0
  133.6340  125.5640   65.1920 N   0  0  0  0  0  0  0  0  0  0  0  0
  132.3980  125.9320   64.7680 C   0  0  0  0  0  0  0  0  0  0  0  0
  125.1870  129.5240   66.0340 C   0  0  0  0  0  0  0  0  0  0  0  0
  124.5260  130.1460   64.8830 C   0  0  0  0  0  0  0  0  0  0  0  0
  124.0030  130.6390   63.9760 N   0  0  0  0  0  0  0  0  0  0  0  0
  122.7199  129.6561   68.4253 H   0  0  0  0  0  0  0  0  0  0  0  0
  122.7795  130.5654   66.8772 H   0  0  0  0  0  0  0  0  0  0  0  0
  122.3611  128.8185   66.8772 H   0  0  0  0  0  0  0  0  0  0  0  0
  124.5305  128.3810   69.1957 H   0  0  0  0  0  0  0  0  0  0  0  0
  129.1365  127.9102   68.4278 H   0  0  0  0  0  0  0  0  0  0  0  0
  130.3630  126.7404   70.2476 H   0  0  0  0  0  0  0  0  0  0  0  0
  129.1036  125.7094   72.1314 H   0  0  0  0  0  0  0  0  0  0  0  0
  126.6173  125.8402   72.1985 H   0  0  0  0  0  0  0  0  0  0  0  0
  125.3868  127.0030   70.3766 H   0  0  0  0  0  0  0  0  0  0  0  0
  127.7250  127.0197   64.6378 H   0  0  0  0  0  0  0  0  0  0  0  0
  127.9933  127.7467   62.9693 H   0  0  0  0  0  0  0  0  0  0  0  0
  129.3990  126.5880   65.8800 H   0  0  0  0  0  0  0  0  0  0  0  0
  131.0173  127.0325   67.6818 H   0  0  0  0  0  0  0  0  0  0  0  0
  133.2990  126.3628   68.4867 H   0  0  0  0  0  0  0  0  0  0  0  0
  134.9313  125.4374   66.8594 H   0  0  0  0  0  0  0  0  0  0  0  0
  132.1462  125.7985   63.7056 H   0  0  0  0  0  0  0  0  0  0  0  0
  1  2  1  0
  2  3  2  0
  3  4  1  0
  4  5  1  0
  5  6  2  0
  6  7  1  0
  7  8  2  0
  8  9  1  0
  9 10  2  0
  4 11  2  0
 11 12  1  0
 12 13  1  0
 13 14  1  0
 14 15  1  0
 15 16  2  0
 15 17  1  0
 17 18  1  0
 18 19  2  0
 19 20  1  0
 20 21  2  0
 21 22  1  0
 22 23  2  0
 12 24  2  0
 24 25  1  0
 25 26  3  0
 24  2  1  0
 10  5  1  0
 23 18  1  0
  1 27  1  0
  1 28  1  0
  1 29  1  0
  3 30  1  0
  6 31  1  0
  7 32  1  0
  8 33  1  0
  9 34  1  0
 10 35  1  0
 14 36  1  0
 14 37  1  0
 17 38  1  0
 19 39  1  0
 20 40  1  0
 21 41  1  0
 23 42  1  0
M  END
>  <Binding energies>  (1) 
[-8.43]

>  <Ligand effiencies>  (1) 
[-0.31222222222222223]

>  <Interactions>  (1) 
["V-B:ARG:545:CG:9893, V-B:GLU:543:CB:9877, V-B:GLU:543:CD:9879, V-B:HIS:456:CE1:9040, H-A:GLY:454:N:4049, V-A:HIS:456:CE1:4069, V-A:GLU:543:CD:4907, H-A:ARG:545:NH2:4927, V-B:ARG:545:CD:9894, H-B:GLY:454:N:9020, V-A:TYR:484:CZ:4346, V-A:ARG:545:CZ:4925, V-A:ARG:545:CD:4922, V-A:ARG:545:CG:4921, V-B:GLU:543:C:9873, V-B:GLY:544:C:9883, H-A:ARG:545:NE:4923, H-A:TYR:484:OH:4347, V-B:GLY:453:C:9012, V-B:GLY:453:CA:9014, V-B:ARG:545:CA:9890, V-B:ARG:545:CB:9892, V-B:GLY:454:CA:9019, H-B:GLU:543:OE2:9881, V-B:GLY:544:CA:9885, V-B:GLY:454:C:9017, V-B:ILE:455:C:9022"]

$$$$
3bg_Grossjean_2025
     RDKit          3D

 46 48  0  0  0  0  0  0  0  0999 V2000
  134.6630  124.3690   62.4760 C   0  0  0  0  0  0  0  0  0  0  0  0
  133.5370  123.3510   62.6530 C   0  0  0  0  0  0  0  0  0  0  0  0
  133.4920  122.2570   61.7830 C   0  0  0  0  0  0  0  0  0  0  0  0
  132.4810  121.2960   61.9150 C   0  0  0  0  0  0  0  0  0  0  0  0
  132.3820  120.0910   61.0210 C   0  0  0  0  0  0  0  0  0  0  0  0
  133.3230  119.8650   60.0030 C   0  0  0  0  0  0  0  0  0  0  0  0
  133.2450  118.7420   59.1850 C   0  0  0  0  0  0  0  0  0  0  0  0
  132.2180  117.8230   59.3700 C   0  0  0  0  0  0  0  0  0  0  0  0
  131.2660  118.0260   60.3620 C   0  0  0  0  0  0  0  0  0  0  0  0
  131.3470  119.1520   61.1760 C   0  0  0  0  0  0  0  0  0  0  0  0
  131.5470  121.4070   62.8970 N   0  0  0  0  0  0  0  0  0  0  0  0
  131.5780  122.4610   63.7520 C   0  0  0  0  0  0  0  0  0  0  0  0
  130.3170  122.4700   65.0170 S   0  0  0  0  0  0  0  0  0  0  0  0
  128.9600  123.5530   64.4630 C   0  0  0  0  0  0  0  0  0  0  0  0
  128.2550  122.9960   63.2230 C   0  0  0  0  0  0  0  0  0  0  0  0
  127.0290  122.8770   63.2150 O   0  0  0  0  0  0  0  0  0  0  0  0
  129.0450  122.6370   62.1960 N   0  0  0  0  0  0  0  0  0  0  0  0
  128.6070  121.9200   60.9980 C   0  0  0  0  0  0  0  0  0  0  0  0
  128.7150  122.7860   59.7490 C   0  0  0  0  0  0  0  0  0  0  0  0
  127.8620  122.5590   58.6630 C   0  0  0  0  0  0  0  0  0  0  0  0
  127.9660  123.3430   57.5190 C   0  0  0  0  0  0  0  0  0  0  0  0
  128.9160  124.3620   57.4660 C   0  0  0  0  0  0  0  0  0  0  0  0
  129.7560  124.6080   58.5500 C   0  0  0  0  0  0  0  0  0  0  0  0
  129.6510  123.8220   59.6950 C   0  0  0  0  0  0  0  0  0  0  0  0
  132.5590  123.4710   63.6620 C   0  0  0  0  0  0  0  0  0  0  0  0
  132.5840  124.6020   64.5930 C   0  0  0  0  0  0  0  0  0  0  0  0
  132.6050  125.4960   65.3270 N   0  0  0  0  0  0  0  0  0  0  0  0
  135.0223  124.6938   63.4636 H   0  0  0  0  0  0  0  0  0  0  0  0
  135.4909  123.9067   61.9185 H   0  0  0  0  0  0  0  0  0  0  0  0
  134.2863  125.2392   61.9185 H   0  0  0  0  0  0  0  0  0  0  0  0
  134.2512  122.1509   60.9941 H   0  0  0  0  0  0  0  0  0  0  0  0
  134.1367  120.5892   59.8495 H   0  0  0  0  0  0  0  0  0  0  0  0
  133.9932  118.5818   58.3947 H   0  0  0  0  0  0  0  0  0  0  0  0
  132.1588  116.9314   58.7284 H   0  0  0  0  0  0  0  0  0  0  0  0
  130.4519  117.2998   60.5032 H   0  0  0  0  0  0  0  0  0  0  0  0
  130.5870  119.3103   61.9553 H   0  0  0  0  0  0  0  0  0  0  0  0
  128.2260  123.6481   65.2768 H   0  0  0  0  0  0  0  0  0  0  0  0
  129.3898  124.5309   64.2004 H   0  0  0  0  0  0  0  0  0  0  0  0
  130.0410  122.7660   62.2940 H   0  0  0  0  0  0  0  0  0  0  0  0
  129.2360  121.0270   60.8676 H   0  0  0  0  0  0  0  0  0  0  0  0
  127.5508  121.6435   61.1320 H   0  0  0  0  0  0  0  0  0  0  0  0
  127.1083  121.7594   58.7143 H   0  0  0  0  0  0  0  0  0  0  0  0
  127.3025  123.1601   56.6609 H   0  0  0  0  0  0  0  0  0  0  0  0
  129.0033  124.9782   56.5590 H   0  0  0  0  0  0  0  0  0  0  0  0
  130.4981  125.4186   58.5018 H   0  0  0  0  0  0  0  0  0  0  0  0
  130.3054  124.0170   60.5574 H   0  0  0  0  0  0  0  0  0  0  0  0
  1  2  1  0
  2  3  2  0
  3  4  1  0
  4  5  1  0
  5  6  2  0
  6  7  1  0
  7  8  2  0
  8  9  1  0
  9 10  2  0
  4 11  2  0
 11 12  1  0
 12 13  1  0
 13 14  1  0
 14 15  1  0
 15 16  2  0
 15 17  1  0
 17 18  1  0
 18 19  1  0
 19 20  2  0
 20 21  1  0
 21 22  2  0
 22 23  1  0
 23 24  2  0
 12 25  2  0
 25 26  1  0
 26 27  3  0
 25  2  1  0
 10  5  1  0
 24 19  1  0
  1 28  1  0
  1 29  1  0
  1 30  1  0
  3 31  1  0
  6 32  1  0
  7 33  1  0
  8 34  1  0
  9 35  1  0
 10 36  1  0
 14 37  1  0
 14 38  1  0
 17 39  1  0
 18 40  1  0
 18 41  1  0
 20 42  1  0
 21 43  1  0
 22 44  1  0
 23 45  1  0
 24 46  1  0
M  END
>  <Binding energies>  (1) 
[-8.16]

>  <Ligand effiencies>  (1) 
[-0.2914285714285714]

>  <Interactions>  (1) 
["V-B:GLU:543:CD:9879, V-A:GLY:454:CA:4048, H-B:ALA:541:N:9862, V-B:PRO:540:CA:9854, V-A:GLY:453:CA:4043, V-B:ALA:541:CB:9863, V-A:ASP:366:CG:3212, V-B:PRO:540:C:9852, V-B:TYR:539:CE2:9847, V-B:TYR:539:CZ:9848, V-B:TYR:539:CD2:9845, V-B:MET:535:CE:9806, H-A:TYR:484:OH:4347, V-B:TYR:539:CG:9843, V-A:LEU:373:CD2:3280, V-B:GLU:543:CG:9878, V-B:ALA:541:CA:9861, V-B:TYR:539:CB:9842, V-A:ILE:369:CG2:3236, V-A:SER:385:CA:3406, V-A:LEU:475:CD2:4258, V-A:LEU:373:CG:3278, V-B:TYR:539:C:9838, V-B:PRO:540:N:9855, V-A:GLY:453:C:4041, V-A:ILE:369:CD1:3238"]

$$$$
3bk_Grossjean_2025
     RDKit          3D

 57 58  0  0  0  0  0  0  0  0999 V2000
  132.7250  124.4420   59.3820 C   0  0  0  0  0  0  0  0  0  0  0  0
  133.1900  124.6540   58.0580 O   0  0  0  0  0  0  0  0  0  0  0  0
  132.7330  125.8730   57.4860 C   0  0  0  0  0  0  0  0  0  0  0  0
  131.2050  125.9570   57.6040 C   0  0  0  0  0  0  0  0  0  0  0  0
  130.7860  127.2910   57.3560 O   0  0  0  0  0  0  0  0  0  0  0  0
  129.8860  127.8020   58.3300 C   0  0  0  0  0  0  0  0  0  0  0  0
  129.0280  126.6540   58.8780 C   0  0  0  0  0  0  0  0  0  0  0  0
  129.3190  126.4640   60.2560 O   0  0  0  0  0  0  0  0  0  0  0  0
  128.6470  125.3540   60.8380 C   0  0  0  0  0  0  0  0  0  0  0  0
  128.1110  125.7500   62.2210 C   0  0  0  0  0  0  0  0  0  0  0  0
  128.3630  124.7210   63.2320 N   0  0  0  0  0  0  0  0  0  0  0  0
  127.8780  123.4680   63.2080 C   0  0  0  0  0  0  0  0  0  0  0  0
  127.1650  123.0280   62.3040 O   0  0  0  0  0  0  0  0  0  0  0  0
  128.2780  122.5590   64.3730 C   0  0  0  0  0  0  0  0  0  0  0  0
  129.8650  123.0580   65.1120 S   0  0  0  0  0  0  0  0  0  0  0  0
  131.1690  122.7920   63.9230 C   0  0  0  0  0  0  0  0  0  0  0  0
  131.0840  121.6500   63.1950 N   0  0  0  0  0  0  0  0  0  0  0  0
  132.0350  121.3620   62.2670 C   0  0  0  0  0  0  0  0  0  0  0  0
  131.8540  120.0920   61.4920 C   0  0  0  0  0  0  0  0  0  0  0  0
  130.6880  119.3230   61.6360 C   0  0  0  0  0  0  0  0  0  0  0  0
  130.5170  118.1390   60.9230 C   0  0  0  0  0  0  0  0  0  0  0  0
  131.5120  117.7070   60.0540 C   0  0  0  0  0  0  0  0  0  0  0  0
  132.6760  118.4520   59.8900 C   0  0  0  0  0  0  0  0  0  0  0  0
  132.8420  119.6360   60.6030 C   0  0  0  0  0  0  0  0  0  0  0  0
  133.1060  122.2350   62.0430 C   0  0  0  0  0  0  0  0  0  0  0  0
  133.2100  123.4170   62.7860 C   0  0  0  0  0  0  0  0  0  0  0  0
  134.3960  124.3410   62.5110 C   0  0  0  0  0  0  0  0  0  0  0  0
  132.2250  123.7130   63.7510 C   0  0  0  0  0  0  0  0  0  0  0  0
  132.3070  124.9450   64.5420 C   0  0  0  0  0  0  0  0  0  0  0  0
  132.3720  125.9170   65.1670 N   0  0  0  0  0  0  0  0  0  0  0  0
  133.4852  124.7886   60.0975 H   0  0  0  0  0  0  0  0  0  0  0  0
  131.7921  125.0038   59.5373 H   0  0  0  0  0  0  0  0  0  0  0  0
  132.5373  123.3693   59.5373 H   0  0  0  0  0  0  0  0  0  0  0  0
  133.1884  126.7207   58.0190 H   0  0  0  0  0  0  0  0  0  0  0  0
  133.0196  125.9081   56.4246 H   0  0  0  0  0  0  0  0  0  0  0  0
  130.7423  125.2839   56.8672 H   0  0  0  0  0  0  0  0  0  0  0  0
  130.8974  125.6572   58.6167 H   0  0  0  0  0  0  0  0  0  0  0  0
  130.4554  128.2603   59.1521 H   0  0  0  0  0  0  0  0  0  0  0  0
  129.2363  128.5609   57.8697 H   0  0  0  0  0  0  0  0  0  0  0  0
  127.9631  126.9023   58.7585 H   0  0  0  0  0  0  0  0  0  0  0  0
  129.2524  125.7305   58.3241 H   0  0  0  0  0  0  0  0  0  0  0  0
  127.8091  125.0526   60.1922 H   0  0  0  0  0  0  0  0  0  0  0  0
  129.3488  124.5135   60.9429 H   0  0  0  0  0  0  0  0  0  0  0  0
  128.6014  126.6828   62.5363 H   0  0  0  0  0  0  0  0  0  0  0  0
  127.0217  125.8768   62.1352 H   0  0  0  0  0  0  0  0  0  0  0  0
  128.9890  124.9810   63.9800 H   0  0  0  0  0  0  0  0  0  0  0  0
  127.4960  122.6062   65.1452 H   0  0  0  0  0  0  0  0  0  0  0  0
  128.3907  121.5365   63.9835 H   0  0  0  0  0  0  0  0  0  0  0  0
  129.8976  119.6609   62.3224 H   0  0  0  0  0  0  0  0  0  0  0  0
  129.5977  117.5478   61.0471 H   0  0  0  0  0  0  0  0  0  0  0  0
  131.3786  116.7706   59.4925 H   0  0  0  0  0  0  0  0  0  0  0  0
  133.4607  118.1071   59.2006 H   0  0  0  0  0  0  0  0  0  0  0  0
  133.7617  120.2243   60.4683 H   0  0  0  0  0  0  0  0  0  0  0  0
  133.8648  121.9927   61.2843 H   0  0  0  0  0  0  0  0  0  0  0  0
  134.8277  124.6773   63.4652 H   0  0  0  0  0  0  0  0  0  0  0  0
  135.1589  123.7968   61.9349 H   0  0  0  0  0  0  0  0  0  0  0  0
  134.0549  125.2138   61.9349 H   0  0  0  0  0  0  0  0  0  0  0  0
  1  2  1  0
  2  3  1  0
  3  4  1  0
  4  5  1  0
  5  6  1  0
  6  7  1  0
  7  8  1  0
  8  9  1  0
  9 10  1  0
 10 11  1  0
 11 12  1  0
 12 13  2  0
 12 14  1  0
 14 15  1  0
 15 16  1  0
 16 17  2  0
 17 18  1  0
 18 19  1  0
 19 20  2  0
 20 21  1  0
 21 22  2  0
 22 23  1  0
 23 24  2  0
 18 25  2  0
 25 26  1  0
 26 27  1  0
 26 28  2  0
 28 29  1  0
 29 30  3  0
 28 16  1  0
 24 19  1  0
  1 31  1  0
  1 32  1  0
  1 33  1  0
  3 34  1  0
  3 35  1  0
  4 36  1  0
  4 37  1  0
  6 38  1  0
  6 39  1  0
  7 40  1  0
  7 41  1  0
  9 42  1  0
  9 43  1  0
 10 44  1  0
 10 45  1  0
 11 46  1  0
 14 47  1  0
 14 48  1  0
 20 49  1  0
 21 50  1  0
 22 51  1  0
 23 52  1  0
 24 53  1  0
 25 54  1  0
 27 55  1  0
 27 56  1  0
 27 57  1  0
M  END
>  <Binding energies>  (1) 
[-6.63]

>  <Ligand effiencies>  (1) 
[-0.21387096774193548]

>  <Interactions>  (1) 
["V-B:GLU:543:CD:9879, H-A:ARG:545:NH2:4927, H-B:ALA:541:N:9862, V-A:GLY:453:CA:4043, V-B:ALA:541:CB:9863, V-A:ASP:366:CG:3212, V-B:TYR:539:CE2:9847, V-B:TYR:539:CD2:9845, H-A:TYR:484:OH:4347, V-B:ALA:541:C:9859, V-B:GLU:543:CG:9878, V-B:ALA:541:CA:9861, V-B:TYR:539:CB:9842, V-A:ILE:369:CG2:3236, V-A:SER:385:CA:3406, V-A:LEU:475:CD2:4258, V-A:ASP:366:CB:3211, V-B:TYR:539:C:9838, H-B:GLU:543:OE2:9881, V-A:GLY:453:C:4041, V-A:ILE:369:CD1:3238, H-B:GLU:543:OE1:9880, H-A:TYR:531:OH:4794, V-A:HIS:383:CE1:3393, V-A:ASP:366:CA:3209, H-B:TYR:539:OH:9849, V-A:ASP:366:C:3207"]

$$$$
3ca_Grossjean_2025
     RDKit          3D

 52 54  0  0  0  0  0  0  0  0999 V2000
  123.3830  130.6720   63.2410 C   0  0  0  0  0  0  0  0  0  0  0  0
  123.7500  129.6440   64.3140 C   0  0  0  0  0  0  0  0  0  0  0  0
  124.0740  130.3170   65.5250 O   0  0  0  0  0  0  0  0  0  0  0  0
  124.3310  129.6270   66.6640 C   0  0  0  0  0  0  0  0  0  0  0  0
  123.4860  129.4230   67.5420 O   0  0  0  0  0  0  0  0  0  0  0  0
  125.7450  129.1290   66.7510 C   0  0  0  0  0  0  0  0  0  0  0  0
  126.5780  129.2350   65.6300 C   0  0  0  0  0  0  0  0  0  0  0  0
  127.8930  128.7830   65.6780 C   0  0  0  0  0  0  0  0  0  0  0  0
  128.4010  128.2090   66.8450 C   0  0  0  0  0  0  0  0  0  0  0  0
  129.7430  127.7860   66.7870 N   0  0  0  0  0  0  0  0  0  0  0  0
  130.3200  126.6770   67.2980 C   0  0  0  0  0  0  0  0  0  0  0  0
  129.7340  125.7900   67.9190 O   0  0  0  0  0  0  0  0  0  0  0  0
  131.8240  126.5440   67.0400 C   0  0  0  0  0  0  0  0  0  0  0  0
  132.2250  126.1820   65.2980 S   0  0  0  0  0  0  0  0  0  0  0  0
  131.6130  124.5600   64.8590 C   0  0  0  0  0  0  0  0  0  0  0  0
  130.5690  124.1060   65.5970 N   0  0  0  0  0  0  0  0  0  0  0  0
  130.0420  122.8970   65.3080 C   0  0  0  0  0  0  0  0  0  0  0  0
  128.8670  122.4680   66.1650 C   0  0  0  0  0  0  0  0  0  0  0  0
  130.5380  122.0880   64.2880 C   0  0  0  0  0  0  0  0  0  0  0  0
  131.6270  122.5260   63.5240 C   0  0  0  0  0  0  0  0  0  0  0  0
  132.1330  121.6190   62.4500 C   0  0  0  0  0  0  0  0  0  0  0  0
  131.2370  120.8480   61.7000 C   0  0  0  0  0  0  0  0  0  0  0  0
  131.7000  119.9920   60.7040 C   0  0  0  0  0  0  0  0  0  0  0  0
  133.0670  119.9010   60.4560 C   0  0  0  0  0  0  0  0  0  0  0  0
  133.9740  120.6560   61.1980 C   0  0  0  0  0  0  0  0  0  0  0  0
  133.5060  121.5090   62.1940 C   0  0  0  0  0  0  0  0  0  0  0  0
  132.1790  123.8020   63.8060 C   0  0  0  0  0  0  0  0  0  0  0  0
  133.2860  124.3350   63.0060 C   0  0  0  0  0  0  0  0  0  0  0  0
  134.1600  124.7560   62.3740 N   0  0  0  0  0  0  0  0  0  0  0  0
  127.5760  128.1050   67.9760 C   0  0  0  0  0  0  0  0  0  0  0  0
  126.2610  128.5610   67.9250 C   0  0  0  0  0  0  0  0  0  0  0  0
  123.0506  131.6030   63.7236 H   0  0  0  0  0  0  0  0  0  0  0  0
  124.2632  130.8779   62.6142 H   0  0  0  0  0  0  0  0  0  0  0  0
  122.5714  130.2739   62.6142 H   0  0  0  0  0  0  0  0  0  0  0  0
  122.8961  128.9720   64.4852 H   0  0  0  0  0  0  0  0  0  0  0  0
  124.6172  129.0568   63.9777 H   0  0  0  0  0  0  0  0  0  0  0  0
  126.1887  129.6800   64.7024 H   0  0  0  0  0  0  0  0  0  0  0  0
  128.5365  128.8785   64.7910 H   0  0  0  0  0  0  0  0  0  0  0  0
  130.3410  128.3850   66.2380 H   0  0  0  0  0  0  0  0  0  0  0  0
  132.3120  127.4886   67.3220 H   0  0  0  0  0  0  0  0  0  0  0  0
  132.1851  125.6967   67.6414 H   0  0  0  0  0  0  0  0  0  0  0  0
  129.1335  122.5653   67.2278 H   0  0  0  0  0  0  0  0  0  0  0  0
  127.9995  123.1074   65.9445 H   0  0  0  0  0  0  0  0  0  0  0  0
  128.6156  121.4201   65.9445 H   0  0  0  0  0  0  0  0  0  0  0  0
  130.0768  121.1105   64.0838 H   0  0  0  0  0  0  0  0  0  0  0  0
  130.1575  120.9190   61.8992 H   0  0  0  0  0  0  0  0  0  0  0  0
  130.9899  119.3913   60.1167 H   0  0  0  0  0  0  0  0  0  0  0  0
  133.4345  119.2275   59.6677 H   0  0  0  0  0  0  0  0  0  0  0  0
  135.0528  120.5783   60.9979 H   0  0  0  0  0  0  0  0  0  0  0  0
  134.2202  122.1014   62.7847 H   0  0  0  0  0  0  0  0  0  0  0  0
  127.9686  127.6629   68.9036 H   0  0  0  0  0  0  0  0  0  0  0  0
  125.6203  128.4748   68.8150 H   0  0  0  0  0  0  0  0  0  0  0  0
  1  2  1  0
  2  3  1  0
  3  4  1  0
  4  5  2  0
  4  6  1  0
  6  7  2  0
  7  8  1  0
  8  9  2  0
  9 10  1  0
 10 11  1  0
 11 12  2  0
 11 13  1  0
 13 14  1  0
 14 15  1  0
 15 16  2  0
 16 17  1  0
 17 18  1  0
 17 19  2  0
 19 20  1  0
 20 21  1  0
 21 22  2  0
 22 23  1  0
 23 24  2  0
 24 25  1  0
 25 26  2  0
 20 27  2  0
 27 28  1  0
 28 29  3  0
  9 30  1  0
 30 31  2  0
 31  6  1  0
 27 15  1  0
 26 21  1  0
  1 32  1  0
  1 33  1  0
  1 34  1  0
  2 35  1  0
  2 36  1  0
  7 37  1  0
  8 38  1  0
 10 39  1  0
 13 40  1  0
 13 41  1  0
 18 42  1  0
 18 43  1  0
 18 44  1  0
 19 45  1  0
 22 46  1  0
 23 47  1  0
 24 48  1  0
 25 49  1  0
 26 50  1  0
 30 51  1  0
 31 52  1  0
M  END
>  <Binding energies>  (1) 
[-8.38]

>  <Ligand effiencies>  (1) 
[-0.261875]

>  <Interactions>  (1) 
["V-B:ARG:545:CG:9893, V-B:GLU:543:CB:9877, V-B:GLU:543:CD:9879, V-B:HIS:456:CE1:9040, H-A:GLY:454:N:4049, V-A:HIS:456:CE1:4069, V-A:GLU:543:CD:4907, V-B:ARG:545:CZ:9897, H-B:TYR:484:OH:9318, H-A:ARG:545:NH2:4927, V-B:ARG:545:CD:9894, H-B:GLY:454:N:9020, V-A:TYR:484:CZ:4346, V-B:ALA:541:CB:9863, V-B:TYR:539:CE2:9847, V-B:TYR:539:CD2:9845, H-A:TYR:484:OH:4347, H-A:GLU:543:OE2:4909, H-B:ILE:455:N:9025, H-B:ARG:545:NE:9895, V-B:GLU:543:CG:9878, V-A:SER:385:CB:3408, V-A:ILE:369:CG2:3236, V-A:SER:385:CA:3406, V-B:GLY:453:C:9012, V-A:TYR:484:CE2:4345, V-A:LEU:475:CD2:4258, V-B:GLY:453:CA:9014, V-B:GLY:454:CA:9019, V-A:ILE:369:CD1:3238, V-A:SER:385:C:3404, V-B:GLU:543:CA:9875, V-A:LEU:475:CD1:4257, H-A:GLU:543:OE1:4908"]

$$$$
3cb_Grossjean_2025
     RDKit          3D

 49 51  0  0  0  0  0  0  0  0999 V2000
  129.9970  128.5700   72.8360 C   0  0  0  0  0  0  0  0  0  0  0  0
  129.4180  127.2790   72.7170 O   0  0  0  0  0  0  0  0  0  0  0  0
  128.4540  127.0270   71.7940 C   0  0  0  0  0  0  0  0  0  0  0  0
  127.2520  126.9560   72.0690 O   0  0  0  0  0  0  0  0  0  0  0  0
  128.9950  126.8410   70.4050 C   0  0  0  0  0  0  0  0  0  0  0  0
  129.0020  125.5900   69.7710 C   0  0  0  0  0  0  0  0  0  0  0  0
  129.5080  125.4530   68.4820 C   0  0  0  0  0  0  0  0  0  0  0  0
  130.0220  126.5570   67.8020 C   0  0  0  0  0  0  0  0  0  0  0  0
  130.5050  126.3050   66.5020 N   0  0  0  0  0  0  0  0  0  0  0  0
  131.7730  126.1580   66.0610 C   0  0  0  0  0  0  0  0  0  0  0  0
  132.7780  126.2070   66.7720 O   0  0  0  0  0  0  0  0  0  0  0  0
  131.8960  125.8970   64.5520 C   0  0  0  0  0  0  0  0  0  0  0  0
  133.4920  125.1860   64.0210 S   0  0  0  0  0  0  0  0  0  0  0  0
  133.1760  124.1140   62.6350 C   0  0  0  0  0  0  0  0  0  0  0  0
  133.4030  124.7020   61.4350 N   0  0  0  0  0  0  0  0  0  0  0  0
  133.1970  123.9820   60.3100 C   0  0  0  0  0  0  0  0  0  0  0  0
  133.4840  124.7000   59.0050 C   0  0  0  0  0  0  0  0  0  0  0  0
  132.7550  122.6620   60.3350 C   0  0  0  0  0  0  0  0  0  0  0  0
  132.4970  122.0390   61.5630 C   0  0  0  0  0  0  0  0  0  0  0  0
  132.0180  120.6230   61.5370 C   0  0  0  0  0  0  0  0  0  0  0  0
  132.9250  119.5770   61.3270 C   0  0  0  0  0  0  0  0  0  0  0  0
  132.4910  118.2540   61.3120 C   0  0  0  0  0  0  0  0  0  0  0  0
  131.1420  117.9700   61.5110 C   0  0  0  0  0  0  0  0  0  0  0  0
  130.2280  118.9970   61.7290 C   0  0  0  0  0  0  0  0  0  0  0  0
  130.6660  120.3190   61.7450 C   0  0  0  0  0  0  0  0  0  0  0  0
  132.6960  122.7860   62.7530 C   0  0  0  0  0  0  0  0  0  0  0  0
  132.3540  122.2150   64.0600 C   0  0  0  0  0  0  0  0  0  0  0  0
  132.0850  121.7650   65.0910 N   0  0  0  0  0  0  0  0  0  0  0  0
  130.0150  127.8130   68.4270 C   0  0  0  0  0  0  0  0  0  0  0  0
  129.5070  127.9490   69.7170 C   0  0  0  0  0  0  0  0  0  0  0  0
  130.1109  128.8241   73.9002 H   0  0  0  0  0  0  0  0  0  0  0  0
  130.9838  128.5755   72.3500 H   0  0  0  0  0  0  0  0  0  0  0  0
  129.3448  129.3106   72.3500 H   0  0  0  0  0  0  0  0  0  0  0  0
  128.6041  124.7097   70.2971 H   0  0  0  0  0  0  0  0  0  0  0  0
  129.5026  124.4664   67.9956 H   0  0  0  0  0  0  0  0  0  0  0  0
  129.7790  126.1940   65.8080 H   0  0  0  0  0  0  0  0  0  0  0  0
  131.0973  125.1994   64.2599 H   0  0  0  0  0  0  0  0  0  0  0  0
  131.8180  126.8788   64.0622 H   0  0  0  0  0  0  0  0  0  0  0  0
  133.8845  125.7021   59.2182 H   0  0  0  0  0  0  0  0  0  0  0  0
  134.2218  124.1259   58.4252 H   0  0  0  0  0  0  0  0  0  0  0  0
  132.5538  124.7927   58.4252 H   0  0  0  0  0  0  0  0  0  0  0  0
  132.6090  122.1106   59.3945 H   0  0  0  0  0  0  0  0  0  0  0  0
  133.9905  119.8026   61.1724 H   0  0  0  0  0  0  0  0  0  0  0  0
  133.2093  117.4380   61.1440 H   0  0  0  0  0  0  0  0  0  0  0  0
  130.7962  116.9259   61.4958 H   0  0  0  0  0  0  0  0  0  0  0  0
  129.1645  118.7655   61.8879 H   0  0  0  0  0  0  0  0  0  0  0  0
  129.9451  121.1307   61.9223 H   0  0  0  0  0  0  0  0  0  0  0  0
  130.4113  128.6920   67.8975 H   0  0  0  0  0  0  0  0  0  0  0  0
  129.5078  128.9369   70.2007 H   0  0  0  0  0  0  0  0  0  0  0  0
  1  2  1  0
  2  3  1  0
  3  4  2  0
  3  5  1  0
  5  6  2  0
  6  7  1  0
  7  8  2  0
  8  9  1  0
  9 10  1  0
 10 11  2  0
 10 12  1  0
 12 13  1  0
 13 14  1  0
 14 15  2  0
 15 16  1  0
 16 17  1  0
 16 18  2  0
 18 19  1  0
 19 20  1  0
 20 21  2  0
 21 22  1  0
 22 23  2  0
 23 24  1  0
 24 25  2  0
 19 26  2  0
 26 27  1  0
 27 28  3  0
  8 29  1  0
 29 30  2  0
 30  5  1  0
 26 14  1  0
 25 20  1  0
  1 31  1  0
  1 32  1  0
  1 33  1  0
  6 34  1  0
  7 35  1  0
  9 36  1  0
 12 37  1  0
 12 38  1  0
 17 39  1  0
 17 40  1  0
 17 41  1  0
 18 42  1  0
 21 43  1  0
 22 44  1  0
 23 45  1  0
 24 46  1  0
 25 47  1  0
 29 48  1  0
 30 49  1  0
M  END
>  <Binding energies>  (1) 
[-8.45]

>  <Ligand effiencies>  (1) 
[-0.2725806451612903]

>  <Interactions>  (1) 
["V-A:GLU:543:CB:4905, V-B:GLU:543:CB:9877, V-B:GLU:543:CD:9879, V-B:HIS:456:CE1:9040, H-A:GLY:454:N:4049, V-A:HIS:456:CE1:4069, V-A:GLY:454:CA:4048, H-A:ARG:545:NH2:4927, V-A:TYR:484:CZ:4346, V-B:ALA:541:CB:9863, V-A:ASP:366:CG:3212, V-B:TYR:539:CE2:9847, V-B:GLU:543:C:9873, V-B:TYR:539:CD2:9845, H-A:ARG:545:NE:4923, H-A:TYR:484:OH:4347, V-A:PRO:482:CB:4325, V-B:GLU:543:CG:9878, V-A:SER:385:CB:3408, V-A:ILE:369:CG2:3236, V-A:SER:385:CA:3406, V-A:TYR:484:CE2:4345, V-A:LEU:475:CD2:4258, V-A:ASP:366:CB:3211, H-B:GLU:543:OE2:9881, V-A:ILE:369:CD1:3238, V-B:GLU:543:CA:9875, V-A:ILE:369:CB:3235, V-A:ASP:366:CA:3209, V-A:ASP:366:C:3207"]

$$$$
3ce_Grossjean_2025
     RDKit          3D

 45 47  0  0  0  0  0  0  0  0999 V2000
  129.9530  117.9850   61.4880 C   0  0  0  0  0  0  0  0  0  0  0  0
  131.2380  118.5470   60.9120 C   0  0  0  0  0  0  0  0  0  0  0  0
  131.9440  117.8780   59.9090 C   0  0  0  0  0  0  0  0  0  0  0  0
  133.1130  118.4590   59.4200 C   0  0  0  0  0  0  0  0  0  0  0  0
  133.5470  119.6820   59.9390 C   0  0  0  0  0  0  0  0  0  0  0  0
  132.7980  120.2930   60.9510 C   0  0  0  0  0  0  0  0  0  0  0  0
  133.2700  121.5300   61.4210 N   0  0  0  0  0  0  0  0  0  0  0  0
  133.7640  121.8260   62.6440 C   0  0  0  0  0  0  0  0  0  0  0  0
  133.8860  121.0220   63.5700 O   0  0  0  0  0  0  0  0  0  0  0  0
  134.2000  123.2760   62.8500 C   0  0  0  0  0  0  0  0  0  0  0  0
  132.7940  124.4250   62.7790 S   0  0  0  0  0  0  0  0  0  0  0  0
  132.6910  125.1620   64.3930 C   0  0  0  0  0  0  0  0  0  0  0  0
  133.8650  125.1740   65.0700 N   0  0  0  0  0  0  0  0  0  0  0  0
  133.8960  125.7300   66.3030 C   0  0  0  0  0  0  0  0  0  0  0  0
  135.2440  125.7220   66.9980 C   0  0  0  0  0  0  0  0  0  0  0  0
  132.7660  126.2760   66.9070 C   0  0  0  0  0  0  0  0  0  0  0  0
  131.5370  126.2500   66.2340 C   0  0  0  0  0  0  0  0  0  0  0  0
  130.3490  126.8240   66.9340 C   0  0  0  0  0  0  0  0  0  0  0  0
  129.6680  127.9160   66.3810 C   0  0  0  0  0  0  0  0  0  0  0  0
  128.5640  128.4610   67.0310 C   0  0  0  0  0  0  0  0  0  0  0  0
  128.1380  127.9210   68.2410 C   0  0  0  0  0  0  0  0  0  0  0  0
  128.8110  126.8410   68.8090 C   0  0  0  0  0  0  0  0  0  0  0  0
  129.9150  126.2980   68.1570 C   0  0  0  0  0  0  0  0  0  0  0  0
  131.4910  125.6810   64.9360 C   0  0  0  0  0  0  0  0  0  0  0  0
  130.2370  125.6390   64.1780 C   0  0  0  0  0  0  0  0  0  0  0  0
  129.2470  125.6060   63.5800 N   0  0  0  0  0  0  0  0  0  0  0  0
  131.6480  119.7340   61.4290 N   0  0  0  0  0  0  0  0  0  0  0  0
  130.0032  118.0070   62.5866 H   0  0  0  0  0  0  0  0  0  0  0  0
  129.1019  118.5930   61.1476 H   0  0  0  0  0  0  0  0  0  0  0  0
  129.8216  116.9473   61.1476 H   0  0  0  0  0  0  0  0  0  0  0  0
  131.5859  116.9156   59.5145 H   0  0  0  0  0  0  0  0  0  0  0  0
  133.6909  117.9575   58.6297 H   0  0  0  0  0  0  0  0  0  0  0  0
  134.4631  120.1569   59.5579 H   0  0  0  0  0  0  0  0  0  0  0  0
  133.3230  122.2580   60.7240 H   0  0  0  0  0  0  0  0  0  0  0  0
  134.6826  123.3655   63.8344 H   0  0  0  0  0  0  0  0  0  0  0  0
  134.8964  123.5401   62.0405 H   0  0  0  0  0  0  0  0  0  0  0  0
  135.0947  125.7229   68.0878 H   0  0  0  0  0  0  0  0  0  0  0  0
  135.8022  124.8205   66.7051 H   0  0  0  0  0  0  0  0  0  0  0  0
  135.8128  126.6168   66.7051 H   0  0  0  0  0  0  0  0  0  0  0  0
  132.8379  126.7258   67.9082 H   0  0  0  0  0  0  0  0  0  0  0  0
  130.0076  128.3457   65.4271 H   0  0  0  0  0  0  0  0  0  0  0  0
  128.0302  129.3156   66.5897 H   0  0  0  0  0  0  0  0  0  0  0  0
  127.2637  128.3498   68.7527 H   0  0  0  0  0  0  0  0  0  0  0  0
  128.4720  126.4199   69.7670 H   0  0  0  0  0  0  0  0  0  0  0  0
  130.4507  125.4488   68.6064 H   0  0  0  0  0  0  0  0  0  0  0  0
  1  2  1  0
  2  3  2  0
  3  4  1  0
  4  5  2  0
  5  6  1  0
  6  7  1  0
  7  8  1  0
  8  9  2  0
  8 10  1  0
 10 11  1  0
 11 12  1  0
 12 13  2  0
 13 14  1  0
 14 15  1  0
 14 16  2  0
 16 17  1  0
 17 18  1  0
 18 19  2  0
 19 20  1  0
 20 21  2  0
 21 22  1  0
 22 23  2  0
 17 24  2  0
 24 25  1  0
 25 26  3  0
  6 27  2  0
 27  2  1  0
 24 12  1  0
 23 18  1  0
  1 28  1  0
  1 29  1  0
  1 30  1  0
  3 31  1  0
  4 32  1  0
  5 33  1  0
  7 34  1  0
 10 35  1  0
 10 36  1  0
 15 37  1  0
 15 38  1  0
 15 39  1  0
 16 40  1  0
 19 41  1  0
 20 42  1  0
 21 43  1  0
 22 44  1  0
 23 45  1  0
M  END
>  <Binding energies>  (1) 
[-8.5]

>  <Ligand effiencies>  (1) 
[-0.30357142857142855]

>  <Interactions>  (1) 
["V-B:GLU:543:CB:9877, V-A:GLU:543:CG:4906, V-B:GLU:543:CD:9879, H-A:GLY:454:N:4049, V-A:HIS:456:CE1:4069, V-A:GLU:543:CD:4907, V-A:GLY:454:CA:4048, V-A:ARG:545:CZ:4925, V-A:GLY:453:CA:4043, V-B:ALA:541:CB:9863, V-A:ARG:545:CD:4922, V-A:ARG:545:CG:4921, V-B:TYR:539:CE2:9847, V-B:TYR:539:CD2:9845, H-A:TYR:484:OH:4347, V-A:PRO:482:CG:4326, V-A:PRO:482:CB:4325, V-A:LEU:373:CD2:3280, V-B:TYR:539:CB:9842, V-A:ILE:369:CG2:3236, V-A:SER:385:CA:3406, V-A:LEU:475:CD2:4258, V-B:TYR:539:C:9838, V-A:GLY:453:C:4041, V-A:ILE:369:CD1:3238, V-A:HIS:383:CE1:3393, V-A:ILE:455:C:4051, V-A:ARG:545:CB:4920, V-A:VAL:384:C:3396"]

$$$$
3ch_Grossjean_2025
     RDKit          3D

 55 57  0  0  0  0  0  0  0  0999 V2000
  133.1680  128.1160   75.2880 C   0  0  0  0  0  0  0  0  0  0  0  0
  131.7910  128.4760   75.3210 O   0  0  0  0  0  0  0  0  0  0  0  0
  130.9170  127.9170   74.4070 C   0  0  0  0  0  0  0  0  0  0  0  0
  130.5440  128.5300   73.2000 C   0  0  0  0  0  0  0  0  0  0  0  0
  129.6580  127.8980   72.3160 C   0  0  0  0  0  0  0  0  0  0  0  0
  129.2310  128.4300   71.0840 N   0  0  0  0  0  0  0  0  0  0  0  0
  128.6270  127.8170   70.0430 C   0  0  0  0  0  0  0  0  0  0  0  0
  128.3180  126.6270   69.9960 O   0  0  0  0  0  0  0  0  0  0  0  0
  128.2760  128.7200   68.8600 C   0  0  0  0  0  0  0  0  0  0  0  0
  126.5610  128.4880   68.3040 S   0  0  0  0  0  0  0  0  0  0  0  0
  126.5190  129.0070   66.6030 C   0  0  0  0  0  0  0  0  0  0  0  0
  127.6710  128.7710   65.9270 N   0  0  0  0  0  0  0  0  0  0  0  0
  127.7440  129.1370   64.6280 C   0  0  0  0  0  0  0  0  0  0  0  0
  129.0620  128.8490   63.9340 C   0  0  0  0  0  0  0  0  0  0  0  0
  126.6860  129.7460   63.9580 C   0  0  0  0  0  0  0  0  0  0  0  0
  125.4840  129.9920   64.6370 C   0  0  0  0  0  0  0  0  0  0  0  0
  124.3790  130.6560   63.8810 C   0  0  0  0  0  0  0  0  0  0  0  0
  123.2730  129.9120   63.4530 C   0  0  0  0  0  0  0  0  0  0  0  0
  122.2440  130.5230   62.7410 C   0  0  0  0  0  0  0  0  0  0  0  0
  122.3190  131.8830   62.4510 C   0  0  0  0  0  0  0  0  0  0  0  0
  123.4150  132.6360   62.8640 C   0  0  0  0  0  0  0  0  0  0  0  0
  124.4430  132.0210   63.5750 C   0  0  0  0  0  0  0  0  0  0  0  0
  125.3850  129.5960   65.9960 C   0  0  0  0  0  0  0  0  0  0  0  0
  124.1230  129.7420   66.7270 C   0  0  0  0  0  0  0  0  0  0  0  0
  123.1270  129.8580   67.3050 N   0  0  0  0  0  0  0  0  0  0  0  0
  129.1300  126.6520   72.6580 C   0  0  0  0  0  0  0  0  0  0  0  0
  129.4860  126.0190   73.8590 C   0  0  0  0  0  0  0  0  0  0  0  0
  129.0060  124.7820   74.2530 O   0  0  0  0  0  0  0  0  0  0  0  0
  129.3650  123.6220   73.5100 C   0  0  0  0  0  0  0  0  0  0  0  0
  130.3780  126.6630   74.7260 C   0  0  0  0  0  0  0  0  0  0  0  0
  130.7480  126.0470   75.8980 O   0  0  0  0  0  0  0  0  0  0  0  0
  131.7160  125.0200   75.7310 C   0  0  0  0  0  0  0  0  0  0  0  0
  133.5459  128.0172   76.3163 H   0  0  0  0  0  0  0  0  0  0  0  0
  133.2838  127.1574   74.7611 H   0  0  0  0  0  0  0  0  0  0  0  0
  133.7382  128.8953   74.7611 H   0  0  0  0  0  0  0  0  0  0  0  0
  130.9523  129.5190   72.9447 H   0  0  0  0  0  0  0  0  0  0  0  0
  129.3670  129.4270   70.9950 H   0  0  0  0  0  0  0  0  0  0  0  0
  128.4115  129.7689   69.1626 H   0  0  0  0  0  0  0  0  0  0  0  0
  128.9406  128.4553   68.0244 H   0  0  0  0  0  0  0  0  0  0  0  0
  129.8440  128.6781   64.6885 H   0  0  0  0  0  0  0  0  0  0  0  0
  128.9571  127.9526   63.3052 H   0  0  0  0  0  0  0  0  0  0  0  0
  129.3405  129.7075   63.3052 H   0  0  0  0  0  0  0  0  0  0  0  0
  126.7926  130.0327   62.9014 H   0  0  0  0  0  0  0  0  0  0  0  0
  123.2164  128.8373   63.6807 H   0  0  0  0  0  0  0  0  0  0  0  0
  121.3761  129.9342   62.4092 H   0  0  0  0  0  0  0  0  0  0  0  0
  121.5052  132.3666   61.8907 H   0  0  0  0  0  0  0  0  0  0  0  0
  123.4687  133.7096   62.6303 H   0  0  0  0  0  0  0  0  0  0  0  0
  125.3121  132.6124   63.8987 H   0  0  0  0  0  0  0  0  0  0  0  0
  128.4232  126.1580   71.9750 H   0  0  0  0  0  0  0  0  0  0  0  0
  129.6175  122.8061   74.2033 H   0  0  0  0  0  0  0  0  0  0  0  0
  128.5195  123.3162   72.8763 H   0  0  0  0  0  0  0  0  0  0  0  0
  130.2354  123.8473   72.8763 H   0  0  0  0  0  0  0  0  0  0  0  0
  132.0493  124.6663   76.7178 H   0  0  0  0  0  0  0  0  0  0  0  0
  131.2704  124.1833   75.1730 H   0  0  0  0  0  0  0  0  0  0  0  0
  132.5775  125.4154   75.1730 H   0  0  0  0  0  0  0  0  0  0  0  0
  1  2  1  0
  2  3  1  0
  3  4  2  0
  4  5  1  0
  5  6  1  0
  6  7  1  0
  7  8  2  0
  7  9  1  0
  9 10  1  0
 10 11  1  0
 11 12  2  0
 12 13  1  0
 13 14  1  0
 13 15  2  0
 15 16  1  0
 16 17  1  0
 17 18  2  0
 18 19  1  0
 19 20  2  0
 20 21  1  0
 21 22  2  0
 16 23  2  0
 23 24  1  0
 24 25  3  0
  5 26  2  0
 26 27  1  0
 27 28  1  0
 28 29  1  0
 27 30  2  0
 30 31  1  0
 31 32  1  0
 30  3  1  0
 23 11  1  0
 22 17  1  0
  1 33  1  0
  1 34  1  0
  1 35  1  0
  4 36  1  0
  6 37  1  0
  9 38  1  0
  9 39  1  0
 14 40  1  0
 14 41  1  0
 14 42  1  0
 15 43  1  0
 18 44  1  0
 19 45  1  0
 20 46  1  0
 21 47  1  0
 22 48  1  0
 26 49  1  0
 29 50  1  0
 29 51  1  0
 29 52  1  0
 32 53  1  0
 32 54  1  0
 32 55  1  0
M  END
>  <Binding energies>  (1) 
[-8.21]

>  <Ligand effiencies>  (1) 
[-0.2487878787878788]

>  <Interactions>  (1) 
["V-B:ARG:545:CG:9893, V-B:GLU:543:CD:9879, V-B:HIS:456:CE1:9040, V-A:HIS:456:CE1:4069, V-A:GLU:543:CD:4907, V-B:LEU:475:CD1:9228, V-B:ARG:545:CZ:9897, H-B:TYR:484:OH:9318, V-B:ARG:545:CD:9894, H-B:GLY:454:N:9020, V-B:ASP:366:CG:8183, V-B:ILE:369:CG1:8208, H-B:ILE:455:N:9025, V-B:GLY:453:C:9012, V-B:GLY:453:CA:9014, V-B:GLY:454:CA:9019, V-B:SER:385:C:8375, H-A:LYS:547:NZ:4950, H-B:LYS:547:NZ:9922, V-A:HIS:456:CD2:4067, V-A:LYS:547:CD:4948, V-A:LYS:547:CE:4949, H-A:GLU:543:O:4902, H-B:HIS:456:NE2:9041"]

$$$$
3ci_Grossjean_2025
     RDKit          3D

 39 41  0  0  0  0  0  0  0  0999 V2000
  128.7400  122.4880   64.7610 C   0  0  0  0  0  0  0  0  0  0  0  0
  129.6530  122.6300   63.5580 C   0  0  0  0  0  0  0  0  0  0  0  0
  130.2230  121.5220   62.9370 C   0  0  0  0  0  0  0  0  0  0  0  0
  131.0470  121.7040   61.8180 C   0  0  0  0  0  0  0  0  0  0  0  0
  131.6240  120.4850   61.1740 C   0  0  0  0  0  0  0  0  0  0  0  0
  130.8430  119.3380   60.9840 C   0  0  0  0  0  0  0  0  0  0  0  0
  131.3880  118.2020   60.3920 C   0  0  0  0  0  0  0  0  0  0  0  0
  132.7210  118.2060   59.9920 C   0  0  0  0  0  0  0  0  0  0  0  0
  133.5130  119.3360   60.1810 C   0  0  0  0  0  0  0  0  0  0  0  0
  132.9650  120.4700   60.7730 C   0  0  0  0  0  0  0  0  0  0  0  0
  131.2830  123.0260   61.3610 C   0  0  0  0  0  0  0  0  0  0  0  0
  132.1700  123.2800   60.2210 C   0  0  0  0  0  0  0  0  0  0  0  0
  132.8710  123.4800   59.3210 N   0  0  0  0  0  0  0  0  0  0  0  0
  130.6600  124.0960   62.0490 C   0  0  0  0  0  0  0  0  0  0  0  0
  130.8690  125.7990   61.5460 S   0  0  0  0  0  0  0  0  0  0  0  0
  131.3380  126.8060   62.9910 C   0  0  0  0  0  0  0  0  0  0  0  0
  132.3710  126.1260   63.8970 C   0  0  0  0  0  0  0  0  0  0  0  0
  132.9990  125.1550   63.4710 O   0  0  0  0  0  0  0  0  0  0  0  0
  132.5040  126.6540   65.1340 N   0  0  0  0  0  0  0  0  0  0  0  0
  133.3810  126.2480   66.1320 C   0  0  0  0  0  0  0  0  0  0  0  0
  133.0710  126.3160   67.4890 C   0  0  0  0  0  0  0  0  0  0  0  0
  134.1860  125.8310   68.1350 C   0  0  0  0  0  0  0  0  0  0  0  0
  135.1180  125.4890   67.2130 O   0  0  0  0  0  0  0  0  0  0  0  0
  134.5960  125.7590   65.9470 N   0  0  0  0  0  0  0  0  0  0  0  0
  129.8660  123.8940   63.1310 N   0  0  0  0  0  0  0  0  0  0  0  0
  129.3320  122.5801   65.6835 H   0  0  0  0  0  0  0  0  0  0  0  0
  127.9749  123.2779   64.7359 H   0  0  0  0  0  0  0  0  0  0  0  0
  128.2510  121.5030   64.7359 H   0  0  0  0  0  0  0  0  0  0  0  0
  130.0279  120.5103   63.3221 H   0  0  0  0  0  0  0  0  0  0  0  0
  129.7909  119.3348   61.3050 H   0  0  0  0  0  0  0  0  0  0  0  0
  130.7682  117.3058   60.2412 H   0  0  0  0  0  0  0  0  0  0  0  0
  133.1525  117.3095   59.5228 H   0  0  0  0  0  0  0  0  0  0  0  0
  134.5663  119.3321   59.8639 H   0  0  0  0  0  0  0  0  0  0  0  0
  133.5906  121.3616   60.9270 H   0  0  0  0  0  0  0  0  0  0  0  0
  131.7607  127.7559   62.6318 H   0  0  0  0  0  0  0  0  0  0  0  0
  130.4285  126.9565   63.5911 H   0  0  0  0  0  0  0  0  0  0  0  0
  131.9250  127.4480   65.3620 H   0  0  0  0  0  0  0  0  0  0  0  0
  132.1379  126.6785   67.9451 H   0  0  0  0  0  0  0  0  0  0  0  0
  134.3016  125.7364   69.2248 H   0  0  0  0  0  0  0  0  0  0  0  0
  1  2  1  0
  2  3  2  0
  3  4  1  0
  4  5  1  0
  5  6  2  0
  6  7  1  0
  7  8  2  0
  8  9  1  0
  9 10  2  0
  4 11  2  0
 11 12  1  0
 12 13  3  0
 11 14  1  0
 14 15  1  0
 15 16  1  0
 16 17  1  0
 17 18  2  0
 17 19  1  0
 19 20  1  0
 20 21  1  0
 21 22  2  0
 22 23  1  0
 23 24  1  0
 14 25  2  0
 25  2  1  0
 10  5  1  0
 24 20  2  0
  1 26  1  0
  1 27  1  0
  1 28  1  0
  3 29  1  0
  6 30  1  0
  7 31  1  0
  8 32  1  0
  9 33  1  0
 10 34  1  0
 16 35  1  0
 16 36  1  0
 19 37  1  0
 21 38  1  0
 22 39  1  0
M  END
>  <Binding energies>  (1) 
[-8.26]

>  <Ligand effiencies>  (1) 
[-0.31769230769230766]

>  <Interactions>  (1) 
["V-B:GLU:543:CD:9879, H-A:GLY:454:N:4049, V-A:HIS:456:CE1:4069, H-A:ARG:545:NH1:4926, V-A:GLU:543:CD:4907, H-A:ARG:545:NH2:4927, V-A:TYR:484:CZ:4346, V-A:ARG:545:CZ:4925, V-B:ALA:541:CB:9863, V-A:ARG:545:CD:4922, V-A:ARG:545:CG:4921, V-B:TYR:539:CE2:9847, V-B:TYR:539:CD2:9845, H-A:ARG:545:NE:4923, H-A:TYR:484:OH:4347, H-A:GLU:543:OE2:4909, V-B:ALA:541:C:9859, V-B:GLU:543:CG:9878, V-B:ALA:541:CA:9861, V-B:TYR:539:CB:9842, V-A:SER:385:CB:3408, V-A:ILE:369:CG2:3236, V-A:SER:385:CA:3406, V-A:LEU:475:CD2:4258, H-A:ILE:455:N:4054, H-A:GLU:543:OE1:4908, H-B:TYR:539:OH:9849, V-A:ILE:455:C:4051, V-A:HIS:456:CG:4065, V-A:HIS:456:CD2:4067, V-A:ARG:545:CB:4920"]

$$$$
3cj_Grossjean_2025
     RDKit          3D

 39 41  0  0  0  0  0  0  0  0999 V2000
  130.6250  127.0450   67.7560 C   0  0  0  0  0  0  0  0  0  0  0  0
  129.1920  127.4860   67.9810 C   0  0  0  0  0  0  0  0  0  0  0  0
  128.5420  128.3330   67.0850 C   0  0  0  0  0  0  0  0  0  0  0  0
  127.2090  128.6970   67.3200 C   0  0  0  0  0  0  0  0  0  0  0  0
  126.5320  129.5520   66.3010 C   0  0  0  0  0  0  0  0  0  0  0  0
  127.1160  130.7530   65.8800 C   0  0  0  0  0  0  0  0  0  0  0  0
  126.4770  131.5560   64.9390 C   0  0  0  0  0  0  0  0  0  0  0  0
  125.2470  131.1630   64.4200 C   0  0  0  0  0  0  0  0  0  0  0  0
  124.6490  129.9770   64.8360 C   0  0  0  0  0  0  0  0  0  0  0  0
  125.2900  129.1750   65.7770 C   0  0  0  0  0  0  0  0  0  0  0  0
  126.5740  128.2130   68.4900 C   0  0  0  0  0  0  0  0  0  0  0  0
  125.1900  128.5820   68.8060 C   0  0  0  0  0  0  0  0  0  0  0  0
  124.0970  128.8730   69.0540 N   0  0  0  0  0  0  0  0  0  0  0  0
  127.3080  127.3560   69.3410 C   0  0  0  0  0  0  0  0  0  0  0  0
  126.5890  126.5720   70.7690 S   0  0  0  0  0  0  0  0  0  0  0  0
  127.9950  126.2440   71.8780 C   0  0  0  0  0  0  0  0  0  0  0  0
  127.7050  126.6890   73.3150 C   0  0  0  0  0  0  0  0  0  0  0  0
  128.5810  126.5780   74.1750 O   0  0  0  0  0  0  0  0  0  0  0  0
  126.4800  127.2210   73.5190 N   0  0  0  0  0  0  0  0  0  0  0  0
  126.0200  127.8170   74.6830 C   0  0  0  0  0  0  0  0  0  0  0  0
  126.7300  128.2780   75.6890 N   0  0  0  0  0  0  0  0  0  0  0  0
  125.9620  128.8090   76.6190 C   0  0  0  0  0  0  0  0  0  0  0  0
  124.5920  128.7850   76.3750 C   0  0  0  0  0  0  0  0  0  0  0  0
  124.3040  128.0210   74.8400 S   0  0  0  0  0  0  0  0  0  0  0  0
  128.5890  126.9920   69.0850 N   0  0  0  0  0  0  0  0  0  0  0  0
  131.1187  126.8931   68.7272 H   0  0  0  0  0  0  0  0  0  0  0  0
  130.6338  126.1026   67.1888 H   0  0  0  0  0  0  0  0  0  0  0  0
  131.1622  127.8194   67.1888 H   0  0  0  0  0  0  0  0  0  0  0  0
  129.0717  128.7133   66.1992 H   0  0  0  0  0  0  0  0  0  0  0  0
  128.0859  131.0641   66.2954 H   0  0  0  0  0  0  0  0  0  0  0  0
  126.9420  132.4962   64.6075 H   0  0  0  0  0  0  0  0  0  0  0  0
  124.7429  131.7953   63.6743 H   0  0  0  0  0  0  0  0  0  0  0  0
  123.6751  129.6747   64.4236 H   0  0  0  0  0  0  0  0  0  0  0  0
  124.8173  128.2394   66.1105 H   0  0  0  0  0  0  0  0  0  0  0  0
  128.2054  125.1643   71.8757 H   0  0  0  0  0  0  0  0  0  0  0  0
  128.8593  126.8172   71.5114 H   0  0  0  0  0  0  0  0  0  0  0  0
  125.8580  127.2710   72.7250 H   0  0  0  0  0  0  0  0  0  0  0  0
  126.3805  129.2469   77.5372 H   0  0  0  0  0  0  0  0  0  0  0  0
  123.8167  129.1848   77.0451 H   0  0  0  0  0  0  0  0  0  0  0  0
  1  2  1  0
  2  3  2  0
  3  4  1  0
  4  5  1  0
  5  6  2  0
  6  7  1  0
  7  8  2  0
  8  9  1  0
  9 10  2  0
  4 11  2  0
 11 12  1  0
 12 13  3  0
 11 14  1  0
 14 15  1  0
 15 16  1  0
 16 17  1  0
 17 18  2  0
 17 19  1  0
 19 20  1  0
 20 21  2  0
 21 22  1  0
 22 23  2  0
 23 24  1  0
 14 25  2  0
 25  2  1  0
 10  5  1  0
 24 20  1  0
  1 26  1  0
  1 27  1  0
  1 28  1  0
  3 29  1  0
  6 30  1  0
  7 31  1  0
  8 32  1  0
  9 33  1  0
 10 34  1  0
 16 35  1  0
 16 36  1  0
 19 37  1  0
 22 38  1  0
 23 39  1  0
M  END
>  <Binding energies>  (1) 
[-7.88]

>  <Ligand effiencies>  (1) 
[-0.3030769230769231]

>  <Interactions>  (1) 
["V-B:ARG:545:CG:9893, V-B:GLU:543:CB:9877, V-B:GLU:543:CD:9879, V-B:HIS:456:CE1:9040, V-A:HIS:456:CE1:4069, V-B:ARG:545:CZ:9897, H-B:TYR:484:OH:9318, V-B:TYR:484:CZ:9317, V-B:GLU:543:C:9873, V-B:GLY:544:C:9883, H-B:ARG:545:N:9891, V-B:ARG:545:CA:9890, V-B:ARG:545:CB:9892, H-B:HIS:456:ND1:9037, V-B:LYS:547:CE:9921, H-B:LYS:547:NZ:9922, H-B:GLY:544:O:9884, V-B:HIS:456:CG:9036, V-B:HIS:456:CD2:9038, V-B:HIS:456:CB:9035, V-B:LYS:547:CD:9920, H-B:HIS:456:NE2:9041, V-B:VAL:458:CG2:9057, V-B:HIS:456:CA:9033"]

$$$$
3ck_Grossjean_2025
     RDKit          3D

 57 58  0  0  0  0  0  0  0  0999 V2000
  123.8510  129.6610   67.0640 C   0  0  0  0  0  0  0  0  0  0  0  0
  124.0650  130.0400   65.7130 O   0  0  0  0  0  0  0  0  0  0  0  0
  124.9530  129.1760   65.0170 C   0  0  0  0  0  0  0  0  0  0  0  0
  126.1710  129.9730   64.5320 C   0  0  0  0  0  0  0  0  0  0  0  0
  126.5420  130.9170   65.5290 O   0  0  0  0  0  0  0  0  0  0  0  0
  127.9420  130.9880   65.7630 C   0  0  0  0  0  0  0  0  0  0  0  0
  128.2160  130.7120   67.2470 C   0  0  0  0  0  0  0  0  0  0  0  0
  128.8930  129.4680   67.3530 O   0  0  0  0  0  0  0  0  0  0  0  0
  128.5810  128.7170   68.5160 C   0  0  0  0  0  0  0  0  0  0  0  0
  129.4010  127.4130   68.5240 C   0  0  0  0  0  0  0  0  0  0  0  0
  130.4680  127.3810   67.5190 N   0  0  0  0  0  0  0  0  0  0  0  0
  130.9540  126.2760   66.9260 C   0  0  0  0  0  0  0  0  0  0  0  0
  130.5240  125.1440   67.1510 O   0  0  0  0  0  0  0  0  0  0  0  0
  132.0970  126.5110   65.9250 C   0  0  0  0  0  0  0  0  0  0  0  0
  131.7080  126.1170   64.1850 S   0  0  0  0  0  0  0  0  0  0  0  0
  131.2710  124.3890   64.0600 C   0  0  0  0  0  0  0  0  0  0  0  0
  130.3660  123.9460   64.9680 N   0  0  0  0  0  0  0  0  0  0  0  0
  129.9930  122.6470   64.9340 C   0  0  0  0  0  0  0  0  0  0  0  0
  128.9800  122.2250   65.9810 C   0  0  0  0  0  0  0  0  0  0  0  0
  130.5010  121.7440   64.0050 C   0  0  0  0  0  0  0  0  0  0  0  0
  131.4420  122.1780   63.0610 C   0  0  0  0  0  0  0  0  0  0  0  0
  131.9780  121.1690   62.0980 C   0  0  0  0  0  0  0  0  0  0  0  0
  131.1250  120.2140   61.5340 C   0  0  0  0  0  0  0  0  0  0  0  0
  131.6190  119.2640   60.6430 C   0  0  0  0  0  0  0  0  0  0  0  0
  132.9730  119.2630   60.3180 C   0  0  0  0  0  0  0  0  0  0  0  0
  133.8360  120.2020   60.8780 C   0  0  0  0  0  0  0  0  0  0  0  0
  133.3390  121.1500   61.7680 C   0  0  0  0  0  0  0  0  0  0  0  0
  131.8330  123.5420   63.0770 C   0  0  0  0  0  0  0  0  0  0  0  0
  132.7830  124.0610   62.0870 C   0  0  0  0  0  0  0  0  0  0  0  0
  133.5320  124.4710   61.3050 N   0  0  0  0  0  0  0  0  0  0  0  0
  124.2811  130.4227   67.7310 H   0  0  0  0  0  0  0  0  0  0  0  0
  122.7710  129.5749   67.2540 H   0  0  0  0  0  0  0  0  0  0  0  0
  124.3351  128.6917   67.2540 H   0  0  0  0  0  0  0  0  0  0  0  0
  125.2857  128.3728   65.6909 H   0  0  0  0  0  0  0  0  0  0  0  0
  124.4340  128.7387   64.1513 H   0  0  0  0  0  0  0  0  0  0  0  0
  127.0096  129.2858   64.3463 H   0  0  0  0  0  0  0  0  0  0  0  0
  125.9191  130.5007   63.6003 H   0  0  0  0  0  0  0  0  0  0  0  0
  128.4573  130.2363   65.1470 H   0  0  0  0  0  0  0  0  0  0  0  0
  128.3125  131.9890   65.4970 H   0  0  0  0  0  0  0  0  0  0  0  0
  128.8434  131.5133   67.6645 H   0  0  0  0  0  0  0  0  0  0  0  0
  127.2695  130.6766   67.8064 H   0  0  0  0  0  0  0  0  0  0  0  0
  128.8254  129.3087   69.4105 H   0  0  0  0  0  0  0  0  0  0  0  0
  127.5082  128.4741   68.5173 H   0  0  0  0  0  0  0  0  0  0  0  0
  129.8569  127.2956   69.5182 H   0  0  0  0  0  0  0  0  0  0  0  0
  128.7064  126.5953   68.2813 H   0  0  0  0  0  0  0  0  0  0  0  0
  130.8660  128.2740   67.2670 H   0  0  0  0  0  0  0  0  0  0  0  0
  132.3809  127.5724   65.9773 H   0  0  0  0  0  0  0  0  0  0  0  0
  132.9032  125.8226   66.2186 H   0  0  0  0  0  0  0  0  0  0  0  0
  129.3960  122.3983   66.9845 H   0  0  0  0  0  0  0  0  0  0  0  0
  128.0593  122.8144   65.8589 H   0  0  0  0  0  0  0  0  0  0  0  0
  128.7501  121.1562   65.8589 H   0  0  0  0  0  0  0  0  0  0  0  0
  130.1662  120.6962   64.0114 H   0  0  0  0  0  0  0  0  0  0  0  0
  130.0567  120.2134   61.7961 H   0  0  0  0  0  0  0  0  0  0  0  0
  130.9431  118.5186   60.1985 H   0  0  0  0  0  0  0  0  0  0  0  0
  133.3643  118.5145   59.6132 H   0  0  0  0  0  0  0  0  0  0  0  0
  134.9049  120.1945   60.6183 H   0  0  0  0  0  0  0  0  0  0  0  0
  134.0199  121.8892   62.2152 H   0  0  0  0  0  0  0  0  0  0  0  0
  1  2  1  0
  2  3  1  0
  3  4  1  0
  4  5  1  0
  5  6  1  0
  6  7  1  0
  7  8  1  0
  8  9  1  0
  9 10  1  0
 10 11  1  0
 11 12  1  0
 12 13  2  0
 12 14  1  0
 14 15  1  0
 15 16  1  0
 16 17  2  0
 17 18  1  0
 18 19  1  0
 18 20  2  0
 20 21  1  0
 21 22  1  0
 22 23  2  0
 23 24  1  0
 24 25  2  0
 25 26  1  0
 26 27  2  0
 21 28  2  0
 28 29  1  0
 29 30  3  0
 28 16  1  0
 27 22  1  0
  1 31  1  0
  1 32  1  0
  1 33  1  0
  3 34  1  0
  3 35  1  0
  4 36  1  0
  4 37  1  0
  6 38  1  0
  6 39  1  0
  7 40  1  0
  7 41  1  0
  9 42  1  0
  9 43  1  0
 10 44  1  0
 10 45  1  0
 11 46  1  0
 14 47  1  0
 14 48  1  0
 19 49  1  0
 19 50  1  0
 19 51  1  0
 20 52  1  0
 23 53  1  0
 24 54  1  0
 25 55  1  0
 26 56  1  0
 27 57  1  0
M  END
>  <Binding energies>  (1) 
[-6.34]

>  <Ligand effiencies>  (1) 
[-0.20451612903225805]

>  <Interactions>  (1) 
["V-B:ARG:545:CG:9893, V-A:GLU:543:CB:4905, V-B:GLU:543:CB:9877, V-A:GLU:543:CG:4906, V-B:GLU:543:CD:9879, V-B:HIS:456:CE1:9040, V-A:HIS:456:CE1:4069, V-A:GLU:543:CD:4907, V-B:ARG:545:CZ:9897, H-B:TYR:484:OH:9318, H-A:ARG:545:NH2:4927, V-B:ARG:545:CD:9894, H-B:GLY:454:N:9020, V-B:TYR:484:CZ:9317, V-B:TYR:484:CE2:9316, V-A:TYR:484:CZ:4346, V-A:ARG:545:CZ:4925, V-B:ALA:541:CB:9863, V-B:TYR:539:CE2:9847, V-B:TYR:539:CD2:9845, H-A:TYR:484:OH:4347, V-B:ALA:541:C:9859, V-B:GLU:543:CG:9878, V-A:SER:385:CB:3408, V-A:ILE:369:CG2:3236, V-A:SER:385:CA:3406, V-A:TYR:484:CE2:4345, V-A:LEU:475:CD2:4258, V-B:GLY:454:CA:9019, V-A:SER:385:C:3404, V-B:GLU:543:CA:9875, V-A:LEU:475:CD1:4257, H-A:GLU:543:OE1:4908"]

$$$$
4aa_Grossjean_2025
     RDKit          3D

 45 47  0  0  0  0  0  0  0  0999 V2000
  131.0990  122.4790   73.7840 C   0  0  0  0  0  0  0  0  0  0  0  0
  129.6910  122.9480   73.4030 C   0  0  0  0  0  0  0  0  0  0  0  0
  129.7820  124.1420   72.6370 O   0  0  0  0  0  0  0  0  0  0  0  0
  129.0790  125.2520   72.9820 C   0  0  0  0  0  0  0  0  0  0  0  0
  129.0500  125.7090   74.1300 O   0  0  0  0  0  0  0  0  0  0  0  0
  128.3380  125.8670   71.8310 C   0  0  0  0  0  0  0  0  0  0  0  0
  128.9990  126.0480   70.6090 C   0  0  0  0  0  0  0  0  0  0  0  0
  128.3400  126.6200   69.5250 C   0  0  0  0  0  0  0  0  0  0  0  0
  127.0060  127.0130   69.6350 C   0  0  0  0  0  0  0  0  0  0  0  0
  126.4400  127.5870   68.4800 N   0  0  0  0  0  0  0  0  0  0  0  0
  125.3210  128.3380   68.3370 C   0  0  0  0  0  0  0  0  0  0  0  0
  124.5520  128.6170   69.2570 O   0  0  0  0  0  0  0  0  0  0  0  0
  125.0500  128.7990   66.9740 C   0  0  0  0  0  0  0  0  0  0  0  0
  123.4210  129.3010   66.5120 S   0  0  0  0  0  0  0  0  0  0  0  0
  123.9340  129.6190   64.8700 C   0  0  0  0  0  0  0  0  0  0  0  0
  123.0880  130.0650   63.9400 N   0  0  0  0  0  0  0  0  0  0  0  0
  123.6130  130.2660   62.7070 C   0  0  0  0  0  0  0  0  0  0  0  0
  122.6320  130.7690   61.6620 C   0  0  0  0  0  0  0  0  0  0  0  0
  124.9490  130.0390   62.3860 C   0  0  0  0  0  0  0  0  0  0  0  0
  125.8340  129.5730   63.3650 C   0  0  0  0  0  0  0  0  0  0  0  0
  127.2840  129.3400   62.9670 C   0  0  0  0  0  0  0  0  0  0  0  0
  125.3200  129.3450   64.6700 C   0  0  0  0  0  0  0  0  0  0  0  0
  125.9310  128.8750   65.8840 C   0  0  0  0  0  0  0  0  0  0  0  0
  127.2600  128.5390   65.9520 N   0  0  0  0  0  0  0  0  0  0  0  0
  126.3360  126.8400   70.8550 C   0  0  0  0  0  0  0  0  0  0  0  0
  126.9980  126.2710   71.9410 C   0  0  0  0  0  0  0  0  0  0  0  0
  131.1913  122.4483   74.8797 H   0  0  0  0  0  0  0  0  0  0  0  0
  131.2744  121.4739   73.3729 H   0  0  0  0  0  0  0  0  0  0  0  0
  131.8421  123.1781   73.3729 H   0  0  0  0  0  0  0  0  0  0  0  0
  129.1926  122.1679   72.8088 H   0  0  0  0  0  0  0  0  0  0  0  0
  129.1084  123.1408   74.3159 H   0  0  0  0  0  0  0  0  0  0  0  0
  130.0485  125.7351   70.5055 H   0  0  0  0  0  0  0  0  0  0  0  0
  128.8748  126.7633   68.5745 H   0  0  0  0  0  0  0  0  0  0  0  0
  126.9490  127.3910   67.6300 H   0  0  0  0  0  0  0  0  0  0  0  0
  121.7603  131.2159   62.1624 H   0  0  0  0  0  0  0  0  0  0  0  0
  123.1224  131.5269   61.0334 H   0  0  0  0  0  0  0  0  0  0  0  0
  122.3028  129.9284   61.0334 H   0  0  0  0  0  0  0  0  0  0  0  0
  125.3086  130.2259   61.3634 H   0  0  0  0  0  0  0  0  0  0  0  0
  127.9013  129.2408   63.8721 H   0  0  0  0  0  0  0  0  0  0  0  0
  127.3570  128.4186   62.3706 H   0  0  0  0  0  0  0  0  0  0  0  0
  127.6420  130.1921   62.3706 H   0  0  0  0  0  0  0  0  0  0  0  0
  127.9620  129.1990   66.2560 H   0  0  0  0  0  0  0  0  0  0  0  0
  127.5830  127.6170   65.6950 H   0  0  0  0  0  0  0  0  0  0  0  0
  125.2865  127.1540   70.9546 H   0  0  0  0  0  0  0  0  0  0  0  0
  126.4654  126.1370   72.8941 H   0  0  0  0  0  0  0  0  0  0  0  0
  1  2  1  0
  2  3  1  0
  3  4  1  0
  4  5  2  0
  4  6  1  0
  6  7  2  0
  7  8  1  0
  8  9  2  0
  9 10  1  0
 10 11  1  0
 11 12  2  0
 11 13  1  0
 13 14  1  0
 14 15  1  0
 15 16  2  0
 16 17  1  0
 17 18  1  0
 17 19  2  0
 19 20  1  0
 20 21  1  0
 20 22  2  0
 22 23  1  0
 23 24  1  0
  9 25  1  0
 25 26  2  0
 26  6  1  0
 23 13  2  0
 22 15  1  0
  1 27  1  0
  1 28  1  0
  1 29  1  0
  2 30  1  0
  2 31  1  0
  7 32  1  0
  8 33  1  0
 10 34  1  0
 18 35  1  0
 18 36  1  0
 18 37  1  0
 19 38  1  0
 21 39  1  0
 21 40  1  0
 21 41  1  0
 24 42  1  0
 24 43  1  0
 25 44  1  0
 26 45  1  0
M  END
>  <Binding energies>  (1) 
[-7.55]

>  <Ligand effiencies>  (1) 
[-0.2603448275862069]

>  <Interactions>  (1) 
["V-B:ARG:545:CG:9893, V-B:GLU:543:CB:9877, V-B:GLU:543:CD:9879, V-B:HIS:456:CE1:9040, V-A:HIS:456:CE1:4069, V-B:ARG:545:CZ:9897, H-B:TYR:484:OH:9318, V-B:ARG:545:CD:9894, H-B:GLY:454:N:9020, V-B:ASP:366:CG:8183, V-B:ILE:369:CG1:8208, V-B:GLU:543:C:9873, V-B:GLY:544:C:9883, H-B:ARG:545:NH1:9898, V-B:GLY:453:C:9012, V-B:GLY:453:CA:9014, V-B:ARG:545:CA:9890, H-B:GLU:543:OE2:9881, V-B:ASP:366:CA:8180, H-B:GLU:543:OE1:9880, H-B:HIS:456:ND1:9037, V-B:GLY:544:CA:9885, H-B:LYS:547:NZ:9922, V-A:HIS:456:CG:4065, V-A:HIS:456:CD2:4067, V-A:TYR:484:CG:4341, V-A:TYR:484:CB:4340, V-A:ASP:473:CG:4239, V-A:TYR:484:CD2:4343"]

$$$$
4ab_Grossjean_2025
     RDKit          3D

 42 44  0  0  0  0  0  0  0  0999 V2000
  129.5850  123.3340   73.3920 C   0  0  0  0  0  0  0  0  0  0  0  0
  128.7410  124.3600   73.8950 O   0  0  0  0  0  0  0  0  0  0  0  0
  129.0670  125.6690   73.7440 C   0  0  0  0  0  0  0  0  0  0  0  0
  129.7160  126.3090   74.5780 O   0  0  0  0  0  0  0  0  0  0  0  0
  128.5530  126.2650   72.4660 C   0  0  0  0  0  0  0  0  0  0  0  0
  127.2190  126.0440   72.0970 C   0  0  0  0  0  0  0  0  0  0  0  0
  126.7130  126.5820   70.9160 C   0  0  0  0  0  0  0  0  0  0  0  0
  127.5250  127.3560   70.0870 C   0  0  0  0  0  0  0  0  0  0  0  0
  126.9120  127.8430   68.9160 N   0  0  0  0  0  0  0  0  0  0  0  0
  125.6390  128.2550   68.7030 C   0  0  0  0  0  0  0  0  0  0  0  0
  124.7500  128.2270   69.5540 O   0  0  0  0  0  0  0  0  0  0  0  0
  125.3560  128.7320   67.3480 C   0  0  0  0  0  0  0  0  0  0  0  0
  123.7280  129.2530   66.9090 S   0  0  0  0  0  0  0  0  0  0  0  0
  124.2250  129.5850   65.2650 C   0  0  0  0  0  0  0  0  0  0  0  0
  123.3730  130.0460   64.3490 N   0  0  0  0  0  0  0  0  0  0  0  0
  123.8850  130.2580   63.1130 C   0  0  0  0  0  0  0  0  0  0  0  0
  122.8980  130.7780   62.0840 C   0  0  0  0  0  0  0  0  0  0  0  0
  125.2170  130.0270   62.7750 C   0  0  0  0  0  0  0  0  0  0  0  0
  126.1090  129.5430   63.7390 C   0  0  0  0  0  0  0  0  0  0  0  0
  127.5520  129.3050   63.3220 C   0  0  0  0  0  0  0  0  0  0  0  0
  125.6070  129.3030   65.0470 C   0  0  0  0  0  0  0  0  0  0  0  0
  126.2260  128.8130   66.2490 C   0  0  0  0  0  0  0  0  0  0  0  0
  127.5530  128.4640   66.2990 N   0  0  0  0  0  0  0  0  0  0  0  0
  128.8630  127.5780   70.4450 C   0  0  0  0  0  0  0  0  0  0  0  0
  129.3680  127.0380   71.6250 C   0  0  0  0  0  0  0  0  0  0  0  0
  130.0361  122.7856   74.2321 H   0  0  0  0  0  0  0  0  0  0  0  0
  128.9926  122.6404   72.7772 H   0  0  0  0  0  0  0  0  0  0  0  0
  130.3798  123.7816   72.7772 H   0  0  0  0  0  0  0  0  0  0  0  0
  126.5664  125.4408   72.7453 H   0  0  0  0  0  0  0  0  0  0  0  0
  125.6660  126.3952   70.6352 H   0  0  0  0  0  0  0  0  0  0  0  0
  127.5240  127.8720   68.1140 H   0  0  0  0  0  0  0  0  0  0  0  0
  122.0375  131.2314   62.5977 H   0  0  0  0  0  0  0  0  0  0  0  0
  123.3892  131.5344   61.4542 H   0  0  0  0  0  0  0  0  0  0  0  0
  122.5520  129.9451   61.4542 H   0  0  0  0  0  0  0  0  0  0  0  0
  125.5673  130.2249   61.7512 H   0  0  0  0  0  0  0  0  0  0  0  0
  128.1805  129.2013   64.2188 H   0  0  0  0  0  0  0  0  0  0  0  0
  127.6135  128.3846   62.7228 H   0  0  0  0  0  0  0  0  0  0  0  0
  127.9058  130.1569   62.7228 H   0  0  0  0  0  0  0  0  0  0  0  0
  127.8860  127.5830   65.9360 H   0  0  0  0  0  0  0  0  0  0  0  0
  128.2420  129.0800   66.7080 H   0  0  0  0  0  0  0  0  0  0  0  0
  129.5138  128.1792   69.7931 H   0  0  0  0  0  0  0  0  0  0  0  0
  130.4173  127.2194   71.9009 H   0  0  0  0  0  0  0  0  0  0  0  0
  1  2  1  0
  2  3  1  0
  3  4  2  0
  3  5  1  0
  5  6  2  0
  6  7  1  0
  7  8  2  0
  8  9  1  0
  9 10  1  0
 10 11  2  0
 10 12  1  0
 12 13  1  0
 13 14  1  0
 14 15  2  0
 15 16  1  0
 16 17  1  0
 16 18  2  0
 18 19  1  0
 19 20  1  0
 19 21  2  0
 21 22  1  0
 22 23  1  0
  8 24  1  0
 24 25  2  0
 25  5  1  0
 22 12  2  0
 21 14  1  0
  1 26  1  0
  1 27  1  0
  1 28  1  0
  6 29  1  0
  7 30  1  0
  9 31  1  0
 17 32  1  0
 17 33  1  0
 17 34  1  0
 18 35  1  0
 20 36  1  0
 20 37  1  0
 20 38  1  0
 23 39  1  0
 23 40  1  0
 24 41  1  0
 25 42  1  0
M  END
>  <Binding energies>  (1) 
[-7.38]

>  <Ligand effiencies>  (1) 
[-0.26357142857142857]

>  <Interactions>  (1) 
["V-B:ARG:545:CG:9893, V-B:GLU:543:CB:9877, V-B:GLU:543:CD:9879, V-B:HIS:456:CE1:9040, V-A:HIS:456:CE1:4069, V-B:ARG:545:CZ:9897, V-B:ARG:545:CD:9894, H-B:GLY:454:N:9020, V-B:ASP:366:CG:8183, V-B:GLU:543:C:9873, V-B:GLY:544:C:9883, H-B:ARG:545:NH1:9898, H-B:ARG:545:N:9891, H-B:GLU:543:OE2:9881, H-B:GLU:543:OE1:9880, H-B:HIS:456:ND1:9037, V-B:GLY:544:CA:9885, V-B:LYS:547:CE:9921, H-B:LYS:547:NZ:9922, V-A:HIS:456:CD2:4067"]

$$$$
4ac_Grossjean_2025
     RDKit          3D

 40 42  0  0  0  0  0  0  0  0999 V2000
  129.8920  124.7120   73.7310 C   0  0  0  0  0  0  0  0  0  0  0  0
  128.9390  125.7700   73.7330 O   0  0  0  0  0  0  0  0  0  0  0  0
  128.5280  126.3100   72.5300 C   0  0  0  0  0  0  0  0  0  0  0  0
  127.1930  126.1110   72.1820 C   0  0  0  0  0  0  0  0  0  0  0  0
  126.6870  126.6190   70.9880 C   0  0  0  0  0  0  0  0  0  0  0  0
  127.5130  127.3430   70.1280 C   0  0  0  0  0  0  0  0  0  0  0  0
  126.9190  127.8060   68.9390 N   0  0  0  0  0  0  0  0  0  0  0  0
  125.6430  128.2010   68.7160 C   0  0  0  0  0  0  0  0  0  0  0  0
  124.7550  128.1760   69.5710 O   0  0  0  0  0  0  0  0  0  0  0  0
  125.3580  128.6660   67.3560 C   0  0  0  0  0  0  0  0  0  0  0  0
  123.7450  129.2380   66.9290 S   0  0  0  0  0  0  0  0  0  0  0  0
  124.2430  129.5600   65.2830 C   0  0  0  0  0  0  0  0  0  0  0  0
  123.4010  130.0520   64.3740 N   0  0  0  0  0  0  0  0  0  0  0  0
  123.9140  130.2550   63.1370 C   0  0  0  0  0  0  0  0  0  0  0  0
  122.9400  130.8160   62.1170 C   0  0  0  0  0  0  0  0  0  0  0  0
  125.2350  129.9780   62.7900 C   0  0  0  0  0  0  0  0  0  0  0  0
  126.1160  129.4620   63.7460 C   0  0  0  0  0  0  0  0  0  0  0  0
  127.5480  129.1760   63.3200 C   0  0  0  0  0  0  0  0  0  0  0  0
  125.6140  129.2380   65.0570 C   0  0  0  0  0  0  0  0  0  0  0  0
  126.2270  128.7320   66.2560 C   0  0  0  0  0  0  0  0  0  0  0  0
  127.5440  128.3510   66.2990 N   0  0  0  0  0  0  0  0  0  0  0  0
  128.8610  127.5370   70.4640 C   0  0  0  0  0  0  0  0  0  0  0  0
  129.3630  127.0270   71.6590 C   0  0  0  0  0  0  0  0  0  0  0  0
  130.1384  124.4385   74.7676 H   0  0  0  0  0  0  0  0  0  0  0  0
  129.4696  123.8390   73.2119 H   0  0  0  0  0  0  0  0  0  0  0  0
  130.8042  125.0412   73.2119 H   0  0  0  0  0  0  0  0  0  0  0  0
  126.5325  125.5471   72.8571 H   0  0  0  0  0  0  0  0  0  0  0  0
  125.6332  126.4489   70.7224 H   0  0  0  0  0  0  0  0  0  0  0  0
  127.5340  127.8110   68.1380 H   0  0  0  0  0  0  0  0  0  0  0  0
  122.1008  131.2994   62.6386 H   0  0  0  0  0  0  0  0  0  0  0  0
  123.4549  131.5559   61.4866 H   0  0  0  0  0  0  0  0  0  0  0  0
  122.5584  129.9993   61.4866 H   0  0  0  0  0  0  0  0  0  0  0  0
  125.5849  130.1652   61.7641 H   0  0  0  0  0  0  0  0  0  0  0  0
  128.1780  129.0502   64.2129 H   0  0  0  0  0  0  0  0  0  0  0  0
  127.5749  128.2548   62.7195 H   0  0  0  0  0  0  0  0  0  0  0  0
  127.9267  130.0163   62.7195 H   0  0  0  0  0  0  0  0  0  0  0  0
  128.2500  128.9210   66.7410 H   0  0  0  0  0  0  0  0  0  0  0  0
  127.8520  127.4800   65.8890 H   0  0  0  0  0  0  0  0  0  0  0  0
  129.5224  128.0926   69.7829 H   0  0  0  0  0  0  0  0  0  0  0  0
  130.4192  127.1870   71.9214 H   0  0  0  0  0  0  0  0  0  0  0  0
  1  2  1  0
  2  3  1  0
  3  4  2  0
  4  5  1  0
  5  6  2  0
  6  7  1  0
  7  8  1  0
  8  9  2  0
  8 10  1  0
 10 11  1  0
 11 12  1  0
 12 13  2  0
 13 14  1  0
 14 15  1  0
 14 16  2  0
 16 17  1  0
 17 18  1  0
 17 19  2  0
 19 20  1  0
 20 21  1  0
  6 22  1  0
 22 23  2  0
 23  3  1  0
 20 10  2  0
 19 12  1  0
  1 24  1  0
  1 25  1  0
  1 26  1  0
  4 27  1  0
  5 28  1  0
  7 29  1  0
 15 30  1  0
 15 31  1  0
 15 32  1  0
 16 33  1  0
 18 34  1  0
 18 35  1  0
 18 36  1  0
 21 37  1  0
 21 38  1  0
 22 39  1  0
 23 40  1  0
M  END
>  <Binding energies>  (1) 
[-6.86]

>  <Ligand effiencies>  (1) 
[-0.26384615384615384]

>  <Interactions>  (1) 
["V-B:ARG:545:CG:9893, V-B:GLU:543:CB:9877, V-B:GLU:543:CD:9879, V-B:HIS:456:CE1:9040, V-A:HIS:456:CE1:4069, V-B:ARG:545:CZ:9897, V-B:ARG:545:CD:9894, H-B:GLY:454:N:9020, V-B:ASP:366:CG:8183, V-B:GLU:543:C:9873, V-B:GLY:544:C:9883, H-B:ARG:545:NH1:9898, H-B:ARG:545:N:9891, H-B:GLU:543:OE2:9881, H-B:GLU:543:OE1:9880, H-B:HIS:456:ND1:9037, V-B:GLY:544:CA:9885, H-B:LYS:547:NZ:9922, V-A:HIS:456:CD2:4067"]

$$$$
4ad_Grossjean_2025
     RDKit          3D

 36 38  0  0  0  0  0  0  0  0999 V2000
  122.5900  130.7690   61.6800 C   0  0  0  0  0  0  0  0  0  0  0  0
  123.5810  130.2580   62.7090 C   0  0  0  0  0  0  0  0  0  0  0  0
  124.9020  129.9850   62.3610 C   0  0  0  0  0  0  0  0  0  0  0  0
  125.7980  129.5120   63.3280 C   0  0  0  0  0  0  0  0  0  0  0  0
  127.2290  129.2260   62.8990 C   0  0  0  0  0  0  0  0  0  0  0  0
  125.3100  129.3280   64.6500 C   0  0  0  0  0  0  0  0  0  0  0  0
  125.9370  128.8700   65.8600 C   0  0  0  0  0  0  0  0  0  0  0  0
  127.2610  128.5090   65.9060 N   0  0  0  0  0  0  0  0  0  0  0  0
  125.0780  128.8310   66.9700 C   0  0  0  0  0  0  0  0  0  0  0  0
  125.3750  128.4060   68.3390 C   0  0  0  0  0  0  0  0  0  0  0  0
  124.5780  128.6270   69.2520 O   0  0  0  0  0  0  0  0  0  0  0  0
  126.5570  127.7610   68.5030 N   0  0  0  0  0  0  0  0  0  0  0  0
  127.1510  127.2680   69.6800 C   0  0  0  0  0  0  0  0  0  0  0  0
  128.5320  127.4570   69.7930 C   0  0  0  0  0  0  0  0  0  0  0  0
  129.2110  127.0140   70.9250 C   0  0  0  0  0  0  0  0  0  0  0  0
  128.5070  126.3870   71.9500 C   0  0  0  0  0  0  0  0  0  0  0  0
  127.1300  126.2050   71.8560 C   0  0  0  0  0  0  0  0  0  0  0  0
  126.4490  126.6460   70.7250 C   0  0  0  0  0  0  0  0  0  0  0  0
  123.4550  129.3720   66.5360 S   0  0  0  0  0  0  0  0  0  0  0  0
  123.9360  129.6430   64.8770 C   0  0  0  0  0  0  0  0  0  0  0  0
  123.0810  130.0940   63.9580 N   0  0  0  0  0  0  0  0  0  0  0  0
  121.7254  131.2148   62.1935 H   0  0  0  0  0  0  0  0  0  0  0  0
  123.0747  131.5296   61.0503 H   0  0  0  0  0  0  0  0  0  0  0  0
  122.2515  129.9330   61.0503 H   0  0  0  0  0  0  0  0  0  0  0  0
  125.2415  130.1410   61.3264 H   0  0  0  0  0  0  0  0  0  0  0  0
  127.8608  129.0997   63.7906 H   0  0  0  0  0  0  0  0  0  0  0  0
  127.2545  128.3050   62.2981 H   0  0  0  0  0  0  0  0  0  0  0  0
  127.6066  130.0664   62.2981 H   0  0  0  0  0  0  0  0  0  0  0  0
  127.9820  129.1570   66.1870 H   0  0  0  0  0  0  0  0  0  0  0  0
  127.5580  127.5740   65.6630 H   0  0  0  0  0  0  0  0  0  0  0  0
  127.0890  127.5890   67.6630 H   0  0  0  0  0  0  0  0  0  0  0  0
  129.0842  127.9578   68.9841 H   0  0  0  0  0  0  0  0  0  0  0  0
  130.2982  127.1586   71.0093 H   0  0  0  0  0  0  0  0  0  0  0  0
  129.0439  126.0323   72.8421 H   0  0  0  0  0  0  0  0  0  0  0  0
  126.5816  125.7140   72.6734 H   0  0  0  0  0  0  0  0  0  0  0  0
  125.3604  126.5072   70.6498 H   0  0  0  0  0  0  0  0  0  0  0  0
  1  2  1  0
  2  3  2  0
  3  4  1  0
  4  5  1  0
  4  6  2  0
  6  7  1  0
  7  8  1  0
  7  9  2  0
  9 10  1  0
 10 11  2  0
 10 12  1  0
 12 13  1  0
 13 14  2  0
 14 15  1  0
 15 16  2  0
 16 17  1  0
 17 18  2  0
  9 19  1  0
 19 20  1  0
 20 21  2  0
 21  2  1  0
 20  6  1  0
 18 13  1  0
  1 22  1  0
  1 23  1  0
  1 24  1  0
  3 25  1  0
  5 26  1  0
  5 27  1  0
  5 28  1  0
  8 29  1  0
  8 30  1  0
 12 31  1  0
 14 32  1  0
 15 33  1  0
 16 34  1  0
 17 35  1  0
 18 36  1  0
M  END
>  <Binding energies>  (1) 
[-6.7]

>  <Ligand effiencies>  (1) 
[-0.2791666666666667]

>  <Interactions>  (1) 
["V-B:ARG:545:CG:9893, V-B:GLU:543:CB:9877, V-B:GLU:543:CD:9879, V-B:HIS:456:CE1:9040, V-A:HIS:456:CE1:4069, V-B:ARG:545:CZ:9897, H-B:TYR:484:OH:9318, V-B:ARG:545:CD:9894, H-B:GLY:454:N:9020, V-B:ASP:366:CG:8183, V-B:ILE:369:CG1:8208, V-B:GLU:543:C:9873, V-B:GLY:544:C:9883, H-B:ARG:545:NH1:9898, V-B:GLY:453:C:9012, V-B:GLY:453:CA:9014, V-B:ARG:545:CA:9890, V-B:GLY:454:CA:9019, H-B:GLU:543:OE2:9881, V-B:ASP:366:CA:8180, H-B:GLU:543:OE1:9880, H-B:HIS:456:ND1:9037, V-B:GLY:544:CA:9885"]

$$$$
4ae_Grossjean_2025
     RDKit          3D

 38 40  0  0  0  0  0  0  0  0999 V2000
  121.5850  131.5120   62.4960 C   0  0  0  0  0  0  0  0  0  0  0  0
  122.8940  130.7480   62.4370 C   0  0  0  0  0  0  0  0  0  0  0  0
  123.5420  130.5010   61.2250 C   0  0  0  0  0  0  0  0  0  0  0  0
  124.7390  129.7850   61.2470 C   0  0  0  0  0  0  0  0  0  0  0  0
  125.2530  129.3370   62.4660 C   0  0  0  0  0  0  0  0  0  0  0  0
  124.5570  129.6270   63.6450 C   0  0  0  0  0  0  0  0  0  0  0  0
  125.1130  129.1320   64.8370 N   0  0  0  0  0  0  0  0  0  0  0  0
  124.8900  129.5430   66.1110 C   0  0  0  0  0  0  0  0  0  0  0  0
  124.1290  130.4650   66.4110 O   0  0  0  0  0  0  0  0  0  0  0  0
  125.6280  128.8130   67.1440 C   0  0  0  0  0  0  0  0  0  0  0  0
  124.8640  128.4400   68.6900 S   0  0  0  0  0  0  0  0  0  0  0  0
  126.3200  127.6720   69.2790 C   0  0  0  0  0  0  0  0  0  0  0  0
  126.3930  127.1400   70.4990 N   0  0  0  0  0  0  0  0  0  0  0  0
  127.5800  126.5800   70.8350 C   0  0  0  0  0  0  0  0  0  0  0  0
  127.6430  125.9880   72.2310 C   0  0  0  0  0  0  0  0  0  0  0  0
  128.6850  126.5370   69.9860 C   0  0  0  0  0  0  0  0  0  0  0  0
  128.6040  127.0950   68.7050 C   0  0  0  0  0  0  0  0  0  0  0  0
  129.8370  127.0270   67.8160 C   0  0  0  0  0  0  0  0  0  0  0  0
  127.3740  127.6940   68.3180 C   0  0  0  0  0  0  0  0  0  0  0  0
  126.9530  128.3490   67.1080 C   0  0  0  0  0  0  0  0  0  0  0  0
  127.7850  128.4980   66.0270 N   0  0  0  0  0  0  0  0  0  0  0  0
  123.3810  130.3210   63.6300 N   0  0  0  0  0  0  0  0  0  0  0  0
  121.3034  131.6764   63.5466 H   0  0  0  0  0  0  0  0  0  0  0  0
  121.7039  132.4825   61.9921 H   0  0  0  0  0  0  0  0  0  0  0  0
  120.7984  130.9312   61.9921 H   0  0  0  0  0  0  0  0  0  0  0  0
  123.1189  130.8622   60.2760 H   0  0  0  0  0  0  0  0  0  0  0  0
  125.2750  129.5744   60.3098 H   0  0  0  0  0  0  0  0  0  0  0  0
  126.1916  128.7643   62.4989 H   0  0  0  0  0  0  0  0  0  0  0  0
  125.8050  128.4090   64.7130 H   0  0  0  0  0  0  0  0  0  0  0  0
  127.5573  126.7936   72.9751 H   0  0  0  0  0  0  0  0  0  0  0  0
  126.8156  125.2756   72.3649 H   0  0  0  0  0  0  0  0  0  0  0  0
  128.6018  125.4657   72.3649 H   0  0  0  0  0  0  0  0  0  0  0  0
  129.6198  126.0649   70.3226 H   0  0  0  0  0  0  0  0  0  0  0  0
  130.7391  126.9772   68.4434 H   0  0  0  0  0  0  0  0  0  0  0  0
  129.7822  126.1305   67.1809 H   0  0  0  0  0  0  0  0  0  0  0  0
  129.8811  127.9241   67.1809 H   0  0  0  0  0  0  0  0  0  0  0  0
  128.1270  127.7050   65.5030 H   0  0  0  0  0  0  0  0  0  0  0  0
  128.0840  129.4130   65.7170 H   0  0  0  0  0  0  0  0  0  0  0  0
  1  2  1  0
  2  3  2  0
  3  4  1  0
  4  5  2  0
  5  6  1  0
  6  7  1  0
  7  8  1  0
  8  9  2  0
  8 10  1  0
 10 11  1  0
 11 12  1  0
 12 13  2  0
 13 14  1  0
 14 15  1  0
 14 16  2  0
 16 17  1  0
 17 18  1  0
 17 19  2  0
 19 20  1  0
 20 21  1  0
  6 22  2  0
 22  2  1  0
 20 10  2  0
 19 12  1  0
  1 23  1  0
  1 24  1  0
  1 25  1  0
  3 26  1  0
  4 27  1  0
  5 28  1  0
  7 29  1  0
 15 30  1  0
 15 31  1  0
 15 32  1  0
 16 33  1  0
 18 34  1  0
 18 35  1  0
 18 36  1  0
 21 37  1  0
 21 38  1  0
M  END
>  <Binding energies>  (1) 
[-7.25]

>  <Ligand effiencies>  (1) 
[-0.29]

>  <Interactions>  (1) 
["V-B:ARG:545:CG:9893, V-B:GLU:543:CB:9877, V-B:GLU:543:CD:9879, V-B:HIS:456:CE1:9040, V-A:HIS:456:CE1:4069, V-B:ARG:545:CZ:9897, H-B:TYR:484:OH:9318, V-B:ARG:545:CD:9894, H-B:GLY:454:N:9020, V-B:ASP:366:CG:8183, V-B:ILE:369:CG1:8208, V-B:GLU:543:C:9873, V-B:GLY:544:C:9883, H-B:ARG:545:N:9891, V-B:ASP:366:CB:8182, V-B:GLY:453:C:9012, V-B:GLY:453:CA:9014, V-B:ARG:545:CA:9890, V-B:ARG:545:CB:9892, H-B:GLU:543:OE2:9881, H-B:GLU:543:OE1:9880, H-B:HIS:456:ND1:9037, V-B:GLY:544:CA:9885"]

$$$$
4af_Grossjean_2025
     RDKit          3D

 35 37  0  0  0  0  0  0  0  0999 V2000
  134.8640  125.3800   67.2110 C   0  0  0  0  0  0  0  0  0  0  0  0
  133.5170  125.9230   66.7680 C   0  0  0  0  0  0  0  0  0  0  0  0
  133.1030  125.8180   65.4420 C   0  0  0  0  0  0  0  0  0  0  0  0
  131.8580  126.3280   65.0550 C   0  0  0  0  0  0  0  0  0  0  0  0
  131.4500  126.1920   63.5970 C   0  0  0  0  0  0  0  0  0  0  0  0
  131.0550  126.9450   66.0520 C   0  0  0  0  0  0  0  0  0  0  0  0
  129.7560  127.5630   66.0070 C   0  0  0  0  0  0  0  0  0  0  0  0
  129.0260  127.6480   64.8480 N   0  0  0  0  0  0  0  0  0  0  0  0
  129.3180  128.0600   67.2440 C   0  0  0  0  0  0  0  0  0  0  0  0
  128.0730  128.7670   67.5530 C   0  0  0  0  0  0  0  0  0  0  0  0
  128.0610  129.6850   68.3740 O   0  0  0  0  0  0  0  0  0  0  0  0
  126.9820  128.3480   66.8670 N   0  0  0  0  0  0  0  0  0  0  0  0
  125.6450  128.7780   66.9600 C   0  0  0  0  0  0  0  0  0  0  0  0
  124.8930  128.8490   68.1470 C   0  0  0  0  0  0  0  0  0  0  0  0
  123.5650  129.2780   68.0980 C   0  0  0  0  0  0  0  0  0  0  0  0
  123.0180  129.6220   66.8610 C   0  0  0  0  0  0  0  0  0  0  0  0
  123.7200  129.5540   65.7020 N   0  0  0  0  0  0  0  0  0  0  0  0
  125.0090  129.1350   65.7650 C   0  0  0  0  0  0  0  0  0  0  0  0
  130.5180  127.7740   68.5070 S   0  0  0  0  0  0  0  0  0  0  0  0
  131.5930  126.9890   67.3730 C   0  0  0  0  0  0  0  0  0  0  0  0
  132.7780  126.5030   67.7450 N   0  0  0  0  0  0  0  0  0  0  0  0
  134.9086  125.3620   68.3099 H   0  0  0  0  0  0  0  0  0  0  0  0
  134.9938  124.3593   66.8220 H   0  0  0  0  0  0  0  0  0  0  0  0
  135.6654  126.0253   66.8220 H   0  0  0  0  0  0  0  0  0  0  0  0
  133.7543  125.3344   64.6991 H   0  0  0  0  0  0  0  0  0  0  0  0
  130.4079  125.8446   63.5387 H   0  0  0  0  0  0  0  0  0  0  0  0
  131.5394  127.1685   63.0986 H   0  0  0  0  0  0  0  0  0  0  0  0
  132.1074  125.4644   63.0986 H   0  0  0  0  0  0  0  0  0  0  0  0
  128.3190  126.9670   64.6110 H   0  0  0  0  0  0  0  0  0  0  0  0
  129.1720  128.4020   64.1910 H   0  0  0  0  0  0  0  0  0  0  0  0
  127.1400  127.6240   66.1800 H   0  0  0  0  0  0  0  0  0  0  0  0
  125.3485  128.5682   69.1081 H   0  0  0  0  0  0  0  0  0  0  0  0
  122.9622  129.3435   69.0158 H   0  0  0  0  0  0  0  0  0  0  0  0
  121.9728  129.9629   66.8241 H   0  0  0  0  0  0  0  0  0  0  0  0
  125.5837  129.0726   64.8292 H   0  0  0  0  0  0  0  0  0  0  0  0
  1  2  1  0
  2  3  2  0
  3  4  1  0
  4  5  1  0
  4  6  2  0
  6  7  1  0
  7  8  1  0
  7  9  2  0
  9 10  1  0
 10 11  2  0
 10 12  1  0
 12 13  1  0
 13 14  2  0
 14 15  1  0
 15 16  2  0
 16 17  1  0
 17 18  2  0
  9 19  1  0
 19 20  1  0
 20 21  2  0
 21  2  1  0
 20  6  1  0
 18 13  1  0
  1 22  1  0
  1 23  1  0
  1 24  1  0
  3 25  1  0
  5 26  1  0
  5 27  1  0
  5 28  1  0
  8 29  1  0
  8 30  1  0
 12 31  1  0
 14 32  1  0
 15 33  1  0
 16 34  1  0
 18 35  1  0
M  END
>  <Binding energies>  (1) 
[-6.62]

>  <Ligand effiencies>  (1) 
[-0.2758333333333333]

>  <Interactions>  (1) 
["V-B:ARG:545:CG:9893, V-A:GLU:543:CB:4905, V-B:GLU:543:CD:9879, V-B:HIS:456:CE1:9040, V-A:HIS:456:CE1:4069, V-A:GLU:543:CD:4907, V-A:GLY:454:CA:4048, V-B:ARG:545:CZ:9897, H-B:TYR:484:OH:9318, V-B:ARG:545:CD:9894, H-B:GLY:454:N:9020, V-A:ARG:545:CZ:4925, V-A:GLY:453:CA:4043, V-A:ARG:545:CD:4922, V-A:ARG:545:CG:4921, H-A:TYR:484:OH:4347, H-A:GLU:543:OE2:4909, H-B:ARG:545:NE:9895, V-B:GLY:453:C:9012, V-B:GLY:453:CA:9014, V-B:ARG:545:CB:9892, V-B:GLY:454:CA:9019, H-B:GLU:543:OE2:9881, V-A:GLY:453:C:4041, H-B:GLU:543:OE1:9880, H-A:GLU:543:OE1:4908, V-B:ILE:455:C:9022, V-A:ILE:455:C:4051, V-A:GLY:454:C:4046"]

$$$$
4ag_Grossjean_2025
     RDKit          3D

 39 41  0  0  0  0  0  0  0  0999 V2000
  123.2780  124.5450   57.5920 C   0  0  0  0  0  0  0  0  0  0  0  0
  124.1900  124.1850   58.7500 C   0  0  0  0  0  0  0  0  0  0  0  0
  123.6790  123.9980   60.0330 C   0  0  0  0  0  0  0  0  0  0  0  0
  124.5370  123.6650   61.0870 C   0  0  0  0  0  0  0  0  0  0  0  0
  123.9320  123.4700   62.4690 C   0  0  0  0  0  0  0  0  0  0  0  0
  125.9210  123.5310   60.7970 C   0  0  0  0  0  0  0  0  0  0  0  0
  127.0560  123.2060   61.6190 C   0  0  0  0  0  0  0  0  0  0  0  0
  126.9400  122.9490   62.9620 N   0  0  0  0  0  0  0  0  0  0  0  0
  128.2730  123.1810   60.9230 C   0  0  0  0  0  0  0  0  0  0  0  0
  129.6090  122.8810   61.4380 C   0  0  0  0  0  0  0  0  0  0  0  0
  130.2870  123.7410   62.0050 O   0  0  0  0  0  0  0  0  0  0  0  0
  130.0530  121.6220   61.2400 N   0  0  0  0  0  0  0  0  0  0  0  0
  131.3400  121.0960   61.6920 C   0  0  0  0  0  0  0  0  0  0  0  0
  131.8140  119.8700   60.9200 C   0  0  0  0  0  0  0  0  0  0  0  0
  133.0150  119.9190   60.2050 C   0  0  0  0  0  0  0  0  0  0  0  0
  133.4620  118.7930   59.5190 C   0  0  0  0  0  0  0  0  0  0  0  0
  132.7140  117.6180   59.5600 C   0  0  0  0  0  0  0  0  0  0  0  0
  131.5250  117.5570   60.2830 C   0  0  0  0  0  0  0  0  0  0  0  0
  131.0780  118.6830   60.9690 C   0  0  0  0  0  0  0  0  0  0  0  0
  128.0420  123.5520   59.2140 S   0  0  0  0  0  0  0  0  0  0  0  0
  126.3180  123.7470   59.4440 C   0  0  0  0  0  0  0  0  0  0  0  0
  125.5020  124.0630   58.4370 N   0  0  0  0  0  0  0  0  0  0  0  0
  122.3214  124.9226   57.9823 H   0  0  0  0  0  0  0  0  0  0  0  0
  123.7555  125.3221   56.9771 H   0  0  0  0  0  0  0  0  0  0  0  0
  123.0959  123.6513   56.9771 H   0  0  0  0  0  0  0  0  0  0  0  0
  122.6006  124.1122   60.2172 H   0  0  0  0  0  0  0  0  0  0  0  0
  124.6829  123.7120   63.2355 H   0  0  0  0  0  0  0  0  0  0  0  0
  123.0623  124.1333   62.5854 H   0  0  0  0  0  0  0  0  0  0  0  0
  123.6133  122.4236   62.5854 H   0  0  0  0  0  0  0  0  0  0  0  0
  126.1050  122.5420   63.3570 H   0  0  0  0  0  0  0  0  0  0  0  0
  127.6940  123.1570   63.6030 H   0  0  0  0  0  0  0  0  0  0  0  0
  129.4220  120.9540   60.8200 H   0  0  0  0  0  0  0  0  0  0  0  0
  132.0955  121.8879   61.5814 H   0  0  0  0  0  0  0  0  0  0  0  0
  131.2060  120.7817   62.7376 H   0  0  0  0  0  0  0  0  0  0  0  0
  133.6060  120.8465   60.1847 H   0  0  0  0  0  0  0  0  0  0  0  0
  134.4011  118.8307   58.9474 H   0  0  0  0  0  0  0  0  0  0  0  0
  133.0662  116.7294   59.0157 H   0  0  0  0  0  0  0  0  0  0  0  0
  130.9424  116.6244   60.3118 H   0  0  0  0  0  0  0  0  0  0  0  0
  130.1450  118.6383   61.5499 H   0  0  0  0  0  0  0  0  0  0  0  0
  1  2  1  0
  2  3  2  0
  3  4  1  0
  4  5  1  0
  4  6  2  0
  6  7  1  0
  7  8  1  0
  7  9  2  0
  9 10  1  0
 10 11  2  0
 10 12  1  0
 12 13  1  0
 13 14  1  0
 14 15  2  0
 15 16  1  0
 16 17  2  0
 17 18  1  0
 18 19  2  0
  9 20  1  0
 20 21  1  0
 21 22  2  0
 22  2  1  0
 21  6  1  0
 19 14  1  0
  1 23  1  0
  1 24  1  0
  1 25  1  0
  3 26  1  0
  5 27  1  0
  5 28  1  0
  5 29  1  0
  8 30  1  0
  8 31  1  0
 12 32  1  0
 13 33  1  0
 13 34  1  0
 15 35  1  0
 16 36  1  0
 17 37  1  0
 18 38  1  0
 19 39  1  0
M  END
>  <Binding energies>  (1) 
[-7.15]

>  <Ligand effiencies>  (1) 
[-0.28600000000000003]

>  <Interactions>  (1) 
["V-B:GLU:543:CD:9879, V-B:ARG:545:CZ:9897, V-B:ASP:366:CG:8183, H-B:ALA:541:O:9860, V-B:PRO:540:CA:9854, V-B:PRO:540:CB:9856, V-B:ALA:541:CB:9863, V-B:PRO:540:C:9852, V-B:TYR:539:CE2:9847, V-B:ASN:362:CG:8147, V-B:TYR:539:CD2:9845, V-B:ASN:362:CB:8146, V-B:ASP:366:CB:8182, V-B:ALA:541:C:9859, V-A:LEU:373:CD2:3280, V-B:GLU:543:CG:9878, V-B:ALA:541:CA:9861, V-B:TYR:539:CB:9842, V-A:ILE:369:CG2:3236, V-A:SER:385:CA:3406, V-A:LEU:475:CD2:4258, V-B:TYR:531:CE2:9764, V-B:LEU:363:CD1:8159, V-B:TYR:531:CZ:9765, H-B:GLU:543:OE2:9881, H-B:TYR:539:O:9839, V-A:HIS:383:CE1:3393, V-B:LEU:363:CA:8155, V-A:VAL:384:C:3396"]

$$$$
4ah_Grossjean_2025
     RDKit          3D

 51 53  0  0  0  0  0  0  0  0999 V2000
  127.7650  131.1780   65.8740 C   0  0  0  0  0  0  0  0  0  0  0  0
  126.9380  130.1100   66.3210 O   0  0  0  0  0  0  0  0  0  0  0  0
  127.4940  129.0860   67.0670 C   0  0  0  0  0  0  0  0  0  0  0  0
  128.7930  128.5900   66.8710 C   0  0  0  0  0  0  0  0  0  0  0  0
  129.2880  127.5520   67.6610 C   0  0  0  0  0  0  0  0  0  0  0  0
  130.7170  127.0580   67.4650 C   0  0  0  0  0  0  0  0  0  0  0  0
  130.8540  126.0800   66.3850 N   0  0  0  0  0  0  0  0  0  0  0  0
  131.9900  125.8230   65.7030 C   0  0  0  0  0  0  0  0  0  0  0  0
  133.0400  126.4340   65.9070 O   0  0  0  0  0  0  0  0  0  0  0  0
  131.8960  124.7960   64.6660 C   0  0  0  0  0  0  0  0  0  0  0  0
  130.9800  123.3180   64.9630 S   0  0  0  0  0  0  0  0  0  0  0  0
  131.3910  122.6930   63.3810 C   0  0  0  0  0  0  0  0  0  0  0  0
  130.9590  121.5050   62.9570 N   0  0  0  0  0  0  0  0  0  0  0  0
  131.3480  121.1400   61.7120 C   0  0  0  0  0  0  0  0  0  0  0  0
  130.8470  119.7830   61.2500 C   0  0  0  0  0  0  0  0  0  0  0  0
  132.1500  121.9260   60.8890 C   0  0  0  0  0  0  0  0  0  0  0  0
  132.6050  123.1720   61.3370 C   0  0  0  0  0  0  0  0  0  0  0  0
  133.4790  123.9940   60.4020 C   0  0  0  0  0  0  0  0  0  0  0  0
  132.2190  123.5890   62.6400 C   0  0  0  0  0  0  0  0  0  0  0  0
  132.5020  124.7760   63.4010 C   0  0  0  0  0  0  0  0  0  0  0  0
  133.2860  125.7910   62.9150 N   0  0  0  0  0  0  0  0  0  0  0  0
  128.4930  127.0210   68.6780 C   0  0  0  0  0  0  0  0  0  0  0  0
  127.1890  127.4940   68.8930 C   0  0  0  0  0  0  0  0  0  0  0  0
  126.3420  127.0040   69.8710 O   0  0  0  0  0  0  0  0  0  0  0  0
  126.8900  126.5410   71.1010 C   0  0  0  0  0  0  0  0  0  0  0  0
  126.7000  128.5230   68.0770 C   0  0  0  0  0  0  0  0  0  0  0  0
  125.4310  129.0080   68.2880 O   0  0  0  0  0  0  0  0  0  0  0  0
  124.5630  128.8630   67.1730 C   0  0  0  0  0  0  0  0  0  0  0  0
  128.1776  131.7108   66.7434 H   0  0  0  0  0  0  0  0  0  0  0  0
  128.5885  130.7745   65.2665 H   0  0  0  0  0  0  0  0  0  0  0  0
  127.1683  131.8743   65.2665 H   0  0  0  0  0  0  0  0  0  0  0  0
  129.4279  129.0251   66.0852 H   0  0  0  0  0  0  0  0  0  0  0  0
  131.3558  127.9232   67.2342 H   0  0  0  0  0  0  0  0  0  0  0  0
  131.0159  126.5551   68.3965 H   0  0  0  0  0  0  0  0  0  0  0  0
  130.0560  125.4850   66.2220 H   0  0  0  0  0  0  0  0  0  0  0  0
  130.6167  119.1593   62.1264 H   0  0  0  0  0  0  0  0  0  0  0  0
  129.9381  119.9144   60.6445 H   0  0  0  0  0  0  0  0  0  0  0  0
  131.6232  119.2923   60.6445 H   0  0  0  0  0  0  0  0  0  0  0  0
  132.4263  121.5679   59.8863 H   0  0  0  0  0  0  0  0  0  0  0  0
  134.1540  124.6289   60.9947 H   0  0  0  0  0  0  0  0  0  0  0  0
  134.0728  123.3195   59.7676 H   0  0  0  0  0  0  0  0  0  0  0  0
  132.8422  124.6280   59.7676 H   0  0  0  0  0  0  0  0  0  0  0  0
  132.8910  126.6540   62.5730 H   0  0  0  0  0  0  0  0  0  0  0  0
  134.2930  125.7030   62.8790 H   0  0  0  0  0  0  0  0  0  0  0  0
  128.8934  126.2218   69.3191 H   0  0  0  0  0  0  0  0  0  0  0  0
  126.3468  126.9999   71.9402 H   0  0  0  0  0  0  0  0  0  0  0  0
  126.7936  125.4466   71.1565 H   0  0  0  0  0  0  0  0  0  0  0  0
  127.9529  126.8188   71.1565 H   0  0  0  0  0  0  0  0  0  0  0  0
  123.5360  128.6914   67.5277 H   0  0  0  0  0  0  0  0  0  0  0  0
  124.5924  129.7785   66.5639 H   0  0  0  0  0  0  0  0  0  0  0  0
  124.8884  128.0068   66.5639 H   0  0  0  0  0  0  0  0  0  0  0  0
  1  2  1  0
  2  3  1  0
  3  4  2  0
  4  5  1  0
  5  6  1  0
  6  7  1  0
  7  8  1  0
  8  9  2  0
  8 10  1  0
 10 11  1  0
 11 12  1  0
 12 13  2  0
 13 14  1  0
 14 15  1  0
 14 16  2  0
 16 17  1  0
 17 18  1  0
 17 19  2  0
 19 20  1  0
 20 21  1  0
  5 22  2  0
 22 23  1  0
 23 24  1  0
 24 25  1  0
 23 26  2  0
 26 27  1  0
 27 28  1  0
 26  3  1  0
 20 10  2  0
 19 12  1  0
  1 29  1  0
  1 30  1  0
  1 31  1  0
  4 32  1  0
  6 33  1  0
  6 34  1  0
  7 35  1  0
 15 36  1  0
 15 37  1  0
 15 38  1  0
 16 39  1  0
 18 40  1  0
 18 41  1  0
 18 42  1  0
 21 43  1  0
 21 44  1  0
 22 45  1  0
 25 46  1  0
 25 47  1  0
 25 48  1  0
 28 49  1  0
 28 50  1  0
 28 51  1  0
M  END
>  <Binding energies>  (1) 
[-6.51]

>  <Ligand effiencies>  (1) 
[-0.21]

>  <Interactions>  (1) 
["V-B:ARG:545:CG:9893, V-B:GLU:543:CB:9877, V-A:GLU:543:CG:4906, V-B:GLU:543:CD:9879, V-B:HIS:456:CE1:9040, V-A:HIS:456:CE1:4069, V-A:GLU:543:CD:4907, V-B:ARG:545:CZ:9897, H-B:TYR:484:OH:9318, H-A:ARG:545:NH2:4927, V-B:ARG:545:CD:9894, V-A:TYR:484:CZ:4346, V-A:ARG:545:CZ:4925, H-A:ASP:366:OD1:3213, V-A:ASP:366:CG:3212, V-B:TYR:539:CE2:9847, V-B:GLU:543:C:9873, V-B:GLY:544:C:9883, V-B:TYR:539:CD2:9845, H-A:ARG:545:NE:4923, H-A:TYR:484:OH:4347, H-B:ARG:545:N:9891, V-A:ILE:369:CG2:3236, V-A:TYR:484:CE2:4345, V-A:LEU:475:CD2:4258, H-A:ASP:366:OD2:3214, H-B:GLU:543:OE2:9881, V-A:ILE:369:CD1:3238, H-B:HIS:456:ND1:9037, V-B:GLY:544:CA:9885"]

$$$$
4ai_Grossjean_2025
     RDKit          3D

 32 34  0  0  0  0  0  0  0  0999 V2000
  128.0850  125.7000   72.5600 C   0  0  0  0  0  0  0  0  0  0  0  0
  127.9330  126.3280   71.1870 C   0  0  0  0  0  0  0  0  0  0  0  0
  128.9970  126.3520   70.2880 C   0  0  0  0  0  0  0  0  0  0  0  0
  128.8330  126.9310   69.0240 C   0  0  0  0  0  0  0  0  0  0  0  0
  130.0230  126.9300   68.0770 C   0  0  0  0  0  0  0  0  0  0  0  0
  127.5610  127.4800   68.7060 C   0  0  0  0  0  0  0  0  0  0  0  0
  127.0540  128.1340   67.5300 C   0  0  0  0  0  0  0  0  0  0  0  0
  127.8310  128.3480   66.4190 N   0  0  0  0  0  0  0  0  0  0  0  0
  125.7080  128.5200   67.6270 C   0  0  0  0  0  0  0  0  0  0  0  0
  124.8840  129.2100   66.6330 C   0  0  0  0  0  0  0  0  0  0  0  0
  124.0340  130.0320   66.9810 O   0  0  0  0  0  0  0  0  0  0  0  0
  125.1430  128.8890   65.3400 N   0  0  0  0  0  0  0  0  0  0  0  0
  124.5250  129.3960   64.2040 C   0  0  0  0  0  0  0  0  0  0  0  0
  125.0850  129.3100   62.9290 C   0  0  0  0  0  0  0  0  0  0  0  0
  124.1770  129.9230   62.0970 C   0  0  0  0  0  0  0  0  0  0  0  0
  123.1240  130.3550   62.8310 O   0  0  0  0  0  0  0  0  0  0  0  0
  123.3550  130.0140   64.1650 N   0  0  0  0  0  0  0  0  0  0  0  0
  125.0370  128.1000   69.2050 S   0  0  0  0  0  0  0  0  0  0  0  0
  126.5540  127.3920   69.7150 C   0  0  0  0  0  0  0  0  0  0  0  0
  126.7080  126.8430   70.9200 N   0  0  0  0  0  0  0  0  0  0  0  0
  127.9010  126.4603   73.3334 H   0  0  0  0  0  0  0  0  0  0  0  0
  127.3592  124.8809   72.6710 H   0  0  0  0  0  0  0  0  0  0  0  0
  129.1050  125.3035   72.6710 H   0  0  0  0  0  0  0  0  0  0  0  0
  129.9663  125.9159   70.5714 H   0  0  0  0  0  0  0  0  0  0  0  0
  130.9557  126.9292   68.6602 H   0  0  0  0  0  0  0  0  0  0  0  0
  129.9863  126.0319   67.4429 H   0  0  0  0  0  0  0  0  0  0  0  0
  129.9878  127.8282   67.4429 H   0  0  0  0  0  0  0  0  0  0  0  0
  128.1000  127.5940   65.8040 H   0  0  0  0  0  0  0  0  0  0  0  0
  128.1650  129.2720   66.1820 H   0  0  0  0  0  0  0  0  0  0  0  0
  125.8720  128.2130   65.1720 H   0  0  0  0  0  0  0  0  0  0  0  0
  126.0449  128.8513   62.6495 H   0  0  0  0  0  0  0  0  0  0  0  0
  124.2884  130.0431   61.0093 H   0  0  0  0  0  0  0  0  0  0  0  0
  1  2  1  0
  2  3  2  0
  3  4  1  0
  4  5  1  0
  4  6  2  0
  6  7  1  0
  7  8  1  0
  7  9  2  0
  9 10  1  0
 10 11  2  0
 10 12  1  0
 12 13  1  0
 13 14  1  0
 14 15  2  0
 15 16  1  0
 16 17  1  0
  9 18  1  0
 18 19  1  0
 19 20  2  0
 20  2  1  0
 19  6  1  0
 17 13  2  0
  1 21  1  0
  1 22  1  0
  1 23  1  0
  3 24  1  0
  5 25  1  0
  5 26  1  0
  5 27  1  0
  8 28  1  0
  8 29  1  0
 12 30  1  0
 14 31  1  0
 15 32  1  0
M  END
>  <Binding energies>  (1) 
[-6.52]

>  <Ligand effiencies>  (1) 
[-0.2834782608695652]

>  <Interactions>  (1) 
["V-B:ARG:545:CG:9893, V-B:GLU:543:CB:9877, V-B:GLU:543:CD:9879, V-B:HIS:456:CE1:9040, H-B:ARG:545:NH2:9899, V-A:HIS:456:CE1:4069, V-B:ARG:545:CZ:9897, H-B:TYR:484:OH:9318, V-B:ARG:545:CD:9894, H-B:GLY:454:N:9020, V-B:ASP:366:CG:8183, V-B:GLU:543:C:9873, H-B:ARG:545:NH1:9898, H-B:ILE:455:N:9025, H-B:ARG:545:N:9891, V-B:ARG:545:CA:9890, V-B:ARG:545:CB:9892, H-B:GLU:543:OE2:9881, H-B:GLU:543:OE1:9880, H-B:HIS:456:ND1:9037"]

$$$$
4aj_Grossjean_2025
     RDKit          3D

 32 34  0  0  0  0  0  0  0  0999 V2000
  128.0650  125.7060   72.5000 C   0  0  0  0  0  0  0  0  0  0  0  0
  127.9200  126.3170   71.1180 C   0  0  0  0  0  0  0  0  0  0  0  0
  128.9840  126.3180   70.2200 C   0  0  0  0  0  0  0  0  0  0  0  0
  128.8300  126.8920   68.9520 C   0  0  0  0  0  0  0  0  0  0  0  0
  130.0220  126.8690   68.0080 C   0  0  0  0  0  0  0  0  0  0  0  0
  127.5680  127.4580   68.6290 C   0  0  0  0  0  0  0  0  0  0  0  0
  127.0740  128.1150   67.4490 C   0  0  0  0  0  0  0  0  0  0  0  0
  127.8530  128.3090   66.3380 N   0  0  0  0  0  0  0  0  0  0  0  0
  125.7350  128.5250   67.5440 C   0  0  0  0  0  0  0  0  0  0  0  0
  124.9230  129.2240   66.5460 C   0  0  0  0  0  0  0  0  0  0  0  0
  124.0990  130.0750   66.8880 O   0  0  0  0  0  0  0  0  0  0  0  0
  125.1580  128.8760   65.2570 N   0  0  0  0  0  0  0  0  0  0  0  0
  124.5380  129.3930   64.1270 C   0  0  0  0  0  0  0  0  0  0  0  0
  123.3760  130.0040   64.0530 N   0  0  0  0  0  0  0  0  0  0  0  0
  123.0980  130.3680   62.8160 C   0  0  0  0  0  0  0  0  0  0  0  0
  124.0510  130.0500   61.8520 C   0  0  0  0  0  0  0  0  0  0  0  0
  125.3780  129.2300   62.6190 S   0  0  0  0  0  0  0  0  0  0  0  0
  125.0540  128.1180   69.1200 S   0  0  0  0  0  0  0  0  0  0  0  0
  126.5590  127.3910   69.6360 C   0  0  0  0  0  0  0  0  0  0  0  0
  126.7020  126.8460   70.8450 N   0  0  0  0  0  0  0  0  0  0  0  0
  127.8820  126.4771   73.2628 H   0  0  0  0  0  0  0  0  0  0  0  0
  127.3352  124.8917   72.6193 H   0  0  0  0  0  0  0  0  0  0  0  0
  129.0829  125.3065   72.6193 H   0  0  0  0  0  0  0  0  0  0  0  0
  129.9458  125.8678   70.5066 H   0  0  0  0  0  0  0  0  0  0  0  0
  130.9531  126.8510   68.5935 H   0  0  0  0  0  0  0  0  0  0  0  0
  129.9703  125.9717   67.3738 H   0  0  0  0  0  0  0  0  0  0  0  0
  130.0049  127.7676   67.3738 H   0  0  0  0  0  0  0  0  0  0  0  0
  127.9490  127.6020   65.6230 H   0  0  0  0  0  0  0  0  0  0  0  0
  128.3620  129.1710   66.1970 H   0  0  0  0  0  0  0  0  0  0  0  0
  125.8610  128.1700   65.0890 H   0  0  0  0  0  0  0  0  0  0  0  0
  122.1658  130.8932   62.5604 H   0  0  0  0  0  0  0  0  0  0  0  0
  123.9763  130.2803   60.7790 H   0  0  0  0  0  0  0  0  0  0  0  0
  1  2  1  0
  2  3  2  0
  3  4  1  0
  4  5  1  0
  4  6  2  0
  6  7  1  0
  7  8  1  0
  7  9  2  0
  9 10  1  0
 10 11  2  0
 10 12  1  0
 12 13  1  0
 13 14  2  0
 14 15  1  0
 15 16  2  0
 16 17  1  0
  9 18  1  0
 18 19  1  0
 19 20  2  0
 20  2  1  0
 19  6  1  0
 17 13  1  0
  1 21  1  0
  1 22  1  0
  1 23  1  0
  3 24  1  0
  5 25  1  0
  5 26  1  0
  5 27  1  0
  8 28  1  0
  8 29  1  0
 12 30  1  0
 15 31  1  0
 16 32  1  0
M  END
>  <Binding energies>  (1) 
[-6.6]

>  <Ligand effiencies>  (1) 
[-0.28695652173913044]

>  <Interactions>  (1) 
["V-B:ARG:545:CG:9893, V-B:GLU:543:CB:9877, V-B:GLU:543:CD:9879, V-B:HIS:456:CE1:9040, H-B:ARG:545:NH2:9899, V-A:HIS:456:CE1:4069, V-B:ARG:545:CZ:9897, H-B:TYR:484:OH:9318, H-B:GLY:454:N:9020, V-B:ASP:366:CG:8183, V-B:GLU:543:C:9873, H-B:ARG:545:NH1:9898, H-B:ARG:545:N:9891, V-B:GLY:453:CA:9014, V-B:ARG:545:CA:9890, V-B:ARG:545:CB:9892, H-B:GLU:543:OE2:9881, H-B:GLU:543:OE1:9880, H-B:HIS:456:ND1:9037"]

$$$$
4ak_Grossjean_2025
     RDKit          3D

 50 51  0  0  0  0  0  0  0  0999 V2000
  129.3340  123.9480   73.6270 C   0  0  0  0  0  0  0  0  0  0  0  0
  129.2460  125.2750   74.1240 O   0  0  0  0  0  0  0  0  0  0  0  0
  129.2550  126.2630   73.1010 C   0  0  0  0  0  0  0  0  0  0  0  0
  127.9850  126.1290   72.2500 C   0  0  0  0  0  0  0  0  0  0  0  0
  127.9990  127.1150   71.2260 O   0  0  0  0  0  0  0  0  0  0  0  0
  128.3960  126.6160   69.9550 C   0  0  0  0  0  0  0  0  0  0  0  0
  128.3770  127.7590   68.9330 C   0  0  0  0  0  0  0  0  0  0  0  0
  127.0820  128.3440   68.9070 O   0  0  0  0  0  0  0  0  0  0  0  0
  126.2660  127.8870   67.8370 C   0  0  0  0  0  0  0  0  0  0  0  0
  125.0390  128.8080   67.7030 C   0  0  0  0  0  0  0  0  0  0  0  0
  125.1250  129.7380   66.5780 N   0  0  0  0  0  0  0  0  0  0  0  0
  124.1970  129.8800   65.6100 C   0  0  0  0  0  0  0  0  0  0  0  0
  123.1500  129.2320   65.5990 O   0  0  0  0  0  0  0  0  0  0  0  0
  124.4990  130.8610   64.5690 C   0  0  0  0  0  0  0  0  0  0  0  0
  125.6510  132.1600   64.8760 S   0  0  0  0  0  0  0  0  0  0  0  0
  125.4410  132.7910   63.2580 C   0  0  0  0  0  0  0  0  0  0  0  0
  126.0950  133.8720   62.8320 N   0  0  0  0  0  0  0  0  0  0  0  0
  125.8400  134.2580   61.5580 C   0  0  0  0  0  0  0  0  0  0  0  0
  126.5950  135.4900   61.0920 C   0  0  0  0  0  0  0  0  0  0  0  0
  124.9570  133.5940   60.7090 C   0  0  0  0  0  0  0  0  0  0  0  0
  124.2720  132.4590   61.1590 C   0  0  0  0  0  0  0  0  0  0  0  0
  123.3160  131.7720   60.1970 C   0  0  0  0  0  0  0  0  0  0  0  0
  124.5130  132.0250   62.4900 C   0  0  0  0  0  0  0  0  0  0  0  0
  123.9950  130.9270   63.2600 C   0  0  0  0  0  0  0  0  0  0  0  0
  123.0880  130.0340   62.7470 N   0  0  0  0  0  0  0  0  0  0  0  0
  129.3807  123.2430   74.4701 H   0  0  0  0  0  0  0  0  0  0  0  0
  128.4485  123.7270   73.0129 H   0  0  0  0  0  0  0  0  0  0  0  0
  130.2409  123.8458   73.0129 H   0  0  0  0  0  0  0  0  0  0  0  0
  129.2868  127.2633   73.5575 H   0  0  0  0  0  0  0  0  0  0  0  0
  130.1404  126.1229   72.4634 H   0  0  0  0  0  0  0  0  0  0  0  0
  127.9512  125.1278   71.7956 H   0  0  0  0  0  0  0  0  0  0  0  0
  127.0988  126.2710   72.8860 H   0  0  0  0  0  0  0  0  0  0  0  0
  129.4127  126.2018   70.0241 H   0  0  0  0  0  0  0  0  0  0  0  0
  127.7009  125.8252   69.6362 H   0  0  0  0  0  0  0  0  0  0  0  0
  129.1183  128.5198   69.2187 H   0  0  0  0  0  0  0  0  0  0  0  0
  128.6240  127.3659   67.9358 H   0  0  0  0  0  0  0  0  0  0  0  0
  126.8433  127.9056   66.9008 H   0  0  0  0  0  0  0  0  0  0  0  0
  125.9339  126.8582   68.0404 H   0  0  0  0  0  0  0  0  0  0  0  0
  124.1460  128.1801   67.5676 H   0  0  0  0  0  0  0  0  0  0  0  0
  124.9892  129.4143   68.6195 H   0  0  0  0  0  0  0  0  0  0  0  0
  125.9600  130.3060   66.5310 H   0  0  0  0  0  0  0  0  0  0  0  0
  126.9437  136.0589   61.9665 H   0  0  0  0  0  0  0  0  0  0  0  0
  127.4600  135.1825   60.4859 H   0  0  0  0  0  0  0  0  0  0  0  0
  125.9284  136.1211   60.4859 H   0  0  0  0  0  0  0  0  0  0  0  0
  124.7980  133.9618   59.6846 H   0  0  0  0  0  0  0  0  0  0  0  0
  122.5525  131.2234   60.7681 H   0  0  0  0  0  0  0  0  0  0  0  0
  122.8278  132.5271   59.5635 H   0  0  0  0  0  0  0  0  0  0  0  0
  123.8760  131.0684   59.5635 H   0  0  0  0  0  0  0  0  0  0  0  0
  122.7510  130.1030   61.7970 H   0  0  0  0  0  0  0  0  0  0  0  0
  122.7280  129.2730   63.3050 H   0  0  0  0  0  0  0  0  0  0  0  0
  1  2  1  0
  2  3  1  0
  3  4  1  0
  4  5  1  0
  5  6  1  0
  6  7  1  0
  7  8  1  0
  8  9  1  0
  9 10  1  0
 10 11  1  0
 11 12  1  0
 12 13  2  0
 12 14  1  0
 14 15  1  0
 15 16  1  0
 16 17  2  0
 17 18  1  0
 18 19  1  0
 18 20  2  0
 20 21  1  0
 21 22  1  0
 21 23  2  0
 23 24  1  0
 24 25  1  0
 24 14  2  0
 23 16  1  0
  1 26  1  0
  1 27  1  0
  1 28  1  0
  3 29  1  0
  3 30  1  0
  4 31  1  0
  4 32  1  0
  6 33  1  0
  6 34  1  0
  7 35  1  0
  7 36  1  0
  9 37  1  0
  9 38  1  0
 10 39  1  0
 10 40  1  0
 11 41  1  0
 19 42  1  0
 19 43  1  0
 19 44  1  0
 20 45  1  0
 22 46  1  0
 22 47  1  0
 22 48  1  0
 25 49  1  0
 25 50  1  0
M  END
>  <Binding energies>  (1) 
[-5.39]

>  <Ligand effiencies>  (1) 
[-0.19249999999999998]

>  <Interactions>  (1) 
["V-B:ARG:545:CG:9893, V-B:GLU:543:CB:9877, V-B:GLU:543:CD:9879, V-B:HIS:456:CE1:9040, V-B:SER:385:CB:8379, H-B:ARG:545:NH2:9899, V-A:HIS:456:CE1:4069, V-A:TYR:539:CD1:4872, V-B:LEU:475:CD1:9228, V-B:ARG:545:CZ:9897, H-B:TYR:484:OH:9318, V-B:ARG:545:CD:9894, H-B:GLY:454:N:9020, V-B:ILE:369:CG2:8207, H-B:ASP:366:OD2:8185, V-B:ASP:366:CG:8183, V-B:ILE:369:CG1:8208, V-B:GLU:543:C:9873, H-B:ARG:545:NH1:9898, H-B:ARG:545:NE:9895, V-B:GLY:453:CA:9014, V-B:GLY:454:CA:9019, V-B:ILE:369:CB:8206, V-B:LYS:547:CE:9921, H-B:LYS:547:NZ:9922"]

$$$$
4al_Grossjean_2025
     RDKit          3D

 28 29  0  0  0  0  0  0  0  0999 V2000
  123.8200  129.6250   64.5840 C   0  0  0  0  0  0  0  0  0  0  0  0
  123.8440  130.3520   65.8030 O   0  0  0  0  0  0  0  0  0  0  0  0
  123.7870  129.7100   66.9990 C   0  0  0  0  0  0  0  0  0  0  0  0
  122.7730  129.6420   67.6970 O   0  0  0  0  0  0  0  0  0  0  0  0
  125.0760  129.0950   67.3840 C   0  0  0  0  0  0  0  0  0  0  0  0
  126.4630  129.2010   66.2980 S   0  0  0  0  0  0  0  0  0  0  0  0
  127.4610  128.3030   67.4190 C   0  0  0  0  0  0  0  0  0  0  0  0
  128.7380  128.0230   67.1570 N   0  0  0  0  0  0  0  0  0  0  0  0
  129.4020  127.3210   68.1090 C   0  0  0  0  0  0  0  0  0  0  0  0
  130.8530  127.0130   67.7900 C   0  0  0  0  0  0  0  0  0  0  0  0
  128.8230  126.8980   69.3030 C   0  0  0  0  0  0  0  0  0  0  0  0
  127.4830  127.1930   69.5750 C   0  0  0  0  0  0  0  0  0  0  0  0
  126.8960  126.7100   70.8920 C   0  0  0  0  0  0  0  0  0  0  0  0
  126.7560  127.9280   68.6000 C   0  0  0  0  0  0  0  0  0  0  0  0
  125.3970  128.3930   68.5520 C   0  0  0  0  0  0  0  0  0  0  0  0
  124.5020  128.1650   69.5660 N   0  0  0  0  0  0  0  0  0  0  0  0
  123.7844  128.5471   64.8006 H   0  0  0  0  0  0  0  0  0  0  0  0
  122.9308  129.9119   64.0034 H   0  0  0  0  0  0  0  0  0  0  0  0
  124.7261  129.8526   64.0034 H   0  0  0  0  0  0  0  0  0  0  0  0
  131.4170  126.8933   68.7268 H   0  0  0  0  0  0  0  0  0  0  0  0
  130.9105  126.0826   67.2060 H   0  0  0  0  0  0  0  0  0  0  0  0
  131.2835  127.8398   67.2060 H   0  0  0  0  0  0  0  0  0  0  0  0
  129.4200  126.3314   70.0328 H   0  0  0  0  0  0  0  0  0  0  0  0
  127.4481  127.1642   71.7280 H   0  0  0  0  0  0  0  0  0  0  0  0
  125.8370  127.0017   70.9503 H   0  0  0  0  0  0  0  0  0  0  0  0
  126.9783  125.6146   70.9503 H   0  0  0  0  0  0  0  0  0  0  0  0
  123.5770  128.5710   69.5640 H   0  0  0  0  0  0  0  0  0  0  0  0
  124.7400  127.5790   70.3550 H   0  0  0  0  0  0  0  0  0  0  0  0
  1  2  1  0
  2  3  1  0
  3  4  2  0
  3  5  1  0
  5  6  1  0
  6  7  1  0
  7  8  2  0
  8  9  1  0
  9 10  1  0
  9 11  2  0
 11 12  1  0
 12 13  1  0
 12 14  2  0
 14 15  1  0
 15 16  1  0
 15  5  2  0
 14  7  1  0
  1 17  1  0
  1 18  1  0
  1 19  1  0
 10 20  1  0
 10 21  1  0
 10 22  1  0
 11 23  1  0
 13 24  1  0
 13 25  1  0
 13 26  1  0
 16 27  1  0
 16 28  1  0
M  END
>  <Binding energies>  (1) 
[-5.29]

>  <Ligand effiencies>  (1) 
[-0.29388888888888887]

>  <Interactions>  (1) 
["V-B:ARG:545:CG:9893, V-B:GLU:543:CB:9877, V-B:GLU:543:CD:9879, V-B:HIS:456:CE1:9040, V-A:HIS:456:CE1:4069, V-B:ARG:545:CZ:9897, H-B:TYR:484:OH:9318, V-B:ARG:545:CD:9894, H-B:GLY:454:N:9020, V-B:GLU:543:C:9873, V-B:GLY:544:C:9883, H-B:ILE:455:N:9025, V-B:GLY:453:CA:9014, V-B:ARG:545:CA:9890, V-B:ARG:545:CB:9892, V-B:GLY:454:CA:9019, H-B:ILE:455:O:9023, H-B:GLY:544:O:9884"]

$$$$
4ba_Grossjean_2025
     RDKit          3D

 44 46  0  0  0  0  0  0  0  0999 V2000
  130.7820  123.0700   74.1080 C   0  0  0  0  0  0  0  0  0  0  0  0
  129.6920  123.5150   73.1140 C   0  0  0  0  0  0  0  0  0  0  0  0
  129.1080  124.9200   73.3700 C   0  0  0  0  0  0  0  0  0  0  0  0
  129.2270  125.4330   74.4850 O   0  0  0  0  0  0  0  0  0  0  0  0
  128.4160  125.6060   72.2280 C   0  0  0  0  0  0  0  0  0  0  0  0
  129.0010  125.5840   70.9560 C   0  0  0  0  0  0  0  0  0  0  0  0
  128.3820  126.2140   69.8800 C   0  0  0  0  0  0  0  0  0  0  0  0
  127.1640  126.8740   70.0520 C   0  0  0  0  0  0  0  0  0  0  0  0
  126.6310  127.4830   68.9000 N   0  0  0  0  0  0  0  0  0  0  0  0
  125.4820  128.1830   68.7360 C   0  0  0  0  0  0  0  0  0  0  0  0
  124.6520  128.3690   69.6270 O   0  0  0  0  0  0  0  0  0  0  0  0
  125.2560  128.7070   67.3870 C   0  0  0  0  0  0  0  0  0  0  0  0
  123.6500  129.2510   66.9050 S   0  0  0  0  0  0  0  0  0  0  0  0
  124.2110  129.6260   65.2930 C   0  0  0  0  0  0  0  0  0  0  0  0
  123.3870  130.1170   64.3680 N   0  0  0  0  0  0  0  0  0  0  0  0
  123.9340  130.3670   63.1570 C   0  0  0  0  0  0  0  0  0  0  0  0
  122.9760  130.9170   62.1160 C   0  0  0  0  0  0  0  0  0  0  0  0
  125.2750  130.1450   62.8530 C   0  0  0  0  0  0  0  0  0  0  0  0
  126.1480  129.6280   63.8230 C   0  0  0  0  0  0  0  0  0  0  0  0
  127.6150  129.4020   63.4420 C   0  0  0  0  0  0  0  0  0  0  0  0
  128.0030  128.1330   63.5870 F   0  0  0  0  0  0  0  0  0  0  0  0
  127.8070  129.7350   62.1650 F   0  0  0  0  0  0  0  0  0  0  0  0
  128.4020  130.1510   64.2150 F   0  0  0  0  0  0  0  0  0  0  0  0
  125.6000  129.3470   65.1100 C   0  0  0  0  0  0  0  0  0  0  0  0
  126.1680  128.8130   66.3240 C   0  0  0  0  0  0  0  0  0  0  0  0
  127.4860  128.4460   66.4250 N   0  0  0  0  0  0  0  0  0  0  0  0
  126.5740  126.9060   71.3240 C   0  0  0  0  0  0  0  0  0  0  0  0
  127.1950  126.2760   72.3990 C   0  0  0  0  0  0  0  0  0  0  0  0
  130.4220  123.2170   75.1370 H   0  0  0  0  0  0  0  0  0  0  0  0
  131.0116  122.0061   73.9483 H   0  0  0  0  0  0  0  0  0  0  0  0
  131.6906  123.6692   73.9483 H   0  0  0  0  0  0  0  0  0  0  0  0
  130.1274  123.5057   72.1039 H   0  0  0  0  0  0  0  0  0  0  0  0
  128.8576  122.8089   73.2375 H   0  0  0  0  0  0  0  0  0  0  0  0
  129.9586  125.0640   70.8056 H   0  0  0  0  0  0  0  0  0  0  0  0
  128.8558  126.1916   68.8875 H   0  0  0  0  0  0  0  0  0  0  0  0
  127.1940  127.3610   68.0720 H   0  0  0  0  0  0  0  0  0  0  0  0
  122.1277  131.4040   62.6193 H   0  0  0  0  0  0  0  0  0  0  0  0
  123.5002  131.6517   61.4871 H   0  0  0  0  0  0  0  0  0  0  0  0
  122.6058  130.0939   61.4871 H   0  0  0  0  0  0  0  0  0  0  0  0
  125.6525  130.3764   61.8460 H   0  0  0  0  0  0  0  0  0  0  0  0
  127.8390  127.5990   66.0020 H   0  0  0  0  0  0  0  0  0  0  0  0
  128.1510  129.0090   66.9360 H   0  0  0  0  0  0  0  0  0  0  0  0
  125.6184  127.4301   71.4726 H   0  0  0  0  0  0  0  0  0  0  0  0
  126.7237  126.3037   73.3925 H   0  0  0  0  0  0  0  0  0  0  0  0
  1  2  1  0
  2  3  1  0
  3  4  2  0
  3  5  1  0
  5  6  2  0
  6  7  1  0
  7  8  2  0
  8  9  1  0
  9 10  1  0
 10 11  2  0
 10 12  1  0
 12 13  1  0
 13 14  1  0
 14 15  2  0
 15 16  1  0
 16 17  1  0
 16 18  2  0
 18 19  1  0
 19 20  1  0
 20 21  1  0
 20 22  1  0
 20 23  1  0
 19 24  2  0
 24 25  1  0
 25 26  1  0
  8 27  1  0
 27 28  2  0
 28  5  1  0
 25 12  2  0
 24 14  1  0
  1 29  1  0
  1 30  1  0
  1 31  1  0
  2 32  1  0
  2 33  1  0
  6 34  1  0
  7 35  1  0
  9 36  1  0
 17 37  1  0
 17 38  1  0
 17 39  1  0
 18 40  1  0
 26 41  1  0
 26 42  1  0
 27 43  1  0
 28 44  1  0
M  END
>  <Binding energies>  (1) 
[-7.53]

>  <Ligand effiencies>  (1) 
[-0.24290322580645163]

>  <Interactions>  (1) 
["V-B:ARG:545:CG:9893, V-B:GLU:543:CB:9877, V-A:GLU:543:CG:4906, V-B:GLU:543:CD:9879, V-B:HIS:456:CE1:9040, V-A:HIS:456:CE1:4069, V-A:GLU:543:CD:4907, V-B:ARG:545:CZ:9897, V-B:ARG:545:CD:9894, H-B:GLY:454:N:9020, V-B:ASP:366:CG:8183, V-B:GLU:543:C:9873, V-B:GLY:544:C:9883, H-B:ARG:545:NH1:9898, H-B:ARG:545:N:9891, H-B:GLU:543:OE2:9881, H-B:GLU:543:OE1:9880, H-B:HIS:456:ND1:9037, V-B:GLY:544:CA:9885, V-B:LYS:547:CE:9921, H-B:LYS:547:NZ:9922, V-A:HIS:456:CD2:4067, V-A:TYR:484:CD2:4343"]

$$$$
4bb_Grossjean_2025
     RDKit          3D

 41 43  0  0  0  0  0  0  0  0999 V2000
  129.6240  123.5680   73.1670 C   0  0  0  0  0  0  0  0  0  0  0  0
  129.0960  124.9870   73.3860 C   0  0  0  0  0  0  0  0  0  0  0  0
  129.2470  125.4970   74.4980 O   0  0  0  0  0  0  0  0  0  0  0  0
  128.4150  125.6760   72.2420 C   0  0  0  0  0  0  0  0  0  0  0  0
  129.0010  125.6410   70.9710 C   0  0  0  0  0  0  0  0  0  0  0  0
  128.3900  126.2730   69.8920 C   0  0  0  0  0  0  0  0  0  0  0  0
  127.1790  126.9460   70.0610 C   0  0  0  0  0  0  0  0  0  0  0  0
  126.6500  127.5520   68.9040 N   0  0  0  0  0  0  0  0  0  0  0  0
  125.4760  128.2060   68.7220 C   0  0  0  0  0  0  0  0  0  0  0  0
  124.6240  128.3530   69.5980 O   0  0  0  0  0  0  0  0  0  0  0  0
  125.2520  128.7220   67.3690 C   0  0  0  0  0  0  0  0  0  0  0  0
  123.6460  129.2530   66.8770 S   0  0  0  0  0  0  0  0  0  0  0  0
  124.2130  129.6320   65.2670 C   0  0  0  0  0  0  0  0  0  0  0  0
  123.3940  130.1230   64.3390 N   0  0  0  0  0  0  0  0  0  0  0  0
  123.9490  130.3760   63.1310 C   0  0  0  0  0  0  0  0  0  0  0  0
  122.9980  130.9370   62.0890 C   0  0  0  0  0  0  0  0  0  0  0  0
  125.2900  130.1520   62.8320 C   0  0  0  0  0  0  0  0  0  0  0  0
  126.1580  129.6350   63.8060 C   0  0  0  0  0  0  0  0  0  0  0  0
  127.6250  129.4040   63.4300 C   0  0  0  0  0  0  0  0  0  0  0  0
  128.4740  130.0980   64.1930 F   0  0  0  0  0  0  0  0  0  0  0  0
  127.9290  128.1130   63.5680 F   0  0  0  0  0  0  0  0  0  0  0  0
  127.8320  129.7730   62.1660 F   0  0  0  0  0  0  0  0  0  0  0  0
  125.6050  129.3560   65.0920 C   0  0  0  0  0  0  0  0  0  0  0  0
  126.1700  128.8320   66.3110 C   0  0  0  0  0  0  0  0  0  0  0  0
  127.4900  128.4800   66.4230 N   0  0  0  0  0  0  0  0  0  0  0  0
  126.5890  126.9920   71.3330 C   0  0  0  0  0  0  0  0  0  0  0  0
  127.2030  126.3600   72.4120 C   0  0  0  0  0  0  0  0  0  0  0  0
  129.8023  123.0888   74.1409 H   0  0  0  0  0  0  0  0  0  0  0  0
  128.8829  122.9842   72.6013 H   0  0  0  0  0  0  0  0  0  0  0  0
  130.5664  123.6107   72.6013 H   0  0  0  0  0  0  0  0  0  0  0  0
  129.9527  125.1093   70.8239 H   0  0  0  0  0  0  0  0  0  0  0  0
  128.8644  126.2419   68.9000 H   0  0  0  0  0  0  0  0  0  0  0  0
  127.2350  127.4610   68.0870 H   0  0  0  0  0  0  0  0  0  0  0  0
  122.1552  131.4341   62.5916 H   0  0  0  0  0  0  0  0  0  0  0  0
  123.5312  131.6652   61.4602 H   0  0  0  0  0  0  0  0  0  0  0  0
  122.6185  130.1181   61.4602 H   0  0  0  0  0  0  0  0  0  0  0  0
  125.6716  130.3816   61.8262 H   0  0  0  0  0  0  0  0  0  0  0  0
  127.8690  127.6660   65.9580 H   0  0  0  0  0  0  0  0  0  0  0  0
  128.1350  129.0260   66.9790 H   0  0  0  0  0  0  0  0  0  0  0  0
  125.6396  127.5282   71.4786 H   0  0  0  0  0  0  0  0  0  0  0  0
  126.7329  126.3979   73.4058 H   0  0  0  0  0  0  0  0  0  0  0  0
  1  2  1  0
  2  3  2  0
  2  4  1  0
  4  5  2  0
  5  6  1  0
  6  7  2  0
  7  8  1  0
  8  9  1  0
  9 10  2  0
  9 11  1  0
 11 12  1  0
 12 13  1  0
 13 14  2  0
 14 15  1  0
 15 16  1  0
 15 17  2  0
 17 18  1  0
 18 19  1  0
 19 20  1  0
 19 21  1  0
 19 22  1  0
 18 23  2  0
 23 24  1  0
 24 25  1  0
  7 26  1  0
 26 27  2  0
 27  4  1  0
 24 11  2  0
 23 13  1  0
  1 28  1  0
  1 29  1  0
  1 30  1  0
  5 31  1  0
  6 32  1  0
  8 33  1  0
 16 34  1  0
 16 35  1  0
 16 36  1  0
 17 37  1  0
 25 38  1  0
 25 39  1  0
 26 40  1  0
 27 41  1  0
M  END
>  <Binding energies>  (1) 
[-7.38]

>  <Ligand effiencies>  (1) 
[-0.246]

>  <Interactions>  (1) 
["V-B:ARG:545:CG:9893, V-B:GLU:543:CB:9877, V-A:GLU:543:CG:4906, V-B:GLU:543:CD:9879, V-B:HIS:456:CE1:9040, V-A:HIS:456:CE1:4069, V-A:GLU:543:CD:4907, V-B:ARG:545:CZ:9897, V-B:ARG:545:CD:9894, H-B:GLY:454:N:9020, V-B:ASP:366:CG:8183, V-B:GLU:543:C:9873, V-B:GLY:544:C:9883, H-B:ARG:545:NH1:9898, H-B:ARG:545:N:9891, H-B:GLU:543:OE2:9881, H-B:GLU:543:OE1:9880, H-B:HIS:456:ND1:9037, V-B:GLY:544:CA:9885, V-B:LYS:547:CE:9921, H-B:LYS:547:NZ:9922, V-A:HIS:456:CD2:4067, V-A:TYR:484:CD2:4343"]

$$$$
4bc_Grossjean_2025
     RDKit          3D

 40 42  0  0  0  0  0  0  0  0999 V2000
  129.8980  123.9780   74.3020 C   0  0  0  0  0  0  0  0  0  0  0  0
  128.9950  125.0770   74.2540 O   0  0  0  0  0  0  0  0  0  0  0  0
  128.6120  125.5810   73.0270 C   0  0  0  0  0  0  0  0  0  0  0  0
  127.4740  126.3880   73.0130 C   0  0  0  0  0  0  0  0  0  0  0  0
  127.0110  126.9410   71.8220 C   0  0  0  0  0  0  0  0  0  0  0  0
  127.6890  126.7010   70.6250 C   0  0  0  0  0  0  0  0  0  0  0  0
  127.1400  127.2890   69.4710 N   0  0  0  0  0  0  0  0  0  0  0  0
  125.8830  127.7500   69.2590 C   0  0  0  0  0  0  0  0  0  0  0  0
  124.9770  127.6840   70.0910 O   0  0  0  0  0  0  0  0  0  0  0  0
  125.6450  128.3460   67.9410 C   0  0  0  0  0  0  0  0  0  0  0  0
  124.0450  128.9500   67.5160 S   0  0  0  0  0  0  0  0  0  0  0  0
  124.5990  129.4360   65.9320 C   0  0  0  0  0  0  0  0  0  0  0  0
  123.7770  130.0130   65.0550 N   0  0  0  0  0  0  0  0  0  0  0  0
  124.3200  130.3430   63.8610 C   0  0  0  0  0  0  0  0  0  0  0  0
  123.3700  131.0040   62.8790 C   0  0  0  0  0  0  0  0  0  0  0  0
  125.6520  130.1120   63.5250 C   0  0  0  0  0  0  0  0  0  0  0  0
  126.5210  129.5050   64.4440 C   0  0  0  0  0  0  0  0  0  0  0  0
  127.9780  129.2690   64.0280 C   0  0  0  0  0  0  0  0  0  0  0  0
  128.3490  127.9910   64.1320 F   0  0  0  0  0  0  0  0  0  0  0  0
  128.1460  129.6320   62.7570 F   0  0  0  0  0  0  0  0  0  0  0  0
  128.7910  129.9860   64.8030 F   0  0  0  0  0  0  0  0  0  0  0  0
  125.9810  129.1450   65.7150 C   0  0  0  0  0  0  0  0  0  0  0  0
  126.5520  128.5240   66.8850 C   0  0  0  0  0  0  0  0  0  0  0  0
  127.8680  128.1430   66.9520 N   0  0  0  0  0  0  0  0  0  0  0  0
  128.8270  125.8790   70.6290 C   0  0  0  0  0  0  0  0  0  0  0  0
  129.2860  125.3270   71.8210 C   0  0  0  0  0  0  0  0  0  0  0  0
  130.1084  123.7219   75.3509 H   0  0  0  0  0  0  0  0  0  0  0  0
  129.4478  123.1112   73.7961 H   0  0  0  0  0  0  0  0  0  0  0  0
  130.8357  124.2515   73.7961 H   0  0  0  0  0  0  0  0  0  0  0  0
  126.9374  126.5893   73.9519 H   0  0  0  0  0  0  0  0  0  0  0  0
  126.1080  127.5691   71.8240 H   0  0  0  0  0  0  0  0  0  0  0  0
  127.7730  127.3400   68.6860 H   0  0  0  0  0  0  0  0  0  0  0  0
  122.5897  131.5469   63.4326 H   0  0  0  0  0  0  0  0  0  0  0  0
  123.9289  131.7093   62.2464 H   0  0  0  0  0  0  0  0  0  0  0  0
  122.9029  130.2348   62.2464 H   0  0  0  0  0  0  0  0  0  0  0  0
  126.0247  130.4073   62.5331 H   0  0  0  0  0  0  0  0  0  0  0  0
  128.2430  127.4090   66.3700 H   0  0  0  0  0  0  0  0  0  0  0  0
  128.5110  128.5910   67.5900 H   0  0  0  0  0  0  0  0  0  0  0  0
  129.3570  125.6708   69.6878 H   0  0  0  0  0  0  0  0  0  0  0  0
  130.1815  124.6882   71.8189 H   0  0  0  0  0  0  0  0  0  0  0  0
  1  2  1  0
  2  3  1  0
  3  4  2  0
  4  5  1  0
  5  6  2  0
  6  7  1  0
  7  8  1  0
  8  9  2  0
  8 10  1  0
 10 11  1  0
 11 12  1  0
 12 13  2  0
 13 14  1  0
 14 15  1  0
 14 16  2  0
 16 17  1  0
 17 18  1  0
 18 19  1  0
 18 20  1  0
 18 21  1  0
 17 22  2  0
 22 23  1  0
 23 24  1  0
  6 25  1  0
 25 26  2  0
 26  3  1  0
 23 10  2  0
 22 12  1  0
  1 27  1  0
  1 28  1  0
  1 29  1  0
  4 30  1  0
  5 31  1  0
  7 32  1  0
 15 33  1  0
 15 34  1  0
 15 35  1  0
 16 36  1  0
 24 37  1  0
 24 38  1  0
 25 39  1  0
 26 40  1  0
M  END
>  <Binding energies>  (1) 
[-6.45]

>  <Ligand effiencies>  (1) 
[-0.22241379310344828]

>  <Interactions>  (1) 
["V-B:ARG:545:CG:9893, V-B:GLU:543:CB:9877, V-A:GLU:543:CG:4906, V-B:GLU:543:CD:9879, V-B:HIS:456:CE1:9040, V-A:HIS:456:CE1:4069, V-A:GLU:543:CD:4907, V-B:ARG:545:CZ:9897, V-B:ARG:545:CD:9894, H-B:GLY:454:N:9020, V-B:GLU:543:C:9873, V-B:GLY:544:C:9883, H-B:ARG:545:N:9891, V-B:ARG:545:CA:9890, V-B:ARG:545:CB:9892, H-B:GLU:543:OE2:9881, H-B:GLU:543:OE1:9880, H-B:HIS:456:ND1:9037, V-B:LYS:547:CE:9921, H-B:LYS:547:NZ:9922, V-A:HIS:456:CD2:4067"]

$$$$
4bd_Grossjean_2025
     RDKit          3D

 36 38  0  0  0  0  0  0  0  0999 V2000
  122.5730  130.7630   61.7030 C   0  0  0  0  0  0  0  0  0  0  0  0
  123.5830  130.2530   62.7150 C   0  0  0  0  0  0  0  0  0  0  0  0
  124.8910  129.9610   62.3400 C   0  0  0  0  0  0  0  0  0  0  0  0
  125.8140  129.4870   63.2860 C   0  0  0  0  0  0  0  0  0  0  0  0
  127.2420  129.1760   62.8250 C   0  0  0  0  0  0  0  0  0  0  0  0
  127.4270  129.3880   61.5200 F   0  0  0  0  0  0  0  0  0  0  0  0
  128.1070  129.9490   63.4820 F   0  0  0  0  0  0  0  0  0  0  0  0
  127.5250  127.8960   63.0650 F   0  0  0  0  0  0  0  0  0  0  0  0
  125.3500  129.3250   64.6250 C   0  0  0  0  0  0  0  0  0  0  0  0
  125.9890  128.8740   65.8380 C   0  0  0  0  0  0  0  0  0  0  0  0
  127.3050  128.4940   65.8820 N   0  0  0  0  0  0  0  0  0  0  0  0
  125.1440  128.8600   66.9610 C   0  0  0  0  0  0  0  0  0  0  0  0
  125.4560  128.4470   68.3330 C   0  0  0  0  0  0  0  0  0  0  0  0
  124.6680  128.6760   69.2510 O   0  0  0  0  0  0  0  0  0  0  0  0
  126.6390  127.8030   68.4910 N   0  0  0  0  0  0  0  0  0  0  0  0
  127.2440  127.3210   69.6670 C   0  0  0  0  0  0  0  0  0  0  0  0
  128.6080  127.5940   69.8090 C   0  0  0  0  0  0  0  0  0  0  0  0
  129.2950  127.1680   70.9420 C   0  0  0  0  0  0  0  0  0  0  0  0
  128.6160  126.4750   71.9410 C   0  0  0  0  0  0  0  0  0  0  0  0
  127.2550  126.2080   71.8170 C   0  0  0  0  0  0  0  0  0  0  0  0
  126.5640  126.6320   70.6850 C   0  0  0  0  0  0  0  0  0  0  0  0
  123.5240  129.4140   66.5470 S   0  0  0  0  0  0  0  0  0  0  0  0
  123.9840  129.6580   64.8780 C   0  0  0  0  0  0  0  0  0  0  0  0
  123.1130  130.1090   63.9760 N   0  0  0  0  0  0  0  0  0  0  0  0
  121.7119  131.1978   62.2316 H   0  0  0  0  0  0  0  0  0  0  0  0
  123.0425  131.5321   61.0721 H   0  0  0  0  0  0  0  0  0  0  0  0
  122.2328  129.9286   61.0721 H   0  0  0  0  0  0  0  0  0  0  0  0
  125.2040  130.1025   61.2950 H   0  0  0  0  0  0  0  0  0  0  0  0
  128.0320  129.1180   66.2020 H   0  0  0  0  0  0  0  0  0  0  0  0
  127.5950  127.5670   65.6010 H   0  0  0  0  0  0  0  0  0  0  0  0
  127.1630  127.6220   67.6480 H   0  0  0  0  0  0  0  0  0  0  0  0
  129.1404  128.1479   69.0218 H   0  0  0  0  0  0  0  0  0  0  0  0
  130.3696  127.3778   71.0479 H   0  0  0  0  0  0  0  0  0  0  0  0
  129.1592  126.1358   72.8353 H   0  0  0  0  0  0  0  0  0  0  0  0
  126.7263  125.6626   72.6126 H   0  0  0  0  0  0  0  0  0  0  0  0
  125.4875  126.4278   70.5880 H   0  0  0  0  0  0  0  0  0  0  0  0
  1  2  1  0
  2  3  2  0
  3  4  1  0
  4  5  1  0
  5  6  1  0
  5  7  1  0
  5  8  1  0
  4  9  2  0
  9 10  1  0
 10 11  1  0
 10 12  2  0
 12 13  1  0
 13 14  2  0
 13 15  1  0
 15 16  1  0
 16 17  2  0
 17 18  1  0
 18 19  2  0
 19 20  1  0
 20 21  2  0
 12 22  1  0
 22 23  1  0
 23 24  2  0
 24  2  1  0
 23  9  1  0
 21 16  1  0
  1 25  1  0
  1 26  1  0
  1 27  1  0
  3 28  1  0
 11 29  1  0
 11 30  1  0
 15 31  1  0
 17 32  1  0
 18 33  1  0
 19 34  1  0
 20 35  1  0
 21 36  1  0
M  END
>  <Binding energies>  (1) 
[-6.25]

>  <Ligand effiencies>  (1) 
[-0.23148148148148148]

>  <Interactions>  (1) 
["V-B:ARG:545:CG:9893, V-B:GLU:543:CB:9877, V-B:GLU:543:CD:9879, V-B:HIS:456:CE1:9040, V-A:HIS:456:CE1:4069, V-B:ARG:545:CZ:9897, H-B:TYR:484:OH:9318, V-B:ARG:545:CD:9894, H-B:GLY:454:N:9020, V-B:ASP:366:CG:8183, V-B:ILE:369:CG1:8208, V-B:GLU:543:C:9873, V-B:GLY:544:C:9883, H-B:ARG:545:NH1:9898, V-B:GLY:453:C:9012, V-B:GLY:453:CA:9014, V-B:ARG:545:CA:9890, V-B:GLY:454:CA:9019, H-B:GLU:543:OE2:9881, V-B:ASP:366:CA:8180, H-B:GLU:543:OE1:9880, H-B:HIS:456:ND1:9037, V-B:GLY:544:CA:9885"]

$$$$
4be_Grossjean_2025
     RDKit          3D

 38 40  0  0  0  0  0  0  0  0999 V2000
  121.5700  131.4880   62.4740 C   0  0  0  0  0  0  0  0  0  0  0  0
  122.8790  130.7230   62.4230 C   0  0  0  0  0  0  0  0  0  0  0  0
  123.5430  130.4920   61.2160 C   0  0  0  0  0  0  0  0  0  0  0  0
  124.7420  129.7780   61.2450 C   0  0  0  0  0  0  0  0  0  0  0  0
  125.2420  129.3180   62.4650 C   0  0  0  0  0  0  0  0  0  0  0  0
  124.5290  129.5900   63.6380 C   0  0  0  0  0  0  0  0  0  0  0  0
  125.0820  129.0930   64.8320 N   0  0  0  0  0  0  0  0  0  0  0  0
  124.8870  129.5220   66.1040 C   0  0  0  0  0  0  0  0  0  0  0  0
  124.1480  130.4610   66.4060 O   0  0  0  0  0  0  0  0  0  0  0  0
  125.6430  128.8020   67.1330 C   0  0  0  0  0  0  0  0  0  0  0  0
  124.8950  128.4390   68.6880 S   0  0  0  0  0  0  0  0  0  0  0  0
  126.3590  127.6770   69.2640 C   0  0  0  0  0  0  0  0  0  0  0  0
  126.4330  127.1490   70.4850 N   0  0  0  0  0  0  0  0  0  0  0  0
  127.6180  126.5850   70.8170 C   0  0  0  0  0  0  0  0  0  0  0  0
  127.6830  125.9930   72.2130 C   0  0  0  0  0  0  0  0  0  0  0  0
  128.7170  126.5350   69.9650 C   0  0  0  0  0  0  0  0  0  0  0  0
  128.6450  127.0880   68.6770 C   0  0  0  0  0  0  0  0  0  0  0  0
  129.8800  127.0060   67.7740 C   0  0  0  0  0  0  0  0  0  0  0  0
  129.8070  127.8170   66.7150 F   0  0  0  0  0  0  0  0  0  0  0  0
  130.9670  127.3510   68.4630 F   0  0  0  0  0  0  0  0  0  0  0  0
  130.0240  125.7630   67.3170 F   0  0  0  0  0  0  0  0  0  0  0  0
  127.4110  127.6950   68.2960 C   0  0  0  0  0  0  0  0  0  0  0  0
  126.9730  128.3560   67.0910 C   0  0  0  0  0  0  0  0  0  0  0  0
  127.7870  128.5240   66.0010 N   0  0  0  0  0  0  0  0  0  0  0  0
  123.3530  130.2830   63.6170 N   0  0  0  0  0  0  0  0  0  0  0  0
  121.2837  131.6553   63.5228 H   0  0  0  0  0  0  0  0  0  0  0  0
  121.6917  132.4571   61.9681 H   0  0  0  0  0  0  0  0  0  0  0  0
  120.7854  130.9063   61.9681 H   0  0  0  0  0  0  0  0  0  0  0  0
  123.1312  130.8636   60.2661 H   0  0  0  0  0  0  0  0  0  0  0  0
  125.2899  129.5788   60.3122 H   0  0  0  0  0  0  0  0  0  0  0  0
  126.1831  128.7498   62.5034 H   0  0  0  0  0  0  0  0  0  0  0  0
  125.7430  128.3400   64.7080 H   0  0  0  0  0  0  0  0  0  0  0  0
  127.5946  126.7982   72.9572 H   0  0  0  0  0  0  0  0  0  0  0  0
  126.8580  125.2778   72.3468 H   0  0  0  0  0  0  0  0  0  0  0  0
  128.6435  125.4739   72.3468 H   0  0  0  0  0  0  0  0  0  0  0  0
  129.6490  126.0586   70.3034 H   0  0  0  0  0  0  0  0  0  0  0  0
  128.1830  127.7400   65.5020 H   0  0  0  0  0  0  0  0  0  0  0  0
  128.0250  129.4460   65.6610 H   0  0  0  0  0  0  0  0  0  0  0  0
  1  2  1  0
  2  3  2  0
  3  4  1  0
  4  5  2  0
  5  6  1  0
  6  7  1  0
  7  8  1  0
  8  9  2  0
  8 10  1  0
 10 11  1  0
 11 12  1  0
 12 13  2  0
 13 14  1  0
 14 15  1  0
 14 16  2  0
 16 17  1  0
 17 18  1  0
 18 19  1  0
 18 20  1  0
 18 21  1  0
 17 22  2  0
 22 23  1  0
 23 24  1  0
  6 25  2  0
 25  2  1  0
 23 10  2  0
 22 12  1  0
  1 26  1  0
  1 27  1  0
  1 28  1  0
  3 29  1  0
  4 30  1  0
  5 31  1  0
  7 32  1  0
 15 33  1  0
 15 34  1  0
 15 35  1  0
 16 36  1  0
 24 37  1  0
 24 38  1  0
M  END
>  <Binding energies>  (1) 
[-6.89]

>  <Ligand effiencies>  (1) 
[-0.24607142857142855]

>  <Interactions>  (1) 
["V-B:ARG:545:CG:9893, V-B:GLU:543:CB:9877, V-A:GLU:543:CG:4906, V-B:GLU:543:CD:9879, V-B:HIS:456:CE1:9040, V-A:HIS:456:CE1:4069, V-A:GLU:543:CD:4907, V-B:ARG:545:CZ:9897, H-B:TYR:484:OH:9318, V-B:ARG:545:CD:9894, H-B:GLY:454:N:9020, V-B:ASP:366:CG:8183, V-B:ILE:369:CG1:8208, V-B:GLU:543:C:9873, V-B:GLY:544:C:9883, H-B:ARG:545:N:9891, V-B:ASP:366:CB:8182, V-B:GLY:453:C:9012, V-A:TYR:484:CE2:4345, V-B:GLY:453:CA:9014, V-B:ARG:545:CA:9890, V-B:ARG:545:CB:9892, H-B:GLU:543:OE2:9881, H-B:GLU:543:OE1:9880, H-B:HIS:456:ND1:9037, V-B:GLY:544:CA:9885"]

$$$$
4bf_Grossjean_2025
     RDKit          3D

 35 37  0  0  0  0  0  0  0  0999 V2000
  134.8690  125.4040   67.2170 C   0  0  0  0  0  0  0  0  0  0  0  0
  133.5220  125.9440   66.7710 C   0  0  0  0  0  0  0  0  0  0  0  0
  133.1200  125.8570   65.4410 C   0  0  0  0  0  0  0  0  0  0  0  0
  131.8740  126.3640   65.0410 C   0  0  0  0  0  0  0  0  0  0  0  0
  131.4750  126.2480   63.5660 C   0  0  0  0  0  0  0  0  0  0  0  0
  130.3740  125.5150   63.3780 F   0  0  0  0  0  0  0  0  0  0  0  0
  131.2370  127.4600   63.0650 F   0  0  0  0  0  0  0  0  0  0  0  0
  132.4590  125.6710   62.8760 F   0  0  0  0  0  0  0  0  0  0  0  0
  131.0580  126.9600   66.0480 C   0  0  0  0  0  0  0  0  0  0  0  0
  129.7530  127.5730   66.0180 C   0  0  0  0  0  0  0  0  0  0  0  0
  129.0120  127.6800   64.8680 N   0  0  0  0  0  0  0  0  0  0  0  0
  129.3100  128.0430   67.2660 C   0  0  0  0  0  0  0  0  0  0  0  0
  128.0600  128.7390   67.5890 C   0  0  0  0  0  0  0  0  0  0  0  0
  128.0390  129.6250   68.4440 O   0  0  0  0  0  0  0  0  0  0  0  0
  126.9760  128.3450   66.8770 N   0  0  0  0  0  0  0  0  0  0  0  0
  125.6370  128.7700   66.9750 C   0  0  0  0  0  0  0  0  0  0  0  0
  124.8840  128.8260   68.1610 C   0  0  0  0  0  0  0  0  0  0  0  0
  123.5550  129.2530   68.1170 C   0  0  0  0  0  0  0  0  0  0  0  0
  123.0100  129.6110   66.8830 C   0  0  0  0  0  0  0  0  0  0  0  0
  123.7120  129.5600   65.7240 N   0  0  0  0  0  0  0  0  0  0  0  0
  125.0030  129.1420   65.7830 C   0  0  0  0  0  0  0  0  0  0  0  0
  130.5080  127.7410   68.5220 S   0  0  0  0  0  0  0  0  0  0  0  0
  131.5880  126.9850   67.3750 C   0  0  0  0  0  0  0  0  0  0  0  0
  132.7720  126.5010   67.7500 N   0  0  0  0  0  0  0  0  0  0  0  0
  134.9115  125.3870   68.3160 H   0  0  0  0  0  0  0  0  0  0  0  0
  135.0015  124.3832   66.8291 H   0  0  0  0  0  0  0  0  0  0  0  0
  135.6699  126.0505   66.8291 H   0  0  0  0  0  0  0  0  0  0  0  0
  133.7830  125.3880   64.6991 H   0  0  0  0  0  0  0  0  0  0  0  0
  129.2520  128.3350   64.1380 H   0  0  0  0  0  0  0  0  0  0  0  0
  128.1970  127.1030   64.7120 H   0  0  0  0  0  0  0  0  0  0  0  0
  127.1410  127.6500   66.1640 H   0  0  0  0  0  0  0  0  0  0  0  0
  125.3395  128.5349   69.1190 H   0  0  0  0  0  0  0  0  0  0  0  0
  122.9510  129.3060   69.0348 H   0  0  0  0  0  0  0  0  0  0  0  0
  121.9640  129.9497   66.8491 H   0  0  0  0  0  0  0  0  0  0  0  0
  125.5795  129.0932   64.8475 H   0  0  0  0  0  0  0  0  0  0  0  0
  1  2  1  0
  2  3  2  0
  3  4  1  0
  4  5  1  0
  5  6  1  0
  5  7  1  0
  5  8  1  0
  4  9  2  0
  9 10  1  0
 10 11  1  0
 10 12  2  0
 12 13  1  0
 13 14  2  0
 13 15  1  0
 15 16  1  0
 16 17  2  0
 17 18  1  0
 18 19  2  0
 19 20  1  0
 20 21  2  0
 12 22  1  0
 22 23  1  0
 23 24  2  0
 24  2  1  0
 23  9  1  0
 21 16  1  0
  1 25  1  0
  1 26  1  0
  1 27  1  0
  3 28  1  0
 11 29  1  0
 11 30  1  0
 15 31  1  0
 17 32  1  0
 18 33  1  0
 19 34  1  0
 21 35  1  0
M  END
>  <Binding energies>  (1) 
[-6.32]

>  <Ligand effiencies>  (1) 
[-0.23407407407407407]

>  <Interactions>  (1) 
["V-B:ARG:545:CG:9893, V-A:GLU:543:CB:4905, V-B:GLU:543:CD:9879, V-B:HIS:456:CE1:9040, V-A:HIS:456:CE1:4069, V-A:GLU:543:CD:4907, V-A:GLY:454:CA:4048, V-B:ARG:545:CZ:9897, H-B:TYR:484:OH:9318, V-B:ARG:545:CD:9894, H-B:GLY:454:N:9020, V-A:ARG:545:CZ:4925, V-A:GLY:453:CA:4043, V-A:ASP:366:CG:3212, V-A:ARG:545:CD:4922, V-A:ARG:545:CG:4921, H-A:TYR:484:OH:4347, H-A:GLU:543:OE2:4909, H-B:ARG:545:NE:9895, V-B:GLY:453:C:9012, V-B:GLY:453:CA:9014, V-B:ARG:545:CB:9892, V-B:GLY:454:CA:9019, H-B:GLU:543:OE2:9881, V-A:GLY:453:C:4041, H-B:GLU:543:OE1:9880, H-A:GLU:543:OE1:4908, V-B:ILE:455:C:9022, V-A:ILE:455:C:4051, V-A:GLY:454:C:4046"]

$$$$
4bg_Grossjean_2025
     RDKit          3D

 39 41  0  0  0  0  0  0  0  0999 V2000
  123.5570  124.4140   57.5260 C   0  0  0  0  0  0  0  0  0  0  0  0
  124.4990  124.0320   58.6530 C   0  0  0  0  0  0  0  0  0  0  0  0
  124.0600  123.9950   59.9740 C   0  0  0  0  0  0  0  0  0  0  0  0
  124.9440  123.6460   61.0080 C   0  0  0  0  0  0  0  0  0  0  0  0
  124.4150  123.6200   62.4460 C   0  0  0  0  0  0  0  0  0  0  0  0
  125.2480  124.1900   63.3190 F   0  0  0  0  0  0  0  0  0  0  0  0
  123.2570  124.2770   62.5120 F   0  0  0  0  0  0  0  0  0  0  0  0
  124.2290  122.3590   62.8360 F   0  0  0  0  0  0  0  0  0  0  0  0
  126.2860  123.3350   60.6400 C   0  0  0  0  0  0  0  0  0  0  0  0
  127.4490  122.9500   61.4030 C   0  0  0  0  0  0  0  0  0  0  0  0
  127.4320  122.8210   62.7690 N   0  0  0  0  0  0  0  0  0  0  0  0
  128.5910  122.7120   60.6230 C   0  0  0  0  0  0  0  0  0  0  0  0
  129.9350  122.3390   61.0650 C   0  0  0  0  0  0  0  0  0  0  0  0
  130.8070  123.1870   61.2570 O   0  0  0  0  0  0  0  0  0  0  0  0
  130.1410  121.0230   61.2820 N   0  0  0  0  0  0  0  0  0  0  0  0
  131.4030  120.4210   61.7100 C   0  0  0  0  0  0  0  0  0  0  0  0
  131.9510  119.3910   60.7310 C   0  0  0  0  0  0  0  0  0  0  0  0
  131.2570  118.1980   60.5080 C   0  0  0  0  0  0  0  0  0  0  0  0
  131.7400  117.2750   59.5840 C   0  0  0  0  0  0  0  0  0  0  0  0
  132.9070  117.5540   58.8750 C   0  0  0  0  0  0  0  0  0  0  0  0
  133.5940  118.7480   59.0790 C   0  0  0  0  0  0  0  0  0  0  0  0
  133.1120  119.6710   60.0050 C   0  0  0  0  0  0  0  0  0  0  0  0
  128.2720  122.9960   58.9150 S   0  0  0  0  0  0  0  0  0  0  0  0
  126.6060  123.4030   59.2490 C   0  0  0  0  0  0  0  0  0  0  0  0
  125.7630  123.7380   58.2720 N   0  0  0  0  0  0  0  0  0  0  0  0
  122.6158  124.7957   57.9483 H   0  0  0  0  0  0  0  0  0  0  0  0
  124.0238  125.1939   56.9064 H   0  0  0  0  0  0  0  0  0  0  0  0
  123.3487  123.5293   56.9064 H   0  0  0  0  0  0  0  0  0  0  0  0
  123.0139  124.2407   60.2092 H   0  0  0  0  0  0  0  0  0  0  0  0
  126.8160  122.1730   63.2370 H   0  0  0  0  0  0  0  0  0  0  0  0
  128.0340  123.3810   63.3570 H   0  0  0  0  0  0  0  0  0  0  0  0
  129.4070  120.3780   61.0280 H   0  0  0  0  0  0  0  0  0  0  0  0
  132.1484  121.2216   61.8258 H   0  0  0  0  0  0  0  0  0  0  0  0
  131.2045  119.8939   62.6548 H   0  0  0  0  0  0  0  0  0  0  0  0
  130.3301  117.9886   61.0621 H   0  0  0  0  0  0  0  0  0  0  0  0
  131.2030  116.3301   59.4145 H   0  0  0  0  0  0  0  0  0  0  0  0
  133.2893  116.8236   58.1468 H   0  0  0  0  0  0  0  0  0  0  0  0
  134.5123  118.9614   58.5122 H   0  0  0  0  0  0  0  0  0  0  0  0
  133.6452  120.6198   60.1646 H   0  0  0  0  0  0  0  0  0  0  0  0
  1  2  1  0
  2  3  2  0
  3  4  1  0
  4  5  1  0
  5  6  1  0
  5  7  1  0
  5  8  1  0
  4  9  2  0
  9 10  1  0
 10 11  1  0
 10 12  2  0
 12 13  1  0
 13 14  2  0
 13 15  1  0
 15 16  1  0
 16 17  1  0
 17 18  2  0
 18 19  1  0
 19 20  2  0
 20 21  1  0
 21 22  2  0
 12 23  1  0
 23 24  1  0
 24 25  2  0
 25  2  1  0
 24  9  1  0
 22 17  1  0
  1 26  1  0
  1 27  1  0
  1 28  1  0
  3 29  1  0
 11 30  1  0
 11 31  1  0
 15 32  1  0
 16 33  1  0
 16 34  1  0
 18 35  1  0
 19 36  1  0
 20 37  1  0
 21 38  1  0
 22 39  1  0
M  END
>  <Binding energies>  (1) 
[-6.91]

>  <Ligand effiencies>  (1) 
[-0.2467857142857143]

>  <Interactions>  (1) 
["V-B:GLU:543:CD:9879, V-B:ARG:545:CZ:9897, V-B:ASP:366:CG:8183, H-B:ALA:541:O:9860, V-B:PRO:540:CA:9854, V-B:PRO:540:CB:9856, V-B:ALA:541:CB:9863, V-B:PRO:540:C:9852, V-B:TYR:539:CE2:9847, V-B:ASN:362:CG:8147, V-B:TYR:539:CD2:9845, V-B:ASN:362:CB:8146, V-B:ASP:366:CB:8182, V-B:ALA:541:C:9859, V-A:LEU:373:CD2:3280, V-B:GLU:543:CG:9878, V-B:ALA:541:CA:9861, V-B:TYR:539:CB:9842, V-A:ILE:369:CG2:3236, V-A:LEU:373:CD1:3279, V-A:SER:385:CA:3406, V-A:LEU:475:CD2:4258, V-A:LEU:373:CG:3278, V-B:TYR:531:CE2:9764, V-B:LEU:363:CD1:8159, V-B:TYR:531:CZ:9765, V-B:TYR:539:C:9838, H-B:GLU:543:OE2:9881, H-B:TYR:539:O:9839, V-B:PRO:540:N:9855, V-A:HIS:383:CE1:3393, V-B:LEU:363:CA:8155, V-A:VAL:384:C:3396, V-B:ASN:362:C:8142, V-B:ASN:362:CA:8144"]

$$$$
4bh_Grossjean_2025
     RDKit          3D

 51 53  0  0  0  0  0  0  0  0999 V2000
  129.4690  123.3640   73.3400 C   0  0  0  0  0  0  0  0  0  0  0  0
  128.4820  124.3880   73.3020 O   0  0  0  0  0  0  0  0  0  0  0  0
  128.7720  125.5890   72.6790 C   0  0  0  0  0  0  0  0  0  0  0  0
  128.3010  125.9450   71.4060 C   0  0  0  0  0  0  0  0  0  0  0  0
  128.6370  127.1740   70.8370 C   0  0  0  0  0  0  0  0  0  0  0  0
  128.0790  127.5630   69.4730 C   0  0  0  0  0  0  0  0  0  0  0  0
  128.9240  127.1410   68.3550 N   0  0  0  0  0  0  0  0  0  0  0  0
  130.1900  127.5510   68.1330 C   0  0  0  0  0  0  0  0  0  0  0  0
  130.7550  128.3760   68.8540 O   0  0  0  0  0  0  0  0  0  0  0  0
  130.8490  126.9940   66.9520 C   0  0  0  0  0  0  0  0  0  0  0  0
  132.4060  126.1870   67.1090 S   0  0  0  0  0  0  0  0  0  0  0  0
  132.4810  125.9020   65.3860 C   0  0  0  0  0  0  0  0  0  0  0  0
  133.5130  125.2680   64.8310 N   0  0  0  0  0  0  0  0  0  0  0  0
  133.4570  125.1040   63.4890 C   0  0  0  0  0  0  0  0  0  0  0  0
  134.6440  124.3810   62.8760 C   0  0  0  0  0  0  0  0  0  0  0  0
  132.4040  125.5530   62.6970 C   0  0  0  0  0  0  0  0  0  0  0  0
  131.3140  126.2230   63.2760 C   0  0  0  0  0  0  0  0  0  0  0  0
  130.1770  126.6960   62.3640 C   0  0  0  0  0  0  0  0  0  0  0  0
  130.3400  126.3310   61.0910 F   0  0  0  0  0  0  0  0  0  0  0  0
  129.0210  126.1810   62.7810 F   0  0  0  0  0  0  0  0  0  0  0  0
  130.1020  128.0270   62.3920 F   0  0  0  0  0  0  0  0  0  0  0  0
  131.3430  126.4150   64.6890 C   0  0  0  0  0  0  0  0  0  0  0  0
  130.4330  127.0460   65.6120 C   0  0  0  0  0  0  0  0  0  0  0  0
  129.2620  127.6380   65.2140 N   0  0  0  0  0  0  0  0  0  0  0  0
  129.4280  128.0720   71.5560 C   0  0  0  0  0  0  0  0  0  0  0  0
  129.9190  127.7390   72.8280 C   0  0  0  0  0  0  0  0  0  0  0  0
  130.7180  128.5730   73.5900 O   0  0  0  0  0  0  0  0  0  0  0  0
  130.8520  129.9410   73.2190 C   0  0  0  0  0  0  0  0  0  0  0  0
  129.5880  126.4910   73.3760 C   0  0  0  0  0  0  0  0  0  0  0  0
  130.0470  126.1600   74.6290 O   0  0  0  0  0  0  0  0  0  0  0  0
  131.4380  125.8700   74.6760 C   0  0  0  0  0  0  0  0  0  0  0  0
  129.7041  123.1200   74.3865 H   0  0  0  0  0  0  0  0  0  0  0  0
  129.0863  122.4668   72.8314 H   0  0  0  0  0  0  0  0  0  0  0  0
  130.3796  123.7134   72.8314 H   0  0  0  0  0  0  0  0  0  0  0  0
  127.6588  125.2464   70.8496 H   0  0  0  0  0  0  0  0  0  0  0  0
  127.0890  127.0979   69.3562 H   0  0  0  0  0  0  0  0  0  0  0  0
  128.0296  128.6615   69.4448 H   0  0  0  0  0  0  0  0  0  0  0  0
  128.5540  126.4030   67.7730 H   0  0  0  0  0  0  0  0  0  0  0  0
  135.2879  123.9888   63.6769 H   0  0  0  0  0  0  0  0  0  0  0  0
  134.2846  123.5483   62.2536 H   0  0  0  0  0  0  0  0  0  0  0  0
  135.2190  125.0824   62.2536 H   0  0  0  0  0  0  0  0  0  0  0  0
  132.4258  125.3819   61.6106 H   0  0  0  0  0  0  0  0  0  0  0  0
  128.4170  127.1030   65.0640 H   0  0  0  0  0  0  0  0  0  0  0  0
  129.2050  128.6320   65.0470 H   0  0  0  0  0  0  0  0  0  0  0  0
  129.6694  129.0527   71.1202 H   0  0  0  0  0  0  0  0  0  0  0  0
  130.9129  130.5623   74.1247 H   0  0  0  0  0  0  0  0  0  0  0  0
  131.7672  130.0713   72.6228 H   0  0  0  0  0  0  0  0  0  0  0  0
  129.9795  130.2464   72.6228 H   0  0  0  0  0  0  0  0  0  0  0  0
  131.7632  125.8022   75.7246 H   0  0  0  0  0  0  0  0  0  0  0  0
  131.6302  124.9125   74.1699 H   0  0  0  0  0  0  0  0  0  0  0  0
  131.9968  126.6709   74.1699 H   0  0  0  0  0  0  0  0  0  0  0  0
  1  2  1  0
  2  3  1  0
  3  4  2  0
  4  5  1  0
  5  6  1  0
  6  7  1  0
  7  8  1  0
  8  9  2  0
  8 10  1  0
 10 11  1  0
 11 12  1  0
 12 13  2  0
 13 14  1  0
 14 15  1  0
 14 16  2  0
 16 17  1  0
 17 18  1  0
 18 19  1  0
 18 20  1  0
 18 21  1  0
 17 22  2  0
 22 23  1  0
 23 24  1  0
  5 25  2  0
 25 26  1  0
 26 27  1  0
 27 28  1  0
 26 29  2  0
 29 30  1  0
 30 31  1  0
 29  3  1  0
 23 10  2  0
 22 12  1  0
  1 32  1  0
  1 33  1  0
  1 34  1  0
  4 35  1  0
  6 36  1  0
  6 37  1  0
  7 38  1  0
 15 39  1  0
 15 40  1  0
 15 41  1  0
 16 42  1  0
 24 43  1  0
 24 44  1  0
 25 45  1  0
 28 46  1  0
 28 47  1  0
 28 48  1  0
 31 49  1  0
 31 50  1  0
 31 51  1  0
M  END
>  <Binding energies>  (1) 
[-6.12]

>  <Ligand effiencies>  (1) 
[-0.18]

>  <Interactions>  (1) 
["V-B:GLU:543:CB:9877, V-B:GLU:543:CD:9879, V-B:HIS:456:CE1:9040, H-A:GLY:454:N:4049, V-A:HIS:456:CE1:4069, V-A:GLU:543:CD:4907, V-A:GLY:454:CA:4048, H-A:ARG:545:NH2:4927, V-A:GLU:543:C:4901, V-A:TYR:484:CZ:4346, V-A:ARG:545:CZ:4925, V-A:GLY:453:CA:4043, V-A:ASP:366:CG:3212, V-A:ARG:545:CG:4921, V-B:GLU:543:C:9873, H-A:TYR:484:OH:4347, H-A:GLU:543:OE2:4909, H-B:GLU:543:OE2:9881, V-A:GLY:453:C:4041, V-A:ILE:369:CD1:3238, H-B:GLU:543:OE1:9880, V-A:GLY:544:C:4911, V-A:GLY:544:CA:4913, H-A:GLU:543:OE1:4908, H-A:LYS:547:NZ:4950, H-B:LYS:547:NZ:9922, V-A:HIS:456:CG:4065, V-A:HIS:456:CD2:4067, V-A:LYS:547:CE:4949, V-A:HIS:456:CB:4064"]

$$$$
4bi_Grossjean_2025
     RDKit          3D

 32 34  0  0  0  0  0  0  0  0999 V2000
  134.8110  125.4190   67.3760 C   0  0  0  0  0  0  0  0  0  0  0  0
  133.4870  125.9580   66.8660 C   0  0  0  0  0  0  0  0  0  0  0  0
  133.1440  125.8630   65.5200 C   0  0  0  0  0  0  0  0  0  0  0  0
  131.9130  126.3620   65.0630 C   0  0  0  0  0  0  0  0  0  0  0  0
  131.5770  126.2280   63.5740 C   0  0  0  0  0  0  0  0  0  0  0  0
  131.3200  127.4010   62.9900 F   0  0  0  0  0  0  0  0  0  0  0  0
  132.6030  125.6770   62.9270 F   0  0  0  0  0  0  0  0  0  0  0  0
  130.4960  125.4620   63.4220 F   0  0  0  0  0  0  0  0  0  0  0  0
  131.0530  126.9610   66.0310 C   0  0  0  0  0  0  0  0  0  0  0  0
  129.7480  127.5700   65.9400 C   0  0  0  0  0  0  0  0  0  0  0  0
  129.0620  127.6820   64.7580 N   0  0  0  0  0  0  0  0  0  0  0  0
  129.2430  128.0300   67.1680 C   0  0  0  0  0  0  0  0  0  0  0  0
  127.9690  128.7040   67.4370 C   0  0  0  0  0  0  0  0  0  0  0  0
  127.8690  129.5150   68.3590 O   0  0  0  0  0  0  0  0  0  0  0  0
  126.9520  128.3820   66.5990 N   0  0  0  0  0  0  0  0  0  0  0  0
  125.6540  128.8750   66.6160 C   0  0  0  0  0  0  0  0  0  0  0  0
  124.8590  128.8850   67.7610 C   0  0  0  0  0  0  0  0  0  0  0  0
  123.6650  129.4440   67.3640 C   0  0  0  0  0  0  0  0  0  0  0  0
  123.7390  129.7550   66.0480 O   0  0  0  0  0  0  0  0  0  0  0  0
  125.0050  129.3890   65.5850 N   0  0  0  0  0  0  0  0  0  0  0  0
  130.3880  127.7430   68.4760 S   0  0  0  0  0  0  0  0  0  0  0  0
  131.5240  126.9940   67.3790 C   0  0  0  0  0  0  0  0  0  0  0  0
  132.6930  126.5170   67.8080 N   0  0  0  0  0  0  0  0  0  0  0  0
  134.8081  125.4202   68.4760 H   0  0  0  0  0  0  0  0  0  0  0  0
  134.9536  124.3912   67.0108 H   0  0  0  0  0  0  0  0  0  0  0  0
  135.6309  126.0549   67.0108 H   0  0  0  0  0  0  0  0  0  0  0  0
  133.8413  125.3943   64.8100 H   0  0  0  0  0  0  0  0  0  0  0  0
  129.2340  128.4380   64.1100 H   0  0  0  0  0  0  0  0  0  0  0  0
  128.3540  127.0110   64.4950 H   0  0  0  0  0  0  0  0  0  0  0  0
  127.1530  127.7140   65.8680 H   0  0  0  0  0  0  0  0  0  0  0  0
  125.1276  128.5242   68.7649 H   0  0  0  0  0  0  0  0  0  0  0  0
  122.7916  129.6111   68.0115 H   0  0  0  0  0  0  0  0  0  0  0  0
  1  2  1  0
  2  3  2  0
  3  4  1  0
  4  5  1  0
  5  6  1  0
  5  7  1  0
  5  8  1  0
  4  9  2  0
  9 10  1  0
 10 11  1  0
 10 12  2  0
 12 13  1  0
 13 14  2  0
 13 15  1  0
 15 16  1  0
 16 17  1  0
 17 18  2  0
 18 19  1  0
 19 20  1  0
 12 21  1  0
 21 22  1  0
 22 23  2  0
 23  2  1  0
 22  9  1  0
 20 16  2  0
  1 24  1  0
  1 25  1  0
  1 26  1  0
  3 27  1  0
 11 28  1  0
 11 29  1  0
 15 30  1  0
 17 31  1  0
 18 32  1  0
M  END
>  <Binding energies>  (1) 
[-5.91]

>  <Ligand effiencies>  (1) 
[-0.22730769230769232]

>  <Interactions>  (1) 
["V-B:ARG:545:CG:9893, V-A:GLU:543:CB:4905, V-B:GLU:543:CD:9879, V-A:HIS:456:CE1:4069, V-A:GLU:543:CD:4907, V-A:GLY:454:CA:4048, H-B:TYR:484:OH:9318, V-B:ARG:545:CD:9894, H-B:GLY:454:N:9020, V-A:ARG:545:CZ:4925, V-A:GLY:453:CA:4043, V-A:ASP:366:CG:3212, V-A:ARG:545:CD:4922, V-A:ARG:545:CG:4921, H-A:TYR:484:OH:4347, H-A:GLU:543:OE2:4909, H-B:ARG:545:NE:9895, H-B:GLU:543:OE2:9881, V-A:GLY:453:C:4041, H-B:GLU:543:OE1:9880, H-A:GLU:543:OE1:4908, V-A:ILE:455:C:4051, V-A:GLY:454:C:4046"]

$$$$
4bj_Grossjean_2025
     RDKit          3D

 32 34  0  0  0  0  0  0  0  0999 V2000
  128.0700  125.7600   72.4690 C   0  0  0  0  0  0  0  0  0  0  0  0
  127.9270  126.3770   71.0890 C   0  0  0  0  0  0  0  0  0  0  0  0
  129.0000  126.4070   70.2030 C   0  0  0  0  0  0  0  0  0  0  0  0
  128.8560  126.9860   68.9320 C   0  0  0  0  0  0  0  0  0  0  0  0
  130.0660  126.9990   67.9920 C   0  0  0  0  0  0  0  0  0  0  0  0
  129.7250  127.0550   66.7030 F   0  0  0  0  0  0  0  0  0  0  0  0
  130.8280  128.0610   68.2510 F   0  0  0  0  0  0  0  0  0  0  0  0
  130.7830  125.8890   68.1670 F   0  0  0  0  0  0  0  0  0  0  0  0
  127.5780  127.5280   68.6030 C   0  0  0  0  0  0  0  0  0  0  0  0
  127.0640  128.1880   67.4280 C   0  0  0  0  0  0  0  0  0  0  0  0
  127.8320  128.4240   66.3150 N   0  0  0  0  0  0  0  0  0  0  0  0
  125.7130  128.5590   67.5220 C   0  0  0  0  0  0  0  0  0  0  0  0
  124.8840  129.2480   66.5300 C   0  0  0  0  0  0  0  0  0  0  0  0
  124.0330  130.0690   66.8800 O   0  0  0  0  0  0  0  0  0  0  0  0
  125.1360  128.9290   65.2370 N   0  0  0  0  0  0  0  0  0  0  0  0
  124.5050  129.4430   64.1130 C   0  0  0  0  0  0  0  0  0  0  0  0
  123.3400  130.0500   64.0470 N   0  0  0  0  0  0  0  0  0  0  0  0
  123.0520  130.4150   62.8130 C   0  0  0  0  0  0  0  0  0  0  0  0
  123.9980  130.1020   61.8420 C   0  0  0  0  0  0  0  0  0  0  0  0
  125.3330  129.2830   62.5970 S   0  0  0  0  0  0  0  0  0  0  0  0
  125.0380  128.1190   69.0890 S   0  0  0  0  0  0  0  0  0  0  0  0
  126.5600  127.4280   69.6010 C   0  0  0  0  0  0  0  0  0  0  0  0
  126.7030  126.8800   70.8070 N   0  0  0  0  0  0  0  0  0  0  0  0
  127.8917  126.5292   73.2348 H   0  0  0  0  0  0  0  0  0  0  0  0
  127.3360  124.9491   72.5860 H   0  0  0  0  0  0  0  0  0  0  0  0
  129.0859  125.3547   72.5860 H   0  0  0  0  0  0  0  0  0  0  0  0
  129.9667  125.9745   70.5003 H   0  0  0  0  0  0  0  0  0  0  0  0
  128.0630  127.6920   65.6600 H   0  0  0  0  0  0  0  0  0  0  0  0
  128.1990  129.3450   66.1170 H   0  0  0  0  0  0  0  0  0  0  0  0
  125.8620  128.2510   65.0600 H   0  0  0  0  0  0  0  0  0  0  0  0
  122.1163  130.9376   62.5652 H   0  0  0  0  0  0  0  0  0  0  0  0
  123.9148  130.3350   60.7702 H   0  0  0  0  0  0  0  0  0  0  0  0
  1  2  1  0
  2  3  2  0
  3  4  1  0
  4  5  1  0
  5  6  1  0
  5  7  1  0
  5  8  1  0
  4  9  2  0
  9 10  1  0
 10 11  1  0
 10 12  2  0
 12 13  1  0
 13 14  2  0
 13 15  1  0
 15 16  1  0
 16 17  2  0
 17 18  1  0
 18 19  2  0
 19 20  1  0
 12 21  1  0
 21 22  1  0
 22 23  2  0
 23  2  1  0
 22  9  1  0
 20 16  1  0
  1 24  1  0
  1 25  1  0
  1 26  1  0
  3 27  1  0
 11 28  1  0
 11 29  1  0
 15 30  1  0
 18 31  1  0
 19 32  1  0
M  END
>  <Binding energies>  (1) 
[-6.16]

>  <Ligand effiencies>  (1) 
[-0.23692307692307693]

>  <Interactions>  (1) 
["V-B:ARG:545:CG:9893, V-A:GLU:543:CB:4905, V-B:GLU:543:CB:9877, V-A:GLU:543:CG:4906, V-B:GLU:543:CD:9879, V-B:HIS:456:CE1:9040, H-B:ARG:545:NH2:9899, V-A:HIS:456:CE1:4069, V-A:GLU:543:CD:4907, V-B:ARG:545:CZ:9897, H-B:TYR:484:OH:9318, H-B:GLY:454:N:9020, V-B:ASP:366:CG:8183, V-A:TYR:484:CZ:4346, V-B:GLU:543:C:9873, H-B:ARG:545:NH1:9898, H-B:ILE:455:N:9025, H-B:ARG:545:N:9891, V-B:GLY:453:C:9012, V-A:TYR:484:CE2:4345, V-B:GLY:453:CA:9014, V-B:ARG:545:CA:9890, V-B:ARG:545:CB:9892, H-B:GLU:543:OE2:9881, H-B:GLU:543:OE1:9880, H-B:HIS:456:ND1:9037, V-A:HIS:456:CD2:4067"]

$$$$
4bk_Grossjean_2025
     RDKit          3D

 50 51  0  0  0  0  0  0  0  0999 V2000
  133.5180  124.3100   59.3860 C   0  0  0  0  0  0  0  0  0  0  0  0
  132.8640  124.7310   58.1990 O   0  0  0  0  0  0  0  0  0  0  0  0
  131.5780  125.2910   58.4300 C   0  0  0  0  0  0  0  0  0  0  0  0
  130.8700  124.5070   59.5420 C   0  0  0  0  0  0  0  0  0  0  0  0
  129.6850  123.9180   59.0250 O   0  0  0  0  0  0  0  0  0  0  0  0
  129.1200  124.6300   57.9330 C   0  0  0  0  0  0  0  0  0  0  0  0
  128.0160  123.7820   57.2870 C   0  0  0  0  0  0  0  0  0  0  0  0
  126.7810  124.4800   57.3660 O   0  0  0  0  0  0  0  0  0  0  0  0
  125.6660  123.6460   57.6610 C   0  0  0  0  0  0  0  0  0  0  0  0
  125.4350  123.6230   59.1820 C   0  0  0  0  0  0  0  0  0  0  0  0
  126.6700  123.6740   59.9650 N   0  0  0  0  0  0  0  0  0  0  0  0
  126.7710  123.3920   61.2800 C   0  0  0  0  0  0  0  0  0  0  0  0
  125.8040  123.0360   61.9560 O   0  0  0  0  0  0  0  0  0  0  0  0
  128.1060  123.5230   61.8670 C   0  0  0  0  0  0  0  0  0  0  0  0
  128.4210  124.7600   63.0800 S   0  0  0  0  0  0  0  0  0  0  0  0
  130.0810  124.2410   63.2420 C   0  0  0  0  0  0  0  0  0  0  0  0
  130.9190  124.8430   64.0860 N   0  0  0  0  0  0  0  0  0  0  0  0
  132.1790  124.3520   64.1250 C   0  0  0  0  0  0  0  0  0  0  0  0
  133.1150  125.0510   65.0940 C   0  0  0  0  0  0  0  0  0  0  0  0
  132.6170  123.2830   63.3470 C   0  0  0  0  0  0  0  0  0  0  0  0
  131.7410  122.6450   62.4550 C   0  0  0  0  0  0  0  0  0  0  0  0
  132.2700  121.4760   61.6180 C   0  0  0  0  0  0  0  0  0  0  0  0
  131.5370  120.3670   61.7480 F   0  0  0  0  0  0  0  0  0  0  0  0
  132.2670  121.8080   60.3280 F   0  0  0  0  0  0  0  0  0  0  0  0
  133.5130  121.1780   61.9940 F   0  0  0  0  0  0  0  0  0  0  0  0
  130.4030  123.1380   62.3910 C   0  0  0  0  0  0  0  0  0  0  0  0
  129.2490  122.7480   61.6200 C   0  0  0  0  0  0  0  0  0  0  0  0
  129.2730  121.7110   60.7220 N   0  0  0  0  0  0  0  0  0  0  0  0
  132.9576  124.6708   60.2611 H   0  0  0  0  0  0  0  0  0  0  0  0
  133.5655  123.2113   59.4085 H   0  0  0  0  0  0  0  0  0  0  0  0
  134.5378  124.7217   59.4085 H   0  0  0  0  0  0  0  0  0  0  0  0
  131.6855  126.3426   58.7344 H   0  0  0  0  0  0  0  0  0  0  0  0
  130.9829  125.2350   57.5065 H   0  0  0  0  0  0  0  0  0  0  0  0
  131.5383  123.7179   59.9170 H   0  0  0  0  0  0  0  0  0  0  0  0
  130.6114  125.1898   60.3647 H   0  0  0  0  0  0  0  0  0  0  0  0
  128.6915  125.5764   58.2945 H   0  0  0  0  0  0  0  0  0  0  0  0
  129.9021  124.8426   57.1893 H   0  0  0  0  0  0  0  0  0  0  0  0
  128.2658  123.5954   56.2321 H   0  0  0  0  0  0  0  0  0  0  0  0
  127.9312  122.8218   57.8169 H   0  0  0  0  0  0  0  0  0  0  0  0
  124.7698  124.0400   57.1594 H   0  0  0  0  0  0  0  0  0  0  0  0
  125.8654  122.6250   57.3036 H   0  0  0  0  0  0  0  0  0  0  0  0
  124.8161  124.4912   59.4525 H   0  0  0  0  0  0  0  0  0  0  0  0
  124.9436  122.6676   59.4183 H   0  0  0  0  0  0  0  0  0  0  0  0
  127.5010  123.9590   59.4680 H   0  0  0  0  0  0  0  0  0  0  0  0
  132.8106  124.8237   66.1263 H   0  0  0  0  0  0  0  0  0  0  0  0
  134.1438  124.6983   64.9290 H   0  0  0  0  0  0  0  0  0  0  0  0
  133.0690  126.1376   64.9290 H   0  0  0  0  0  0  0  0  0  0  0  0
  133.6574  122.9361   63.4323 H   0  0  0  0  0  0  0  0  0  0  0  0
  129.5460  121.8450   59.7580 H   0  0  0  0  0  0  0  0  0  0  0  0
  129.0220  120.7720   60.9970 H   0  0  0  0  0  0  0  0  0  0  0  0
  1  2  1  0
  2  3  1  0
  3  4  1  0
  4  5  1  0
  5  6  1  0
  6  7  1  0
  7  8  1  0
  8  9  1  0
  9 10  1  0
 10 11  1  0
 11 12  1  0
 12 13  2  0
 12 14  1  0
 14 15  1  0
 15 16  1  0
 16 17  2  0
 17 18  1  0
 18 19  1  0
 18 20  2  0
 20 21  1  0
 21 22  1  0
 22 23  1  0
 22 24  1  0
 22 25  1  0
 21 26  2  0
 26 27  1  0
 27 28  1  0
 27 14  2  0
 26 16  1  0
  1 29  1  0
  1 30  1  0
  1 31  1  0
  3 32  1  0
  3 33  1  0
  4 34  1  0
  4 35  1  0
  6 36  1  0
  6 37  1  0
  7 38  1  0
  7 39  1  0
  9 40  1  0
  9 41  1  0
 10 42  1  0
 10 43  1  0
 11 44  1  0
 19 45  1  0
 19 46  1  0
 19 47  1  0
 20 48  1  0
 28 49  1  0
 28 50  1  0
M  END
>  <Binding energies>  (1) 
[-4.12]

>  <Ligand effiencies>  (1) 
[-0.1329032258064516]

>  <Interactions>  (1) 
["V-B:GLU:543:CD:9879, V-A:GLY:454:CA:4048, H-B:ALA:541:N:9862, V-B:PRO:540:CA:9854, V-B:PRO:540:CB:9856, V-A:ASP:366:CG:3212, V-B:PRO:540:C:9852, V-B:TYR:539:CE2:9847, V-B:TYR:539:CZ:9848, V-B:TYR:539:CD2:9845, V-B:MET:535:CE:9806, V-A:ILE:369:CG2:3236, V-A:SER:385:CA:3406, V-A:LEU:475:CD2:4258, H-B:TYR:531:OH:9766, V-A:ASP:366:CB:3211, V-B:TYR:539:C:9838, H-B:TYR:539:O:9839, V-A:ILE:369:CD1:3238, V-A:SER:385:C:3404, V-A:ILE:369:CB:3235, V-A:ASP:366:CA:3209, H-B:TYR:539:OH:9849"]

$$$$
4ca_Grossjean_2025
     RDKit          3D

 52 55  0  0  0  0  0  0  0  0999 V2000
  122.7460  132.1330   61.9700 C   0  0  0  0  0  0  0  0  0  0  0  0
  122.2210  130.7920   62.4920 C   0  0  0  0  0  0  0  0  0  0  0  0
  122.9980  130.3840   63.6100 O   0  0  0  0  0  0  0  0  0  0  0  0
  124.2340  129.8450   63.4480 C   0  0  0  0  0  0  0  0  0  0  0  0
  124.7920  129.7430   62.3500 O   0  0  0  0  0  0  0  0  0  0  0  0
  124.8560  129.3910   64.7360 C   0  0  0  0  0  0  0  0  0  0  0  0
  126.1990  128.9880   64.7430 C   0  0  0  0  0  0  0  0  0  0  0  0
  126.8050  128.5660   65.9230 C   0  0  0  0  0  0  0  0  0  0  0  0
  126.0830  128.5290   67.1150 C   0  0  0  0  0  0  0  0  0  0  0  0
  126.7970  128.0940   68.2490 N   0  0  0  0  0  0  0  0  0  0  0  0
  127.9020  128.6150   68.8380 C   0  0  0  0  0  0  0  0  0  0  0  0
  128.4600  129.6480   68.4680 O   0  0  0  0  0  0  0  0  0  0  0  0
  128.4070  127.8670   69.9910 C   0  0  0  0  0  0  0  0  0  0  0  0
  128.0550  126.1480   70.1560 S   0  0  0  0  0  0  0  0  0  0  0  0
  128.9840  126.0550   71.6330 C   0  0  0  0  0  0  0  0  0  0  0  0
  129.1140  124.9100   72.2990 N   0  0  0  0  0  0  0  0  0  0  0  0
  129.8670  124.9300   73.4290 C   0  0  0  0  0  0  0  0  0  0  0  0
  130.0030  123.6210   74.1520 C   0  0  0  0  0  0  0  0  0  0  0  0
  130.7140  123.5370   75.3600 C   0  0  0  0  0  0  0  0  0  0  0  0
  130.8480  122.3250   76.0330 C   0  0  0  0  0  0  0  0  0  0  0  0
  130.2720  121.1750   75.5040 C   0  0  0  0  0  0  0  0  0  0  0  0
  129.5640  121.2290   74.3080 C   0  0  0  0  0  0  0  0  0  0  0  0
  129.4320  122.4430   73.6390 C   0  0  0  0  0  0  0  0  0  0  0  0
  130.4660  126.1050   73.8970 C   0  0  0  0  0  0  0  0  0  0  0  0
  130.3300  127.3180   73.2050 C   0  0  0  0  0  0  0  0  0  0  0  0
  131.0160  128.5660   73.7730 C   0  0  0  0  0  0  0  0  0  0  0  0
  131.6140  129.3060   72.8370 F   0  0  0  0  0  0  0  0  0  0  0  0
  130.1160  129.3400   74.3780 F   0  0  0  0  0  0  0  0  0  0  0  0
  131.9510  128.2070   74.6530 F   0  0  0  0  0  0  0  0  0  0  0  0
  129.5580  127.3040   72.0090 C   0  0  0  0  0  0  0  0  0  0  0  0
  129.2120  128.3240   71.0490 C   0  0  0  0  0  0  0  0  0  0  0  0
  129.6340  129.6230   71.1640 N   0  0  0  0  0  0  0  0  0  0  0  0
  124.7410  128.9350   67.1200 C   0  0  0  0  0  0  0  0  0  0  0  0
  124.1360  129.3600   65.9390 C   0  0  0  0  0  0  0  0  0  0  0  0
  123.0005  132.7831   62.8201 H   0  0  0  0  0  0  0  0  0  0  0  0
  123.6436  131.9620   61.3575 H   0  0  0  0  0  0  0  0  0  0  0  0
  121.9709  132.6169   61.3575 H   0  0  0  0  0  0  0  0  0  0  0  0
  121.1698  130.9028   62.7964 H   0  0  0  0  0  0  0  0  0  0  0  0
  122.2938  130.0345   61.6977 H   0  0  0  0  0  0  0  0  0  0  0  0
  126.7785  129.0055   63.8082 H   0  0  0  0  0  0  0  0  0  0  0  0
  127.8614  128.2594   65.9149 H   0  0  0  0  0  0  0  0  0  0  0  0
  126.4090  127.2740   68.6900 H   0  0  0  0  0  0  0  0  0  0  0  0
  131.1727  124.4435   75.7818 H   0  0  0  0  0  0  0  0  0  0  0  0
  131.4071  122.2776   76.9791 H   0  0  0  0  0  0  0  0  0  0  0  0
  130.3769  120.2171   76.0345 H   0  0  0  0  0  0  0  0  0  0  0  0
  129.1105  120.3170   73.8926 H   0  0  0  0  0  0  0  0  0  0  0  0
  128.8716  122.4811   72.6932 H   0  0  0  0  0  0  0  0  0  0  0  0
  131.0550  126.0771   74.8256 H   0  0  0  0  0  0  0  0  0  0  0  0
  129.4540  130.3100   70.4440 H   0  0  0  0  0  0  0  0  0  0  0  0
  130.1400  129.9430   71.9790 H   0  0  0  0  0  0  0  0  0  0  0  0
  124.1652  128.9180   68.0571 H   0  0  0  0  0  0  0  0  0  0  0  0
  123.0820  129.6747   65.9504 H   0  0  0  0  0  0  0  0  0  0  0  0
  1  2  1  0
  2  3  1  0
  3  4  1  0
  4  5  2  0
  4  6  1  0
  6  7  2  0
  7  8  1  0
  8  9  2  0
  9 10  1  0
 10 11  1  0
 11 12  2  0
 11 13  1  0
 13 14  1  0
 14 15  1  0
 15 16  2  0
 16 17  1  0
 17 18  1  0
 18 19  2  0
 19 20  1  0
 20 21  2  0
 21 22  1  0
 22 23  2  0
 17 24  2  0
 24 25  1  0
 25 26  1  0
 26 27  1  0
 26 28  1  0
 26 29  1  0
 25 30  2  0
 30 31  1  0
 31 32  1  0
  9 33  1  0
 33 34  2  0
 34  6  1  0
 31 13  2  0
 30 15  1  0
 23 18  1  0
  1 35  1  0
  1 36  1  0
  1 37  1  0
  2 38  1  0
  2 39  1  0
  7 40  1  0
  8 41  1  0
 10 42  1  0
 19 43  1  0
 20 44  1  0
 21 45  1  0
 22 46  1  0
 23 47  1  0
 24 48  1  0
 32 49  1  0
 32 50  1  0
 33 51  1  0
 34 52  1  0
M  END
>  <Binding energies>  (1) 
[-7.07]

>  <Ligand effiencies>  (1) 
[-0.1910810810810811]

>  <Interactions>  (1) 
["V-B:ARG:545:CG:9893, V-B:GLU:543:CB:9877, V-B:GLU:543:CD:9879, V-B:HIS:456:CE1:9040, V-A:HIS:456:CE1:4069, V-B:ARG:545:CZ:9897, H-B:TYR:484:OH:9318, V-B:ARG:545:CD:9894, H-B:GLY:454:N:9020, V-B:ILE:369:CG2:8207, V-B:ASP:366:CG:8183, V-B:ILE:369:CG1:8208, V-A:GLU:543:C:4901, V-B:GLU:543:C:9873, V-B:GLY:453:C:9012, V-B:GLY:453:CA:9014, V-B:ILE:369:CB:8206, H-B:GLU:543:OE2:9881, H-B:GLU:543:OE1:9880, V-B:GLU:543:CA:9875, V-A:GLY:544:C:4911, V-A:GLY:544:CA:4913, V-A:HIS:456:CG:4065, V-A:HIS:456:CD2:4067, V-A:TYR:484:CB:4340, V-A:ASP:473:CG:4239, V-A:LYS:547:CE:4949, H-A:GLU:543:O:4902, H-B:HIS:456:NE2:9041"]

$$$$
4cb_Grossjean_2025
     RDKit          3D

 49 52  0  0  0  0  0  0  0  0999 V2000
  133.0410  127.8000   75.2410 C   0  0  0  0  0  0  0  0  0  0  0  0
  131.6520  128.0930   75.3030 O   0  0  0  0  0  0  0  0  0  0  0  0
  130.7280  127.1890   74.8870 C   0  0  0  0  0  0  0  0  0  0  0  0
  130.4020  126.1960   75.5440 O   0  0  0  0  0  0  0  0  0  0  0  0
  130.1400  127.5180   73.5440 C   0  0  0  0  0  0  0  0  0  0  0  0
  129.2390  126.6210   72.9540 C   0  0  0  0  0  0  0  0  0  0  0  0
  128.6710  126.9000   71.7140 C   0  0  0  0  0  0  0  0  0  0  0  0
  128.9940  128.0760   71.0370 C   0  0  0  0  0  0  0  0  0  0  0  0
  128.3510  128.2640   69.7990 N   0  0  0  0  0  0  0  0  0  0  0  0
  127.1930  127.7390   69.3280 C   0  0  0  0  0  0  0  0  0  0  0  0
  126.4530  127.0000   69.9800 O   0  0  0  0  0  0  0  0  0  0  0  0
  126.8420  128.1250   67.9590 C   0  0  0  0  0  0  0  0  0  0  0  0
  125.2120  128.6820   67.5850 S   0  0  0  0  0  0  0  0  0  0  0  0
  125.6390  128.9510   65.9110 C   0  0  0  0  0  0  0  0  0  0  0  0
  124.7530  129.4140   65.0330 N   0  0  0  0  0  0  0  0  0  0  0  0
  125.1800  129.6010   63.7570 C   0  0  0  0  0  0  0  0  0  0  0  0
  124.1590  130.1300   62.7920 C   0  0  0  0  0  0  0  0  0  0  0  0
  122.8880  130.5270   63.2370 C   0  0  0  0  0  0  0  0  0  0  0  0
  121.9350  131.0150   62.3470 C   0  0  0  0  0  0  0  0  0  0  0  0
  122.2410  131.1130   60.9940 C   0  0  0  0  0  0  0  0  0  0  0  0
  123.4930  130.7240   60.5250 C   0  0  0  0  0  0  0  0  0  0  0  0
  124.4410  130.2350   61.4190 C   0  0  0  0  0  0  0  0  0  0  0  0
  126.4890  129.3010   63.3660 C   0  0  0  0  0  0  0  0  0  0  0  0
  127.4310  128.8080   64.2820 C   0  0  0  0  0  0  0  0  0  0  0  0
  128.8490  128.5020   63.7860 C   0  0  0  0  0  0  0  0  0  0  0  0
  129.7880  128.7440   64.7040 F   0  0  0  0  0  0  0  0  0  0  0  0
  128.9410  127.2150   63.4520 F   0  0  0  0  0  0  0  0  0  0  0  0
  129.1280  129.2540   62.7220 F   0  0  0  0  0  0  0  0  0  0  0  0
  126.9970  128.6240   65.6270 C   0  0  0  0  0  0  0  0  0  0  0  0
  127.6630  128.1590   66.8200 C   0  0  0  0  0  0  0  0  0  0  0  0
  128.9820  127.7830   66.8330 N   0  0  0  0  0  0  0  0  0  0  0  0
  129.8920  128.9820   71.6220 C   0  0  0  0  0  0  0  0  0  0  0  0
  130.4590  128.7010   72.8620 C   0  0  0  0  0  0  0  0  0  0  0  0
  133.4437  127.7151   76.2611 H   0  0  0  0  0  0  0  0  0  0  0  0
  133.1919  126.8503   74.7069 H   0  0  0  0  0  0  0  0  0  0  0  0
  133.5627  128.6079   74.7069 H   0  0  0  0  0  0  0  0  0  0  0  0
  128.9783  125.6882   73.4754 H   0  0  0  0  0  0  0  0  0  0  0  0
  127.9626  126.1882   71.2650 H   0  0  0  0  0  0  0  0  0  0  0  0
  128.8310  128.8980   69.1770 H   0  0  0  0  0  0  0  0  0  0  0  0
  122.6411  130.4513   64.3062 H   0  0  0  0  0  0  0  0  0  0  0  0
  120.9439  131.3218   62.7126 H   0  0  0  0  0  0  0  0  0  0  0  0
  121.4895  131.5001   60.2901 H   0  0  0  0  0  0  0  0  0  0  0  0
  123.7315  130.8027   59.4540 H   0  0  0  0  0  0  0  0  0  0  0  0
  125.4279  129.9254   61.0446 H   0  0  0  0  0  0  0  0  0  0  0  0
  126.7864  129.4548   62.3182 H   0  0  0  0  0  0  0  0  0  0  0  0
  129.7210  128.4360   67.0520 H   0  0  0  0  0  0  0  0  0  0  0  0
  129.2610  126.8340   66.6270 H   0  0  0  0  0  0  0  0  0  0  0  0
  130.1483  129.9157   71.0999 H   0  0  0  0  0  0  0  0  0  0  0  0
  131.1649  129.4147   73.3117 H   0  0  0  0  0  0  0  0  0  0  0  0
  1  2  1  0
  2  3  1  0
  3  4  2  0
  3  5  1  0
  5  6  2  0
  6  7  1  0
  7  8  2  0
  8  9  1  0
  9 10  1  0
 10 11  2  0
 10 12  1  0
 12 13  1  0
 13 14  1  0
 14 15  2  0
 15 16  1  0
 16 17  1  0
 17 18  2  0
 18 19  1  0
 19 20  2  0
 20 21  1  0
 21 22  2  0
 16 23  2  0
 23 24  1  0
 24 25  1  0
 25 26  1  0
 25 27  1  0
 25 28  1  0
 24 29  2  0
 29 30  1  0
 30 31  1  0
  8 32  1  0
 32 33  2  0
 33  5  1  0
 30 12  2  0
 29 14  1  0
 22 17  1  0
  1 34  1  0
  1 35  1  0
  1 36  1  0
  6 37  1  0
  7 38  1  0
  9 39  1  0
 18 40  1  0
 19 41  1  0
 20 42  1  0
 21 43  1  0
 22 44  1  0
 23 45  1  0
 31 46  1  0
 31 47  1  0
 32 48  1  0
 33 49  1  0
M  END
>  <Binding energies>  (1) 
[-6.93]

>  <Ligand effiencies>  (1) 
[-0.1925]

>  <Interactions>  (1) 
["V-B:ARG:545:CG:9893, V-B:GLU:543:CB:9877, V-A:GLU:543:CG:4906, V-B:GLU:543:CD:9879, V-B:HIS:456:CE1:9040, H-B:ARG:545:NH2:9899, V-A:HIS:456:CE1:4069, V-A:GLU:543:CD:4907, V-B:ARG:545:CZ:9897, V-B:ARG:545:CD:9894, V-B:ILE:369:CG2:8207, V-B:ASP:366:CG:8183, V-B:ILE:369:CG1:8208, V-A:GLU:543:C:4901, H-B:ARG:545:N:9891, V-B:ASP:366:CB:8182, V-B:GLY:453:C:9012, V-B:GLY:453:CA:9014, V-B:GLY:454:CA:9019, V-B:ILE:369:CB:8206, H-B:GLU:543:OE2:9881, V-B:ASP:366:CA:8180, H-A:GLU:543:OE1:4908, H-A:LYS:547:NZ:4950, H-B:LYS:547:NZ:9922"]

$$$$
4cc_Grossjean_2025
     RDKit          3D

 47 50  0  0  0  0  0  0  0  0999 V2000
  130.4540  129.1640   72.2560 C   0  0  0  0  0  0  0  0  0  0  0  0
  129.3850  128.7990   71.3900 O   0  0  0  0  0  0  0  0  0  0  0  0
  129.6620  128.0880   70.2380 C   0  0  0  0  0  0  0  0  0  0  0  0
  128.9970  126.8730   70.0810 C   0  0  0  0  0  0  0  0  0  0  0  0
  129.2110  126.0880   68.9510 C   0  0  0  0  0  0  0  0  0  0  0  0
  130.1060  126.5050   67.9650 C   0  0  0  0  0  0  0  0  0  0  0  0
  130.2460  125.6540   66.8520 N   0  0  0  0  0  0  0  0  0  0  0  0
  131.1130  125.7360   65.8150 C   0  0  0  0  0  0  0  0  0  0  0  0
  131.9840  126.6020   65.7110 O   0  0  0  0  0  0  0  0  0  0  0  0
  130.9610  124.7040   64.7840 C   0  0  0  0  0  0  0  0  0  0  0  0
  132.0990  123.3620   64.6960 S   0  0  0  0  0  0  0  0  0  0  0  0
  131.2540  122.6760   63.3290 C   0  0  0  0  0  0  0  0  0  0  0  0
  131.6650  121.5490   62.7520 N   0  0  0  0  0  0  0  0  0  0  0  0
  130.9390  121.0880   61.7020 C   0  0  0  0  0  0  0  0  0  0  0  0
  131.4270  119.8170   61.0700 C   0  0  0  0  0  0  0  0  0  0  0  0
  132.6380  119.7880   60.3580 C   0  0  0  0  0  0  0  0  0  0  0  0
  133.0970  118.6130   59.7680 C   0  0  0  0  0  0  0  0  0  0  0  0
  132.3490  117.4460   59.8810 C   0  0  0  0  0  0  0  0  0  0  0  0
  131.1450  117.4480   60.5780 C   0  0  0  0  0  0  0  0  0  0  0  0
  130.6890  118.6250   61.1650 C   0  0  0  0  0  0  0  0  0  0  0  0
  129.8140  121.7690   61.2250 C   0  0  0  0  0  0  0  0  0  0  0  0
  129.3730  122.9600   61.8250 C   0  0  0  0  0  0  0  0  0  0  0  0
  128.1290  123.6500   61.2540 C   0  0  0  0  0  0  0  0  0  0  0  0
  128.3670  124.8950   60.8320 F   0  0  0  0  0  0  0  0  0  0  0  0
  127.6660  122.9590   60.2140 F   0  0  0  0  0  0  0  0  0  0  0  0
  127.1830  123.7210   62.1910 F   0  0  0  0  0  0  0  0  0  0  0  0
  130.1220  123.4480   62.9330 C   0  0  0  0  0  0  0  0  0  0  0  0
  129.9820  124.6050   63.7820 C   0  0  0  0  0  0  0  0  0  0  0  0
  128.9760  125.5240   63.6220 N   0  0  0  0  0  0  0  0  0  0  0  0
  130.7710  127.7330   68.1100 C   0  0  0  0  0  0  0  0  0  0  0  0
  130.5520  128.5150   69.2400 C   0  0  0  0  0  0  0  0  0  0  0  0
  130.1322  129.0541   73.3021 H   0  0  0  0  0  0  0  0  0  0  0  0
  131.3182  128.5100   72.0676 H   0  0  0  0  0  0  0  0  0  0  0  0
  130.7377  130.2099   72.0676 H   0  0  0  0  0  0  0  0  0  0  0  0
  128.2965  126.5311   70.8572 H   0  0  0  0  0  0  0  0  0  0  0  0
  128.6726  125.1358   68.8352 H   0  0  0  0  0  0  0  0  0  0  0  0
  129.6250  124.8590   66.8540 H   0  0  0  0  0  0  0  0  0  0  0  0
  133.2332  120.7084   60.2651 H   0  0  0  0  0  0  0  0  0  0  0  0
  134.0477  118.6079   59.2146 H   0  0  0  0  0  0  0  0  0  0  0  0
  132.7112  116.5168   59.4170 H   0  0  0  0  0  0  0  0  0  0  0  0
  130.5557  116.5232   60.6649 H   0  0  0  0  0  0  0  0  0  0  0  0
  129.7349  118.6219   61.7124 H   0  0  0  0  0  0  0  0  0  0  0  0
  129.2638  121.3638   60.3630 H   0  0  0  0  0  0  0  0  0  0  0  0
  128.4790  125.6250   62.7480 H   0  0  0  0  0  0  0  0  0  0  0  0
  128.6990  126.1370   64.3760 H   0  0  0  0  0  0  0  0  0  0  0  0
  131.4657  128.0772   67.3297 H   0  0  0  0  0  0  0  0  0  0  0  0
  131.0796  129.4737   69.3519 H   0  0  0  0  0  0  0  0  0  0  0  0
  1  2  1  0
  2  3  1  0
  3  4  2  0
  4  5  1  0
  5  6  2  0
  6  7  1  0
  7  8  1  0
  8  9  2  0
  8 10  1  0
 10 11  1  0
 11 12  1  0
 12 13  2  0
 13 14  1  0
 14 15  1  0
 15 16  2  0
 16 17  1  0
 17 18  2  0
 18 19  1  0
 19 20  2  0
 14 21  2  0
 21 22  1  0
 22 23  1  0
 23 24  1  0
 23 25  1  0
 23 26  1  0
 22 27  2  0
 27 28  1  0
 28 29  1  0
  6 30  1  0
 30 31  2  0
 31  3  1  0
 28 10  2  0
 27 12  1  0
 20 15  1  0
  1 32  1  0
  1 33  1  0
  1 34  1  0
  4 35  1  0
  5 36  1  0
  7 37  1  0
 16 38  1  0
 17 39  1  0
 18 40  1  0
 19 41  1  0
 20 42  1  0
 21 43  1  0
 29 44  1  0
 29 45  1  0
 30 46  1  0
 31 47  1  0
M  END
>  <Binding energies>  (1) 
[-7.33]

>  <Ligand effiencies>  (1) 
[-0.21558823529411764]

>  <Interactions>  (1) 
["V-A:GLU:543:CB:4905, V-B:GLU:543:CB:9877, V-B:GLU:543:CD:9879, V-B:HIS:456:CE1:9040, V-A:HIS:456:CE1:4069, V-A:GLU:543:CD:4907, V-A:GLY:454:CA:4048, H-A:ARG:545:NH2:4927, V-A:GLU:543:C:4901, V-A:TYR:484:CZ:4346, V-B:PRO:540:CA:9854, V-B:TYR:539:CE2:9847, V-B:TYR:539:CD2:9845, H-A:ARG:545:NE:4923, H-A:TYR:484:OH:4347, V-A:ILE:369:CG2:3236, V-A:SER:385:CA:3406, V-A:TYR:484:CE2:4345, V-A:LEU:475:CD2:4258, V-B:TYR:539:C:9838, H-B:GLU:543:OE2:9881, V-B:PRO:540:N:9855, H-B:GLU:543:OE1:9880, V-A:GLY:544:C:4911, V-A:GLY:544:CA:4913, V-A:HIS:383:CE1:3393, V-A:VAL:384:C:3396"]

$$$$
4cd_Grossjean_2025
     RDKit          3D

 43 46  0  0  0  0  0  0  0  0999 V2000
  125.6050  128.8140   68.2440 N   0  0  0  0  0  0  0  0  0  0  0  0
  126.5290  128.7650   67.2310 C   0  0  0  0  0  0  0  0  0  0  0  0
  126.3170  129.3390   65.9670 C   0  0  0  0  0  0  0  0  0  0  0  0
  125.1340  130.0530   65.4750 C   0  0  0  0  0  0  0  0  0  0  0  0
  124.2240  130.3650   66.2430 O   0  0  0  0  0  0  0  0  0  0  0  0
  125.1370  130.3350   64.1490 N   0  0  0  0  0  0  0  0  0  0  0  0
  124.1470  130.9540   63.3630 C   0  0  0  0  0  0  0  0  0  0  0  0
  124.4690  132.2150   62.8540 C   0  0  0  0  0  0  0  0  0  0  0  0
  123.5610  132.9020   62.0540 C   0  0  0  0  0  0  0  0  0  0  0  0
  122.3300  132.3250   61.7540 C   0  0  0  0  0  0  0  0  0  0  0  0
  122.0020  131.0630   62.2430 C   0  0  0  0  0  0  0  0  0  0  0  0
  122.9080  130.3720   63.0450 C   0  0  0  0  0  0  0  0  0  0  0  0
  127.7120  129.0990   64.9170 S   0  0  0  0  0  0  0  0  0  0  0  0
  128.5610  128.2270   66.1700 C   0  0  0  0  0  0  0  0  0  0  0  0
  129.7820  127.7360   65.9690 N   0  0  0  0  0  0  0  0  0  0  0  0
  130.3570  127.0600   66.9980 C   0  0  0  0  0  0  0  0  0  0  0  0
  131.7330  126.5160   66.7410 C   0  0  0  0  0  0  0  0  0  0  0  0
  132.0880  126.0310   65.4720 C   0  0  0  0  0  0  0  0  0  0  0  0
  133.3610  125.5260   65.2260 C   0  0  0  0  0  0  0  0  0  0  0  0
  134.3020  125.4990   66.2500 C   0  0  0  0  0  0  0  0  0  0  0  0
  133.9780  125.9770   67.5150 C   0  0  0  0  0  0  0  0  0  0  0  0
  132.7050  126.4830   67.7560 C   0  0  0  0  0  0  0  0  0  0  0  0
  129.7130  126.8980   68.2280 C   0  0  0  0  0  0  0  0  0  0  0  0
  128.4260  127.4150   68.4520 C   0  0  0  0  0  0  0  0  0  0  0  0
  127.7760  127.1980   69.8230 C   0  0  0  0  0  0  0  0  0  0  0  0
  126.4450  127.3010   69.7940 F   0  0  0  0  0  0  0  0  0  0  0  0
  128.0730  125.9790   70.2750 F   0  0  0  0  0  0  0  0  0  0  0  0
  128.2270  128.1090   70.6850 F   0  0  0  0  0  0  0  0  0  0  0  0
  127.8090  128.1150   67.3760 C   0  0  0  0  0  0  0  0  0  0  0  0
  125.2560  127.9760   68.6880 H   0  0  0  0  0  0  0  0  0  0  0  0
  125.2430  129.6940   68.5830 H   0  0  0  0  0  0  0  0  0  0  0  0
  125.9720  130.0820   63.6420 H   0  0  0  0  0  0  0  0  0  0  0  0
  125.4446  132.6666   63.0868 H   0  0  0  0  0  0  0  0  0  0  0  0
  123.8149  133.8972   61.6601 H   0  0  0  0  0  0  0  0  0  0  0  0
  121.6106  132.8704   61.1256 H   0  0  0  0  0  0  0  0  0  0  0  0
  121.0293  130.6124   61.9965 H   0  0  0  0  0  0  0  0  0  0  0  0
  122.6539  129.3728   63.4285 H   0  0  0  0  0  0  0  0  0  0  0  0
  131.3474  126.0506   64.6589 H   0  0  0  0  0  0  0  0  0  0  0  0
  133.6221  125.1497   64.2259 H   0  0  0  0  0  0  0  0  0  0  0  0
  135.3079  125.0974   66.0581 H   0  0  0  0  0  0  0  0  0  0  0  0
  134.7254  125.9550   68.3218 H   0  0  0  0  0  0  0  0  0  0  0  0
  132.4547  126.8636   68.7573 H   0  0  0  0  0  0  0  0  0  0  0  0
  130.2240  126.3549   69.0366 H   0  0  0  0  0  0  0  0  0  0  0  0
  1  2  1  0
  2  3  2  0
  3  4  1  0
  4  5  2  0
  4  6  1  0
  6  7  1  0
  7  8  2  0
  8  9  1  0
  9 10  2  0
 10 11  1  0
 11 12  2  0
  3 13  1  0
 13 14  1  0
 14 15  2  0
 15 16  1  0
 16 17  1  0
 17 18  2  0
 18 19  1  0
 19 20  2  0
 20 21  1  0
 21 22  2  0
 16 23  2  0
 23 24  1  0
 24 25  1  0
 25 26  1  0
 25 27  1  0
 25 28  1  0
 24 29  2  0
 29  2  1  0
 12  7  1  0
 29 14  1  0
 22 17  1  0
  1 30  1  0
  1 31  1  0
  6 32  1  0
  8 33  1  0
  9 34  1  0
 10 35  1  0
 11 36  1  0
 12 37  1  0
 18 38  1  0
 19 39  1  0
 20 40  1  0
 21 41  1  0
 22 42  1  0
 23 43  1  0
M  END
>  <Binding energies>  (1) 
[-7.3]

>  <Ligand effiencies>  (1) 
[-0.228125]

>  <Interactions>  (1) 
["V-B:ARG:545:CG:9893, V-B:GLU:543:CB:9877, V-B:GLU:543:CD:9879, V-B:HIS:456:CE1:9040, V-B:SER:385:CB:8379, V-A:HIS:456:CE1:4069, V-A:GLU:543:CD:4907, V-A:GLY:454:CA:4048, H-B:TYR:484:OH:9318, H-B:GLY:454:N:9020, V-B:ILE:369:CG2:8207, V-B:ASP:366:CG:8183, V-B:ILE:369:CG1:8208, V-B:TYR:484:CZ:9317, V-A:ARG:545:CZ:4925, V-A:GLY:453:CA:4043, V-A:ARG:545:CD:4922, V-A:ARG:545:CG:4921, V-B:GLU:543:C:9873, V-B:GLY:453:C:9012, V-B:GLY:453:CA:9014, V-B:ILE:369:CD1:8209, V-B:SER:385:C:8375, V-B:ILE:369:CB:8206, V-A:GLY:453:C:4041, V-B:GLU:543:CA:9875, V-A:ARG:545:CB:4920"]

$$$$
4ce_Grossjean_2025
     RDKit          3D

 45 48  0  0  0  0  0  0  0  0999 V2000
  120.6630  130.3840   62.1260 C   0  0  0  0  0  0  0  0  0  0  0  0
  122.0040  131.0490   62.3740 C   0  0  0  0  0  0  0  0  0  0  0  0
  122.2810  132.3340   61.8980 C   0  0  0  0  0  0  0  0  0  0  0  0
  123.5330  132.8870   62.1710 C   0  0  0  0  0  0  0  0  0  0  0  0
  124.4660  132.1520   62.9050 C   0  0  0  0  0  0  0  0  0  0  0  0
  124.1250  130.8680   63.3470 C   0  0  0  0  0  0  0  0  0  0  0  0
  125.0980  130.1880   64.1020 N   0  0  0  0  0  0  0  0  0  0  0  0
  125.1560  130.0060   65.4450 C   0  0  0  0  0  0  0  0  0  0  0  0
  124.3030  130.4240   66.2300 O   0  0  0  0  0  0  0  0  0  0  0  0
  126.3210  129.2620   65.9290 C   0  0  0  0  0  0  0  0  0  0  0  0
  127.7110  129.0070   64.8770 S   0  0  0  0  0  0  0  0  0  0  0  0
  128.5690  128.1590   66.1410 C   0  0  0  0  0  0  0  0  0  0  0  0
  129.7930  127.6760   65.9450 N   0  0  0  0  0  0  0  0  0  0  0  0
  130.3870  127.0450   66.9920 C   0  0  0  0  0  0  0  0  0  0  0  0
  131.7680  126.5170   66.7400 C   0  0  0  0  0  0  0  0  0  0  0  0
  132.7240  126.4930   67.7680 C   0  0  0  0  0  0  0  0  0  0  0  0
  134.0110  126.0110   67.5400 C   0  0  0  0  0  0  0  0  0  0  0  0
  134.3590  125.5440   66.2770 C   0  0  0  0  0  0  0  0  0  0  0  0
  133.4310  125.5580   65.2410 C   0  0  0  0  0  0  0  0  0  0  0  0
  132.1460  126.0430   65.4720 C   0  0  0  0  0  0  0  0  0  0  0  0
  129.7400  126.8830   68.2210 C   0  0  0  0  0  0  0  0  0  0  0  0
  128.4460  127.3840   68.4370 C   0  0  0  0  0  0  0  0  0  0  0  0
  127.7970  127.1730   69.8080 C   0  0  0  0  0  0  0  0  0  0  0  0
  126.4650  127.2370   69.7730 F   0  0  0  0  0  0  0  0  0  0  0  0
  128.1260  125.9710   70.2830 F   0  0  0  0  0  0  0  0  0  0  0  0
  128.2200  128.1110   70.6560 F   0  0  0  0  0  0  0  0  0  0  0  0
  127.8200  128.0610   67.3510 C   0  0  0  0  0  0  0  0  0  0  0  0
  126.5360  128.7010   67.1990 C   0  0  0  0  0  0  0  0  0  0  0  0
  125.6110  128.7550   68.2100 N   0  0  0  0  0  0  0  0  0  0  0  0
  122.9010  130.3220   63.0880 N   0  0  0  0  0  0  0  0  0  0  0  0
  120.1871  130.1480   63.0892 H   0  0  0  0  0  0  0  0  0  0  0  0
  120.0158  131.0656   61.5545 H   0  0  0  0  0  0  0  0  0  0  0  0
  120.8139  129.4563   61.5545 H   0  0  0  0  0  0  0  0  0  0  0  0
  121.5305  132.8955   61.3223 H   0  0  0  0  0  0  0  0  0  0  0  0
  123.7832  133.8956   61.8102 H   0  0  0  0  0  0  0  0  0  0  0  0
  125.4552  132.5758   63.1328 H   0  0  0  0  0  0  0  0  0  0  0  0
  125.8240  129.7490   63.5560 H   0  0  0  0  0  0  0  0  0  0  0  0
  132.4526  126.8604   68.7687 H   0  0  0  0  0  0  0  0  0  0  0  0
  134.7490  125.9998   68.3556 H   0  0  0  0  0  0  0  0  0  0  0  0
  135.3743  125.1612   66.0963 H   0  0  0  0  0  0  0  0  0  0  0  0
  133.7107  125.1877   64.2437 H   0  0  0  0  0  0  0  0  0  0  0  0
  131.4158  126.0553   64.6494 H   0  0  0  0  0  0  0  0  0  0  0  0
  130.2551  126.3523   69.0352 H   0  0  0  0  0  0  0  0  0  0  0  0
  125.2270  129.6300   68.5370 H   0  0  0  0  0  0  0  0  0  0  0  0
  125.2810  127.9150   68.6660 H   0  0  0  0  0  0  0  0  0  0  0  0
  1  2  1  0
  2  3  2  0
  3  4  1  0
  4  5  2  0
  5  6  1  0
  6  7  1  0
  7  8  1  0
  8  9  2  0
  8 10  1  0
 10 11  1  0
 11 12  1  0
 12 13  2  0
 13 14  1  0
 14 15  1  0
 15 16  2  0
 16 17  1  0
 17 18  2  0
 18 19  1  0
 19 20  2  0
 14 21  2  0
 21 22  1  0
 22 23  1  0
 23 24  1  0
 23 25  1  0
 23 26  1  0
 22 27  2  0
 27 28  1  0
 28 29  1  0
  6 30  2  0
 30  2  1  0
 28 10  2  0
 27 12  1  0
 20 15  1  0
  1 31  1  0
  1 32  1  0
  1 33  1  0
  3 34  1  0
  4 35  1  0
  5 36  1  0
  7 37  1  0
 16 38  1  0
 17 39  1  0
 18 40  1  0
 19 41  1  0
 20 42  1  0
 21 43  1  0
 29 44  1  0
 29 45  1  0
M  END
>  <Binding energies>  (1) 
[-7.34]

>  <Ligand effiencies>  (1) 
[-0.2224242424242424]

>  <Interactions>  (1) 
["V-B:ARG:545:CG:9893, V-B:GLU:543:CB:9877, V-B:GLU:543:CD:9879, V-B:HIS:456:CE1:9040, V-B:SER:385:CB:8379, V-A:HIS:456:CE1:4069, V-A:GLU:543:CD:4907, V-A:GLY:454:CA:4048, H-B:TYR:484:OH:9318, H-B:GLY:454:N:9020, V-B:ILE:369:CG2:8207, V-B:ASP:366:CG:8183, V-B:ILE:369:CG1:8208, V-A:ARG:545:CZ:4925, V-A:GLY:453:CA:4043, V-A:ARG:545:CD:4922, V-A:ARG:545:CG:4921, V-B:GLU:543:C:9873, V-B:GLY:453:C:9012, V-B:GLY:453:CA:9014, V-B:ILE:369:CD1:8209, V-B:SER:385:C:8375, V-B:ILE:369:CB:8206, V-B:ASP:366:CA:8180, V-A:GLY:453:C:4041, V-B:GLU:543:CA:9875, V-A:ARG:545:CB:4920, V-B:CYS:365:C:8174"]

$$$$
4cf_Grossjean_2025
     RDKit          3D

 42 45  0  0  0  0  0  0  0  0999 V2000
  125.5900  128.7970   68.2390 N   0  0  0  0  0  0  0  0  0  0  0  0
  126.5180  128.7600   67.2300 C   0  0  0  0  0  0  0  0  0  0  0  0
  126.3080  129.3410   65.9690 C   0  0  0  0  0  0  0  0  0  0  0  0
  125.1170  130.0360   65.4700 C   0  0  0  0  0  0  0  0  0  0  0  0
  124.1900  130.3170   66.2320 O   0  0  0  0  0  0  0  0  0  0  0  0
  125.1330  130.3400   64.1500 N   0  0  0  0  0  0  0  0  0  0  0  0
  124.1430  130.9510   63.3570 C   0  0  0  0  0  0  0  0  0  0  0  0
  122.9020  130.3790   63.0160 C   0  0  0  0  0  0  0  0  0  0  0  0
  122.0140  131.0900   62.2060 C   0  0  0  0  0  0  0  0  0  0  0  0
  122.3870  132.3560   61.7560 C   0  0  0  0  0  0  0  0  0  0  0  0
  123.5780  132.9270   62.0640 N   0  0  0  0  0  0  0  0  0  0  0  0
  124.4320  132.2230   62.8510 C   0  0  0  0  0  0  0  0  0  0  0  0
  127.7050  129.1120   64.9210 S   0  0  0  0  0  0  0  0  0  0  0  0
  128.5560  128.2350   66.1720 C   0  0  0  0  0  0  0  0  0  0  0  0
  129.7780  127.7460   65.9700 N   0  0  0  0  0  0  0  0  0  0  0  0
  130.3510  127.0650   66.9970 C   0  0  0  0  0  0  0  0  0  0  0  0
  131.7250  126.5190   66.7380 C   0  0  0  0  0  0  0  0  0  0  0  0
  132.0900  126.0740   65.4580 C   0  0  0  0  0  0  0  0  0  0  0  0
  133.3630  125.5670   65.2090 C   0  0  0  0  0  0  0  0  0  0  0  0
  134.2920  125.5000   66.2420 C   0  0  0  0  0  0  0  0  0  0  0  0
  133.9580  125.9370   67.5200 C   0  0  0  0  0  0  0  0  0  0  0  0
  132.6850  126.4440   67.7630 C   0  0  0  0  0  0  0  0  0  0  0  0
  129.7060  126.8990   68.2260 C   0  0  0  0  0  0  0  0  0  0  0  0
  128.4190  127.4150   68.4500 C   0  0  0  0  0  0  0  0  0  0  0  0
  127.7680  127.1920   69.8200 C   0  0  0  0  0  0  0  0  0  0  0  0
  126.4370  127.2870   69.7900 F   0  0  0  0  0  0  0  0  0  0  0  0
  128.0710  125.9750   70.2710 F   0  0  0  0  0  0  0  0  0  0  0  0
  128.2120  128.1050   70.6850 F   0  0  0  0  0  0  0  0  0  0  0  0
  127.8010  128.1160   67.3750 C   0  0  0  0  0  0  0  0  0  0  0  0
  125.2300  129.6680   68.6010 H   0  0  0  0  0  0  0  0  0  0  0  0
  125.2330  127.9480   68.6560 H   0  0  0  0  0  0  0  0  0  0  0  0
  125.9770  130.1020   63.6490 H   0  0  0  0  0  0  0  0  0  0  0  0
  122.6338  129.3782   63.3855 H   0  0  0  0  0  0  0  0  0  0  0  0
  121.0402  130.6601   61.9286 H   0  0  0  0  0  0  0  0  0  0  0  0
  121.6837  132.9167   61.1228 H   0  0  0  0  0  0  0  0  0  0  0  0
  125.4017  132.6766   63.1039 H   0  0  0  0  0  0  0  0  0  0  0  0
  131.3587  126.1265   64.6380 H   0  0  0  0  0  0  0  0  0  0  0  0
  133.6325  125.2212   64.2001 H   0  0  0  0  0  0  0  0  0  0  0  0
  135.2975  125.0988   66.0472 H   0  0  0  0  0  0  0  0  0  0  0  0
  134.6961  125.8820   68.3338 H   0  0  0  0  0  0  0  0  0  0  0  0
  132.4253  126.7919   68.7737 H   0  0  0  0  0  0  0  0  0  0  0  0
  130.2164  126.3536   69.0335 H   0  0  0  0  0  0  0  0  0  0  0  0
  1  2  1  0
  2  3  2  0
  3  4  1  0
  4  5  2  0
  4  6  1  0
  6  7  1  0
  7  8  2  0
  8  9  1  0
  9 10  2  0
 10 11  1  0
 11 12  2  0
  3 13  1  0
 13 14  1  0
 14 15  2  0
 15 16  1  0
 16 17  1  0
 17 18  2  0
 18 19  1  0
 19 20  2  0
 20 21  1  0
 21 22  2  0
 16 23  2  0
 23 24  1  0
 24 25  1  0
 25 26  1  0
 25 27  1  0
 25 28  1  0
 24 29  2  0
 29  2  1  0
 12  7  1  0
 29 14  1  0
 22 17  1  0
  1 30  1  0
  1 31  1  0
  6 32  1  0
  8 33  1  0
  9 34  1  0
 10 35  1  0
 12 36  1  0
 18 37  1  0
 19 38  1  0
 20 39  1  0
 21 40  1  0
 22 41  1  0
 23 42  1  0
M  END
>  <Binding energies>  (1) 
[-7.0]

>  <Ligand effiencies>  (1) 
[-0.21875]

>  <Interactions>  (1) 
["V-B:ARG:545:CG:9893, V-B:GLU:543:CB:9877, V-B:GLU:543:CD:9879, V-B:HIS:456:CE1:9040, V-A:HIS:456:CE1:4069, V-A:GLU:543:CD:4907, V-A:GLY:454:CA:4048, H-B:TYR:484:OH:9318, H-B:GLY:454:N:9020, V-B:ILE:369:CG2:8207, V-B:ASP:366:CG:8183, V-B:ILE:369:CG1:8208, V-B:TYR:484:CZ:9317, V-A:ARG:545:CZ:4925, V-A:GLY:453:CA:4043, V-A:ARG:545:CD:4922, V-A:ARG:545:CG:4921, V-B:GLU:543:C:9873, V-B:GLY:453:C:9012, V-B:GLY:453:CA:9014, V-B:ILE:369:CD1:8209, V-B:SER:385:C:8375, V-B:ILE:369:CB:8206, V-A:GLY:453:C:4041, V-B:GLU:543:CA:9875"]

$$$$
4cg_Grossjean_2025
     RDKit          3D

 46 49  0  0  0  0  0  0  0  0999 V2000
  129.3380  125.6560   63.9490 N   0  0  0  0  0  0  0  0  0  0  0  0
  129.8250  125.1740   62.7620 C   0  0  0  0  0  0  0  0  0  0  0  0
  130.0190  125.9780   61.6290 C   0  0  0  0  0  0  0  0  0  0  0  0
  129.8070  127.4180   61.4850 C   0  0  0  0  0  0  0  0  0  0  0  0
  128.7220  127.8740   61.1180 O   0  0  0  0  0  0  0  0  0  0  0  0
  130.8770  128.2010   61.7380 N   0  0  0  0  0  0  0  0  0  0  0  0
  130.8900  129.6620   61.6800 C   0  0  0  0  0  0  0  0  0  0  0  0
  131.8810  130.2190   60.6650 C   0  0  0  0  0  0  0  0  0  0  0  0
  132.8770  131.1060   61.0830 C   0  0  0  0  0  0  0  0  0  0  0  0
  133.8040  131.5930   60.1650 C   0  0  0  0  0  0  0  0  0  0  0  0
  133.7380  131.1840   58.8350 C   0  0  0  0  0  0  0  0  0  0  0  0
  132.7580  130.2870   58.4160 C   0  0  0  0  0  0  0  0  0  0  0  0
  131.8320  129.7990   59.3330 C   0  0  0  0  0  0  0  0  0  0  0  0
  130.6760  125.0470   60.2850 S   0  0  0  0  0  0  0  0  0  0  0  0
  130.6650  123.5830   61.2420 C   0  0  0  0  0  0  0  0  0  0  0  0
  131.0820  122.4240   60.7400 N   0  0  0  0  0  0  0  0  0  0  0  0
  131.0430  121.3410   61.5590 C   0  0  0  0  0  0  0  0  0  0  0  0
  131.5180  120.0470   60.9630 C   0  0  0  0  0  0  0  0  0  0  0  0
  130.7710  118.8670   61.1100 C   0  0  0  0  0  0  0  0  0  0  0  0
  131.2070  117.6650   60.5600 C   0  0  0  0  0  0  0  0  0  0  0  0
  132.4060  117.6240   59.8540 C   0  0  0  0  0  0  0  0  0  0  0  0
  133.1680  118.7770   59.6950 C   0  0  0  0  0  0  0  0  0  0  0  0
  132.7270  119.9760   60.2470 C   0  0  0  0  0  0  0  0  0  0  0  0
  130.5660  121.4250   62.8720 C   0  0  0  0  0  0  0  0  0  0  0  0
  130.1230  122.6430   63.4110 C   0  0  0  0  0  0  0  0  0  0  0  0
  129.6120  122.6650   64.8570 C   0  0  0  0  0  0  0  0  0  0  0  0
  128.2950  122.8590   64.9440 F   0  0  0  0  0  0  0  0  0  0  0  0
  129.8850  121.5010   65.4480 F   0  0  0  0  0  0  0  0  0  0  0  0
  130.2060  123.6490   65.5300 F   0  0  0  0  0  0  0  0  0  0  0  0
  130.1750  123.7880   62.5650 C   0  0  0  0  0  0  0  0  0  0  0  0
  128.5270  126.2570   63.9900 H   0  0  0  0  0  0  0  0  0  0  0  0
  129.7710  125.4170   64.8310 H   0  0  0  0  0  0  0  0  0  0  0  0
  131.7090  127.7650   62.1050 H   0  0  0  0  0  0  0  0  0  0  0  0
  129.8818  130.0091   61.4096 H   0  0  0  0  0  0  0  0  0  0  0  0
  131.2026  130.0234   62.6708 H   0  0  0  0  0  0  0  0  0  0  0  0
  132.9286  131.4191   62.1362 H   0  0  0  0  0  0  0  0  0  0  0  0
  134.5846  132.2973   60.4885 H   0  0  0  0  0  0  0  0  0  0  0  0
  134.4667  131.5731   58.1087 H   0  0  0  0  0  0  0  0  0  0  0  0
  132.7163  129.9658   57.3648 H   0  0  0  0  0  0  0  0  0  0  0  0
  131.0620  129.0831   59.0096 H   0  0  0  0  0  0  0  0  0  0  0  0
  129.8244  118.8931   61.6698 H   0  0  0  0  0  0  0  0  0  0  0  0
  130.6067  116.7514   60.6827 H   0  0  0  0  0  0  0  0  0  0  0  0
  132.7528  116.6748   59.4195 H   0  0  0  0  0  0  0  0  0  0  0  0
  134.1145  118.7412   59.1357 H   0  0  0  0  0  0  0  0  0  0  0  0
  133.3345  120.8844   60.1213 H   0  0  0  0  0  0  0  0  0  0  0  0
  130.5377  120.5183   63.4941 H   0  0  0  0  0  0  0  0  0  0  0  0
  1  2  1  0
  2  3  2  0
  3  4  1  0
  4  5  2  0
  4  6  1  0
  6  7  1  0
  7  8  1  0
  8  9  2  0
  9 10  1  0
 10 11  2  0
 11 12  1  0
 12 13  2  0
  3 14  1  0
 14 15  1  0
 15 16  2  0
 16 17  1  0
 17 18  1  0
 18 19  2  0
 19 20  1  0
 20 21  2  0
 21 22  1  0
 22 23  2  0
 17 24  2  0
 24 25  1  0
 25 26  1  0
 26 27  1  0
 26 28  1  0
 26 29  1  0
 25 30  2  0
 30  2  1  0
 13  8  1  0
 30 15  1  0
 23 18  1  0
  1 31  1  0
  1 32  1  0
  6 33  1  0
  7 34  1  0
  7 35  1  0
  9 36  1  0
 10 37  1  0
 11 38  1  0
 12 39  1  0
 13 40  1  0
 19 41  1  0
 20 42  1  0
 21 43  1  0
 22 44  1  0
 23 45  1  0
 24 46  1  0
M  END
>  <Binding energies>  (1) 
[-7.5]

>  <Ligand effiencies>  (1) 
[-0.22727272727272727]

>  <Interactions>  (1) 
["V-B:GLU:543:CD:9879, V-A:TYR:484:CZ:4346, V-B:ALA:541:CB:9863, V-A:ASP:366:CG:3212, V-B:TYR:539:CE2:9847, V-B:TYR:539:CD2:9845, H-A:GLU:543:OE2:4909, V-A:ASN:362:C:3171, V-A:ASN:362:CB:3175, V-A:PRO:540:CB:4884, V-B:ALA:541:C:9859, V-A:LEU:373:CD2:3280, V-B:GLU:543:CG:9878, V-B:ALA:541:CA:9861, V-B:TYR:539:CB:9842, V-A:ILE:369:CG2:3236, V-A:SER:385:CA:3406, V-A:TYR:484:CE2:4345, V-A:LEU:475:CD2:4258, H-A:ASP:366:OD2:3214, V-A:LEU:363:CA:3184, V-A:ASP:366:CB:3211, H-B:GLU:543:OE2:9881, H-B:GLU:543:OE1:9880, V-A:LEU:475:CD1:4257, V-A:HIS:383:CE1:3393, V-A:LEU:475:CG:4256, V-A:TYR:531:CZ:4793"]

$$$$
4ch_Grossjean_2025
     RDKit          3D

 58 61  0  0  0  0  0  0  0  0999 V2000
  124.1330  130.4080   63.6720 C   0  0  0  0  0  0  0  0  0  0  0  0
  124.2410  130.5540   65.0840 O   0  0  0  0  0  0  0  0  0  0  0  0
  125.2650  129.9130   65.7550 C   0  0  0  0  0  0  0  0  0  0  0  0
  126.5510  129.7200   65.2240 C   0  0  0  0  0  0  0  0  0  0  0  0
  127.5390  129.0640   65.9610 C   0  0  0  0  0  0  0  0  0  0  0  0
  128.9200  128.8400   65.3570 C   0  0  0  0  0  0  0  0  0  0  0  0
  129.0680  127.5660   64.6530 N   0  0  0  0  0  0  0  0  0  0  0  0
  130.1930  127.1300   64.0480 C   0  0  0  0  0  0  0  0  0  0  0  0
  131.2430  127.7770   64.0550 O   0  0  0  0  0  0  0  0  0  0  0  0
  130.1080  125.8180   63.4050 C   0  0  0  0  0  0  0  0  0  0  0  0
  131.3390  124.6000   63.7230 S   0  0  0  0  0  0  0  0  0  0  0  0
  130.5310  123.4500   62.6850 C   0  0  0  0  0  0  0  0  0  0  0  0
  131.0190  122.2290   62.4880 N   0  0  0  0  0  0  0  0  0  0  0  0
  130.3180  121.4020   61.6690 C   0  0  0  0  0  0  0  0  0  0  0  0
  130.9000  120.0330   61.4620 C   0  0  0  0  0  0  0  0  0  0  0  0
  132.2110  119.8740   60.9830 C   0  0  0  0  0  0  0  0  0  0  0  0
  132.7560  118.6070   60.7880 C   0  0  0  0  0  0  0  0  0  0  0  0
  131.9960  117.4780   61.0700 C   0  0  0  0  0  0  0  0  0  0  0  0
  130.6940  117.6070   61.5420 C   0  0  0  0  0  0  0  0  0  0  0  0
  130.1520  118.8750   61.7330 C   0  0  0  0  0  0  0  0  0  0  0  0
  129.1400  121.8130   61.0390 C   0  0  0  0  0  0  0  0  0  0  0  0
  128.6150  123.1000   61.2380 C   0  0  0  0  0  0  0  0  0  0  0  0
  127.3190  123.4850   60.5170 C   0  0  0  0  0  0  0  0  0  0  0  0
  127.3270  124.7390   60.0580 F   0  0  0  0  0  0  0  0  0  0  0  0
  127.1260  122.6800   59.4730 F   0  0  0  0  0  0  0  0  0  0  0  0
  126.2870  123.3740   61.3530 F   0  0  0  0  0  0  0  0  0  0  0  0
  129.3350  123.9700   62.1060 C   0  0  0  0  0  0  0  0  0  0  0  0
  129.1130  125.3260   62.5460 C   0  0  0  0  0  0  0  0  0  0  0  0
  128.0300  126.0690   62.1500 N   0  0  0  0  0  0  0  0  0  0  0  0
  127.2390  128.5790   67.2340 C   0  0  0  0  0  0  0  0  0  0  0  0
  125.9610  128.7560   67.7900 C   0  0  0  0  0  0  0  0  0  0  0  0
  125.5960  128.3030   69.0440 O   0  0  0  0  0  0  0  0  0  0  0  0
  126.1470  127.0860   69.5360 C   0  0  0  0  0  0  0  0  0  0  0  0
  124.9850  129.4310   67.0420 C   0  0  0  0  0  0  0  0  0  0  0  0
  123.7270  129.5970   67.5670 O   0  0  0  0  0  0  0  0  0  0  0  0
  122.6760  129.2580   66.6720 C   0  0  0  0  0  0  0  0  0  0  0  0
  123.4935  129.5434   63.4406 H   0  0  0  0  0  0  0  0  0  0  0  0
  123.6890  131.3180   63.2422 H   0  0  0  0  0  0  0  0  0  0  0  0
  125.1331  130.2497   63.2422 H   0  0  0  0  0  0  0  0  0  0  0  0
  126.7827  130.0904   64.2145 H   0  0  0  0  0  0  0  0  0  0  0  0
  129.1206  129.6533   64.6440 H   0  0  0  0  0  0  0  0  0  0  0  0
  129.6321  128.8222   66.1952 H   0  0  0  0  0  0  0  0  0  0  0  0
  128.2310  127.0090   64.5620 H   0  0  0  0  0  0  0  0  0  0  0  0
  132.8168  120.7642   60.7583 H   0  0  0  0  0  0  0  0  0  0  0  0
  133.7843  118.5004   60.4121 H   0  0  0  0  0  0  0  0  0  0  0  0
  132.4265  116.4771   60.9191 H   0  0  0  0  0  0  0  0  0  0  0  0
  130.0953  116.7112   61.7634 H   0  0  0  0  0  0  0  0  0  0  0  0
  129.1204  118.9719   62.1024 H   0  0  0  0  0  0  0  0  0  0  0  0
  128.6131  121.1135   60.3733 H   0  0  0  0  0  0  0  0  0  0  0  0
  127.2100  126.1690   62.7320 H   0  0  0  0  0  0  0  0  0  0  0  0
  128.0180  126.5470   61.2610 H   0  0  0  0  0  0  0  0  0  0  0  0
  128.0132  128.0510   67.8101 H   0  0  0  0  0  0  0  0  0  0  0  0
  126.1411  127.0991   70.6359 H   0  0  0  0  0  0  0  0  0  0  0  0
  125.5446  126.2389   69.1761 H   0  0  0  0  0  0  0  0  0  0  0  0
  127.1810  126.9797   69.1761 H   0  0  0  0  0  0  0  0  0  0  0  0
  121.7834  128.9701   67.2468 H   0  0  0  0  0  0  0  0  0  0  0  0
  122.4399  130.1256   66.0383 H   0  0  0  0  0  0  0  0  0  0  0  0
  122.9913  128.4160   66.0383 H   0  0  0  0  0  0  0  0  0  0  0  0
  1  2  1  0
  2  3  1  0
  3  4  2  0
  4  5  1  0
  5  6  1  0
  6  7  1  0
  7  8  1  0
  8  9  2  0
  8 10  1  0
 10 11  1  0
 11 12  1  0
 12 13  2  0
 13 14  1  0
 14 15  1  0
 15 16  2  0
 16 17  1  0
 17 18  2  0
 18 19  1  0
 19 20  2  0
 14 21  2  0
 21 22  1  0
 22 23  1  0
 23 24  1  0
 23 25  1  0
 23 26  1  0
 22 27  2  0
 27 28  1  0
 28 29  1  0
  5 30  2  0
 30 31  1  0
 31 32  1  0
 32 33  1  0
 31 34  2  0
 34 35  1  0
 35 36  1  0
 34  3  1  0
 28 10  2  0
 27 12  1  0
 20 15  1  0
  1 37  1  0
  1 38  1  0
  1 39  1  0
  4 40  1  0
  6 41  1  0
  6 42  1  0
  7 43  1  0
 16 44  1  0
 17 45  1  0
 18 46  1  0
 19 47  1  0
 20 48  1  0
 21 49  1  0
 29 50  1  0
 29 51  1  0
 30 52  1  0
 33 53  1  0
 33 54  1  0
 33 55  1  0
 36 56  1  0
 36 57  1  0
 36 58  1  0
M  END
>  <Binding energies>  (1) 
[-7.17]

>  <Ligand effiencies>  (1) 
[-0.18384615384615385]

>  <Interactions>  (1) 
["V-B:ARG:545:CG:9893, V-B:GLU:543:CB:9877, V-A:GLU:543:CG:4906, V-B:GLU:543:CD:9879, V-B:HIS:456:CE1:9040, V-A:GLU:543:CD:4907, V-B:ARG:545:CZ:9897, H-B:TYR:484:OH:9318, H-A:ARG:545:NH2:4927, V-B:ARG:545:CD:9894, H-B:GLY:454:N:9020, V-B:TYR:484:CZ:9317, V-B:PRO:540:CA:9854, V-B:PRO:540:CB:9856, V-B:ALA:541:CB:9863, V-B:PRO:540:C:9852, V-B:TYR:539:CE2:9847, V-B:GLY:544:C:9883, V-B:TYR:539:CD2:9845, H-B:ILE:455:N:9025, V-A:PRO:482:CG:4326, V-A:PRO:482:CB:4325, V-A:SER:385:CB:3408, V-A:SER:385:CA:3406, V-B:GLY:453:C:9012, V-A:LEU:475:CD2:4258, V-B:GLY:453:CA:9014, V-B:ARG:545:CA:9890, V-B:GLY:454:CA:9019, V-B:TYR:539:C:9838, H-B:GLU:543:OE2:9881, V-B:PRO:540:N:9855, H-B:GLU:543:OE1:9880, H-B:HIS:456:ND1:9037, V-A:HIS:383:CE1:3393"]

$$$$
4ci_Grossjean_2025
     RDKit          3D

 39 42  0  0  0  0  0  0  0  0999 V2000
  129.3160  125.4170   63.8780 N   0  0  0  0  0  0  0  0  0  0  0  0
  130.4010  124.5790   63.8760 C   0  0  0  0  0  0  0  0  0  0  0  0
  131.5060  124.7480   64.7260 C   0  0  0  0  0  0  0  0  0  0  0  0
  131.7250  125.7800   65.7440 C   0  0  0  0  0  0  0  0  0  0  0  0
  132.8420  126.2790   65.9020 O   0  0  0  0  0  0  0  0  0  0  0  0
  130.6360  126.1150   66.4790 N   0  0  0  0  0  0  0  0  0  0  0  0
  130.5620  127.0510   67.5030 C   0  0  0  0  0  0  0  0  0  0  0  0
  129.3560  127.5240   68.0190 C   0  0  0  0  0  0  0  0  0  0  0  0
  129.7120  128.4210   68.9980 C   0  0  0  0  0  0  0  0  0  0  0  0
  131.0640  128.4860   69.0690 O   0  0  0  0  0  0  0  0  0  0  0  0
  131.5910  127.6140   68.1160 N   0  0  0  0  0  0  0  0  0  0  0  0
  132.7090  123.4880   64.4640 S   0  0  0  0  0  0  0  0  0  0  0  0
  131.7320  122.7520   63.2160 C   0  0  0  0  0  0  0  0  0  0  0  0
  132.1350  121.6590   62.5710 N   0  0  0  0  0  0  0  0  0  0  0  0
  131.3070  121.1560   61.6190 C   0  0  0  0  0  0  0  0  0  0  0  0
  131.7920  119.9270   60.9060 C   0  0  0  0  0  0  0  0  0  0  0  0
  131.0320  118.7450   60.9100 C   0  0  0  0  0  0  0  0  0  0  0  0
  131.4760  117.6020   60.2500 C   0  0  0  0  0  0  0  0  0  0  0  0
  132.6910  117.6240   59.5750 C   0  0  0  0  0  0  0  0  0  0  0  0
  133.4660  118.7780   59.5580 C   0  0  0  0  0  0  0  0  0  0  0  0
  133.0190  119.9180   60.2210 C   0  0  0  0  0  0  0  0  0  0  0  0
  130.0860  121.7640   61.3090 C   0  0  0  0  0  0  0  0  0  0  0  0
  129.6510  122.9170   61.9820 C   0  0  0  0  0  0  0  0  0  0  0  0
  128.3010  123.5300   61.5910 C   0  0  0  0  0  0  0  0  0  0  0  0
  127.7000  122.8790   60.5930 F   0  0  0  0  0  0  0  0  0  0  0  0
  127.4760  123.5050   62.6370 F   0  0  0  0  0  0  0  0  0  0  0  0
  128.4760  124.7920   61.1970 F   0  0  0  0  0  0  0  0  0  0  0  0
  130.5060  123.4440   62.9910 C   0  0  0  0  0  0  0  0  0  0  0  0
  129.0560  125.9540   64.6940 H   0  0  0  0  0  0  0  0  0  0  0  0
  128.7400  125.5330   63.0550 H   0  0  0  0  0  0  0  0  0  0  0  0
  129.7740  125.6350   66.2690 H   0  0  0  0  0  0  0  0  0  0  0  0
  128.3392  127.2405   67.7095 H   0  0  0  0  0  0  0  0  0  0  0  0
  129.0118  128.9942   69.6235 H   0  0  0  0  0  0  0  0  0  0  0  0
  130.0703  118.7223   61.4434 H   0  0  0  0  0  0  0  0  0  0  0  0
  130.8678  116.6855   60.2627 H   0  0  0  0  0  0  0  0  0  0  0  0
  133.0415  116.7226   59.0510 H   0  0  0  0  0  0  0  0  0  0  0  0
  134.4274  118.7905   59.0236 H   0  0  0  0  0  0  0  0  0  0  0  0
  133.6373  120.8277   60.2083 H   0  0  0  0  0  0  0  0  0  0  0  0
  129.4531  121.3296   60.5212 H   0  0  0  0  0  0  0  0  0  0  0  0
  1  2  1  0
  2  3  2  0
  3  4  1  0
  4  5  2  0
  4  6  1  0
  6  7  1  0
  7  8  1  0
  8  9  2  0
  9 10  1  0
 10 11  1  0
  3 12  1  0
 12 13  1  0
 13 14  2  0
 14 15  1  0
 15 16  1  0
 16 17  2  0
 17 18  1  0
 18 19  2  0
 19 20  1  0
 20 21  2  0
 15 22  2  0
 22 23  1  0
 23 24  1  0
 24 25  1  0
 24 26  1  0
 24 27  1  0
 23 28  2  0
 28  2  1  0
 11  7  2  0
 28 13  1  0
 21 16  1  0
  1 29  1  0
  1 30  1  0
  6 31  1  0
  8 32  1  0
  9 33  1  0
 17 34  1  0
 18 35  1  0
 19 36  1  0
 20 37  1  0
 21 38  1  0
 22 39  1  0
M  END
>  <Binding energies>  (1) 
[-7.28]

>  <Ligand effiencies>  (1) 
[-0.23483870967741935]

>  <Interactions>  (1) 
["V-A:GLU:543:CB:4905, V-B:GLU:543:CD:9879, V-A:HIS:456:CE1:4069, V-A:GLU:543:CD:4907, V-A:GLY:454:CA:4048, H-A:ARG:545:NH2:4927, V-B:PRO:540:CA:9854, V-B:PRO:540:C:9852, V-B:TYR:539:CE2:9847, V-B:TYR:539:CD2:9845, H-A:ARG:545:NE:4923, H-A:TYR:484:OH:4347, V-A:LEU:373:CD2:3280, V-B:TYR:539:CB:9842, V-A:ILE:369:CG2:3236, V-A:SER:385:CA:3406, V-A:LEU:475:CD2:4258, H-B:GLU:543:OE2:9881, V-B:PRO:540:N:9855, H-B:GLU:543:OE1:9880, V-A:HIS:383:CE1:3393, V-A:VAL:384:C:3396"]

$$$$
4cj_Grossjean_2025
     RDKit          3D

 39 42  0  0  0  0  0  0  0  0999 V2000
  129.3270  125.7050   63.6730 N   0  0  0  0  0  0  0  0  0  0  0  0
  130.3410  124.7860   63.7690 C   0  0  0  0  0  0  0  0  0  0  0  0
  131.3770  124.8800   64.7120 C   0  0  0  0  0  0  0  0  0  0  0  0
  131.5880  125.9030   65.7390 C   0  0  0  0  0  0  0  0  0  0  0  0
  132.6860  126.4520   65.8660 O   0  0  0  0  0  0  0  0  0  0  0  0
  130.5120  126.1790   66.5170 N   0  0  0  0  0  0  0  0  0  0  0  0
  130.4470  127.1010   67.5530 C   0  0  0  0  0  0  0  0  0  0  0  0
  131.4480  127.6770   68.1850 N   0  0  0  0  0  0  0  0  0  0  0  0
  131.0200  128.5050   69.1170 C   0  0  0  0  0  0  0  0  0  0  0  0
  129.6390  128.6150   69.2560 C   0  0  0  0  0  0  0  0  0  0  0  0
  128.8690  127.5730   68.0970 S   0  0  0  0  0  0  0  0  0  0  0  0
  132.4970  123.5270   64.5640 S   0  0  0  0  0  0  0  0  0  0  0  0
  131.5740  122.8500   63.2430 C   0  0  0  0  0  0  0  0  0  0  0  0
  131.9410  121.7180   62.6480 N   0  0  0  0  0  0  0  0  0  0  0  0
  131.1580  121.2650   61.6360 C   0  0  0  0  0  0  0  0  0  0  0  0
  131.5930  119.9780   60.9950 C   0  0  0  0  0  0  0  0  0  0  0  0
  130.8410  118.8040   61.1570 C   0  0  0  0  0  0  0  0  0  0  0  0
  131.2430  117.6060   60.5700 C   0  0  0  0  0  0  0  0  0  0  0  0
  132.4080  117.5660   59.8120 C   0  0  0  0  0  0  0  0  0  0  0  0
  133.1730  118.7140   59.6370 C   0  0  0  0  0  0  0  0  0  0  0  0
  132.7670  119.9090   60.2250 C   0  0  0  0  0  0  0  0  0  0  0  0
  130.0230  121.9630   61.2100 C   0  0  0  0  0  0  0  0  0  0  0  0
  129.6270  123.1600   61.8290 C   0  0  0  0  0  0  0  0  0  0  0  0
  128.3710  123.8720   61.3150 C   0  0  0  0  0  0  0  0  0  0  0  0
  127.7930  123.2410   60.2920 F   0  0  0  0  0  0  0  0  0  0  0  0
  127.4700  123.9570   62.2930 F   0  0  0  0  0  0  0  0  0  0  0  0
  128.6870  125.1000   60.9000 F   0  0  0  0  0  0  0  0  0  0  0  0
  130.4320  123.6340   62.9050 C   0  0  0  0  0  0  0  0  0  0  0  0
  128.8700  125.9080   62.7940 H   0  0  0  0  0  0  0  0  0  0  0  0
  128.9980  126.2110   64.4840 H   0  0  0  0  0  0  0  0  0  0  0  0
  129.6660  125.6590   66.3390 H   0  0  0  0  0  0  0  0  0  0  0  0
  131.7149  129.0770   69.7495 H   0  0  0  0  0  0  0  0  0  0  0  0
  129.1192  129.2575   69.9819 H   0  0  0  0  0  0  0  0  0  0  0  0
  129.9194  118.8301   61.7570 H   0  0  0  0  0  0  0  0  0  0  0  0
  130.6411  116.6954   60.7057 H   0  0  0  0  0  0  0  0  0  0  0  0
  132.7263  116.6208   59.3481 H   0  0  0  0  0  0  0  0  0  0  0  0
  134.0943  118.6782   59.0370 H   0  0  0  0  0  0  0  0  0  0  0  0
  133.3754  120.8146   60.0846 H   0  0  0  0  0  0  0  0  0  0  0  0
  129.4288  121.5665   60.3735 H   0  0  0  0  0  0  0  0  0  0  0  0
  1  2  1  0
  2  3  2  0
  3  4  1  0
  4  5  2  0
  4  6  1  0
  6  7  1  0
  7  8  2  0
  8  9  1  0
  9 10  2  0
 10 11  1  0
  3 12  1  0
 12 13  1  0
 13 14  2  0
 14 15  1  0
 15 16  1  0
 16 17  2  0
 17 18  1  0
 18 19  2  0
 19 20  1  0
 20 21  2  0
 15 22  2  0
 22 23  1  0
 23 24  1  0
 24 25  1  0
 24 26  1  0
 24 27  1  0
 23 28  2  0
 28  2  1  0
 11  7  1  0
 28 13  1  0
 21 16  1  0
  1 29  1  0
  1 30  1  0
  6 31  1  0
  9 32  1  0
 10 33  1  0
 17 34  1  0
 18 35  1  0
 19 36  1  0
 20 37  1  0
 21 38  1  0
 22 39  1  0
M  END
>  <Binding energies>  (1) 
[-6.94]

>  <Ligand effiencies>  (1) 
[-0.2238709677419355]

>  <Interactions>  (1) 
["V-A:GLU:543:CB:4905, V-B:GLU:543:CD:9879, V-A:HIS:456:CE1:4069, V-A:GLU:543:CD:4907, V-A:GLY:454:CA:4048, H-A:ARG:545:NH2:4927, V-A:GLU:543:C:4901, V-B:PRO:540:CA:9854, V-B:TYR:539:CE2:9847, V-B:TYR:539:CD2:9845, H-A:ARG:545:NE:4923, H-A:TYR:484:OH:4347, V-A:LEU:373:CD2:3280, V-A:ILE:369:CG2:3236, V-A:SER:385:CA:3406, V-A:LEU:475:CD2:4258, H-B:GLU:543:OE2:9881, H-B:GLU:543:OE1:9880, V-A:HIS:383:CE1:3393, V-A:VAL:384:C:3396"]

$$$$
4ck_Grossjean_2025
     RDKit          3D

 57 59  0  0  0  0  0  0  0  0999 V2000
  125.9290  127.0580   69.5700 C   0  0  0  0  0  0  0  0  0  0  0  0
  126.8720  126.3810   70.3860 O   0  0  0  0  0  0  0  0  0  0  0  0
  128.1980  126.8700   70.2410 C   0  0  0  0  0  0  0  0  0  0  0  0
  128.6150  126.7550   68.7700 C   0  0  0  0  0  0  0  0  0  0  0  0
  129.5990  127.7420   68.4890 O   0  0  0  0  0  0  0  0  0  0  0  0
  129.3170  128.5100   67.3260 C   0  0  0  0  0  0  0  0  0  0  0  0
  127.8030  128.7360   67.2290 C   0  0  0  0  0  0  0  0  0  0  0  0
  127.3240  128.1190   66.0410 O   0  0  0  0  0  0  0  0  0  0  0  0
  126.3600  128.8940   65.3390 C   0  0  0  0  0  0  0  0  0  0  0  0
  126.2780  128.4160   63.8820 C   0  0  0  0  0  0  0  0  0  0  0  0
  127.1060  127.2340   63.6420 N   0  0  0  0  0  0  0  0  0  0  0  0
  127.0850  126.4660   62.5330 C   0  0  0  0  0  0  0  0  0  0  0  0
  126.3600  126.7110   61.5680 O   0  0  0  0  0  0  0  0  0  0  0  0
  127.9910  125.3170   62.5340 C   0  0  0  0  0  0  0  0  0  0  0  0
  127.6050  123.8860   61.5820 S   0  0  0  0  0  0  0  0  0  0  0  0
  129.0970  123.1120   62.0610 C   0  0  0  0  0  0  0  0  0  0  0  0
  129.4180  121.8950   61.6300 N   0  0  0  0  0  0  0  0  0  0  0  0
  130.5980  121.3740   62.0570 C   0  0  0  0  0  0  0  0  0  0  0  0
  130.9400  120.0070   61.5380 C   0  0  0  0  0  0  0  0  0  0  0  0
  132.1520  119.7740   60.8680 C   0  0  0  0  0  0  0  0  0  0  0  0
  132.4740  118.5090   60.3820 C   0  0  0  0  0  0  0  0  0  0  0  0
  131.5840  117.4550   60.5600 C   0  0  0  0  0  0  0  0  0  0  0  0
  130.3790  117.6570   61.2240 C   0  0  0  0  0  0  0  0  0  0  0  0
  130.0620  118.9230   61.7100 C   0  0  0  0  0  0  0  0  0  0  0  0
  131.4540  122.0820   62.9080 C   0  0  0  0  0  0  0  0  0  0  0  0
  131.1240  123.3660   63.3700 C   0  0  0  0  0  0  0  0  0  0  0  0
  132.1060  124.0840   64.3040 C   0  0  0  0  0  0  0  0  0  0  0  0
  133.0610  123.2820   64.7760 F   0  0  0  0  0  0  0  0  0  0  0  0
  132.7060  125.0780   63.6490 F   0  0  0  0  0  0  0  0  0  0  0  0
  131.4480  124.5820   65.3510 F   0  0  0  0  0  0  0  0  0  0  0  0
  129.8880  123.9210   62.9300 C   0  0  0  0  0  0  0  0  0  0  0  0
  129.2320  125.1820   63.1770 C   0  0  0  0  0  0  0  0  0  0  0  0
  129.7730  126.1580   63.9730 N   0  0  0  0  0  0  0  0  0  0  0  0
  125.2008  127.5808   70.2076 H   0  0  0  0  0  0  0  0  0  0  0  0
  126.4514  127.7886   68.9349 H   0  0  0  0  0  0  0  0  0  0  0  0
  125.4038  126.3294   68.9349 H   0  0  0  0  0  0  0  0  0  0  0  0
  128.2388  127.9236   70.5545 H   0  0  0  0  0  0  0  0  0  0  0  0
  128.8822  126.2797   70.8682 H   0  0  0  0  0  0  0  0  0  0  0  0
  129.0320  125.7546   68.5821 H   0  0  0  0  0  0  0  0  0  0  0  0
  127.7392  126.9087   68.1225 H   0  0  0  0  0  0  0  0  0  0  0  0
  129.8309  129.4804   67.3918 H   0  0  0  0  0  0  0  0  0  0  0  0
  129.6697  127.9734   66.4329 H   0  0  0  0  0  0  0  0  0  0  0  0
  127.3058  128.2908   68.1034 H   0  0  0  0  0  0  0  0  0  0  0  0
  127.5864  129.8142   67.2043 H   0  0  0  0  0  0  0  0  0  0  0  0
  125.3769  128.7776   65.8185 H   0  0  0  0  0  0  0  0  0  0  0  0
  126.6565  129.9531   65.3602 H   0  0  0  0  0  0  0  0  0  0  0  0
  125.2318  128.1694   63.6482 H   0  0  0  0  0  0  0  0  0  0  0  0
  126.6510  129.2265   63.2386 H   0  0  0  0  0  0  0  0  0  0  0  0
  127.7900  127.0220   64.3540 H   0  0  0  0  0  0  0  0  0  0  0  0
  132.8589  120.6045   60.7246 H   0  0  0  0  0  0  0  0  0  0  0  0
  133.4280  118.3442   59.8597 H   0  0  0  0  0  0  0  0  0  0  0  0
  131.8347  116.4562   60.1734 H   0  0  0  0  0  0  0  0  0  0  0  0
  129.6790  116.8202   61.3648 H   0  0  0  0  0  0  0  0  0  0  0  0
  129.1089  119.0771   62.2371 H   0  0  0  0  0  0  0  0  0  0  0  0
  132.4037  121.6237   63.2210 H   0  0  0  0  0  0  0  0  0  0  0  0
  129.2940  126.5120   64.7890 H   0  0  0  0  0  0  0  0  0  0  0  0
  130.6810  126.5560   63.7720 H   0  0  0  0  0  0  0  0  0  0  0  0
  1  2  1  0
  2  3  1  0
  3  4  1  0
  4  5  1  0
  5  6  1  0
  6  7  1  0
  7  8  1  0
  8  9  1  0
  9 10  1  0
 10 11  1  0
 11 12  1  0
 12 13  2  0
 12 14  1  0
 14 15  1  0
 15 16  1  0
 16 17  2  0
 17 18  1  0
 18 19  1  0
 19 20  2  0
 20 21  1  0
 21 22  2  0
 22 23  1  0
 23 24  2  0
 18 25  2  0
 25 26  1  0
 26 27  1  0
 27 28  1  0
 27 29  1  0
 27 30  1  0
 26 31  2  0
 31 32  1  0
 32 33  1  0
 32 14  2  0
 31 16  1  0
 24 19  1  0
  1 34  1  0
  1 35  1  0
  1 36  1  0
  3 37  1  0
  3 38  1  0
  4 39  1  0
  4 40  1  0
  6 41  1  0
  6 42  1  0
  7 43  1  0
  7 44  1  0
  9 45  1  0
  9 46  1  0
 10 47  1  0
 10 48  1  0
 11 49  1  0
 20 50  1  0
 21 51  1  0
 22 52  1  0
 23 53  1  0
 24 54  1  0
 25 55  1  0
 33 56  1  0
 33 57  1  0
M  END
>  <Binding energies>  (1) 
[-5.19]

>  <Ligand effiencies>  (1) 
[-0.14416666666666667]

>  <Interactions>  (1) 
["V-B:ARG:545:CG:9893, V-A:GLU:543:CB:4905, V-B:GLU:543:CB:9877, V-A:GLU:543:CG:4906, V-B:GLU:543:CD:9879, V-B:HIS:456:CE1:9040, H-B:ARG:545:NH2:9899, V-A:GLU:543:CD:4907, V-A:GLY:454:CA:4048, V-A:TYR:484:CZ:4346, V-B:ALA:541:CB:9863, V-B:TYR:539:CE2:9847, V-B:GLY:544:C:9883, V-B:TYR:539:CD2:9845, H-B:ARG:545:N:9891, V-A:PRO:482:CG:4326, V-A:PRO:482:CB:4325, V-A:SER:385:CA:3406, V-A:LEU:475:CD2:4258, V-B:ARG:545:CA:9890, H-B:GLU:543:OE2:9881, H-B:GLU:543:OE1:9880, V-A:HIS:383:CE1:3393"]

$$$$
4dd_Grossjean_2025
     RDKit          3D

 43 46  0  0  0  0  0  0  0  0999 V2000
  133.5090  124.3210   60.9360 C   0  0  0  0  0  0  0  0  0  0  0  0
  132.6290  123.3690   61.7310 C   0  0  0  0  0  0  0  0  0  0  0  0
  132.3750  122.1010   61.1950 C   0  0  0  0  0  0  0  0  0  0  0  0
  131.5730  121.1780   61.8780 C   0  0  0  0  0  0  0  0  0  0  0  0
  131.2800  119.8150   61.3250 C   0  0  0  0  0  0  0  0  0  0  0  0
  132.1470  119.2110   60.4000 C   0  0  0  0  0  0  0  0  0  0  0  0
  131.8820  117.9450   59.8850 C   0  0  0  0  0  0  0  0  0  0  0  0
  130.7400  117.2620   60.2880 C   0  0  0  0  0  0  0  0  0  0  0  0
  129.8650  117.8340   61.2040 C   0  0  0  0  0  0  0  0  0  0  0  0
  130.1340  119.1010   61.7190 C   0  0  0  0  0  0  0  0  0  0  0  0
  131.0000  121.4730   63.0770 N   0  0  0  0  0  0  0  0  0  0  0  0
  131.2460  122.6770   63.5910 C   0  0  0  0  0  0  0  0  0  0  0  0
  130.5880  123.1810   65.1320 S   0  0  0  0  0  0  0  0  0  0  0  0
  131.3750  124.7550   65.0070 C   0  0  0  0  0  0  0  0  0  0  0  0
  131.2290  125.7440   66.0770 C   0  0  0  0  0  0  0  0  0  0  0  0
  132.0510  126.6520   66.2090 O   0  0  0  0  0  0  0  0  0  0  0  0
  130.1450  125.5810   66.8740 N   0  0  0  0  0  0  0  0  0  0  0  0
  129.7470  126.3130   68.0070 C   0  0  0  0  0  0  0  0  0  0  0  0
  130.0730  127.6730   68.0020 C   0  0  0  0  0  0  0  0  0  0  0  0
  129.7100  128.4860   69.0720 C   0  0  0  0  0  0  0  0  0  0  0  0
  129.0130  127.9410   70.1470 C   0  0  0  0  0  0  0  0  0  0  0  0
  128.6710  126.5920   70.1600 C   0  0  0  0  0  0  0  0  0  0  0  0
  129.0330  125.7760   69.0910 C   0  0  0  0  0  0  0  0  0  0  0  0
  132.1040  124.8620   63.8120 C   0  0  0  0  0  0  0  0  0  0  0  0
  132.8140  125.9800   63.4480 N   0  0  0  0  0  0  0  0  0  0  0  0
  132.0480  123.6850   62.9860 C   0  0  0  0  0  0  0  0  0  0  0  0
  134.0892  124.9487   61.6284 H   0  0  0  0  0  0  0  0  0  0  0  0
  134.1967  123.7418   60.3023 H   0  0  0  0  0  0  0  0  0  0  0  0
  132.8776  124.9611   60.3023 H   0  0  0  0  0  0  0  0  0  0  0  0
  132.8115  121.8256   60.2236 H   0  0  0  0  0  0  0  0  0  0  0  0
  133.0512  119.7475   60.0767 H   0  0  0  0  0  0  0  0  0  0  0  0
  132.5733  117.4870   59.1622 H   0  0  0  0  0  0  0  0  0  0  0  0
  130.5277  116.2630   59.8795 H   0  0  0  0  0  0  0  0  0  0  0  0
  128.9638  117.2889   61.5213 H   0  0  0  0  0  0  0  0  0  0  0  0
  129.4394  119.5493   62.4446 H   0  0  0  0  0  0  0  0  0  0  0  0
  129.5150  124.8350   66.6190 H   0  0  0  0  0  0  0  0  0  0  0  0
  130.6187  128.1021   67.1487 H   0  0  0  0  0  0  0  0  0  0  0  0
  129.9726  129.5542   69.0682 H   0  0  0  0  0  0  0  0  0  0  0  0
  128.7299  128.5829   70.9943 H   0  0  0  0  0  0  0  0  0  0  0  0
  128.1165  126.1716   71.0119 H   0  0  0  0  0  0  0  0  0  0  0  0
  128.7597  124.7105   69.0955 H   0  0  0  0  0  0  0  0  0  0  0  0
  133.1400  126.6510   64.1290 H   0  0  0  0  0  0  0  0  0  0  0  0
  133.0370  126.1660   62.4810 H   0  0  0  0  0  0  0  0  0  0  0  0
  1  2  1  0
  2  3  2  0
  3  4  1  0
  4  5  1  0
  5  6  2  0
  6  7  1  0
  7  8  2  0
  8  9  1  0
  9 10  2  0
  4 11  2  0
 11 12  1  0
 12 13  1  0
 13 14  1  0
 14 15  1  0
 15 16  2  0
 15 17  1  0
 17 18  1  0
 18 19  2  0
 19 20  1  0
 20 21  2  0
 21 22  1  0
 22 23  2  0
 14 24  2  0
 24 25  1  0
 24 26  1  0
 26  2  1  0
 10  5  1  0
 26 12  2  0
 23 18  1  0
  1 27  1  0
  1 28  1  0
  1 29  1  0
  3 30  1  0
  6 31  1  0
  7 32  1  0
  8 33  1  0
  9 34  1  0
 10 35  1  0
 17 36  1  0
 19 37  1  0
 20 38  1  0
 21 39  1  0
 22 40  1  0
 23 41  1  0
 25 42  1  0
 25 43  1  0
M  END
>  <Binding energies>  (1) 
[-8.08]

>  <Ligand effiencies>  (1) 
[-0.2786206896551724]

>  <Interactions>  (1) 
["V-A:GLU:543:CB:4905, V-B:GLU:543:CB:9877, V-B:GLU:543:CD:9879, V-B:HIS:456:CE1:9040, V-A:HIS:456:CE1:4069, V-A:GLU:543:CD:4907, V-A:TYR:484:CZ:4346, V-A:ARG:545:CZ:4925, H-A:ASP:366:OD1:3213, V-B:ALA:541:CB:9863, V-A:ASP:366:CG:3212, V-B:TYR:539:CE2:9847, V-B:TYR:539:CD2:9845, H-A:ARG:545:NE:4923, H-A:TYR:484:OH:4347, V-A:PRO:482:CG:4326, V-B:TYR:539:CG:9843, V-A:PRO:482:CB:4325, V-B:GLU:543:CG:9878, V-B:TYR:539:CB:9842, V-A:TYR:484:CE2:4345, V-A:LEU:475:CD2:4258, H-A:ASP:366:OD2:3214, V-B:TYR:539:C:9838, H-B:GLU:543:OE2:9881, V-A:ILE:369:CD1:3238, V-B:GLU:543:CA:9875, H-A:GLU:543:OE1:4908, V-A:HIS:383:CE1:3393"]

$$$$
4dg_Grossjean_2025
     RDKit          3D

 46 49  0  0  0  0  0  0  0  0999 V2000
  128.4180  122.5090   62.9290 C   0  0  0  0  0  0  0  0  0  0  0  0
  129.8900  122.2010   62.7000 C   0  0  0  0  0  0  0  0  0  0  0  0
  130.2180  121.1580   61.8260 C   0  0  0  0  0  0  0  0  0  0  0  0
  131.5540  120.8250   61.5720 C   0  0  0  0  0  0  0  0  0  0  0  0
  131.9370  119.7110   60.6380 C   0  0  0  0  0  0  0  0  0  0  0  0
  131.1320  118.5670   60.5120 C   0  0  0  0  0  0  0  0  0  0  0  0
  131.4840  117.5310   59.6500 C   0  0  0  0  0  0  0  0  0  0  0  0
  132.6500  117.6240   58.8990 C   0  0  0  0  0  0  0  0  0  0  0  0
  133.4690  118.7450   59.0060 C   0  0  0  0  0  0  0  0  0  0  0  0
  133.1130  119.7770   59.8690 C   0  0  0  0  0  0  0  0  0  0  0  0
  132.5850  121.5050   62.1440 N   0  0  0  0  0  0  0  0  0  0  0  0
  132.2740  122.4970   62.9770 C   0  0  0  0  0  0  0  0  0  0  0  0
  133.5010  123.4470   63.7830 S   0  0  0  0  0  0  0  0  0  0  0  0
  132.2750  124.4240   64.5900 C   0  0  0  0  0  0  0  0  0  0  0  0
  132.6720  125.4720   65.5290 C   0  0  0  0  0  0  0  0  0  0  0  0
  133.8340  125.8800   65.5830 O   0  0  0  0  0  0  0  0  0  0  0  0
  131.7020  125.9280   66.3480 N   0  0  0  0  0  0  0  0  0  0  0  0
  131.8640  126.9840   67.3470 C   0  0  0  0  0  0  0  0  0  0  0  0
  130.6150  127.2170   68.1900 C   0  0  0  0  0  0  0  0  0  0  0  0
  130.2900  128.5120   68.6070 C   0  0  0  0  0  0  0  0  0  0  0  0
  129.1340  128.7330   69.3500 C   0  0  0  0  0  0  0  0  0  0  0  0
  128.3000  127.6620   69.6640 C   0  0  0  0  0  0  0  0  0  0  0  0
  128.6080  126.3720   69.2370 C   0  0  0  0  0  0  0  0  0  0  0  0
  129.7640  126.1510   68.4920 C   0  0  0  0  0  0  0  0  0  0  0  0
  130.9810  124.0040   64.2480 C   0  0  0  0  0  0  0  0  0  0  0  0
  129.8370  124.5790   64.7400 N   0  0  0  0  0  0  0  0  0  0  0  0
  130.9540  122.9100   63.3150 C   0  0  0  0  0  0  0  0  0  0  0  0
  128.2160  122.5513   64.0095 H   0  0  0  0  0  0  0  0  0  0  0  0
  128.1707  123.4783   62.4716 H   0  0  0  0  0  0  0  0  0  0  0  0
  127.8028  121.7201   62.4716 H   0  0  0  0  0  0  0  0  0  0  0  0
  129.4147  120.5919   61.3317 H   0  0  0  0  0  0  0  0  0  0  0  0
  130.2082  118.4878   61.1039 H   0  0  0  0  0  0  0  0  0  0  0  0
  130.8415  116.6423   59.5639 H   0  0  0  0  0  0  0  0  0  0  0  0
  132.9273  116.8073   58.2162 H   0  0  0  0  0  0  0  0  0  0  0  0
  134.3921  118.8144   58.4118 H   0  0  0  0  0  0  0  0  0  0  0  0
  133.7631  120.6605   59.9513 H   0  0  0  0  0  0  0  0  0  0  0  0
  130.7580  125.6050   66.1940 H   0  0  0  0  0  0  0  0  0  0  0  0
  132.6904  126.7057   68.0176 H   0  0  0  0  0  0  0  0  0  0  0  0
  132.0669  127.9179   66.8023 H   0  0  0  0  0  0  0  0  0  0  0  0
  130.9475  129.3550   68.3480 H   0  0  0  0  0  0  0  0  0  0  0  0
  128.8800  129.7486   69.6878 H   0  0  0  0  0  0  0  0  0  0  0  0
  127.3889  127.8367   70.2551 H   0  0  0  0  0  0  0  0  0  0  0  0
  127.9421  125.5329   69.4868 H   0  0  0  0  0  0  0  0  0  0  0  0
  130.0069  125.1370   68.1414 H   0  0  0  0  0  0  0  0  0  0  0  0
  129.4310  125.4030   64.3230 H   0  0  0  0  0  0  0  0  0  0  0  0
  129.3560  124.1870   65.5390 H   0  0  0  0  0  0  0  0  0  0  0  0
  1  2  1  0
  2  3  2  0
  3  4  1  0
  4  5  1  0
  5  6  2  0
  6  7  1  0
  7  8  2  0
  8  9  1  0
  9 10  2  0
  4 11  2  0
 11 12  1  0
 12 13  1  0
 13 14  1  0
 14 15  1  0
 15 16  2  0
 15 17  1  0
 17 18  1  0
 18 19  1  0
 19 20  2  0
 20 21  1  0
 21 22  2  0
 22 23  1  0
 23 24  2  0
 14 25  2  0
 25 26  1  0
 25 27  1  0
 27  2  1  0
 10  5  1  0
 27 12  2  0
 24 19  1  0
  1 28  1  0
  1 29  1  0
  1 30  1  0
  3 31  1  0
  6 32  1  0
  7 33  1  0
  8 34  1  0
  9 35  1  0
 10 36  1  0
 17 37  1  0
 18 38  1  0
 18 39  1  0
 20 40  1  0
 21 41  1  0
 22 42  1  0
 23 43  1  0
 24 44  1  0
 26 45  1  0
 26 46  1  0
M  END
>  <Binding energies>  (1) 
[-8.53]

>  <Ligand effiencies>  (1) 
[-0.2843333333333333]

>  <Interactions>  (1) 
["V-A:GLU:543:CB:4905, V-B:GLU:543:CB:9877, V-A:GLU:543:CG:4906, V-B:GLU:543:CD:9879, V-B:HIS:456:CE1:9040, H-A:GLY:454:N:4049, V-A:HIS:456:CE1:4069, H-A:ARG:545:NH1:4926, V-A:GLU:543:CD:4907, V-A:GLY:454:CA:4048, H-A:ARG:545:NH2:4927, V-B:ALA:541:CB:9863, V-A:ARG:545:CG:4921, V-B:TYR:539:CE2:9847, V-B:TYR:539:CD2:9845, H-A:ARG:545:NE:4923, H-A:TYR:484:OH:4347, V-B:TYR:539:CG:9843, V-A:LEU:373:CD2:3280, V-B:ALA:541:CA:9861, V-B:TYR:539:CB:9842, V-A:ILE:369:CG2:3236, V-A:LEU:373:CD1:3279, V-A:TYR:484:CE2:4345, V-A:LEU:475:CD2:4258, V-A:LEU:373:CG:3278, H-B:GLU:543:OE2:9881, V-A:HIS:383:CE1:3393, V-A:VAL:384:C:3396"]

$$$$
4dj_Grossjean_2025
     RDKit          3D

 39 42  0  0  0  0  0  0  0  0999 V2000
  128.4260  123.9140   61.3340 C   0  0  0  0  0  0  0  0  0  0  0  0
  129.6620  123.1950   61.8530 C   0  0  0  0  0  0  0  0  0  0  0  0
  130.0430  122.0030   61.2260 C   0  0  0  0  0  0  0  0  0  0  0  0
  131.1700  121.2920   61.6570 C   0  0  0  0  0  0  0  0  0  0  0  0
  131.6060  120.0130   61.0010 C   0  0  0  0  0  0  0  0  0  0  0  0
  130.8460  118.8390   61.1340 C   0  0  0  0  0  0  0  0  0  0  0  0
  131.2450  117.6500   60.5280 C   0  0  0  0  0  0  0  0  0  0  0  0
  132.4180  117.6170   59.7810 C   0  0  0  0  0  0  0  0  0  0  0  0
  133.1920  118.7630   59.6350 C   0  0  0  0  0  0  0  0  0  0  0  0
  132.7890  119.9500   60.2410 C   0  0  0  0  0  0  0  0  0  0  0  0
  131.9480  121.7320   62.6840 N   0  0  0  0  0  0  0  0  0  0  0  0
  131.5850  122.8660   63.2810 C   0  0  0  0  0  0  0  0  0  0  0  0
  132.4900  123.5410   64.6180 S   0  0  0  0  0  0  0  0  0  0  0  0
  131.3790  124.9070   64.7420 C   0  0  0  0  0  0  0  0  0  0  0  0
  131.5820  125.9350   65.7630 C   0  0  0  0  0  0  0  0  0  0  0  0
  132.6850  126.4690   65.9100 O   0  0  0  0  0  0  0  0  0  0  0  0
  130.4940  126.2350   66.5140 N   0  0  0  0  0  0  0  0  0  0  0  0
  130.4190  127.1640   67.5420 C   0  0  0  0  0  0  0  0  0  0  0  0
  131.4090  127.6710   68.2460 N   0  0  0  0  0  0  0  0  0  0  0  0
  130.9720  128.5310   69.1460 C   0  0  0  0  0  0  0  0  0  0  0  0
  129.5970  128.7380   69.1840 C   0  0  0  0  0  0  0  0  0  0  0  0
  128.8430  127.7460   67.9710 S   0  0  0  0  0  0  0  0  0  0  0  0
  130.3590  124.8170   63.7810 C   0  0  0  0  0  0  0  0  0  0  0  0
  129.3530  125.7410   63.6490 N   0  0  0  0  0  0  0  0  0  0  0  0
  130.4560  123.6610   62.9320 C   0  0  0  0  0  0  0  0  0  0  0  0
  127.8222  124.2652   62.1838 H   0  0  0  0  0  0  0  0  0  0  0  0
  128.7326  124.7747   60.7215 H   0  0  0  0  0  0  0  0  0  0  0  0
  127.8294  123.2220   60.7215 H   0  0  0  0  0  0  0  0  0  0  0  0
  129.4492  121.6194   60.3832 H   0  0  0  0  0  0  0  0  0  0  0  0
  129.9197  118.8591   61.7270 H   0  0  0  0  0  0  0  0  0  0  0  0
  130.6353  116.7413   60.6396 H   0  0  0  0  0  0  0  0  0  0  0  0
  132.7353  116.6786   59.3028 H   0  0  0  0  0  0  0  0  0  0  0  0
  134.1187  118.7319   59.0432 H   0  0  0  0  0  0  0  0  0  0  0  0
  133.4054  120.8535   60.1239 H   0  0  0  0  0  0  0  0  0  0  0  0
  129.6410  125.7310   66.3160 H   0  0  0  0  0  0  0  0  0  0  0  0
  131.6570  129.0553   69.8285 H   0  0  0  0  0  0  0  0  0  0  0  0
  129.0718  129.4188   69.8701 H   0  0  0  0  0  0  0  0  0  0  0  0
  128.9420  125.9580   62.7530 H   0  0  0  0  0  0  0  0  0  0  0  0
  128.9890  126.2390   64.4500 H   0  0  0  0  0  0  0  0  0  0  0  0
  1  2  1  0
  2  3  2  0
  3  4  1  0
  4  5  1  0
  5  6  2  0
  6  7  1  0
  7  8  2  0
  8  9  1  0
  9 10  2  0
  4 11  2  0
 11 12  1  0
 12 13  1  0
 13 14  1  0
 14 15  1  0
 15 16  2  0
 15 17  1  0
 17 18  1  0
 18 19  2  0
 19 20  1  0
 20 21  2  0
 21 22  1  0
 14 23  2  0
 23 24  1  0
 23 25  1  0
 25  2  1  0
 10  5  1  0
 25 12  2  0
 22 18  1  0
  1 26  1  0
  1 27  1  0
  1 28  1  0
  3 29  1  0
  6 30  1  0
  7 31  1  0
  8 32  1  0
  9 33  1  0
 10 34  1  0
 17 35  1  0
 20 36  1  0
 21 37  1  0
 24 38  1  0
 24 39  1  0
M  END
>  <Binding energies>  (1) 
[-7.28]

>  <Ligand effiencies>  (1) 
[-0.26]

>  <Interactions>  (1) 
["V-A:GLU:543:CB:4905, V-B:GLU:543:CD:9879, V-A:HIS:456:CE1:4069, V-A:GLU:543:CD:4907, V-A:GLY:454:CA:4048, H-A:ARG:545:NH2:4927, V-A:GLU:543:C:4901, V-A:TYR:484:CZ:4346, V-B:TYR:539:CE2:9847, V-B:TYR:539:CD2:9845, H-A:ARG:545:NE:4923, H-A:TYR:484:OH:4347, V-A:LEU:373:CD2:3280, V-B:TYR:539:CB:9842, V-A:ILE:369:CG2:3236, V-A:SER:385:CA:3406, V-A:LEU:475:CD2:4258, H-B:GLU:543:OE2:9881, H-B:GLU:543:OE1:9880, V-A:HIS:383:CE1:3393"]

$$$$
4ea_Grossjean_2025
     RDKit          3D

 52 55  0  0  0  0  0  0  0  0999 V2000
  131.1150  122.4710   73.7950 C   0  0  0  0  0  0  0  0  0  0  0  0
  129.7110  122.9020   73.3620 C   0  0  0  0  0  0  0  0  0  0  0  0
  129.7960  124.1110   72.6190 O   0  0  0  0  0  0  0  0  0  0  0  0
  129.0960  125.2140   72.9900 C   0  0  0  0  0  0  0  0  0  0  0  0
  129.0710  125.6460   74.1470 O   0  0  0  0  0  0  0  0  0  0  0  0
  128.3560  125.8570   71.8530 C   0  0  0  0  0  0  0  0  0  0  0  0
  128.9850  125.9720   70.6070 C   0  0  0  0  0  0  0  0  0  0  0  0
  128.3260  126.5630   69.5320 C   0  0  0  0  0  0  0  0  0  0  0  0
  127.0260  127.0500   69.6800 C   0  0  0  0  0  0  0  0  0  0  0  0
  126.4600  127.6270   68.5270 N   0  0  0  0  0  0  0  0  0  0  0  0
  125.3180  128.3410   68.3720 C   0  0  0  0  0  0  0  0  0  0  0  0
  124.5420  128.6150   69.2880 O   0  0  0  0  0  0  0  0  0  0  0  0
  125.0420  128.7880   67.0040 C   0  0  0  0  0  0  0  0  0  0  0  0
  123.4170  129.3030   66.5430 S   0  0  0  0  0  0  0  0  0  0  0  0
  123.9350  129.6360   64.9070 C   0  0  0  0  0  0  0  0  0  0  0  0
  123.0910  130.0950   63.9800 N   0  0  0  0  0  0  0  0  0  0  0  0
  123.6180  130.3130   62.7500 C   0  0  0  0  0  0  0  0  0  0  0  0
  122.6420  130.8350   61.7130 C   0  0  0  0  0  0  0  0  0  0  0  0
  124.9540  130.0850   62.4280 C   0  0  0  0  0  0  0  0  0  0  0  0
  125.8350  129.6040   63.4030 C   0  0  0  0  0  0  0  0  0  0  0  0
  127.2520  129.3670   63.0450 C   0  0  0  0  0  0  0  0  0  0  0  0
  128.1130  130.4480   62.8280 C   0  0  0  0  0  0  0  0  0  0  0  0
  129.4460  130.2260   62.4940 C   0  0  0  0  0  0  0  0  0  0  0  0
  129.9180  128.9210   62.3730 C   0  0  0  0  0  0  0  0  0  0  0  0
  129.0680  127.8370   62.5830 C   0  0  0  0  0  0  0  0  0  0  0  0
  127.7360  128.0610   62.9170 C   0  0  0  0  0  0  0  0  0  0  0  0
  125.3210  129.3620   64.7070 C   0  0  0  0  0  0  0  0  0  0  0  0
  125.9290  128.8790   65.9200 C   0  0  0  0  0  0  0  0  0  0  0  0
  127.2570  128.5440   65.9900 N   0  0  0  0  0  0  0  0  0  0  0  0
  126.3880  126.9380   70.9250 C   0  0  0  0  0  0  0  0  0  0  0  0
  127.0490  126.3470   71.9980 C   0  0  0  0  0  0  0  0  0  0  0  0
  131.1708  122.4539   74.8934 H   0  0  0  0  0  0  0  0  0  0  0  0
  131.3278  121.4662   73.4013 H   0  0  0  0  0  0  0  0  0  0  0  0
  131.8550  123.1834   73.4013 H   0  0  0  0  0  0  0  0  0  0  0  0
  129.2631  122.1168   72.7352 H   0  0  0  0  0  0  0  0  0  0  0  0
  129.0848  123.0612   74.2522 H   0  0  0  0  0  0  0  0  0  0  0  0
  130.0090  125.5920   70.4763 H   0  0  0  0  0  0  0  0  0  0  0  0
  128.8332  126.6467   68.5595 H   0  0  0  0  0  0  0  0  0  0  0  0
  127.0000  127.4770   67.6880 H   0  0  0  0  0  0  0  0  0  0  0  0
  121.7808  131.2956   62.2191 H   0  0  0  0  0  0  0  0  0  0  0  0
  123.1423  131.5860   61.0839 H   0  0  0  0  0  0  0  0  0  0  0  0
  122.2951  130.0020   61.0839 H   0  0  0  0  0  0  0  0  0  0  0  0
  125.3161  130.2829   61.4083 H   0  0  0  0  0  0  0  0  0  0  0  0
  127.7354  131.4769   62.9216 H   0  0  0  0  0  0  0  0  0  0  0  0
  130.1231  131.0766   62.3265 H   0  0  0  0  0  0  0  0  0  0  0  0
  130.9713  128.7446   62.1093 H   0  0  0  0  0  0  0  0  0  0  0  0
  129.4481  126.8094   62.4852 H   0  0  0  0  0  0  0  0  0  0  0  0
  127.0612  127.2079   63.0810 H   0  0  0  0  0  0  0  0  0  0  0  0
  127.9560  129.2000   66.3090 H   0  0  0  0  0  0  0  0  0  0  0  0
  127.5820  127.6250   65.7230 H   0  0  0  0  0  0  0  0  0  0  0  0
  125.3637  127.3180   71.0531 H   0  0  0  0  0  0  0  0  0  0  0  0
  126.5413  126.2631   72.9702 H   0  0  0  0  0  0  0  0  0  0  0  0
  1  2  1  0
  2  3  1  0
  3  4  1  0
  4  5  2  0
  4  6  1  0
  6  7  2  0
  7  8  1  0
  8  9  2  0
  9 10  1  0
 10 11  1  0
 11 12  2  0
 11 13  1  0
 13 14  1  0
 14 15  1  0
 15 16  2  0
 16 17  1  0
 17 18  1  0
 17 19  2  0
 19 20  1  0
 20 21  1  0
 21 22  2  0
 22 23  1  0
 23 24  2  0
 24 25  1  0
 25 26  2  0
 20 27  2  0
 27 28  1  0
 28 29  1  0
  9 30  1  0
 30 31  2  0
 31  6  1  0
 28 13  2  0
 27 15  1  0
 26 21  1  0
  1 32  1  0
  1 33  1  0
  1 34  1  0
  2 35  1  0
  2 36  1  0
  7 37  1  0
  8 38  1  0
 10 39  1  0
 18 40  1  0
 18 41  1  0
 18 42  1  0
 19 43  1  0
 22 44  1  0
 23 45  1  0
 24 46  1  0
 25 47  1  0
 26 48  1  0
 29 49  1  0
 29 50  1  0
 30 51  1  0
 31 52  1  0
M  END
>  <Binding energies>  (1) 
[-7.85]

>  <Ligand effiencies>  (1) 
[-0.23088235294117646]

>  <Interactions>  (1) 
["V-B:ARG:545:CG:9893, V-B:GLU:543:CB:9877, V-B:GLU:543:CD:9879, V-B:HIS:456:CE1:9040, V-A:HIS:456:CE1:4069, V-A:GLU:543:CD:4907, V-B:ARG:545:CZ:9897, H-B:TYR:484:OH:9318, V-B:ARG:545:CD:9894, H-B:GLY:454:N:9020, V-B:ASP:366:CG:8183, V-B:ILE:369:CG1:8208, V-B:GLU:543:C:9873, V-B:GLY:544:C:9883, H-B:ARG:545:NH1:9898, V-B:GLY:453:C:9012, V-B:GLY:453:CA:9014, V-B:ARG:545:CA:9890, H-B:GLU:543:OE2:9881, H-B:GLU:543:OE1:9880, H-B:HIS:456:ND1:9037, V-B:GLY:544:CA:9885, H-B:LYS:547:NZ:9922, V-A:HIS:456:CG:4065, V-A:HIS:456:CD2:4067, V-A:TYR:484:CG:4341, V-A:TYR:484:CB:4340, V-A:ASP:473:CG:4239, V-A:TYR:484:CD2:4343"]

$$$$
4eb_Grossjean_2025
     RDKit          3D

 49 52  0  0  0  0  0  0  0  0999 V2000
  124.7680  129.3540   63.0130 C   0  0  0  0  0  0  0  0  0  0  0  0
  125.4480  128.9940   64.2070 O   0  0  0  0  0  0  0  0  0  0  0  0
  124.8940  129.2320   65.4250 C   0  0  0  0  0  0  0  0  0  0  0  0
  123.7440  129.6510   65.5780 O   0  0  0  0  0  0  0  0  0  0  0  0
  125.8240  128.9360   66.5660 C   0  0  0  0  0  0  0  0  0  0  0  0
  125.3000  128.4100   67.7550 C   0  0  0  0  0  0  0  0  0  0  0  0
  126.1350  128.1240   68.8310 C   0  0  0  0  0  0  0  0  0  0  0  0
  127.5080  128.3580   68.7430 C   0  0  0  0  0  0  0  0  0  0  0  0
  128.2550  128.0310   69.8920 N   0  0  0  0  0  0  0  0  0  0  0  0
  128.1240  126.9980   70.7590 C   0  0  0  0  0  0  0  0  0  0  0  0
  127.2670  126.1180   70.6670 O   0  0  0  0  0  0  0  0  0  0  0  0
  129.0940  126.9770   71.8570 C   0  0  0  0  0  0  0  0  0  0  0  0
  129.9660  128.4450   72.3060 S   0  0  0  0  0  0  0  0  0  0  0  0
  130.8240  127.6050   73.5770 C   0  0  0  0  0  0  0  0  0  0  0  0
  131.7150  128.2240   74.3540 N   0  0  0  0  0  0  0  0  0  0  0  0
  132.3110  127.4610   75.3010 C   0  0  0  0  0  0  0  0  0  0  0  0
  133.3200  128.1850   76.1740 C   0  0  0  0  0  0  0  0  0  0  0  0
  132.0410  126.1070   75.4890 C   0  0  0  0  0  0  0  0  0  0  0  0
  131.1060  125.4620   74.6710 C   0  0  0  0  0  0  0  0  0  0  0  0
  130.8300  124.0220   74.8820 C   0  0  0  0  0  0  0  0  0  0  0  0
  130.1590  123.5980   76.0330 C   0  0  0  0  0  0  0  0  0  0  0  0
  129.8970  122.2440   76.2310 C   0  0  0  0  0  0  0  0  0  0  0  0
  130.3110  121.3150   75.2790 C   0  0  0  0  0  0  0  0  0  0  0  0
  130.9830  121.7280   74.1310 C   0  0  0  0  0  0  0  0  0  0  0  0
  131.2440  123.0810   73.9340 C   0  0  0  0  0  0  0  0  0  0  0  0
  130.4590  126.2280   73.6640 C   0  0  0  0  0  0  0  0  0  0  0  0
  129.4700  125.8980   72.6720 C   0  0  0  0  0  0  0  0  0  0  0  0
  128.9520  124.6330   72.5480 N   0  0  0  0  0  0  0  0  0  0  0  0
  128.0420  128.8850   67.5570 C   0  0  0  0  0  0  0  0  0  0  0  0
  127.2050  129.1700   66.4810 C   0  0  0  0  0  0  0  0  0  0  0  0
  123.8220  129.8548   63.2666 H   0  0  0  0  0  0  0  0  0  0  0  0
  125.3979  130.0368   62.4239 H   0  0  0  0  0  0  0  0  0  0  0  0
  124.5575  128.4492   62.4239 H   0  0  0  0  0  0  0  0  0  0  0  0
  124.2194  128.2217   67.8383 H   0  0  0  0  0  0  0  0  0  0  0  0
  125.7098  127.7106   69.7574 H   0  0  0  0  0  0  0  0  0  0  0  0
  129.0030  128.6780   70.0910 H   0  0  0  0  0  0  0  0  0  0  0  0
  133.0791  128.0122   77.2333 H   0  0  0  0  0  0  0  0  0  0  0  0
  134.3296  127.8040   75.9607 H   0  0  0  0  0  0  0  0  0  0  0  0
  133.2824  129.2635   75.9607 H   0  0  0  0  0  0  0  0  0  0  0  0
  132.5618  125.5459   76.2789 H   0  0  0  0  0  0  0  0  0  0  0  0
  129.8373  124.3349   76.7837 H   0  0  0  0  0  0  0  0  0  0  0  0
  129.3659  121.9102   77.1346 H   0  0  0  0  0  0  0  0  0  0  0  0
  130.1054  120.2458   75.4353 H   0  0  0  0  0  0  0  0  0  0  0  0
  131.3059  120.9884   73.3835 H   0  0  0  0  0  0  0  0  0  0  0  0
  131.7773  123.4109   73.0303 H   0  0  0  0  0  0  0  0  0  0  0  0
  129.3750  123.9440   71.9420 H   0  0  0  0  0  0  0  0  0  0  0  0
  128.1280  124.3480   73.0590 H   0  0  0  0  0  0  0  0  0  0  0  0
  129.1228  129.0732   67.4772 H   0  0  0  0  0  0  0  0  0  0  0  0
  127.6310  129.5829   65.5547 H   0  0  0  0  0  0  0  0  0  0  0  0
  1  2  1  0
  2  3  1  0
  3  4  2  0
  3  5  1  0
  5  6  2  0
  6  7  1  0
  7  8  2  0
  8  9  1  0
  9 10  1  0
 10 11  2  0
 10 12  1  0
 12 13  1  0
 13 14  1  0
 14 15  2  0
 15 16  1  0
 16 17  1  0
 16 18  2  0
 18 19  1  0
 19 20  1  0
 20 21  2  0
 21 22  1  0
 22 23  2  0
 23 24  1  0
 24 25  2  0
 19 26  2  0
 26 27  1  0
 27 28  1  0
  8 29  1  0
 29 30  2  0
 30  5  1  0
 27 12  2  0
 26 14  1  0
 25 20  1  0
  1 31  1  0
  1 32  1  0
  1 33  1  0
  6 34  1  0
  7 35  1  0
  9 36  1  0
 17 37  1  0
 17 38  1  0
 17 39  1  0
 18 40  1  0
 21 41  1  0
 22 42  1  0
 23 43  1  0
 24 44  1  0
 25 45  1  0
 28 46  1  0
 28 47  1  0
 29 48  1  0
 30 49  1  0
M  END
>  <Binding energies>  (1) 
[-7.79]

>  <Ligand effiencies>  (1) 
[-0.23606060606060605]

>  <Interactions>  (1) 
["V-B:ARG:545:CG:9893, V-B:GLU:543:CD:9879, V-B:HIS:456:CE1:9040, H-B:ARG:545:NH2:9899, V-A:HIS:456:CE1:4069, V-B:ARG:545:CZ:9897, V-B:ARG:545:CD:9894, H-B:GLY:454:N:9020, V-B:ASP:366:CG:8183, V-B:GLU:543:C:9873, H-A:HIS:456:ND1:4066, H-B:ARG:545:NE:9895, H-A:HIS:456:NE2:4070, H-B:GLU:543:O:9874, H-A:LYS:547:NZ:4950, V-A:HIS:456:CG:4065, V-A:HIS:456:CD2:4067, V-A:TYR:484:CG:4341, V-A:ASP:473:CB:4238, V-A:TYR:484:CB:4340, V-A:ASP:473:CG:4239, V-A:LYS:547:CD:4948, V-A:LYS:547:CE:4949, V-A:HIS:456:CB:4064, H-B:HIS:456:NE2:9041"]

$$$$
8a_Ghoteimi_2023
     RDKit          3D

 67 71  0  0  0  0  0  0  0  0999 V2000
  123.7950  131.1690   58.4400 C   0  0  0  0  0  0  0  0  0  0  0  0
  124.9910  132.0710   58.7590 C   0  0  0  0  0  0  0  0  0  0  0  0
  124.5230  133.3470   59.1750 O   0  0  0  0  0  0  0  0  0  0  0  0
  125.0720  133.9820   60.2440 C   0  0  0  0  0  0  0  0  0  0  0  0
  125.2640  135.2010   60.2860 O   0  0  0  0  0  0  0  0  0  0  0  0
  125.4290  133.0510   61.3670 C   0  0  0  0  0  0  0  0  0  0  0  0
  126.6780  133.1780   61.9890 C   0  0  0  0  0  0  0  0  0  0  0  0
  127.0390  132.3300   63.0320 C   0  0  0  0  0  0  0  0  0  0  0  0
  126.1630  131.3380   63.4750 C   0  0  0  0  0  0  0  0  0  0  0  0
  126.6370  130.5360   64.5320 N   0  0  0  0  0  0  0  0  0  0  0  0
  126.0630  129.4780   65.1560 C   0  0  0  0  0  0  0  0  0  0  0  0
  124.9540  129.0240   64.8730 O   0  0  0  0  0  0  0  0  0  0  0  0
  126.8640  128.8730   66.2240 C   0  0  0  0  0  0  0  0  0  0  0  0
  126.2800  128.8760   67.8870 S   0  0  0  0  0  0  0  0  0  0  0  0
  127.7170  128.0510   68.4440 C   0  0  0  0  0  0  0  0  0  0  0  0
  127.9030  127.7590   69.7310 N   0  0  0  0  0  0  0  0  0  0  0  0
  129.0580  127.1210   70.0580 C   0  0  0  0  0  0  0  0  0  0  0  0
  129.2550  126.8210   71.5090 C   0  0  0  0  0  0  0  0  0  0  0  0
  129.0000  125.5420   72.0250 C   0  0  0  0  0  0  0  0  0  0  0  0
  129.1740  125.2720   73.3790 C   0  0  0  0  0  0  0  0  0  0  0  0
  129.6090  126.2690   74.2500 C   0  0  0  0  0  0  0  0  0  0  0  0
  129.7510  125.9110   75.5780 O   0  0  0  0  0  0  0  0  0  0  0  0
  130.8920  125.1570   75.9730 C   0  0  0  0  0  0  0  0  0  0  0  0
  129.8720  127.5500   73.7440 C   0  0  0  0  0  0  0  0  0  0  0  0
  129.6950  127.8180   72.3890 C   0  0  0  0  0  0  0  0  0  0  0  0
  130.0150  126.7730   69.1020 C   0  0  0  0  0  0  0  0  0  0  0  0
  129.8170  127.0640   67.7470 C   0  0  0  0  0  0  0  0  0  0  0  0
  130.8510  126.6430   66.7680 C   0  0  0  0  0  0  0  0  0  0  0  0
  132.2020  126.6610   67.1220 C   0  0  0  0  0  0  0  0  0  0  0  0
  133.1740  126.2480   66.2140 C   0  0  0  0  0  0  0  0  0  0  0  0
  132.8130  125.8050   64.9420 C   0  0  0  0  0  0  0  0  0  0  0  0
  133.8430  125.4150   64.1090 O   0  0  0  0  0  0  0  0  0  0  0  0
  133.5350  124.8120   62.8580 C   0  0  0  0  0  0  0  0  0  0  0  0
  131.4550  125.7790   64.5870 C   0  0  0  0  0  0  0  0  0  0  0  0
  130.4850  126.1910   65.4980 C   0  0  0  0  0  0  0  0  0  0  0  0
  128.6240  127.7510   67.3850 C   0  0  0  0  0  0  0  0  0  0  0  0
  128.1190  128.2490   66.1290 C   0  0  0  0  0  0  0  0  0  0  0  0
  128.8190  128.1330   64.9550 N   0  0  0  0  0  0  0  0  0  0  0  0
  124.9080  131.2070   62.8610 C   0  0  0  0  0  0  0  0  0  0  0  0
  124.5480  132.0560   61.8170 C   0  0  0  0  0  0  0  0  0  0  0  0
  123.3362  130.8230   59.3780 H   0  0  0  0  0  0  0  0  0  0  0  0
  123.0541  131.7352   57.8565 H   0  0  0  0  0  0  0  0  0  0  0  0
  124.1357  130.3010   57.8565 H   0  0  0  0  0  0  0  0  0  0  0  0
  125.5873  131.6183   59.5649 H   0  0  0  0  0  0  0  0  0  0  0  0
  125.6156  132.1840   57.8606 H   0  0  0  0  0  0  0  0  0  0  0  0
  127.3794  133.9546   61.6501 H   0  0  0  0  0  0  0  0  0  0  0  0
  128.0228  132.4426   63.5110 H   0  0  0  0  0  0  0  0  0  0  0  0
  127.5550  130.7940   64.8620 H   0  0  0  0  0  0  0  0  0  0  0  0
  128.6583  124.7425   71.3511 H   0  0  0  0  0  0  0  0  0  0  0  0
  128.9664  124.2631   73.7650 H   0  0  0  0  0  0  0  0  0  0  0  0
  130.9458  125.1214   77.0711 H   0  0  0  0  0  0  0  0  0  0  0  0
  130.8108  124.1341   75.5766 H   0  0  0  0  0  0  0  0  0  0  0  0
  131.8011  125.6328   75.5766 H   0  0  0  0  0  0  0  0  0  0  0  0
  130.2192  128.3457   74.4195 H   0  0  0  0  0  0  0  0  0  0  0  0
  129.9037  128.8271   72.0042 H   0  0  0  0  0  0  0  0  0  0  0  0
  130.9370  126.2632   69.4182 H   0  0  0  0  0  0  0  0  0  0  0  0
  132.5001  127.0034   68.1239 H   0  0  0  0  0  0  0  0  0  0  0  0
  134.2352  126.2715   66.5026 H   0  0  0  0  0  0  0  0  0  0  0  0
  133.0407  123.8443   63.0292 H   0  0  0  0  0  0  0  0  0  0  0  0
  132.8632  125.4712   62.2887 H   0  0  0  0  0  0  0  0  0  0  0  0
  134.4629  124.6541   62.2887 H   0  0  0  0  0  0  0  0  0  0  0  0
  131.1561  125.4324   63.5868 H   0  0  0  0  0  0  0  0  0  0  0  0
  129.4225  126.1601   65.2150 H   0  0  0  0  0  0  0  0  0  0  0  0
  128.7820  127.2880   64.4010 H   0  0  0  0  0  0  0  0  0  0  0  0
  129.3900  128.8860   64.6000 H   0  0  0  0  0  0  0  0  0  0  0  0
  124.2070  130.4322   63.2049 H   0  0  0  0  0  0  0  0  0  0  0  0
  123.5628  131.9452   61.3404 H   0  0  0  0  0  0  0  0  0  0  0  0
  1  2  1  0
  2  3  1  0
  3  4  1  0
  4  5  2  0
  4  6  1  0
  6  7  2  0
  7  8  1  0
  8  9  2  0
  9 10  1  0
 10 11  1  0
 11 12  2  0
 11 13  1  0
 13 14  1  0
 14 15  1  0
 15 16  2  0
 16 17  1  0
 17 18  1  0
 18 19  2  0
 19 20  1  0
 20 21  2  0
 21 22  1  0
 22 23  1  0
 21 24  1  0
 24 25  2  0
 17 26  2  0
 26 27  1  0
 27 28  1  0
 28 29  2  0
 29 30  1  0
 30 31  2  0
 31 32  1  0
 32 33  1  0
 31 34  1  0
 34 35  2  0
 27 36  2  0
 36 37  1  0
 37 38  1  0
  9 39  1  0
 39 40  2  0
 40  6  1  0
 37 13  2  0
 36 15  1  0
 25 18  1  0
 35 28  1  0
  1 41  1  0
  1 42  1  0
  1 43  1  0
  2 44  1  0
  2 45  1  0
  7 46  1  0
  8 47  1  0
 10 48  1  0
 19 49  1  0
 20 50  1  0
 23 51  1  0
 23 52  1  0
 23 53  1  0
 24 54  1  0
 25 55  1  0
 26 56  1  0
 29 57  1  0
 30 58  1  0
 33 59  1  0
 33 60  1  0
 33 61  1  0
 34 62  1  0
 35 63  1  0
 38 64  1  0
 38 65  1  0
 39 66  1  0
 40 67  1  0
M  END
>  <Binding energies>  (1) 
[-7.3]

>  <Ligand effiencies>  (1) 
[-0.1697674418604651]

>  <Interactions>  (1) 
["V-B:GLU:543:CD:9879, V-B:HIS:456:CE1:9040, H-B:SER:385:OG:8380, H-B:ARG:545:NH2:9899, H-A:GLY:454:N:4049, V-A:HIS:456:CE1:4069, V-A:TYR:539:CD1:4872, H-A:ARG:545:NH1:4926, V-A:GLU:543:CD:4907, H-A:ARG:545:NH2:4927, V-B:ILE:369:CG2:8207, V-A:ARG:545:CZ:4925, V-A:ASP:366:CG:3212, V-A:ARG:545:CD:4922, V-A:ARG:545:CG:4921, V-B:GLU:543:C:9873, V-A:TYR:539:CE1:4874, H-A:GLU:543:OE2:4909, H-B:ARG:545:NE:9895, V-B:ILE:369:CB:8206, H-B:GLU:543:OE2:9881, H-B:GLU:543:OE1:9880, V-B:LYS:547:CE:9921, H-A:GLU:543:OE1:4908, H-B:LYS:547:NZ:9922, V-A:HIS:456:CD2:4067"]

$$$$
8b_Ghoteimi_2023
     RDKit          3D

 54 58  0  0  0  0  0  0  0  0999 V2000
  128.0130  129.1560   76.4280 C   0  0  0  0  0  0  0  0  0  0  0  0
  128.6940  128.0820   75.7870 O   0  0  0  0  0  0  0  0  0  0  0  0
  128.8220  128.0910   74.4110 C   0  0  0  0  0  0  0  0  0  0  0  0
  127.9490  127.2710   73.7000 C   0  0  0  0  0  0  0  0  0  0  0  0
  128.0040  127.2140   72.3110 C   0  0  0  0  0  0  0  0  0  0  0  0
  128.9370  127.9780   71.5950 C   0  0  0  0  0  0  0  0  0  0  0  0
  129.0030  127.9200   70.1020 C   0  0  0  0  0  0  0  0  0  0  0  0
  127.9740  128.4230   69.2990 C   0  0  0  0  0  0  0  0  0  0  0  0
  128.0600  128.3570   67.9050 C   0  0  0  0  0  0  0  0  0  0  0  0
  126.9480  128.8890   67.0840 C   0  0  0  0  0  0  0  0  0  0  0  0
  127.1890  129.8820   66.1330 C   0  0  0  0  0  0  0  0  0  0  0  0
  126.1440  130.3740   65.3560 C   0  0  0  0  0  0  0  0  0  0  0  0
  124.8470  129.8850   65.5170 C   0  0  0  0  0  0  0  0  0  0  0  0
  123.8750  130.4300   64.7010 O   0  0  0  0  0  0  0  0  0  0  0  0
  123.8020  130.0220   63.3390 C   0  0  0  0  0  0  0  0  0  0  0  0
  124.6070  128.8890   66.4770 C   0  0  0  0  0  0  0  0  0  0  0  0
  125.6530  128.3970   67.2540 C   0  0  0  0  0  0  0  0  0  0  0  0
  129.2230  127.7740   67.3340 C   0  0  0  0  0  0  0  0  0  0  0  0
  129.6360  127.5530   65.9730 C   0  0  0  0  0  0  0  0  0  0  0  0
  128.8640  127.9240   64.9020 N   0  0  0  0  0  0  0  0  0  0  0  0
  130.8890  126.9320   65.8530 C   0  0  0  0  0  0  0  0  0  0  0  0
  131.6120  126.5660   64.6330 C   0  0  0  0  0  0  0  0  0  0  0  0
  131.4310  127.1880   63.5830 O   0  0  0  0  0  0  0  0  0  0  0  0
  132.4650  125.5180   64.7550 N   0  0  0  0  0  0  0  0  0  0  0  0
  133.2720  124.9660   63.7690 C   0  0  0  0  0  0  0  0  0  0  0  0
  132.7800  124.1550   62.7480 C   0  0  0  0  0  0  0  0  0  0  0  0
  133.8820  123.8160   61.9970 C   0  0  0  0  0  0  0  0  0  0  0  0
  134.9810  124.3960   62.5350 O   0  0  0  0  0  0  0  0  0  0  0  0
  134.5820  125.1240   63.6580 N   0  0  0  0  0  0  0  0  0  0  0  0
  131.5930  126.6060   67.4380 S   0  0  0  0  0  0  0  0  0  0  0  0
  130.2080  127.3010   68.2480 C   0  0  0  0  0  0  0  0  0  0  0  0
  130.1260  127.3610   69.5760 N   0  0  0  0  0  0  0  0  0  0  0  0
  129.8110  128.8030   72.3170 C   0  0  0  0  0  0  0  0  0  0  0  0
  129.7580  128.8610   73.7070 C   0  0  0  0  0  0  0  0  0  0  0  0
  128.0876  129.0383   77.5191 H   0  0  0  0  0  0  0  0  0  0  0  0
  128.4712  130.1106   76.1300 H   0  0  0  0  0  0  0  0  0  0  0  0
  126.9542  129.1487   76.1300 H   0  0  0  0  0  0  0  0  0  0  0  0
  127.2094  126.6630   74.2416 H   0  0  0  0  0  0  0  0  0  0  0  0
  127.3061  126.5607   71.7669 H   0  0  0  0  0  0  0  0  0  0  0  0
  127.0881  128.8751   69.7690 H   0  0  0  0  0  0  0  0  0  0  0  0
  128.2068  130.2766   65.9973 H   0  0  0  0  0  0  0  0  0  0  0  0
  126.3425  131.1557   64.6080 H   0  0  0  0  0  0  0  0  0  0  0  0
  123.6085  128.9403   63.2902 H   0  0  0  0  0  0  0  0  0  0  0  0
  122.9865  130.5634   62.8372 H   0  0  0  0  0  0  0  0  0  0  0  0
  124.7547  130.2471   62.8372 H   0  0  0  0  0  0  0  0  0  0  0  0
  123.5891  128.4958   66.6160 H   0  0  0  0  0  0  0  0  0  0  0  0
  125.4576  127.6173   68.0049 H   0  0  0  0  0  0  0  0  0  0  0  0
  127.9540  127.5140   64.7420 H   0  0  0  0  0  0  0  0  0  0  0  0
  129.1770  128.6160   64.2350 H   0  0  0  0  0  0  0  0  0  0  0  0
  132.5310  125.0840   65.6630 H   0  0  0  0  0  0  0  0  0  0  0  0
  131.7363  123.8515   62.5790 H   0  0  0  0  0  0  0  0  0  0  0  0
  133.8718  123.1760   61.1024 H   0  0  0  0  0  0  0  0  0  0  0  0
  130.5497  129.4136   71.7771 H   0  0  0  0  0  0  0  0  0  0  0  0
  130.4535  129.5137   74.2550 H   0  0  0  0  0  0  0  0  0  0  0  0
  1  2  1  0
  2  3  1  0
  3  4  2  0
  4  5  1  0
  5  6  2  0
  6  7  1  0
  7  8  2  0
  8  9  1  0
  9 10  1  0
 10 11  2  0
 11 12  1  0
 12 13  2  0
 13 14  1  0
 14 15  1  0
 13 16  1  0
 16 17  2  0
  9 18  2  0
 18 19  1  0
 19 20  1  0
 19 21  2  0
 21 22  1  0
 22 23  2  0
 22 24  1  0
 24 25  1  0
 25 26  1  0
 26 27  2  0
 27 28  1  0
 28 29  1  0
 21 30  1  0
 30 31  1  0
 31 32  2  0
  6 33  1  0
 33 34  2  0
 34  3  1  0
 32  7  1  0
 17 10  1  0
 31 18  1  0
 29 25  2  0
  1 35  1  0
  1 36  1  0
  1 37  1  0
  4 38  1  0
  5 39  1  0
  8 40  1  0
 11 41  1  0
 12 42  1  0
 15 43  1  0
 15 44  1  0
 15 45  1  0
 16 46  1  0
 17 47  1  0
 20 48  1  0
 20 49  1  0
 24 50  1  0
 26 51  1  0
 27 52  1  0
 33 53  1  0
 34 54  1  0
M  END
>  <Binding energies>  (1) 
[-7.45]

>  <Ligand effiencies>  (1) 
[-0.20135135135135135]

>  <Interactions>  (1) 
["V-B:ARG:545:CG:9893, V-B:GLU:543:CD:9879, V-B:HIS:456:CE1:9040, H-A:GLY:454:N:4049, V-A:HIS:456:CE1:4069, H-A:ARG:545:NH1:4926, V-A:GLU:543:CD:4907, V-B:ARG:545:CZ:9897, H-A:ARG:545:NH2:4927, V-B:ARG:545:CD:9894, H-B:GLY:454:N:9020, V-A:ARG:545:CZ:4925, V-A:ASP:366:CG:3212, H-A:TYR:484:OH:4347, H-A:GLU:543:OE2:4909, H-B:GLU:543:OE2:9881, V-A:ILE:369:CD1:3238, H-B:GLU:543:OE1:9880, V-B:LYS:547:CE:9921, H-A:GLU:543:OE1:4908, H-B:LYS:547:NZ:9922, V-B:HIS:456:CD2:9038"]

$$$$
8c_Ghoteimi_2023
     RDKit          3D

 54 58  0  0  0  0  0  0  0  0999 V2000
  128.5470  129.2190   76.1800 C   0  0  0  0  0  0  0  0  0  0  0  0
  129.7120  128.8770   75.4380 O   0  0  0  0  0  0  0  0  0  0  0  0
  129.6020  128.6410   74.0810 C   0  0  0  0  0  0  0  0  0  0  0  0
  130.4220  129.3990   73.2480 C   0  0  0  0  0  0  0  0  0  0  0  0
  130.3770  129.2320   71.8680 C   0  0  0  0  0  0  0  0  0  0  0  0
  129.5080  128.2990   71.2830 C   0  0  0  0  0  0  0  0  0  0  0  0
  129.4520  128.1170   69.7990 C   0  0  0  0  0  0  0  0  0  0  0  0
  128.3890  128.6080   69.0350 C   0  0  0  0  0  0  0  0  0  0  0  0
  128.3620  128.4260   67.6480 C   0  0  0  0  0  0  0  0  0  0  0  0
  127.2170  128.9510   66.8700 C   0  0  0  0  0  0  0  0  0  0  0  0
  125.9340  128.4370   67.0740 C   0  0  0  0  0  0  0  0  0  0  0  0
  124.8580  128.9380   66.3480 C   0  0  0  0  0  0  0  0  0  0  0  0
  125.0450  129.9530   65.4090 C   0  0  0  0  0  0  0  0  0  0  0  0
  123.9190  130.3900   64.7380 O   0  0  0  0  0  0  0  0  0  0  0  0
  123.7090  129.9790   63.3920 C   0  0  0  0  0  0  0  0  0  0  0  0
  126.3360  130.4650   65.2030 C   0  0  0  0  0  0  0  0  0  0  0  0
  127.4120  129.9640   65.9300 C   0  0  0  0  0  0  0  0  0  0  0  0
  129.4470  127.7360   67.0440 C   0  0  0  0  0  0  0  0  0  0  0  0
  129.7400  127.3830   65.6800 C   0  0  0  0  0  0  0  0  0  0  0  0
  128.9040  127.7060   64.6410 N   0  0  0  0  0  0  0  0  0  0  0  0
  130.9480  126.6850   65.5200 C   0  0  0  0  0  0  0  0  0  0  0  0
  131.5530  126.1800   64.2850 C   0  0  0  0  0  0  0  0  0  0  0  0
  131.4770  126.8250   63.2370 O   0  0  0  0  0  0  0  0  0  0  0  0
  132.1790  124.9820   64.3930 N   0  0  0  0  0  0  0  0  0  0  0  0
  132.8300  124.2880   63.3830 C   0  0  0  0  0  0  0  0  0  0  0  0
  133.2970  124.7620   62.2480 N   0  0  0  0  0  0  0  0  0  0  0  0
  133.8630  123.8160   61.5240 C   0  0  0  0  0  0  0  0  0  0  0  0
  133.8620  122.5380   62.0720 C   0  0  0  0  0  0  0  0  0  0  0  0
  133.0730  122.5870   63.6210 S   0  0  0  0  0  0  0  0  0  0  0  0
  131.7590  126.4520   67.0690 S   0  0  0  0  0  0  0  0  0  0  0  0
  130.4780  127.2850   67.9190 C   0  0  0  0  0  0  0  0  0  0  0  0
  130.5030  127.4560   69.2400 N   0  0  0  0  0  0  0  0  0  0  0  0
  128.6880  127.5390   72.1270 C   0  0  0  0  0  0  0  0  0  0  0  0
  128.7300  127.7040   73.5080 C   0  0  0  0  0  0  0  0  0  0  0  0
  128.7657  129.1548   77.2561 H   0  0  0  0  0  0  0  0  0  0  0  0
  128.2403  130.2451   75.9287 H   0  0  0  0  0  0  0  0  0  0  0  0
  127.7344  128.5215   75.9287 H   0  0  0  0  0  0  0  0  0  0  0  0
  131.1112  130.1362   73.6857 H   0  0  0  0  0  0  0  0  0  0  0  0
  131.0319  129.8399   71.2264 H   0  0  0  0  0  0  0  0  0  0  0  0
  127.5650  129.1431   69.5297 H   0  0  0  0  0  0  0  0  0  0  0  0
  125.7743  127.6350   67.8097 H   0  0  0  0  0  0  0  0  0  0  0  0
  123.8503  128.5300   66.5159 H   0  0  0  0  0  0  0  0  0  0  0  0
  123.2085  128.9995   63.3816 H   0  0  0  0  0  0  0  0  0  0  0  0
  123.0783  130.7185   62.8770 H   0  0  0  0  0  0  0  0  0  0  0  0
  124.6779  129.9012   62.8770 H   0  0  0  0  0  0  0  0  0  0  0  0
  126.4976  131.2644   64.4649 H   0  0  0  0  0  0  0  0  0  0  0  0
  128.4212  130.3685   65.7628 H   0  0  0  0  0  0  0  0  0  0  0  0
  129.2160  128.2860   63.8750 H   0  0  0  0  0  0  0  0  0  0  0  0
  127.9490  127.3790   64.6060 H   0  0  0  0  0  0  0  0  0  0  0  0
  132.1820  124.5410   65.3010 H   0  0  0  0  0  0  0  0  0  0  0  0
  134.3108  124.0262   60.5415 H   0  0  0  0  0  0  0  0  0  0  0  0
  134.2910  121.6409   61.6017 H   0  0  0  0  0  0  0  0  0  0  0  0
  127.9998  126.7999   71.6910 H   0  0  0  0  0  0  0  0  0  0  0  0
  128.0769  127.0973   74.1526 H   0  0  0  0  0  0  0  0  0  0  0  0
  1  2  1  0
  2  3  1  0
  3  4  2  0
  4  5  1  0
  5  6  2  0
  6  7  1  0
  7  8  2  0
  8  9  1  0
  9 10  1  0
 10 11  2  0
 11 12  1  0
 12 13  2  0
 13 14  1  0
 14 15  1  0
 13 16  1  0
 16 17  2  0
  9 18  2  0
 18 19  1  0
 19 20  1  0
 19 21  2  0
 21 22  1  0
 22 23  2  0
 22 24  1  0
 24 25  1  0
 25 26  2  0
 26 27  1  0
 27 28  2  0
 28 29  1  0
 21 30  1  0
 30 31  1  0
 31 32  2  0
  6 33  1  0
 33 34  2  0
 34  3  1  0
 32  7  1  0
 17 10  1  0
 31 18  1  0
 29 25  1  0
  1 35  1  0
  1 36  1  0
  1 37  1  0
  4 38  1  0
  5 39  1  0
  8 40  1  0
 11 41  1  0
 12 42  1  0
 15 43  1  0
 15 44  1  0
 15 45  1  0
 16 46  1  0
 17 47  1  0
 20 48  1  0
 20 49  1  0
 24 50  1  0
 27 51  1  0
 28 52  1  0
 33 53  1  0
 34 54  1  0
M  END
>  <Binding energies>  (1) 
[-7.37]

>  <Ligand effiencies>  (1) 
[-0.19918918918918918]

>  <Interactions>  (1) 
["V-B:ARG:545:CG:9893, V-B:GLU:543:CD:9879, V-B:HIS:456:CE1:9040, V-A:HIS:456:CE1:4069, V-A:GLU:543:CD:4907, V-A:GLY:454:CA:4048, V-B:ARG:545:CZ:9897, H-A:ARG:545:NH2:4927, V-B:ARG:545:CD:9894, H-B:GLY:454:N:9020, V-A:GLU:543:C:4901, V-A:ASP:366:CG:3212, H-A:TYR:484:OH:4347, H-A:GLU:543:OE2:4909, V-A:LEU:475:CD2:4258, H-B:GLU:543:OE2:9881, V-A:ILE:369:CD1:3238, H-B:GLU:543:OE1:9880, V-A:GLY:544:C:4911, V-A:GLY:544:CA:4913, H-A:LYS:547:NZ:4950, V-B:HIS:456:CD2:9038"]

$$$$
8d_Ghoteimi_2023
     RDKit          3D

 50 53  0  0  0  0  0  0  0  0999 V2000
  123.6770  129.6840   63.8550 C   0  0  0  0  0  0  0  0  0  0  0  0
  124.2640  130.5720   64.7970 O   0  0  0  0  0  0  0  0  0  0  0  0
  124.5110  130.1710   66.0710 C   0  0  0  0  0  0  0  0  0  0  0  0
  123.7510  130.3800   67.0190 O   0  0  0  0  0  0  0  0  0  0  0  0
  125.7970  129.4530   66.2090 C   0  0  0  0  0  0  0  0  0  0  0  0
  126.7910  129.1450   64.7830 S   0  0  0  0  0  0  0  0  0  0  0  0
  127.9980  128.3310   65.7530 C   0  0  0  0  0  0  0  0  0  0  0  0
  129.1040  127.8170   65.2130 N   0  0  0  0  0  0  0  0  0  0  0  0
  129.9780  127.2080   66.0580 C   0  0  0  0  0  0  0  0  0  0  0  0
  131.2080  126.6360   65.4270 C   0  0  0  0  0  0  0  0  0  0  0  0
  131.2840  126.4320   64.0420 C   0  0  0  0  0  0  0  0  0  0  0  0
  132.4310  125.9000   63.4600 C   0  0  0  0  0  0  0  0  0  0  0  0
  133.5300  125.5560   64.2450 C   0  0  0  0  0  0  0  0  0  0  0  0
  134.6240  125.0340   63.5830 O   0  0  0  0  0  0  0  0  0  0  0  0
  134.4160  124.1280   62.5050 C   0  0  0  0  0  0  0  0  0  0  0  0
  133.4660  125.7570   65.6320 C   0  0  0  0  0  0  0  0  0  0  0  0
  132.3170  126.2910   66.2100 C   0  0  0  0  0  0  0  0  0  0  0  0
  129.7410  127.1070   67.4320 C   0  0  0  0  0  0  0  0  0  0  0  0
  128.5830  127.6480   67.9980 C   0  0  0  0  0  0  0  0  0  0  0  0
  128.3650  127.5330   69.4580 C   0  0  0  0  0  0  0  0  0  0  0  0
  129.1890  128.2250   70.3480 C   0  0  0  0  0  0  0  0  0  0  0  0
  128.9900  128.1100   71.7210 C   0  0  0  0  0  0  0  0  0  0  0  0
  127.9650  127.3080   72.2240 C   0  0  0  0  0  0  0  0  0  0  0  0
  127.8430  127.2530   73.5980 O   0  0  0  0  0  0  0  0  0  0  0  0
  126.5790  127.5190   74.1950 C   0  0  0  0  0  0  0  0  0  0  0  0
  127.1340  126.6160   71.3270 C   0  0  0  0  0  0  0  0  0  0  0  0
  127.3360  126.7320   69.9540 C   0  0  0  0  0  0  0  0  0  0  0  0
  127.6570  128.2930   67.1350 C   0  0  0  0  0  0  0  0  0  0  0  0
  126.3950  128.9400   67.3660 C   0  0  0  0  0  0  0  0  0  0  0  0
  125.8320  129.0380   68.6130 N   0  0  0  0  0  0  0  0  0  0  0  0
  123.1466  128.8816   64.3887 H   0  0  0  0  0  0  0  0  0  0  0  0
  122.9658  130.2369   63.2237 H   0  0  0  0  0  0  0  0  0  0  0  0
  124.4643  129.2463   63.2237 H   0  0  0  0  0  0  0  0  0  0  0  0
  130.4256  126.6959   63.4068 H   0  0  0  0  0  0  0  0  0  0  0  0
  132.4704  125.7498   62.3710 H   0  0  0  0  0  0  0  0  0  0  0  0
  134.1867  123.1291   62.9046 H   0  0  0  0  0  0  0  0  0  0  0  0
  133.5749  124.4783   61.8887 H   0  0  0  0  0  0  0  0  0  0  0  0
  135.3257  124.0764   61.8887 H   0  0  0  0  0  0  0  0  0  0  0  0
  134.3259  125.4920   66.2648 H   0  0  0  0  0  0  0  0  0  0  0  0
  132.2798  126.4443   67.2986 H   0  0  0  0  0  0  0  0  0  0  0  0
  130.4735  126.5964   68.0745 H   0  0  0  0  0  0  0  0  0  0  0  0
  129.9980  128.8631   69.9629 H   0  0  0  0  0  0  0  0  0  0  0  0
  129.6461  128.6558   72.4150 H   0  0  0  0  0  0  0  0  0  0  0  0
  126.6791  127.4979   75.2902 H   0  0  0  0  0  0  0  0  0  0  0  0
  126.2254  128.5112   73.8781 H   0  0  0  0  0  0  0  0  0  0  0  0
  125.8554  126.7534   73.8781 H   0  0  0  0  0  0  0  0  0  0  0  0
  126.3217  125.9809   71.7102 H   0  0  0  0  0  0  0  0  0  0  0  0
  126.6808  126.1892   69.2569 H   0  0  0  0  0  0  0  0  0  0  0  0
  126.0880  128.4060   69.3580 H   0  0  0  0  0  0  0  0  0  0  0  0
  125.1470  129.7470   68.8310 H   0  0  0  0  0  0  0  0  0  0  0  0
  1  2  1  0
  2  3  1  0
  3  4  2  0
  3  5  1  0
  5  6  1  0
  6  7  1  0
  7  8  2  0
  8  9  1  0
  9 10  1  0
 10 11  2  0
 11 12  1  0
 12 13  2  0
 13 14  1  0
 14 15  1  0
 13 16  1  0
 16 17  2  0
  9 18  2  0
 18 19  1  0
 19 20  1  0
 20 21  2  0
 21 22  1  0
 22 23  2  0
 23 24  1  0
 24 25  1  0
 23 26  1  0
 26 27  2  0
 19 28  2  0
 28 29  1  0
 29 30  1  0
 29  5  2  0
 28  7  1  0
 17 10  1  0
 27 20  1  0
  1 31  1  0
  1 32  1  0
  1 33  1  0
 11 34  1  0
 12 35  1  0
 15 36  1  0
 15 37  1  0
 15 38  1  0
 16 39  1  0
 17 40  1  0
 18 41  1  0
 21 42  1  0
 22 43  1  0
 25 44  1  0
 25 45  1  0
 25 46  1  0
 26 47  1  0
 27 48  1  0
 30 49  1  0
 30 50  1  0
M  END
>  <Binding energies>  (1) 
[-6.57]

>  <Ligand effiencies>  (1) 
[-0.2053125]

>  <Interactions>  (1) 
["V-B:GLU:543:CB:9877, V-B:GLU:543:CD:9879, V-B:HIS:456:CE1:9040, H-A:GLY:454:N:4049, V-A:HIS:456:CE1:4069, H-A:ARG:545:NH1:4926, V-A:GLU:543:CD:4907, V-A:GLY:454:CA:4048, V-B:ARG:545:CZ:9897, H-B:TYR:484:OH:9318, H-B:GLY:454:N:9020, V-B:TYR:484:CZ:9317, V-A:ARG:545:CZ:4925, V-A:GLY:453:CA:4043, V-A:ASP:366:CG:3212, V-A:ARG:545:CD:4922, V-B:GLU:543:C:9873, V-B:GLY:544:C:9883, H-B:ILE:455:N:9025, V-B:GLY:453:CA:9014, V-B:GLY:454:CA:9019, V-A:GLY:453:C:4041, V-A:ILE:369:CD1:3238, H-B:ILE:455:O:9023, V-B:LYS:547:CE:9921, H-B:LYS:547:NZ:9922, V-B:HIS:456:CG:9036, V-B:HIS:456:CD2:9038"]

$$$$
9a_Ghoteimi_2023
     RDKit          3D

 85 91  0  0  0  0  0  0  0  0999 V2000
  124.6490  128.1300   75.5470 C   0  0  0  0  0  0  0  0  0  0  0  0
  125.7490  128.9340   76.2460 C   0  0  0  0  0  0  0  0  0  0  0  0
  126.9420  128.1610   76.2970 O   0  0  0  0  0  0  0  0  0  0  0  0
  128.1070  128.6350   75.7860 C   0  0  0  0  0  0  0  0  0  0  0  0
  128.8910  129.3450   76.4250 O   0  0  0  0  0  0  0  0  0  0  0  0
  128.3460  128.2160   74.3640 C   0  0  0  0  0  0  0  0  0  0  0  0
  129.4020  128.7950   73.6480 C   0  0  0  0  0  0  0  0  0  0  0  0
  129.6480  128.4290   72.3280 C   0  0  0  0  0  0  0  0  0  0  0  0
  128.8480  127.4770   71.6970 C   0  0  0  0  0  0  0  0  0  0  0  0
  129.1890  127.1850   70.3620 N   0  0  0  0  0  0  0  0  0  0  0  0
  129.7580  127.9660   69.4100 C   0  0  0  0  0  0  0  0  0  0  0  0
  130.0900  129.1390   69.5840 O   0  0  0  0  0  0  0  0  0  0  0  0
  129.9750  127.3160   68.1140 C   0  0  0  0  0  0  0  0  0  0  0  0
  130.5810  125.6610   68.0380 S   0  0  0  0  0  0  0  0  0  0  0  0
  130.5300  125.6740   66.2910 C   0  0  0  0  0  0  0  0  0  0  0  0
  130.8800  124.6070   65.5740 N   0  0  0  0  0  0  0  0  0  0  0  0
  130.7940  124.7170   64.2220 C   0  0  0  0  0  0  0  0  0  0  0  0
  131.1810  123.5050   63.4380 C   0  0  0  0  0  0  0  0  0  0  0  0
  130.2960  122.9460   62.5090 C   0  0  0  0  0  0  0  0  0  0  0  0
  130.6500  121.8170   61.7740 C   0  0  0  0  0  0  0  0  0  0  0  0
  131.9070  121.2130   61.9310 C   0  0  0  0  0  0  0  0  0  0  0  0
  132.2680  120.0680   61.2140 N   0  0  0  0  0  0  0  0  0  0  0  0
  131.3670  118.9020   61.1150 C   0  0  0  0  0  0  0  0  0  0  0  0
  132.0590  117.6200   60.6090 C   0  0  0  0  0  0  0  0  0  0  0  0
  132.7040  117.8710   59.3710 O   0  0  0  0  0  0  0  0  0  0  0  0
  133.6930  118.8810   59.4960 C   0  0  0  0  0  0  0  0  0  0  0  0
  133.0440  120.2000   59.9630 C   0  0  0  0  0  0  0  0  0  0  0  0
  132.7840  121.7690   62.8740 C   0  0  0  0  0  0  0  0  0  0  0  0
  132.4290  122.8950   63.6100 C   0  0  0  0  0  0  0  0  0  0  0  0
  130.3860  125.8960   63.5940 C   0  0  0  0  0  0  0  0  0  0  0  0
  130.0370  127.0250   64.3430 C   0  0  0  0  0  0  0  0  0  0  0  0
  129.6460  128.2650   63.6240 C   0  0  0  0  0  0  0  0  0  0  0  0
  128.4300  128.8950   63.9020 C   0  0  0  0  0  0  0  0  0  0  0  0
  128.0710  130.0630   63.2380 C   0  0  0  0  0  0  0  0  0  0  0  0
  128.9280  130.6450   62.2890 C   0  0  0  0  0  0  0  0  0  0  0  0
  128.5850  131.8120   61.6020 N   0  0  0  0  0  0  0  0  0  0  0  0
  127.8310  132.8680   62.3080 C   0  0  0  0  0  0  0  0  0  0  0  0
  127.8520  134.2260   61.5750 C   0  0  0  0  0  0  0  0  0  0  0  0
  127.3790  134.0690   60.2460 O   0  0  0  0  0  0  0  0  0  0  0  0
  128.1820  133.1620   59.5070 C   0  0  0  0  0  0  0  0  0  0  0  0
  128.1710  131.7750   60.1850 C   0  0  0  0  0  0  0  0  0  0  0  0
  130.1470  130.0070   62.0210 C   0  0  0  0  0  0  0  0  0  0  0  0
  130.5040  128.8350   62.6820 C   0  0  0  0  0  0  0  0  0  0  0  0
  130.0850  126.9210   65.7630 C   0  0  0  0  0  0  0  0  0  0  0  0
  129.7520  127.8330   66.8290 C   0  0  0  0  0  0  0  0  0  0  0  0
  129.2480  129.0870   66.5960 N   0  0  0  0  0  0  0  0  0  0  0  0
  127.7900  126.8880   72.4070 C   0  0  0  0  0  0  0  0  0  0  0  0
  127.5450  127.2560   73.7280 C   0  0  0  0  0  0  0  0  0  0  0  0
  124.0034  127.6581   76.3024 H   0  0  0  0  0  0  0  0  0  0  0  0
  124.0467  128.8023   74.9183 H   0  0  0  0  0  0  0  0  0  0  0  0
  125.1067  127.3521   74.9183 H   0  0  0  0  0  0  0  0  0  0  0  0
  125.9370  129.8619   75.6860 H   0  0  0  0  0  0  0  0  0  0  0  0
  125.4285  129.1814   77.2688 H   0  0  0  0  0  0  0  0  0  0  0  0
  130.0426  129.5458   74.1337 H   0  0  0  0  0  0  0  0  0  0  0  0
  130.4796  128.8941   71.7784 H   0  0  0  0  0  0  0  0  0  0  0  0
  128.9740  126.2400   70.0810 H   0  0  0  0  0  0  0  0  0  0  0  0
  129.3076  123.4044   62.3572 H   0  0  0  0  0  0  0  0  0  0  0  0
  129.9317  121.3913   61.0579 H   0  0  0  0  0  0  0  0  0  0  0  0
  130.9505  118.7002   62.1129 H   0  0  0  0  0  0  0  0  0  0  0  0
  130.5915  119.1588   60.3783 H   0  0  0  0  0  0  0  0  0  0  0  0
  132.8050  117.2931   61.3483 H   0  0  0  0  0  0  0  0  0  0  0  0
  131.3025  116.8339   60.4682 H   0  0  0  0  0  0  0  0  0  0  0  0
  134.4458  118.5645   60.2330 H   0  0  0  0  0  0  0  0  0  0  0  0
  134.1718  119.0404   58.5186 H   0  0  0  0  0  0  0  0  0  0  0  0
  133.8405  120.9412   60.1246 H   0  0  0  0  0  0  0  0  0  0  0  0
  132.3386  120.5080   59.1772 H   0  0  0  0  0  0  0  0  0  0  0  0
  133.7693  121.3069   63.0343 H   0  0  0  0  0  0  0  0  0  0  0  0
  133.1400  123.3123   64.3383 H   0  0  0  0  0  0  0  0  0  0  0  0
  130.3384  125.9374   62.4958 H   0  0  0  0  0  0  0  0  0  0  0  0
  127.7511  128.4635   64.6523 H   0  0  0  0  0  0  0  0  0  0  0  0
  127.1034  130.5374   63.4587 H   0  0  0  0  0  0  0  0  0  0  0  0
  126.7853  132.5420   62.4096 H   0  0  0  0  0  0  0  0  0  0  0  0
  128.3150  133.0170   63.2845 H   0  0  0  0  0  0  0  0  0  0  0  0
  127.2062  134.9382   62.1095 H   0  0  0  0  0  0  0  0  0  0  0  0
  128.8842  134.6052   61.5479 H   0  0  0  0  0  0  0  0  0  0  0  0
  127.7838  133.0715   58.4856 H   0  0  0  0  0  0  0  0  0  0  0  0
  129.2147  133.5391   59.4723 H   0  0  0  0  0  0  0  0  0  0  0  0
  127.1505  131.3682   60.1303 H   0  0  0  0  0  0  0  0  0  0  0  0
  128.8982  131.1462   59.6504 H   0  0  0  0  0  0  0  0  0  0  0  0
  130.8322  130.4391   61.2768 H   0  0  0  0  0  0  0  0  0  0  0  0
  131.4686  128.3549   62.4605 H   0  0  0  0  0  0  0  0  0  0  0  0
  129.4360  129.5860   65.7370 H   0  0  0  0  0  0  0  0  0  0  0  0
  128.6700  129.5570   67.2790 H   0  0  0  0  0  0  0  0  0  0  0  0
  127.1535  126.1348   71.9196 H   0  0  0  0  0  0  0  0  0  0  0  0
  126.7148  126.7889   74.2781 H   0  0  0  0  0  0  0  0  0  0  0  0
  1  2  1  0
  2  3  1  0
  3  4  1  0
  4  5  2  0
  4  6  1  0
  6  7  2  0
  7  8  1  0
  8  9  2  0
  9 10  1  0
 10 11  1  0
 11 12  2  0
 11 13  1  0
 13 14  1  0
 14 15  1  0
 15 16  2  0
 16 17  1  0
 17 18  1  0
 18 19  2  0
 19 20  1  0
 20 21  2  0
 21 22  1  0
 22 23  1  0
 23 24  1  0
 24 25  1  0
 25 26  1  0
 26 27  1  0
 21 28  1  0
 28 29  2  0
 17 30  2  0
 30 31  1  0
 31 32  1  0
 32 33  2  0
 33 34  1  0
 34 35  2  0
 35 36  1  0
 36 37  1  0
 37 38  1  0
 38 39  1  0
 39 40  1  0
 40 41  1  0
 35 42  1  0
 42 43  2  0
 31 44  2  0
 44 45  1  0
 45 46  1  0
  9 47  1  0
 47 48  2  0
 48  6  1  0
 45 13  2  0
 44 15  1  0
 29 18  1  0
 43 32  1  0
 27 22  1  0
 41 36  1  0
  1 49  1  0
  1 50  1  0
  1 51  1  0
  2 52  1  0
  2 53  1  0
  7 54  1  0
  8 55  1  0
 10 56  1  0
 19 57  1  0
 20 58  1  0
 23 59  1  0
 23 60  1  0
 24 61  1  0
 24 62  1  0
 26 63  1  0
 26 64  1  0
 27 65  1  0
 27 66  1  0
 28 67  1  0
 29 68  1  0
 30 69  1  0
 33 70  1  0
 34 71  1  0
 37 72  1  0
 37 73  1  0
 38 74  1  0
 38 75  1  0
 40 76  1  0
 40 77  1  0
 41 78  1  0
 41 79  1  0
 42 80  1  0
 43 81  1  0
 46 82  1  0
 46 83  1  0
 47 84  1  0
 48 85  1  0
M  END
>  <Binding energies>  (1) 
[-8.62]

>  <Ligand effiencies>  (1) 
[-0.16901960784313724]

>  <Interactions>  (1) 
["V-A:GLU:543:CB:4905, V-A:GLU:543:CG:4906, V-B:GLU:543:CD:9879, V-B:HIS:456:CE1:9040, V-A:ALA:541:CB:4891, V-A:HIS:456:CE1:4069, V-A:TYR:539:CD1:4872, V-A:GLU:543:CD:4907, V-A:GLY:454:CA:4048, V-A:TYR:484:CZ:4346, V-B:TYR:539:CE2:9847, V-B:TYR:539:CD2:9845, H-A:TYR:484:OH:4347, V-A:TYR:539:CE1:4874, H-A:GLU:543:OE2:4909, V-A:LEU:373:CD2:3280, V-A:ILE:369:CG2:3236, V-A:SER:385:CA:3406, V-A:TYR:484:CE2:4345, V-A:LEU:475:CD2:4258, V-A:TYR:539:C:4866, H-A:HIS:456:NE2:4070, H-B:GLU:543:O:9874, V-B:LYS:547:CE:9921, H-A:GLU:543:OE1:4908, H-A:HIS:383:ND1:3390, V-A:HIS:383:CE1:3393, H-A:LYS:547:NZ:4950, H-B:LYS:547:NZ:9922, V-A:HIS:456:CD2:4067, V-A:VAL:384:C:3396, V-B:HIS:456:CG:9036, V-B:HIS:456:CD2:9038, V-B:HIS:456:CB:9035, V-B:LYS:547:CD:9920, V-B:VAL:458:CG2:9057"]

$$$$
9b_Ghoteimi_2023
     RDKit          3D

 72 78  0  0  0  0  0  0  0  0999 V2000
  130.1250  125.9040   67.5900 N   0  0  0  0  0  0  0  0  0  0  0  0
  129.4630  127.0920   67.7730 C   0  0  0  0  0  0  0  0  0  0  0  0
  128.9850  127.5270   69.0180 C   0  0  0  0  0  0  0  0  0  0  0  0
  129.0980  126.8680   70.3220 C   0  0  0  0  0  0  0  0  0  0  0  0
  128.9420  125.6490   70.4260 O   0  0  0  0  0  0  0  0  0  0  0  0
  129.3730  127.6870   71.3670 N   0  0  0  0  0  0  0  0  0  0  0  0
  129.5220  127.3350   72.7030 C   0  0  0  0  0  0  0  0  0  0  0  0
  130.3360  128.0390   73.5890 C   0  0  0  0  0  0  0  0  0  0  0  0
  130.2070  127.3830   74.7910 C   0  0  0  0  0  0  0  0  0  0  0  0
  129.3590  126.3380   74.6360 O   0  0  0  0  0  0  0  0  0  0  0  0
  128.9320  126.3180   73.3080 N   0  0  0  0  0  0  0  0  0  0  0  0
  128.1590  129.0780   68.8770 S   0  0  0  0  0  0  0  0  0  0  0  0
  128.4430  129.1250   67.1540 C   0  0  0  0  0  0  0  0  0  0  0  0
  127.9970  130.1270   66.3990 N   0  0  0  0  0  0  0  0  0  0  0  0
  128.2560  130.0590   65.0670 C   0  0  0  0  0  0  0  0  0  0  0  0
  127.7260  131.1850   64.2400 C   0  0  0  0  0  0  0  0  0  0  0  0
  126.3580  131.4830   64.2150 C   0  0  0  0  0  0  0  0  0  0  0  0
  125.8680  132.5240   63.4320 C   0  0  0  0  0  0  0  0  0  0  0  0
  126.7260  133.2960   62.6330 C   0  0  0  0  0  0  0  0  0  0  0  0
  126.2480  134.3480   61.8430 N   0  0  0  0  0  0  0  0  0  0  0  0
  125.3410  134.1040   60.7040 C   0  0  0  0  0  0  0  0  0  0  0  0
  124.6500  135.3770   60.1740 C   0  0  0  0  0  0  0  0  0  0  0  0
  125.6220  136.3550   59.8460 O   0  0  0  0  0  0  0  0  0  0  0  0
  126.3910  136.7240   60.9790 C   0  0  0  0  0  0  0  0  0  0  0  0
  127.1340  135.4920   61.5400 C   0  0  0  0  0  0  0  0  0  0  0  0
  128.0970  133.0060   62.6780 C   0  0  0  0  0  0  0  0  0  0  0  0
  128.5880  131.9670   63.4640 C   0  0  0  0  0  0  0  0  0  0  0  0
  128.9810  129.0070   64.5000 C   0  0  0  0  0  0  0  0  0  0  0  0
  129.4700  127.9620   65.2930 C   0  0  0  0  0  0  0  0  0  0  0  0
  130.2600  126.8840   64.6460 C   0  0  0  0  0  0  0  0  0  0  0  0
  131.5650  126.6200   65.0640 C   0  0  0  0  0  0  0  0  0  0  0  0
  132.3020  125.5980   64.4740 C   0  0  0  0  0  0  0  0  0  0  0  0
  131.7530  124.8110   63.4490 C   0  0  0  0  0  0  0  0  0  0  0  0
  132.4700  123.7700   62.8530 N   0  0  0  0  0  0  0  0  0  0  0  0
  132.6510  122.5040   63.5900 C   0  0  0  0  0  0  0  0  0  0  0  0
  133.7700  121.6150   63.0060 C   0  0  0  0  0  0  0  0  0  0  0  0
  133.5230  121.3650   61.6310 O   0  0  0  0  0  0  0  0  0  0  0  0
  133.4780  122.5670   60.8770 C   0  0  0  0  0  0  0  0  0  0  0  0
  132.3550  123.4830   61.4090 C   0  0  0  0  0  0  0  0  0  0  0  0
  130.4340  125.0740   63.0500 C   0  0  0  0  0  0  0  0  0  0  0  0
  129.6980  126.0970   63.6410 C   0  0  0  0  0  0  0  0  0  0  0  0
  129.1800  127.9960   66.6860 C   0  0  0  0  0  0  0  0  0  0  0  0
  131.0130  125.7150   68.0340 H   0  0  0  0  0  0  0  0  0  0  0  0
  129.7450  125.1740   67.0030 H   0  0  0  0  0  0  0  0  0  0  0  0
  129.4890  128.6680   71.1620 H   0  0  0  0  0  0  0  0  0  0  0  0
  130.9487  128.9268   73.3735 H   0  0  0  0  0  0  0  0  0  0  0  0
  130.7115  127.6621   75.7278 H   0  0  0  0  0  0  0  0  0  0  0  0
  125.6614  130.8864   64.8223 H   0  0  0  0  0  0  0  0  0  0  0  0
  124.7906  132.7455   63.4393 H   0  0  0  0  0  0  0  0  0  0  0  0
  125.9252  133.6599   59.8846 H   0  0  0  0  0  0  0  0  0  0  0  0
  124.5461  133.4351   61.0654 H   0  0  0  0  0  0  0  0  0  0  0  0
  124.0665  135.1276   59.2755 H   0  0  0  0  0  0  0  0  0  0  0  0
  123.9835  135.7769   60.9524 H   0  0  0  0  0  0  0  0  0  0  0  0
  127.1248  137.4896   60.6870 H   0  0  0  0  0  0  0  0  0  0  0  0
  125.7209  137.1242   61.7542 H   0  0  0  0  0  0  0  0  0  0  0  0
  127.8777  135.1675   60.7972 H   0  0  0  0  0  0  0  0  0  0  0  0
  127.5948  135.8008   62.4899 H   0  0  0  0  0  0  0  0  0  0  0  0
  128.7969  133.6099   62.0819 H   0  0  0  0  0  0  0  0  0  0  0  0
  129.6680  131.7583   63.4749 H   0  0  0  0  0  0  0  0  0  0  0  0
  129.1698  129.0001   63.4164 H   0  0  0  0  0  0  0  0  0  0  0  0
  132.0143  127.2243   65.8658 H   0  0  0  0  0  0  0  0  0  0  0  0
  133.3295  125.4038   64.8154 H   0  0  0  0  0  0  0  0  0  0  0  0
  132.9016  122.7404   64.6347 H   0  0  0  0  0  0  0  0  0  0  0  0
  131.7097  121.9407   63.5082 H   0  0  0  0  0  0  0  0  0  0  0  0
  134.7370  122.1278   63.1151 H   0  0  0  0  0  0  0  0  0  0  0  0
  133.7918  120.6585   63.5488 H   0  0  0  0  0  0  0  0  0  0  0  0
  134.4435  123.0871   60.9628 H   0  0  0  0  0  0  0  0  0  0  0  0
  133.2769  122.3245   59.8231 H   0  0  0  0  0  0  0  0  0  0  0  0
  132.3917  124.4354   60.8598 H   0  0  0  0  0  0  0  0  0  0  0  0
  131.4031  122.9532   61.2570 H   0  0  0  0  0  0  0  0  0  0  0  0
  129.9749  124.4631   62.2588 H   0  0  0  0  0  0  0  0  0  0  0  0
  128.6653  126.2862   63.3129 H   0  0  0  0  0  0  0  0  0  0  0  0
  1  2  1  0
  2  3  2  0
  3  4  1  0
  4  5  2  0
  4  6  1  0
  6  7  1  0
  7  8  1  0
  8  9  2  0
  9 10  1  0
 10 11  1  0
  3 12  1  0
 12 13  1  0
 13 14  2  0
 14 15  1  0
 15 16  1  0
 16 17  2  0
 17 18  1  0
 18 19  2  0
 19 20  1  0
 20 21  1  0
 21 22  1  0
 22 23  1  0
 23 24  1  0
 24 25  1  0
 19 26  1  0
 26 27  2  0
 15 28  2  0
 28 29  1  0
 29 30  1  0
 30 31  2  0
 31 32  1  0
 32 33  2  0
 33 34  1  0
 34 35  1  0
 35 36  1  0
 36 37  1  0
 37 38  1  0
 38 39  1  0
 33 40  1  0
 40 41  2  0
 29 42  2  0
 42  2  1  0
 11  7  2  0
 42 13  1  0
 27 16  1  0
 41 30  1  0
 25 20  1  0
 39 34  1  0
  1 43  1  0
  1 44  1  0
  6 45  1  0
  8 46  1  0
  9 47  1  0
 17 48  1  0
 18 49  1  0
 21 50  1  0
 21 51  1  0
 22 52  1  0
 22 53  1  0
 24 54  1  0
 24 55  1  0
 25 56  1  0
 25 57  1  0
 26 58  1  0
 27 59  1  0
 28 60  1  0
 31 61  1  0
 32 62  1  0
 35 63  1  0
 35 64  1  0
 36 65  1  0
 36 66  1  0
 38 67  1  0
 38 68  1  0
 39 69  1  0
 39 70  1  0
 40 71  1  0
 41 72  1  0
M  END
>  <Binding energies>  (1) 
[-8.29]

>  <Ligand effiencies>  (1) 
[-0.1842222222222222]

>  <Interactions>  (1) 
["V-A:GLU:543:CB:4905, V-A:GLU:543:CG:4906, V-B:GLU:543:CD:9879, V-B:HIS:456:CE1:9040, V-B:SER:385:CB:8379, H-B:SER:385:OG:8380, V-A:ALA:541:CB:4891, V-A:HIS:456:CE1:4069, V-A:TYR:539:CD1:4872, V-A:GLU:543:CD:4907, V-A:GLY:454:CA:4048, V-B:LEU:475:CD1:9228, H-B:TYR:484:OH:9318, V-B:ILE:369:CG2:8207, V-B:TYR:484:CE2:9316, V-A:ARG:545:CZ:4925, H-A:TYR:484:OH:4347, V-A:TYR:539:CE1:4874, V-A:ILE:369:CG2:3236, V-A:TYR:484:CE2:4345, V-A:LEU:475:CD2:4258, V-B:SER:385:CA:8377, H-B:GLU:543:OE2:9881, V-A:ILE:369:CD1:3238, V-A:SER:385:C:3404, H-A:HIS:456:NE2:4070, H-B:LYS:547:NZ:9922, V-A:TYR:539:CB:4870, H-A:GLU:543:O:4902, H-B:HIS:456:NE2:9041, H-B:HIS:383:NE2:8364"]

$$$$
9c_Ghoteimi_2023
     RDKit          3D

 72 78  0  0  0  0  0  0  0  0999 V2000
  131.3180  125.7130   61.5650 N   0  0  0  0  0  0  0  0  0  0  0  0
  131.4000  125.1370   62.8080 C   0  0  0  0  0  0  0  0  0  0  0  0
  131.9040  123.8460   63.0300 C   0  0  0  0  0  0  0  0  0  0  0  0
  132.4390  122.8930   62.0520 C   0  0  0  0  0  0  0  0  0  0  0  0
  133.1790  123.2720   61.1420 O   0  0  0  0  0  0  0  0  0  0  0  0
  132.0560  121.6040   62.2270 N   0  0  0  0  0  0  0  0  0  0  0  0
  132.4050  120.5160   61.4390 C   0  0  0  0  0  0  0  0  0  0  0  0
  133.5150  120.3350   60.7560 N   0  0  0  0  0  0  0  0  0  0  0  0
  133.5060  119.1830   60.1140 C   0  0  0  0  0  0  0  0  0  0  0  0
  132.3660  118.4000   60.2700 C   0  0  0  0  0  0  0  0  0  0  0  0
  131.2510  119.2260   61.3170 S   0  0  0  0  0  0  0  0  0  0  0  0
  131.8340  123.4190   64.7390 S   0  0  0  0  0  0  0  0  0  0  0  0
  131.1160  124.9610   65.1410 C   0  0  0  0  0  0  0  0  0  0  0  0
  130.7720  125.2660   66.3920 N   0  0  0  0  0  0  0  0  0  0  0  0
  130.2050  126.4830   66.5950 C   0  0  0  0  0  0  0  0  0  0  0  0
  129.8090  126.7910   68.0030 C   0  0  0  0  0  0  0  0  0  0  0  0
  129.9480  128.0810   68.5300 C   0  0  0  0  0  0  0  0  0  0  0  0
  129.5860  128.3600   69.8440 C   0  0  0  0  0  0  0  0  0  0  0  0
  129.0840  127.3550   70.6860 C   0  0  0  0  0  0  0  0  0  0  0  0
  128.7090  127.6210   72.0080 N   0  0  0  0  0  0  0  0  0  0  0  0
  129.7070  128.0020   73.0280 C   0  0  0  0  0  0  0  0  0  0  0  0
  129.0910  128.5910   74.3140 C   0  0  0  0  0  0  0  0  0  0  0  0
  128.1370  127.6890   74.8510 O   0  0  0  0  0  0  0  0  0  0  0  0
  127.0790  127.4470   73.9370 C   0  0  0  0  0  0  0  0  0  0  0  0
  127.6330  126.8270   72.6360 C   0  0  0  0  0  0  0  0  0  0  0  0
  128.9290  126.0690   70.1470 C   0  0  0  0  0  0  0  0  0  0  0  0
  129.2870  125.7920   68.8310 C   0  0  0  0  0  0  0  0  0  0  0  0
  130.0110  127.3990   65.5580 C   0  0  0  0  0  0  0  0  0  0  0  0
  130.3910  127.0920   64.2470 C   0  0  0  0  0  0  0  0  0  0  0  0
  130.1930  128.1100   63.1860 C   0  0  0  0  0  0  0  0  0  0  0  0
  128.9510  128.7260   63.0240 C   0  0  0  0  0  0  0  0  0  0  0  0
  128.7650  129.6940   62.0410 C   0  0  0  0  0  0  0  0  0  0  0  0
  129.8180  130.0710   61.1920 C   0  0  0  0  0  0  0  0  0  0  0  0
  129.6580  131.0490   60.2060 N   0  0  0  0  0  0  0  0  0  0  0  0
  128.7980  132.2170   60.4830 C   0  0  0  0  0  0  0  0  0  0  0  0
  128.3980  132.9950   59.2100 C   0  0  0  0  0  0  0  0  0  0  0  0
  129.5610  133.3850   58.4950 O   0  0  0  0  0  0  0  0  0  0  0  0
  130.3350  132.2640   58.1000 C   0  0  0  0  0  0  0  0  0  0  0  0
  130.7810  131.4630   59.3430 C   0  0  0  0  0  0  0  0  0  0  0  0
  131.0670  129.4610   61.3790 C   0  0  0  0  0  0  0  0  0  0  0  0
  131.2530  128.4930   62.3620 C   0  0  0  0  0  0  0  0  0  0  0  0
  130.9550  125.8070   64.0040 C   0  0  0  0  0  0  0  0  0  0  0  0
  131.9440  126.4520   61.2780 H   0  0  0  0  0  0  0  0  0  0  0  0
  130.6250  125.4170   60.8930 H   0  0  0  0  0  0  0  0  0  0  0  0
  131.4530  121.4020   63.0110 H   0  0  0  0  0  0  0  0  0  0  0  0
  134.3521  118.8591   59.4902 H   0  0  0  0  0  0  0  0  0  0  0  0
  132.1977  117.4171   59.8057 H   0  0  0  0  0  0  0  0  0  0  0  0
  130.3492  128.8853   67.8958 H   0  0  0  0  0  0  0  0  0  0  0  0
  129.6949  129.3845   70.2294 H   0  0  0  0  0  0  0  0  0  0  0  0
  130.2847  127.1061   73.2993 H   0  0  0  0  0  0  0  0  0  0  0  0
  130.3338  128.7894   72.5839 H   0  0  0  0  0  0  0  0  0  0  0  0
  129.8868  128.7629   75.0537 H   0  0  0  0  0  0  0  0  0  0  0  0
  128.5938  129.5424   74.0738 H   0  0  0  0  0  0  0  0  0  0  0  0
  126.3568  126.7531   74.3919 H   0  0  0  0  0  0  0  0  0  0  0  0
  126.5837  128.4000   73.6992 H   0  0  0  0  0  0  0  0  0  0  0  0
  128.0303  125.8282   72.8696 H   0  0  0  0  0  0  0  0  0  0  0  0
  126.8003  126.7917   71.9181 H   0  0  0  0  0  0  0  0  0  0  0  0
  128.5173  125.2656   70.7756 H   0  0  0  0  0  0  0  0  0  0  0  0
  129.1576  124.7733   68.4366 H   0  0  0  0  0  0  0  0  0  0  0  0
  129.5531  128.3752   65.7754 H   0  0  0  0  0  0  0  0  0  0  0  0
  128.1127  128.4444   63.6781 H   0  0  0  0  0  0  0  0  0  0  0  0
  127.7798  130.1700   61.9278 H   0  0  0  0  0  0  0  0  0  0  0  0
  127.8818  131.8662   60.9804 H   0  0  0  0  0  0  0  0  0  0  0  0
  129.3760  132.9047   61.1178 H   0  0  0  0  0  0  0  0  0  0  0  0
  127.7754  132.3521   58.5704 H   0  0  0  0  0  0  0  0  0  0  0  0
  127.8324  133.8934   59.4981 H   0  0  0  0  0  0  0  0  0  0  0  0
  129.7310  131.6165   57.4473 H   0  0  0  0  0  0  0  0  0  0  0  0
  131.2261  132.6143   57.5584 H   0  0  0  0  0  0  0  0  0  0  0  0
  131.3120  130.5610   59.0047 H   0  0  0  0  0  0  0  0  0  0  0  0
  131.4249  132.1238   59.9419 H   0  0  0  0  0  0  0  0  0  0  0  0
  131.9129  129.7520   60.7389 H   0  0  0  0  0  0  0  0  0  0  0  0
  132.2411  128.0270   62.4903 H   0  0  0  0  0  0  0  0  0  0  0  0
  1  2  1  0
  2  3  2  0
  3  4  1  0
  4  5  2  0
  4  6  1  0
  6  7  1  0
  7  8  2  0
  8  9  1  0
  9 10  2  0
 10 11  1  0
  3 12  1  0
 12 13  1  0
 13 14  2  0
 14 15  1  0
 15 16  1  0
 16 17  2  0
 17 18  1  0
 18 19  2  0
 19 20  1  0
 20 21  1  0
 21 22  1  0
 22 23  1  0
 23 24  1  0
 24 25  1  0
 19 26  1  0
 26 27  2  0
 15 28  2  0
 28 29  1  0
 29 30  1  0
 30 31  2  0
 31 32  1  0
 32 33  2  0
 33 34  1  0
 34 35  1  0
 35 36  1  0
 36 37  1  0
 37 38  1  0
 38 39  1  0
 33 40  1  0
 40 41  2  0
 29 42  2  0
 42  2  1  0
 11  7  1  0
 42 13  1  0
 27 16  1  0
 41 30  1  0
 25 20  1  0
 39 34  1  0
  1 43  1  0
  1 44  1  0
  6 45  1  0
  9 46  1  0
 10 47  1  0
 17 48  1  0
 18 49  1  0
 21 50  1  0
 21 51  1  0
 22 52  1  0
 22 53  1  0
 24 54  1  0
 24 55  1  0
 25 56  1  0
 25 57  1  0
 26 58  1  0
 27 59  1  0
 28 60  1  0
 31 61  1  0
 32 62  1  0
 35 63  1  0
 35 64  1  0
 36 65  1  0
 36 66  1  0
 38 67  1  0
 38 68  1  0
 39 69  1  0
 39 70  1  0
 40 71  1  0
 41 72  1  0
M  END
>  <Binding energies>  (1) 
[-8.34]

>  <Ligand effiencies>  (1) 
[-0.18533333333333332]

>  <Interactions>  (1) 
["V-A:GLU:543:CB:4905, V-B:GLU:543:CB:9877, V-B:GLU:543:CD:9879, V-B:HIS:456:CE1:9040, V-A:HIS:456:CE1:4069, V-A:TYR:539:CD1:4872, V-A:GLU:543:CD:4907, V-A:TYR:484:CZ:4346, H-A:ASP:366:OD1:3213, V-A:ASP:366:CG:3212, V-B:TYR:539:CD2:9845, H-A:TYR:484:OH:4347, V-A:TYR:539:CE1:4874, V-A:SER:385:CB:3408, V-A:ILE:369:CG2:3236, V-A:SER:385:CA:3406, V-A:TYR:484:CE2:4345, V-A:LEU:475:CD2:4258, H-A:ASP:366:OD2:3214, V-A:TYR:539:C:4866, V-B:LYS:547:CE:9921, H-B:LYS:547:NZ:9922, V-A:VAL:384:C:3396, V-B:HIS:456:CG:9036, V-B:HIS:456:CD2:9038"]

$$$$
9d_Ghoteimi_2023
     RDKit          3D

 68 73  0  0  0  0  0  0  0  0999 V2000
  123.0160  130.7600   60.2580 C   0  0  0  0  0  0  0  0  0  0  0  0
  123.5010  131.1500   61.5350 O   0  0  0  0  0  0  0  0  0  0  0  0
  123.1000  130.5020   62.6600 C   0  0  0  0  0  0  0  0  0  0  0  0
  121.9240  130.2370   62.9210 O   0  0  0  0  0  0  0  0  0  0  0  0
  124.2260  130.1470   63.5520 C   0  0  0  0  0  0  0  0  0  0  0  0
  123.9050  129.6380   65.2100 S   0  0  0  0  0  0  0  0  0  0  0  0
  125.6100  129.4040   65.5100 C   0  0  0  0  0  0  0  0  0  0  0  0
  126.0570  128.9540   66.6820 N   0  0  0  0  0  0  0  0  0  0  0  0
  127.4000  128.7900   66.8080 C   0  0  0  0  0  0  0  0  0  0  0  0
  127.8760  128.2590   68.1230 C   0  0  0  0  0  0  0  0  0  0  0  0
  127.0960  127.3530   68.8480 C   0  0  0  0  0  0  0  0  0  0  0  0
  127.5290  126.8550   70.0730 C   0  0  0  0  0  0  0  0  0  0  0  0
  128.7670  127.2370   70.6140 C   0  0  0  0  0  0  0  0  0  0  0  0
  129.2080  126.7590   71.8530 N   0  0  0  0  0  0  0  0  0  0  0  0
  129.5420  127.6800   72.9580 C   0  0  0  0  0  0  0  0  0  0  0  0
  130.3290  127.0180   74.1070 C   0  0  0  0  0  0  0  0  0  0  0  0
  129.6270  125.8830   74.5860 O   0  0  0  0  0  0  0  0  0  0  0  0
  129.4520  124.9120   73.5670 C   0  0  0  0  0  0  0  0  0  0  0  0
  128.6380  125.5090   72.3990 C   0  0  0  0  0  0  0  0  0  0  0  0
  129.5390  128.1580   69.8910 C   0  0  0  0  0  0  0  0  0  0  0  0
  129.1040  128.6570   68.6660 C   0  0  0  0  0  0  0  0  0  0  0  0
  128.2910  129.1060   65.7790 C   0  0  0  0  0  0  0  0  0  0  0  0
  127.8280  129.5980   64.5540 C   0  0  0  0  0  0  0  0  0  0  0  0
  128.8200  129.9450   63.5020 C   0  0  0  0  0  0  0  0  0  0  0  0
  129.5030  128.9450   62.8080 C   0  0  0  0  0  0  0  0  0  0  0  0
  130.4180  129.2750   61.8110 C   0  0  0  0  0  0  0  0  0  0  0  0
  130.6610  130.6150   61.4720 C   0  0  0  0  0  0  0  0  0  0  0  0
  131.5800  130.9730   60.4830 N   0  0  0  0  0  0  0  0  0  0  0  0
  133.0190  130.7590   60.7300 C   0  0  0  0  0  0  0  0  0  0  0  0
  133.8740  130.8220   59.4460 C   0  0  0  0  0  0  0  0  0  0  0  0
  133.6520  132.0530   58.7730 O   0  0  0  0  0  0  0  0  0  0  0  0
  132.2890  132.2110   58.4040 C   0  0  0  0  0  0  0  0  0  0  0  0
  131.3980  132.1870   59.6640 C   0  0  0  0  0  0  0  0  0  0  0  0
  129.9700  131.6120   62.1770 C   0  0  0  0  0  0  0  0  0  0  0  0
  129.0570  131.2810   63.1740 C   0  0  0  0  0  0  0  0  0  0  0  0
  126.4220  129.7380   64.3850 C   0  0  0  0  0  0  0  0  0  0  0  0
  125.5980  130.1410   63.2750 C   0  0  0  0  0  0  0  0  0  0  0  0
  126.1120  130.4680   62.0470 N   0  0  0  0  0  0  0  0  0  0  0  0
  122.1643  130.0751   60.3827 H   0  0  0  0  0  0  0  0  0  0  0  0
  122.6912  131.6514   59.7012 H   0  0  0  0  0  0  0  0  0  0  0  0
  123.8169  130.2515   59.7012 H   0  0  0  0  0  0  0  0  0  0  0  0
  126.1255  127.0291   68.4439 H   0  0  0  0  0  0  0  0  0  0  0  0
  126.8909  126.1505   70.6266 H   0  0  0  0  0  0  0  0  0  0  0  0
  130.1486  128.5028   72.5517 H   0  0  0  0  0  0  0  0  0  0  0  0
  128.5888  128.0279   73.3828 H   0  0  0  0  0  0  0  0  0  0  0  0
  131.3175  126.7061   73.7388 H   0  0  0  0  0  0  0  0  0  0  0  0
  130.4471  127.7416   74.9270 H   0  0  0  0  0  0  0  0  0  0  0  0
  130.4371  124.5911   73.1973 H   0  0  0  0  0  0  0  0  0  0  0  0
  128.9084  124.0499   73.9809 H   0  0  0  0  0  0  0  0  0  0  0  0
  128.5951  124.7649   71.5900 H   0  0  0  0  0  0  0  0  0  0  0  0
  127.6424  125.7570   72.7957 H   0  0  0  0  0  0  0  0  0  0  0  0
  130.5046  128.4918   70.2986 H   0  0  0  0  0  0  0  0  0  0  0  0
  129.7333  129.3733   68.1175 H   0  0  0  0  0  0  0  0  0  0  0  0
  129.3710  128.9660   65.9343 H   0  0  0  0  0  0  0  0  0  0  0  0
  129.3173  127.8882   63.0503 H   0  0  0  0  0  0  0  0  0  0  0  0
  130.9571  128.4750   61.2825 H   0  0  0  0  0  0  0  0  0  0  0  0
  133.3735  131.5352   61.4242 H   0  0  0  0  0  0  0  0  0  0  0  0
  133.1315  129.7475   61.1475 H   0  0  0  0  0  0  0  0  0  0  0  0
  134.9380  130.7396   59.7127 H   0  0  0  0  0  0  0  0  0  0  0  0
  133.5897  129.9920   58.7825 H   0  0  0  0  0  0  0  0  0  0  0  0
  132.1607  133.1722   57.8847 H   0  0  0  0  0  0  0  0  0  0  0  0
  131.9962  131.3865   57.7374 H   0  0  0  0  0  0  0  0  0  0  0  0
  131.6417  133.0645   60.2810 H   0  0  0  0  0  0  0  0  0  0  0  0
  130.3518  132.1977   59.3242 H   0  0  0  0  0  0  0  0  0  0  0  0
  130.1524  132.6702   61.9384 H   0  0  0  0  0  0  0  0  0  0  0  0
  128.5182  132.0780   63.7074 H   0  0  0  0  0  0  0  0  0  0  0  0
  125.6090  131.0570   61.3990 H   0  0  0  0  0  0  0  0  0  0  0  0
  127.0180  130.1340   61.7480 H   0  0  0  0  0  0  0  0  0  0  0  0
  1  2  1  0
  2  3  1  0
  3  4  2  0
  3  5  1  0
  5  6  1  0
  6  7  1  0
  7  8  2  0
  8  9  1  0
  9 10  1  0
 10 11  2  0
 11 12  1  0
 12 13  2  0
 13 14  1  0
 14 15  1  0
 15 16  1  0
 16 17  1  0
 17 18  1  0
 18 19  1  0
 13 20  1  0
 20 21  2  0
  9 22  2  0
 22 23  1  0
 23 24  1  0
 24 25  2  0
 25 26  1  0
 26 27  2  0
 27 28  1  0
 28 29  1  0
 29 30  1  0
 30 31  1  0
 31 32  1  0
 32 33  1  0
 27 34  1  0
 34 35  2  0
 23 36  2  0
 36 37  1  0
 37 38  1  0
 37  5  2  0
 36  7  1  0
 21 10  1  0
 35 24  1  0
 19 14  1  0
 33 28  1  0
  1 39  1  0
  1 40  1  0
  1 41  1  0
 11 42  1  0
 12 43  1  0
 15 44  1  0
 15 45  1  0
 16 46  1  0
 16 47  1  0
 18 48  1  0
 18 49  1  0
 19 50  1  0
 19 51  1  0
 20 52  1  0
 21 53  1  0
 22 54  1  0
 25 55  1  0
 26 56  1  0
 29 57  1  0
 29 58  1  0
 30 59  1  0
 30 60  1  0
 32 61  1  0
 32 62  1  0
 33 63  1  0
 33 64  1  0
 34 65  1  0
 35 66  1  0
 38 67  1  0
 38 68  1  0
M  END
>  <Binding energies>  (1) 
[-8.2]

>  <Ligand effiencies>  (1) 
[-0.205]

>  <Interactions>  (1) 
["V-A:GLU:543:CB:4905, V-B:GLU:543:CB:9877, V-A:GLU:543:CG:4906, V-B:GLU:543:CD:9879, V-B:HIS:456:CE1:9040, V-A:HIS:456:CE1:4069, V-A:GLU:543:CD:4907, V-B:ARG:545:CZ:9897, H-B:TYR:484:OH:9318, H-B:GLY:454:N:9020, V-B:ILE:369:CG2:8207, V-B:ASP:366:CG:8183, V-B:ILE:369:CG1:8208, V-A:ASP:366:CG:3212, V-B:GLU:543:C:9873, H-B:ARG:545:NH1:9898, V-A:ASN:362:C:3171, V-A:PRO:540:CB:4884, V-A:PRO:540:CA:4882, V-B:ASP:366:CB:8182, V-B:GLY:453:CA:9014, V-A:LEU:363:CA:3184, V-B:ILE:369:CB:8206, V-A:ASP:366:CB:3211, V-B:ASP:366:CA:8180, H-B:LYS:547:NZ:9922, V-A:HIS:456:CD2:4067, H-A:LEU:363:N:3185"]

$$$$
RR10_Rahimova_2017
     RDKit          3D

 66 70  0  0  0  0  0  0  0  0999 V2000
  124.7650  119.9740   72.6560 C   0  0  0  0  0  0  0  0  0  0  0  0
  126.0610  120.2240   73.4470 C   0  0  1  0  0  0  0  0  0  0  0  0
  127.2470  120.5700   72.5170 C   0  0  0  0  0  0  0  0  0  0  0  0
  128.5440  120.7830   73.3290 C   0  0  0  0  0  0  0  0  0  0  0  0
  128.3910  121.9000   74.3930 C   0  0  1  0  0  0  0  0  0  0  0  0
  128.2470  123.2140   73.7520 N   0  0  0  0  0  0  0  0  0  0  0  0
  128.9200  124.3270   74.0940 C   0  0  0  0  0  0  0  0  0  0  0  0
  129.7650  124.3520   74.9920 O   0  0  0  0  0  0  0  0  0  0  0  0
  128.5790  125.6130   73.3120 C   0  0  1  0  0  0  0  0  0  0  0  0
  129.1630  126.8400   74.0600 C   0  0  0  0  0  0  0  0  0  0  0  0
  128.9030  128.1220   73.2320 C   0  0  0  0  0  0  0  0  0  0  0  0
  129.3850  127.9890   71.7690 C   0  0  0  0  0  0  0  0  0  0  0  0
  128.8350  126.7560   71.1440 N   0  0  0  0  0  0  0  0  0  0  0  0
  129.0730  126.6530   69.3910 S   0  0  0  0  0  0  0  0  0  0  0  0
  129.0120  125.2380   69.0040 O   0  0  0  0  0  0  0  0  0  0  0  0
  130.2480  127.4630   69.0470 O   0  0  0  0  0  0  0  0  0  0  0  0
  127.6300  127.4440   68.6780 C   0  0  0  0  0  0  0  0  0  0  0  0
  126.4100  127.3860   69.3600 C   0  0  0  0  0  0  0  0  0  0  0  0
  125.2490  127.9800   68.8570 C   0  0  0  0  0  0  0  0  0  0  0  0
  125.3660  128.6420   67.6320 C   0  0  0  0  0  0  0  0  0  0  0  0
  124.4830  129.3240   66.8300 N   0  0  0  0  0  0  0  0  0  0  0  0
  125.1730  129.7690   65.7210 C   0  0  0  0  0  0  0  0  0  0  0  0
  124.5390  130.5510   64.6070 C   0  0  0  0  0  0  0  0  0  0  0  0
  123.6140  129.9420   63.7480 C   0  0  0  0  0  0  0  0  0  0  0  0
  123.0230  130.6670   62.7170 C   0  0  0  0  0  0  0  0  0  0  0  0
  123.3550  132.0070   62.5380 C   0  0  0  0  0  0  0  0  0  0  0  0
  124.2710  132.6280   63.3820 C   0  0  0  0  0  0  0  0  0  0  0  0
  124.8610  131.9010   64.4130 C   0  0  0  0  0  0  0  0  0  0  0  0
  126.4410  129.4240   65.7580 N   0  0  0  0  0  0  0  0  0  0  0  0
  126.5910  128.7230   66.9260 C   0  0  0  0  0  0  0  0  0  0  0  0
  127.7400  128.1200   67.4570 C   0  0  0  0  0  0  0  0  0  0  0  0
  129.1730  125.5150   71.8850 C   0  0  0  0  0  0  0  0  0  0  0  0
  127.1870  121.5490   75.3080 C   0  0  0  0  0  0  0  0  0  0  0  0
  125.8860  121.3430   74.5010 C   0  0  0  0  0  0  0  0  0  0  0  0
  123.9327  119.8135   73.3571 H   0  0  0  0  0  0  0  0  0  0  0  0
  124.5478  120.8468   72.0227 H   0  0  0  0  0  0  0  0  0  0  0  0
  124.8880  119.0830   72.0227 H   0  0  0  0  0  0  0  0  0  0  0  0
  126.2872  119.2821   73.9683 H   0  0  0  0  0  0  0  0  0  0  0  0
  127.3993  119.7445   71.8061 H   0  0  0  0  0  0  0  0  0  0  0  0
  127.0120  121.5017   71.9815 H   0  0  0  0  0  0  0  0  0  0  0  0
  128.8024  119.8423   73.8373 H   0  0  0  0  0  0  0  0  0  0  0  0
  129.3349  121.0894   72.6285 H   0  0  0  0  0  0  0  0  0  0  0  0
  129.2958  121.9610   75.0157 H   0  0  0  0  0  0  0  0  0  0  0  0
  127.4970  123.2970   73.0800 H   0  0  0  0  0  0  0  0  0  0  0  0
  127.4879  125.7304   73.2368 H   0  0  0  0  0  0  0  0  0  0  0  0
  128.6790  126.9343   75.0433 H   0  0  0  0  0  0  0  0  0  0  0  0
  130.2462  126.7049   74.1955 H   0  0  0  0  0  0  0  0  0  0  0  0
  127.8224  128.3278   73.2302 H   0  0  0  0  0  0  0  0  0  0  0  0
  129.4697  128.9417   73.6977 H   0  0  0  0  0  0  0  0  0  0  0  0
  129.0473  128.8655   71.1965 H   0  0  0  0  0  0  0  0  0  0  0  0
  130.4833  127.9289   71.7627 H   0  0  0  0  0  0  0  0  0  0  0  0
  126.3628  126.8561   70.3228 H   0  0  0  0  0  0  0  0  0  0  0  0
  124.2924  127.9290   69.3977 H   0  0  0  0  0  0  0  0  0  0  0  0
  123.4980  129.4940   66.9760 H   0  0  0  0  0  0  0  0  0  0  0  0
  123.3530  128.8828   63.8896 H   0  0  0  0  0  0  0  0  0  0  0  0
  122.2971  130.1833   62.0469 H   0  0  0  0  0  0  0  0  0  0  0  0
  122.8894  132.5799   61.7225 H   0  0  0  0  0  0  0  0  0  0  0  0
  124.5276  133.6876   63.2355 H   0  0  0  0  0  0  0  0  0  0  0  0
  125.5856  132.3904   65.0804 H   0  0  0  0  0  0  0  0  0  0  0  0
  128.7028  128.1766   66.9280 H   0  0  0  0  0  0  0  0  0  0  0  0
  128.7457  124.6450   71.3649 H   0  0  0  0  0  0  0  0  0  0  0  0
  130.2652  125.3966   71.9404 H   0  0  0  0  0  0  0  0  0  0  0  0
  127.4155  120.6227   75.8555 H   0  0  0  0  0  0  0  0  0  0  0  0
  127.0285  122.3909   75.9980 H   0  0  0  0  0  0  0  0  0  0  0  0
  125.0750  121.0649   75.1902 H   0  0  0  0  0  0  0  0  0  0  0  0
  125.6433  122.2811   73.9804 H   0  0  0  0  0  0  0  0  0  0  0  0
  1  2  1  0
  2  3  1  0
  3  4  1  0
  4  5  1  0
  5  6  1  0
  6  7  1  0
  7  8  2  0
  7  9  1  0
  9 10  1  0
 10 11  1  0
 11 12  1  0
 12 13  1  0
 13 14  1  0
 14 15  2  0
 14 16  2  0
 14 17  1  0
 17 18  2  0
 18 19  1  0
 19 20  2  0
 20 21  1  0
 21 22  1  0
 22 23  1  0
 23 24  2  0
 24 25  1  0
 25 26  2  0
 26 27  1  0
 27 28  2  0
 22 29  2  0
 29 30  1  0
 30 31  2  0
 13 32  1  0
  5 33  1  0
 33 34  1  0
 34  2  1  0
 32  9  1  0
 31 17  1  0
 30 20  1  0
 28 23  1  0
  1 35  1  0
  1 36  1  0
  1 37  1  0
  2 38  1  1
  3 39  1  0
  3 40  1  0
  4 41  1  0
  4 42  1  0
  5 43  1  1
  6 44  1  0
  9 45  1  6
 10 46  1  0
 10 47  1  0
 11 48  1  0
 11 49  1  0
 12 50  1  0
 12 51  1  0
 18 52  1  0
 19 53  1  0
 21 54  1  0
 24 55  1  0
 25 56  1  0
 26 57  1  0
 27 58  1  0
 28 59  1  0
 31 60  1  0
 32 61  1  0
 32 62  1  0
 33 63  1  0
 33 64  1  0
 34 65  1  0
 34 66  1  0
M  END
>  <Binding energies>  (1) 
[-9.78]

>  <Ligand effiencies>  (1) 
[-0.27166666666666667]

>  <Interactions>  (1) 
["V-B:ARG:545:CG:9893, V-B:GLU:543:CB:9877, V-B:GLU:543:CD:9879, V-B:HIS:456:CE1:9040, V-A:HIS:456:CE1:4069, V-B:LEU:475:CD1:9228, V-B:ARG:545:CZ:9897, H-B:TYR:484:OH:9318, V-B:ARG:545:CD:9894, V-B:GLU:543:C:9873, V-B:GLY:453:C:9012, V-B:GLY:453:CA:9014, V-B:ARG:545:CA:9890, V-B:ARG:545:CB:9892, V-B:GLY:454:CA:9019, H-B:ILE:455:O:9023, H-B:GLU:543:O:9874, V-B:GLY:544:CA:9885, V-B:LYS:547:CE:9921, H-B:LYS:547:NZ:9922, V-A:HIS:456:CD2:4067, V-B:HIS:456:CD2:9038, V-A:TYR:484:CG:4341, V-A:TYR:484:CB:4340, V-B:LYS:547:CG:9919, V-A:TYR:484:CA:4338, V-B:VAL:542:CG1:9870"]

$$$$
RR11_Rahimova_2017
     RDKit          3D

 55 60  0  0  0  0  0  0  0  0999 V2000
  134.6310  130.4720   57.5930 N   0  0  0  0  0  0  0  0  0  0  0  0
  133.4790  130.8890   58.2570 C   0  0  0  0  0  0  0  0  0  0  0  0
  132.6190  131.8030   57.6500 C   0  0  0  0  0  0  0  0  0  0  0  0
  131.4680  132.2160   58.3130 C   0  0  0  0  0  0  0  0  0  0  0  0
  131.1650  131.7220   59.5890 C   0  0  0  0  0  0  0  0  0  0  0  0
  129.9210  132.1640   60.3000 C   0  0  0  0  0  0  0  0  0  0  0  0
  128.9260  131.3670   60.6220 N   0  0  0  0  0  0  0  0  0  0  0  0
  128.0140  132.1660   61.2610 C   0  0  0  0  0  0  0  0  0  0  0  0
  126.7730  131.8250   61.8170 C   0  0  0  0  0  0  0  0  0  0  0  0
  126.0240  132.8310   62.4390 C   0  0  0  0  0  0  0  0  0  0  0  0
  124.6700  132.4910   63.0480 C   0  0  0  0  0  0  0  0  0  0  0  0
  124.7340  131.3290   64.0290 C   0  0  0  0  0  0  0  0  0  0  0  0
  123.7190  130.3660   64.0230 C   0  0  0  0  0  0  0  0  0  0  0  0
  123.7380  129.2770   64.8970 C   0  0  0  0  0  0  0  0  0  0  0  0
  124.8140  129.1640   65.7870 C   0  0  0  0  0  0  0  0  0  0  0  0
  125.0580  128.2060   66.7370 N   0  0  0  0  0  0  0  0  0  0  0  0
  126.1910  128.5600   67.3040 C   0  0  0  0  0  0  0  0  0  0  0  0
  126.8510  127.8090   68.4240 C   0  0  0  0  0  0  0  0  0  0  0  0
  126.0830  127.2390   69.4470 C   0  0  0  0  0  0  0  0  0  0  0  0
  126.6950  126.5510   70.4920 C   0  0  0  0  0  0  0  0  0  0  0  0
  128.0820  126.4270   70.5200 C   0  0  0  0  0  0  0  0  0  0  0  0
  128.6970  125.7430   71.5680 N   0  0  0  0  0  0  0  0  0  0  0  0
  128.8590  126.9850   69.5070 C   0  0  0  0  0  0  0  0  0  0  0  0
  128.2450  127.6730   68.4640 C   0  0  0  0  0  0  0  0  0  0  0  0
  126.7040  129.7160   66.7550 N   0  0  0  0  0  0  0  0  0  0  0  0
  125.8400  130.1390   65.7730 C   0  0  0  0  0  0  0  0  0  0  0  0
  125.8290  131.2280   64.8970 C   0  0  0  0  0  0  0  0  0  0  0  0
  126.4930  134.1490   62.4800 C   0  0  0  0  0  0  0  0  0  0  0  0
  127.7220  134.5210   61.9300 C   0  0  0  0  0  0  0  0  0  0  0  0
  128.4670  133.5050   61.3270 C   0  0  0  0  0  0  0  0  0  0  0  0
  129.6900  133.4650   60.6990 N   0  0  0  0  0  0  0  0  0  0  0  0
  132.0390  130.8050   60.1890 C   0  0  0  0  0  0  0  0  0  0  0  0
  133.1910  130.3900   59.5270 C   0  0  0  0  0  0  0  0  0  0  0  0
  134.7470  129.4950   57.3650 H   0  0  0  0  0  0  0  0  0  0  0  0
  135.3160  131.1580   57.3100 H   0  0  0  0  0  0  0  0  0  0  0  0
  132.8501  132.1966   56.6492 H   0  0  0  0  0  0  0  0  0  0  0  0
  130.7900  132.9363   57.8318 H   0  0  0  0  0  0  0  0  0  0  0  0
  126.3971  130.7925   61.7658 H   0  0  0  0  0  0  0  0  0  0  0  0
  124.2918  133.3773   63.5786 H   0  0  0  0  0  0  0  0  0  0  0  0
  124.0051  132.1904   62.2248 H   0  0  0  0  0  0  0  0  0  0  0  0
  122.8857  130.4692   63.3124 H   0  0  0  0  0  0  0  0  0  0  0  0
  122.9312  128.5293   64.8869 H   0  0  0  0  0  0  0  0  0  0  0  0
  124.9875  127.3354   69.4250 H   0  0  0  0  0  0  0  0  0  0  0  0
  126.0850  126.1071   71.2925 H   0  0  0  0  0  0  0  0  0  0  0  0
  129.2930  126.2460   72.2090 H   0  0  0  0  0  0  0  0  0  0  0  0
  128.5110  124.7580   71.6940 H   0  0  0  0  0  0  0  0  0  0  0  0
  129.9539  126.8823   69.5313 H   0  0  0  0  0  0  0  0  0  0  0  0
  128.8592  128.1134   67.6648 H   0  0  0  0  0  0  0  0  0  0  0  0
  127.5670  130.1410   67.0620 H   0  0  0  0  0  0  0  0  0  0  0  0
  126.6410  131.9700   64.8895 H   0  0  0  0  0  0  0  0  0  0  0  0
  125.8723  134.9187   62.9620 H   0  0  0  0  0  0  0  0  0  0  0  0
  128.0839  135.5590   61.9697 H   0  0  0  0  0  0  0  0  0  0  0  0
  130.3410  134.2190   60.5380 H   0  0  0  0  0  0  0  0  0  0  0  0
  131.8128  130.4104   61.1905 H   0  0  0  0  0  0  0  0  0  0  0  0
  133.8724  129.6704   60.0043 H   0  0  0  0  0  0  0  0  0  0  0  0
  1  2  1  0
  2  3  2  0
  3  4  1  0
  4  5  2  0
  5  6  1  0
  6  7  2  0
  7  8  1  0
  8  9  2  0
  9 10  1  0
 10 11  1  0
 11 12  1  0
 12 13  2  0
 13 14  1  0
 14 15  2  0
 15 16  1  0
 16 17  2  0
 17 18  1  0
 18 19  2  0
 19 20  1  0
 20 21  2  0
 21 22  1  0
 21 23  1  0
 23 24  2  0
 17 25  1  0
 25 26  1  0
 26 27  2  0
 10 28  2  0
 28 29  1  0
 29 30  2  0
 30 31  1  0
  5 32  1  0
 32 33  2  0
 33  2  1  0
 31  6  1  0
 30  8  1  0
 27 12  1  0
 26 15  1  0
 24 18  1  0
  1 34  1  0
  1 35  1  0
  3 36  1  0
  4 37  1  0
  9 38  1  0
 11 39  1  0
 11 40  1  0
 13 41  1  0
 14 42  1  0
 19 43  1  0
 20 44  1  0
 22 45  1  0
 22 46  1  0
 23 47  1  0
 24 48  1  0
 25 49  1  0
 27 50  1  0
 28 51  1  0
 29 52  1  0
 31 53  1  0
 32 54  1  0
 33 55  1  0
M  END
>  <Binding energies>  (1) 
[-8.55]

>  <Ligand effiencies>  (1) 
[-0.21923076923076926]

>  <Interactions>  (1) 
["V-B:ARG:545:CG:9893, V-B:GLU:543:CB:9877, V-B:GLU:543:CD:9879, V-B:HIS:456:CE1:9040, V-A:ALA:541:CB:4891, V-A:HIS:456:CE1:4069, H-A:TYR:539:O:4867, V-B:LEU:475:CD1:9228, V-B:ARG:545:CZ:9897, H-B:TYR:484:OH:9318, V-B:ARG:545:CD:9894, V-B:TYR:484:CZ:9317, V-A:ASP:366:CG:3212, V-B:GLU:543:C:9873, V-B:GLY:544:C:9883, V-A:PRO:540:C:4880, H-B:ARG:545:NE:9895, V-A:PRO:540:CB:4884, V-A:PRO:540:CA:4882, V-B:GLY:453:C:9012, V-B:GLY:453:CA:9014, V-B:ARG:545:CA:9890, V-A:LEU:363:CA:3184, V-A:TYR:531:CE2:4792, V-A:LEU:363:CD1:3188, V-A:PRO:540:N:4883, V-B:GLY:454:CA:9019, V-A:TYR:539:C:4866, V-A:ASP:366:CB:3211, H-A:TYR:531:OH:4794, H-A:HIS:456:NE2:4070, H-B:GLU:543:O:9874, V-A:TYR:531:CZ:4793, V-A:LEU:363:C:3182, H-A:LEU:363:O:3183"]

$$$$
RR11_Rahimova_2017-again1
     RDKit          3D

 56 61  0  0  0  0  0  0  0  0999 V2000
  129.4890  118.7440   75.6820 N   0  0  0  0  0  0  0  0  0  0  0  0
  129.5090  120.0470   75.1850 C   0  0  0  0  0  0  0  0  0  0  0  0
  130.7180  120.7320   75.0830 C   0  0  0  0  0  0  0  0  0  0  0  0
  130.7360  122.0350   74.5890 C   0  0  0  0  0  0  0  0  0  0  0  0
  129.5460  122.6620   74.1960 C   0  0  0  0  0  0  0  0  0  0  0  0
  129.5660  124.0680   73.6720 C   0  0  0  0  0  0  0  0  0  0  0  0
  129.8030  125.1310   74.4080 N   0  0  0  0  0  0  0  0  0  0  0  0
  129.7050  126.1960   73.5500 C   0  0  0  0  0  0  0  0  0  0  0  0
  129.8600  127.5630   73.8110 C   0  0  0  0  0  0  0  0  0  0  0  0
  129.6920  128.4580   72.7530 C   0  0  0  0  0  0  0  0  0  0  0  0
  129.3750  128.0180   71.4630 C   0  0  0  0  0  0  0  0  0  0  0  0
  129.1980  129.0380   70.3470 C   0  0  0  0  0  0  0  0  0  0  0  0
  129.4520  128.4470   68.9670 C   0  0  0  0  0  0  0  0  0  0  0  0
  128.6520  128.8410   67.8890 C   0  0  0  0  0  0  0  0  0  0  0  0
  128.8360  128.3320   66.6010 C   0  0  0  0  0  0  0  0  0  0  0  0
  129.8700  127.4060   66.4360 C   0  0  0  0  0  0  0  0  0  0  0  0
  130.3160  126.7050   65.3230 N   0  0  0  0  0  0  0  0  0  0  0  0
  131.3740  125.8960   65.6670 C   0  0  0  0  0  0  0  0  0  0  0  0
  132.1270  124.9700   64.7670 C   0  0  0  0  0  0  0  0  0  0  0  0
  133.1880  125.4530   63.9930 C   0  0  0  0  0  0  0  0  0  0  0  0
  133.8990  124.5930   63.1590 C   0  0  0  0  0  0  0  0  0  0  0  0
  133.5500  123.2450   63.0960 C   0  0  0  0  0  0  0  0  0  0  0  0
  134.2650  122.3840   62.2640 N   0  0  0  0  0  0  0  0  0  0  0  0
  132.4940  122.7540   63.8620 C   0  0  0  0  0  0  0  0  0  0  0  0
  131.7840  123.6150   64.6950 C   0  0  0  0  0  0  0  0  0  0  0  0
  131.5970  126.0990   67.0090 N   0  0  0  0  0  0  0  0  0  0  0  0
  130.6860  127.0180   67.5110 C   0  0  0  0  0  0  0  0  0  0  0  0
  130.5010  127.5350   68.7960 C   0  0  0  0  0  0  0  0  0  0  0  0
  129.2380  126.6540   71.1730 C   0  0  0  0  0  0  0  0  0  0  0  0
  129.3990  125.7640   72.2370 C   0  0  0  0  0  0  0  0  0  0  0  0
  129.3240  124.3960   72.3540 N   0  0  0  0  0  0  0  0  0  0  0  0
  128.3380  121.9600   74.3030 C   0  0  0  0  0  0  0  0  0  0  0  0
  128.3190  120.6570   74.7950 C   0  0  0  0  0  0  0  0  0  0  0  0
  129.4660  117.9680   75.0370 H   0  0  0  0  0  0  0  0  0  0  0  0
  129.4570  118.5940   76.6800 H   0  0  0  0  0  0  0  0  0  0  0  0
  131.6553  120.2459   75.3914 H   0  0  0  0  0  0  0  0  0  0  0  0
  131.6908  122.5750   74.5070 H   0  0  0  0  0  0  0  0  0  0  0  0
  130.1072  127.9214   74.8212 H   0  0  0  0  0  0  0  0  0  0  0  0
  129.8118  129.5357   72.9379 H   0  0  0  0  0  0  0  0  0  0  0  0
  128.1679  129.4224   70.3813 H   0  0  0  0  0  0  0  0  0  0  0  0
  129.9356  129.8382   70.5073 H   0  0  0  0  0  0  0  0  0  0  0  0
  127.8517  129.5758   68.0612 H   0  0  0  0  0  0  0  0  0  0  0  0
  128.1997  128.6440   65.7597 H   0  0  0  0  0  0  0  0  0  0  0  0
  129.9480  126.7450   64.3830 H   0  0  0  0  0  0  0  0  0  0  0  0
  133.4620  126.5171   64.0434 H   0  0  0  0  0  0  0  0  0  0  0  0
  134.7327  124.9763   62.5524 H   0  0  0  0  0  0  0  0  0  0  0  0
  134.9700  121.7790   62.6620 H   0  0  0  0  0  0  0  0  0  0  0  0
  134.0910  122.3950   61.2700 H   0  0  0  0  0  0  0  0  0  0  0  0
  132.2222  121.6894   63.8087 H   0  0  0  0  0  0  0  0  0  0  0  0
  130.9499  123.2284   65.2991 H   0  0  0  0  0  0  0  0  0  0  0  0
  132.3270  125.6180   67.5130 H   0  0  0  0  0  0  0  0  0  0  0  0
  131.1491  127.2394   69.6342 H   0  0  0  0  0  0  0  0  0  0  0  0
  129.0142  126.3010   70.1555 H   0  0  0  0  0  0  0  0  0  0  0  0
  129.1230  123.7110   71.6400 H   0  0  0  0  0  0  0  0  0  0  0  0
  127.3978  122.4415   73.9962 H   0  0  0  0  0  0  0  0  0  0  0  0
  127.3672  120.1114   74.8753 H   0  0  0  0  0  0  0  0  0  0  0  0
  1  2  1  0
  2  3  2  0
  3  4  1  0
  4  5  2  0
  5  6  1  0
  6  7  2  0
  7  8  1  0
  8  9  2  0
  9 10  1  0
 10 11  2  0
 11 12  1  0
 12 13  1  0
 13 14  2  0
 14 15  1  0
 15 16  2  0
 16 17  1  0
 17 18  1  0
 18 19  1  0
 19 20  2  0
 20 21  1  0
 21 22  2  0
 22 23  1  0
 22 24  1  0
 24 25  2  0
 18 26  2  0
 26 27  1  0
 27 28  2  0
 11 29  1  0
 29 30  2  0
 30 31  1  0
  5 32  1  0
 32 33  2  0
 33  2  1  0
 31  6  1  0
 30  8  1  0
 28 13  1  0
 27 16  1  0
 25 19  1  0
  1 34  1  0
  1 35  1  0
  3 36  1  0
  4 37  1  0
  9 38  1  0
 10 39  1  0
 12 40  1  0
 12 41  1  0
 14 42  1  0
 15 43  1  0
 17 44  1  0
 20 45  1  0
 21 46  1  0
 23 47  1  0
 23 48  1  0
 24 49  1  0
 25 50  1  0
 26 51  1  0
 28 52  1  0
 29 53  1  0
 31 54  1  0
 32 55  1  0
 33 56  1  0
M  CHG  1  26   1
M  END
>  <Binding energies>  (1) 
[-9.46]

>  <Ligand effiencies>  (1) 
[-0.23650000000000002]

>  <Interactions>  (1) 
["V-A:GLU:543:CB:4905, V-A:GLU:543:CG:4906, V-B:GLU:543:CD:9879, V-B:HIS:456:CE1:9040, V-A:HIS:456:CE1:4069, V-A:GLU:543:CD:4907, V-A:GLY:454:CA:4048, V-A:TYR:484:CZ:4346, V-A:ARG:545:CZ:4925, V-A:ASP:366:CG:3212, V-B:GLU:543:C:9873, H-A:TYR:484:OH:4347, V-A:LEU:475:CD2:4258, H-A:SER:385:O:3405, H-B:GLU:543:OE2:9881, V-A:GLY:453:C:4041, V-A:ILE:369:CD1:3238, H-A:HIS:456:NE2:4070, H-B:GLU:543:O:9874, V-B:LYS:547:CE:9921, H-B:LYS:547:NZ:9922, V-A:HIS:456:CD2:4067, V-A:ASP:473:CB:4238, V-A:TYR:484:C:4336, V-A:TYR:484:CB:4340, V-A:ASP:485:CA:4352, V-A:ASP:473:CG:4239, V-A:TYR:484:CD2:4343, H-A:TYR:484:O:4337, H-A:ASP:485:OD2:4357"]

$$$$
RR11_Rahimova_2017-again2
     RDKit          3D

 57 62  0  0  0  0  0  0  0  0999 V2000
  134.1820  121.8550   61.9890 N   0  0  0  0  0  0  0  0  0  0  0  0
  133.6120  122.7640   62.8800 C   0  0  0  0  0  0  0  0  0  0  0  0
  134.0140  124.0970   62.8630 C   0  0  0  0  0  0  0  0  0  0  0  0
  133.4490  125.0030   63.7570 C   0  0  0  0  0  0  0  0  0  0  0  0
  132.4780  124.5790   64.6730 C   0  0  0  0  0  0  0  0  0  0  0  0
  131.8790  125.5490   65.6390 C   0  0  0  0  0  0  0  0  0  0  0  0
  130.5740  125.9880   65.6630 N   0  0  0  0  0  0  0  0  0  0  0  0
  130.3870  126.8690   66.7190 C   0  0  0  0  0  0  0  0  0  0  0  0
  129.2580  127.5640   67.1620 C   0  0  0  0  0  0  0  0  0  0  0  0
  129.4140  128.3710   68.2950 C   0  0  0  0  0  0  0  0  0  0  0  0
  128.2180  129.1490   68.8280 C   0  0  0  0  0  0  0  0  0  0  0  0
  127.0670  129.2140   67.8340 C   0  0  0  0  0  0  0  0  0  0  0  0
  125.7840  128.8240   68.2370 C   0  0  0  0  0  0  0  0  0  0  0  0
  124.6890  128.8610   67.3700 C   0  0  0  0  0  0  0  0  0  0  0  0
  124.9330  129.3150   66.0710 C   0  0  0  0  0  0  0  0  0  0  0  0
  124.0980  129.4670   64.9730 N   0  0  0  0  0  0  0  0  0  0  0  0
  124.8110  129.9500   63.9000 C   0  0  0  0  0  0  0  0  0  0  0  0
  124.2860  130.2350   62.5300 C   0  0  0  0  0  0  0  0  0  0  0  0
  123.1260  130.9990   62.3630 C   0  0  0  0  0  0  0  0  0  0  0  0
  122.6430  131.2740   61.0860 C   0  0  0  0  0  0  0  0  0  0  0  0
  123.3180  130.7860   59.9700 C   0  0  0  0  0  0  0  0  0  0  0  0
  122.8380  131.0650   58.6910 N   0  0  0  0  0  0  0  0  0  0  0  0
  124.4730  130.0200   60.1240 C   0  0  0  0  0  0  0  0  0  0  0  0
  124.9560  129.7460   61.4010 C   0  0  0  0  0  0  0  0  0  0  0  0
  126.1060  130.1090   64.3350 N   0  0  0  0  0  0  0  0  0  0  0  0
  126.2150  129.7220   65.6640 C   0  0  0  0  0  0  0  0  0  0  0  0
  127.3050  129.6880   66.5370 C   0  0  0  0  0  0  0  0  0  0  0  0
  130.6540  128.4940   68.9330 C   0  0  0  0  0  0  0  0  0  0  0  0
  131.7880  127.8070   68.4910 C   0  0  0  0  0  0  0  0  0  0  0  0
  131.6260  126.9870   67.3720 C   0  0  0  0  0  0  0  0  0  0  0  0
  132.5170  126.1700   66.6870 N   0  0  0  0  0  0  0  0  0  0  0  0
  132.0780  123.2370   64.6780 C   0  0  0  0  0  0  0  0  0  0  0  0
  132.6440  122.3320   63.7840 C   0  0  0  0  0  0  0  0  0  0  0  0
  133.6300  121.4980   61.2230 H   0  0  0  0  0  0  0  0  0  0  0  0
  135.1180  121.5140   62.1570 H   0  0  0  0  0  0  0  0  0  0  0  0
  134.7762  124.4337   62.1449 H   0  0  0  0  0  0  0  0  0  0  0  0
  133.7666  126.0561   63.7437 H   0  0  0  0  0  0  0  0  0  0  0  0
  129.8880  125.6780   64.9910 H   0  0  0  0  0  0  0  0  0  0  0  0
  128.2912  127.4806   66.6440 H   0  0  0  0  0  0  0  0  0  0  0  0
  127.8618  128.6603   69.7469 H   0  0  0  0  0  0  0  0  0  0  0  0
  128.5510  130.1801   69.0174 H   0  0  0  0  0  0  0  0  0  0  0  0
  125.6333  128.4772   69.2699 H   0  0  0  0  0  0  0  0  0  0  0  0
  123.6852  128.5485   67.6936 H   0  0  0  0  0  0  0  0  0  0  0  0
  123.1110  129.2630   64.9180 H   0  0  0  0  0  0  0  0  0  0  0  0
  122.5928  131.3844   63.2446 H   0  0  0  0  0  0  0  0  0  0  0  0
  121.7306  131.8752   60.9592 H   0  0  0  0  0  0  0  0  0  0  0  0
  123.0030  131.9740   58.2850 H   0  0  0  0  0  0  0  0  0  0  0  0
  122.2750  130.3780   58.2110 H   0  0  0  0  0  0  0  0  0  0  0  0
  125.0008  129.6335   59.2397 H   0  0  0  0  0  0  0  0  0  0  0  0
  125.8677  129.1429   61.5238 H   0  0  0  0  0  0  0  0  0  0  0  0
  126.8400  130.4540   63.7330 H   0  0  0  0  0  0  0  0  0  0  0  0
  128.3053  130.0185   66.2205 H   0  0  0  0  0  0  0  0  0  0  0  0
  130.7385  129.1524   69.8102 H   0  0  0  0  0  0  0  0  0  0  0  0
  132.7587  127.9070   68.9986 H   0  0  0  0  0  0  0  0  0  0  0  0
  133.4930  126.0170   66.8920 H   0  0  0  0  0  0  0  0  0  0  0  0
  131.3132  122.8963   65.3914 H   0  0  0  0  0  0  0  0  0  0  0  0
  132.3276  121.2785   63.7915 H   0  0  0  0  0  0  0  0  0  0  0  0
  1  2  1  0
  2  3  2  0
  3  4  1  0
  4  5  2  0
  5  6  1  0
  6  7  1  0
  7  8  1  0
  8  9  2  0
  9 10  1  0
 10 11  1  0
 11 12  1  0
 12 13  2  0
 13 14  1  0
 14 15  2  0
 15 16  1  0
 16 17  1  0
 17 18  1  0
 18 19  2  0
 19 20  1  0
 20 21  2  0
 21 22  1  0
 21 23  1  0
 23 24  2  0
 17 25  2  0
 25 26  1  0
 26 27  2  0
 10 28  2  0
 28 29  1  0
 29 30  2  0
 30 31  1  0
  5 32  1  0
 32 33  2  0
 33  2  1  0
 31  6  2  0
 30  8  1  0
 27 12  1  0
 26 15  1  0
 24 18  1  0
  1 34  1  0
  1 35  1  0
  3 36  1  0
  4 37  1  0
  7 38  1  0
  9 39  1  0
 11 40  1  0
 11 41  1  0
 13 42  1  0
 14 43  1  0
 16 44  1  0
 19 45  1  0
 20 46  1  0
 22 47  1  0
 22 48  1  0
 23 49  1  0
 24 50  1  0
 25 51  1  0
 27 52  1  0
 28 53  1  0
 29 54  1  0
 31 55  1  0
 32 56  1  0
 33 57  1  0
M  CHG  2  25   1  31   1
M  END
>  <Binding energies>  (1) 
[-8.66]

>  <Ligand effiencies>  (1) 
[-0.21121951219512194]

>  <Interactions>  (1) 
["V-B:ARG:545:CG:9893, V-A:GLU:543:CB:4905, V-A:GLU:543:CG:4906, V-B:GLU:543:CD:9879, V-B:HIS:456:CE1:9040, V-A:HIS:456:CE1:4069, V-A:GLU:543:CD:4907, V-A:GLY:454:CA:4048, V-B:ARG:545:CZ:9897, V-B:ARG:545:CD:9894, V-B:ILE:369:CG2:8207, V-B:ASP:366:CG:8183, V-B:ILE:369:CG1:8208, V-B:TYR:484:CZ:9317, V-B:TYR:484:CE2:9316, V-A:TYR:484:CZ:4346, V-A:ARG:545:CZ:4925, V-A:ARG:545:CG:4921, H-A:TYR:484:OH:4347, V-B:ASP:366:CB:8182, V-A:ILE:369:CG2:3236, V-A:LEU:475:CD2:4258, H-A:SER:385:O:3405, V-B:ILE:369:CB:8206, H-B:GLU:543:OE2:9881, V-B:ASP:366:CA:8180, V-A:GLY:453:C:4041, V-A:ILE:369:CD1:3238, V-A:SER:385:C:3404, H-A:GLU:543:OE1:4908, V-B:ASP:366:C:8178, H-B:ASP:366:O:8179"]

$$$$
RR12_Rahimova_2017
     RDKit          3D

 51 53  0  0  0  0  0  0  0  0999 V2000
  129.4610  122.5410   65.4730 C   0  0  0  0  0  0  0  0  0  0  0  0
  130.7110  122.1570   64.6690 C   0  0  0  0  0  0  0  0  0  0  0  0
  130.4260  122.0200   63.1620 C   0  0  0  0  0  0  0  0  0  0  0  0
  131.5560  121.3980   62.4760 N   0  0  0  0  0  0  0  0  0  0  0  0
  132.8780  121.8170   62.4770 C   0  0  0  0  0  0  0  0  0  0  0  0
  133.3700  123.0670   63.1850 C   0  0  0  0  0  0  0  0  0  0  0  0
  132.6380  124.3370   62.7120 C   0  0  0  0  0  0  0  0  0  0  0  0
  133.1800  125.6180   63.3720 C   0  0  0  0  0  0  0  0  0  0  0  0
  132.6400  125.8690   64.7070 N   0  0  0  0  0  0  0  0  0  0  0  0
  133.3740  125.9830   65.8290 C   0  0  0  0  0  0  0  0  0  0  0  0
  134.6030  125.8830   65.8450 O   0  0  0  0  0  0  0  0  0  0  0  0
  132.5840  126.2570   67.1150 C   0  0  0  0  0  0  0  0  0  0  0  0
  131.2000  125.9820   66.8920 O   0  0  0  0  0  0  0  0  0  0  0  0
  130.2530  126.5700   67.7090 C   0  0  0  0  0  0  0  0  0  0  0  0
  129.5570  125.7160   68.5660 C   0  0  0  0  0  0  0  0  0  0  0  0
  128.5850  126.2170   69.4290 C   0  0  0  0  0  0  0  0  0  0  0  0
  128.3090  127.5810   69.4360 C   0  0  0  0  0  0  0  0  0  0  0  0
  128.9920  128.4470   68.5870 C   0  0  0  0  0  0  0  0  0  0  0  0
  129.9630  127.9450   67.7230 C   0  0  0  0  0  0  0  0  0  0  0  0
  133.6710  121.0350   61.7870 N   0  0  0  0  0  0  0  0  0  0  0  0
  132.8610  120.0350   61.3230 C   0  0  0  0  0  0  0  0  0  0  0  0
  133.1960  118.9210   60.5380 C   0  0  0  0  0  0  0  0  0  0  0  0
  132.1790  118.0290   60.1970 C   0  0  0  0  0  0  0  0  0  0  0  0
  130.8650  118.2310   60.6200 C   0  0  0  0  0  0  0  0  0  0  0  0
  130.5000  119.3300   61.4000 C   0  0  0  0  0  0  0  0  0  0  0  0
  131.5210  120.2260   61.7420 C   0  0  0  0  0  0  0  0  0  0  0  0
  129.6817  122.4732   66.5485 H   0  0  0  0  0  0  0  0  0  0  0  0
  129.1665  123.5710   65.2233 H   0  0  0  0  0  0  0  0  0  0  0  0
  128.6391  121.8539   65.2233 H   0  0  0  0  0  0  0  0  0  0  0  0
  131.4757  122.9343   64.8138 H   0  0  0  0  0  0  0  0  0  0  0  0
  131.0543  121.1777   65.0338 H   0  0  0  0  0  0  0  0  0  0  0  0
  129.5302  121.3977   63.0193 H   0  0  0  0  0  0  0  0  0  0  0  0
  130.2657  123.0232   62.7403 H   0  0  0  0  0  0  0  0  0  0  0  0
  133.2072  122.9476   64.2663 H   0  0  0  0  0  0  0  0  0  0  0  0
  134.4375  123.1878   62.9487 H   0  0  0  0  0  0  0  0  0  0  0  0
  132.7566  124.4258   61.6220 H   0  0  0  0  0  0  0  0  0  0  0  0
  131.5812  124.2372   63.0003 H   0  0  0  0  0  0  0  0  0  0  0  0
  134.2737  125.5310   63.4512 H   0  0  0  0  0  0  0  0  0  0  0  0
  132.8690  126.4610   62.7374 H   0  0  0  0  0  0  0  0  0  0  0  0
  131.6370  125.9660   64.7730 H   0  0  0  0  0  0  0  0  0  0  0  0
  132.9608  125.6107   67.9214 H   0  0  0  0  0  0  0  0  0  0  0  0
  132.7063  127.3117   67.4025 H   0  0  0  0  0  0  0  0  0  0  0  0
  129.7779  124.6384   68.5599 H   0  0  0  0  0  0  0  0  0  0  0  0
  128.0389  125.5385   70.1009 H   0  0  0  0  0  0  0  0  0  0  0  0
  127.5438  127.9785   70.1190 H   0  0  0  0  0  0  0  0  0  0  0  0
  128.7661  129.5235   68.5981 H   0  0  0  0  0  0  0  0  0  0  0  0
  130.5039  128.6267   67.0502 H   0  0  0  0  0  0  0  0  0  0  0  0
  134.2302  118.7560   60.2014 H   0  0  0  0  0  0  0  0  0  0  0  0
  132.4180  117.1487   59.5822 H   0  0  0  0  0  0  0  0  0  0  0  0
  130.0933  117.5026   60.3303 H   0  0  0  0  0  0  0  0  0  0  0  0
  129.4620  119.4846   61.7297 H   0  0  0  0  0  0  0  0  0  0  0  0
  1  2  1  0
  2  3  1  0
  3  4  1  0
  4  5  1  0
  5  6  1  0
  6  7  1  0
  7  8  1  0
  8  9  1  0
  9 10  1  0
 10 11  2  0
 10 12  1  0
 12 13  1  0
 13 14  1  0
 14 15  2  0
 15 16  1  0
 16 17  2  0
 17 18  1  0
 18 19  2  0
  5 20  2  0
 20 21  1  0
 21 22  2  0
 22 23  1  0
 23 24  2  0
 24 25  1  0
 25 26  2  0
 26  4  1  0
 19 14  1  0
 26 21  1  0
  1 27  1  0
  1 28  1  0
  1 29  1  0
  2 30  1  0
  2 31  1  0
  3 32  1  0
  3 33  1  0
  6 34  1  0
  6 35  1  0
  7 36  1  0
  7 37  1  0
  8 38  1  0
  8 39  1  0
  9 40  1  0
 12 41  1  0
 12 42  1  0
 15 43  1  0
 16 44  1  0
 17 45  1  0
 18 46  1  0
 19 47  1  0
 22 48  1  0
 23 49  1  0
 24 50  1  0
 25 51  1  0
M  END
>  <Binding energies>  (1) 
[-7.18]

>  <Ligand effiencies>  (1) 
[-0.2659259259259259]

>  <Interactions>  (1) 
["V-A:GLU:543:CB:4905, V-B:GLU:543:CB:9877, V-A:GLU:543:CG:4906, V-B:GLU:543:CD:9879, V-B:HIS:456:CE1:9040, H-A:GLY:454:N:4049, V-A:HIS:456:CE1:4069, H-A:ARG:545:NH1:4926, V-A:GLU:543:CD:4907, V-A:GLY:454:CA:4048, V-A:TYR:484:CZ:4346, V-A:ARG:545:CZ:4925, V-B:ALA:541:CB:9863, V-A:ASP:366:CG:3212, V-A:ARG:545:CD:4922, V-A:ARG:545:CG:4921, V-B:TYR:539:CD2:9845, H-A:ARG:545:NE:4923, H-A:TYR:484:OH:4347, V-B:GLU:543:CG:9878, V-B:TYR:539:CB:9842, V-A:SER:385:CB:3408, V-A:SER:385:CA:3406, V-A:TYR:484:CE2:4345, V-A:LEU:475:CD2:4258, V-A:LEU:475:CD1:4257, H-A:GLU:543:OE1:4908"]

$$$$
RR13_Rahimova_2017
     RDKit          3D

 84 90  0  0  0  0  0  0  0  0999 V2000
  127.8220  132.9090   64.9760 Cl  0  0  0  0  0  0  0  0  0  0  0  0
  126.4750  132.1120   64.2350 C   0  0  0  0  0  0  0  0  0  0  0  0
  125.5610  132.8980   63.5310 C   0  0  0  0  0  0  0  0  0  0  0  0
  124.4460  132.3200   62.9310 C   0  0  0  0  0  0  0  0  0  0  0  0
  124.2360  130.9480   63.0330 C   0  0  0  0  0  0  0  0  0  0  0  0
  125.1440  130.1560   63.7330 C   0  0  0  0  0  0  0  0  0  0  0  0
  126.2810  130.7190   64.3350 C   0  0  0  0  0  0  0  0  0  0  0  0
  127.2590  129.8230   65.1270 C   0  0  1  0  0  0  0  0  0  0  0  0
  126.5710  129.2030   66.3530 C   0  0  0  0  0  0  0  0  0  0  0  0
  125.4280  128.5540   66.3670 N   0  0  0  0  0  0  0  0  0  0  0  0
  125.2020  128.2080   67.6950 N   0  0  0  0  0  0  0  0  0  0  0  0
  126.2280  128.6810   68.4890 N   0  0  0  0  0  0  0  0  0  0  0  0
  127.0470  129.3130   67.6420 N   0  0  0  0  0  0  0  0  0  0  0  0
  128.2830  129.9180   68.1230 C   0  0  0  0  0  0  0  0  0  0  0  0
  129.3800  128.8460   68.2710 C   0  0  0  0  0  0  0  0  0  0  0  0
  129.1610  127.9650   69.4910 C   0  0  0  0  0  0  0  0  0  0  0  0
  128.7160  126.6500   69.3310 C   0  0  0  0  0  0  0  0  0  0  0  0
  128.5090  125.8460   70.4500 C   0  0  0  0  0  0  0  0  0  0  0  0
  128.7480  126.3600   71.7230 C   0  0  0  0  0  0  0  0  0  0  0  0
  129.1900  127.6700   71.8880 C   0  0  0  0  0  0  0  0  0  0  0  0
  129.3980  128.4750   70.7710 C   0  0  0  0  0  0  0  0  0  0  0  0
  127.9410  128.8080   64.2880 N   0  0  0  0  0  0  0  0  0  0  0  0
  126.9890  127.7650   63.8630 C   0  0  0  0  0  0  0  0  0  0  0  0
  127.6600  126.7770   62.8800 C   0  0  0  0  0  0  0  0  0  0  0  0
  128.7960  126.0970   63.5240 N   0  0  0  0  0  0  0  0  0  0  0  0
  129.4190  125.0800   62.6450 C   0  0  1  0  0  0  0  0  0  0  0  0
  130.7080  124.4270   63.1910 C   0  0  0  0  0  0  0  0  0  0  0  0
  131.9160  124.7830   62.5760 C   0  0  0  0  0  0  0  0  0  0  0  0
  133.1310  124.2570   63.0150 C   0  0  0  0  0  0  0  0  0  0  0  0
  133.1540  123.3570   64.0760 C   0  0  0  0  0  0  0  0  0  0  0  0
  131.9640  122.9770   64.6900 C   0  0  0  0  0  0  0  0  0  0  0  0
  130.7410  123.4970   64.2560 C   0  0  0  0  0  0  0  0  0  0  0  0
  129.3120  122.9100   65.0390 Cl  0  0  0  0  0  0  0  0  0  0  0  0
  128.4380  124.0000   62.1850 C   0  0  0  0  0  0  0  0  0  0  0  0
  127.1330  124.0450   62.3290 N   0  0  0  0  0  0  0  0  0  0  0  0
  126.6450  122.8750   61.7570 N   0  0  0  0  0  0  0  0  0  0  0  0
  127.6860  122.1270   61.2470 N   0  0  0  0  0  0  0  0  0  0  0  0
  128.7820  122.8520   61.5040 N   0  0  0  0  0  0  0  0  0  0  0  0
  130.0960  122.3500   61.1170 C   0  0  0  0  0  0  0  0  0  0  0  0
  130.5500  121.2370   62.0780 C   0  0  0  0  0  0  0  0  0  0  0  0
  131.2330  120.0910   61.3480 C   0  0  0  0  0  0  0  0  0  0  0  0
  132.4770  120.2920   60.7420 C   0  0  0  0  0  0  0  0  0  0  0  0
  133.1050  119.2410   60.0800 C   0  0  0  0  0  0  0  0  0  0  0  0
  132.4870  117.9920   60.0240 C   0  0  0  0  0  0  0  0  0  0  0  0
  131.2470  117.7860   60.6270 C   0  0  0  0  0  0  0  0  0  0  0  0
  130.6190  118.8360   61.2910 C   0  0  0  0  0  0  0  0  0  0  0  0
  129.7480  127.1420   63.9430 C   0  0  0  0  0  0  0  0  0  0  0  0
  129.0740  128.1210   64.9330 C   0  0  0  0  0  0  0  0  0  0  0  0
  125.7233  133.9829   63.4498 H   0  0  0  0  0  0  0  0  0  0  0  0
  123.7317  132.9468   62.3769 H   0  0  0  0  0  0  0  0  0  0  0  0
  123.3543  130.4893   62.5616 H   0  0  0  0  0  0  0  0  0  0  0  0
  124.9675  129.0734   63.8153 H   0  0  0  0  0  0  0  0  0  0  0  0
  128.0627  130.4804   65.4901 H   0  0  0  0  0  0  0  0  0  0  0  0
  128.6165  130.6820   67.4053 H   0  0  0  0  0  0  0  0  0  0  0  0
  128.0979  130.3788   69.1045 H   0  0  0  0  0  0  0  0  0  0  0  0
  129.3798  128.2124   67.3718 H   0  0  0  0  0  0  0  0  0  0  0  0
  130.3428  129.3630   68.3961 H   0  0  0  0  0  0  0  0  0  0  0  0
  128.5294  126.2503   68.3233 H   0  0  0  0  0  0  0  0  0  0  0  0
  128.1586  124.8104   70.3291 H   0  0  0  0  0  0  0  0  0  0  0  0
  128.5859  125.7246   72.6062 H   0  0  0  0  0  0  0  0  0  0  0  0
  129.3742  128.0675   72.8970 H   0  0  0  0  0  0  0  0  0  0  0  0
  129.7482  129.5103   70.8955 H   0  0  0  0  0  0  0  0  0  0  0  0
  126.6405  127.2125   64.7480 H   0  0  0  0  0  0  0  0  0  0  0  0
  126.1411  128.2473   63.3546 H   0  0  0  0  0  0  0  0  0  0  0  0
  126.9219  126.0258   62.5622 H   0  0  0  0  0  0  0  0  0  0  0  0
  128.0299  127.3388   62.0096 H   0  0  0  0  0  0  0  0  0  0  0  0
  129.7256  125.6767   61.7733 H   0  0  0  0  0  0  0  0  0  0  0  0
  131.9058  125.4893   61.7327 H   0  0  0  0  0  0  0  0  0  0  0  0
  134.0694  124.5531   62.5233 H   0  0  0  0  0  0  0  0  0  0  0  0
  134.1114  122.9463   64.4291 H   0  0  0  0  0  0  0  0  0  0  0  0
  131.9861  122.2608   65.5246 H   0  0  0  0  0  0  0  0  0  0  0  0
  130.0433  121.9470   60.0948 H   0  0  0  0  0  0  0  0  0  0  0  0
  130.8206  123.1765   61.1608 H   0  0  0  0  0  0  0  0  0  0  0  0
  131.2555  121.6637   62.8062 H   0  0  0  0  0  0  0  0  0  0  0  0
  129.6553  120.8348   62.5757 H   0  0  0  0  0  0  0  0  0  0  0  0
  132.9588  121.2798   60.7884 H   0  0  0  0  0  0  0  0  0  0  0  0
  134.0843  119.3948   59.6032 H   0  0  0  0  0  0  0  0  0  0  0  0
  132.9825  117.1618   59.4993 H   0  0  0  0  0  0  0  0  0  0  0  0
  130.7667  116.7976   60.5783 H   0  0  0  0  0  0  0  0  0  0  0  0
  129.6414  118.6787   61.7701 H   0  0  0  0  0  0  0  0  0  0  0  0
  130.6123  126.6695   64.4326 H   0  0  0  0  0  0  0  0  0  0  0  0
  130.0758  127.7024   63.0550 H   0  0  0  0  0  0  0  0  0  0  0  0
  128.7079  127.5592   65.8050 H   0  0  0  0  0  0  0  0  0  0  0  0
  129.8126  128.8723   65.2491 H   0  0  0  0  0  0  0  0  0  0  0  0
  1  2  1  0
  2  3  2  0
  3  4  1  0
  4  5  2  0
  5  6  1  0
  6  7  2  0
  7  8  1  0
  8  9  1  0
  9 10  2  0
 10 11  1  0
 11 12  2  0
 12 13  1  0
 13 14  1  0
 14 15  1  0
 15 16  1  0
 16 17  2  0
 17 18  1  0
 18 19  2  0
 19 20  1  0
 20 21  2  0
  8 22  1  0
 22 23  1  0
 23 24  1  0
 24 25  1  0
 25 26  1  0
 26 27  1  0
 27 28  2  0
 28 29  1  0
 29 30  2  0
 30 31  1  0
 31 32  2  0
 32 33  1  0
 26 34  1  0
 34 35  2  0
 35 36  1  0
 36 37  2  0
 37 38  1  0
 38 39  1  0
 39 40  1  0
 40 41  1  0
 41 42  2  0
 42 43  1  0
 43 44  2  0
 44 45  1  0
 45 46  2  0
 25 47  1  0
 47 48  1  0
  7  2  1  0
 13  9  1  0
 21 16  1  0
 48 22  1  0
 32 27  1  0
 38 34  1  0
 46 41  1  0
  3 49  1  0
  4 50  1  0
  5 51  1  0
  6 52  1  0
  8 53  1  1
 14 54  1  0
 14 55  1  0
 15 56  1  0
 15 57  1  0
 17 58  1  0
 18 59  1  0
 19 60  1  0
 20 61  1  0
 21 62  1  0
 23 63  1  0
 23 64  1  0
 24 65  1  0
 24 66  1  0
 26 67  1  6
 28 68  1  0
 29 69  1  0
 30 70  1  0
 31 71  1  0
 39 72  1  0
 39 73  1  0
 40 74  1  0
 40 75  1  0
 42 76  1  0
 43 77  1  0
 44 78  1  0
 45 79  1  0
 46 80  1  0
 47 81  1  0
 47 82  1  0
 48 83  1  0
 48 84  1  0
M  END
>  <Binding energies>  (1) 
[-11.85]

>  <Ligand effiencies>  (1) 
[-0.24687499999999998]

>  <Interactions>  (1) 
["V-A:GLU:543:CB:4905, V-B:GLU:543:CB:9877, V-A:GLU:543:CG:4906, V-B:GLU:543:CD:9879, V-B:HIS:456:CE1:9040, V-A:ALA:541:CB:4891, V-A:HIS:456:CE1:4069, V-A:GLU:543:CD:4907, V-A:GLY:454:CA:4048, V-B:LEU:475:CD1:9228, H-B:TYR:484:OH:9318, H-B:ALA:541:N:9862, V-B:TYR:484:CZ:9317, V-B:TYR:484:CE2:9316, V-A:TYR:484:CZ:4346, V-B:ALA:541:CB:9863, V-B:TYR:539:CE2:9847, V-B:GLU:543:C:9873, V-B:TYR:539:CD2:9845, H-B:ARG:545:NE:9895, V-B:GLU:543:CG:9878, V-A:ILE:369:CG2:3236, V-A:SER:385:CA:3406, V-A:LEU:475:CD2:4258, H-B:HIS:456:ND1:9037, V-B:GLU:543:CA:9875, V-A:HIS:383:CE1:3393"]

$$$$
RR14_Rahimova_2017
     RDKit          3D

 76 80  0  0  0  0  0  0  0  0999 V2000
  133.8770  120.7180   61.1090 C   0  0  0  0  0  0  0  0  0  0  0  0
  133.1070  120.7670   62.3050 O   0  0  0  0  0  0  0  0  0  0  0  0
  132.8380  121.9940   62.8820 C   0  0  0  0  0  0  0  0  0  0  0  0
  133.4600  123.1020   62.3080 C   0  0  0  0  0  0  0  0  0  0  0  0
  133.2680  124.3750   62.8360 C   0  0  0  0  0  0  0  0  0  0  0  0
  132.4510  124.5510   63.9550 C   0  0  0  0  0  0  0  0  0  0  0  0
  132.2910  125.9330   64.5760 C   0  0  0  0  0  0  0  0  0  0  0  0
  132.8260  126.0230   65.9340 N   0  0  0  0  0  0  0  0  0  0  0  0
  134.1000  125.7020   66.1810 N   0  0  0  0  0  0  0  0  0  0  0  0
  134.2470  125.8710   67.5440 N   0  0  0  0  0  0  0  0  0  0  0  0
  133.0450  126.2900   68.1060 N   0  0  0  0  0  0  0  0  0  0  0  0
  132.1950  126.3680   67.1100 C   0  0  0  0  0  0  0  0  0  0  0  0
  130.7300  126.7650   67.2360 C   0  0  0  0  0  0  0  0  0  0  0  0
  130.3580  127.1080   68.6190 N   0  0  0  0  0  0  0  0  0  0  0  0
  130.4030  128.5570   68.8560 C   0  0  0  0  0  0  0  0  0  0  0  0
  130.6190  128.9290   70.3390 C   0  0  0  0  0  0  0  0  0  0  0  0
  129.4440  128.5300   71.2560 C   0  0  0  0  0  0  0  0  0  0  0  0
  129.7370  127.3700   72.1040 N   0  0  0  0  0  0  0  0  0  0  0  0
  128.5180  126.5820   72.3300 C   0  0  0  0  0  0  0  0  0  0  0  0
  128.7810  125.3810   73.2630 C   0  0  0  0  0  0  0  0  0  0  0  0
  129.3700  125.8270   74.4800 O   0  0  0  0  0  0  0  0  0  0  0  0
  130.6090  126.4920   74.2680 C   0  0  0  0  0  0  0  0  0  0  0  0
  130.4010  127.7280   73.3670 C   0  0  0  0  0  0  0  0  0  0  0  0
  129.0220  126.5780   68.9290 C   0  0  0  0  0  0  0  0  0  0  0  0
  127.8400  127.3650   68.3680 C   0  0  0  0  0  0  0  0  0  0  0  0
  127.9730  128.1290   67.2560 C   0  0  0  0  0  0  0  0  0  0  0  0
  126.8570  128.9310   66.7160 C   0  0  0  0  0  0  0  0  0  0  0  0
  126.9530  129.7170   65.5550 C   0  0  0  0  0  0  0  0  0  0  0  0
  128.2440  129.8000   64.7520 C   0  0  0  0  0  0  0  0  0  0  0  0
  125.8350  130.4380   65.1280 C   0  0  0  0  0  0  0  0  0  0  0  0
  124.6370  130.3820   65.8380 C   0  0  0  0  0  0  0  0  0  0  0  0
  124.5300  129.6010   66.9930 C   0  0  0  0  0  0  0  0  0  0  0  0
  123.2070  129.5580   67.7470 C   0  0  0  0  0  0  0  0  0  0  0  0
  125.6470  128.8730   67.4320 C   0  0  0  0  0  0  0  0  0  0  0  0
  125.5870  128.0740   68.5930 N   0  0  0  0  0  0  0  0  0  0  0  0
  126.5840  127.3220   69.1240 C   0  0  0  0  0  0  0  0  0  0  0  0
  126.3980  126.6810   70.1580 O   0  0  0  0  0  0  0  0  0  0  0  0
  131.8000  123.4520   64.5190 C   0  0  0  0  0  0  0  0  0  0  0  0
  131.9940  122.1790   63.9900 C   0  0  0  0  0  0  0  0  0  0  0  0
  134.9451  120.6500   61.3631 H   0  0  0  0  0  0  0  0  0  0  0  0
  133.5835  119.8367   60.5198 H   0  0  0  0  0  0  0  0  0  0  0  0
  133.6975  121.6294   60.5198 H   0  0  0  0  0  0  0  0  0  0  0  0
  134.1085  122.9686   61.4296 H   0  0  0  0  0  0  0  0  0  0  0  0
  133.7597  125.2428   62.3721 H   0  0  0  0  0  0  0  0  0  0  0  0
  132.8183  126.6628   63.9440 H   0  0  0  0  0  0  0  0  0  0  0  0
  131.2123  126.1397   64.6367 H   0  0  0  0  0  0  0  0  0  0  0  0
  130.5441  127.6382   66.5933 H   0  0  0  0  0  0  0  0  0  0  0  0
  130.1211  125.9017   66.9293 H   0  0  0  0  0  0  0  0  0  0  0  0
  131.2288  128.9814   68.2661 H   0  0  0  0  0  0  0  0  0  0  0  0
  129.4263  128.9655   68.5575 H   0  0  0  0  0  0  0  0  0  0  0  0
  131.5265  128.4201   70.6961 H   0  0  0  0  0  0  0  0  0  0  0  0
  130.7060  130.0245   70.3862 H   0  0  0  0  0  0  0  0  0  0  0  0
  129.2021  129.3845   71.9050 H   0  0  0  0  0  0  0  0  0  0  0  0
  128.6023  128.2525   70.6044 H   0  0  0  0  0  0  0  0  0  0  0  0
  127.7549  127.2287   72.7875 H   0  0  0  0  0  0  0  0  0  0  0  0
  128.1748  126.1943   71.3595 H   0  0  0  0  0  0  0  0  0  0  0  0
  127.8289  124.8760   73.4832 H   0  0  0  0  0  0  0  0  0  0  0  0
  129.4689  124.6819   72.7649 H   0  0  0  0  0  0  0  0  0  0  0  0
  131.0199  126.8130   75.2366 H   0  0  0  0  0  0  0  0  0  0  0  0
  131.3085  125.8009   73.7749 H   0  0  0  0  0  0  0  0  0  0  0  0
  129.7788  128.4600   73.9028 H   0  0  0  0  0  0  0  0  0  0  0  0
  131.3880  128.1516   73.1296 H   0  0  0  0  0  0  0  0  0  0  0  0
  128.9651  125.5551   68.5285 H   0  0  0  0  0  0  0  0  0  0  0  0
  128.9260  126.6407   70.0230 H   0  0  0  0  0  0  0  0  0  0  0  0
  128.9438  128.1522   66.7393 H   0  0  0  0  0  0  0  0  0  0  0  0
  129.1007  129.8551   65.4398 H   0  0  0  0  0  0  0  0  0  0  0  0
  128.3396  128.9061   64.1181 H   0  0  0  0  0  0  0  0  0  0  0  0
  128.2244  130.6987   64.1181 H   0  0  0  0  0  0  0  0  0  0  0  0
  125.9011  131.0569   64.2211 H   0  0  0  0  0  0  0  0  0  0  0  0
  123.7678  130.9574   65.4866 H   0  0  0  0  0  0  0  0  0  0  0  0
  123.4016  129.5643   68.8296 H   0  0  0  0  0  0  0  0  0  0  0  0
  122.6029  130.4370   67.4779 H   0  0  0  0  0  0  0  0  0  0  0  0
  122.6612  128.6416   67.4779 H   0  0  0  0  0  0  0  0  0  0  0  0
  124.7210  128.0450   69.1070 H   0  0  0  0  0  0  0  0  0  0  0  0
  131.1330  123.5923   65.3824 H   0  0  0  0  0  0  0  0  0  0  0  0
  131.4846  121.3147   64.4411 H   0  0  0  0  0  0  0  0  0  0  0  0
  1  2  1  0
  2  3  1  0
  3  4  2  0
  4  5  1  0
  5  6  2  0
  6  7  1  0
  7  8  1  0
  8  9  1  0
  9 10  2  0
 10 11  1  0
 11 12  2  0
 12 13  1  0
 13 14  1  0
 14 15  1  0
 15 16  1  0
 16 17  1  0
 17 18  1  0
 18 19  1  0
 19 20  1  0
 20 21  1  0
 21 22  1  0
 22 23  1  0
 14 24  1  0
 24 25  1  0
 25 26  2  0
 26 27  1  0
 27 28  2  0
 28 29  1  0
 28 30  1  0
 30 31  2  0
 31 32  1  0
 32 33  1  0
 32 34  2  0
 34 35  1  0
 35 36  1  0
 36 37  2  0
  6 38  1  0
 38 39  2  0
 39  3  1  0
 12  8  1  0
 23 18  1  0
 36 25  1  0
 34 27  1  0
  1 40  1  0
  1 41  1  0
  1 42  1  0
  4 43  1  0
  5 44  1  0
  7 45  1  0
  7 46  1  0
 13 47  1  0
 13 48  1  0
 15 49  1  0
 15 50  1  0
 16 51  1  0
 16 52  1  0
 17 53  1  0
 17 54  1  0
 19 55  1  0
 19 56  1  0
 20 57  1  0
 20 58  1  0
 22 59  1  0
 22 60  1  0
 23 61  1  0
 23 62  1  0
 24 63  1  0
 24 64  1  0
 26 65  1  0
 29 66  1  0
 29 67  1  0
 29 68  1  0
 30 69  1  0
 31 70  1  0
 33 71  1  0
 33 72  1  0
 33 73  1  0
 35 74  1  0
 38 75  1  0
 39 76  1  0
M  END
>  <Binding energies>  (1) 
[-10.03]

>  <Ligand effiencies>  (1) 
[-0.25075]

>  <Interactions>  (1) 
["V-B:ARG:545:CG:9893, V-A:GLU:543:CB:4905, V-B:GLU:543:CB:9877, V-A:GLU:543:CG:4906, V-B:GLU:543:CD:9879, V-B:HIS:456:CE1:9040, H-A:GLY:454:N:4049, V-A:HIS:456:CE1:4069, V-A:GLU:543:CD:4907, V-A:GLY:454:CA:4048, V-B:ARG:545:CD:9894, V-A:GLU:543:C:4901, V-A:ARG:545:CZ:4925, V-A:ASP:366:CG:3212, V-A:ARG:545:CG:4921, H-A:HIS:456:ND1:4066, H-A:ARG:545:NE:4923, H-A:TYR:484:OH:4347, H-B:ARG:545:N:9891, V-A:ILE:369:CG2:3236, V-A:SER:385:CA:3406, V-A:LEU:475:CD2:4258, V-B:ARG:545:CB:9892, V-B:GLY:454:CA:9019, V-A:ILE:369:CD1:3238, V-A:SER:385:C:3404, H-B:ILE:455:O:9023, V-B:LYS:547:CE:9921, V-B:ILE:455:C:9022, H-B:LYS:547:NZ:9922"]

$$$$
RR15_Rahimova_2017
     RDKit          3D

 85 89  0  0  0  0  0  0  0  0999 V2000
  130.7640  124.4800   74.9600 C   0  0  0  0  0  0  0  0  0  0  0  0
  129.7640  125.4910   74.9020 O   0  0  0  0  0  0  0  0  0  0  0  0
  129.4900  126.1110   73.6950 C   0  0  0  0  0  0  0  0  0  0  0  0
  128.7350  125.5190   72.6700 C   0  0  0  0  0  0  0  0  0  0  0  0
  128.4980  126.1970   71.4770 C   0  0  0  0  0  0  0  0  0  0  0  0
  129.0100  127.4820   71.2710 C   0  0  0  0  0  0  0  0  0  0  0  0
  128.7600  128.2120   69.9800 C   0  0  0  0  0  0  0  0  0  0  0  0
  129.4800  129.2550   69.5910 N   0  0  0  0  0  0  0  0  0  0  0  0
  128.9540  129.6520   68.3790 N   0  0  0  0  0  0  0  0  0  0  0  0
  127.9850  128.7640   68.1520 N   0  0  0  0  0  0  0  0  0  0  0  0
  127.0490  128.9080   67.0380 C   0  0  0  0  0  0  0  0  0  0  0  0
  127.6090  129.6750   65.8140 C   0  0  0  0  0  0  0  0  0  0  0  0
  127.7860  130.8910   65.9200 O   0  0  0  0  0  0  0  0  0  0  0  0
  127.9200  128.9910   64.6700 N   0  0  0  0  0  0  0  0  0  0  0  0
  126.8930  128.2350   63.9250 C   0  0  0  0  0  0  0  0  0  0  0  0
  125.7490  129.1170   63.3820 C   0  0  0  0  0  0  0  0  0  0  0  0
  124.6870  129.5220   64.4320 C   0  0  0  0  0  0  0  0  0  0  0  0
  123.8830  130.6840   64.0410 N   0  0  0  0  0  0  0  0  0  0  0  0
  124.6850  131.8830   63.7540 C   0  0  0  0  0  0  0  0  0  0  0  0
  123.8000  133.0500   63.2650 C   0  0  0  0  0  0  0  0  0  0  0  0
  123.0230  132.6420   62.1450 O   0  0  0  0  0  0  0  0  0  0  0  0
  122.1680  131.5450   62.4490 C   0  0  0  0  0  0  0  0  0  0  0  0
  123.0080  130.3350   62.9130 C   0  0  0  0  0  0  0  0  0  0  0  0
  129.2400  129.1030   63.9780 C   0  0  2  0  0  0  0  0  0  0  0  0
  129.1500  129.6400   62.5160 C   0  0  0  0  0  0  0  0  0  0  0  0
  128.4090  129.1090   61.6880 O   0  0  0  0  0  0  0  0  0  0  0  0
  129.8930  130.7280   62.2490 N   0  0  0  0  0  0  0  0  0  0  0  0
  129.8910  131.4640   60.9900 C   0  0  0  0  0  0  0  0  0  0  0  0
  131.1980  132.2570   60.8060 C   0  0  2  0  0  0  0  0  0  0  0  0
  132.3700  131.4660   60.1980 C   0  0  0  0  0  0  0  0  0  0  0  0
  133.2450  131.1190   61.3780 C   0  0  0  0  0  0  0  0  0  0  0  0
  133.0440  132.3340   62.2680 C   0  0  0  0  0  0  0  0  0  0  0  0
  131.6510  132.5910   62.1250 O   0  0  0  0  0  0  0  0  0  0  0  0
  130.0790  127.8520   64.2150 C   0  0  0  0  0  0  0  0  0  0  0  0
  130.1320  127.3290   65.5130 C   0  0  0  0  0  0  0  0  0  0  0  0
  130.8830  126.1900   65.7880 C   0  0  0  0  0  0  0  0  0  0  0  0
  131.5860  125.5620   64.7650 C   0  0  0  0  0  0  0  0  0  0  0  0
  132.3150  124.4550   65.0310 F   0  0  0  0  0  0  0  0  0  0  0  0
  131.5440  126.0660   63.4670 C   0  0  0  0  0  0  0  0  0  0  0  0
  130.7940  127.2070   63.1930 C   0  0  0  0  0  0  0  0  0  0  0  0
  127.8030  127.8760   69.1360 N   0  0  0  0  0  0  0  0  0  0  0  0
  129.7620  128.0720   72.2960 C   0  0  0  0  0  0  0  0  0  0  0  0
  130.0060  127.4020   73.5070 C   0  0  0  0  0  0  0  0  0  0  0  0
  130.7390  127.9430   74.5490 O   0  0  0  0  0  0  0  0  0  0  0  0
  132.1490  127.7560   74.5880 C   0  0  0  0  0  0  0  0  0  0  0  0
  130.9919  124.2496   76.0112 H   0  0  0  0  0  0  0  0  0  0  0  0
  130.3979  123.5729   74.4568 H   0  0  0  0  0  0  0  0  0  0  0  0
  131.6750  124.8361   74.4568 H   0  0  0  0  0  0  0  0  0  0  0  0
  128.3259  124.5077   72.8110 H   0  0  0  0  0  0  0  0  0  0  0  0
  127.9013  125.7164   70.6877 H   0  0  0  0  0  0  0  0  0  0  0  0
  126.7549  127.9014   66.7058 H   0  0  0  0  0  0  0  0  0  0  0  0
  126.2055  129.5036   67.4172 H   0  0  0  0  0  0  0  0  0  0  0  0
  127.3788  127.7334   63.0751 H   0  0  0  0  0  0  0  0  0  0  0  0
  126.4428  127.5212   64.6306 H   0  0  0  0  0  0  0  0  0  0  0  0
  126.1915  130.0363   62.9707 H   0  0  0  0  0  0  0  0  0  0  0  0
  125.2237  128.5128   62.6277 H   0  0  0  0  0  0  0  0  0  0  0  0
  124.0106  128.6688   64.5884 H   0  0  0  0  0  0  0  0  0  0  0  0
  125.2304  129.8009   65.3469 H   0  0  0  0  0  0  0  0  0  0  0  0
  125.2087  132.1910   64.6710 H   0  0  0  0  0  0  0  0  0  0  0  0
  125.4031  131.6364   62.9580 H   0  0  0  0  0  0  0  0  0  0  0  0
  123.1287  133.3624   64.0785 H   0  0  0  0  0  0  0  0  0  0  0  0
  124.4455  133.8895   62.9672 H   0  0  0  0  0  0  0  0  0  0  0  0
  121.4734  131.8356   63.2510 H   0  0  0  0  0  0  0  0  0  0  0  0
  121.6014  131.2676   61.5479 H   0  0  0  0  0  0  0  0  0  0  0  0
  122.3290  129.5276   63.2245 H   0  0  0  0  0  0  0  0  0  0  0  0
  123.6414  130.0137   62.0730 H   0  0  0  0  0  0  0  0  0  0  0  0
  129.8153  129.9147   64.4473 H   0  0  0  0  0  0  0  0  0  0  0  0
  130.4540  131.1220   62.9910 H   0  0  0  0  0  0  0  0  0  0  0  0
  129.7833  130.7520   60.1584 H   0  0  0  0  0  0  0  0  0  0  0  0
  129.0515  132.1747   61.0036 H   0  0  0  0  0  0  0  0  0  0  0  0
  130.9584  133.0915   60.1306 H   0  0  0  0  0  0  0  0  0  0  0  0
  132.0073  130.5539   59.7015 H   0  0  0  0  0  0  0  0  0  0  0  0
  132.9102  132.0417   59.4320 H   0  0  0  0  0  0  0  0  0  0  0  0
  132.9058  130.1971   61.8731 H   0  0  0  0  0  0  0  0  0  0  0  0
  134.2951  130.9220   61.1165 H   0  0  0  0  0  0  0  0  0  0  0  0
  133.3018  132.1085   63.3133 H   0  0  0  0  0  0  0  0  0  0  0  0
  133.6790  133.1893   61.9939 H   0  0  0  0  0  0  0  0  0  0  0  0
  129.5749  127.8230   66.3227 H   0  0  0  0  0  0  0  0  0  0  0  0
  130.9206  125.7876   66.8111 H   0  0  0  0  0  0  0  0  0  0  0  0
  132.1010  125.5648   62.6617 H   0  0  0  0  0  0  0  0  0  0  0  0
  130.7615  127.6059   62.1684 H   0  0  0  0  0  0  0  0  0  0  0  0
  130.1706  129.0827   72.1492 H   0  0  0  0  0  0  0  0  0  0  0  0
  132.4842  127.7115   75.6348 H   0  0  0  0  0  0  0  0  0  0  0  0
  132.4084  126.8156   74.0797 H   0  0  0  0  0  0  0  0  0  0  0  0
  132.6445  128.5963   74.0797 H   0  0  0  0  0  0  0  0  0  0  0  0
  1  2  1  0
  2  3  1  0
  3  4  2  0
  4  5  1  0
  5  6  2  0
  6  7  1  0
  7  8  1  0
  8  9  2  0
  9 10  1  0
 10 11  1  0
 11 12  1  0
 12 13  2  0
 12 14  1  0
 14 15  1  0
 15 16  1  0
 16 17  1  0
 17 18  1  0
 18 19  1  0
 19 20  1  0
 20 21  1  0
 21 22  1  0
 22 23  1  0
 14 24  1  0
 24 25  1  0
 25 26  2  0
 25 27  1  0
 27 28  1  0
 28 29  1  0
 29 30  1  0
 30 31  1  0
 31 32  1  0
 32 33  1  0
 24 34  1  0
 34 35  2  0
 35 36  1  0
 36 37  2  0
 37 38  1  0
 37 39  1  0
 39 40  2  0
 10 41  1  0
  6 42  1  0
 42 43  2  0
 43 44  1  0
 44 45  1  0
 43  3  1  0
 41  7  2  0
 23 18  1  0
 33 29  1  0
 40 34  1  0
  1 46  1  0
  1 47  1  0
  1 48  1  0
  4 49  1  0
  5 50  1  0
 11 51  1  0
 11 52  1  0
 15 53  1  0
 15 54  1  0
 16 55  1  0
 16 56  1  0
 17 57  1  0
 17 58  1  0
 19 59  1  0
 19 60  1  0
 20 61  1  0
 20 62  1  0
 22 63  1  0
 22 64  1  0
 23 65  1  0
 23 66  1  0
 24 67  1  1
 27 68  1  0
 28 69  1  0
 28 70  1  0
 29 71  1  6
 30 72  1  0
 30 73  1  0
 31 74  1  0
 31 75  1  0
 32 76  1  0
 32 77  1  0
 35 78  1  0
 36 79  1  0
 39 80  1  0
 40 81  1  0
 42 82  1  0
 45 83  1  0
 45 84  1  0
 45 85  1  0
M  END
>  <Binding energies>  (1) 
[-9.26]

>  <Ligand effiencies>  (1) 
[-0.20130434782608694]

>  <Interactions>  (1) 
["V-A:GLU:543:CG:4906, V-B:GLU:543:CD:9879, V-B:HIS:456:CE1:9040, V-B:SER:385:CB:8379, V-A:HIS:456:CE1:4069, V-A:GLU:543:CD:4907, V-B:LEU:475:CD1:9228, V-B:ARG:545:CZ:9897, H-B:TYR:484:OH:9318, H-B:GLY:454:N:9020, V-B:ASP:366:CG:8183, V-B:ILE:369:CG1:8208, V-A:TYR:484:CZ:4346, V-B:GLU:543:C:9873, V-A:PRO:540:C:4880, H-A:GLU:543:OE2:4909, V-A:ASN:362:C:3171, V-A:ASN:362:CB:3175, V-A:PRO:540:CB:4884, V-A:PRO:540:CA:4882, H-A:ALA:541:N:4890, V-B:GLY:453:C:9012, V-B:GLY:453:CA:9014, V-B:GLY:454:CA:9019, V-B:SER:385:C:8375, H-A:LYS:547:NZ:4950, H-B:LYS:547:NZ:9922"]

$$$$
RR16_Rahimova_2017
     RDKit          3D

 80 85  0  0  0  0  0  0  0  0999 V2000
  130.2140  124.1220   58.6020 O   0  0  0  0  0  0  0  0  0  0  0  0
  131.4440  124.7550   59.0920 S   0  0  0  0  0  0  0  0  0  0  0  0
  132.6380  124.8360   58.2430 O   0  0  0  0  0  0  0  0  0  0  0  0
  131.8940  123.9490   60.5960 N   0  0  0  0  0  0  0  0  0  0  0  0
  131.8980  122.4710   60.6960 C   0  0  0  0  0  0  0  0  0  0  0  0
  133.3200  121.9910   61.0880 C   0  0  0  0  0  0  0  0  0  0  0  0
  133.4450  120.5890   61.7150 C   0  0  0  0  0  0  0  0  0  0  0  0
  132.5370  119.5300   61.0630 C   0  0  0  0  0  0  0  0  0  0  0  0
  131.1060  119.4420   61.6200 C   0  0  0  0  0  0  0  0  0  0  0  0
  130.1740  120.6440   61.3680 C   0  0  0  0  0  0  0  0  0  0  0  0
  130.7590  122.0410   61.6490 C   0  0  0  0  0  0  0  0  0  0  0  0
  131.0090  126.4170   59.5900 C   0  0  0  0  0  0  0  0  0  0  0  0
  130.5770  126.6730   60.8940 C   0  0  0  0  0  0  0  0  0  0  0  0
  130.1260  127.9450   61.2340 C   0  0  0  0  0  0  0  0  0  0  0  0
  130.1090  128.9550   60.2700 C   0  0  0  0  0  0  0  0  0  0  0  0
  129.3980  130.5510   60.6640 S   0  0  0  0  0  0  0  0  0  0  0  0
  128.4870  130.9090   59.5690 O   0  0  0  0  0  0  0  0  0  0  0  0
  130.5030  131.4460   61.0310 O   0  0  0  0  0  0  0  0  0  0  0  0
  128.4280  130.2470   62.1180 N   0  0  0  0  0  0  0  0  0  0  0  0
  128.1760  131.4500   62.9540 C   0  0  0  0  0  0  0  0  0  0  0  0
  127.6080  131.0440   64.3290 C   0  0  0  0  0  0  0  0  0  0  0  0
  126.3630  130.1330   64.1900 C   0  0  0  0  0  0  0  0  0  0  0  0
  125.8120  129.6800   65.5440 C   0  0  0  0  0  0  0  0  0  0  0  0
  124.4870  129.9810   65.8910 C   0  0  0  0  0  0  0  0  0  0  0  0
  123.9410  129.5810   67.1120 C   0  0  0  0  0  0  0  0  0  0  0  0
  122.6420  129.8810   67.4330 O   0  0  0  0  0  0  0  0  0  0  0  0
  124.7550  128.8590   67.9970 C   0  0  0  0  0  0  0  0  0  0  0  0
  124.4930  128.3320   69.2290 N   0  0  0  0  0  0  0  0  0  0  0  0
  125.6350  127.6900   69.6560 N   0  0  0  0  0  0  0  0  0  0  0  0
  126.5930  127.8580   68.7240 N   0  0  0  0  0  0  0  0  0  0  0  0
  127.8880  127.2080   68.8770 C   0  0  0  0  0  0  0  0  0  0  0  0
  128.3540  127.1610   70.3250 C   0  0  0  0  0  0  0  0  0  0  0  0
  128.0000  126.0820   71.1420 C   0  0  0  0  0  0  0  0  0  0  0  0
  128.4450  126.0260   72.4630 C   0  0  0  0  0  0  0  0  0  0  0  0
  129.2460  127.0470   72.9740 C   0  0  0  0  0  0  0  0  0  0  0  0
  129.6050  128.1250   72.1650 C   0  0  0  0  0  0  0  0  0  0  0  0
  130.6050  129.3840   72.7910 Cl  0  0  0  0  0  0  0  0  0  0  0  0
  129.1560  128.1840   70.8430 C   0  0  0  0  0  0  0  0  0  0  0  0
  126.0930  128.5660   67.6430 C   0  0  0  0  0  0  0  0  0  0  0  0
  126.6430  128.9700   66.4220 C   0  0  0  0  0  0  0  0  0  0  0  0
  126.6050  128.9510   63.2140 C   0  0  0  0  0  0  0  0  0  0  0  0
  127.2140  129.4230   61.8790 C   0  0  0  0  0  0  0  0  0  0  0  0
  130.5800  128.7090   58.9780 C   0  0  0  0  0  0  0  0  0  0  0  0
  131.0270  127.4370   58.6370 C   0  0  0  0  0  0  0  0  0  0  0  0
  132.5310  124.4510   61.2200 H   0  0  0  0  0  0  0  0  0  0  0  0
  131.6854  121.9794   59.7352 H   0  0  0  0  0  0  0  0  0  0  0  0
  133.9352  122.0012   60.1762 H   0  0  0  0  0  0  0  0  0  0  0  0
  133.6438  122.6838   61.8787 H   0  0  0  0  0  0  0  0  0  0  0  0
  134.4893  120.2576   61.6166 H   0  0  0  0  0  0  0  0  0  0  0  0
  133.1273  120.6793   62.7642 H   0  0  0  0  0  0  0  0  0  0  0  0
  132.4679  119.7592   59.9894 H   0  0  0  0  0  0  0  0  0  0  0  0
  133.0041  118.5588   61.2835 H   0  0  0  0  0  0  0  0  0  0  0  0
  130.6312  118.5563   61.1727 H   0  0  0  0  0  0  0  0  0  0  0  0
  131.2299  119.4049   62.7124 H   0  0  0  0  0  0  0  0  0  0  0  0
  129.8710  120.6155   60.3109 H   0  0  0  0  0  0  0  0  0  0  0  0
  129.3480  120.5259   62.0848 H   0  0  0  0  0  0  0  0  0  0  0  0
  129.9453  122.7762   61.5633 H   0  0  0  0  0  0  0  0  0  0  0  0
  131.1988  121.9955   62.6562 H   0  0  0  0  0  0  0  0  0  0  0  0
  130.5933  125.8727   61.6485 H   0  0  0  0  0  0  0  0  0  0  0  0
  129.7842  128.1539   62.2585 H   0  0  0  0  0  0  0  0  0  0  0  0
  129.1209  131.9941   63.0992 H   0  0  0  0  0  0  0  0  0  0  0  0
  127.4434  132.0913   62.4422 H   0  0  0  0  0  0  0  0  0  0  0  0
  128.3845  130.5029   64.8895 H   0  0  0  0  0  0  0  0  0  0  0  0
  127.3048  131.9596   64.8579 H   0  0  0  0  0  0  0  0  0  0  0  0
  125.5743  130.7505   63.7355 H   0  0  0  0  0  0  0  0  0  0  0  0
  123.8624  130.5463   65.1836 H   0  0  0  0  0  0  0  0  0  0  0  0
  122.3960  129.6030   68.3180 H   0  0  0  0  0  0  0  0  0  0  0  0
  127.8118  126.1781   68.4982 H   0  0  0  0  0  0  0  0  0  0  0  0
  128.6243  127.7965   68.3099 H   0  0  0  0  0  0  0  0  0  0  0  0
  127.3687  125.2751   70.7415 H   0  0  0  0  0  0  0  0  0  0  0  0
  128.1639  125.1759   73.1021 H   0  0  0  0  0  0  0  0  0  0  0  0
  129.5950  127.0021   74.0162 H   0  0  0  0  0  0  0  0  0  0  0  0
  129.4340  129.0376   70.2073 H   0  0  0  0  0  0  0  0  0  0  0  0
  127.6865  128.7397   66.1610 H   0  0  0  0  0  0  0  0  0  0  0  0
  127.2944  128.2355   63.6861 H   0  0  0  0  0  0  0  0  0  0  0  0
  125.6333  128.4825   62.9986 H   0  0  0  0  0  0  0  0  0  0  0  0
  127.4868  128.5445   61.2758 H   0  0  0  0  0  0  0  0  0  0  0  0
  126.4702  130.0347   61.3474 H   0  0  0  0  0  0  0  0  0  0  0  0
  130.5972  129.5183   58.2332 H   0  0  0  0  0  0  0  0  0  0  0  0
  131.3936  127.2353   57.6197 H   0  0  0  0  0  0  0  0  0  0  0  0
  1  2  2  0
  2  3  2  0
  2  4  1  0
  4  5  1  0
  5  6  1  0
  6  7  1  0
  7  8  1  0
  8  9  1  0
  9 10  1  0
 10 11  1  0
  2 12  1  0
 12 13  2  0
 13 14  1  0
 14 15  2  0
 15 16  1  0
 16 17  2  0
 16 18  2  0
 16 19  1  0
 19 20  1  0
 20 21  1  0
 21 22  1  0
 22 23  1  0
 23 24  2  0
 24 25  1  0
 25 26  1  0
 25 27  2  0
 27 28  1  0
 28 29  2  0
 29 30  1  0
 30 31  1  0
 31 32  1  0
 32 33  2  0
 33 34  1  0
 34 35  2  0
 35 36  1  0
 36 37  1  0
 36 38  2  0
 30 39  1  0
 39 40  2  0
 22 41  1  0
 41 42  1  0
 15 43  1  0
 43 44  2  0
 11  5  1  0
 44 12  1  0
 42 19  1  0
 40 23  1  0
 39 27  1  0
 38 32  1  0
  4 45  1  0
  5 46  1  0
  6 47  1  0
  6 48  1  0
  7 49  1  0
  7 50  1  0
  8 51  1  0
  8 52  1  0
  9 53  1  0
  9 54  1  0
 10 55  1  0
 10 56  1  0
 11 57  1  0
 11 58  1  0
 13 59  1  0
 14 60  1  0
 20 61  1  0
 20 62  1  0
 21 63  1  0
 21 64  1  0
 22 65  1  0
 24 66  1  0
 26 67  1  0
 31 68  1  0
 31 69  1  0
 33 70  1  0
 34 71  1  0
 35 72  1  0
 38 73  1  0
 40 74  1  0
 41 75  1  0
 41 76  1  0
 42 77  1  0
 42 78  1  0
 43 79  1  0
 44 80  1  0
M  END
>  <Binding energies>  (1) 
[-9.29]

>  <Ligand effiencies>  (1) 
[-0.19354166666666664]

>  <Interactions>  (1) 
["V-B:ARG:545:CG:9893, V-B:GLU:543:CB:9877, V-B:GLU:543:CD:9879, V-B:HIS:456:CE1:9040, V-A:HIS:456:CE1:4069, H-B:TYR:484:OH:9318, V-B:ARG:545:CD:9894, H-B:GLY:454:N:9020, V-B:ALA:541:CB:9863, V-A:ASP:366:CG:3212, V-B:TYR:539:CE2:9847, V-B:GLU:543:C:9873, V-B:TYR:539:CZ:9848, V-B:TYR:539:CD2:9845, H-B:ILE:455:N:9025, H-B:ARG:545:N:9891, V-A:SER:385:CB:3408, V-A:ILE:369:CG2:3236, V-A:SER:385:CA:3406, V-A:LEU:475:CD2:4258, H-A:ASP:366:OD2:3214, V-B:GLY:454:CA:9019, V-A:ASP:366:CB:3211, V-A:ILE:369:CD1:3238, V-A:SER:385:C:3404, H-B:ILE:455:O:9023, H-B:HIS:456:ND1:9037, V-A:GLY:544:C:4911, V-A:GLY:544:CA:4913, H-B:TYR:539:OH:9849"]

$$$$
RR17_Rahimova_2017
     RDKit          3D

 63 66  0  0  0  0  0  0  0  0999 V2000
  123.3340  129.6110   67.6940 C   0  0  0  0  0  0  0  0  0  0  0  0
  124.1530  129.6370   66.4000 C   0  0  0  0  0  0  0  0  0  0  0  0
  124.9640  128.4660   66.3470 O   0  0  0  0  0  0  0  0  0  0  0  0
  126.2370  128.4990   66.8850 C   0  0  0  0  0  0  0  0  0  0  0  0
  126.3900  127.9540   68.1580 C   0  0  0  0  0  0  0  0  0  0  0  0
  127.6330  127.9430   68.7810 C   0  0  0  0  0  0  0  0  0  0  0  0
  128.7570  128.4830   68.1390 C   0  0  0  0  0  0  0  0  0  0  0  0
  130.0870  128.4560   68.8350 C   0  0  0  0  0  0  0  0  0  0  0  0
  130.2780  129.0180   69.9170 O   0  0  0  0  0  0  0  0  0  0  0  0
  131.2340  127.7000   68.1280 C   0  0  0  0  0  0  0  0  0  0  0  0
  130.6650  126.1330   67.3750 S   0  0  0  0  0  0  0  0  0  0  0  0
  131.9650  125.8690   66.2020 C   0  0  0  0  0  0  0  0  0  0  0  0
  133.2070  126.2700   66.3410 N   0  0  0  0  0  0  0  0  0  0  0  0
  133.9140  125.8650   65.2160 N   0  0  0  0  0  0  0  0  0  0  0  0
  133.0720  125.2290   64.4400 C   0  0  0  0  0  0  0  0  0  0  0  0
  133.4340  124.6040   63.1010 C   0  0  0  0  0  0  0  0  0  0  0  0
  132.3140  123.9440   62.4350 N   0  0  0  0  0  0  0  0  0  0  0  0
  132.3450  122.6100   61.9920 C   0  0  0  0  0  0  0  0  0  0  0  0
  131.1230  121.9960   61.7160 C   0  0  0  0  0  0  0  0  0  0  0  0
  131.0820  120.6750   61.2790 C   0  0  0  0  0  0  0  0  0  0  0  0
  132.2660  119.9520   61.1090 C   0  0  0  0  0  0  0  0  0  0  0  0
  132.2020  118.5010   60.6340 C   0  0  0  0  0  0  0  0  0  0  0  0
  132.8450  118.3180   59.4780 F   0  0  0  0  0  0  0  0  0  0  0  0
  132.7490  117.6900   61.5410 F   0  0  0  0  0  0  0  0  0  0  0  0
  130.9270  118.1520   60.4630 F   0  0  0  0  0  0  0  0  0  0  0  0
  133.4920  120.5680   61.3770 C   0  0  0  0  0  0  0  0  0  0  0  0
  133.5330  121.8890   61.8130 C   0  0  0  0  0  0  0  0  0  0  0  0
  131.8120  125.2060   65.0020 N   0  0  0  0  0  0  0  0  0  0  0  0
  130.6500  124.6140   64.4840 C   0  0  0  0  0  0  0  0  0  0  0  0
  130.2960  123.3270   64.8880 C   0  0  0  0  0  0  0  0  0  0  0  0
  129.1450  122.7380   64.3710 C   0  0  0  0  0  0  0  0  0  0  0  0
  128.3460  123.4340   63.4500 C   0  0  0  0  0  0  0  0  0  0  0  0
  127.1900  122.9300   62.8860 O   0  0  0  0  0  0  0  0  0  0  0  0
  126.0430  123.7680   62.7870 C   0  0  0  0  0  0  0  0  0  0  0  0
  128.7180  124.7210   63.0550 C   0  0  0  0  0  0  0  0  0  0  0  0
  129.8670  125.3160   63.5690 C   0  0  0  0  0  0  0  0  0  0  0  0
  128.6030  129.0300   66.8570 C   0  0  0  0  0  0  0  0  0  0  0  0
  127.3570  129.0390   66.2350 C   0  0  0  0  0  0  0  0  0  0  0  0
  124.0137  129.6326   68.5586 H   0  0  0  0  0  0  0  0  0  0  0  0
  122.6716  130.4886   67.7264 H   0  0  0  0  0  0  0  0  0  0  0  0
  122.7286  128.6932   67.7264 H   0  0  0  0  0  0  0  0  0  0  0  0
  123.4754  129.6571   65.5337 H   0  0  0  0  0  0  0  0  0  0  0  0
  124.7893  130.5340   66.3779 H   0  0  0  0  0  0  0  0  0  0  0  0
  125.5181  127.5278   68.6758 H   0  0  0  0  0  0  0  0  0  0  0  0
  127.7357  127.5072   69.7857 H   0  0  0  0  0  0  0  0  0  0  0  0
  131.6484  128.3432   67.3377 H   0  0  0  0  0  0  0  0  0  0  0  0
  131.9948  127.4556   68.8840 H   0  0  0  0  0  0  0  0  0  0  0  0
  133.8121  125.3972   62.4392 H   0  0  0  0  0  0  0  0  0  0  0  0
  134.1876  123.8287   63.3033 H   0  0  0  0  0  0  0  0  0  0  0  0
  131.5650  124.5310   62.0970 H   0  0  0  0  0  0  0  0  0  0  0  0
  130.1867  122.5589   61.8444 H   0  0  0  0  0  0  0  0  0  0  0  0
  130.1138  120.1982   61.0666 H   0  0  0  0  0  0  0  0  0  0  0  0
  134.4282  120.0062   61.2427 H   0  0  0  0  0  0  0  0  0  0  0  0
  134.5014  122.3688   62.0178 H   0  0  0  0  0  0  0  0  0  0  0  0
  130.9214  122.7812   65.6098 H   0  0  0  0  0  0  0  0  0  0  0  0
  128.8606  121.7230   64.6856 H   0  0  0  0  0  0  0  0  0  0  0  0
  125.6894  124.0263   63.7961 H   0  0  0  0  0  0  0  0  0  0  0  0
  126.3066  124.6877   62.2442 H   0  0  0  0  0  0  0  0  0  0  0  0
  125.2469  123.2373   62.2442 H   0  0  0  0  0  0  0  0  0  0  0  0
  128.0975  125.2696   62.3311 H   0  0  0  0  0  0  0  0  0  0  0  0
  130.1542  126.3306   63.2560 H   0  0  0  0  0  0  0  0  0  0  0  0
  129.4743  129.4559   66.3379 H   0  0  0  0  0  0  0  0  0  0  0  0
  127.2504  129.4716   65.2293 H   0  0  0  0  0  0  0  0  0  0  0  0
  1  2  1  0
  2  3  1  0
  3  4  1  0
  4  5  2  0
  5  6  1  0
  6  7  2  0
  7  8  1  0
  8  9  2  0
  8 10  1  0
 10 11  1  0
 11 12  1  0
 12 13  2  0
 13 14  1  0
 14 15  2  0
 15 16  1  0
 16 17  1  0
 17 18  1  0
 18 19  2  0
 19 20  1  0
 20 21  2  0
 21 22  1  0
 22 23  1  0
 22 24  1  0
 22 25  1  0
 21 26  1  0
 26 27  2  0
 15 28  1  0
 28 29  1  0
 29 30  2  0
 30 31  1  0
 31 32  2  0
 32 33  1  0
 33 34  1  0
 32 35  1  0
 35 36  2  0
  7 37  1  0
 37 38  2  0
 38  4  1  0
 28 12  1  0
 36 29  1  0
 27 18  1  0
  1 39  1  0
  1 40  1  0
  1 41  1  0
  2 42  1  0
  2 43  1  0
  5 44  1  0
  6 45  1  0
 10 46  1  0
 10 47  1  0
 16 48  1  0
 16 49  1  0
 17 50  1  0
 19 51  1  0
 20 52  1  0
 26 53  1  0
 27 54  1  0
 30 55  1  0
 31 56  1  0
 34 57  1  0
 34 58  1  0
 34 59  1  0
 35 60  1  0
 36 61  1  0
 37 62  1  0
 38 63  1  0
M  END
>  <Binding energies>  (1) 
[-8.98]

>  <Ligand effiencies>  (1) 
[-0.23025641025641028]

>  <Interactions>  (1) 
["V-B:ARG:545:CG:9893, V-A:GLU:543:CB:4905, V-B:GLU:543:CB:9877, V-A:GLU:543:CG:4906, V-B:GLU:543:CD:9879, V-B:HIS:456:CE1:9040, H-B:ARG:545:NH2:9899, H-A:GLY:454:N:4049, V-A:HIS:456:CE1:4069, H-A:ARG:545:NH1:4926, V-A:GLU:543:CD:4907, V-B:ARG:545:CZ:9897, H-A:ARG:545:NH2:4927, V-B:ARG:545:CD:9894, H-B:ALA:541:N:9862, V-A:ARG:545:CZ:4925, V-B:ALA:541:CB:9863, V-A:ASP:366:CG:3212, V-B:TYR:539:CE2:9847, V-B:TYR:539:CD2:9845, H-A:ARG:545:NE:4923, H-A:TYR:484:OH:4347, H-B:ARG:545:NE:9895, V-A:LEU:373:CD2:3280, V-B:GLU:543:CG:9878, V-B:TYR:539:CB:9842, V-A:SER:385:CB:3408, V-A:ILE:369:CG2:3236, V-A:SER:385:CA:3406, V-A:LEU:475:CD2:4258, V-B:ARG:545:CB:9892, H-A:ASP:366:OD2:3214, V-A:ILE:369:CD1:3238, V-A:SER:385:C:3404, V-B:ILE:455:C:9022, V-A:THR:477:CG2:4272"]

$$$$
RR18_Rahimova_2017
     RDKit          3D

 56 61  0  0  0  0  0  0  0  0999 V2000
  129.3150  127.4170   60.0050 C   0  0  0  0  0  0  0  0  0  0  0  0
  129.4740  127.7820   61.4590 C   0  0  0  0  0  0  0  0  0  0  0  0
  129.9280  127.1070   62.5800 C   0  0  0  0  0  0  0  0  0  0  0  0
  129.8310  127.9940   63.6520 C   0  0  0  0  0  0  0  0  0  0  0  0
  129.3210  129.1790   63.1480 C   0  0  0  0  0  0  0  0  0  0  0  0
  128.9810  130.5320   63.7660 C   0  0  1  0  0  0  0  0  0  0  0  0
  128.9000  131.6510   62.6850 C   0  0  0  0  0  0  0  0  0  0  0  0
  130.0890  132.0410   61.9340 C   0  0  0  0  0  0  0  0  0  0  0  0
  130.7890  132.9960   62.2750 O   0  0  0  0  0  0  0  0  0  0  0  0
  130.3500  131.2570   60.8620 N   0  0  0  0  0  0  0  0  0  0  0  0
  131.3830  131.3360   59.9030 C   0  0  0  0  0  0  0  0  0  0  0  0
  132.5980  130.6360   60.0140 C   0  0  0  0  0  0  0  0  0  0  0  0
  133.5820  130.7630   59.0340 C   0  0  0  0  0  0  0  0  0  0  0  0
  133.3710  131.5910   57.9360 C   0  0  0  0  0  0  0  0  0  0  0  0
  132.1770  132.2990   57.8190 C   0  0  0  0  0  0  0  0  0  0  0  0
  131.1810  132.1810   58.7930 C   0  0  0  0  0  0  0  0  0  0  0  0
  129.8930  132.9820   58.6200 C   0  0  0  0  0  0  0  0  0  0  0  0
  127.6820  132.1760   62.3880 C   0  0  0  0  0  0  0  0  0  0  0  0
  126.5280  131.8850   63.0500 N   0  0  0  0  0  0  0  0  0  0  0  0
  126.5670  131.1250   64.0810 C   0  0  0  0  0  0  0  0  0  0  0  0
  125.2000  130.7850   65.1160 S   0  0  0  0  0  0  0  0  0  0  0  0
  126.2010  129.7580   66.1890 C   0  0  0  0  0  0  0  0  0  0  0  0
  125.7900  129.0880   67.3210 C   0  0  0  0  0  0  0  0  0  0  0  0
  124.4130  129.2400   67.8140 C   0  0  0  0  0  0  0  0  0  0  0  0
  123.4740  129.8880   67.3540 O   0  0  0  0  0  0  0  0  0  0  0  0
  124.3130  128.5290   68.9420 N   0  0  0  0  0  0  0  0  0  0  0  0
  125.4640  127.8750   69.2620 C   0  0  0  0  0  0  0  0  0  0  0  0
  125.6980  127.0410   70.3550 C   0  0  0  0  0  0  0  0  0  0  0  0
  126.9460  126.4390   70.4860 C   0  0  0  0  0  0  0  0  0  0  0  0
  127.9270  126.6700   69.5240 C   0  0  0  0  0  0  0  0  0  0  0  0
  127.6690  127.5100   68.4380 C   0  0  0  0  0  0  0  0  0  0  0  0
  126.4210  128.1470   68.3000 C   0  0  0  0  0  0  0  0  0  0  0  0
  127.5680  129.7550   65.6660 C   0  0  0  0  0  0  0  0  0  0  0  0
  128.5400  129.2010   66.1700 O   0  0  0  0  0  0  0  0  0  0  0  0
  127.6780  130.4790   64.5190 N   0  0  0  0  0  0  0  0  0  0  0  0
  129.1060  129.0420   61.8120 O   0  0  0  0  0  0  0  0  0  0  0  0
  128.8769  126.4112   59.9252 H   0  0  0  0  0  0  0  0  0  0  0  0
  128.6527  128.1454   59.5144 H   0  0  0  0  0  0  0  0  0  0  0  0
  130.2995  127.4281   59.5144 H   0  0  0  0  0  0  0  0  0  0  0  0
  130.2946  126.0706   62.6176 H   0  0  0  0  0  0  0  0  0  0  0  0
  130.1067  127.7913   64.6974 H   0  0  0  0  0  0  0  0  0  0  0  0
  129.7942  130.7705   64.4673 H   0  0  0  0  0  0  0  0  0  0  0  0
  129.7450  130.4580   60.7450 H   0  0  0  0  0  0  0  0  0  0  0  0
  132.7735  129.9827   60.8814 H   0  0  0  0  0  0  0  0  0  0  0  0
  134.5267  130.2075   59.1293 H   0  0  0  0  0  0  0  0  0  0  0  0
  134.1460  131.6865   57.1613 H   0  0  0  0  0  0  0  0  0  0  0  0
  132.0163  132.9570   56.9523 H   0  0  0  0  0  0  0  0  0  0  0  0
  129.4838  133.2365   59.6089 H   0  0  0  0  0  0  0  0  0  0  0  0
  130.1079  133.9060   58.0632 H   0  0  0  0  0  0  0  0  0  0  0  0
  129.1592  132.3807   58.0632 H   0  0  0  0  0  0  0  0  0  0  0  0
  127.6241  132.8881   61.5516 H   0  0  0  0  0  0  0  0  0  0  0  0
  123.4620  128.4700   69.4830 H   0  0  0  0  0  0  0  0  0  0  0  0
  124.9096  126.8620   71.1009 H   0  0  0  0  0  0  0  0  0  0  0  0
  127.1567  125.7843   71.3445 H   0  0  0  0  0  0  0  0  0  0  0  0
  128.9110  126.1878   69.6202 H   0  0  0  0  0  0  0  0  0  0  0  0
  128.4503  127.6757   67.6816 H   0  0  0  0  0  0  0  0  0  0  0  0
  1  2  1  0
  2  3  2  0
  3  4  1  0
  4  5  2  0
  5  6  1  0
  6  7  1  0
  7  8  1  0
  8  9  2  0
  8 10  1  0
 10 11  1  0
 11 12  2  0
 12 13  1  0
 13 14  2  0
 14 15  1  0
 15 16  2  0
 16 17  1  0
  7 18  2  0
 18 19  1  0
 19 20  2  0
 20 21  1  0
 21 22  1  0
 22 23  2  0
 23 24  1  0
 24 25  2  0
 24 26  1  0
 26 27  1  0
 27 28  2  0
 28 29  1  0
 29 30  2  0
 30 31  1  0
 31 32  2  0
 22 33  1  0
 33 34  2  0
 33 35  1  0
  5 36  1  0
 36  2  1  0
 35  6  1  0
 16 11  1  0
 35 20  1  0
 32 23  1  0
 32 27  1  0
  1 37  1  0
  1 38  1  0
  1 39  1  0
  3 40  1  0
  4 41  1  0
  6 42  1  1
 10 43  1  0
 12 44  1  0
 13 45  1  0
 14 46  1  0
 15 47  1  0
 17 48  1  0
 17 49  1  0
 17 50  1  0
 18 51  1  0
 26 52  1  0
 28 53  1  0
 29 54  1  0
 30 55  1  0
 31 56  1  0
M  END
>  <Binding energies>  (1) 
[-9.29]

>  <Ligand effiencies>  (1) 
[-0.2444736842105263]

>  <Interactions>  (1) 
["V-B:ARG:545:CG:9893, V-B:GLU:543:CB:9877, V-A:GLU:543:CG:4906, V-B:GLU:543:CD:9879, V-B:HIS:456:CE1:9040, V-A:TYR:539:CD1:4872, V-A:GLU:543:CD:4907, H-B:TYR:484:OH:9318, V-B:ARG:545:CD:9894, H-B:GLY:454:N:9020, V-B:TYR:484:CZ:9317, V-A:ASP:366:CG:3212, V-B:GLU:543:C:9873, V-B:GLY:544:C:9883, V-A:ASN:362:C:3171, H-B:ILE:455:N:9025, V-A:PRO:540:CB:4884, V-A:PRO:540:CA:4882, H-A:ALA:541:N:4890, V-B:ARG:545:CA:9890, V-B:ARG:545:CB:9892, V-A:LEU:363:CA:3184, V-A:TYR:531:CE2:4792, V-A:LEU:363:CD1:3188, V-A:PRO:540:N:4883, V-B:GLY:454:CA:9019, V-A:TYR:539:C:4866, V-A:ASP:366:CB:3211, H-B:ILE:455:O:9023, V-B:GLU:543:CA:9875, V-A:TYR:531:CZ:4793"]

$$$$
RR19_Rahimova_2017
     RDKit          3D

 72 77  0  0  0  0  0  0  0  0999 V2000
  131.0300  128.3500   68.7480 O   0  0  0  0  0  0  0  0  0  0  0  0
  130.1230  127.6560   68.2800 C   0  0  0  0  0  0  0  0  0  0  0  0
  130.2470  126.7610   67.2670 N   0  0  0  0  0  0  0  0  0  0  0  0
  131.3340  126.2040   66.6380 C   0  0  0  0  0  0  0  0  0  0  0  0
  132.9410  126.3260   67.1540 S   0  0  0  0  0  0  0  0  0  0  0  0
  130.8990  125.5340   65.5210 N   0  0  0  0  0  0  0  0  0  0  0  0
  131.5170  124.7080   64.6400 C   0  0  0  0  0  0  0  0  0  0  0  0
  132.6410  124.2150   64.7640 O   0  0  0  0  0  0  0  0  0  0  0  0
  130.6870  124.4140   63.3650 C   0  0  2  0  0  0  0  0  0  0  0  0
  129.1460  124.3830   63.5830 C   0  0  0  0  0  0  0  0  0  0  0  0
  128.3230  124.0820   62.3410 C   0  0  0  0  0  0  0  0  0  0  0  0
  126.9570  123.7420   62.4430 C   0  0  0  0  0  0  0  0  0  0  0  0
  126.2010  123.5480   61.2940 C   0  0  0  0  0  0  0  0  0  0  0  0
  126.7800  123.7050   60.0400 C   0  0  0  0  0  0  0  0  0  0  0  0
  128.1150  124.0700   59.9240 C   0  0  0  0  0  0  0  0  0  0  0  0
  128.8870  124.2710   61.0610 C   0  0  0  0  0  0  0  0  0  0  0  0
  131.1670  123.1840   62.6790 N   0  0  0  0  0  0  0  0  0  0  0  0
  130.5320  121.9880   62.8400 C   0  0  0  0  0  0  0  0  0  0  0  0
  129.5520  121.7530   63.5510 O   0  0  0  0  0  0  0  0  0  0  0  0
  131.2650  121.0300   61.9770 C   0  0  0  0  0  0  0  0  0  0  0  0
  131.0660  119.6680   61.7480 C   0  0  0  0  0  0  0  0  0  0  0  0
  131.9210  119.0050   60.8610 C   0  0  0  0  0  0  0  0  0  0  0  0
  132.9520  119.7050   60.2190 C   0  0  0  0  0  0  0  0  0  0  0  0
  133.1340  121.0720   60.4610 C   0  0  0  0  0  0  0  0  0  0  0  0
  132.2710  121.7130   61.3510 C   0  0  0  0  0  0  0  0  0  0  0  0
  132.2080  123.1270   61.7950 C   0  0  0  0  0  0  0  0  0  0  0  0
  132.9370  124.0530   61.4340 O   0  0  0  0  0  0  0  0  0  0  0  0
  128.6870  127.7840   68.8520 C   0  0  2  0  0  0  0  0  0  0  0  0
  128.2130  126.5380   69.6540 C   0  0  0  0  0  0  0  0  0  0  0  0
  128.2370  126.7290   71.1600 C   0  0  0  0  0  0  0  0  0  0  0  0
  129.2650  127.4870   71.7620 C   0  0  0  0  0  0  0  0  0  0  0  0
  129.2290  127.7450   73.1260 C   0  0  0  0  0  0  0  0  0  0  0  0
  128.1700  127.2850   73.8990 C   0  0  0  0  0  0  0  0  0  0  0  0
  127.1320  126.5720   73.3130 C   0  0  0  0  0  0  0  0  0  0  0  0
  127.1500  126.3010   71.9510 C   0  0  0  0  0  0  0  0  0  0  0  0
  127.6780  128.1920   67.8320 N   0  0  0  0  0  0  0  0  0  0  0  0
  126.3590  128.3310   68.1440 C   0  0  0  0  0  0  0  0  0  0  0  0
  125.8260  128.1360   69.2370 O   0  0  0  0  0  0  0  0  0  0  0  0
  125.7020  128.7660   66.8860 C   0  0  0  0  0  0  0  0  0  0  0  0
  124.3650  129.0550   66.6060 C   0  0  0  0  0  0  0  0  0  0  0  0
  124.0240  129.4530   65.3080 C   0  0  0  0  0  0  0  0  0  0  0  0
  125.0110  129.5600   64.3200 C   0  0  0  0  0  0  0  0  0  0  0  0
  126.3470  129.2680   64.6220 C   0  0  0  0  0  0  0  0  0  0  0  0
  126.6660  128.8700   65.9210 C   0  0  0  0  0  0  0  0  0  0  0  0
  127.9660  128.5050   66.5340 C   0  0  0  0  0  0  0  0  0  0  0  0
  129.0690  128.4870   65.9870 O   0  0  0  0  0  0  0  0  0  0  0  0
  129.3680  126.3530   66.9850 H   0  0  0  0  0  0  0  0  0  0  0  0
  129.9570  125.7740   65.2480 H   0  0  0  0  0  0  0  0  0  0  0  0
  130.8601  125.2772   62.7055 H   0  0  0  0  0  0  0  0  0  0  0  0
  128.9239  123.6105   64.3339 H   0  0  0  0  0  0  0  0  0  0  0  0
  128.8618  125.3975   63.8993 H   0  0  0  0  0  0  0  0  0  0  0  0
  126.4908  123.6306   63.4331 H   0  0  0  0  0  0  0  0  0  0  0  0
  125.1402  123.2691   61.3767 H   0  0  0  0  0  0  0  0  0  0  0  0
  126.1776  123.5393   59.1347 H   0  0  0  0  0  0  0  0  0  0  0  0
  128.5627  124.2004   58.9277 H   0  0  0  0  0  0  0  0  0  0  0  0
  129.9389  124.5778   60.9638 H   0  0  0  0  0  0  0  0  0  0  0  0
  130.2534  119.1266   62.2546 H   0  0  0  0  0  0  0  0  0  0  0  0
  131.7838  117.9310   60.6668 H   0  0  0  0  0  0  0  0  0  0  0  0
  133.6207  119.1782   59.5223 H   0  0  0  0  0  0  0  0  0  0  0  0
  133.9399  121.6288   59.9604 H   0  0  0  0  0  0  0  0  0  0  0  0
  128.7616  128.6076   69.5773 H   0  0  0  0  0  0  0  0  0  0  0  0
  127.1819  126.3031   69.3512 H   0  0  0  0  0  0  0  0  0  0  0  0
  128.9168  125.7244   69.4245 H   0  0  0  0  0  0  0  0  0  0  0  0
  130.0941  127.8730   71.1507 H   0  0  0  0  0  0  0  0  0  0  0  0
  130.0427  128.3162   73.5967 H   0  0  0  0  0  0  0  0  0  0  0  0
  128.1536  127.4865   74.9803 H   0  0  0  0  0  0  0  0  0  0  0  0
  126.2921  126.2205   73.9303 H   0  0  0  0  0  0  0  0  0  0  0  0
  126.3162  125.7523   71.4887 H   0  0  0  0  0  0  0  0  0  0  0  0
  123.5963  128.9717   67.3884 H   0  0  0  0  0  0  0  0  0  0  0  0
  122.9765  129.6827   65.0629 H   0  0  0  0  0  0  0  0  0  0  0  0
  124.7356  129.8747   63.3026 H   0  0  0  0  0  0  0  0  0  0  0  0
  127.1281  129.3506   63.8519 H   0  0  0  0  0  0  0  0  0  0  0  0
  1  2  2  0
  2  3  1  0
  3  4  1  0
  4  5  2  0
  4  6  1  0
  6  7  1  0
  7  8  2  0
  7  9  1  0
  9 10  1  0
 10 11  1  0
 11 12  2  0
 12 13  1  0
 13 14  2  0
 14 15  1  0
 15 16  2  0
  9 17  1  0
 17 18  1  0
 18 19  2  0
 18 20  1  0
 20 21  2  0
 21 22  1  0
 22 23  2  0
 23 24  1  0
 24 25  2  0
 25 26  1  0
 26 27  2  0
  2 28  1  0
 28 29  1  0
 29 30  1  0
 30 31  2  0
 31 32  1  0
 32 33  2  0
 33 34  1  0
 34 35  2  0
 28 36  1  0
 36 37  1  0
 37 38  2  0
 37 39  1  0
 39 40  2  0
 40 41  1  0
 41 42  2  0
 42 43  1  0
 43 44  2  0
 44 45  1  0
 45 46  2  0
 16 11  1  0
 26 17  1  0
 35 30  1  0
 45 36  1  0
 25 20  1  0
 44 39  1  0
  3 47  1  0
  6 48  1  0
  9 49  1  6
 10 50  1  0
 10 51  1  0
 12 52  1  0
 13 53  1  0
 14 54  1  0
 15 55  1  0
 16 56  1  0
 21 57  1  0
 22 58  1  0
 23 59  1  0
 24 60  1  0
 28 61  1  1
 29 62  1  0
 29 63  1  0
 31 64  1  0
 32 65  1  0
 33 66  1  0
 34 67  1  0
 35 68  1  0
 40 69  1  0
 41 70  1  0
 42 71  1  0
 43 72  1  0
M  END
>  <Binding energies>  (1) 
[-11.94]

>  <Ligand effiencies>  (1) 
[-0.24875]

>  <Interactions>  (1) 
["V-B:ARG:545:CG:9893, V-A:GLU:543:CB:4905, V-B:GLU:543:CB:9877, V-B:GLU:543:CD:9879, V-B:HIS:456:CE1:9040, H-A:GLY:454:N:4049, V-A:HIS:456:CE1:4069, V-B:ARG:545:CZ:9897, V-B:ARG:545:CD:9894, V-B:PRO:540:CA:9854, V-B:PRO:540:CB:9856, V-B:ALA:541:CB:9863, V-A:ARG:545:CD:4922, V-A:ARG:545:CG:4921, V-B:TYR:539:CE2:9847, V-B:GLU:543:C:9873, V-B:GLY:544:C:9883, V-B:TYR:539:CD2:9845, H-A:TYR:484:OH:4347, V-A:ILE:369:CG2:3236, V-A:SER:385:CA:3406, V-A:LEU:475:CD2:4258, H-B:GLU:543:OE2:9881, H-B:HIS:456:ND1:9037, V-B:GLY:544:CA:9885, V-B:LYS:547:CE:9921"]

$$$$
RR19_Rahimova_2017-again1
     RDKit          3D

 71 76  0  0  0  0  0  0  0  0999 V2000
  131.6180  127.5990   68.1400 O   0  0  0  0  0  0  0  0  0  0  0  0
  130.5800  127.2640   67.5640 C   0  0  0  0  0  0  0  0  0  0  0  0
  130.5060  126.5500   66.4160 N   0  0  0  0  0  0  0  0  0  0  0  0
  131.4440  125.8940   65.6690 C   0  0  0  0  0  0  0  0  0  0  0  0
  133.1140  125.8240   65.8420 S   0  0  0  0  0  0  0  0  0  0  0  0
  130.7540  125.1730   64.7110 N   0  0  0  0  0  0  0  0  0  0  0  0
  130.4000  123.9290   64.7220 C   0  0  0  0  0  0  0  0  0  0  0  0
  130.5050  123.0670   65.6170 O   0  0  0  0  0  0  0  0  0  0  0  0
  129.7480  123.4040   63.3980 C   0  0  2  0  0  0  0  0  0  0  0  0
  128.2770  122.9270   63.6370 C   0  0  0  0  0  0  0  0  0  0  0  0
  127.2880  123.3560   62.5550 C   0  0  0  0  0  0  0  0  0  0  0  0
  125.9570  123.6160   62.8920 C   0  0  0  0  0  0  0  0  0  0  0  0
  125.0580  124.0220   61.9090 C   0  0  0  0  0  0  0  0  0  0  0  0
  125.4930  124.1640   60.5920 C   0  0  0  0  0  0  0  0  0  0  0  0
  126.8180  123.9020   60.2490 C   0  0  0  0  0  0  0  0  0  0  0  0
  127.7160  123.4950   61.2320 C   0  0  0  0  0  0  0  0  0  0  0  0
  130.6080  122.4280   62.6520 N   0  0  0  0  0  0  0  0  0  0  0  0
  131.9660  122.5520   62.6180 C   0  0  0  0  0  0  0  0  0  0  0  0
  132.6500  123.4300   63.1450 O   0  0  0  0  0  0  0  0  0  0  0  0
  132.4460  121.4040   61.8070 C   0  0  0  0  0  0  0  0  0  0  0  0
  133.7370  121.0240   61.4350 C   0  0  0  0  0  0  0  0  0  0  0  0
  133.8960  119.8750   60.6530 C   0  0  0  0  0  0  0  0  0  0  0  0
  132.7790  119.1280   60.2580 C   0  0  0  0  0  0  0  0  0  0  0  0
  131.4940  119.5250   60.6410 C   0  0  0  0  0  0  0  0  0  0  0  0
  131.3550  120.6750   61.4200 C   0  0  0  0  0  0  0  0  0  0  0  0
  130.1470  121.3330   61.9720 C   0  0  0  0  0  0  0  0  0  0  0  0
  128.9800  120.9680   61.8440 O   0  0  0  0  0  0  0  0  0  0  0  0
  129.2010  127.6750   68.1610 C   0  0  2  0  0  0  0  0  0  0  0  0
  128.5850  128.9410   67.5010 C   0  0  0  0  0  0  0  0  0  0  0  0
  127.0720  128.9010   67.3820 C   0  0  0  0  0  0  0  0  0  0  0  0
  126.2830  128.5710   68.5030 C   0  0  0  0  0  0  0  0  0  0  0  0
  124.8980  128.6300   68.4210 C   0  0  0  0  0  0  0  0  0  0  0  0
  124.2830  129.0410   67.2440 C   0  0  0  0  0  0  0  0  0  0  0  0
  125.0490  129.4060   66.1430 C   0  0  0  0  0  0  0  0  0  0  0  0
  126.4350  129.3530   66.2060 C   0  0  0  0  0  0  0  0  0  0  0  0
  129.1830  127.7550   69.6530 N   0  0  0  0  0  0  0  0  0  0  0  0
  128.5270  126.8310   70.4110 C   0  0  0  0  0  0  0  0  0  0  0  0
  127.8260  125.9000   70.0120 O   0  0  0  0  0  0  0  0  0  0  0  0
  128.8430  127.1770   71.8180 C   0  0  0  0  0  0  0  0  0  0  0  0
  128.4580  126.5740   73.0170 C   0  0  0  0  0  0  0  0  0  0  0  0
  128.9310  127.1110   74.2190 C   0  0  0  0  0  0  0  0  0  0  0  0
  129.7700  128.2330   74.2090 C   0  0  0  0  0  0  0  0  0  0  0  0
  130.1430  128.8260   72.9970 C   0  0  0  0  0  0  0  0  0  0  0  0
  129.6620  128.2730   71.8100 C   0  0  0  0  0  0  0  0  0  0  0  0
  129.8990  128.6520   70.3950 C   0  0  0  0  0  0  0  0  0  0  0  0
  130.6030  129.5730   69.9790 O   0  0  0  0  0  0  0  0  0  0  0  0
  129.5640  126.3970   66.0910 H   0  0  0  0  0  0  0  0  0  0  0  0
  129.6796  124.2586   62.7088 H   0  0  0  0  0  0  0  0  0  0  0  0
  128.2761  121.8281   63.6871 H   0  0  0  0  0  0  0  0  0  0  0  0
  127.9427  123.4006   64.5718 H   0  0  0  0  0  0  0  0  0  0  0  0
  125.6198  123.5001   63.9326 H   0  0  0  0  0  0  0  0  0  0  0  0
  124.0099  124.2296   62.1703 H   0  0  0  0  0  0  0  0  0  0  0  0
  124.7831  124.4861   59.8159 H   0  0  0  0  0  0  0  0  0  0  0  0
  127.1526  124.0161   59.2073 H   0  0  0  0  0  0  0  0  0  0  0  0
  128.7624  123.2829   60.9673 H   0  0  0  0  0  0  0  0  0  0  0  0
  134.6097  121.6150   61.7498 H   0  0  0  0  0  0  0  0  0  0  0  0
  134.9034  119.5566   60.3468 H   0  0  0  0  0  0  0  0  0  0  0  0
  132.9131  118.2253   59.6439 H   0  0  0  0  0  0  0  0  0  0  0  0
  130.6117  118.9436   60.3350 H   0  0  0  0  0  0  0  0  0  0  0  0
  128.5392  126.8372   67.8963 H   0  0  0  0  0  0  0  0  0  0  0  0
  128.8613  129.8163   68.1072 H   0  0  0  0  0  0  0  0  0  0  0  0
  128.9836  128.9921   66.4770 H   0  0  0  0  0  0  0  0  0  0  0  0
  126.7651  128.2664   69.4436 H   0  0  0  0  0  0  0  0  0  0  0  0
  124.2852  128.3505   69.2907 H   0  0  0  0  0  0  0  0  0  0  0  0
  123.1853  129.0775   67.1837 H   0  0  0  0  0  0  0  0  0  0  0  0
  124.5551  129.7382   65.2180 H   0  0  0  0  0  0  0  0  0  0  0  0
  127.0370  129.6633   65.3392 H   0  0  0  0  0  0  0  0  0  0  0  0
  127.7966  125.6951   73.0165 H   0  0  0  0  0  0  0  0  0  0  0  0
  128.6431  126.6506   75.1756 H   0  0  0  0  0  0  0  0  0  0  0  0
  130.1375  128.6500   75.1582 H   0  0  0  0  0  0  0  0  0  0  0  0
  130.8003  129.7078   72.9810 H   0  0  0  0  0  0  0  0  0  0  0  0
  1  2  2  0
  2  3  1  0
  3  4  1  0
  4  5  2  0
  4  6  1  0
  6  7  2  0
  7  8  1  0
  7  9  1  0
  9 10  1  0
 10 11  1  0
 11 12  2  0
 12 13  1  0
 13 14  2  0
 14 15  1  0
 15 16  2  0
  9 17  1  0
 17 18  1  0
 18 19  2  0
 18 20  1  0
 20 21  2  0
 21 22  1  0
 22 23  2  0
 23 24  1  0
 24 25  2  0
 25 26  1  0
 26 27  2  0
  2 28  1  0
 28 29  1  0
 29 30  1  0
 30 31  2  0
 31 32  1  0
 32 33  2  0
 33 34  1  0
 34 35  2  0
 28 36  1  0
 36 37  1  0
 37 38  2  0
 37 39  1  0
 39 40  2  0
 40 41  1  0
 41 42  2  0
 42 43  1  0
 43 44  2  0
 44 45  1  0
 45 46  2  0
 16 11  1  0
 26 17  1  0
 35 30  1  0
 45 36  1  0
 25 20  1  0
 44 39  1  0
  3 47  1  0
  9 48  1  6
 10 49  1  0
 10 50  1  0
 12 51  1  0
 13 52  1  0
 14 53  1  0
 15 54  1  0
 16 55  1  0
 21 56  1  0
 22 57  1  0
 23 58  1  0
 24 59  1  0
 28 60  1  1
 29 61  1  0
 29 62  1  0
 31 63  1  0
 32 64  1  0
 33 65  1  0
 34 66  1  0
 35 67  1  0
 40 68  1  0
 41 69  1  0
 42 70  1  0
 43 71  1  0
M  CHG  1   8  -1
M  END
>  <Binding energies>  (1) 
[-11.59]

>  <Ligand effiencies>  (1) 
[-0.24659574468085105]

>  <Interactions>  (1) 
["V-B:ARG:545:CG:9893, V-A:GLU:543:CB:4905, V-A:GLU:543:CG:4906, V-B:GLU:543:CD:9879, V-B:HIS:456:CE1:9040, V-A:HIS:456:CE1:4069, V-A:GLU:543:CD:4907, V-B:ARG:545:CD:9894, H-B:ALA:541:N:9862, V-B:PRO:540:CA:9854, V-A:ARG:545:CZ:4925, V-B:PRO:540:CB:9856, V-B:ALA:541:CB:9863, V-B:TYR:539:CE2:9847, H-A:GLY:544:N:4914, V-B:TYR:539:CD2:9845, H-A:TYR:484:OH:4347, V-B:ALA:541:C:9859, V-B:GLU:543:CG:9878, V-B:ALA:541:CA:9861, V-A:SER:385:CB:3408, V-A:ILE:369:CG2:3236, V-A:SER:385:CA:3406, V-A:LEU:475:CD2:4258, V-B:ARG:545:CB:9892, H-B:GLU:543:OE2:9881, V-A:ILE:369:CD1:3238, V-A:SER:385:C:3404"]

$$$$
RR1_Rahimova_2017
     RDKit          3D

 68 71  0  0  0  0  0  0  0  0999 V2000
  133.8470  121.8380   62.8430 C   0  0  0  0  0  0  0  0  0  0  0  0
  132.5430  122.4080   62.8250 O   0  0  0  0  0  0  0  0  0  0  0  0
  132.2640  123.4800   63.6500 C   0  0  0  0  0  0  0  0  0  0  0  0
  133.1520  124.5390   63.8990 C   0  0  0  0  0  0  0  0  0  0  0  0
  132.7860  125.5750   64.7530 C   0  0  0  0  0  0  0  0  0  0  0  0
  131.5320  125.5780   65.3640 C   0  0  0  0  0  0  0  0  0  0  0  0
  131.2730  126.6450   66.2450 N   0  0  0  0  0  0  0  0  0  0  0  0
  130.6300  126.6370   67.4330 C   0  0  0  0  0  0  0  0  0  0  0  0
  130.0790  125.6530   67.9260 O   0  0  0  0  0  0  0  0  0  0  0  0
  130.6190  127.9900   68.1630 C   0  0  0  0  0  0  0  0  0  0  0  0
  128.9640  128.6450   68.5720 S   0  0  0  0  0  0  0  0  0  0  0  0
  128.5480  127.4820   69.8280 C   0  0  0  0  0  0  0  0  0  0  0  0
  129.3740  127.0760   70.7580 N   0  0  0  0  0  0  0  0  0  0  0  0
  128.6490  126.2280   71.4800 C   0  0  0  0  0  0  0  0  0  0  0  0
  129.2020  125.5210   72.6850 C   0  0  0  0  0  0  0  0  0  0  0  0
  129.6280  124.1840   72.6200 C   0  0  0  0  0  0  0  0  0  0  0  0
  130.1350  123.5520   73.7570 C   0  0  0  0  0  0  0  0  0  0  0  0
  130.2050  124.2780   74.9450 C   0  0  0  0  0  0  0  0  0  0  0  0
  129.8020  125.5700   75.0430 N   0  0  0  0  0  0  0  0  0  0  0  0
  129.3130  126.1670   73.9260 C   0  0  0  0  0  0  0  0  0  0  0  0
  127.4070  126.0540   71.0690 N   0  0  0  0  0  0  0  0  0  0  0  0
  127.3390  126.8590   70.0050 N   0  0  0  0  0  0  0  0  0  0  0  0
  126.0940  126.9860   69.2470 C   0  0  0  0  0  0  0  0  0  0  0  0
  125.9920  128.2480   68.3720 C   0  0  0  0  0  0  0  0  0  0  0  0
  125.3860  129.2480   68.7730 O   0  0  0  0  0  0  0  0  0  0  0  0
  126.6010  128.1590   67.1740 N   0  0  0  0  0  0  0  0  0  0  0  0
  126.6770  129.3050   66.3930 N   0  0  0  0  0  0  0  0  0  0  0  0
  127.7280  129.4260   65.5530 C   0  0  0  0  0  0  0  0  0  0  0  0
  128.5660  128.5380   65.3600 O   0  0  0  0  0  0  0  0  0  0  0  0
  127.8220  130.7400   64.8050 C   0  0  0  0  0  0  0  0  0  0  0  0
  126.7690  131.6590   64.8740 C   0  0  0  0  0  0  0  0  0  0  0  0
  126.8290  132.8670   64.1860 C   0  0  0  0  0  0  0  0  0  0  0  0
  127.9450  133.1900   63.3980 C   0  0  0  0  0  0  0  0  0  0  0  0
  128.0620  134.3660   62.6790 O   0  0  0  0  0  0  0  0  0  0  0  0
  127.4780  134.4560   61.3840 C   0  0  0  0  0  0  0  0  0  0  0  0
  129.0070  132.2790   63.3100 C   0  0  0  0  0  0  0  0  0  0  0  0
  130.0750  132.6360   62.5040 O   0  0  0  0  0  0  0  0  0  0  0  0
  130.7240  131.6450   61.7160 C   0  0  0  0  0  0  0  0  0  0  0  0
  128.9370  131.0650   64.0160 C   0  0  0  0  0  0  0  0  0  0  0  0
  130.6410  124.5220   65.1170 C   0  0  0  0  0  0  0  0  0  0  0  0
  131.0100  123.4880   64.2620 C   0  0  0  0  0  0  0  0  0  0  0  0
  134.1709  121.6964   63.8846 H   0  0  0  0  0  0  0  0  0  0  0  0
  133.8292  120.8656   62.3291 H   0  0  0  0  0  0  0  0  0  0  0  0
  134.5487  122.5115   62.3291 H   0  0  0  0  0  0  0  0  0  0  0  0
  134.1408  124.5497   63.4171 H   0  0  0  0  0  0  0  0  0  0  0  0
  133.4904  126.3972   64.9476 H   0  0  0  0  0  0  0  0  0  0  0  0
  131.5910  127.5450   65.9140 H   0  0  0  0  0  0  0  0  0  0  0  0
  131.1797  127.8736   69.1022 H   0  0  0  0  0  0  0  0  0  0  0  0
  131.0683  128.7138   67.4672 H   0  0  0  0  0  0  0  0  0  0  0  0
  129.5619  123.6332   71.6702 H   0  0  0  0  0  0  0  0  0  0  0  0
  130.4714  122.5055   73.7163 H   0  0  0  0  0  0  0  0  0  0  0  0
  130.6043  123.7820   75.8420 H   0  0  0  0  0  0  0  0  0  0  0  0
  128.9858  127.2148   73.9976 H   0  0  0  0  0  0  0  0  0  0  0  0
  126.0025  126.1076   68.5912 H   0  0  0  0  0  0  0  0  0  0  0  0
  125.2871  127.0612   69.9908 H   0  0  0  0  0  0  0  0  0  0  0  0
  127.2680  127.4450   66.9160 H   0  0  0  0  0  0  0  0  0  0  0  0
  126.2960  130.1060   66.8750 H   0  0  0  0  0  0  0  0  0  0  0  0
  125.8819  131.4233   65.4803 H   0  0  0  0  0  0  0  0  0  0  0  0
  125.9922  133.5771   64.2604 H   0  0  0  0  0  0  0  0  0  0  0  0
  126.3951  134.6229   61.4809 H   0  0  0  0  0  0  0  0  0  0  0  0
  127.9306  135.2950   60.8352 H   0  0  0  0  0  0  0  0  0  0  0  0
  127.6570  133.5197   60.8352 H   0  0  0  0  0  0  0  0  0  0  0  0
  131.2059  130.9091   62.3764 H   0  0  0  0  0  0  0  0  0  0  0  0
  129.9826  131.1378   61.0812 H   0  0  0  0  0  0  0  0  0  0  0  0
  131.4853  132.1219   61.0812 H   0  0  0  0  0  0  0  0  0  0  0  0
  129.7740  130.3544   63.9487 H   0  0  0  0  0  0  0  0  0  0  0  0
  129.6522  124.5118   65.5987 H   0  0  0  0  0  0  0  0  0  0  0  0
  130.3046  122.6670   64.0662 H   0  0  0  0  0  0  0  0  0  0  0  0
  1  2  1  0
  2  3  1  0
  3  4  2  0
  4  5  1  0
  5  6  2  0
  6  7  1  0
  7  8  1  0
  8  9  2  0
  8 10  1  0
 10 11  1  0
 11 12  1  0
 12 13  2  0
 13 14  1  0
 14 15  1  0
 15 16  2  0
 16 17  1  0
 17 18  2  0
 18 19  1  0
 19 20  2  0
 14 21  2  0
 21 22  1  0
 22 23  1  0
 23 24  1  0
 24 25  2  0
 24 26  1  0
 26 27  1  0
 27 28  1  0
 28 29  2  0
 28 30  1  0
 30 31  2  0
 31 32  1  0
 32 33  2  0
 33 34  1  0
 34 35  1  0
 33 36  1  0
 36 37  1  0
 37 38  1  0
 36 39  2  0
  6 40  1  0
 40 41  2  0
 41  3  1  0
 22 12  1  0
 39 30  1  0
 20 15  1  0
  1 42  1  0
  1 43  1  0
  1 44  1  0
  4 45  1  0
  5 46  1  0
  7 47  1  0
 10 48  1  0
 10 49  1  0
 16 50  1  0
 17 51  1  0
 18 52  1  0
 20 53  1  0
 23 54  1  0
 23 55  1  0
 26 56  1  0
 27 57  1  0
 31 58  1  0
 32 59  1  0
 35 60  1  0
 35 61  1  0
 35 62  1  0
 38 63  1  0
 38 64  1  0
 38 65  1  0
 39 66  1  0
 40 67  1  0
 41 68  1  0
M  END
>  <Binding energies>  (1) 
[-8.32]

>  <Ligand effiencies>  (1) 
[-0.1890909090909091]

>  <Interactions>  (1) 
["V-B:ARG:545:CG:9893, V-A:GLU:543:CB:4905, V-B:GLU:543:CB:9877, V-A:GLU:543:CG:4906, V-B:GLU:543:CD:9879, V-B:HIS:456:CE1:9040, V-A:ALA:541:CB:4891, V-A:HIS:456:CE1:4069, V-A:TYR:539:CD1:4872, V-A:GLU:543:CD:4907, V-A:GLY:454:CA:4048, V-B:LEU:475:CD1:9228, H-B:TYR:484:OH:9318, V-A:ARG:545:CZ:4925, H-A:TYR:484:OH:4347, H-A:GLU:543:OE2:4909, H-A:ALA:541:N:4890, V-B:GLU:543:CG:9878, V-A:LEU:475:CD2:4258, V-B:ARG:545:CA:9890, H-B:GLU:543:OE2:9881, V-A:ILE:369:CD1:3238, V-A:SER:385:C:3404, H-B:GLU:543:OE1:9880, H-B:HIS:456:ND1:9037, V-B:LYS:547:CE:9921, H-A:GLU:543:OE1:4908, H-B:LYS:547:NZ:9922, V-A:HIS:456:CD2:4067, V-A:TYR:484:CD2:4343"]

$$$$
RR20_Rahimova_2017
     RDKit          3D

 68 73  0  0  0  0  0  0  0  0999 V2000
  135.2140  124.4860   76.7430 C   0  0  0  0  0  0  0  0  0  0  0  0
  134.1510  125.3440   76.0820 C   0  0  0  0  0  0  0  0  0  0  0  0
  134.4910  126.5920   75.5600 C   0  0  0  0  0  0  0  0  0  0  0  0
  133.5190  127.3770   74.9450 C   0  0  0  0  0  0  0  0  0  0  0  0
  132.1970  126.9260   74.8600 C   0  0  0  0  0  0  0  0  0  0  0  0
  131.1600  127.7860   74.1700 C   0  0  0  0  0  0  0  0  0  0  0  0
  131.0970  128.9740   74.4930 O   0  0  0  0  0  0  0  0  0  0  0  0
  130.3540  127.2280   73.2190 N   0  0  0  0  0  0  0  0  0  0  0  0
  129.4770  126.0870   73.5250 C   0  0  0  0  0  0  0  0  0  0  0  0
  128.6340  125.8500   72.2830 C   0  0  0  0  0  0  0  0  0  0  0  0
  128.8320  127.1120   71.5000 C   0  0  0  0  0  0  0  0  0  0  0  0
  128.2330  127.5060   70.3020 C   0  0  0  0  0  0  0  0  0  0  0  0
  128.6690  128.6560   69.6320 C   0  0  0  0  0  0  0  0  0  0  0  0
  128.0190  129.0870   68.3470 C   0  0  0  0  0  0  0  0  0  0  0  0
  128.5400  130.1110   67.6910 N   0  0  0  0  0  0  0  0  0  0  0  0
  127.9070  130.3860   66.5790 C   0  0  0  0  0  0  0  0  0  0  0  0
  128.1910  131.3830   65.6580 N   0  0  0  0  0  0  0  0  0  0  0  0
  128.3840  131.2300   64.3250 C   0  0  0  0  0  0  0  0  0  0  0  0
  128.3090  130.1490   63.7370 O   0  0  0  0  0  0  0  0  0  0  0  0
  128.6930  132.4930   63.4860 C   0  0  0  0  0  0  0  0  0  0  0  0
  129.4490  132.1960   62.2560 N   0  0  0  0  0  0  0  0  0  0  0  0
  129.1430  133.1370   61.1680 C   0  0  0  0  0  0  0  0  0  0  0  0
  129.7480  132.6290   59.8390 C   0  0  0  0  0  0  0  0  0  0  0  0
  131.1930  132.1530   59.9840 C   0  0  0  0  0  0  0  0  0  0  0  0
  131.9900  131.9140   58.8590 C   0  0  0  0  0  0  0  0  0  0  0  0
  133.2940  131.4430   58.9900 C   0  0  0  0  0  0  0  0  0  0  0  0
  133.8210  131.2080   60.2560 C   0  0  0  0  0  0  0  0  0  0  0  0
  133.0420  131.4510   61.3850 C   0  0  0  0  0  0  0  0  0  0  0  0
  131.7290  131.9220   61.2670 C   0  0  0  0  0  0  0  0  0  0  0  0
  130.8950  132.2440   62.5080 C   0  0  0  0  0  0  0  0  0  0  0  0
  126.5610  129.3640   66.2560 S   0  0  0  0  0  0  0  0  0  0  0  0
  126.8790  128.5100   67.7470 C   0  0  0  0  0  0  0  0  0  0  0  0
  125.9740  127.3820   68.1910 C   0  0  0  0  0  0  0  0  0  0  0  0
  129.7550  129.3690   70.1630 C   0  0  0  0  0  0  0  0  0  0  0  0
  130.3680  128.9660   71.3490 C   0  0  0  0  0  0  0  0  0  0  0  0
  129.8670  127.8630   72.0540 C   0  0  0  0  0  0  0  0  0  0  0  0
  131.8690  125.6600   75.3600 C   0  0  0  0  0  0  0  0  0  0  0  0
  132.8410  124.8740   75.9740 C   0  0  0  0  0  0  0  0  0  0  0  0
  135.1193  124.5624   77.8363 H   0  0  0  0  0  0  0  0  0  0  0  0
  135.0825  123.4379   76.4359 H   0  0  0  0  0  0  0  0  0  0  0  0
  136.2107  124.8357   76.4359 H   0  0  0  0  0  0  0  0  0  0  0  0
  135.5264  126.9559   75.6341 H   0  0  0  0  0  0  0  0  0  0  0  0
  133.7916  128.3560   74.5241 H   0  0  0  0  0  0  0  0  0  0  0  0
  130.0787  125.1947   73.7526 H   0  0  0  0  0  0  0  0  0  0  0  0
  128.8462  126.2924   74.4024 H   0  0  0  0  0  0  0  0  0  0  0  0
  128.9934  124.9751   71.7215 H   0  0  0  0  0  0  0  0  0  0  0  0
  127.5781  125.6387   72.5078 H   0  0  0  0  0  0  0  0  0  0  0  0
  127.4115  126.9080   69.8807 H   0  0  0  0  0  0  0  0  0  0  0  0
  128.2680  132.3190   66.0290 H   0  0  0  0  0  0  0  0  0  0  0  0
  127.7418  132.9696   63.2065 H   0  0  0  0  0  0  0  0  0  0  0  0
  129.3173  133.1546   64.1045 H   0  0  0  0  0  0  0  0  0  0  0  0
  128.0519  133.2260   61.0603 H   0  0  0  0  0  0  0  0  0  0  0  0
  129.5771  134.1186   61.4088 H   0  0  0  0  0  0  0  0  0  0  0  0
  129.1375  131.7899   59.4741 H   0  0  0  0  0  0  0  0  0  0  0  0
  129.7489  133.4733   59.1339 H   0  0  0  0  0  0  0  0  0  0  0  0
  131.5802  132.1011   57.8555 H   0  0  0  0  0  0  0  0  0  0  0  0
  133.9057  131.2573   58.0949 H   0  0  0  0  0  0  0  0  0  0  0  0
  134.8489  130.8317   60.3650 H   0  0  0  0  0  0  0  0  0  0  0  0
  133.4649  131.2701   62.3842 H   0  0  0  0  0  0  0  0  0  0  0  0
  131.1384  131.5131   63.2932 H   0  0  0  0  0  0  0  0  0  0  0  0
  131.1419  133.2717   62.8127 H   0  0  0  0  0  0  0  0  0  0  0  0
  125.9451  127.3460   69.2900 H   0  0  0  0  0  0  0  0  0  0  0  0
  124.9589  127.5519   67.8029 H   0  0  0  0  0  0  0  0  0  0  0  0
  126.3600  126.4278   67.8029 H   0  0  0  0  0  0  0  0  0  0  0  0
  130.1283  130.2592   69.6357 H   0  0  0  0  0  0  0  0  0  0  0  0
  131.2430  129.5127   71.7305 H   0  0  0  0  0  0  0  0  0  0  0  0
  130.8392  125.2846   75.2675 H   0  0  0  0  0  0  0  0  0  0  0  0
  132.5767  123.8838   76.3735 H   0  0  0  0  0  0  0  0  0  0  0  0
  1  2  1  0
  2  3  2  0
  3  4  1  0
  4  5  2  0
  5  6  1  0
  6  7  2  0
  6  8  1  0
  8  9  1  0
  9 10  1  0
 10 11  1  0
 11 12  2  0
 12 13  1  0
 13 14  1  0
 14 15  1  0
 15 16  2  0
 16 17  1  0
 17 18  1  0
 18 19  2  0
 18 20  1  0
 20 21  1  0
 21 22  1  0
 22 23  1  0
 23 24  1  0
 24 25  2  0
 25 26  1  0
 26 27  2  0
 27 28  1  0
 28 29  2  0
 29 30  1  0
 16 31  1  0
 31 32  1  0
 32 33  1  0
 13 34  2  0
 34 35  1  0
 35 36  2  0
  5 37  1  0
 37 38  2  0
 38  2  1  0
 36  8  1  0
 36 11  1  0
 32 14  2  0
 30 21  1  0
 29 24  1  0
  1 39  1  0
  1 40  1  0
  1 41  1  0
  3 42  1  0
  4 43  1  0
  9 44  1  0
  9 45  1  0
 10 46  1  0
 10 47  1  0
 12 48  1  0
 17 49  1  0
 20 50  1  0
 20 51  1  0
 22 52  1  0
 22 53  1  0
 23 54  1  0
 23 55  1  0
 25 56  1  0
 26 57  1  0
 27 58  1  0
 28 59  1  0
 30 60  1  0
 30 61  1  0
 33 62  1  0
 33 63  1  0
 33 64  1  0
 34 65  1  0
 35 66  1  0
 37 67  1  0
 38 68  1  0
M  END
>  <Binding energies>  (1) 
[-10.63]

>  <Ligand effiencies>  (1) 
[-0.2725641025641026]

>  <Interactions>  (1) 
["V-B:ARG:545:CG:9893, V-A:GLU:543:CB:4905, V-B:GLU:543:CB:9877, V-A:GLU:543:CG:4906, V-B:GLU:543:CD:9879, V-B:HIS:456:CE1:9040, V-A:ALA:541:CB:4891, V-A:HIS:456:CE1:4069, V-A:GLU:543:CD:4907, H-B:TYR:484:OH:9318, V-A:ALA:541:CA:4889, V-A:GLU:543:C:4901, V-B:TYR:484:CZ:9317, V-B:TYR:484:CE2:9316, V-A:GLU:543:CA:4903, V-A:ASP:366:CG:3212, V-A:ASN:362:C:3171, V-A:ASN:362:CB:3175, V-A:PRO:540:CB:4884, V-A:PRO:540:CA:4882, V-B:GLU:543:CG:9878, V-A:LEU:363:CA:3184, V-A:TYR:539:C:4866, V-A:ASP:366:CB:3211, H-A:LYS:547:NZ:4950, V-A:HIS:456:CG:4065, V-A:ASP:473:CG:4239, V-A:VAL:457:C:4072, V-A:VAL:458:CG2:4086, V-A:HIS:456:C:4060, V-A:HIS:456:CB:4064, V-A:LYS:471:CD:4218, V-A:HIS:456:CA:4062, V-A:LYS:471:CG:4217"]

$$$$
RR20_Rahimova_2017-again1
     RDKit          3D

 68 73  0  0  0  0  0  0  0  0999 V2000
  134.6690  125.3900   76.3530 C   0  0  0  0  0  0  0  0  0  0  0  0
  133.5430  126.0900   75.6140 C   0  0  0  0  0  0  0  0  0  0  0  0
  133.6900  127.4210   75.2220 C   0  0  0  0  0  0  0  0  0  0  0  0
  132.6610  128.0620   74.5370 C   0  0  0  0  0  0  0  0  0  0  0  0
  131.4720  127.3810   74.2500 C   0  0  0  0  0  0  0  0  0  0  0  0
  130.3710  128.0880   73.4900 C   0  0  0  0  0  0  0  0  0  0  0  0
  130.1060  129.2480   73.8130 O   0  0  0  0  0  0  0  0  0  0  0  0
  129.7400  127.4360   72.4700 N   0  0  0  0  0  0  0  0  0  0  0  0
  128.9090  126.2470   72.7170 C   0  0  0  0  0  0  0  0  0  0  0  0
  128.2590  125.8940   71.3900 C   0  0  0  0  0  0  0  0  0  0  0  0
  128.4770  127.1330   70.5740 C   0  0  0  0  0  0  0  0  0  0  0  0
  128.0250  127.4280   69.2870 C   0  0  0  0  0  0  0  0  0  0  0  0
  128.4720  128.5780   68.6180 C   0  0  0  0  0  0  0  0  0  0  0  0
  127.9910  128.8920   67.2310 C   0  0  0  0  0  0  0  0  0  0  0  0
  128.8950  129.0900   66.2840 N   0  0  0  0  0  0  0  0  0  0  0  0
  128.3870  129.3670   65.1080 C   0  0  0  0  0  0  0  0  0  0  0  0
  129.0340  129.6640   63.9380 N   0  0  0  0  0  0  0  0  0  0  0  0
  128.5480  129.4810   62.7560 C   0  0  0  0  0  0  0  0  0  0  0  0
  127.4270  129.0930   62.3750 O   0  0  0  0  0  0  0  0  0  0  0  0
  129.5320  129.8140   61.6160 C   0  0  0  0  0  0  0  0  0  0  0  0
  130.5640  130.8740   62.1000 N   0  0  2  0  0  0  0  0  0  0  0  0
  130.0940  132.3200   61.8400 C   0  0  0  0  0  0  0  0  0  0  0  0
  130.0080  132.5810   60.3250 C   0  0  0  0  0  0  0  0  0  0  0  0
  131.2610  132.1490   59.5690 C   0  0  0  0  0  0  0  0  0  0  0  0
  131.5220  132.6770   58.2990 C   0  0  0  0  0  0  0  0  0  0  0  0
  132.6300  132.2700   57.5600 C   0  0  0  0  0  0  0  0  0  0  0  0
  133.4990  131.3240   58.0880 C   0  0  0  0  0  0  0  0  0  0  0  0
  133.2600  130.7980   59.3550 C   0  0  0  0  0  0  0  0  0  0  0  0
  132.1560  131.2010   60.1170 C   0  0  0  0  0  0  0  0  0  0  0  0
  131.9800  130.6230   61.5270 C   0  0  0  0  0  0  0  0  0  0  0  0
  126.6640  129.4290   65.1090 S   0  0  0  0  0  0  0  0  0  0  0  0
  126.6530  129.0060   66.8040 C   0  0  0  0  0  0  0  0  0  0  0  0
  125.3430  128.8090   67.5380 C   0  0  0  0  0  0  0  0  0  0  0  0
  129.4170  129.3940   69.2540 C   0  0  0  0  0  0  0  0  0  0  0  0
  129.8850  129.0920   70.5330 C   0  0  0  0  0  0  0  0  0  0  0  0
  129.3710  127.9850   71.2220 C   0  0  0  0  0  0  0  0  0  0  0  0
  131.3440  126.0360   74.6200 C   0  0  0  0  0  0  0  0  0  0  0  0
  132.3730  125.3950   75.3040 C   0  0  0  0  0  0  0  0  0  0  0  0
  134.5122  125.4875   77.4374 H   0  0  0  0  0  0  0  0  0  0  0  0
  134.6812  124.3249   76.0786 H   0  0  0  0  0  0  0  0  0  0  0  0
  135.6296  125.8504   76.0786 H   0  0  0  0  0  0  0  0  0  0  0  0
  134.6183  127.9637   75.4540 H   0  0  0  0  0  0  0  0  0  0  0  0
  132.7829  129.1082   74.2199 H   0  0  0  0  0  0  0  0  0  0  0  0
  129.5338  125.4126   73.0683 H   0  0  0  0  0  0  0  0  0  0  0  0
  128.1529  126.4432   73.4914 H   0  0  0  0  0  0  0  0  0  0  0  0
  128.7484  125.0239   70.9280 H   0  0  0  0  0  0  0  0  0  0  0  0
  127.1991  125.6153   71.4845 H   0  0  0  0  0  0  0  0  0  0  0  0
  127.3115  126.7527   68.7921 H   0  0  0  0  0  0  0  0  0  0  0  0
  130.0631  128.8993   61.3137 H   0  0  0  0  0  0  0  0  0  0  0  0
  128.9715  130.2185   60.7603 H   0  0  0  0  0  0  0  0  0  0  0  0
  130.6220  130.7680   63.1050 H   0  0  0  0  0  0  0  0  0  0  0  0
  129.1021  132.4675   62.2920 H   0  0  0  0  0  0  0  0  0  0  0  0
  130.8152  133.0201   62.2868 H   0  0  0  0  0  0  0  0  0  0  0  0
  129.1480  132.0256   59.9227 H   0  0  0  0  0  0  0  0  0  0  0  0
  129.9001  133.6668   60.1858 H   0  0  0  0  0  0  0  0  0  0  0  0
  130.8384  133.4282   57.8765 H   0  0  0  0  0  0  0  0  0  0  0  0
  132.8160  132.6957   56.5629 H   0  0  0  0  0  0  0  0  0  0  0  0
  134.3724  130.9916   57.5078 H   0  0  0  0  0  0  0  0  0  0  0  0
  133.9534  130.0497   59.7664 H   0  0  0  0  0  0  0  0  0  0  0  0
  132.1571  129.5381   61.4878 H   0  0  0  0  0  0  0  0  0  0  0  0
  132.7010  131.1278   62.1867 H   0  0  0  0  0  0  0  0  0  0  0  0
  125.5229  128.8361   68.6229 H   0  0  0  0  0  0  0  0  0  0  0  0
  124.6438  129.6121   67.2621 H   0  0  0  0  0  0  0  0  0  0  0  0
  124.9109  127.8358   67.2621 H   0  0  0  0  0  0  0  0  0  0  0  0
  129.7961  130.2874   68.7362 H   0  0  0  0  0  0  0  0  0  0  0  0
  130.6564  129.7218   71.0001 H   0  0  0  0  0  0  0  0  0  0  0  0
  130.4263  125.4840   74.3689 H   0  0  0  0  0  0  0  0  0  0  0  0
  132.2641  124.3412   75.6001 H   0  0  0  0  0  0  0  0  0  0  0  0
  1  2  1  0
  2  3  2  0
  3  4  1  0
  4  5  2  0
  5  6  1  0
  6  7  2  0
  6  8  1  0
  8  9  1  0
  9 10  1  0
 10 11  1  0
 11 12  2  0
 12 13  1  0
 13 14  1  0
 14 15  1  0
 15 16  2  0
 16 17  1  0
 17 18  2  0
 18 19  1  0
 18 20  1  0
 20 21  1  0
 21 22  1  0
 22 23  1  0
 23 24  1  0
 24 25  2  0
 25 26  1  0
 26 27  2  0
 27 28  1  0
 28 29  2  0
 29 30  1  0
 16 31  1  0
 31 32  1  0
 32 33  1  0
 13 34  2  0
 34 35  1  0
 35 36  2  0
  5 37  1  0
 37 38  2  0
 38  2  1  0
 36  8  1  0
 36 11  1  0
 32 14  2  0
 30 21  1  0
 29 24  1  0
  1 39  1  0
  1 40  1  0
  1 41  1  0
  3 42  1  0
  4 43  1  0
  9 44  1  0
  9 45  1  0
 10 46  1  0
 10 47  1  0
 12 48  1  0
 20 49  1  0
 20 50  1  0
 21 51  1  1
 22 52  1  0
 22 53  1  0
 23 54  1  0
 23 55  1  0
 25 56  1  0
 26 57  1  0
 27 58  1  0
 28 59  1  0
 30 60  1  0
 30 61  1  0
 33 62  1  0
 33 63  1  0
 33 64  1  0
 34 65  1  0
 35 66  1  0
 37 67  1  0
 38 68  1  0
M  CHG  2  19  -1  21   1
M  END
>  <Binding energies>  (1) 
[-10.2]

>  <Ligand effiencies>  (1) 
[-0.2615384615384615]

>  <Interactions>  (1) 
["V-B:ARG:545:CG:9893, V-A:GLU:543:CB:4905, V-B:GLU:543:CB:9877, V-A:GLU:543:CG:4906, V-B:GLU:543:CD:9879, V-B:HIS:456:CE1:9040, V-A:HIS:456:CE1:4069, V-A:GLU:543:CD:4907, V-A:GLU:543:C:4901, V-A:GLU:543:CA:4903, V-A:ASP:366:CG:3212, V-B:GLU:543:C:9873, H-A:GLU:543:OE2:4909, V-A:PRO:540:CB:4884, V-A:PRO:540:CA:4882, V-A:LEU:363:CA:3184, V-A:TYR:531:CE2:4792, V-A:LEU:363:CD1:3188, V-A:PRO:540:N:4883, V-A:TYR:539:C:4866, V-A:ASP:366:CB:3211, V-A:GLY:544:C:4911, H-A:LYS:547:NZ:4950, V-A:HIS:456:CG:4065, V-A:HIS:456:CD2:4067, V-A:TYR:531:CZ:4793, V-A:LYS:547:CE:4949, V-A:VAL:457:C:4072, V-A:VAL:458:CG2:4086, V-A:HIS:456:C:4060, V-A:HIS:456:CB:4064"]

$$$$
RR21_Rahimova_2017
     RDKit          3D

 62 67  0  0  0  0  0  0  0  0999 V2000
  133.6350  125.1200   63.1420 C   0  0  0  0  0  0  0  0  0  0  0  0
  133.8450  125.2150   64.5480 O   0  0  0  0  0  0  0  0  0  0  0  0
  132.8450  125.7400   65.3460 C   0  0  0  0  0  0  0  0  0  0  0  0
  131.5220  125.9470   64.9210 C   0  0  0  0  0  0  0  0  0  0  0  0
  130.5720  126.4790   65.7920 C   0  0  0  0  0  0  0  0  0  0  0  0
  130.9160  126.8130   67.1070 C   0  0  0  0  0  0  0  0  0  0  0  0
  129.8920  127.3800   68.0420 C   0  0  0  0  0  0  0  0  0  0  0  0
  129.8730  126.9970   69.3040 N   0  0  0  0  0  0  0  0  0  0  0  0
  128.8660  127.6600   69.8930 N   0  0  0  0  0  0  0  0  0  0  0  0
  128.5770  127.4950   71.2720 C   0  0  0  0  0  0  0  0  0  0  0  0
  127.4940  126.7070   71.6890 C   0  0  0  0  0  0  0  0  0  0  0  0
  127.2230  126.5490   73.0460 C   0  0  0  0  0  0  0  0  0  0  0  0
  128.0320  127.1780   73.9890 C   0  0  0  0  0  0  0  0  0  0  0  0
  129.1080  127.9650   73.5880 C   0  0  0  0  0  0  0  0  0  0  0  0
  129.3820  128.1250   72.2330 C   0  0  0  0  0  0  0  0  0  0  0  0
  128.2510  128.4880   68.9880 C   0  0  0  0  0  0  0  0  0  0  0  0
  128.8800  128.3260   67.7620 C   0  0  0  0  0  0  0  0  0  0  0  0
  128.6090  129.0240   66.5140 C   0  0  0  0  0  0  0  0  0  0  0  0
  127.4150  129.2350   65.9150 C   0  0  0  0  0  0  0  0  0  0  0  0
  125.8080  128.7130   66.4680 S   0  0  0  0  0  0  0  0  0  0  0  0
  125.0880  129.4940   65.0670 C   0  0  0  0  0  0  0  0  0  0  0  0
  123.8320  129.5660   64.7550 N   0  0  0  0  0  0  0  0  0  0  0  0
  123.3770  130.2440   63.5900 C   0  0  0  0  0  0  0  0  0  0  0  0
  122.2060  130.3750   63.2360 O   0  0  0  0  0  0  0  0  0  0  0  0
  124.4840  130.8400   62.7630 C   0  0  0  0  0  0  0  0  0  0  0  0
  124.1160  131.5790   61.4700 C   0  0  0  0  0  0  0  0  0  0  0  0
  124.8210  132.9220   61.2910 C   0  0  0  0  0  0  0  0  0  0  0  0
  124.3920  133.8110   60.3020 C   0  0  0  0  0  0  0  0  0  0  0  0
  125.0250  135.0420   60.1490 C   0  0  0  0  0  0  0  0  0  0  0  0
  126.0870  135.3880   60.9870 C   0  0  0  0  0  0  0  0  0  0  0  0
  126.7650  136.7370   60.8250 C   0  0  0  0  0  0  0  0  0  0  0  0
  126.5100  134.5060   61.9840 C   0  0  0  0  0  0  0  0  0  0  0  0
  125.8780  133.2750   62.1360 C   0  0  0  0  0  0  0  0  0  0  0  0
  125.7340  130.7550   63.0840 N   0  0  0  0  0  0  0  0  0  0  0  0
  126.0400  130.0680   64.2660 N   0  0  0  0  0  0  0  0  0  0  0  0
  127.3340  129.9650   64.6570 C   0  0  0  0  0  0  0  0  0  0  0  0
  128.2970  130.4310   64.0370 O   0  0  0  0  0  0  0  0  0  0  0  0
  132.2340  126.6130   67.5280 C   0  0  0  0  0  0  0  0  0  0  0  0
  133.1870  126.0820   66.6590 C   0  0  0  0  0  0  0  0  0  0  0  0
  134.4540  125.8990   67.0980 F   0  0  0  0  0  0  0  0  0  0  0  0
  132.6485  124.6737   62.9479 H   0  0  0  0  0  0  0  0  0  0  0  0
  133.6770  126.1248   62.6963 H   0  0  0  0  0  0  0  0  0  0  0  0
  134.4174  124.4882   62.6963 H   0  0  0  0  0  0  0  0  0  0  0  0
  131.2330  125.6871   63.8920 H   0  0  0  0  0  0  0  0  0  0  0  0
  129.5413  126.6379   65.4420 H   0  0  0  0  0  0  0  0  0  0  0  0
  126.8565  126.2121   70.9416 H   0  0  0  0  0  0  0  0  0  0  0  0
  126.3738  125.9302   73.3714 H   0  0  0  0  0  0  0  0  0  0  0  0
  127.8188  127.0518   75.0607 H   0  0  0  0  0  0  0  0  0  0  0  0
  129.7402  128.4592   74.3404 H   0  0  0  0  0  0  0  0  0  0  0  0
  130.2317  128.7468   71.9147 H   0  0  0  0  0  0  0  0  0  0  0  0
  127.4073  129.1620   69.1977 H   0  0  0  0  0  0  0  0  0  0  0  0
  129.4869  129.4318   65.9915 H   0  0  0  0  0  0  0  0  0  0  0  0
  124.3801  130.9351   60.6181 H   0  0  0  0  0  0  0  0  0  0  0  0
  123.0386  131.7939   61.5258 H   0  0  0  0  0  0  0  0  0  0  0  0
  123.5538  133.5384   59.6439 H   0  0  0  0  0  0  0  0  0  0  0  0
  124.6888  135.7409   59.3689 H   0  0  0  0  0  0  0  0  0  0  0  0
  126.9784  137.1616   61.8171 H   0  0  0  0  0  0  0  0  0  0  0  0
  127.7064  136.6100   60.2703 H   0  0  0  0  0  0  0  0  0  0  0  0
  126.1014  137.4166   60.2703 H   0  0  0  0  0  0  0  0  0  0  0  0
  127.3416  134.7838   62.6483 H   0  0  0  0  0  0  0  0  0  0  0  0
  126.2101  132.5797   62.9210 H   0  0  0  0  0  0  0  0  0  0  0  0
  132.5227  126.8773   68.5560 H   0  0  0  0  0  0  0  0  0  0  0  0
  1  2  1  0
  2  3  1  0
  3  4  2  0
  4  5  1  0
  5  6  2  0
  6  7  1  0
  7  8  2  0
  8  9  1  0
  9 10  1  0
 10 11  2  0
 11 12  1  0
 12 13  2  0
 13 14  1  0
 14 15  2  0
  9 16  1  0
 16 17  2  0
 17 18  1  0
 18 19  2  0
 19 20  1  0
 20 21  1  0
 21 22  2  0
 22 23  1  0
 23 24  2  0
 23 25  1  0
 25 26  1  0
 26 27  1  0
 27 28  2  0
 28 29  1  0
 29 30  2  0
 30 31  1  0
 30 32  1  0
 32 33  2  0
 25 34  2  0
 34 35  1  0
 35 36  1  0
 36 37  2  0
  6 38  1  0
 38 39  2  0
 39 40  1  0
 39  3  1  0
 17  7  1  0
 36 19  1  0
 15 10  1  0
 35 21  1  0
 33 27  1  0
  1 41  1  0
  1 42  1  0
  1 43  1  0
  4 44  1  0
  5 45  1  0
 11 46  1  0
 12 47  1  0
 13 48  1  0
 14 49  1  0
 15 50  1  0
 16 51  1  0
 18 52  1  0
 26 53  1  0
 26 54  1  0
 28 55  1  0
 29 56  1  0
 31 57  1  0
 31 58  1  0
 31 59  1  0
 32 60  1  0
 33 61  1  0
 38 62  1  0
M  END
>  <Binding energies>  (1) 
[-10.63]

>  <Ligand effiencies>  (1) 
[-0.26575000000000004]

>  <Interactions>  (1) 
["V-A:GLU:543:CB:4905, V-A:GLU:543:CG:4906, V-B:GLU:543:CD:9879, V-B:HIS:456:CE1:9040, V-B:SER:385:CB:8379, H-B:ARG:545:NH2:9899, H-A:GLY:454:N:4049, V-A:HIS:456:CE1:4069, V-A:TYR:539:CD1:4872, H-A:ARG:545:NH1:4926, V-A:GLU:543:CD:4907, V-B:LEU:475:CD1:9228, V-B:ARG:545:CZ:9897, H-A:ARG:545:NH2:4927, H-B:GLY:454:N:9020, V-B:ILE:369:CG2:8207, V-A:ARG:545:CZ:4925, V-A:ASP:366:CG:3212, V-A:ARG:545:CD:4922, V-A:ARG:545:CG:4921, V-B:GLY:544:C:9883, V-A:TYR:539:CE1:4874, H-B:ARG:545:NH1:9898, H-B:ARG:545:NE:9895, V-B:GLY:453:C:9012, V-B:GLY:453:CA:9014, V-B:LYS:547:CE:9921, V-B:HIS:456:CD2:9038, V-A:TYR:539:CB:4870, V-A:TYR:539:CG:4871"]

$$$$
RR22_Rahimova_2017
     RDKit          3D

 49 54  0  0  0  0  0  0  0  0999 V2000
  126.8940  128.4500   76.2160 O   0  0  0  0  0  0  0  0  0  0  0  0
  127.8130  128.1430   75.4600 C   0  0  0  0  0  0  0  0  0  0  0  0
  129.1280  127.8730   75.7970 N   0  0  0  0  0  0  0  0  0  0  0  0
  130.0670  127.4670   74.7960 C   0  0  1  0  0  0  0  0  0  0  0  0
  131.1440  128.4050   74.8900 O   0  0  0  0  0  0  0  0  0  0  0  0
  132.4200  127.9210   75.1800 C   0  0  0  0  0  0  0  0  0  0  0  0
  133.3540  128.8580   75.6250 C   0  0  0  0  0  0  0  0  0  0  0  0
  134.6620  128.4570   75.8960 C   0  0  0  0  0  0  0  0  0  0  0  0
  135.0370  127.1250   75.7150 C   0  0  0  0  0  0  0  0  0  0  0  0
  134.1030  126.1880   75.2700 C   0  0  0  0  0  0  0  0  0  0  0  0
  132.7810  126.5700   75.0170 C   0  0  0  0  0  0  0  0  0  0  0  0
  131.7080  125.6440   74.4920 C   0  0  1  0  0  0  0  0  0  0  0  0
  131.6680  124.1680   74.8320 C   0  0  0  0  0  0  0  0  0  0  0  0
  130.1580  123.9260   74.7690 C   0  0  0  0  0  0  0  0  0  0  0  0
  129.5700  122.5770   74.6400 C   0  0  0  0  0  0  0  0  0  0  0  0
  128.2690  122.4110   74.1440 C   0  0  0  0  0  0  0  0  0  0  0  0
  127.7200  121.1370   74.0220 C   0  0  0  0  0  0  0  0  0  0  0  0
  128.4670  120.0230   74.3960 C   0  0  0  0  0  0  0  0  0  0  0  0
  129.7610  120.1720   74.8900 C   0  0  0  0  0  0  0  0  0  0  0  0
  130.3120  121.4450   75.0110 C   0  0  0  0  0  0  0  0  0  0  0  0
  129.5090  125.0250   74.8690 N   0  0  0  0  0  0  0  0  0  0  0  0
  130.4440  126.0630   75.0170 N   0  0  0  0  0  0  0  0  0  0  0  0
  129.3950  127.6940   73.4500 C   0  0  0  0  0  0  0  0  0  0  0  0
  130.0790  127.7500   72.2840 C   0  0  0  0  0  0  0  0  0  0  0  0
  129.5550  127.9420   70.9180 C   0  0  0  0  0  0  0  0  0  0  0  0
  128.8850  126.9380   70.2050 C   0  0  0  0  0  0  0  0  0  0  0  0
  128.4170  127.1920   68.9150 C   0  0  0  0  0  0  0  0  0  0  0  0
  128.6380  128.4540   68.3640 C   0  0  0  0  0  0  0  0  0  0  0  0
  129.2900  129.4420   69.0260 N   0  0  0  0  0  0  0  0  0  0  0  0
  129.7370  129.1750   70.2810 C   0  0  0  0  0  0  0  0  0  0  0  0
  127.6580  127.9650   73.6570 S   0  0  0  0  0  0  0  0  0  0  0  0
  129.4560  128.0000   76.7420 H   0  0  0  0  0  0  0  0  0  0  0  0
  133.0594  129.9090   75.7615 H   0  0  0  0  0  0  0  0  0  0  0  0
  135.3990  129.1915   76.2528 H   0  0  0  0  0  0  0  0  0  0  0  0
  136.0710  126.8128   75.9235 H   0  0  0  0  0  0  0  0  0  0  0  0
  134.4083  125.1423   75.1172 H   0  0  0  0  0  0  0  0  0  0  0  0
  131.9362  125.7226   73.4188 H   0  0  0  0  0  0  0  0  0  0  0  0
  132.2104  123.5628   74.0907 H   0  0  0  0  0  0  0  0  0  0  0  0
  132.1427  123.8978   75.7868 H   0  0  0  0  0  0  0  0  0  0  0  0
  127.6790  123.2916   73.8498 H   0  0  0  0  0  0  0  0  0  0  0  0
  126.6994  121.0111   73.6314 H   0  0  0  0  0  0  0  0  0  0  0  0
  128.0319  119.0172   74.3006 H   0  0  0  0  0  0  0  0  0  0  0  0
  130.3452  119.2874   75.1834 H   0  0  0  0  0  0  0  0  0  0  0  0
  131.3342  121.5640   75.3994 H   0  0  0  0  0  0  0  0  0  0  0  0
  131.1702  127.6375   72.3650 H   0  0  0  0  0  0  0  0  0  0  0  0
  128.7282  125.9500   70.6623 H   0  0  0  0  0  0  0  0  0  0  0  0
  127.8860  126.4147   68.3459 H   0  0  0  0  0  0  0  0  0  0  0  0
  128.2674  128.6569   67.3484 H   0  0  0  0  0  0  0  0  0  0  0  0
  130.2696  129.9692   70.8247 H   0  0  0  0  0  0  0  0  0  0  0  0
  1  2  2  0
  2  3  1  0
  3  4  1  0
  4  5  1  6
  5  6  1  0
  6  7  2  0
  7  8  1  0
  8  9  2  0
  9 10  1  0
 10 11  2  0
 11 12  1  0
 12 13  1  0
 13 14  1  0
 14 15  1  0
 15 16  2  0
 16 17  1  0
 17 18  2  0
 18 19  1  0
 19 20  2  0
 14 21  2  0
 21 22  1  0
  4 23  1  0
 23 24  2  0
 24 25  1  0
 25 26  2  0
 26 27  1  0
 27 28  2  0
 28 29  1  0
 29 30  2  0
 23 31  1  0
 31  2  1  0
 22  4  1  0
 30 25  1  0
 11  6  1  0
 22 12  1  0
 20 15  1  0
  3 32  1  0
  7 33  1  0
  8 34  1  0
  9 35  1  0
 10 36  1  0
 12 37  1  6
 13 38  1  0
 13 39  1  0
 16 40  1  0
 17 41  1  0
 18 42  1  0
 19 43  1  0
 20 44  1  0
 24 45  1  0
 26 46  1  0
 27 47  1  0
 28 48  1  0
 30 49  1  0
M  END
>  <Binding energies>  (1) 
[-8.52]

>  <Ligand effiencies>  (1) 
[-0.26625]

>  <Interactions>  (1) 
["V-A:GLU:543:CB:4905, V-B:GLU:543:CB:9877, V-B:GLU:543:CD:9879, V-B:HIS:456:CE1:9040, V-A:HIS:456:CE1:4069, V-A:GLU:543:C:4901, V-B:LYS:547:CE:9921, H-A:LYS:547:NZ:4950, H-B:LYS:547:NZ:9922, V-A:HIS:456:CG:4065, V-A:HIS:456:CD2:4067, V-B:HIS:456:CD2:9038, V-A:TYR:484:C:4336, V-A:TYR:484:CB:4340, V-A:LYS:547:CD:4948, V-A:LYS:547:CE:4949, V-A:VAL:457:C:4072, V-A:VAL:458:CG2:4086, V-A:LYS:547:CG:4947, V-A:LYS:547:CB:4946, V-A:HIS:456:C:4060, V-A:VAL:457:CA:4074, V-A:HIS:456:CB:4064, V-A:HIS:456:CA:4062"]

$$$$
RR23_Rahimova_2017
     RDKit          3D

 65 70  0  0  0  0  0  0  0  0999 V2000
  131.4090  125.2050   75.4500 C   0  0  0  0  0  0  0  0  0  0  0  0
  130.4200  125.6300   74.3800 C   0  0  0  0  0  0  0  0  0  0  0  0
  129.9170  126.9310   74.3710 C   0  0  0  0  0  0  0  0  0  0  0  0
  129.0170  127.3230   73.3840 C   0  0  0  0  0  0  0  0  0  0  0  0
  128.6040  126.4130   72.4040 C   0  0  0  0  0  0  0  0  0  0  0  0
  127.6410  126.8630   71.3280 C   0  0  0  0  0  0  0  0  0  0  0  0
  126.4530  126.5620   71.4620 O   0  0  0  0  0  0  0  0  0  0  0  0
  128.1110  127.5900   70.2710 N   0  0  0  0  0  0  0  0  0  0  0  0
  129.5510  127.8120   70.0680 C   0  0  0  0  0  0  0  0  0  0  0  0
  129.6900  128.5240   68.7320 C   0  0  0  0  0  0  0  0  0  0  0  0
  128.3470  128.3160   68.1020 C   0  0  0  0  0  0  0  0  0  0  0  0
  127.9100  128.6730   66.8260 C   0  0  0  0  0  0  0  0  0  0  0  0
  126.5580  128.5360   66.4750 C   0  0  0  0  0  0  0  0  0  0  0  0
  126.0350  128.9170   65.0810 C   0  0  2  0  0  0  0  0  0  0  0  0
  126.9180  129.8400   64.4000 N   0  0  0  0  0  0  0  0  0  0  0  0
  126.2780  130.6320   63.6380 C   0  0  0  0  0  0  0  0  0  0  0  0
  126.7730  131.6390   62.8700 N   0  0  0  0  0  0  0  0  0  0  0  0
  128.0350  132.1300   62.8370 C   0  0  0  0  0  0  0  0  0  0  0  0
  128.9880  131.7030   63.4920 O   0  0  0  0  0  0  0  0  0  0  0  0
  128.2570  133.3240   61.8930 C   0  0  0  0  0  0  0  0  0  0  0  0
  129.2200  132.9360   60.8380 N   0  0  0  0  0  0  0  0  0  0  0  0
  128.7180  132.9390   59.5430 N   0  0  0  0  0  0  0  0  0  0  0  0
  129.4580  132.6170   58.5300 N   0  0  0  0  0  0  0  0  0  0  0  0
  130.7930  132.2590   58.7320 C   0  0  0  0  0  0  0  0  0  0  0  0
  131.5630  131.9160   57.6180 C   0  0  0  0  0  0  0  0  0  0  0  0
  132.9000  131.5530   57.7880 C   0  0  0  0  0  0  0  0  0  0  0  0
  133.4670  131.5320   59.0640 C   0  0  0  0  0  0  0  0  0  0  0  0
  132.6980  131.8750   60.1780 C   0  0  0  0  0  0  0  0  0  0  0  0
  131.3570  132.2400   60.0080 C   0  0  0  0  0  0  0  0  0  0  0  0
  130.5070  132.6100   61.2010 C   0  0  0  0  0  0  0  0  0  0  0  0
  130.9200  132.6080   62.3650 O   0  0  0  0  0  0  0  0  0  0  0  0
  124.5040  130.4260   63.5610 S   0  0  0  0  0  0  0  0  0  0  0  0
  124.5820  129.4440   65.0690 C   0  0  2  0  0  0  0  0  0  0  0  0
  124.1530  130.3220   66.2640 C   0  0  0  0  0  0  0  0  0  0  0  0
  125.6520  128.0820   67.4400 C   0  0  0  0  0  0  0  0  0  0  0  0
  126.0850  127.7450   68.7240 C   0  0  0  0  0  0  0  0  0  0  0  0
  127.4480  127.8080   69.0410 C   0  0  0  0  0  0  0  0  0  0  0  0
  129.1340  125.1160   72.4020 C   0  0  0  0  0  0  0  0  0  0  0  0
  130.0350  124.7250   73.3890 C   0  0  0  0  0  0  0  0  0  0  0  0
  130.9762  125.3910   76.4440 H   0  0  0  0  0  0  0  0  0  0  0  0
  131.6292  124.1328   75.3407 H   0  0  0  0  0  0  0  0  0  0  0  0
  132.3384  125.7832   75.3407 H   0  0  0  0  0  0  0  0  0  0  0  0
  130.2316  127.6475   75.1441 H   0  0  0  0  0  0  0  0  0  0  0  0
  128.6288  128.3522   73.3742 H   0  0  0  0  0  0  0  0  0  0  0  0
  129.9575  128.4372   70.8766 H   0  0  0  0  0  0  0  0  0  0  0  0
  130.1062  126.8624   70.0741 H   0  0  0  0  0  0  0  0  0  0  0  0
  129.8993  129.5946   68.8738 H   0  0  0  0  0  0  0  0  0  0  0  0
  130.5210  128.1427   68.1204 H   0  0  0  0  0  0  0  0  0  0  0  0
  128.6290  129.0640   66.0911 H   0  0  0  0  0  0  0  0  0  0  0  0
  126.0217  127.9684   64.5243 H   0  0  0  0  0  0  0  0  0  0  0  0
  126.1050  132.1150   62.2810 H   0  0  0  0  0  0  0  0  0  0  0  0
  127.3008  133.6110   61.4312 H   0  0  0  0  0  0  0  0  0  0  0  0
  128.6552  134.1769   62.4622 H   0  0  0  0  0  0  0  0  0  0  0  0
  131.1180  131.9319   56.6122 H   0  0  0  0  0  0  0  0  0  0  0  0
  133.5096  131.2823   56.9132 H   0  0  0  0  0  0  0  0  0  0  0  0
  134.5211  131.2448   59.1918 H   0  0  0  0  0  0  0  0  0  0  0  0
  133.1434  131.8585   61.1837 H   0  0  0  0  0  0  0  0  0  0  0  0
  123.8956  128.5866   65.1304 H   0  0  0  0  0  0  0  0  0  0  0  0
  124.4036  129.8092   67.2044 H   0  0  0  0  0  0  0  0  0  0  0  0
  124.6818  131.2855   66.2196 H   0  0  0  0  0  0  0  0  0  0  0  0
  123.0679  130.4969   66.2196 H   0  0  0  0  0  0  0  0  0  0  0  0
  124.5862  127.9895   67.1840 H   0  0  0  0  0  0  0  0  0  0  0  0
  125.3565  127.4304   69.4858 H   0  0  0  0  0  0  0  0  0  0  0  0
  128.8372  124.4040   71.6178 H   0  0  0  0  0  0  0  0  0  0  0  0
  130.4433  123.7036   73.3879 H   0  0  0  0  0  0  0  0  0  0  0  0
  1  2  1  0
  2  3  2  0
  3  4  1  0
  4  5  2  0
  5  6  1  0
  6  7  2  0
  6  8  1  0
  8  9  1  0
  9 10  1  0
 10 11  1  0
 11 12  2  0
 12 13  1  0
 13 14  1  0
 14 15  1  0
 15 16  2  0
 16 17  1  0
 17 18  1  0
 18 19  2  0
 18 20  1  0
 20 21  1  0
 21 22  1  0
 22 23  2  0
 23 24  1  0
 24 25  2  0
 25 26  1  0
 26 27  2  0
 27 28  1  0
 28 29  2  0
 29 30  1  0
 30 31  2  0
 16 32  1  0
 32 33  1  0
 33 34  1  0
 13 35  2  0
 35 36  1  0
 36 37  2  0
  5 38  1  0
 38 39  2  0
 39  2  1  0
 37  8  1  0
 37 11  1  0
 33 14  1  0
 30 21  1  0
 29 24  1  0
  1 40  1  0
  1 41  1  0
  1 42  1  0
  3 43  1  0
  4 44  1  0
  9 45  1  0
  9 46  1  0
 10 47  1  0
 10 48  1  0
 12 49  1  0
 14 50  1  6
 17 51  1  0
 20 52  1  0
 20 53  1  0
 25 54  1  0
 26 55  1  0
 27 56  1  0
 28 57  1  0
 33 58  1  6
 34 59  1  0
 34 60  1  0
 34 61  1  0
 35 62  1  0
 36 63  1  0
 38 64  1  0
 39 65  1  0
M  END
>  <Binding energies>  (1) 
[-10.24]

>  <Ligand effiencies>  (1) 
[-0.256]

>  <Interactions>  (1) 
["V-B:ARG:545:CG:9893, V-A:GLU:543:CB:4905, V-B:GLU:543:CB:9877, V-B:GLU:543:CD:9879, V-B:HIS:456:CE1:9040, V-A:ALA:541:CB:4891, V-A:HIS:456:CE1:4069, V-B:ARG:545:CZ:9897, V-B:ARG:545:CD:9894, V-B:GLU:543:C:9873, V-A:PRO:540:C:4880, V-A:PRO:540:CB:4884, H-B:ARG:545:N:9891, V-A:PRO:540:CA:4882, H-A:ALA:541:N:4890, V-A:LEU:363:CA:3184, V-A:TYR:531:CE2:4792, V-A:LEU:363:CD1:3188, V-B:GLY:454:CA:9019, V-A:HIS:456:CG:4065, V-A:HIS:456:CD2:4067, V-A:TYR:531:CZ:4793"]

$$$$
RR24_Rahimova_2017
     RDKit          3D

 65 71  0  0  0  0  0  0  0  0999 V2000
  129.4530  127.7600   67.2310 C   0  0  0  0  0  0  0  0  0  0  0  0
  128.1640  127.7870   68.0650 C   0  0  2  0  0  0  0  0  0  0  0  0
  127.2140  128.9630   67.6890 C   0  0  0  0  0  0  0  0  0  0  0  0
  126.0030  128.7970   67.5100 O   0  0  0  0  0  0  0  0  0  0  0  0
  127.8770  130.1500   67.5620 O   0  0  0  0  0  0  0  0  0  0  0  0
  127.9610  130.7520   66.3270 C   0  0  0  0  0  0  0  0  0  0  0  0
  128.0480  132.1440   66.2490 C   0  0  0  0  0  0  0  0  0  0  0  0
  128.1430  132.7640   65.0070 C   0  0  0  0  0  0  0  0  0  0  0  0
  128.1610  131.9960   63.8390 C   0  0  0  0  0  0  0  0  0  0  0  0
  128.2460  132.6860   62.4720 C   0  0  1  0  0  0  0  0  0  0  0  0
  129.5120  132.2640   61.6900 C   0  0  0  0  0  0  0  0  0  0  0  0
  129.4700  131.8240   60.4190 C   0  0  0  0  0  0  0  0  0  0  0  0
  128.2920  131.7150   59.7200 N   0  0  0  0  0  0  0  0  0  0  0  0
  127.0880  132.0530   60.2920 C   0  0  0  0  0  0  0  0  0  0  0  0
  126.0220  131.8970   59.4670 N   0  0  0  0  0  0  0  0  0  0  0  0
  124.7430  132.1070   59.8830 C   0  0  0  0  0  0  0  0  0  0  0  0
  123.8110  131.6550   59.2150 O   0  0  0  0  0  0  0  0  0  0  0  0
  124.6440  132.6860   61.1380 N   0  0  0  0  0  0  0  0  0  0  0  0
  123.2810  133.0190   61.6000 C   0  0  0  0  0  0  0  0  0  0  0  0
  125.6600  132.8870   62.0580 C   0  0  0  0  0  0  0  0  0  0  0  0
  125.4900  133.3630   63.1840 O   0  0  0  0  0  0  0  0  0  0  0  0
  126.9890  132.5050   61.5700 C   0  0  0  0  0  0  0  0  0  0  0  0
  130.8020  131.4990   59.9390 C   0  0  0  0  0  0  0  0  0  0  0  0
  131.2830  131.0110   58.7230 C   0  0  0  0  0  0  0  0  0  0  0  0
  132.6550  130.7970   58.5690 C   0  0  0  0  0  0  0  0  0  0  0  0
  133.5330  131.0700   59.6230 C   0  0  0  0  0  0  0  0  0  0  0  0
  133.0460  131.5590   60.8380 C   0  0  0  0  0  0  0  0  0  0  0  0
  131.6730  131.7690   60.9860 C   0  0  0  0  0  0  0  0  0  0  0  0
  130.8990  132.2720   62.1410 C   0  0  0  0  0  0  0  0  0  0  0  0
  131.2870  132.6290   63.2520 O   0  0  0  0  0  0  0  0  0  0  0  0
  128.0930  130.6020   63.9210 C   0  0  0  0  0  0  0  0  0  0  0  0
  127.9990  129.9810   65.1630 C   0  0  0  0  0  0  0  0  0  0  0  0
  128.4420  127.7270   69.5300 N   0  0  0  0  0  0  0  0  0  0  0  0
  129.4530  128.4450   70.0940 C   0  0  0  0  0  0  0  0  0  0  0  0
  130.2460  129.1960   69.5230 O   0  0  0  0  0  0  0  0  0  0  0  0
  129.3990  128.1320   71.5440 C   0  0  0  0  0  0  0  0  0  0  0  0
  130.1910  128.5760   72.6040 C   0  0  0  0  0  0  0  0  0  0  0  0
  129.9060  128.1090   73.8930 C   0  0  0  0  0  0  0  0  0  0  0  0
  128.8460  127.2180   74.1030 C   0  0  0  0  0  0  0  0  0  0  0  0
  128.0640  126.7850   73.0270 C   0  0  0  0  0  0  0  0  0  0  0  0
  128.3640  127.2600   71.7490 C   0  0  0  0  0  0  0  0  0  0  0  0
  127.7270  126.9910   70.4360 C   0  0  0  0  0  0  0  0  0  0  0  0
  126.7590  126.2650   70.2120 O   0  0  0  0  0  0  0  0  0  0  0  0
  130.3240  127.7418   67.9026 H   0  0  0  0  0  0  0  0  0  0  0  0
  129.4604  126.8615   66.5965 H   0  0  0  0  0  0  0  0  0  0  0  0
  129.4980  128.6574   66.5965 H   0  0  0  0  0  0  0  0  0  0  0  0
  127.6163  126.8691   67.8054 H   0  0  0  0  0  0  0  0  0  0  0  0
  128.0414  132.7489   67.1678 H   0  0  0  0  0  0  0  0  0  0  0  0
  128.2041  133.8605   64.9440 H   0  0  0  0  0  0  0  0  0  0  0  0
  128.3020  133.7565   62.7187 H   0  0  0  0  0  0  0  0  0  0  0  0
  128.3070  131.3830   58.7660 H   0  0  0  0  0  0  0  0  0  0  0  0
  126.1460  131.5910   58.5130 H   0  0  0  0  0  0  0  0  0  0  0  0
  123.2578  133.0247   62.6997 H   0  0  0  0  0  0  0  0  0  0  0  0
  122.9983  134.0126   61.2221 H   0  0  0  0  0  0  0  0  0  0  0  0
  122.5720  132.2677   61.2221 H   0  0  0  0  0  0  0  0  0  0  0  0
  130.5901  130.7974   57.8958 H   0  0  0  0  0  0  0  0  0  0  0  0
  133.0461  130.4125   57.6155 H   0  0  0  0  0  0  0  0  0  0  0  0
  134.6120  130.8989   59.4948 H   0  0  0  0  0  0  0  0  0  0  0  0
  133.7352  131.7758   61.6675 H   0  0  0  0  0  0  0  0  0  0  0  0
  128.1138  129.9957   63.0034 H   0  0  0  0  0  0  0  0  0  0  0  0
  127.9547  128.8838   65.2278 H   0  0  0  0  0  0  0  0  0  0  0  0
  131.0206  129.2772   72.4307 H   0  0  0  0  0  0  0  0  0  0  0  0
  130.5172  128.4434   74.7442 H   0  0  0  0  0  0  0  0  0  0  0  0
  128.6274  126.8570   75.1188 H   0  0  0  0  0  0  0  0  0  0  0  0
  127.2302  126.0850   73.1846 H   0  0  0  0  0  0  0  0  0  0  0  0
  1  2  1  0
  2  3  1  0
  3  4  2  0
  3  5  1  0
  5  6  1  0
  6  7  2  0
  7  8  1  0
  8  9  2  0
  9 10  1  0
 10 11  1  0
 11 12  2  0
 12 13  1  0
 13 14  1  0
 14 15  1  0
 15 16  1  0
 16 17  2  0
 16 18  1  0
 18 19  1  0
 18 20  1  0
 20 21  2  0
 20 22  1  0
 12 23  1  0
 23 24  2  0
 24 25  1  0
 25 26  2  0
 26 27  1  0
 27 28  2  0
 28 29  1  0
 29 30  2  0
  9 31  1  0
 31 32  2  0
  2 33  1  0
 33 34  1  0
 34 35  2  0
 34 36  1  0
 36 37  2  0
 37 38  1  0
 38 39  2  0
 39 40  1  0
 40 41  2  0
 41 42  1  0
 42 43  2  0
 32  6  1  0
 42 33  1  0
 22 10  1  0
 28 23  1  0
 41 36  1  0
 29 11  1  0
 22 14  2  0
  1 44  1  0
  1 45  1  0
  1 46  1  0
  2 47  1  6
  7 48  1  0
  8 49  1  0
 10 50  1  1
 13 51  1  0
 15 52  1  0
 19 53  1  0
 19 54  1  0
 19 55  1  0
 24 56  1  0
 25 57  1  0
 26 58  1  0
 27 59  1  0
 31 60  1  0
 32 61  1  0
 37 62  1  0
 38 63  1  0
 39 64  1  0
 40 65  1  0
M  END
>  <Binding energies>  (1) 
[-9.82]

>  <Ligand effiencies>  (1) 
[-0.21822222222222223]

>  <Interactions>  (1) 
["V-A:GLU:543:CB:4905, V-B:GLU:543:CB:9877, V-A:GLU:543:CG:4906, V-B:GLU:543:CD:9879, V-B:HIS:456:CE1:9040, V-B:SER:385:CB:8379, V-A:ALA:541:CB:4891, V-A:HIS:456:CE1:4069, V-A:GLU:543:CD:4907, H-B:TYR:484:OH:9318, V-B:ILE:369:CG2:8207, V-B:ILE:369:CG1:8208, V-B:TYR:484:CZ:9317, V-B:TYR:484:CE2:9316, V-A:TYR:539:CE1:4874, V-A:ASN:362:C:3171, V-A:ASN:362:CB:3175, V-A:PRO:540:CB:4884, H-B:ARG:545:N:9891, V-A:PRO:540:CA:4882, H-A:ALA:541:N:4890, V-A:LEU:363:CA:3184, V-B:SER:385:C:8375, V-B:ILE:369:CB:8206, V-B:SER:385:CA:8377, V-A:ASP:366:CB:3211"]

$$$$
RR24_Rahimova_2017-again1
     RDKit          3D

 63 69  0  0  0  0  0  0  0  0999 V2000
  129.0980  121.3490   61.7480 C   0  0  0  0  0  0  0  0  0  0  0  0
  128.8590  122.8600   61.6340 C   0  0  2  0  0  0  0  0  0  0  0  0
  128.7620  123.5750   63.0140 C   0  0  0  0  0  0  0  0  0  0  0  0
  128.1180  123.0980   63.9550 O   0  0  0  0  0  0  0  0  0  0  0  0
  129.4320  124.7650   63.0380 O   0  0  0  0  0  0  0  0  0  0  0  0
  128.7320  125.9360   63.2170 C   0  0  0  0  0  0  0  0  0  0  0  0
  129.3200  126.9880   63.9220 C   0  0  0  0  0  0  0  0  0  0  0  0
  128.6270  128.1830   64.0910 C   0  0  0  0  0  0  0  0  0  0  0  0
  127.3460  128.3360   63.5490 C   0  0  0  0  0  0  0  0  0  0  0  0
  126.5780  129.6520   63.7330 C   0  0  1  0  0  0  0  0  0  0  0  0
  125.9350  130.1180   62.4060 C   0  0  0  0  0  0  0  0  0  0  0  0
  126.4660  130.5020   61.2240 C   0  0  0  0  0  0  0  0  0  0  0  0
  127.7290  130.5920   60.9770 O   0  0  0  0  0  0  0  0  0  0  0  0
  125.4050  130.7750   60.2550 C   0  0  0  0  0  0  0  0  0  0  0  0
  125.4320  131.1820   58.9150 C   0  0  0  0  0  0  0  0  0  0  0  0
  124.2310  131.3590   58.2250 C   0  0  0  0  0  0  0  0  0  0  0  0
  123.0140  131.1330   58.8700 C   0  0  0  0  0  0  0  0  0  0  0  0
  122.9920  130.7290   60.2060 C   0  0  0  0  0  0  0  0  0  0  0  0
  124.1950  130.5490   60.8940 C   0  0  0  0  0  0  0  0  0  0  0  0
  124.4890  130.1600   62.2620 C   0  0  0  0  0  0  0  0  0  0  0  0
  123.6950  129.8970   63.2310 N   0  0  0  0  0  0  0  0  0  0  0  0
  124.1570  129.6670   64.4920 C   0  0  0  0  0  0  0  0  0  0  0  0
  123.1590  129.5670   65.4180 N   0  0  0  0  0  0  0  0  0  0  0  0
  123.4600  129.3330   66.6460 C   0  0  0  0  0  0  0  0  0  0  0  0
  122.4730  129.2570   67.3970 O   0  0  0  0  0  0  0  0  0  0  0  0
  124.7770  129.1840   67.0760 N   0  0  0  0  0  0  0  0  0  0  0  0
  125.1550  128.9120   68.4830 C   0  0  0  0  0  0  0  0  0  0  0  0
  125.8510  129.2870   66.2140 C   0  0  0  0  0  0  0  0  0  0  0  0
  127.0340  129.1860   66.5570 O   0  0  0  0  0  0  0  0  0  0  0  0
  125.4810  129.5410   64.8180 C   0  0  0  0  0  0  0  0  0  0  0  0
  126.7650  127.2840   62.8340 C   0  0  0  0  0  0  0  0  0  0  0  0
  127.4580  126.0900   62.6630 C   0  0  0  0  0  0  0  0  0  0  0  0
  127.7010  123.1790   60.7480 N   0  0  0  0  0  0  0  0  0  0  0  0
  126.4400  123.3240   61.2460 C   0  0  0  0  0  0  0  0  0  0  0  0
  126.0820  123.2180   62.4200 O   0  0  0  0  0  0  0  0  0  0  0  0
  125.5860  123.6360   60.0720 C   0  0  0  0  0  0  0  0  0  0  0  0
  124.2140  123.8780   59.9790 C   0  0  0  0  0  0  0  0  0  0  0  0
  123.6680  124.1500   58.7200 C   0  0  0  0  0  0  0  0  0  0  0  0
  124.4870  124.1770   57.5840 C   0  0  0  0  0  0  0  0  0  0  0  0
  125.8600  123.9330   57.6990 C   0  0  0  0  0  0  0  0  0  0  0  0
  126.3860  123.6620   58.9630 C   0  0  0  0  0  0  0  0  0  0  0  0
  127.7760  123.3710   59.3960 C   0  0  0  0  0  0  0  0  0  0  0  0
  128.7820  123.3160   58.6870 O   0  0  0  0  0  0  0  0  0  0  0  0
  129.1431  121.0640   62.8095 H   0  0  0  0  0  0  0  0  0  0  0  0
  128.2740  120.8095   61.2581 H   0  0  0  0  0  0  0  0  0  0  0  0
  130.0483  121.0901   61.2581 H   0  0  0  0  0  0  0  0  0  0  0  0
  129.7576  123.2711   61.1508 H   0  0  0  0  0  0  0  0  0  0  0  0
  130.3296  126.8724   64.3432 H   0  0  0  0  0  0  0  0  0  0  0  0
  129.0875  129.0095   64.6522 H   0  0  0  0  0  0  0  0  0  0  0  0
  127.3185  130.3964   64.0609 H   0  0  0  0  0  0  0  0  0  0  0  0
  126.3926  131.3609   58.4098 H   0  0  0  0  0  0  0  0  0  0  0  0
  124.2440  131.6769   57.1720 H   0  0  0  0  0  0  0  0  0  0  0  0
  122.0695  131.2737   58.3240 H   0  0  0  0  0  0  0  0  0  0  0  0
  122.0326  130.5532   60.7146 H   0  0  0  0  0  0  0  0  0  0  0  0
  124.4493  129.4198   69.1570 H   0  0  0  0  0  0  0  0  0  0  0  0
  125.1235  127.8282   68.6682 H   0  0  0  0  0  0  0  0  0  0  0  0
  126.1727  129.2862   68.6682 H   0  0  0  0  0  0  0  0  0  0  0  0
  125.7584  127.4008   62.4061 H   0  0  0  0  0  0  0  0  0  0  0  0
  127.0034  125.2671   62.0918 H   0  0  0  0  0  0  0  0  0  0  0  0
  123.5768  123.8553   60.8754 H   0  0  0  0  0  0  0  0  0  0  0  0
  122.5897  124.3437   58.6217 H   0  0  0  0  0  0  0  0  0  0  0  0
  124.0492  124.3908   56.5978 H   0  0  0  0  0  0  0  0  0  0  0  0
  126.5107  123.9543   56.8124 H   0  0  0  0  0  0  0  0  0  0  0  0
  1  2  1  0
  2  3  1  0
  3  4  2  0
  3  5  1  0
  5  6  1  0
  6  7  2  0
  7  8  1  0
  8  9  2  0
  9 10  1  0
 10 11  1  0
 11 12  2  0
 12 13  1  0
 12 14  1  0
 14 15  2  0
 15 16  1  0
 16 17  2  0
 17 18  1  0
 18 19  2  0
 19 20  1  0
 20 21  2  0
 21 22  1  0
 22 23  1  0
 23 24  2  0
 24 25  1  0
 24 26  1  0
 26 27  1  0
 26 28  1  0
 28 29  2  0
 28 30  1  0
  9 31  1  0
 31 32  2  0
  2 33  1  0
 33 34  1  0
 34 35  2  0
 34 36  1  0
 36 37  2  0
 37 38  1  0
 38 39  2  0
 39 40  1  0
 40 41  2  0
 41 42  1  0
 42 43  2  0
 32  6  1  0
 42 33  1  0
 30 10  1  0
 41 36  1  0
 20 11  1  0
 30 22  2  0
 19 14  1  0
  1 44  1  0
  1 45  1  0
  1 46  1  0
  2 47  1  6
  7 48  1  0
  8 49  1  0
 10 50  1  1
 15 51  1  0
 16 52  1  0
 17 53  1  0
 18 54  1  0
 27 55  1  0
 27 56  1  0
 27 57  1  0
 31 58  1  0
 32 59  1  0
 37 60  1  0
 38 61  1  0
 39 62  1  0
 40 63  1  0
M  CHG  2  13  -1  25  -1
M  END
>  <Binding energies>  (1) 
[-9.29]

>  <Ligand effiencies>  (1) 
[-0.21604651162790695]

>  <Interactions>  (1) 
["V-B:ARG:545:CG:9893, V-B:GLU:543:CD:9879, V-B:HIS:456:CE1:9040, H-B:ARG:545:NH2:9899, V-B:ARG:545:CZ:9897, H-B:TYR:484:OH:9318, V-B:ARG:545:CD:9894, H-B:GLY:454:N:9020, V-B:ILE:369:CG2:8207, H-B:ALA:541:N:9862, V-B:ASP:366:CG:8183, V-B:ILE:369:CG1:8208, V-B:TYR:484:CZ:9317, V-B:PRO:540:CA:9854, V-B:PRO:540:CB:9856, V-B:ALA:541:CB:9863, V-B:PRO:540:C:9852, V-A:TYR:539:CE1:4874, H-B:ARG:545:NH1:9898, H-B:ILE:455:N:9025, H-B:ARG:545:NE:9895, V-B:ASP:366:CB:8182, V-B:ALA:541:CA:9861, V-B:GLY:453:C:9012, V-B:GLY:453:CA:9014, V-B:TYR:531:CE2:9764, V-B:LEU:363:CD1:8159, V-B:TYR:531:CZ:9765, V-B:ILE:369:CB:8206, V-B:ASP:366:CA:8180, V-B:LEU:363:CA:8155, V-B:ASP:366:C:8178, V-B:LEU:363:CB:8157"]

$$$$
RR25_Rahimova_2017
     RDKit          3D

 63 68  0  0  0  0  0  0  0  0999 V2000
  123.8550  128.9440   67.7620 O   0  0  0  0  0  0  0  0  0  0  0  0
  125.0390  128.8630   67.4330 C   0  0  0  0  0  0  0  0  0  0  0  0
  125.9240  128.5300   68.4290 O   0  0  0  0  0  0  0  0  0  0  0  0
  127.2270  128.1660   68.1440 C   0  0  0  0  0  0  0  0  0  0  0  0
  127.8660  127.3420   69.0700 C   0  0  0  0  0  0  0  0  0  0  0  0
  129.1820  126.9440   68.8500 C   0  0  0  0  0  0  0  0  0  0  0  0
  129.8800  127.3650   67.7080 C   0  0  0  0  0  0  0  0  0  0  0  0
  131.2790  126.9330   67.4730 N   0  0  0  0  0  0  0  0  0  0  0  0
  131.4830  125.9900   66.7130 O   0  0  0  0  0  0  0  0  0  0  0  0
  132.1840  127.5330   68.0460 O   0  0  0  0  0  0  0  0  0  0  0  0
  129.2230  128.2050   66.7940 C   0  0  0  0  0  0  0  0  0  0  0  0
  127.9050  128.6200   67.0040 C   0  0  0  0  0  0  0  0  0  0  0  0
  127.1490  129.5170   66.0410 C   0  0  0  0  0  0  0  0  0  0  0  0
  125.6460  129.1170   66.0230 C   0  0  2  0  0  0  0  0  0  0  0  0
  124.8200  130.0790   65.1200 C   0  0  0  0  0  0  0  0  0  0  0  0
  124.1100  130.8990   65.7090 O   0  0  0  0  0  0  0  0  0  0  0  0
  124.9650  130.1060   63.7610 N   0  0  0  0  0  0  0  0  0  0  0  0
  125.5390  128.9800   62.9950 C   0  0  0  0  0  0  0  0  0  0  0  0
  126.3800  129.5430   61.8300 C   0  0  0  0  0  0  0  0  0  0  0  0
  125.5950  130.4570   60.9960 N   0  0  0  0  0  0  0  0  0  0  0  0
  126.3520  130.8890   59.8130 C   0  0  0  0  0  0  0  0  0  0  0  0
  127.0610  132.2550   60.0170 C   0  0  0  0  0  0  0  0  0  0  0  0
  128.5500  132.2410   59.9270 N   0  0  0  0  0  0  0  0  0  0  0  0
  129.2140  132.3130   61.1330 C   0  0  0  0  0  0  0  0  0  0  0  0
  128.6340  132.4190   62.2190 O   0  0  0  0  0  0  0  0  0  0  0  0
  130.7250  132.2310   61.0280 C   0  0  0  0  0  0  0  0  0  0  0  0
  131.4990  132.2680   62.1950 C   0  0  0  0  0  0  0  0  0  0  0  0
  132.8890  132.1870   62.1360 C   0  0  0  0  0  0  0  0  0  0  0  0
  133.5480  132.0630   60.9140 C   0  0  0  0  0  0  0  0  0  0  0  0
  132.8080  132.0210   59.7080 C   0  0  0  0  0  0  0  0  0  0  0  0
  133.4120  131.8950   58.4350 C   0  0  0  0  0  0  0  0  0  0  0  0
  132.6240  131.8570   57.2860 C   0  0  0  0  0  0  0  0  0  0  0  0
  131.2350  131.9430   57.3680 C   0  0  0  0  0  0  0  0  0  0  0  0
  130.5930  132.0680   58.6070 C   0  0  0  0  0  0  0  0  0  0  0  0
  131.3890  132.1070   59.7810 C   0  0  0  0  0  0  0  0  0  0  0  0
  129.0790  132.1500   58.6550 C   0  0  0  0  0  0  0  0  0  0  0  0
  128.3890  132.1190   57.6320 O   0  0  0  0  0  0  0  0  0  0  0  0
  125.1450  131.5970   61.7960 C   0  0  0  0  0  0  0  0  0  0  0  0
  124.2580  131.1480   62.9820 C   0  0  0  0  0  0  0  0  0  0  0  0
  127.3319  127.0075   69.9716 H   0  0  0  0  0  0  0  0  0  0  0  0
  129.6810  126.2909   69.5811 H   0  0  0  0  0  0  0  0  0  0  0  0
  129.7570  128.5434   65.8939 H   0  0  0  0  0  0  0  0  0  0  0  0
  127.2450  130.5640   66.3644 H   0  0  0  0  0  0  0  0  0  0  0  0
  127.5687  129.4028   65.0307 H   0  0  0  0  0  0  0  0  0  0  0  0
  125.5825  128.1248   65.5524 H   0  0  0  0  0  0  0  0  0  0  0  0
  126.1792  128.3743   63.6532 H   0  0  0  0  0  0  0  0  0  0  0  0
  124.7299  128.3489   62.5987 H   0  0  0  0  0  0  0  0  0  0  0  0
  127.2431  130.0865   62.2418 H   0  0  0  0  0  0  0  0  0  0  0  0
  126.7109  128.7013   61.2039 H   0  0  0  0  0  0  0  0  0  0  0  0
  127.1136  130.1284   59.5863 H   0  0  0  0  0  0  0  0  0  0  0  0
  125.6353  131.0084   58.9871 H   0  0  0  0  0  0  0  0  0  0  0  0
  126.6843  132.9472   59.2495 H   0  0  0  0  0  0  0  0  0  0  0  0
  126.8300  132.5568   61.0493 H   0  0  0  0  0  0  0  0  0  0  0  0
  131.0025  132.3623   63.1720 H   0  0  0  0  0  0  0  0  0  0  0  0
  133.4743  132.2214   63.0667 H   0  0  0  0  0  0  0  0  0  0  0  0
  134.6457  131.9976   60.8867 H   0  0  0  0  0  0  0  0  0  0  0  0
  134.5067  131.8268   58.3517 H   0  0  0  0  0  0  0  0  0  0  0  0
  133.1044  131.7578   56.3014 H   0  0  0  0  0  0  0  0  0  0  0  0
  130.6345  131.9123   56.4469 H   0  0  0  0  0  0  0  0  0  0  0  0
  126.0253  132.1264   62.1894 H   0  0  0  0  0  0  0  0  0  0  0  0
  124.5463  132.2553   61.1494 H   0  0  0  0  0  0  0  0  0  0  0  0
  124.0484  132.0115   63.6305 H   0  0  0  0  0  0  0  0  0  0  0  0
  123.3117  130.7394   62.5978 H   0  0  0  0  0  0  0  0  0  0  0  0
  1  2  2  0
  2  3  1  0
  3  4  1  0
  4  5  2  0
  5  6  1  0
  6  7  2  0
  7  8  1  0
  8  9  2  0
  8 10  1  0
  7 11  1  0
 11 12  2  0
 12 13  1  0
 13 14  1  0
 14 15  1  0
 15 16  2  0
 15 17  1  0
 17 18  1  0
 18 19  1  0
 19 20  1  0
 20 21  1  0
 21 22  1  0
 22 23  1  0
 23 24  1  0
 24 25  2  0
 24 26  1  0
 26 27  2  0
 27 28  1  0
 28 29  2  0
 29 30  1  0
 30 31  2  0
 31 32  1  0
 32 33  2  0
 33 34  1  0
 34 35  2  0
 34 36  1  0
 36 37  2  0
 20 38  1  0
 38 39  1  0
 14  2  1  0
 39 17  1  0
 12  4  1  0
 36 23  1  0
 35 26  1  0
 35 30  1  0
  5 40  1  0
  6 41  1  0
 11 42  1  0
 13 43  1  0
 13 44  1  0
 14 45  1  6
 18 46  1  0
 18 47  1  0
 19 48  1  0
 19 49  1  0
 21 50  1  0
 21 51  1  0
 22 52  1  0
 22 53  1  0
 27 54  1  0
 28 55  1  0
 29 56  1  0
 31 57  1  0
 32 58  1  0
 33 59  1  0
 38 60  1  0
 38 61  1  0
 39 62  1  0
 39 63  1  0
M  CHG  2   8   1  10  -1
M  END
>  <Binding energies>  (1) 
[-9.94]

>  <Ligand effiencies>  (1) 
[-0.25487179487179484]

>  <Interactions>  (1) 
["V-B:ARG:545:CG:9893, V-B:GLU:543:CB:9877, V-A:GLU:543:CG:4906, V-B:GLU:543:CD:9879, V-B:HIS:456:CE1:9040, V-A:HIS:456:CE1:4069, V-A:TYR:539:CD1:4872, V-A:GLU:543:CD:4907, H-B:TYR:484:OH:9318, V-B:ARG:545:CD:9894, H-B:GLY:454:N:9020, H-A:TYR:484:OH:4347, V-A:PRO:540:C:4880, V-A:TYR:539:CE1:4874, V-A:ASN:362:C:3171, V-A:ASN:362:CB:3175, H-B:ARG:545:NE:9895, V-A:PRO:540:CB:4884, V-A:PRO:540:CA:4882, V-A:LEU:363:CA:3184, V-A:TYR:531:CE2:4792, V-A:LEU:363:CD1:3188, H-B:HIS:456:ND1:9037, V-A:TYR:531:CZ:4793, V-A:LEU:363:CB:3186"]

$$$$
RR26_Rahimova_2017
     RDKit          3D

 59 65  0  0  0  0  0  0  0  0999 V2000
  125.0920  133.1180   61.2240 C   0  0  0  0  0  0  0  0  0  0  0  0
  125.9260  134.3540   61.5380 C   0  0  0  0  0  0  0  0  0  0  0  0
  125.6780  135.5230   60.8110 C   0  0  0  0  0  0  0  0  0  0  0  0
  126.3830  136.6940   61.0840 C   0  0  0  0  0  0  0  0  0  0  0  0
  127.3390  136.7070   62.0940 C   0  0  0  0  0  0  0  0  0  0  0  0
  127.5950  135.5490   62.8260 C   0  0  0  0  0  0  0  0  0  0  0  0
  126.9020  134.3590   62.5590 C   0  0  0  0  0  0  0  0  0  0  0  0
  127.2490  133.1530   63.3840 C   0  0  0  0  0  0  0  0  0  0  0  0
  127.5850  133.2420   64.6680 N   0  0  0  0  0  0  0  0  0  0  0  0
  127.7860  131.9910   64.9820 C   0  0  0  0  0  0  0  0  0  0  0  0
  128.2550  131.1320   66.4020 S   0  0  0  0  0  0  0  0  0  0  0  0
  128.1380  129.5870   65.4790 C   0  0  0  0  0  0  0  0  0  0  0  0
  128.3810  128.3350   65.9270 C   0  0  0  0  0  0  0  0  0  0  0  0
  128.7880  127.9230   67.2600 C   0  0  0  0  0  0  0  0  0  0  0  0
  128.1170  128.1130   68.4580 C   0  0  0  0  0  0  0  0  0  0  0  0
  128.8530  127.5220   69.4540 N   0  0  0  0  0  0  0  0  0  0  0  0
  128.5610  127.4550   70.8400 C   0  0  0  0  0  0  0  0  0  0  0  0
  129.3540  128.1350   71.7760 C   0  0  0  0  0  0  0  0  0  0  0  0
  129.0580  128.0580   73.1340 C   0  0  0  0  0  0  0  0  0  0  0  0
  127.9670  127.3060   73.5610 C   0  0  0  0  0  0  0  0  0  0  0  0
  127.1690  126.6280   72.6420 C   0  0  0  0  0  0  0  0  0  0  0  0
  127.4640  126.7010   71.2840 C   0  0  0  0  0  0  0  0  0  0  0  0
  129.9480  126.9410   68.9400 N   0  0  0  0  0  0  0  0  0  0  0  0
  129.9250  127.1750   67.6420 C   0  0  0  0  0  0  0  0  0  0  0  0
  131.0300  126.6600   66.7720 C   0  0  0  0  0  0  0  0  0  0  0  0
  132.3460  126.6030   67.2540 C   0  0  0  0  0  0  0  0  0  0  0  0
  133.3830  126.1280   66.4500 C   0  0  0  0  0  0  0  0  0  0  0  0
  133.1100  125.7050   65.1510 C   0  0  0  0  0  0  0  0  0  0  0  0
  131.7950  125.7390   64.6630 C   0  0  0  0  0  0  0  0  0  0  0  0
  130.7620  126.2200   65.4670 C   0  0  0  0  0  0  0  0  0  0  0  0
  131.4840  125.3710   63.3690 O   0  0  0  0  0  0  0  0  0  0  0  0
  132.4800  124.5620   62.7350 C   0  0  0  0  0  0  0  0  0  0  0  0
  133.8940  125.1340   63.0000 C   0  0  0  0  0  0  0  0  0  0  0  0
  134.1550  125.1970   64.4060 O   0  0  0  0  0  0  0  0  0  0  0  0
  127.7420  129.7990   64.0900 C   0  0  0  0  0  0  0  0  0  0  0  0
  127.5760  128.9700   63.1940 O   0  0  0  0  0  0  0  0  0  0  0  0
  127.5720  131.1830   63.9280 N   0  0  0  0  0  0  0  0  0  0  0  0
  127.2160  131.9290   62.8790 N   0  0  0  0  0  0  0  0  0  0  0  0
  124.7718  132.6434   62.1633 H   0  0  0  0  0  0  0  0  0  0  0  0
  124.2066  133.4115   60.6410 H   0  0  0  0  0  0  0  0  0  0  0  0
  125.6956  132.4068   60.6410 H   0  0  0  0  0  0  0  0  0  0  0  0
  124.9185  135.5181   60.0153 H   0  0  0  0  0  0  0  0  0  0  0  0
  126.1837  137.6058   60.5019 H   0  0  0  0  0  0  0  0  0  0  0  0
  127.8930  137.6312   62.3151 H   0  0  0  0  0  0  0  0  0  0  0  0
  128.3513  135.5685   63.6245 H   0  0  0  0  0  0  0  0  0  0  0  0
  128.2550  127.5273   65.1909 H   0  0  0  0  0  0  0  0  0  0  0  0
  127.1625  128.6441   68.5875 H   0  0  0  0  0  0  0  0  0  0  0  0
  130.2132  128.7315   71.4356 H   0  0  0  0  0  0  0  0  0  0  0  0
  129.6835  128.5891   73.8666 H   0  0  0  0  0  0  0  0  0  0  0  0
  127.7328  127.2466   74.6341 H   0  0  0  0  0  0  0  0  0  0  0  0
  126.3085  126.0369   72.9887 H   0  0  0  0  0  0  0  0  0  0  0  0
  126.8356  126.1662   70.5566 H   0  0  0  0  0  0  0  0  0  0  0  0
  132.5635  126.9371   68.2792 H   0  0  0  0  0  0  0  0  0  0  0  0
  134.4108  126.0878   66.8399 H   0  0  0  0  0  0  0  0  0  0  0  0
  129.7341  126.2545   65.0769 H   0  0  0  0  0  0  0  0  0  0  0  0
  132.4230  123.5387   63.1345 H   0  0  0  0  0  0  0  0  0  0  0  0
  132.2962  124.5571   61.6505 H   0  0  0  0  0  0  0  0  0  0  0  0
  134.6423  124.4849   62.5218 H   0  0  0  0  0  0  0  0  0  0  0  0
  133.9503  126.1501   62.5823 H   0  0  0  0  0  0  0  0  0  0  0  0
  1  2  1  0
  2  3  2  0
  3  4  1  0
  4  5  2  0
  5  6  1  0
  6  7  2  0
  7  8  1  0
  8  9  1  0
  9 10  2  0
 10 11  1  0
 11 12  1  0
 12 13  2  0
 13 14  1  0
 14 15  2  0
 15 16  1  0
 16 17  1  0
 17 18  2  0
 18 19  1  0
 19 20  2  0
 20 21  1  0
 21 22  2  0
 16 23  1  0
 23 24  2  0
 24 25  1  0
 25 26  2  0
 26 27  1  0
 27 28  2  0
 28 29  1  0
 29 30  2  0
 29 31  1  0
 31 32  1  0
 32 33  1  0
 33 34  1  0
 12 35  1  0
 35 36  2  0
 35 37  1  0
 37 38  1  0
  7  2  1  0
 38  8  2  0
 37 10  1  0
 24 14  1  0
 30 25  1  0
 22 17  1  0
 34 28  1  0
  1 39  1  0
  1 40  1  0
  1 41  1  0
  3 42  1  0
  4 43  1  0
  5 44  1  0
  6 45  1  0
 13 46  1  0
 15 47  1  0
 18 48  1  0
 19 49  1  0
 20 50  1  0
 21 51  1  0
 22 52  1  0
 26 53  1  0
 27 54  1  0
 30 55  1  0
 32 56  1  0
 32 57  1  0
 33 58  1  0
 33 59  1  0
M  END
>  <Binding energies>  (1) 
[-9.48]

>  <Ligand effiencies>  (1) 
[-0.24947368421052632]

>  <Interactions>  (1) 
["V-A:GLU:543:CB:4905, V-A:GLU:543:CG:4906, V-B:GLU:543:CD:9879, V-B:HIS:456:CE1:9040, V-B:SER:385:CB:8379, V-A:ALA:541:CB:4891, H-A:GLY:454:N:4049, V-A:HIS:456:CE1:4069, V-A:TYR:539:CD1:4872, H-A:ARG:545:NH1:4926, V-A:GLU:543:CD:4907, V-B:LEU:475:CD1:9228, H-A:ARG:545:NH2:4927, V-B:TYR:484:CZ:9317, V-B:TYR:484:CE2:9316, V-A:ARG:545:CZ:4925, V-A:ASP:366:CG:3212, V-A:ARG:545:CD:4922, V-A:ARG:545:CG:4921, V-B:GLU:543:C:9873, V-B:GLY:544:C:9883, V-B:LYS:547:CE:9921, V-B:HIS:456:CD2:9038, V-A:TYR:539:CB:4870, V-B:PRO:482:CB:9296"]

$$$$
RR27_Rahimova_2017
     RDKit          3D

 66 71  0  0  0  0  0  0  0  0999 V2000
  129.1850  129.1530   61.4460 O   0  0  0  0  0  0  0  0  0  0  0  0
  128.4020  130.1060   61.4720 C   0  0  0  0  0  0  0  0  0  0  0  0
  128.9930  131.5460   61.5080 C   0  0  0  0  0  0  0  0  0  0  0  0
  130.5070  131.5850   61.2290 C   0  0  0  0  0  0  0  0  0  0  0  0
  131.4020  132.2460   62.0850 C   0  0  0  0  0  0  0  0  0  0  0  0
  132.7650  132.2600   61.8040 C   0  0  0  0  0  0  0  0  0  0  0  0
  133.2400  131.6140   60.6660 C   0  0  0  0  0  0  0  0  0  0  0  0
  132.3650  130.9570   59.8060 C   0  0  0  0  0  0  0  0  0  0  0  0
  131.0020  130.9430   60.0870 C   0  0  0  0  0  0  0  0  0  0  0  0
  128.5450  132.3160   62.7650 C   0  0  0  0  0  0  0  0  0  0  0  0
  128.7200  131.7920   64.0530 C   0  0  0  0  0  0  0  0  0  0  0  0
  128.2930  132.5100   65.1670 C   0  0  0  0  0  0  0  0  0  0  0  0
  127.6850  133.7510   64.9980 C   0  0  0  0  0  0  0  0  0  0  0  0
  127.4950  134.2790   63.7240 C   0  0  0  0  0  0  0  0  0  0  0  0
  127.9210  133.5610   62.6110 C   0  0  0  0  0  0  0  0  0  0  0  0
  127.0590  129.9330   61.3190 N   0  0  0  0  0  0  0  0  0  0  0  0
  126.0690  130.9850   61.5920 C   0  0  0  0  0  0  0  0  0  0  0  0
  125.7180  130.8910   63.0940 C   0  0  0  0  0  0  0  0  0  0  0  0
  125.2330  129.4660   63.5110 C   0  0  0  0  0  0  0  0  0  0  0  0
  124.9780  129.2880   65.0200 C   0  0  0  0  0  0  0  0  0  0  0  0
  123.7330  129.6230   65.4680 N   0  0  0  0  0  0  0  0  0  0  0  0
  123.4460  129.4580   66.7900 C   0  0  0  0  0  0  0  0  0  0  0  0
  122.2350  129.7540   67.3570 O   0  0  0  0  0  0  0  0  0  0  0  0
  124.4480  128.9510   67.6400 C   0  0  0  0  0  0  0  0  0  0  0  0
  124.4950  128.6650   68.9730 N   0  0  0  0  0  0  0  0  0  0  0  0
  125.7640  128.1920   69.2470 N   0  0  0  0  0  0  0  0  0  0  0  0
  126.4810  128.1790   68.1040 N   0  0  0  0  0  0  0  0  0  0  0  0
  127.8760  127.7450   68.1080 C   0  0  0  0  0  0  0  0  0  0  0  0
  128.5500  127.8640   69.4680 C   0  0  0  0  0  0  0  0  0  0  0  0
  129.4540  128.9020   69.7170 C   0  0  0  0  0  0  0  0  0  0  0  0
  130.0640  129.0180   70.9680 C   0  0  0  0  0  0  0  0  0  0  0  0
  129.7690  128.1000   71.9760 C   0  0  0  0  0  0  0  0  0  0  0  0
  128.8600  127.0680   71.7370 C   0  0  0  0  0  0  0  0  0  0  0  0
  128.4730  125.9470   72.9920 Cl  0  0  0  0  0  0  0  0  0  0  0  0
  128.2570  126.9480   70.4850 C   0  0  0  0  0  0  0  0  0  0  0  0
  125.7010  128.6520   67.0620 C   0  0  0  0  0  0  0  0  0  0  0  0
  126.0100  128.8110   65.7720 N   0  0  0  0  0  0  0  0  0  0  0  0
  126.1270  128.3440   62.8980 C   0  0  0  0  0  0  0  0  0  0  0  0
  126.4720  128.5860   61.4070 C   0  0  0  0  0  0  0  0  0  0  0  0
  128.5601  132.0993   60.6615 H   0  0  0  0  0  0  0  0  0  0  0  0
  131.0237  132.7560   62.9833 H   0  0  0  0  0  0  0  0  0  0  0  0
  133.4632  132.7787   62.4774 H   0  0  0  0  0  0  0  0  0  0  0  0
  134.3174  131.6229   60.4444 H   0  0  0  0  0  0  0  0  0  0  0  0
  132.7491  130.4509   58.9080 H   0  0  0  0  0  0  0  0  0  0  0  0
  130.3092  130.4245   59.4079 H   0  0  0  0  0  0  0  0  0  0  0  0
  129.1967  130.8094   64.1844 H   0  0  0  0  0  0  0  0  0  0  0  0
  128.4355  132.0982   66.1770 H   0  0  0  0  0  0  0  0  0  0  0  0
  127.3518  134.3193   65.8789 H   0  0  0  0  0  0  0  0  0  0  0  0
  127.0107  135.2586   63.5980 H   0  0  0  0  0  0  0  0  0  0  0  0
  127.7668  133.9737   61.6031 H   0  0  0  0  0  0  0  0  0  0  0  0
  126.4945  131.9734   61.3640 H   0  0  0  0  0  0  0  0  0  0  0  0
  125.1722  130.8535   60.9688 H   0  0  0  0  0  0  0  0  0  0  0  0
  126.6131  131.1441   63.6812 H   0  0  0  0  0  0  0  0  0  0  0  0
  124.8933  131.5928   63.2873 H   0  0  0  0  0  0  0  0  0  0  0  0
  124.2329  129.3579   63.0660 H   0  0  0  0  0  0  0  0  0  0  0  0
  122.2300  129.6270   68.3080 H   0  0  0  0  0  0  0  0  0  0  0  0
  127.9129  126.6917   67.7931 H   0  0  0  0  0  0  0  0  0  0  0  0
  128.4210  128.4081   67.4200 H   0  0  0  0  0  0  0  0  0  0  0  0
  129.6852  129.6293   68.9248 H   0  0  0  0  0  0  0  0  0  0  0  0
  130.7772  129.8335   71.1585 H   0  0  0  0  0  0  0  0  0  0  0  0
  130.2530  128.1894   72.9598 H   0  0  0  0  0  0  0  0  0  0  0  0
  127.5474  126.1291   70.2958 H   0  0  0  0  0  0  0  0  0  0  0  0
  127.0651  128.2925   63.4702 H   0  0  0  0  0  0  0  0  0  0  0  0
  125.5574  127.4046   62.9538 H   0  0  0  0  0  0  0  0  0  0  0  0
  127.1956  127.8342   61.0590 H   0  0  0  0  0  0  0  0  0  0  0  0
  125.5745  128.5048   60.7762 H   0  0  0  0  0  0  0  0  0  0  0  0
  1  2  2  0
  2  3  1  0
  3  4  1  0
  4  5  2  0
  5  6  1  0
  6  7  2  0
  7  8  1  0
  8  9  2  0
  3 10  1  0
 10 11  2  0
 11 12  1  0
 12 13  2  0
 13 14  1  0
 14 15  2  0
  2 16  1  0
 16 17  1  0
 17 18  1  0
 18 19  1  0
 19 20  1  0
 20 21  2  0
 21 22  1  0
 22 23  1  0
 22 24  2  0
 24 25  1  0
 25 26  2  0
 26 27  1  0
 27 28  1  0
 28 29  1  0
 29 30  2  0
 30 31  1  0
 31 32  2  0
 32 33  1  0
 33 34  1  0
 33 35  2  0
 27 36  1  0
 36 37  2  0
 19 38  1  0
 38 39  1  0
  9  4  1  0
 15 10  1  0
 39 16  1  0
 37 20  1  0
 36 24  1  0
 35 29  1  0
  3 40  1  0
  5 41  1  0
  6 42  1  0
  7 43  1  0
  8 44  1  0
  9 45  1  0
 11 46  1  0
 12 47  1  0
 13 48  1  0
 14 49  1  0
 15 50  1  0
 17 51  1  0
 17 52  1  0
 18 53  1  0
 18 54  1  0
 19 55  1  0
 23 56  1  0
 28 57  1  0
 28 58  1  0
 30 59  1  0
 31 60  1  0
 32 61  1  0
 35 62  1  0
 38 63  1  0
 38 64  1  0
 39 65  1  0
 39 66  1  0
M  END
>  <Binding energies>  (1) 
[-10.24]

>  <Ligand effiencies>  (1) 
[-0.256]

>  <Interactions>  (1) 
["V-B:ARG:545:CG:9893, V-A:GLU:543:CB:4905, V-B:GLU:543:CB:9877, V-A:GLU:543:CG:4906, V-B:GLU:543:CD:9879, V-B:HIS:456:CE1:9040, V-A:ALA:541:CB:4891, H-B:ARG:545:NH2:9899, V-A:HIS:456:CE1:4069, V-A:GLU:543:CD:4907, V-B:LEU:475:CD1:9228, V-B:ARG:545:CZ:9897, H-B:TYR:484:OH:9318, V-B:ARG:545:CD:9894, H-B:GLY:454:N:9020, V-A:GLU:543:C:4901, V-B:LEU:475:CG:9227, V-B:LEU:475:CD2:9229, V-A:PRO:540:C:4880, V-A:ASN:362:C:3171, H-B:ILE:455:N:9025, V-A:ASN:362:CB:3175, H-B:ARG:545:NE:9895, V-A:PRO:540:CB:4884, V-A:PRO:540:CA:4882, V-B:GLY:453:C:9012, V-B:GLY:453:CA:9014, V-B:GLY:454:CA:9019, H-B:ILE:455:O:9023, H-B:HIS:456:ND1:9037, V-B:LYS:547:CE:9921"]

$$$$
RR27_Rahimova_2017-again1
     RDKit          3D

 66 71  0  0  0  0  0  0  0  0999 V2000
  132.7840  122.7660   60.7570 O   0  0  0  0  0  0  0  0  0  0  0  0
  132.4580  122.4220   61.8970 C   0  0  0  0  0  0  0  0  0  0  0  0
  131.2930  121.3990   62.0530 C   0  0  0  0  0  0  0  0  0  0  0  0
  131.5600  120.0820   61.3000 C   0  0  0  0  0  0  0  0  0  0  0  0
  132.7280  119.8760   60.5500 C   0  0  0  0  0  0  0  0  0  0  0  0
  132.9340  118.6710   59.8840 C   0  0  0  0  0  0  0  0  0  0  0  0
  131.9740  117.6660   59.9620 C   0  0  0  0  0  0  0  0  0  0  0  0
  130.8110  117.8550   60.7030 C   0  0  0  0  0  0  0  0  0  0  0  0
  130.6050  119.0590   61.3690 C   0  0  0  0  0  0  0  0  0  0  0  0
  129.9240  122.0280   61.7340 C   0  0  0  0  0  0  0  0  0  0  0  0
  129.4580  122.1380   60.4160 C   0  0  0  0  0  0  0  0  0  0  0  0
  128.2260  122.7300   60.1500 C   0  0  0  0  0  0  0  0  0  0  0  0
  127.4510  123.2120   61.2020 C   0  0  0  0  0  0  0  0  0  0  0  0
  127.9000  123.1120   62.5150 C   0  0  0  0  0  0  0  0  0  0  0  0
  129.1360  122.5270   62.7800 C   0  0  0  0  0  0  0  0  0  0  0  0
  133.1940  122.7930   62.9850 N   0  0  0  0  0  0  0  0  0  0  0  0
  132.7240  122.6630   64.3710 C   0  0  0  0  0  0  0  0  0  0  0  0
  131.8890  123.9210   64.7050 C   0  0  0  0  0  0  0  0  0  0  0  0
  132.4960  125.2830   64.2330 C   0  0  0  0  0  0  0  0  0  0  0  0
  131.4450  126.3750   64.0110 C   0  0  0  0  0  0  0  0  0  0  0  0
  131.2880  126.9100   62.8410 N   0  0  0  0  0  0  0  0  0  0  0  0
  130.3300  127.8750   62.7610 C   0  0  0  0  0  0  0  0  0  0  0  0
  129.5300  128.3260   63.7990 C   0  0  0  0  0  0  0  0  0  0  0  0
  128.7150  129.2760   63.3740 N   0  0  0  0  0  0  0  0  0  0  0  0
  128.9700  129.4680   62.0200 N   0  0  0  0  0  0  0  0  0  0  0  0
  129.9350  128.6010   61.6680 N   0  0  0  0  0  0  0  0  0  0  0  0
  130.4490  128.5650   60.3040 C   0  0  0  0  0  0  0  0  0  0  0  0
  131.5140  129.6170   60.0320 C   0  0  0  0  0  0  0  0  0  0  0  0
  132.1420  129.6720   58.7830 C   0  0  0  0  0  0  0  0  0  0  0  0
  133.1260  130.6300   58.5340 C   0  0  0  0  0  0  0  0  0  0  0  0
  133.4840  131.5390   59.5300 C   0  0  0  0  0  0  0  0  0  0  0  0
  132.8570  131.4920   60.7760 C   0  0  0  0  0  0  0  0  0  0  0  0
  133.3030  132.6140   62.0080 Cl  0  0  0  0  0  0  0  0  0  0  0  0
  131.8720  130.5350   61.0260 C   0  0  0  0  0  0  0  0  0  0  0  0
  129.6830  127.7340   65.1280 C   0  0  0  0  0  0  0  0  0  0  0  0
  129.0690  127.9970   66.1600 O   0  0  0  0  0  0  0  0  0  0  0  0
  130.6700  126.7710   65.0960 N   0  0  0  0  0  0  0  0  0  0  0  0
  133.5250  125.2050   63.0610 C   0  0  0  0  0  0  0  0  0  0  0  0
  134.2210  123.8370   62.8540 C   0  0  0  0  0  0  0  0  0  0  0  0
  131.2503  121.1187   63.1158 H   0  0  0  0  0  0  0  0  0  0  0  0
  133.4853  120.6714   60.4880 H   0  0  0  0  0  0  0  0  0  0  0  0
  133.8518  118.5136   59.2984 H   0  0  0  0  0  0  0  0  0  0  0  0
  132.1358  116.7148   59.4338 H   0  0  0  0  0  0  0  0  0  0  0  0
  130.0577  117.0556   60.7618 H   0  0  0  0  0  0  0  0  0  0  0  0
  129.6856  119.2089   61.9540 H   0  0  0  0  0  0  0  0  0  0  0  0
  130.0699  121.7540   59.5865 H   0  0  0  0  0  0  0  0  0  0  0  0
  127.8666  122.8165   59.1140 H   0  0  0  0  0  0  0  0  0  0  0  0
  126.4756  123.6757   60.9930 H   0  0  0  0  0  0  0  0  0  0  0  0
  127.2813  123.4934   63.3407 H   0  0  0  0  0  0  0  0  0  0  0  0
  129.4959  122.4562   63.8170 H   0  0  0  0  0  0  0  0  0  0  0  0
  132.1009  121.7622   64.4722 H   0  0  0  0  0  0  0  0  0  0  0  0
  133.5768  122.5730   65.0599 H   0  0  0  0  0  0  0  0  0  0  0  0
  130.9030  123.8079   64.2306 H   0  0  0  0  0  0  0  0  0  0  0  0
  131.8523  123.9736   65.8031 H   0  0  0  0  0  0  0  0  0  0  0  0
  133.1021  125.5864   65.0994 H   0  0  0  0  0  0  0  0  0  0  0  0
  130.8853  127.5718   60.1218 H   0  0  0  0  0  0  0  0  0  0  0  0
  129.6039  128.7771   59.6326 H   0  0  0  0  0  0  0  0  0  0  0  0
  131.8595  128.9583   57.9951 H   0  0  0  0  0  0  0  0  0  0  0  0
  133.6196  130.6684   57.5517 H   0  0  0  0  0  0  0  0  0  0  0  0
  134.2605  132.2928   59.3332 H   0  0  0  0  0  0  0  0  0  0  0  0
  131.3757  130.5023   62.0071 H   0  0  0  0  0  0  0  0  0  0  0  0
  130.8410  126.3130   65.9790 H   0  0  0  0  0  0  0  0  0  0  0  0
  132.9943  125.4560   62.1308 H   0  0  0  0  0  0  0  0  0  0  0  0
  134.3286  125.9077   63.3267 H   0  0  0  0  0  0  0  0  0  0  0  0
  134.6742  123.7941   61.8526 H   0  0  0  0  0  0  0  0  0  0  0  0
  135.0177  123.6916   63.5984 H   0  0  0  0  0  0  0  0  0  0  0  0
  1  2  2  0
  2  3  1  0
  3  4  1  0
  4  5  2  0
  5  6  1  0
  6  7  2  0
  7  8  1  0
  8  9  2  0
  3 10  1  0
 10 11  2  0
 11 12  1  0
 12 13  2  0
 13 14  1  0
 14 15  2  0
  2 16  1  0
 16 17  1  0
 17 18  1  0
 18 19  1  0
 19 20  1  0
 20 21  2  0
 21 22  1  0
 22 23  2  0
 23 24  1  0
 24 25  2  0
 25 26  1  0
 26 27  1  0
 27 28  1  0
 28 29  2  0
 29 30  1  0
 30 31  2  0
 31 32  1  0
 32 33  1  0
 32 34  2  0
 23 35  1  0
 35 36  2  0
 35 37  1  0
 19 38  1  0
 38 39  1  0
  9  4  1  0
 15 10  1  0
 39 16  1  0
 37 20  1  0
 26 22  1  0
 34 28  1  0
  3 40  1  0
  5 41  1  0
  6 42  1  0
  7 43  1  0
  8 44  1  0
  9 45  1  0
 11 46  1  0
 12 47  1  0
 13 48  1  0
 14 49  1  0
 15 50  1  0
 17 51  1  0
 17 52  1  0
 18 53  1  0
 18 54  1  0
 19 55  1  0
 27 56  1  0
 27 57  1  0
 29 58  1  0
 30 59  1  0
 31 60  1  0
 34 61  1  0
 37 62  1  0
 38 63  1  0
 38 64  1  0
 39 65  1  0
 39 66  1  0
M  END
>  <Binding energies>  (1) 
[-10.29]

>  <Ligand effiencies>  (1) 
[-0.25725]

>  <Interactions>  (1) 
["V-A:GLU:543:CD:4907, V-A:GLY:454:CA:4048, H-A:ARG:545:NH2:4927, V-B:PRO:540:CA:9854, V-A:ARG:545:CZ:4925, V-B:ALA:541:CB:9863, V-A:ASP:366:CG:3212, V-B:TYR:539:CE2:9847, V-B:TYR:539:CD2:9845, H-A:TYR:484:OH:4347, V-A:PRO:540:C:4880, V-A:ASN:362:C:3171, V-A:ASN:362:CB:3175, V-A:PRO:540:CB:4884, V-A:PRO:540:CA:4882, V-B:TYR:539:CB:9842, V-A:ILE:369:CG2:3236, V-A:SER:385:CA:3406, V-A:LEU:475:CD2:4258, V-A:LEU:363:CA:3184, V-A:ASP:366:CB:3211, V-B:TYR:539:C:9838, H-B:GLU:543:OE2:9881, V-B:PRO:540:N:9855, V-A:GLY:453:C:4041, V-A:ILE:369:CD1:3238, H-A:GLU:543:OE1:4908, V-A:HIS:383:CE1:3393"]

$$$$
RR28_Rahimova_2017
     RDKit          3D

 82 85  0  0  0  0  0  0  0  0999 V2000
  121.5890  129.2430   67.4050 C   0  0  0  0  0  0  0  0  0  0  0  0
  123.0260  129.7230   67.2330 C   0  0  0  0  0  0  0  0  0  0  0  0
  123.5650  130.3610   68.1360 O   0  0  0  0  0  0  0  0  0  0  0  0
  123.6260  129.4060   66.0680 N   0  0  0  0  0  0  0  0  0  0  0  0
  124.9980  129.7410   65.6240 C   0  0  0  0  0  0  0  0  0  0  0  0
  126.0030  129.0910   66.6190 C   0  0  0  0  0  0  0  0  0  0  0  0
  127.3690  129.3990   66.5160 C   0  0  0  0  0  0  0  0  0  0  0  0
  128.2960  128.8340   67.3850 C   0  0  0  0  0  0  0  0  0  0  0  0
  127.8800  127.9450   68.3780 C   0  0  0  0  0  0  0  0  0  0  0  0
  128.9140  127.3310   69.3200 C   0  0  0  0  0  0  0  0  0  0  0  0
  128.3480  126.6750   70.3360 F   0  0  0  0  0  0  0  0  0  0  0  0
  129.6920  126.4740   68.6590 F   0  0  0  0  0  0  0  0  0  0  0  0
  129.6770  128.3010   69.8260 F   0  0  0  0  0  0  0  0  0  0  0  0
  126.5230  127.6300   68.4900 C   0  0  0  0  0  0  0  0  0  0  0  0
  125.5960  128.1960   67.6200 C   0  0  0  0  0  0  0  0  0  0  0  0
  125.1660  131.2960   65.4810 C   0  0  0  0  0  0  0  0  0  0  0  0
  124.2940  131.9060   64.3550 C   0  0  0  0  0  0  0  0  0  0  0  0
  124.6920  131.2320   63.1080 N   0  0  0  0  0  0  0  0  0  0  0  0
  125.6430  131.7820   62.3040 C   0  0  0  0  0  0  0  0  0  0  0  0
  126.0780  132.9200   62.4890 O   0  0  0  0  0  0  0  0  0  0  0  0
  126.0710  131.0210   61.0250 C   0  0  0  0  0  0  0  0  0  0  0  0
  127.2260  129.9980   61.1990 C   0  0  0  0  0  0  0  0  0  0  0  0
  127.3670  128.9660   60.0550 C   0  0  0  0  0  0  0  0  0  0  0  0
  126.8780  129.2490   58.9570 O   0  0  0  0  0  0  0  0  0  0  0  0
  128.1310  127.8520   60.2390 N   0  0  0  0  0  0  0  0  0  0  0  0
  128.4630  127.3110   61.5620 C   0  0  0  0  0  0  0  0  0  0  0  0
  127.2870  126.3990   61.9740 C   0  0  0  0  0  0  0  0  0  0  0  0
  126.9610  125.2490   60.9580 C   0  0  0  0  0  0  0  0  0  0  0  0
  125.6110  124.7180   61.2430 N   0  0  0  0  0  0  0  0  0  0  0  0
  125.2670  123.7420   62.1060 C   0  0  0  0  0  0  0  0  0  0  0  0
  123.7840  123.3910   62.1740 C   0  0  0  0  0  0  0  0  0  0  0  0
  126.0680  123.1370   62.8180 O   0  0  0  0  0  0  0  0  0  0  0  0
  127.9850  124.0960   61.2120 C   0  0  0  0  0  0  0  0  0  0  0  0
  128.6550  123.9290   62.4360 C   0  0  0  0  0  0  0  0  0  0  0  0
  129.5590  122.8870   62.6220 C   0  0  0  0  0  0  0  0  0  0  0  0
  129.8200  121.9860   61.5870 C   0  0  0  0  0  0  0  0  0  0  0  0
  130.8070  120.8350   61.7770 C   0  0  0  0  0  0  0  0  0  0  0  0
  130.1670  119.7220   62.1420 F   0  0  0  0  0  0  0  0  0  0  0  0
  131.4380  120.6050   60.6260 F   0  0  0  0  0  0  0  0  0  0  0  0
  131.7230  121.1060   62.7090 F   0  0  0  0  0  0  0  0  0  0  0  0
  129.1690  122.1440   60.3630 C   0  0  0  0  0  0  0  0  0  0  0  0
  128.2660  123.1860   60.1800 C   0  0  0  0  0  0  0  0  0  0  0  0
  127.0270  125.8260   59.4900 C   0  0  0  0  0  0  0  0  0  0  0  0
  128.1860  126.8170   59.1990 C   0  0  0  0  0  0  0  0  0  0  0  0
  124.3740  129.7980   63.0940 C   0  0  0  0  0  0  0  0  0  0  0  0
  125.2290  129.1310   64.2030 C   0  0  0  0  0  0  0  0  0  0  0  0
  121.3544  129.1646   68.4768 H   0  0  0  0  0  0  0  0  0  0  0  0
  120.9034  129.9609   66.9311 H   0  0  0  0  0  0  0  0  0  0  0  0
  121.4725  128.2572   66.9311 H   0  0  0  0  0  0  0  0  0  0  0  0
  123.0760  128.8960   65.3930 H   0  0  0  0  0  0  0  0  0  0  0  0
  127.7105  130.0968   65.7372 H   0  0  0  0  0  0  0  0  0  0  0  0
  129.3619  129.0886   67.2897 H   0  0  0  0  0  0  0  0  0  0  0  0
  126.1860  126.9312   69.2698 H   0  0  0  0  0  0  0  0  0  0  0  0
  124.5311  127.9386   67.7183 H   0  0  0  0  0  0  0  0  0  0  0  0
  124.8843  131.7667   66.4345 H   0  0  0  0  0  0  0  0  0  0  0  0
  126.2170  131.4872   65.2187 H   0  0  0  0  0  0  0  0  0  0  0  0
  123.2282  131.7272   64.5604 H   0  0  0  0  0  0  0  0  0  0  0  0
  124.4396  132.9940   64.2836 H   0  0  0  0  0  0  0  0  0  0  0  0
  125.1930  130.4769   60.6469 H   0  0  0  0  0  0  0  0  0  0  0  0
  126.4543  131.7883   60.3363 H   0  0  0  0  0  0  0  0  0  0  0  0
  128.1698  130.5586   61.2704 H   0  0  0  0  0  0  0  0  0  0  0  0
  126.9897  129.4205   62.1049 H   0  0  0  0  0  0  0  0  0  0  0  0
  129.3949  126.7288   61.5109 H   0  0  0  0  0  0  0  0  0  0  0  0
  128.6141  128.1181   62.2939 H   0  0  0  0  0  0  0  0  0  0  0  0
  127.5326  125.9403   62.9432 H   0  0  0  0  0  0  0  0  0  0  0  0
  126.3948  127.0413   62.0123 H   0  0  0  0  0  0  0  0  0  0  0  0
  124.8710  125.1220   60.6880 H   0  0  0  0  0  0  0  0  0  0  0  0
  123.4725  123.3173   63.2264 H   0  0  0  0  0  0  0  0  0  0  0  0
  123.1982  124.1753   61.6723 H   0  0  0  0  0  0  0  0  0  0  0  0
  123.6119  122.4273   61.6723 H   0  0  0  0  0  0  0  0  0  0  0  0
  128.4621  124.6323   63.2595 H   0  0  0  0  0  0  0  0  0  0  0  0
  130.0705  122.7725   63.5891 H   0  0  0  0  0  0  0  0  0  0  0  0
  129.3706  121.4423   59.5402 H   0  0  0  0  0  0  0  0  0  0  0  0
  127.7625  123.2994   59.2086 H   0  0  0  0  0  0  0  0  0  0  0  0
  127.1293  124.9764   58.7989 H   0  0  0  0  0  0  0  0  0  0  0  0
  126.1015  126.4055   59.3576 H   0  0  0  0  0  0  0  0  0  0  0  0
  129.1518  126.2920   59.2381 H   0  0  0  0  0  0  0  0  0  0  0  0
  128.0848  127.2590   58.1968 H   0  0  0  0  0  0  0  0  0  0  0  0
  123.3041  129.6466   63.3000 H   0  0  0  0  0  0  0  0  0  0  0  0
  124.5950  129.3573   62.1107 H   0  0  0  0  0  0  0  0  0  0  0  0
  124.9779  128.0607   64.2391 H   0  0  0  0  0  0  0  0  0  0  0  0
  126.2841  129.3050   63.9451 H   0  0  0  0  0  0  0  0  0  0  0  0
  1  2  1  0
  2  3  2  0
  2  4  1  0
  4  5  1  0
  5  6  1  0
  6  7  2  0
  7  8  1  0
  8  9  2  0
  9 10  1  0
 10 11  1  0
 10 12  1  0
 10 13  1  0
  9 14  1  0
 14 15  2  0
  5 16  1  0
 16 17  1  0
 17 18  1  0
 18 19  1  0
 19 20  2  0
 19 21  1  0
 21 22  1  0
 22 23  1  0
 23 24  2  0
 23 25  1  0
 25 26  1  0
 26 27  1  0
 27 28  1  0
 28 29  1  0
 29 30  1  0
 30 31  1  0
 30 32  2  0
 28 33  1  0
 33 34  2  0
 34 35  1  0
 35 36  2  0
 36 37  1  0
 37 38  1  0
 37 39  1  0
 37 40  1  0
 36 41  1  0
 41 42  2  0
 28 43  1  0
 43 44  1  0
 18 45  1  0
 45 46  1  0
 46  5  1  0
 15  6  1  0
 44 25  1  0
 42 33  1  0
  1 47  1  0
  1 48  1  0
  1 49  1  0
  4 50  1  0
  7 51  1  0
  8 52  1  0
 14 53  1  0
 15 54  1  0
 16 55  1  0
 16 56  1  0
 17 57  1  0
 17 58  1  0
 21 59  1  0
 21 60  1  0
 22 61  1  0
 22 62  1  0
 26 63  1  0
 26 64  1  0
 27 65  1  0
 27 66  1  0
 29 67  1  0
 31 68  1  0
 31 69  1  0
 31 70  1  0
 34 71  1  0
 35 72  1  0
 41 73  1  0
 42 74  1  0
 43 75  1  0
 43 76  1  0
 44 77  1  0
 44 78  1  0
 45 79  1  0
 45 80  1  0
 46 81  1  0
 46 82  1  0
M  END
>  <Binding energies>  (1) 
[-8.23]

>  <Ligand effiencies>  (1) 
[-0.17145833333333335]

>  <Interactions>  (1) 
["V-B:ARG:545:CG:9893, V-B:GLU:543:CB:9877, V-B:GLU:543:CD:9879, V-B:HIS:456:CE1:9040, V-A:HIS:456:CE1:4069, V-B:LEU:475:CD1:9228, V-B:ARG:545:CZ:9897, H-B:TYR:484:OH:9318, V-B:ARG:545:CD:9894, H-B:GLY:454:N:9020, H-B:ASP:366:OD1:8184, H-B:ALA:541:N:9862, V-B:PRO:540:CA:9854, V-B:PRO:540:CB:9856, V-B:ALA:541:CB:9863, V-B:TYR:539:CE2:9847, V-B:ASN:362:CG:8147, V-B:TYR:539:CD2:9845, V-B:ASN:362:CB:8146, H-B:ILE:455:N:9025, V-B:GLY:453:C:9012, V-A:LEU:475:CD2:4258, V-B:GLY:453:CA:9014, V-B:ARG:545:CB:9892, V-B:GLY:454:CA:9019, V-B:TYR:539:C:9838, V-B:ILE:455:CA:9024, V-B:GLY:454:C:9017, V-B:ILE:455:C:9022, V-B:VAL:452:C:9004, V-B:VAL:452:CG2:9010"]

$$$$
RR29_Rahimova_2017
     RDKit          3D

 35 36  0  0  0  0  0  0  0  0999 V2000
  128.2720  126.2310   71.3670 C   0  0  0  0  0  0  0  0  0  0  0  0
  128.5500  126.5080   69.8970 C   0  0  0  0  0  0  0  0  0  0  0  0
  127.7470  127.7070   69.3460 C   0  0  0  0  0  0  0  0  0  0  0  0
  126.2340  127.4060   69.2980 C   0  0  0  0  0  0  0  0  0  0  0  0
  125.5240  128.1930   68.2080 C   0  0  0  0  0  0  0  0  0  0  0  0
  124.3350  128.8900   68.5040 C   0  0  0  0  0  0  0  0  0  0  0  0
  123.6650  129.6230   67.5140 C   0  0  0  0  0  0  0  0  0  0  0  0
  124.2100  129.6240   66.2350 C   0  0  0  0  0  0  0  0  0  0  0  0
  125.3610  128.9480   65.9420 C   0  0  0  0  0  0  0  0  0  0  0  0
  126.0530  128.2220   66.9050 C   0  0  0  0  0  0  0  0  0  0  0  0
  125.6800  129.1490   64.6360 O   0  0  0  0  0  0  0  0  0  0  0  0
  124.5720  129.7980   64.0710 C   0  0  0  0  0  0  0  0  0  0  0  0
  123.7720  130.2700   65.1220 O   0  0  0  0  0  0  0  0  0  0  0  0
  129.3790  125.7520   69.2760 N   0  0  0  0  0  0  0  0  0  0  0  0
  129.5680  125.9460   67.9260 N   0  0  0  0  0  0  0  0  0  0  0  0
  130.3880  126.8750   67.4080 C   0  0  0  0  0  0  0  0  0  0  0  0
  131.1380  127.7140   68.1230 N   0  0  0  0  0  0  0  0  0  0  0  0
  130.4610  126.9660   66.0880 N   0  0  0  0  0  0  0  0  0  0  0  0
  128.9148  126.8715   71.9888 H   0  0  0  0  0  0  0  0  0  0  0  0
  127.2162  126.4469   71.5875 H   0  0  0  0  0  0  0  0  0  0  0  0
  128.4840  125.1744   71.5875 H   0  0  0  0  0  0  0  0  0  0  0  0
  127.9168  128.5786   69.9953 H   0  0  0  0  0  0  0  0  0  0  0  0
  128.0898  127.9074   68.3202 H   0  0  0  0  0  0  0  0  0  0  0  0
  126.0928  126.3318   69.1079 H   0  0  0  0  0  0  0  0  0  0  0  0
  125.8007  127.7031   70.2644 H   0  0  0  0  0  0  0  0  0  0  0  0
  123.9273  128.8585   69.5252 H   0  0  0  0  0  0  0  0  0  0  0  0
  122.7421  130.1769   67.7410 H   0  0  0  0  0  0  0  0  0  0  0  0
  126.9823  127.6886   66.6564 H   0  0  0  0  0  0  0  0  0  0  0  0
  124.9085  130.6405   63.4489 H   0  0  0  0  0  0  0  0  0  0  0  0
  124.0024  129.1043   63.4351 H   0  0  0  0  0  0  0  0  0  0  0  0
  129.0260  125.3630   67.3040 H   0  0  0  0  0  0  0  0  0  0  0  0
  131.9440  128.1570   67.7060 H   0  0  0  0  0  0  0  0  0  0  0  0
  130.8990  127.8940   69.0880 H   0  0  0  0  0  0  0  0  0  0  0  0
  129.7130  126.6040   65.5140 H   0  0  0  0  0  0  0  0  0  0  0  0
  131.2630  127.4030   65.6580 H   0  0  0  0  0  0  0  0  0  0  0  0
  1  2  1  0
  2  3  1  0
  3  4  1  0
  4  5  1  0
  5  6  2  0
  6  7  1  0
  7  8  2  0
  8  9  1  0
  9 10  2  0
  9 11  1  0
 11 12  1  0
 12 13  1  0
  2 14  2  0
 14 15  1  0
 15 16  1  0
 16 17  1  0
 16 18  2  0
 10  5  1  0
 13  8  1  0
  1 19  1  0
  1 20  1  0
  1 21  1  0
  3 22  1  0
  3 23  1  0
  4 24  1  0
  4 25  1  0
  6 26  1  0
  7 27  1  0
 10 28  1  0
 12 29  1  0
 12 30  1  0
 15 31  1  0
 17 32  1  0
 17 33  1  0
 18 34  1  0
 18 35  1  0
M  CHG  1  18   1
M  END
>  <Binding energies>  (1) 
[-8.07]

>  <Ligand effiencies>  (1) 
[-0.3508695652173913]

>  <Interactions>  (1) 
["V-B:ARG:545:CG:9893, V-A:GLU:543:CB:4905, V-B:GLU:543:CB:9877, V-B:GLU:543:CD:9879, V-B:HIS:456:CE1:9040, H-B:ARG:545:NH2:9899, V-A:HIS:456:CE1:4069, V-A:GLU:543:CD:4907, V-B:ARG:545:CZ:9897, V-B:ARG:545:CD:9894, H-B:GLY:454:N:9020, V-B:GLU:543:C:9873, H-A:GLU:543:OE2:4909, V-B:GLU:543:CG:9878, V-A:TYR:484:CE2:4345, V-B:ARG:545:CA:9890, V-B:ARG:545:CB:9892, H-B:GLU:543:OE2:9881, H-A:HIS:456:NE2:4070, H-A:GLU:543:OE1:4908"]

$$$$
RR29_Rahimova_2017-again1
     RDKit          3D

 34 35  0  0  0  0  0  0  0  0999 V2000
  129.1580  122.2580   64.6270 C   0  0  0  0  0  0  0  0  0  0  0  0
  128.5290  122.7080   63.3170 C   0  0  0  0  0  0  0  0  0  0  0  0
  129.5580  122.9720   62.2010 C   0  0  0  0  0  0  0  0  0  0  0  0
  130.9800  122.5540   62.6320 C   0  0  0  0  0  0  0  0  0  0  0  0
  131.4550  121.3000   61.9130 C   0  0  0  0  0  0  0  0  0  0  0  0
  132.8100  121.1700   61.5490 C   0  0  0  0  0  0  0  0  0  0  0  0
  133.2700  120.0230   60.8880 C   0  0  0  0  0  0  0  0  0  0  0  0
  132.3410  119.0300   60.6000 C   0  0  0  0  0  0  0  0  0  0  0  0
  131.0250  119.1520   60.9490 C   0  0  0  0  0  0  0  0  0  0  0  0
  130.5430  120.2740   61.6130 C   0  0  0  0  0  0  0  0  0  0  0  0
  130.3560  118.0300   60.5770 O   0  0  0  0  0  0  0  0  0  0  0  0
  131.2560  117.2950   59.7910 C   0  0  0  0  0  0  0  0  0  0  0  0
  132.5370  117.8270   59.9990 O   0  0  0  0  0  0  0  0  0  0  0  0
  127.2520  122.8440   63.2470 N   0  0  0  0  0  0  0  0  0  0  0  0
  126.7600  123.2560   62.1240 N   0  0  0  0  0  0  0  0  0  0  0  0
  125.5360  123.6420   62.1220 C   0  0  0  0  0  0  0  0  0  0  0  0
  124.6260  123.6750   63.2150 N   0  0  0  0  0  0  0  0  0  0  0  0
  124.9180  124.1120   60.9430 N   0  0  0  0  0  0  0  0  0  0  0  0
  128.5833  122.6692   65.4700 H   0  0  0  0  0  0  0  0  0  0  0  0
  129.1502  121.1593   64.6791 H   0  0  0  0  0  0  0  0  0  0  0  0
  130.1954  122.6202   64.6791 H   0  0  0  0  0  0  0  0  0  0  0  0
  129.2718  122.3973   61.3078 H   0  0  0  0  0  0  0  0  0  0  0  0
  129.5655  124.0509   61.9868 H   0  0  0  0  0  0  0  0  0  0  0  0
  131.6746  123.3764   62.4056 H   0  0  0  0  0  0  0  0  0  0  0  0
  130.9548  122.3354   63.7098 H   0  0  0  0  0  0  0  0  0  0  0  0
  133.5160  121.9794   61.7868 H   0  0  0  0  0  0  0  0  0  0  0  0
  134.3278  119.9126   60.6073 H   0  0  0  0  0  0  0  0  0  0  0  0
  129.4827  120.3560   61.8943 H   0  0  0  0  0  0  0  0  0  0  0  0
  131.2368  116.2366   60.0901 H   0  0  0  0  0  0  0  0  0  0  0  0
  130.9803  117.3589   58.7280 H   0  0  0  0  0  0  0  0  0  0  0  0
  124.8890  123.3690   64.1410 H   0  0  0  0  0  0  0  0  0  0  0  0
  123.6740  123.9930   63.1190 H   0  0  0  0  0  0  0  0  0  0  0  0
  125.4090  124.1570   60.0620 H   0  0  0  0  0  0  0  0  0  0  0  0
  123.9570  124.4160   60.9190 H   0  0  0  0  0  0  0  0  0  0  0  0
  1  2  1  0
  2  3  1  0
  3  4  1  0
  4  5  1  0
  5  6  2  0
  6  7  1  0
  7  8  2  0
  8  9  1  0
  9 10  2  0
  9 11  1  0
 11 12  1  0
 12 13  1  0
  2 14  2  0
 14 15  1  0
 15 16  2  0
 16 17  1  0
 16 18  1  0
 10  5  1  0
 13  8  1  0
  1 19  1  0
  1 20  1  0
  1 21  1  0
  3 22  1  0
  3 23  1  0
  4 24  1  0
  4 25  1  0
  6 26  1  0
  7 27  1  0
 10 28  1  0
 12 29  1  0
 12 30  1  0
 17 31  1  0
 17 32  1  0
 18 33  1  0
 18 34  1  0
M  END
>  <Binding energies>  (1) 
[-6.42]

>  <Ligand effiencies>  (1) 
[-0.2918181818181818]

>  <Interactions>  (1) 
["V-B:GLU:543:CD:9879, V-B:ARG:545:CZ:9897, H-B:ASP:366:OD1:8184, H-B:ALA:541:N:9862, H-B:ALA:541:O:9860, V-B:PRO:540:CA:9854, V-B:PRO:540:CB:9856, V-B:ALA:541:CB:9863, V-B:TYR:539:CD2:9845, V-B:ASN:362:CB:8146, V-B:GLU:543:CG:9878, V-B:ALA:541:CA:9861, V-B:TYR:539:CB:9842, V-A:SER:385:CB:3408, V-A:ILE:369:CG2:3236, V-A:SER:385:CA:3406, V-A:LEU:475:CD2:4258, H-B:GLU:543:OE1:9880, V-A:LEU:475:CD1:4257, H-A:HIS:383:ND1:3390, V-A:HIS:383:CE1:3393"]

$$$$
RR2_Rahimova_2017
     RDKit          3D

 76 80  0  0  0  0  0  0  0  0999 V2000
  128.2600  133.4420   61.1990 C   0  0  0  0  0  0  0  0  0  0  0  0
  127.9820  132.2480   60.4760 O   0  0  0  0  0  0  0  0  0  0  0  0
  128.6500  131.0850   60.8110 C   0  0  0  0  0  0  0  0  0  0  0  0
  128.8180  130.6200   62.1220 C   0  0  0  0  0  0  0  0  0  0  0  0
  129.5110  129.4370   62.3650 C   0  0  0  0  0  0  0  0  0  0  0  0
  130.0530  128.6950   61.3060 C   0  0  0  0  0  0  0  0  0  0  0  0
  130.8090  127.4130   61.5980 C   0  0  0  0  0  0  0  0  0  0  0  0
  131.2070  127.1710   62.7430 O   0  0  0  0  0  0  0  0  0  0  0  0
  131.0160  126.5960   60.5390 N   0  0  0  0  0  0  0  0  0  0  0  0
  131.7840  125.4520   60.7320 N   0  0  0  0  0  0  0  0  0  0  0  0
  132.2880  124.8320   59.6460 C   0  0  0  0  0  0  0  0  0  0  0  0
  131.9800  125.0900   58.4790 O   0  0  0  0  0  0  0  0  0  0  0  0
  133.3360  123.7480   59.9320 C   0  0  0  0  0  0  0  0  0  0  0  0
  132.9700  122.6760   61.3690 S   0  0  0  0  0  0  0  0  0  0  0  0
  133.1630  123.8300   62.6930 C   0  0  0  0  0  0  0  0  0  0  0  0
  134.3150  124.3630   63.0140 N   0  0  0  0  0  0  0  0  0  0  0  0
  134.1110  125.1560   64.1340 N   0  0  0  0  0  0  0  0  0  0  0  0
  132.8340  125.0980   64.4310 C   0  0  0  0  0  0  0  0  0  0  0  0
  132.2210  125.8400   65.5740 C   0  0  0  0  0  0  0  0  0  0  0  0
  130.8710  126.1950   65.5280 C   0  0  0  0  0  0  0  0  0  0  0  0
  130.2930  126.8930   66.5840 C   0  0  0  0  0  0  0  0  0  0  0  0
  131.0580  127.2290   67.7070 C   0  0  0  0  0  0  0  0  0  0  0  0
  130.5320  127.9400   68.7950 N   0  0  0  0  0  0  0  0  0  0  0  0
  129.0150  127.5380   69.6300 S   0  0  0  0  0  0  0  0  0  0  0  0
  128.9760  128.3850   70.8270 O   0  0  0  0  0  0  0  0  0  0  0  0
  128.9300  126.0760   69.7390 O   0  0  0  0  0  0  0  0  0  0  0  0
  127.7140  128.1180   68.5440 C   0  0  0  0  0  0  0  0  0  0  0  0
  128.0030  128.9860   67.4880 C   0  0  0  0  0  0  0  0  0  0  0  0
  126.9750  129.4370   66.6650 C   0  0  0  0  0  0  0  0  0  0  0  0
  125.6620  129.0170   66.8930 C   0  0  0  0  0  0  0  0  0  0  0  0
  124.5410  129.5230   66.0030 C   0  0  0  0  0  0  0  0  0  0  0  0
  125.3770  128.1520   67.9510 C   0  0  0  0  0  0  0  0  0  0  0  0
  126.4030  127.7010   68.7760 C   0  0  0  0  0  0  0  0  0  0  0  0
  132.4060  126.8720   67.7530 C   0  0  0  0  0  0  0  0  0  0  0  0
  132.9860  126.1790   66.6940 C   0  0  0  0  0  0  0  0  0  0  0  0
  132.1670  124.2620   63.5510 N   0  0  0  0  0  0  0  0  0  0  0  0
  130.8050  123.8960   63.5500 C   0  0  0  0  0  0  0  0  0  0  0  0
  129.9380  124.4410   62.6020 C   0  0  0  0  0  0  0  0  0  0  0  0
  128.5960  124.0720   62.6040 C   0  0  0  0  0  0  0  0  0  0  0  0
  128.1100  123.1640   63.5470 C   0  0  0  0  0  0  0  0  0  0  0  0
  126.7640  122.8600   63.4700 O   0  0  0  0  0  0  0  0  0  0  0  0
  125.8820  123.7720   62.8230 C   0  0  0  0  0  0  0  0  0  0  0  0
  128.9900  122.6210   64.4970 C   0  0  0  0  0  0  0  0  0  0  0  0
  130.3330  122.9850   64.4980 C   0  0  0  0  0  0  0  0  0  0  0  0
  129.8750  129.1640   59.9960 C   0  0  0  0  0  0  0  0  0  0  0  0
  129.1810  130.3470   59.7560 C   0  0  0  0  0  0  0  0  0  0  0  0
  128.2122  133.2365   62.2786 H   0  0  0  0  0  0  0  0  0  0  0  0
  129.2661  133.8025   60.9386 H   0  0  0  0  0  0  0  0  0  0  0  0
  127.5166  134.2098   60.9386 H   0  0  0  0  0  0  0  0  0  0  0  0
  128.4004  131.1923   62.9634 H   0  0  0  0  0  0  0  0  0  0  0  0
  129.6345  129.0809   63.3984 H   0  0  0  0  0  0  0  0  0  0  0  0
  131.1180  126.9600   59.6030 H   0  0  0  0  0  0  0  0  0  0  0  0
  132.2100  125.4070   61.6480 H   0  0  0  0  0  0  0  0  0  0  0  0
  133.4165  123.1080   59.0410 H   0  0  0  0  0  0  0  0  0  0  0  0
  134.2682  124.2790   60.1750 H   0  0  0  0  0  0  0  0  0  0  0  0
  130.2622  125.9217   64.6535 H   0  0  0  0  0  0  0  0  0  0  0  0
  129.2325  127.1814   66.5361 H   0  0  0  0  0  0  0  0  0  0  0  0
  131.0650  128.7230   69.1460 H   0  0  0  0  0  0  0  0  0  0  0  0
  129.0382  129.3115   67.3078 H   0  0  0  0  0  0  0  0  0  0  0  0
  127.1963  130.1241   65.8350 H   0  0  0  0  0  0  0  0  0  0  0  0
  123.7161  129.8953   66.6282 H   0  0  0  0  0  0  0  0  0  0  0  0
  124.9168  130.3388   65.3680 H   0  0  0  0  0  0  0  0  0  0  0  0
  124.1778  128.7015   65.3680 H   0  0  0  0  0  0  0  0  0  0  0  0
  124.3419  127.8270   68.1325 H   0  0  0  0  0  0  0  0  0  0  0  0
  126.1809  127.0175   69.6088 H   0  0  0  0  0  0  0  0  0  0  0  0
  133.0134  127.1394   68.6302 H   0  0  0  0  0  0  0  0  0  0  0  0
  134.0485  125.8976   66.7386 H   0  0  0  0  0  0  0  0  0  0  0  0
  130.3132  125.1583   61.8572 H   0  0  0  0  0  0  0  0  0  0  0  0
  127.9121  124.4995   61.8560 H   0  0  0  0  0  0  0  0  0  0  0  0
  125.3274  124.3455   63.5803 H   0  0  0  0  0  0  0  0  0  0  0  0
  126.4643  124.4618   62.1945 H   0  0  0  0  0  0  0  0  0  0  0  0
  125.1731  123.2131   62.1945 H   0  0  0  0  0  0  0  0  0  0  0  0
  128.6161  121.9049   65.2436 H   0  0  0  0  0  0  0  0  0  0  0  0
  131.0204  122.5570   65.2425 H   0  0  0  0  0  0  0  0  0  0  0  0
  130.2871  128.5924   59.1513 H   0  0  0  0  0  0  0  0  0  0  0  0
  129.0509  130.7021   58.7231 H   0  0  0  0  0  0  0  0  0  0  0  0
  1  2  1  0
  2  3  1  0
  3  4  2  0
  4  5  1  0
  5  6  2  0
  6  7  1  0
  7  8  2  0
  7  9  1  0
  9 10  1  0
 10 11  1  0
 11 12  2  0
 11 13  1  0
 13 14  1  0
 14 15  1  0
 15 16  2  0
 16 17  1  0
 17 18  2  0
 18 19  1  0
 19 20  2  0
 20 21  1  0
 21 22  2  0
 22 23  1  0
 23 24  1  0
 24 25  2  0
 24 26  2  0
 24 27  1  0
 27 28  2  0
 28 29  1  0
 29 30  2  0
 30 31  1  0
 30 32  1  0
 32 33  2  0
 22 34  1  0
 34 35  2  0
 18 36  1  0
 36 37  1  0
 37 38  2  0
 38 39  1  0
 39 40  2  0
 40 41  1  0
 41 42  1  0
 40 43  1  0
 43 44  2  0
  6 45  1  0
 45 46  2  0
 46  3  1  0
 36 15  1  0
 44 37  1  0
 35 19  1  0
 33 27  1  0
  1 47  1  0
  1 48  1  0
  1 49  1  0
  4 50  1  0
  5 51  1  0
  9 52  1  0
 10 53  1  0
 13 54  1  0
 13 55  1  0
 20 56  1  0
 21 57  1  0
 23 58  1  0
 28 59  1  0
 29 60  1  0
 31 61  1  0
 31 62  1  0
 31 63  1  0
 32 64  1  0
 33 65  1  0
 34 66  1  0
 35 67  1  0
 38 68  1  0
 39 69  1  0
 42 70  1  0
 42 71  1  0
 42 72  1  0
 43 73  1  0
 44 74  1  0
 45 75  1  0
 46 76  1  0
M  END
>  <Binding energies>  (1) 
[-9.05]

>  <Ligand effiencies>  (1) 
[-0.18469387755102043]

>  <Interactions>  (1) 
["V-B:ARG:545:CG:9893, V-A:GLU:543:CB:4905, V-B:GLU:543:CB:9877, V-B:GLU:543:CD:9879, V-B:HIS:456:CE1:9040, H-A:GLY:454:N:4049, V-A:HIS:456:CE1:4069, H-A:ARG:545:NH1:4926, V-A:GLU:543:CD:4907, V-B:ARG:545:CZ:9897, H-A:ARG:545:NH2:4927, V-B:ARG:545:CD:9894, H-B:ALA:541:N:9862, V-A:ARG:545:CZ:4925, H-A:ASP:366:OD1:3213, V-B:ALA:541:CB:9863, V-A:ASP:366:CG:3212, V-A:ARG:545:CD:4922, V-A:ARG:545:CG:4921, V-B:TYR:539:CE2:9847, V-B:GLU:543:CG:9878, V-B:ALA:541:CA:9861, V-A:ILE:369:CG2:3236, H-A:ASP:366:OD2:3214, V-A:ASP:366:CB:3211, V-A:ILE:369:CD1:3238, H-A:GLU:543:OE1:4908, V-A:ILE:369:CB:3235, H-B:TYR:539:OH:9849"]

$$$$
RR30_Rahimova_2017
     RDKit          3D

 29 30  0  0  0  0  0  0  0  0999 V2000
  124.0010  129.5990   67.0250 C   0  0  0  0  0  0  0  0  0  0  0  0
  124.3220  129.0990   68.4410 C   0  0  0  0  0  0  0  0  0  0  0  0
  125.6680  128.4110   68.5150 C   0  0  0  0  0  0  0  0  0  0  0  0
  126.0160  127.3890   69.2560 N   0  0  0  0  0  0  0  0  0  0  0  0
  127.3560  127.1450   68.9660 N   0  0  0  0  0  0  0  0  0  0  0  0
  127.7040  128.0460   68.0830 C   0  0  0  0  0  0  0  0  0  0  0  0
  129.2800  128.2460   67.3150 S   0  0  0  0  0  0  0  0  0  0  0  0
  130.1390  126.7840   67.9780 C   0  0  0  0  0  0  0  0  0  0  0  0
  130.7850  125.9430   66.8740 C   0  0  0  0  0  0  0  0  0  0  0  0
  130.3490  124.8130   66.6450 O   0  0  0  0  0  0  0  0  0  0  0  0
  131.8370  126.5080   66.2410 N   0  0  0  0  0  0  0  0  0  0  0  0
  132.5820  125.9430   65.2160 C   0  0  0  0  0  0  0  0  0  0  0  0
  133.8710  125.6900   65.1910 N   0  0  0  0  0  0  0  0  0  0  0  0
  134.2740  125.1180   63.9910 N   0  0  0  0  0  0  0  0  0  0  0  0
  133.2890  124.9500   63.1370 C   0  0  0  0  0  0  0  0  0  0  0  0
  133.4780  124.3500   61.7630 C   0  0  0  0  0  0  0  0  0  0  0  0
  131.7540  125.4920   63.7580 S   0  0  0  0  0  0  0  0  0  0  0  0
  126.6850  128.8780   67.7480 O   0  0  0  0  0  0  0  0  0  0  0  0
  123.4077  130.5231   67.0882 H   0  0  0  0  0  0  0  0  0  0  0  0
  124.9385  129.8012   66.4863 H   0  0  0  0  0  0  0  0  0  0  0  0
  123.4269  128.8308   66.4863 H   0  0  0  0  0  0  0  0  0  0  0  0
  124.3257  129.9585   69.1274 H   0  0  0  0  0  0  0  0  0  0  0  0
  123.5525  128.3647   68.7215 H   0  0  0  0  0  0  0  0  0  0  0  0
  130.9231  127.1187   68.6731 H   0  0  0  0  0  0  0  0  0  0  0  0
  129.3933  126.1565   68.4880 H   0  0  0  0  0  0  0  0  0  0  0  0
  132.1220  127.4300   66.5370 H   0  0  0  0  0  0  0  0  0  0  0  0
  133.8072  123.3050   61.8613 H   0  0  0  0  0  0  0  0  0  0  0  0
  132.5256  124.3843   61.2138 H   0  0  0  0  0  0  0  0  0  0  0  0
  134.2389  124.9240   61.2138 H   0  0  0  0  0  0  0  0  0  0  0  0
  1  2  1  0
  2  3  1  0
  3  4  2  0
  4  5  1  0
  5  6  2  0
  6  7  1  0
  7  8  1  0
  8  9  1  0
  9 10  2  0
  9 11  1  0
 11 12  1  0
 12 13  2  0
 13 14  1  0
 14 15  2  0
 15 16  1  0
 15 17  1  0
  6 18  1  0
 18  3  1  0
 17 12  1  0
  1 19  1  0
  1 20  1  0
  1 21  1  0
  2 22  1  0
  2 23  1  0
  8 24  1  0
  8 25  1  0
 11 26  1  0
 16 27  1  0
 16 28  1  0
 16 29  1  0
M  END
>  <Binding energies>  (1) 
[-6.65]

>  <Ligand effiencies>  (1) 
[-0.35000000000000003]

>  <Interactions>  (1) 
["V-B:ARG:545:CG:9893, V-B:GLU:543:CD:9879, V-B:HIS:456:CE1:9040, H-A:GLY:454:N:4049, V-A:HIS:456:CE1:4069, H-A:ARG:545:NH1:4926, V-A:GLU:543:CD:4907, H-B:TYR:484:OH:9318, H-A:ARG:545:NH2:4927, V-B:ARG:545:CD:9894, V-B:TYR:484:CZ:9317, V-A:TYR:484:CZ:4346, V-A:ARG:545:CZ:4925, V-A:ASP:366:CG:3212, H-A:ARG:545:NE:4923, H-A:TYR:484:OH:4347, V-B:ARG:545:CB:9892, V-A:ILE:369:CD1:3238, H-A:GLU:543:OE1:4908"]

$$$$
RR31_Rahimova_2017
     RDKit          3D

 44 45  0  0  0  0  0  0  0  0999 V2000
  132.3320  117.6210   59.4860 C   0  0  0  0  0  0  0  0  0  0  0  0
  132.4120  118.8830   60.3360 C   0  0  0  0  0  0  0  0  0  0  0  0
  133.5310  119.7080   60.2240 C   0  0  0  0  0  0  0  0  0  0  0  0
  133.6330  120.8710   60.9850 C   0  0  0  0  0  0  0  0  0  0  0  0
  132.6140  121.2480   61.8740 C   0  0  0  0  0  0  0  0  0  0  0  0
  132.7060  122.4050   62.6510 N   0  0  0  0  0  0  0  0  0  0  0  0
  131.9700  122.5550   63.9210 C   0  0  0  0  0  0  0  0  0  0  0  0
  131.8630  124.0160   64.4200 C   0  0  0  0  0  0  0  0  0  0  0  0
  133.1890  124.6230   64.5480 N   0  0  0  0  0  0  0  0  0  0  0  0
  133.1230  125.9980   65.0540 C   0  0  0  0  0  0  0  0  0  0  0  0
  132.9990  126.0710   66.5890 C   0  0  0  0  0  0  0  0  0  0  0  0
  131.5520  126.3120   67.0470 C   0  0  0  0  0  0  0  0  0  0  0  0
  130.6910  126.7470   65.8550 N   0  0  0  0  0  0  0  0  0  0  0  0
  133.8040  124.6160   63.2220 C   0  0  0  0  0  0  0  0  0  0  0  0
  133.9690  123.1700   62.7010 C   0  0  0  0  0  0  0  0  0  0  0  0
  131.4990  120.4050   61.9830 C   0  0  0  0  0  0  0  0  0  0  0  0
  131.3850  119.2330   61.2260 C   0  0  0  0  0  0  0  0  0  0  0  0
  130.1490  118.3580   61.3930 C   0  0  0  0  0  0  0  0  0  0  0  0
  132.2761  116.7399   60.1422 H   0  0  0  0  0  0  0  0  0  0  0  0
  131.4347  117.6628   58.8511 H   0  0  0  0  0  0  0  0  0  0  0  0
  133.2274  117.5492   58.8511 H   0  0  0  0  0  0  0  0  0  0  0  0
  134.3399  119.4384   59.5291 H   0  0  0  0  0  0  0  0  0  0  0  0
  134.5271  121.5043   60.8874 H   0  0  0  0  0  0  0  0  0  0  0  0
  130.9521  122.1630   63.7788 H   0  0  0  0  0  0  0  0  0  0  0  0
  132.5362  121.9999   64.6834 H   0  0  0  0  0  0  0  0  0  0  0  0
  131.2678  124.5991   63.7019 H   0  0  0  0  0  0  0  0  0  0  0  0
  131.3801  124.0152   65.4083 H   0  0  0  0  0  0  0  0  0  0  0  0
  134.0385  126.5271   64.7510 H   0  0  0  0  0  0  0  0  0  0  0  0
  132.2204  126.4614   64.6291 H   0  0  0  0  0  0  0  0  0  0  0  0
  133.3522  125.1216   67.0179 H   0  0  0  0  0  0  0  0  0  0  0  0
  133.6071  126.9196   66.9355 H   0  0  0  0  0  0  0  0  0  0  0  0
  131.1444  125.3825   67.4710 H   0  0  0  0  0  0  0  0  0  0  0  0
  131.5415  127.1052   67.8090 H   0  0  0  0  0  0  0  0  0  0  0  0
  129.7110  126.6470   66.0800 H   0  0  0  0  0  0  0  0  0  0  0  0
  130.8990  126.1760   65.0490 H   0  0  0  0  0  0  0  0  0  0  0  0
  130.8750  127.7130   65.6260 H   0  0  0  0  0  0  0  0  0  0  0  0
  133.1659  125.1796   62.5255 H   0  0  0  0  0  0  0  0  0  0  0  0
  134.7984  125.0811   63.2921 H   0  0  0  0  0  0  0  0  0  0  0  0
  134.3883  123.2135   61.6850 H   0  0  0  0  0  0  0  0  0  0  0  0
  134.6307  122.6488   63.4084 H   0  0  0  0  0  0  0  0  0  0  0  0
  130.6924  120.6716   62.6819 H   0  0  0  0  0  0  0  0  0  0  0  0
  129.9443  118.2131   62.4640 H   0  0  0  0  0  0  0  0  0  0  0  0
  129.2862  118.8476   60.9178 H   0  0  0  0  0  0  0  0  0  0  0  0
  130.3241  117.3815   60.9178 H   0  0  0  0  0  0  0  0  0  0  0  0
  1  2  1  0
  2  3  2  0
  3  4  1  0
  4  5  2  0
  5  6  1  0
  6  7  1  0
  7  8  1  0
  8  9  1  0
  9 10  1  0
 10 11  1  0
 11 12  1  0
 12 13  1  0
  9 14  1  0
 14 15  1  0
  5 16  1  0
 16 17  2  0
 17 18  1  0
 17  2  1  0
 15  6  1  0
  1 19  1  0
  1 20  1  0
  1 21  1  0
  3 22  1  0
  4 23  1  0
  7 24  1  0
  7 25  1  0
  8 26  1  0
  8 27  1  0
 10 28  1  0
 10 29  1  0
 11 30  1  0
 11 31  1  0
 12 32  1  0
 12 33  1  0
 13 34  1  0
 13 35  1  0
 13 36  1  0
 14 37  1  0
 14 38  1  0
 15 39  1  0
 15 40  1  0
 16 41  1  0
 18 42  1  0
 18 43  1  0
 18 44  1  0
M  CHG  1  13   1
M  END
>  <Binding energies>  (1) 
[-7.47]

>  <Ligand effiencies>  (1) 
[-0.3557142857142857]

>  <Interactions>  (1) 
["H-A:GLY:454:N:4049, V-A:HIS:456:CE1:4069, V-A:GLU:543:CD:4907, V-A:GLY:454:CA:4048, V-A:ARG:545:CZ:4925, V-B:ALA:541:CB:9863, V-A:ASP:366:CG:3212, V-A:ARG:545:CD:4922, V-A:ARG:545:CG:4921, V-B:TYR:539:CE2:9847, V-B:TYR:539:CD2:9845, H-A:TYR:484:OH:4347, H-A:GLU:543:OE2:4909, V-A:PRO:482:CG:4326, V-A:PRO:482:CB:4325, V-B:TYR:539:CB:9842, V-A:ILE:369:CG2:3236, V-A:SER:385:CA:3406, V-A:LEU:475:CD2:4258, V-B:TYR:539:C:9838, H-B:GLU:543:OE2:9881, V-A:ILE:369:CD1:3238, H-A:GLU:543:OE1:4908, V-A:HIS:383:CE1:3393"]

$$$$
RR32_Rahimova_2017
     RDKit          3D

 37 39  0  0  0  0  0  0  0  0999 V2000
  133.5120  123.2530   60.6400 C   0  0  0  0  0  0  0  0  0  0  0  0
  132.2930  122.3670   60.8760 C   0  0  0  0  0  0  0  0  0  0  0  0
  131.0710  122.9830   61.1480 C   0  0  0  0  0  0  0  0  0  0  0  0
  129.9370  122.2070   61.3650 C   0  0  0  0  0  0  0  0  0  0  0  0
  128.7270  122.8220   61.6350 N   0  0  0  0  0  0  0  0  0  0  0  0
  127.6800  122.7360   60.6000 C   0  0  0  0  0  0  0  0  0  0  0  0
  126.4380  123.6030   60.9150 C   0  0  0  0  0  0  0  0  0  0  0  0
  125.8590  123.2090   62.1990 N   0  0  0  0  0  0  0  0  0  0  0  0
  124.6690  124.0050   62.4810 C   0  0  0  0  0  0  0  0  0  0  0  0
  126.8680  123.4230   63.2340 C   0  0  0  0  0  0  0  0  0  0  0  0
  128.1180  122.5570   62.9520 C   0  0  0  0  0  0  0  0  0  0  0  0
  129.9610  120.8490   61.3270 N   0  0  0  0  0  0  0  0  0  0  0  0
  131.1390  120.2180   61.0670 C   0  0  0  0  0  0  0  0  0  0  0  0
  131.1350  118.8030   61.0360 C   0  0  0  0  0  0  0  0  0  0  0  0
  132.3090  118.1050   60.7760 C   0  0  0  0  0  0  0  0  0  0  0  0
  133.4970  118.7860   60.5420 C   0  0  0  0  0  0  0  0  0  0  0  0
  133.5350  120.1780   60.5650 C   0  0  0  0  0  0  0  0  0  0  0  0
  132.3570  120.9350   60.8290 C   0  0  0  0  0  0  0  0  0  0  0  0
  133.9348  123.5603   61.6079 H   0  0  0  0  0  0  0  0  0  0  0  0
  134.2682  122.6923   60.0710 H   0  0  0  0  0  0  0  0  0  0  0  0
  133.2121  124.1453   60.0710 H   0  0  0  0  0  0  0  0  0  0  0  0
  131.0044  124.0801   61.1908 H   0  0  0  0  0  0  0  0  0  0  0  0
  128.1064  123.0709   59.6429 H   0  0  0  0  0  0  0  0  0  0  0  0
  127.3456  121.6888   60.5599 H   0  0  0  0  0  0  0  0  0  0  0  0
  126.7355  124.6611   60.9600 H   0  0  0  0  0  0  0  0  0  0  0  0
  125.6883  123.4568   60.1234 H   0  0  0  0  0  0  0  0  0  0  0  0
  124.5366  124.0936   63.5694 H   0  0  0  0  0  0  0  0  0  0  0  0
  124.7860  125.0073   62.0431 H   0  0  0  0  0  0  0  0  0  0  0  0
  123.7873  123.5142   62.0431 H   0  0  0  0  0  0  0  0  0  0  0  0
  127.1568  124.4843   63.2453 H   0  0  0  0  0  0  0  0  0  0  0  0
  126.4468  123.1367   64.2090 H   0  0  0  0  0  0  0  0  0  0  0  0
  128.8675  122.7619   63.7307 H   0  0  0  0  0  0  0  0  0  0  0  0
  127.7934  121.5060   62.9550 H   0  0  0  0  0  0  0  0  0  0  0  0
  130.1997  118.2535   61.2183 H   0  0  0  0  0  0  0  0  0  0  0  0
  132.2971  117.0053   60.7554 H   0  0  0  0  0  0  0  0  0  0  0  0
  134.4174  118.2198   60.3364 H   0  0  0  0  0  0  0  0  0  0  0  0
  134.4854  120.6991   60.3772 H   0  0  0  0  0  0  0  0  0  0  0  0
  1  2  1  0
  2  3  2  0
  3  4  1  0
  4  5  1  0
  5  6  1  0
  6  7  1  0
  7  8  1  0
  8  9  1  0
  8 10  1  0
 10 11  1  0
  4 12  2  0
 12 13  1  0
 13 14  2  0
 14 15  1  0
 15 16  2  0
 16 17  1  0
 17 18  2  0
 18  2  1  0
 11  5  1  0
 18 13  1  0
  1 19  1  0
  1 20  1  0
  1 21  1  0
  3 22  1  0
  6 23  1  0
  6 24  1  0
  7 25  1  0
  7 26  1  0
  9 27  1  0
  9 28  1  0
  9 29  1  0
 10 30  1  0
 10 31  1  0
 11 32  1  0
 11 33  1  0
 14 34  1  0
 15 35  1  0
 16 36  1  0
 17 37  1  0
M  END
>  <Binding energies>  (1) 
[-6.26]

>  <Ligand effiencies>  (1) 
[-0.34777777777777774]

>  <Interactions>  (1) 
["V-B:GLU:543:CD:9879, V-B:ARG:545:CZ:9897, H-B:ALA:541:N:9862, V-B:PRO:540:CA:9854, V-B:PRO:540:CB:9856, V-B:ALA:541:CB:9863, V-B:PRO:540:C:9852, V-B:TYR:539:CE2:9847, V-B:TYR:539:CD2:9845, V-B:ASN:362:CB:8146, V-B:ALA:541:C:9859, V-B:GLU:543:CG:9878, V-B:ALA:541:CA:9861, V-A:SER:385:CB:3408, V-A:ILE:369:CG2:3236, V-A:SER:385:CA:3406, V-A:LEU:475:CD2:4258, V-B:TYR:539:C:9838, V-B:PRO:540:N:9855, V-A:ILE:369:CD1:3238, V-A:ILE:369:CB:3235, V-A:VAL:384:C:3396"]

$$$$
RR32_Rahimova_2017-again1
     RDKit          3D

 38 40  0  0  0  0  0  0  0  0999 V2000
  134.1320  121.6240   61.3850 C   0  0  0  0  0  0  0  0  0  0  0  0
  132.7190  121.1160   61.6290 C   0  0  0  0  0  0  0  0  0  0  0  0
  131.8200  121.8710   62.3840 C   0  0  0  0  0  0  0  0  0  0  0  0
  130.5200  121.4030   62.6030 C   0  0  0  0  0  0  0  0  0  0  0  0
  129.6060  122.1380   63.3650 N   0  0  0  0  0  0  0  0  0  0  0  0
  129.9360  122.5360   64.7480 C   0  0  0  0  0  0  0  0  0  0  0  0
  130.7230  123.8660   64.8130 C   0  0  0  0  0  0  0  0  0  0  0  0
  129.8520  124.9820   64.2020 N   0  0  0  0  0  0  0  0  0  0  0  0
  130.5950  126.3310   64.2250 C   0  0  0  0  0  0  0  0  0  0  0  0
  129.4830  124.5860   62.7580 C   0  0  0  0  0  0  0  0  0  0  0  0
  128.7710  123.2140   62.7890 C   0  0  0  0  0  0  0  0  0  0  0  0
  130.1090  120.2000   62.1170 N   0  0  0  0  0  0  0  0  0  0  0  0
  130.9620  119.4420   61.3750 C   0  0  0  0  0  0  0  0  0  0  0  0
  130.4950  118.2040   60.8720 C   0  0  0  0  0  0  0  0  0  0  0  0
  131.3330  117.3990   60.1060 C   0  0  0  0  0  0  0  0  0  0  0  0
  132.6360  117.7990   59.8270 C   0  0  0  0  0  0  0  0  0  0  0  0
  133.1250  119.0100   60.3100 C   0  0  0  0  0  0  0  0  0  0  0  0
  132.2980  119.8610   61.0950 C   0  0  0  0  0  0  0  0  0  0  0  0
  134.6291  121.8027   62.3499 H   0  0  0  0  0  0  0  0  0  0  0  0
  134.6982  120.8731   60.8144 H   0  0  0  0  0  0  0  0  0  0  0  0
  134.0905  122.5635   60.8144 H   0  0  0  0  0  0  0  0  0  0  0  0
  132.1344  122.8362   62.8078 H   0  0  0  0  0  0  0  0  0  0  0  0
  128.9999  122.6526   65.3138 H   0  0  0  0  0  0  0  0  0  0  0  0
  130.5746  121.7499   65.1773 H   0  0  0  0  0  0  0  0  0  0  0  0
  130.9553  124.1085   65.8605 H   0  0  0  0  0  0  0  0  0  0  0  0
  131.6646  123.7738   64.2519 H   0  0  0  0  0  0  0  0  0  0  0  0
  129.0010  125.0550   64.7410 H   0  0  0  0  0  0  0  0  0  0  0  0
  130.7644  126.6386   65.2675 H   0  0  0  0  0  0  0  0  0  0  0  0
  131.5623  126.2256   63.7120 H   0  0  0  0  0  0  0  0  0  0  0  0
  129.9889  127.0922   63.7120 H   0  0  0  0  0  0  0  0  0  0  0  0
  128.8110  125.3425   62.3266 H   0  0  0  0  0  0  0  0  0  0  0  0
  130.3920  124.5236   62.1417 H   0  0  0  0  0  0  0  0  0  0  0  0
  127.8564  123.3082   63.3929 H   0  0  0  0  0  0  0  0  0  0  0  0
  128.5513  122.9358   61.7477 H   0  0  0  0  0  0  0  0  0  0  0  0
  129.4669  117.8773   61.0871 H   0  0  0  0  0  0  0  0  0  0  0  0
  130.9621  116.4388   59.7181 H   0  0  0  0  0  0  0  0  0  0  0  0
  133.2860  117.1525   59.2191 H   0  0  0  0  0  0  0  0  0  0  0  0
  134.1584  119.3110   60.0830 H   0  0  0  0  0  0  0  0  0  0  0  0
  1  2  1  0
  2  3  2  0
  3  4  1  0
  4  5  1  0
  5  6  1  0
  6  7  1  0
  7  8  1  0
  8  9  1  0
  8 10  1  0
 10 11  1  0
  4 12  2  0
 12 13  1  0
 13 14  2  0
 14 15  1  0
 15 16  2  0
 16 17  1  0
 17 18  2  0
 18  2  1  0
 11  5  1  0
 18 13  1  0
  1 19  1  0
  1 20  1  0
  1 21  1  0
  3 22  1  0
  6 23  1  0
  6 24  1  0
  7 25  1  0
  7 26  1  0
  8 27  1  0
  9 28  1  0
  9 29  1  0
  9 30  1  0
 10 31  1  0
 10 32  1  0
 11 33  1  0
 11 34  1  0
 14 35  1  0
 15 36  1  0
 16 37  1  0
 17 38  1  0
M  CHG  1   8   1
M  END
>  <Binding energies>  (1) 
[-7.06]

>  <Ligand effiencies>  (1) 
[-0.371578947368421]

>  <Interactions>  (1) 
["V-B:GLU:543:CD:9879, V-B:ALA:541:CB:9863, V-B:TYR:539:CD2:9845, V-B:TYR:539:CB:9842, V-A:SER:385:CB:3408, V-A:ILE:369:CG2:3236, V-A:SER:385:CA:3406, V-A:LEU:475:CD2:4258, V-B:TYR:539:C:9838, H-B:GLU:543:OE2:9881, V-A:ILE:369:CD1:3238, V-A:SER:385:C:3404, H-B:GLU:543:OE1:9880, V-A:LEU:475:CD1:4257, V-A:HIS:383:CE1:3393"]

$$$$
RR32_Rahimova_2017-again2
     RDKit          3D

 39 41  0  0  0  0  0  0  0  0999 V2000
  134.0370  121.6040   61.4290 C   0  0  0  0  0  0  0  0  0  0  0  0
  132.6000  121.1120   61.5330 C   0  0  0  0  0  0  0  0  0  0  0  0
  131.6260  121.9120   62.1370 C   0  0  0  0  0  0  0  0  0  0  0  0
  130.2990  121.4740   62.2480 C   0  0  0  0  0  0  0  0  0  0  0  0
  129.2550  122.2660   62.8480 N   0  0  0  0  0  0  0  0  0  0  0  0
  129.2200  122.4940   64.3170 C   0  0  0  0  0  0  0  0  0  0  0  0
  130.1140  123.7010   64.7070 C   0  0  0  0  0  0  0  0  0  0  0  0
  129.6120  124.9710   63.9790 N   0  0  0  0  0  0  0  0  0  0  0  0
  130.5110  126.1810   64.2980 C   0  0  0  0  0  0  0  0  0  0  0  0
  129.5420  124.7200   62.4540 C   0  0  0  0  0  0  0  0  0  0  0  0
  128.6760  123.4610   62.1830 C   0  0  0  0  0  0  0  0  0  0  0  0
  129.9910  120.2610   61.7450 N   0  0  0  0  0  0  0  0  0  0  0  0
  130.8800  119.4070   61.1340 C   0  0  0  0  0  0  0  0  0  0  0  0
  130.4520  118.1530   60.6430 C   0  0  0  0  0  0  0  0  0  0  0  0
  131.3780  117.3160   60.0260 C   0  0  0  0  0  0  0  0  0  0  0  0
  132.7090  117.7040   59.8950 C   0  0  0  0  0  0  0  0  0  0  0  0
  133.1450  118.9380   60.3760 C   0  0  0  0  0  0  0  0  0  0  0  0
  132.2370  119.8300   61.0140 C   0  0  0  0  0  0  0  0  0  0  0  0
  134.4501  121.7454   62.4386 H   0  0  0  0  0  0  0  0  0  0  0  0
  134.6405  120.8613   60.8866 H   0  0  0  0  0  0  0  0  0  0  0  0
  134.0586  122.5607   60.8866 H   0  0  0  0  0  0  0  0  0  0  0  0
  131.9050  122.9003   62.5312 H   0  0  0  0  0  0  0  0  0  0  0  0
  128.1841  122.6973   64.6261 H   0  0  0  0  0  0  0  0  0  0  0  0
  129.6002  121.5945   64.8233 H   0  0  0  0  0  0  0  0  0  0  0  0
  130.0642  123.8579   65.7946 H   0  0  0  0  0  0  0  0  0  0  0  0
  131.1542  123.4969   64.4133 H   0  0  0  0  0  0  0  0  0  0  0  0
  128.6730  125.1620   64.3030 H   0  0  0  0  0  0  0  0  0  0  0  0
  130.5969  126.2966   65.3885 H   0  0  0  0  0  0  0  0  0  0  0  0
  131.5099  126.0195   63.8666 H   0  0  0  0  0  0  0  0  0  0  0  0
  130.0680  127.0908   63.8666 H   0  0  0  0  0  0  0  0  0  0  0  0
  129.0895  125.5914   61.9582 H   0  0  0  0  0  0  0  0  0  0  0  0
  130.5563  124.5628   62.0585 H   0  0  0  0  0  0  0  0  0  0  0  0
  127.6607  123.6321   62.5703 H   0  0  0  0  0  0  0  0  0  0  0  0
  128.6482  123.2805   61.0983 H   0  0  0  0  0  0  0  0  0  0  0  0
  129.0310  119.9600   61.8190 H   0  0  0  0  0  0  0  0  0  0  0  0
  129.4019  117.8424   60.7468 H   0  0  0  0  0  0  0  0  0  0  0  0
  131.0550  116.3386   59.6382 H   0  0  0  0  0  0  0  0  0  0  0  0
  133.4258  117.0281   59.4057 H   0  0  0  0  0  0  0  0  0  0  0  0
  134.2007  119.2251   60.2614 H   0  0  0  0  0  0  0  0  0  0  0  0
  1  2  1  0
  2  3  2  0
  3  4  1  0
  4  5  1  0
  5  6  1  0
  6  7  1  0
  7  8  1  0
  8  9  1  0
  8 10  1  0
 10 11  1  0
  4 12  2  0
 12 13  1  0
 13 14  2  0
 14 15  1  0
 15 16  2  0
 16 17  1  0
 17 18  2  0
 18  2  1  0
 11  5  1  0
 18 13  1  0
  1 19  1  0
  1 20  1  0
  1 21  1  0
  3 22  1  0
  6 23  1  0
  6 24  1  0
  7 25  1  0
  7 26  1  0
  8 27  1  0
  9 28  1  0
  9 29  1  0
  9 30  1  0
 10 31  1  0
 10 32  1  0
 11 33  1  0
 11 34  1  0
 12 35  1  0
 14 36  1  0
 15 37  1  0
 16 38  1  0
 17 39  1  0
M  CHG  2   8   1  12   1
M  END
>  <Binding energies>  (1) 
[-7.18]

>  <Ligand effiencies>  (1) 
[-0.359]

>  <Interactions>  (1) 
["V-B:GLU:543:CD:9879, V-B:ALA:541:CB:9863, V-B:TYR:539:CD2:9845, V-B:GLU:543:CG:9878, V-B:TYR:539:CB:9842, V-A:SER:385:CB:3408, V-A:ILE:369:CG2:3236, V-A:SER:385:CA:3406, V-A:LEU:475:CD2:4258, V-B:TYR:539:C:9838, H-B:GLU:543:OE2:9881, H-B:TYR:539:O:9839, V-A:ILE:369:CD1:3238, V-A:SER:385:C:3404, H-B:GLU:543:OE1:9880, V-A:HIS:383:CE1:3393, V-A:VAL:384:C:3396"]

$$$$
RR33_Rahimova_2017
     RDKit          3D

 36 37  0  0  0  0  0  0  0  0999 V2000
  122.5940  130.8710   62.6220 C   0  0  0  0  0  0  0  0  0  0  0  0
  123.6460  130.0030   63.3180 C   0  0  0  0  0  0  0  0  0  0  0  0
  123.3840  130.0000   64.7190 O   0  0  0  0  0  0  0  0  0  0  0  0
  124.3680  129.5790   65.5920 C   0  0  0  0  0  0  0  0  0  0  0  0
  123.9630  129.2980   66.8960 C   0  0  0  0  0  0  0  0  0  0  0  0
  124.8850  128.8700   67.8480 C   0  0  0  0  0  0  0  0  0  0  0  0
  126.2320  128.7160   67.5060 C   0  0  0  0  0  0  0  0  0  0  0  0
  127.2210  128.2570   68.5290 C   0  0  0  0  0  0  0  0  0  0  0  0
  127.1730  127.1650   69.2590 N   0  0  0  0  0  0  0  0  0  0  0  0
  128.2640  127.1970   70.0080 C   0  0  0  0  0  0  0  0  0  0  0  0
  128.5680  126.0830   70.9870 C   0  0  0  0  0  0  0  0  0  0  0  0
  127.4460  125.8720   71.8900 N   0  0  0  0  0  0  0  0  0  0  0  0
  127.4940  126.8130   72.9960 C   0  0  0  0  0  0  0  0  0  0  0  0
  128.9940  128.3440   69.7210 C   0  0  0  0  0  0  0  0  0  0  0  0
  130.2900  128.9420   70.2120 C   0  0  0  0  0  0  0  0  0  0  0  0
  128.3170  129.0240   68.7680 O   0  0  0  0  0  0  0  0  0  0  0  0
  126.6420  128.9920   66.1980 C   0  0  0  0  0  0  0  0  0  0  0  0
  125.7200  129.4210   65.2460 C   0  0  0  0  0  0  0  0  0  0  0  0
  121.9785  131.3789   63.3791 H   0  0  0  0  0  0  0  0  0  0  0  0
  123.0955  131.6216   61.9935 H   0  0  0  0  0  0  0  0  0  0  0  0
  121.9523  130.2361   61.9935 H   0  0  0  0  0  0  0  0  0  0  0  0
  123.5932  128.9752   62.9297 H   0  0  0  0  0  0  0  0  0  0  0  0
  124.6509  130.4072   63.1262 H   0  0  0  0  0  0  0  0  0  0  0  0
  122.9056  129.4154   67.1755 H   0  0  0  0  0  0  0  0  0  0  0  0
  124.5521  128.6521   68.8735 H   0  0  0  0  0  0  0  0  0  0  0  0
  128.7622  125.1550   70.4293 H   0  0  0  0  0  0  0  0  0  0  0  0
  129.4512  126.3638   71.5795 H   0  0  0  0  0  0  0  0  0  0  0  0
  127.4880  124.9310   72.2580 H   0  0  0  0  0  0  0  0  0  0  0  0
  127.4659  126.2620   73.9477 H   0  0  0  0  0  0  0  0  0  0  0  0
  128.4232  127.3989   72.9388 H   0  0  0  0  0  0  0  0  0  0  0  0
  126.6292  127.4904   72.9388 H   0  0  0  0  0  0  0  0  0  0  0  0
  130.2985  128.9459   71.3120 H   0  0  0  0  0  0  0  0  0  0  0  0
  131.1343  128.3424   69.8409 H   0  0  0  0  0  0  0  0  0  0  0  0
  130.3817  129.9735   69.8409 H   0  0  0  0  0  0  0  0  0  0  0  0
  127.6990  128.8696   65.9191 H   0  0  0  0  0  0  0  0  0  0  0  0
  126.0520  129.6368   64.2197 H   0  0  0  0  0  0  0  0  0  0  0  0
  1  2  1  0
  2  3  1  0
  3  4  1  0
  4  5  2  0
  5  6  1  0
  6  7  2  0
  7  8  1  0
  8  9  2  0
  9 10  1  0
 10 11  1  0
 11 12  1  0
 12 13  1  0
 10 14  2  0
 14 15  1  0
 14 16  1  0
  7 17  1  0
 17 18  2  0
 18  4  1  0
 16  8  1  0
  1 19  1  0
  1 20  1  0
  1 21  1  0
  2 22  1  0
  2 23  1  0
  5 24  1  0
  6 25  1  0
 11 26  1  0
 11 27  1  0
 12 28  1  0
 13 29  1  0
 13 30  1  0
 13 31  1  0
 15 32  1  0
 15 33  1  0
 15 34  1  0
 17 35  1  0
 18 36  1  0
M  END
>  <Binding energies>  (1) 
[-5.49]

>  <Ligand effiencies>  (1) 
[-0.2889473684210526]

>  <Interactions>  (1) 
["V-B:ARG:545:CG:9893, V-A:GLU:543:CB:4905, V-B:GLU:543:CB:9877, V-B:GLU:543:CD:9879, V-B:HIS:456:CE1:9040, V-A:HIS:456:CE1:4069, V-B:ARG:545:CZ:9897, V-B:ARG:545:CD:9894, H-B:GLY:454:N:9020, V-A:GLU:543:C:4901, V-B:GLU:543:C:9873, V-B:GLY:544:C:9883, H-B:ARG:545:NH1:9898, V-B:GLY:453:C:9012, V-B:GLY:453:CA:9014, H-B:GLU:543:O:9874, V-B:LYS:547:CE:9921, H-B:GLY:544:O:9884"]

$$$$
RR33_Rahimova_2017-again1
     RDKit          3D

 37 38  0  0  0  0  0  0  0  0999 V2000
  132.8210  118.3410   59.1900 C   0  0  0  0  0  0  0  0  0  0  0  0
  132.8290  119.0820   60.5300 C   0  0  0  0  0  0  0  0  0  0  0  0
  133.5370  120.3080   60.3720 O   0  0  0  0  0  0  0  0  0  0  0  0
  133.2770  121.3570   61.2340 C   0  0  0  0  0  0  0  0  0  0  0  0
  133.3790  121.0820   62.5980 C   0  0  0  0  0  0  0  0  0  0  0  0
  133.1370  122.0750   63.5430 C   0  0  0  0  0  0  0  0  0  0  0  0
  132.7860  123.3660   63.1340 C   0  0  0  0  0  0  0  0  0  0  0  0
  132.5260  124.4360   64.1450 C   0  0  0  0  0  0  0  0  0  0  0  0
  131.4510  125.1830   64.2640 N   0  0  0  0  0  0  0  0  0  0  0  0
  131.6860  125.9770   65.2980 C   0  0  0  0  0  0  0  0  0  0  0  0
  130.6650  127.0050   65.7460 C   0  0  0  0  0  0  0  0  0  0  0  0
  129.4910  127.0140   64.7530 N   0  0  0  0  0  0  0  0  0  0  0  0
  129.6210  128.0820   63.6580 C   0  0  0  0  0  0  0  0  0  0  0  0
  132.9480  125.7050   65.8140 C   0  0  0  0  0  0  0  0  0  0  0  0
  133.7850  126.2450   66.9470 C   0  0  0  0  0  0  0  0  0  0  0  0
  133.4830  124.7100   65.0680 O   0  0  0  0  0  0  0  0  0  0  0  0
  132.6830  123.6460   61.7670 C   0  0  0  0  0  0  0  0  0  0  0  0
  132.9270  122.6520   60.8230 C   0  0  0  0  0  0  0  0  0  0  0  0
  132.8093  117.2561   59.3710 H   0  0  0  0  0  0  0  0  0  0  0  0
  131.9259  118.6270   58.6182 H   0  0  0  0  0  0  0  0  0  0  0  0
  133.7221  118.6076   58.6182 H   0  0  0  0  0  0  0  0  0  0  0  0
  131.7954  119.2897   60.8439 H   0  0  0  0  0  0  0  0  0  0  0  0
  133.3189  118.4634   61.2964 H   0  0  0  0  0  0  0  0  0  0  0  0
  133.6535  120.0699   62.9301 H   0  0  0  0  0  0  0  0  0  0  0  0
  133.2220  121.8438   64.6151 H   0  0  0  0  0  0  0  0  0  0  0  0
  130.2967  126.7453   66.7495 H   0  0  0  0  0  0  0  0  0  0  0  0
  131.1312  128.0008   65.7778 H   0  0  0  0  0  0  0  0  0  0  0  0
  129.4240  126.1050   64.3200 H   0  0  0  0  0  0  0  0  0  0  0  0
  128.6360  127.1770   65.2680 H   0  0  0  0  0  0  0  0  0  0  0  0
  129.7414  129.0714   64.1233 H   0  0  0  0  0  0  0  0  0  0  0  0
  130.4989  127.8614   63.0330 H   0  0  0  0  0  0  0  0  0  0  0  0
  128.7158  128.0784   63.0330 H   0  0  0  0  0  0  0  0  0  0  0  0
  133.3339  125.9540   67.9071 H   0  0  0  0  0  0  0  0  0  0  0  0
  134.8026  125.8327   66.8800 H   0  0  0  0  0  0  0  0  0  0  0  0
  133.8288  127.3421   66.8800 H   0  0  0  0  0  0  0  0  0  0  0  0
  132.4074  124.6581   61.4359 H   0  0  0  0  0  0  0  0  0  0  0  0
  132.8450  122.8830   59.7507 H   0  0  0  0  0  0  0  0  0  0  0  0
  1  2  1  0
  2  3  1  0
  3  4  1  0
  4  5  2  0
  5  6  1  0
  6  7  2  0
  7  8  1  0
  8  9  2  0
  9 10  1  0
 10 11  1  0
 11 12  1  0
 12 13  1  0
 10 14  2  0
 14 15  1  0
 14 16  1  0
  7 17  1  0
 17 18  2  0
 18  4  1  0
 16  8  1  0
  1 19  1  0
  1 20  1  0
  1 21  1  0
  2 22  1  0
  2 23  1  0
  5 24  1  0
  6 25  1  0
 11 26  1  0
 11 27  1  0
 12 28  1  0
 12 29  1  0
 13 30  1  0
 13 31  1  0
 13 32  1  0
 15 33  1  0
 15 34  1  0
 15 35  1  0
 17 36  1  0
 18 37  1  0
M  CHG  1  12   1
M  END
>  <Binding energies>  (1) 
[-6.47]

>  <Ligand effiencies>  (1) 
[-0.3235]

>  <Interactions>  (1) 
["V-B:GLU:543:CD:9879, H-A:GLY:454:N:4049, V-A:GLU:543:CD:4907, V-A:GLY:454:CA:4048, V-A:ARG:545:CZ:4925, V-A:ARG:545:CD:4922, V-A:ARG:545:CG:4921, V-B:TYR:539:CE2:9847, V-B:TYR:539:CD2:9845, H-A:TYR:484:OH:4347, V-B:TYR:539:CG:9843, V-A:LEU:373:CD2:3280, V-A:SER:385:CB:3408, V-A:ILE:369:CG2:3236, V-A:SER:385:CA:3406, V-A:LEU:475:CD2:4258, V-A:LEU:373:CG:3278, H-B:GLU:543:OE2:9881, V-A:ILE:369:CD1:3238, V-A:SER:385:C:3404, H-B:GLU:543:OE1:9880"]

$$$$
RR3_Rahimova_2017
     RDKit          3D

 63 69  0  0  0  0  0  0  0  0999 V2000
  133.9810  122.6560   62.8880 C   0  0  0  0  0  0  0  0  0  0  0  0
  132.8390  122.3410   63.6170 C   0  0  0  0  0  0  0  0  0  0  0  0
  131.9490  123.3500   63.9750 C   0  0  0  0  0  0  0  0  0  0  0  0
  132.1870  124.6830   63.6100 C   0  0  0  0  0  0  0  0  0  0  0  0
  131.2290  125.7670   63.9950 C   0  0  0  0  0  0  0  0  0  0  0  0
  131.0520  126.1280   65.3380 C   0  0  0  0  0  0  0  0  0  0  0  0
  130.1590  127.1340   65.6960 C   0  0  0  0  0  0  0  0  0  0  0  0
  129.4130  127.7970   64.7170 C   0  0  0  0  0  0  0  0  0  0  0  0
  128.4470  128.8750   65.0950 C   0  0  0  0  0  0  0  0  0  0  0  0
  127.9250  129.6590   64.1580 N   0  0  0  0  0  0  0  0  0  0  0  0
  127.0920  130.4680   64.7670 C   0  0  0  0  0  0  0  0  0  0  0  0
  126.2940  131.5020   64.1140 C   0  0  0  0  0  0  0  0  0  0  0  0
  126.6910  132.8090   63.8880 C   0  0  0  0  0  0  0  0  0  0  0  0
  125.6980  133.5010   63.2450 N   0  0  0  0  0  0  0  0  0  0  0  0
  124.6160  132.6760   63.0300 C   0  0  0  0  0  0  0  0  0  0  0  0
  123.3830  132.9280   62.4190 C   0  0  0  0  0  0  0  0  0  0  0  0
  122.4800  131.8670   62.3540 C   0  0  0  0  0  0  0  0  0  0  0  0
  122.7840  130.6120   62.8720 C   0  0  0  0  0  0  0  0  0  0  0  0
  124.0130  130.3610   63.4810 C   0  0  0  0  0  0  0  0  0  0  0  0
  124.9600  131.3970   63.5720 C   0  0  0  0  0  0  0  0  0  0  0  0
  127.0670  130.2220   66.1120 N   0  0  0  0  0  0  0  0  0  0  0  0
  127.9530  129.2080   66.3690 C   0  0  0  0  0  0  0  0  0  0  0  0
  128.2380  128.7080   67.7470 C   0  0  0  0  0  0  0  0  0  0  0  0
  129.3220  129.2150   68.4650 C   0  0  0  0  0  0  0  0  0  0  0  0
  129.5980  128.7430   69.7440 C   0  0  0  0  0  0  0  0  0  0  0  0
  128.7960  127.7580   70.3380 C   0  0  0  0  0  0  0  0  0  0  0  0
  129.1070  127.2390   71.7070 C   0  0  0  0  0  0  0  0  0  0  0  0
  128.7250  125.9440   72.0890 C   0  0  0  0  0  0  0  0  0  0  0  0
  129.0190  125.4600   73.3620 C   0  0  0  0  0  0  0  0  0  0  0  0
  129.7010  126.2670   74.2670 C   0  0  0  0  0  0  0  0  0  0  0  0
  130.0900  127.5530   73.9080 C   0  0  0  0  0  0  0  0  0  0  0  0
  129.7930  128.0350   72.6370 C   0  0  0  0  0  0  0  0  0  0  0  0
  127.6990  127.2700   69.6130 C   0  0  0  0  0  0  0  0  0  0  0  0
  127.4200  127.7400   68.3330 C   0  0  0  0  0  0  0  0  0  0  0  0
  129.5920  127.4530   63.3760 C   0  0  0  0  0  0  0  0  0  0  0  0
  130.4860  126.4470   63.0210 C   0  0  0  0  0  0  0  0  0  0  0  0
  133.3460  124.9770   62.8750 C   0  0  0  0  0  0  0  0  0  0  0  0
  134.2380  123.9710   62.5140 C   0  0  0  0  0  0  0  0  0  0  0  0
  134.6856  121.8600   62.6054 H   0  0  0  0  0  0  0  0  0  0  0  0
  132.6400  121.2994   63.9093 H   0  0  0  0  0  0  0  0  0  0  0  0
  131.0469  123.0982   64.5520 H   0  0  0  0  0  0  0  0  0  0  0  0
  131.6266  125.6092   66.1195 H   0  0  0  0  0  0  0  0  0  0  0  0
  130.0397  127.4087   66.7544 H   0  0  0  0  0  0  0  0  0  0  0  0
  127.6633  133.2311   64.1821 H   0  0  0  0  0  0  0  0  0  0  0  0
  125.7930  134.4720   62.9880 H   0  0  0  0  0  0  0  0  0  0  0  0
  123.1368  133.9183   62.0083 H   0  0  0  0  0  0  0  0  0  0  0  0
  121.5003  132.0269   61.8800 H   0  0  0  0  0  0  0  0  0  0  0  0
  122.0417  129.8035   62.7998 H   0  0  0  0  0  0  0  0  0  0  0  0
  124.2395  129.3636   63.8859 H   0  0  0  0  0  0  0  0  0  0  0  0
  126.5170  130.7190   66.7980 H   0  0  0  0  0  0  0  0  0  0  0  0
  129.9607  129.9909   68.0177 H   0  0  0  0  0  0  0  0  0  0  0  0
  130.4579  129.1483   70.2975 H   0  0  0  0  0  0  0  0  0  0  0  0
  128.1870  125.3032   71.3749 H   0  0  0  0  0  0  0  0  0  0  0  0
  128.7130  124.4435   73.6504 H   0  0  0  0  0  0  0  0  0  0  0  0
  129.9339  125.8857   75.2722 H   0  0  0  0  0  0  0  0  0  0  0  0
  130.6306  128.1869   74.6263 H   0  0  0  0  0  0  0  0  0  0  0  0
  130.1000  129.0536   72.3575 H   0  0  0  0  0  0  0  0  0  0  0  0
  127.0495  126.5045   70.0627 H   0  0  0  0  0  0  0  0  0  0  0  0
  126.5528  127.3478   67.7816 H   0  0  0  0  0  0  0  0  0  0  0  0
  129.0234  127.9799   62.5956 H   0  0  0  0  0  0  0  0  0  0  0  0
  130.6110  126.1821   61.9607 H   0  0  0  0  0  0  0  0  0  0  0  0
  133.5523  126.0165   62.5802 H   0  0  0  0  0  0  0  0  0  0  0  0
  135.1415  124.2147   61.9359 H   0  0  0  0  0  0  0  0  0  0  0  0
  1  2  2  0
  2  3  1  0
  3  4  2  0
  4  5  1  0
  5  6  2  0
  6  7  1  0
  7  8  2  0
  8  9  1  0
  9 10  1  0
 10 11  2  0
 11 12  1  0
 12 13  2  0
 13 14  1  0
 14 15  1  0
 15 16  2  0
 16 17  1  0
 17 18  2  0
 18 19  1  0
 19 20  2  0
 11 21  1  0
 21 22  1  0
 22 23  1  0
 23 24  2  0
 24 25  1  0
 25 26  2  0
 26 27  1  0
 27 28  2  0
 28 29  1  0
 29 30  2  0
 30 31  1  0
 31 32  2  0
 26 33  1  0
 33 34  2  0
  8 35  1  0
 35 36  2  0
  4 37  1  0
 37 38  2  0
 38  1  1  0
 36  5  1  0
 22  9  2  0
 34 23  1  0
 20 12  1  0
 32 27  1  0
 20 15  1  0
  1 39  1  0
  2 40  1  0
  3 41  1  0
  6 42  1  0
  7 43  1  0
 13 44  1  0
 14 45  1  0
 16 46  1  0
 17 47  1  0
 18 48  1  0
 19 49  1  0
 21 50  1  0
 24 51  1  0
 25 52  1  0
 28 53  1  0
 29 54  1  0
 30 55  1  0
 31 56  1  0
 32 57  1  0
 33 58  1  0
 34 59  1  0
 35 60  1  0
 36 61  1  0
 37 62  1  0
 38 63  1  0
M  END
>  <Binding energies>  (1) 
[-9.44]

>  <Ligand effiencies>  (1) 
[-0.236]

>  <Interactions>  (1) 
["V-A:GLU:543:CB:4905, V-B:GLU:543:CB:9877, V-A:GLU:543:CG:4906, V-B:GLU:543:CD:9879, V-B:HIS:456:CE1:9040, V-B:SER:385:CB:8379, V-A:HIS:456:CE1:4069, V-A:GLU:543:CD:4907, V-A:GLY:454:CA:4048, V-B:LEU:475:CD1:9228, H-B:TYR:484:OH:9318, V-B:ILE:369:CG1:8208, V-A:ASP:366:CG:3212, V-B:GLY:453:C:9012, V-A:LEU:475:CD2:4258, V-B:GLY:453:CA:9014, V-B:GLY:454:CA:9019, V-B:SER:385:C:8375, V-A:GLY:453:C:4041, V-A:ILE:369:CD1:3238, V-B:LYS:547:CE:9921"]

$$$$
RR4_Rahimova_2017
     RDKit          3D

 66 70  0  0  0  0  0  0  0  0999 V2000
  128.3030  128.2800   74.8220 C   0  0  0  0  0  0  0  0  0  0  0  0
  128.2750  127.0930   74.0370 O   0  0  0  0  0  0  0  0  0  0  0  0
  128.4050  127.1890   72.6650 C   0  0  0  0  0  0  0  0  0  0  0  0
  129.3620  128.0830   72.1890 C   0  0  0  0  0  0  0  0  0  0  0  0
  129.5640  128.2460   70.8220 C   0  0  0  0  0  0  0  0  0  0  0  0
  128.8110  127.5190   69.8880 C   0  0  0  0  0  0  0  0  0  0  0  0
  129.0310  127.6970   68.4130 C   0  0  0  0  0  0  0  0  0  0  0  0
  130.0270  127.0140   67.7070 C   0  0  0  0  0  0  0  0  0  0  0  0
  130.1890  127.2120   66.3300 C   0  0  0  0  0  0  0  0  0  0  0  0
  131.2550  126.4250   65.6380 C   0  0  0  0  0  0  0  0  0  0  0  0
  131.0060  125.8570   64.3850 C   0  0  0  0  0  0  0  0  0  0  0  0
  131.9970  125.1320   63.7280 C   0  0  0  0  0  0  0  0  0  0  0  0
  133.2560  124.9680   64.3060 C   0  0  0  0  0  0  0  0  0  0  0  0
  134.1760  124.2350   63.5820 O   0  0  0  0  0  0  0  0  0  0  0  0
  133.8890  123.9050   62.2270 C   0  0  0  0  0  0  0  0  0  0  0  0
  133.5110  125.5410   65.5610 C   0  0  0  0  0  0  0  0  0  0  0  0
  132.5190  126.2660   66.2160 C   0  0  0  0  0  0  0  0  0  0  0  0
  129.3420  128.1400   65.6770 C   0  0  0  0  0  0  0  0  0  0  0  0
  129.4690  128.3840   64.2370 C   0  0  0  0  0  0  0  0  0  0  0  0
  129.5690  128.5770   63.1000 N   0  0  0  0  0  0  0  0  0  0  0  0
  128.3770  128.8180   66.4570 C   0  0  0  0  0  0  0  0  0  0  0  0
  127.2400  130.0240   65.8080 S   0  0  0  0  0  0  0  0  0  0  0  0
  128.2180  131.4360   65.1940 C   0  0  0  0  0  0  0  0  0  0  0  0
  128.4460  131.4410   63.6760 C   0  0  0  0  0  0  0  0  0  0  0  0
  127.5370  131.1280   62.9040 O   0  0  0  0  0  0  0  0  0  0  0  0
  129.6960  131.7930   63.2930 N   0  0  0  0  0  0  0  0  0  0  0  0
  130.2110  131.8940   61.9980 C   0  0  0  0  0  0  0  0  0  0  0  0
  131.6160  131.0090   61.4650 S   0  0  0  0  0  0  0  0  0  0  0  0
  131.5220  131.7080   59.8770 C   0  0  0  0  0  0  0  0  0  0  0  0
  130.4420  132.5980   59.7680 C   0  0  0  0  0  0  0  0  0  0  0  0
  129.6920  132.6900   60.9660 C   0  0  0  0  0  0  0  0  0  0  0  0
  128.5080  133.5320   61.1100 C   0  0  0  0  0  0  0  0  0  0  0  0
  127.5700  134.2000   61.2240 N   0  0  0  0  0  0  0  0  0  0  0  0
  130.1230  133.3150   58.4510 C   0  0  0  0  0  0  0  0  0  0  0  0
  130.8500  132.6340   57.2690 C   0  0  0  0  0  0  0  0  0  0  0  0
  132.3240  132.3320   57.5910 C   0  0  0  0  0  0  0  0  0  0  0  0
  132.4690  131.3220   58.7490 C   0  0  0  0  0  0  0  0  0  0  0  0
  128.2200  128.5840   67.7810 N   0  0  0  0  0  0  0  0  0  0  0  0
  127.8520  126.6180   70.3770 C   0  0  0  0  0  0  0  0  0  0  0  0
  127.6470  126.4530   71.7440 C   0  0  0  0  0  0  0  0  0  0  0  0
  128.2967  128.0140   75.8893 H   0  0  0  0  0  0  0  0  0  0  0  0
  129.2149  128.8505   74.5917 H   0  0  0  0  0  0  0  0  0  0  0  0
  127.4191  128.8929   74.5917 H   0  0  0  0  0  0  0  0  0  0  0  0
  129.9641  128.6660   72.9014 H   0  0  0  0  0  0  0  0  0  0  0  0
  130.3260  128.9560   70.4682 H   0  0  0  0  0  0  0  0  0  0  0  0
  130.6893  126.3147   68.2384 H   0  0  0  0  0  0  0  0  0  0  0  0
  130.0198  125.9837   63.9145 H   0  0  0  0  0  0  0  0  0  0  0  0
  131.7853  124.6851   62.7454 H   0  0  0  0  0  0  0  0  0  0  0  0
  133.1674  123.0753   62.1966 H   0  0  0  0  0  0  0  0  0  0  0  0
  133.4612  124.7818   61.7188 H   0  0  0  0  0  0  0  0  0  0  0  0
  134.8166  123.6030   61.7188 H   0  0  0  0  0  0  0  0  0  0  0  0
  134.4985  125.4170   66.0294 H   0  0  0  0  0  0  0  0  0  0  0  0
  132.7310  126.7176   67.1964 H   0  0  0  0  0  0  0  0  0  0  0  0
  127.6910  132.3627   65.4652 H   0  0  0  0  0  0  0  0  0  0  0  0
  129.2115  131.3539   65.6591 H   0  0  0  0  0  0  0  0  0  0  0  0
  130.3460  132.0260   64.0290 H   0  0  0  0  0  0  0  0  0  0  0  0
  129.0377  133.2815   58.2752 H   0  0  0  0  0  0  0  0  0  0  0  0
  130.4655  134.3578   58.5237 H   0  0  0  0  0  0  0  0  0  0  0  0
  130.3376  131.6893   57.0346 H   0  0  0  0  0  0  0  0  0  0  0  0
  130.8254  133.3250   56.4135 H   0  0  0  0  0  0  0  0  0  0  0  0
  132.8050  131.9149   56.6940 H   0  0  0  0  0  0  0  0  0  0  0  0
  132.8035  133.2727   57.8994 H   0  0  0  0  0  0  0  0  0  0  0  0
  132.2196  130.3128   58.3894 H   0  0  0  0  0  0  0  0  0  0  0  0
  133.5050  131.3325   59.1187 H   0  0  0  0  0  0  0  0  0  0  0  0
  127.2511  126.0313   69.6666 H   0  0  0  0  0  0  0  0  0  0  0  0
  126.8876  125.7426   72.1026 H   0  0  0  0  0  0  0  0  0  0  0  0
  1  2  1  0
  2  3  1  0
  3  4  2  0
  4  5  1  0
  5  6  2  0
  6  7  1  0
  7  8  2  0
  8  9  1  0
  9 10  1  0
 10 11  2  0
 11 12  1  0
 12 13  2  0
 13 14  1  0
 14 15  1  0
 13 16  1  0
 16 17  2  0
  9 18  2  0
 18 19  1  0
 19 20  3  0
 18 21  1  0
 21 22  1  0
 22 23  1  0
 23 24  1  0
 24 25  2  0
 24 26  1  0
 26 27  1  0
 27 28  1  0
 28 29  1  0
 29 30  2  0
 30 31  1  0
 31 32  1  0
 32 33  3  0
 30 34  1  0
 34 35  1  0
 35 36  1  0
 36 37  1  0
 21 38  2  0
  6 39  1  0
 39 40  2  0
 40  3  1  0
 38  7  1  0
 17 10  1  0
 31 27  2  0
 37 29  1  0
  1 41  1  0
  1 42  1  0
  1 43  1  0
  4 44  1  0
  5 45  1  0
  8 46  1  0
 11 47  1  0
 12 48  1  0
 15 49  1  0
 15 50  1  0
 15 51  1  0
 16 52  1  0
 17 53  1  0
 23 54  1  0
 23 55  1  0
 26 56  1  0
 34 57  1  0
 34 58  1  0
 35 59  1  0
 35 60  1  0
 36 61  1  0
 36 62  1  0
 37 63  1  0
 37 64  1  0
 39 65  1  0
 40 66  1  0
M  END
>  <Binding energies>  (1) 
[-9.69]

>  <Ligand effiencies>  (1) 
[-0.23634146341463413]

>  <Interactions>  (1) 
["V-B:GLU:543:CB:9877, V-A:GLU:543:CG:4906, V-B:GLU:543:CD:9879, V-B:HIS:456:CE1:9040, V-A:ALA:541:CB:4891, H-A:GLY:454:N:4049, V-A:HIS:456:CE1:4069, V-A:TYR:539:CD1:4872, V-A:GLU:543:CD:4907, V-A:GLY:454:CA:4048, H-B:TYR:484:OH:9318, V-A:ARG:545:CZ:4925, V-A:ASP:366:CG:3212, V-B:GLU:543:C:9873, V-B:GLY:544:C:9883, H-A:GLU:543:OE2:4909, V-A:PRO:540:CB:4884, V-A:PRO:540:CA:4882, V-A:TYR:531:CE2:4792, V-A:LEU:363:CD1:3188, V-A:PRO:540:N:4883, V-A:TYR:539:C:4866, V-A:ILE:369:CD1:3238, H-B:LYS:547:NZ:9922, V-B:HIS:456:CD2:9038"]

$$$$
RR5_Rahimova_2017
     RDKit          3D

 77 82  0  0  0  0  0  0  0  0999 V2000
  129.8980  126.4930   62.0980 O   0  0  0  0  0  0  0  0  0  0  0  0
  130.9090  126.0390   62.6340 C   0  0  0  0  0  0  0  0  0  0  0  0
  131.5560  126.7990   63.8080 C   0  0  0  0  0  0  0  0  0  0  0  0
  131.9140  125.8900   65.0370 C   0  0  2  0  0  0  0  0  0  0  0  0
  131.5980  126.4720   66.3570 N   0  0  0  0  0  0  0  0  0  0  0  0
  130.6830  125.8760   67.2140 C   0  0  0  0  0  0  0  0  0  0  0  0
  130.0800  124.8160   67.0270 O   0  0  0  0  0  0  0  0  0  0  0  0
  130.5440  126.6610   68.2970 O   0  0  0  0  0  0  0  0  0  0  0  0
  130.5590  128.0810   68.1920 C   0  0  0  0  0  0  0  0  0  0  0  0
  129.2980  128.6930   68.8420 C   0  0  0  0  0  0  0  0  0  0  0  0
  128.1400  128.8670   67.8770 C   0  0  0  0  0  0  0  0  0  0  0  0
  128.0780  129.5900   66.6820 C   0  0  0  0  0  0  0  0  0  0  0  0
  126.9010  129.5940   65.9320 C   0  0  0  0  0  0  0  0  0  0  0  0
  125.7860  128.8800   66.3740 C   0  0  0  0  0  0  0  0  0  0  0  0
  125.8430  128.1600   67.5680 C   0  0  0  0  0  0  0  0  0  0  0  0
  127.0220  128.1580   68.3170 C   0  0  0  0  0  0  0  0  0  0  0  0
  127.3560  127.5060   69.5930 C   0  0  0  0  0  0  0  0  0  0  0  0
  126.5930  126.7000   70.4420 C   0  0  0  0  0  0  0  0  0  0  0  0
  127.1540  126.2190   71.6250 C   0  0  0  0  0  0  0  0  0  0  0  0
  128.4730  126.5390   71.9570 C   0  0  0  0  0  0  0  0  0  0  0  0
  129.2320  127.3410   71.1040 C   0  0  0  0  0  0  0  0  0  0  0  0
  128.6760  127.8220   69.9170 C   0  0  0  0  0  0  0  0  0  0  0  0
  133.4050  125.4720   64.9960 C   0  0  0  0  0  0  0  0  0  0  0  0
  134.0120  125.1700   63.9870 O   0  0  0  0  0  0  0  0  0  0  0  0
  133.9290  125.5160   66.2560 O   0  0  0  0  0  0  0  0  0  0  0  0
  131.5070  124.8760   62.2940 N   0  0  0  0  0  0  0  0  0  0  0  0
  131.2270  123.8440   61.2510 C   0  0  0  0  0  0  0  0  0  0  0  0
  131.7660  124.5350   59.9530 C   0  0  0  0  0  0  0  0  0  0  0  0
  131.0200  125.5170   59.2820 C   0  0  0  0  0  0  0  0  0  0  0  0
  131.5110  126.1260   58.1300 C   0  0  0  0  0  0  0  0  0  0  0  0
  132.7510  125.7550   57.6240 C   0  0  0  0  0  0  0  0  0  0  0  0
  133.5120  124.7860   58.2690 C   0  0  0  0  0  0  0  0  0  0  0  0
  133.0250  124.1860   59.4260 C   0  0  0  0  0  0  0  0  0  0  0  0
  132.0400  122.5620   61.6330 C   0  0  0  0  0  0  0  0  0  0  0  0
  133.0590  122.5940   62.5980 C   0  0  0  0  0  0  0  0  0  0  0  0
  133.7830  121.4450   62.9080 C   0  0  0  0  0  0  0  0  0  0  0  0
  133.4990  120.2500   62.2550 C   0  0  0  0  0  0  0  0  0  0  0  0
  132.4920  120.1920   61.2980 C   0  0  0  0  0  0  0  0  0  0  0  0
  131.7640  121.3380   60.9960 C   0  0  0  0  0  0  0  0  0  0  0  0
  129.6730  123.6510   61.2360 C   0  0  0  0  0  0  0  0  0  0  0  0
  128.9280  123.6840   62.4290 C   0  0  0  0  0  0  0  0  0  0  0  0
  127.5470  123.5050   62.4230 C   0  0  0  0  0  0  0  0  0  0  0  0
  126.8840  123.2950   61.2200 C   0  0  0  0  0  0  0  0  0  0  0  0
  127.5900  123.2720   60.0230 C   0  0  0  0  0  0  0  0  0  0  0  0
  128.9710  123.4510   60.0340 C   0  0  0  0  0  0  0  0  0  0  0  0
  132.4810  127.2717   63.4463 H   0  0  0  0  0  0  0  0  0  0  0  0
  130.8152  127.5323   64.1595 H   0  0  0  0  0  0  0  0  0  0  0  0
  131.2626  125.0100   64.9312 H   0  0  0  0  0  0  0  0  0  0  0  0
  131.9250  127.4060   66.5580 H   0  0  0  0  0  0  0  0  0  0  0  0
  131.4526  128.4708   68.7015 H   0  0  0  0  0  0  0  0  0  0  0  0
  130.5750  128.3555   67.1269 H   0  0  0  0  0  0  0  0  0  0  0  0
  129.6946  129.6434   69.2286 H   0  0  0  0  0  0  0  0  0  0  0  0
  128.9553  130.1547   66.3335 H   0  0  0  0  0  0  0  0  0  0  0  0
  126.8519  130.1610   64.9907 H   0  0  0  0  0  0  0  0  0  0  0  0
  124.8603  128.8849   65.7798 H   0  0  0  0  0  0  0  0  0  0  0  0
  124.9647  127.5974   67.9173 H   0  0  0  0  0  0  0  0  0  0  0  0
  125.5555  126.4462   70.1788 H   0  0  0  0  0  0  0  0  0  0  0  0
  126.5567  125.5864   72.2981 H   0  0  0  0  0  0  0  0  0  0  0  0
  128.9130  126.1587   72.8907 H   0  0  0  0  0  0  0  0  0  0  0  0
  130.2696  127.5946   71.3670 H   0  0  0  0  0  0  0  0  0  0  0  0
  133.4940  124.9030   66.8520 H   0  0  0  0  0  0  0  0  0  0  0  0
  132.3800  124.7070   62.7710 H   0  0  0  0  0  0  0  0  0  0  0  0
  130.0338  125.8094   59.6718 H   0  0  0  0  0  0  0  0  0  0  0  0
  130.9179  126.9000   57.6210 H   0  0  0  0  0  0  0  0  0  0  0  0
  133.1327  126.2303   56.7084 H   0  0  0  0  0  0  0  0  0  0  0  0
  134.4937  124.4955   57.8666 H   0  0  0  0  0  0  0  0  0  0  0  0
  133.6335  123.4260   59.9380 H   0  0  0  0  0  0  0  0  0  0  0  0
  133.2884  123.5373   63.1153 H   0  0  0  0  0  0  0  0  0  0  0  0
  134.5777  121.4826   63.6676 H   0  0  0  0  0  0  0  0  0  0  0  0
  134.0750  119.3448   62.4974 H   0  0  0  0  0  0  0  0  0  0  0  0
  132.2724  119.2453   60.7827 H   0  0  0  0  0  0  0  0  0  0  0  0
  130.9597  121.2867   60.2473 H   0  0  0  0  0  0  0  0  0  0  0  0
  129.4460  123.8544   63.3843 H   0  0  0  0  0  0  0  0  0  0  0  0
  126.9830  123.5298   63.3671 H   0  0  0  0  0  0  0  0  0  0  0  0
  125.7941  123.1461   61.2150 H   0  0  0  0  0  0  0  0  0  0  0  0
  127.0607  123.1132   59.0719 H   0  0  0  0  0  0  0  0  0  0  0  0
  129.5239  123.4356   59.0832 H   0  0  0  0  0  0  0  0  0  0  0  0
  1  2  2  0
  2  3  1  0
  3  4  1  0
  4  5  1  0
  5  6  1  0
  6  7  2  0
  6  8  1  0
  8  9  1  0
  9 10  1  0
 10 11  1  0
 11 12  2  0
 12 13  1  0
 13 14  2  0
 14 15  1  0
 15 16  2  0
 16 17  1  0
 17 18  2  0
 18 19  1  0
 19 20  2  0
 20 21  1  0
 21 22  2  0
  4 23  1  0
 23 24  2  0
 23 25  1  0
  2 26  1  0
 26 27  1  0
 27 28  1  0
 28 29  2  0
 29 30  1  0
 30 31  2  0
 31 32  1  0
 32 33  2  0
 27 34  1  0
 34 35  2  0
 35 36  1  0
 36 37  2  0
 37 38  1  0
 38 39  2  0
 27 40  1  0
 40 41  2  0
 41 42  1  0
 42 43  2  0
 43 44  1  0
 44 45  2  0
 22 10  1  0
 33 28  1  0
 39 34  1  0
 45 40  1  0
 16 11  1  0
 22 17  1  0
  3 46  1  0
  3 47  1  0
  4 48  1  6
  5 49  1  0
  9 50  1  0
  9 51  1  0
 10 52  1  0
 12 53  1  0
 13 54  1  0
 14 55  1  0
 15 56  1  0
 18 57  1  0
 19 58  1  0
 20 59  1  0
 21 60  1  0
 25 61  1  0
 26 62  1  0
 29 63  1  0
 30 64  1  0
 31 65  1  0
 32 66  1  0
 33 67  1  0
 35 68  1  0
 36 69  1  0
 37 70  1  0
 38 71  1  0
 39 72  1  0
 41 73  1  0
 42 74  1  0
 43 75  1  0
 44 76  1  0
 45 77  1  0
M  END
>  <Binding energies>  (1) 
[-11.94]

>  <Ligand effiencies>  (1) 
[-0.24875]

>  <Interactions>  (1) 
["V-B:ARG:545:CG:9893, V-A:GLU:543:CB:4905, V-B:GLU:543:CB:9877, V-A:GLU:543:CG:4906, V-B:GLU:543:CD:9879, V-B:HIS:456:CE1:9040, H-A:GLY:454:N:4049, V-A:HIS:456:CE1:4069, H-A:ARG:545:NH1:4926, V-A:GLU:543:CD:4907, V-A:GLY:454:CA:4048, H-A:ARG:545:NH2:4927, V-A:TYR:484:CZ:4346, V-B:PRO:540:CA:9854, V-A:ARG:545:CZ:4925, V-B:PRO:540:CB:9856, V-A:ASP:366:CG:3212, V-B:PRO:540:C:9852, V-B:TYR:539:CE2:9847, V-B:GLU:543:C:9873, V-B:GLY:544:C:9883, V-B:TYR:539:CZ:9848, V-B:TYR:539:CD2:9845, H-A:ARG:545:NE:4923, H-A:TYR:484:OH:4347, V-A:SER:385:CB:3408, V-A:ILE:369:CG2:3236, V-A:SER:385:CA:3406, V-A:TYR:484:CE2:4345, V-A:LEU:475:CD2:4258, H-A:ASP:366:OD2:3214, V-A:ASP:366:CB:3211, V-A:SER:385:C:3404, V-B:GLY:544:CA:9885, H-A:GLU:543:OE1:4908, V-A:ILE:369:CB:3235, V-A:ASP:366:CA:3209, V-A:ASP:366:C:3207"]

$$$$
RR5_Rahimova_2017-again1
     RDKit          3D

 76 81  0  0  0  0  0  0  0  0999 V2000
  131.7540  123.6890   64.0170 O   0  0  0  0  0  0  0  0  0  0  0  0
  132.0360  124.7520   63.4630 C   0  0  0  0  0  0  0  0  0  0  0  0
  132.6830  125.8760   64.2990 C   0  0  0  0  0  0  0  0  0  0  0  0
  132.7540  125.6500   65.8440 C   0  0  2  0  0  0  0  0  0  0  0  0
  131.8190  126.5800   66.5120 N   0  0  0  0  0  0  0  0  0  0  0  0
  130.5980  126.1500   67.0180 C   0  0  0  0  0  0  0  0  0  0  0  0
  130.1420  125.0050   66.9620 O   0  0  0  0  0  0  0  0  0  0  0  0
  129.9750  127.1980   67.5920 O   0  0  0  0  0  0  0  0  0  0  0  0
  129.2910  128.1640   66.8010 C   0  0  0  0  0  0  0  0  0  0  0  0
  128.2660  128.9250   67.6640 C   0  0  0  0  0  0  0  0  0  0  0  0
  126.9910  129.2800   66.9200 C   0  0  0  0  0  0  0  0  0  0  0  0
  126.8160  130.0570   65.7720 C   0  0  0  0  0  0  0  0  0  0  0  0
  125.5360  130.2410   65.2450 C   0  0  0  0  0  0  0  0  0  0  0  0
  124.4310  129.6540   65.8640 C   0  0  0  0  0  0  0  0  0  0  0  0
  124.6020  128.8820   67.0140 C   0  0  0  0  0  0  0  0  0  0  0  0
  125.8830  128.6980   67.5390 C   0  0  0  0  0  0  0  0  0  0  0  0
  126.3460  127.9580   68.7230 C   0  0  0  0  0  0  0  0  0  0  0  0
  125.6440  127.2180   69.6760 C   0  0  0  0  0  0  0  0  0  0  0  0
  126.3350  126.6150   70.7280 C   0  0  0  0  0  0  0  0  0  0  0  0
  127.7210  126.7500   70.8250 C   0  0  0  0  0  0  0  0  0  0  0  0
  128.4210  127.4890   69.8690 C   0  0  0  0  0  0  0  0  0  0  0  0
  127.7320  128.0920   68.8120 C   0  0  0  0  0  0  0  0  0  0  0  0
  134.2280  125.7980   66.3990 C   0  0  0  0  0  0  0  0  0  0  0  0
  135.1030  125.9260   65.5110 O   0  0  0  0  0  0  0  0  0  0  0  0
  134.3650  125.8100   67.6460 O   0  0  0  0  0  0  0  0  0  0  0  0
  131.9180  124.9380   62.1310 N   0  0  0  0  0  0  0  0  0  0  0  0
  131.3570  124.0340   61.0950 C   0  0  0  0  0  0  0  0  0  0  0  0
  131.9710  122.6050   61.2420 C   0  0  0  0  0  0  0  0  0  0  0  0
  133.3220  122.4310   61.5880 C   0  0  0  0  0  0  0  0  0  0  0  0
  133.8690  121.1590   61.7320 C   0  0  0  0  0  0  0  0  0  0  0  0
  133.0680  120.0400   61.5340 C   0  0  0  0  0  0  0  0  0  0  0  0
  131.7260  120.1830   61.1950 C   0  0  0  0  0  0  0  0  0  0  0  0
  131.1820  121.4560   61.0510 C   0  0  0  0  0  0  0  0  0  0  0  0
  129.8180  123.7840   61.1920 C   0  0  0  0  0  0  0  0  0  0  0  0
  129.0690  123.4460   60.0510 C   0  0  0  0  0  0  0  0  0  0  0  0
  127.6970  123.2240   60.1330 C   0  0  0  0  0  0  0  0  0  0  0  0
  127.0540  123.3320   61.3620 C   0  0  0  0  0  0  0  0  0  0  0  0
  127.7740  123.6560   62.5080 C   0  0  0  0  0  0  0  0  0  0  0  0
  129.1460  123.8770   62.4220 C   0  0  0  0  0  0  0  0  0  0  0  0
  131.7950  124.6860   59.7390 C   0  0  0  0  0  0  0  0  0  0  0  0
  130.9660  125.5910   59.0520 C   0  0  0  0  0  0  0  0  0  0  0  0
  131.3760  126.1750   57.8580 C   0  0  0  0  0  0  0  0  0  0  0  0
  132.6300  125.8750   57.3380 C   0  0  0  0  0  0  0  0  0  0  0  0
  133.4800  125.0010   58.0080 C   0  0  0  0  0  0  0  0  0  0  0  0
  133.0660  124.4170   59.2020 C   0  0  0  0  0  0  0  0  0  0  0  0
  133.7119  126.0124   63.9345 H   0  0  0  0  0  0  0  0  0  0  0  0
  132.0282  126.7496   64.1645 H   0  0  0  0  0  0  0  0  0  0  0  0
  132.4513  124.6159   66.0655 H   0  0  0  0  0  0  0  0  0  0  0  0
  132.1110  127.5370   66.6590 H   0  0  0  0  0  0  0  0  0  0  0  0
  130.0192  128.8772   66.3874 H   0  0  0  0  0  0  0  0  0  0  0  0
  128.7633  127.6514   65.9832 H   0  0  0  0  0  0  0  0  0  0  0  0
  128.8402  129.8074   67.9829 H   0  0  0  0  0  0  0  0  0  0  0  0
  127.6849  130.5229   65.2842 H   0  0  0  0  0  0  0  0  0  0  0  0
  125.3980  130.8502   64.3396 H   0  0  0  0  0  0  0  0  0  0  0  0
  123.4245  129.8001   65.4449 H   0  0  0  0  0  0  0  0  0  0  0  0
  123.7321  128.4207   67.5045 H   0  0  0  0  0  0  0  0  0  0  0  0
  124.5520  127.1107   69.5982 H   0  0  0  0  0  0  0  0  0  0  0  0
  125.7863  126.0321   71.4824 H   0  0  0  0  0  0  0  0  0  0  0  0
  128.2625  126.2736   71.6556 H   0  0  0  0  0  0  0  0  0  0  0  0
  129.5129  127.5967   69.9473 H   0  0  0  0  0  0  0  0  0  0  0  0
  132.1180  125.8700   61.7970 H   0  0  0  0  0  0  0  0  0  0  0  0
  133.9576  123.3144   61.7476 H   0  0  0  0  0  0  0  0  0  0  0  0
  134.9290  121.0399   62.0009 H   0  0  0  0  0  0  0  0  0  0  0  0
  133.4984  119.0339   61.6462 H   0  0  0  0  0  0  0  0  0  0  0  0
  131.0975  119.2934   61.0414 H   0  0  0  0  0  0  0  0  0  0  0  0
  130.1205  121.5652   60.7842 H   0  0  0  0  0  0  0  0  0  0  0  0
  129.5749  123.3556   59.0784 H   0  0  0  0  0  0  0  0  0  0  0  0
  127.1242  122.9645   59.2305 H   0  0  0  0  0  0  0  0  0  0  0  0
  125.9695  123.1602   61.4283 H   0  0  0  0  0  0  0  0  0  0  0  0
  127.2613  123.7372   63.4778 H   0  0  0  0  0  0  0  0  0  0  0  0
  129.7122  124.1282   63.3310 H   0  0  0  0  0  0  0  0  0  0  0  0
  129.9778  125.8409   59.4655 H   0  0  0  0  0  0  0  0  0  0  0  0
  130.7105  126.8716   57.3271 H   0  0  0  0  0  0  0  0  0  0  0  0
  132.9522  126.3317   56.3906 H   0  0  0  0  0  0  0  0  0  0  0  0
  134.4742  124.7725   57.5964 H   0  0  0  0  0  0  0  0  0  0  0  0
  133.7445  123.7339   59.7339 H   0  0  0  0  0  0  0  0  0  0  0  0
  1  2  2  0
  2  3  1  0
  3  4  1  0
  4  5  1  0
  5  6  1  0
  6  7  2  0
  6  8  1  0
  8  9  1  0
  9 10  1  0
 10 11  1  0
 11 12  2  0
 12 13  1  0
 13 14  2  0
 14 15  1  0
 15 16  2  0
 16 17  1  0
 17 18  2  0
 18 19  1  0
 19 20  2  0
 20 21  1  0
 21 22  2  0
  4 23  1  0
 23 24  2  0
 23 25  1  0
  2 26  1  0
 26 27  1  0
 27 28  1  0
 28 29  2  0
 29 30  1  0
 30 31  2  0
 31 32  1  0
 32 33  2  0
 27 34  1  0
 34 35  2  0
 35 36  1  0
 36 37  2  0
 37 38  1  0
 38 39  2  0
 27 40  1  0
 40 41  2  0
 41 42  1  0
 42 43  2  0
 43 44  1  0
 44 45  2  0
 22 10  1  0
 33 28  1  0
 39 34  1  0
 45 40  1  0
 16 11  1  0
 22 17  1  0
  3 46  1  0
  3 47  1  0
  4 48  1  6
  5 49  1  0
  9 50  1  0
  9 51  1  0
 10 52  1  0
 12 53  1  0
 13 54  1  0
 14 55  1  0
 15 56  1  0
 18 57  1  0
 19 58  1  0
 20 59  1  0
 21 60  1  0
 26 61  1  0
 29 62  1  0
 30 63  1  0
 31 64  1  0
 32 65  1  0
 33 66  1  0
 35 67  1  0
 36 68  1  0
 37 69  1  0
 38 70  1  0
 39 71  1  0
 41 72  1  0
 42 73  1  0
 43 74  1  0
 44 75  1  0
 45 76  1  0
M  CHG  1  25  -1
M  END
>  <Binding energies>  (1) 
[-12.11]

>  <Ligand effiencies>  (1) 
[-0.2576595744680851]

>  <Interactions>  (1) 
["V-B:ARG:545:CG:9893, V-B:GLU:543:CB:9877, V-A:GLU:543:CG:4906, V-B:GLU:543:CD:9879, V-B:HIS:456:CE1:9040, H-A:GLY:454:N:4049, H-A:ARG:545:NH1:4926, V-A:GLU:543:CD:4907, V-A:GLY:454:CA:4048, V-B:ARG:545:CZ:9897, H-A:ARG:545:NH2:4927, V-B:ARG:545:CD:9894, V-B:PRO:540:CA:9854, V-A:ARG:545:CZ:4925, H-A:ASP:366:OD1:3213, V-A:GLY:453:CA:4043, V-A:ASP:366:CG:3212, V-A:ARG:545:CD:4922, V-A:ARG:545:CG:4921, V-B:PRO:540:C:9852, V-B:TYR:539:CE2:9847, V-B:GLU:543:C:9873, V-B:GLY:544:C:9883, V-B:TYR:539:CZ:9848, V-B:TYR:539:CD2:9845, H-A:ARG:545:NE:4923, H-A:TYR:484:OH:4347, V-A:SER:385:CB:3408, V-A:ILE:369:CG2:3236, V-A:SER:385:CA:3406, V-A:LEU:475:CD2:4258, V-B:ARG:545:CA:9890, V-B:ARG:545:CB:9892, H-A:ASP:366:OD2:3214, V-A:ASP:366:CB:3211, V-A:GLY:453:C:4041, V-A:ILE:369:CD1:3238, V-A:SER:385:C:3404, V-B:GLY:544:CA:9885, H-A:GLU:543:OE1:4908, V-A:ILE:369:CB:3235, V-A:ASP:366:CA:3209, V-A:ASP:366:C:3207"]

$$$$
RR6_Rahimova_2017
     RDKit          3D

 63 66  0  0  0  0  0  0  0  0999 V2000
  127.8380  122.9380   63.5640 C   0  0  0  0  0  0  0  0  0  0  0  0
  126.7600  123.0890   62.6500 O   0  0  0  0  0  0  0  0  0  0  0  0
  126.9680  123.5790   61.4010 C   0  0  0  0  0  0  0  0  0  0  0  0
  127.3830  122.8930   60.4620 O   0  0  0  0  0  0  0  0  0  0  0  0
  126.6400  125.0390   61.2740 C   0  0  0  0  0  0  0  0  0  0  0  0
  126.2760  125.6160   60.0480 C   0  0  0  0  0  0  0  0  0  0  0  0
  125.9850  126.9750   59.9620 C   0  0  0  0  0  0  0  0  0  0  0  0
  126.0580  127.7840   61.1060 C   0  0  0  0  0  0  0  0  0  0  0  0
  125.8130  129.1700   61.1250 N   0  0  0  0  0  0  0  0  0  0  0  0
  124.9160  129.8910   60.4180 C   0  0  0  0  0  0  0  0  0  0  0  0
  124.1130  129.4320   59.6040 O   0  0  0  0  0  0  0  0  0  0  0  0
  124.9720  131.4080   60.6270 C   0  0  0  0  0  0  0  0  0  0  0  0
  124.8600  131.9110   62.3770 S   0  0  0  0  0  0  0  0  0  0  0  0
  126.2220  131.1350   63.2230 C   0  0  0  0  0  0  0  0  0  0  0  0
  127.4030  131.2110   62.5640 N   0  0  0  0  0  0  0  0  0  0  0  0
  128.5210  130.6820   63.1230 C   0  0  0  0  0  0  0  0  0  0  0  0
  129.7990  130.8620   62.3580 C   0  0  0  0  0  0  0  0  0  0  0  0
  130.3510  129.8080   61.6130 C   0  0  0  0  0  0  0  0  0  0  0  0
  131.5430  129.9720   60.9140 C   0  0  0  0  0  0  0  0  0  0  0  0
  132.2060  131.1980   60.9430 C   0  0  0  0  0  0  0  0  0  0  0  0
  133.5110  131.3700   60.1870 C   0  0  0  0  0  0  0  0  0  0  0  0
  131.6740  132.2580   61.6750 C   0  0  0  0  0  0  0  0  0  0  0  0
  130.4820  132.0890   62.3710 C   0  0  0  0  0  0  0  0  0  0  0  0
  128.4650  130.0450   64.3670 C   0  0  0  0  0  0  0  0  0  0  0  0
  127.2540  129.9490   65.0660 C   0  0  0  0  0  0  0  0  0  0  0  0
  127.2700  129.2730   66.3970 C   0  0  0  0  0  0  0  0  0  0  0  0
  126.1990  128.4620   66.7860 C   0  0  0  0  0  0  0  0  0  0  0  0
  126.2130  127.8150   68.0200 C   0  0  0  0  0  0  0  0  0  0  0  0
  127.2970  127.9600   68.8830 C   0  0  0  0  0  0  0  0  0  0  0  0
  127.2260  127.2800   70.0830 O   0  0  0  0  0  0  0  0  0  0  0  0
  128.1920  126.2750   70.3700 C   0  0  0  0  0  0  0  0  0  0  0  0
  128.3770  128.7690   68.4950 C   0  0  0  0  0  0  0  0  0  0  0  0
  128.3600  129.4140   67.2610 C   0  0  0  0  0  0  0  0  0  0  0  0
  126.0910  130.5050   64.4770 C   0  0  0  0  0  0  0  0  0  0  0  0
  124.7860  130.4140   65.1400 C   0  0  0  0  0  0  0  0  0  0  0  0
  123.7570  130.3440   65.6650 N   0  0  0  0  0  0  0  0  0  0  0  0
  126.4030  127.2110   62.3300 C   0  0  0  0  0  0  0  0  0  0  0  0
  126.6960  125.8520   62.4140 C   0  0  0  0  0  0  0  0  0  0  0  0
  127.4556  122.9916   64.5940 H   0  0  0  0  0  0  0  0  0  0  0  0
  128.3217  121.9633   63.4027 H   0  0  0  0  0  0  0  0  0  0  0  0
  128.5709  123.7423   63.4027 H   0  0  0  0  0  0  0  0  0  0  0  0
  126.2200  124.9888   59.1461 H   0  0  0  0  0  0  0  0  0  0  0  0
  125.6975  127.4150   58.9957 H   0  0  0  0  0  0  0  0  0  0  0  0
  126.4620  129.6990   61.6900 H   0  0  0  0  0  0  0  0  0  0  0  0
  125.9233  131.7800   60.2188 H   0  0  0  0  0  0  0  0  0  0  0  0
  124.0990  131.8361   60.1127 H   0  0  0  0  0  0  0  0  0  0  0  0
  129.8335  128.8379   61.5813 H   0  0  0  0  0  0  0  0  0  0  0  0
  131.9624  129.1338   60.3382 H   0  0  0  0  0  0  0  0  0  0  0  0
  134.3383  131.4790   60.9037 H   0  0  0  0  0  0  0  0  0  0  0  0
  133.6875  130.4874   59.5547 H   0  0  0  0  0  0  0  0  0  0  0  0
  133.4528  132.2682   59.5547 H   0  0  0  0  0  0  0  0  0  0  0  0
  132.1958  133.2260   61.7021 H   0  0  0  0  0  0  0  0  0  0  0  0
  130.0664  132.9321   62.9424 H   0  0  0  0  0  0  0  0  0  0  0  0
  129.3800  129.6154   64.8008 H   0  0  0  0  0  0  0  0  0  0  0  0
  125.3388  128.3339   66.1125 H   0  0  0  0  0  0  0  0  0  0  0  0
  125.3612  127.1846   68.3152 H   0  0  0  0  0  0  0  0  0  0  0  0
  128.2959  126.1669   71.4597 H   0  0  0  0  0  0  0  0  0  0  0  0
  127.8658  125.3183   69.9360 H   0  0  0  0  0  0  0  0  0  0  0  0
  129.1609  126.5631   69.9360 H   0  0  0  0  0  0  0  0  0  0  0  0
  129.2386  128.8936   69.1674 H   0  0  0  0  0  0  0  0  0  0  0  0
  129.2132  130.0411   66.9629 H   0  0  0  0  0  0  0  0  0  0  0  0
  126.4439  127.8361   63.2342 H   0  0  0  0  0  0  0  0  0  0  0  0
  126.9738  125.4130   63.3836 H   0  0  0  0  0  0  0  0  0  0  0  0
  1  2  1  0
  2  3  1  0
  3  4  2  0
  3  5  1  0
  5  6  2  0
  6  7  1  0
  7  8  2  0
  8  9  1  0
  9 10  1  0
 10 11  2  0
 10 12  1  0
 12 13  1  0
 13 14  1  0
 14 15  2  0
 15 16  1  0
 16 17  1  0
 17 18  2  0
 18 19  1  0
 19 20  2  0
 20 21  1  0
 20 22  1  0
 22 23  2  0
 16 24  2  0
 24 25  1  0
 25 26  1  0
 26 27  2  0
 27 28  1  0
 28 29  2  0
 29 30  1  0
 30 31  1  0
 29 32  1  0
 32 33  2  0
 25 34  2  0
 34 35  1  0
 35 36  3  0
  8 37  1  0
 37 38  2  0
 38  5  1  0
 34 14  1  0
 23 17  1  0
 33 26  1  0
  1 39  1  0
  1 40  1  0
  1 41  1  0
  6 42  1  0
  7 43  1  0
  9 44  1  0
 12 45  1  0
 12 46  1  0
 18 47  1  0
 19 48  1  0
 21 49  1  0
 21 50  1  0
 21 51  1  0
 22 52  1  0
 23 53  1  0
 24 54  1  0
 27 55  1  0
 28 56  1  0
 31 57  1  0
 31 58  1  0
 31 59  1  0
 32 60  1  0
 33 61  1  0
 37 62  1  0
 38 63  1  0
M  END
>  <Binding energies>  (1) 
[-7.23]

>  <Ligand effiencies>  (1) 
[-0.1853846153846154]

>  <Interactions>  (1) 
["V-B:ARG:545:CG:9893, V-A:GLU:543:CB:4905, V-B:GLU:543:CB:9877, V-A:GLU:543:CG:4906, V-B:GLU:543:CD:9879, V-B:HIS:456:CE1:9040, V-A:ALA:541:CB:4891, V-A:GLU:543:CD:4907, H-B:TYR:484:OH:9318, H-B:GLY:454:N:9020, H-B:ALA:541:N:9862, V-B:ASP:366:CG:8183, V-B:PRO:540:CA:9854, V-B:ALA:541:CB:9863, V-B:GLU:543:C:9873, V-A:PRO:540:C:4880, V-A:ASN:362:C:3171, V-A:PRO:540:CB:4884, V-A:PRO:540:CA:4882, V-B:ALA:541:C:9859, V-B:GLU:543:CG:9878, V-B:ALA:541:CA:9861, V-A:LEU:363:CA:3184, V-B:GLY:454:CA:9019"]

$$$$
RR7_Rahimova_2017
     RDKit          3D

 80 86  0  0  0  0  0  0  0  0999 V2000
  126.4170  128.5060   66.9980 C   0  0  0  0  0  0  0  0  0  0  0  0
  127.5880  129.2710   66.7310 O   0  0  0  0  0  0  0  0  0  0  0  0
  127.7790  129.7880   65.4640 C   0  0  0  0  0  0  0  0  0  0  0  0
  127.0490  130.9300   65.1400 C   0  0  0  0  0  0  0  0  0  0  0  0
  127.1800  131.5240   63.8890 C   0  0  0  0  0  0  0  0  0  0  0  0
  128.0390  130.9810   62.9230 C   0  0  0  0  0  0  0  0  0  0  0  0
  128.2300  131.6450   61.5240 C   0  0  0  0  0  0  0  0  0  0  0  0
  127.4360  130.8730   60.5950 O   0  0  0  0  0  0  0  0  0  0  0  0
  127.6510  129.4640   60.4670 C   0  0  0  0  0  0  0  0  0  0  0  0
  127.0180  128.9780   59.1530 C   0  0  1  0  0  0  0  0  0  0  0  0
  127.7060  127.7870   58.7800 O   0  0  0  0  0  0  0  0  0  0  0  0
  126.8390  126.6950   58.6720 C   0  0  1  0  0  0  0  0  0  0  0  0
  127.5210  125.4750   59.0620 N   0  0  0  0  0  0  0  0  0  0  0  0
  128.4410  124.7430   58.3320 C   0  0  0  0  0  0  0  0  0  0  0  0
  128.8690  123.6470   58.9090 N   0  0  0  0  0  0  0  0  0  0  0  0
  128.1680  123.6000   60.0830 C   0  0  0  0  0  0  0  0  0  0  0  0
  128.1600  122.6690   61.1400 C   0  0  0  0  0  0  0  0  0  0  0  0
  129.0110  121.5510   61.0610 N   0  0  0  0  0  0  0  0  0  0  0  0
  129.9470  121.1290   61.9450 C   0  0  0  0  0  0  0  0  0  0  0  0
  130.2170  121.7080   63.0000 O   0  0  0  0  0  0  0  0  0  0  0  0
  130.7040  119.8790   61.5490 C   0  0  0  0  0  0  0  0  0  0  0  0
  131.9970  119.9910   61.0150 C   0  0  0  0  0  0  0  0  0  0  0  0
  132.7130  118.8540   60.6500 C   0  0  0  0  0  0  0  0  0  0  0  0
  132.1450  117.5960   60.8210 C   0  0  0  0  0  0  0  0  0  0  0  0
  130.8660  117.4630   61.3540 C   0  0  0  0  0  0  0  0  0  0  0  0
  130.1480  118.6000   61.7180 C   0  0  0  0  0  0  0  0  0  0  0  0
  127.3260  122.8740   62.2040 N   0  0  0  0  0  0  0  0  0  0  0  0
  126.5370  123.9800   62.1870 C   0  0  0  0  0  0  0  0  0  0  0  0
  126.4680  124.9400   61.2260 N   0  0  0  0  0  0  0  0  0  0  0  0
  127.3000  124.7160   60.2010 C   0  0  0  0  0  0  0  0  0  0  0  0
  125.6290  127.0560   59.5260 C   0  0  0  0  0  0  0  0  0  0  0  0
  125.5480  128.5500   59.2600 C   0  0  2  0  0  0  0  0  0  0  0  0
  124.8120  128.8410   58.0840 O   0  0  0  0  0  0  0  0  0  0  0  0
  127.6900  133.0990   61.4820 C   0  0  0  0  0  0  0  0  0  0  0  0
  126.5460  133.4080   60.7280 C   0  0  0  0  0  0  0  0  0  0  0  0
  126.0610  134.7110   60.6720 C   0  0  0  0  0  0  0  0  0  0  0  0
  126.7160  135.7210   61.3700 C   0  0  0  0  0  0  0  0  0  0  0  0
  127.8510  135.4380   62.1230 C   0  0  0  0  0  0  0  0  0  0  0  0
  128.3370  134.1340   62.1770 C   0  0  0  0  0  0  0  0  0  0  0  0
  129.6950  131.7290   61.0090 C   0  0  0  0  0  0  0  0  0  0  0  0
  130.7610  131.8430   61.9150 C   0  0  0  0  0  0  0  0  0  0  0  0
  132.0750  131.9280   61.4640 C   0  0  0  0  0  0  0  0  0  0  0  0
  132.3360  131.9100   60.0970 C   0  0  0  0  0  0  0  0  0  0  0  0
  131.2940  131.8120   59.1800 C   0  0  0  0  0  0  0  0  0  0  0  0
  129.9810  131.7260   59.6340 C   0  0  0  0  0  0  0  0  0  0  0  0
  128.7820  129.8400   63.2590 C   0  0  0  0  0  0  0  0  0  0  0  0
  128.6520  129.2450   64.5110 C   0  0  0  0  0  0  0  0  0  0  0  0
  126.2783  128.4154   68.0854 H   0  0  0  0  0  0  0  0  0  0  0  0
  125.5429  129.0078   66.5574 H   0  0  0  0  0  0  0  0  0  0  0  0
  126.5253  127.5039   66.5574 H   0  0  0  0  0  0  0  0  0  0  0  0
  126.3625  131.3660   65.8807 H   0  0  0  0  0  0  0  0  0  0  0  0
  126.6027  132.4306   63.6548 H   0  0  0  0  0  0  0  0  0  0  0  0
  128.7310  129.2554   60.4553 H   0  0  0  0  0  0  0  0  0  0  0  0
  127.1909  128.9393   61.3173 H   0  0  0  0  0  0  0  0  0  0  0  0
  127.0850  129.8229   58.4518 H   0  0  0  0  0  0  0  0  0  0  0  0
  126.5030  126.4943   57.6440 H   0  0  0  0  0  0  0  0  0  0  0  0
  128.7886  125.0589   57.3373 H   0  0  0  0  0  0  0  0  0  0  0  0
  128.9000  120.9990   60.2230 H   0  0  0  0  0  0  0  0  0  0  0  0
  132.4486  120.9854   60.8837 H   0  0  0  0  0  0  0  0  0  0  0  0
  133.7242  118.9503   60.2279 H   0  0  0  0  0  0  0  0  0  0  0  0
  132.7115  116.6983   60.5325 H   0  0  0  0  0  0  0  0  0  0  0  0
  130.4241  116.4645   61.4872 H   0  0  0  0  0  0  0  0  0  0  0  0
  129.1380  118.4955   62.1410 H   0  0  0  0  0  0  0  0  0  0  0  0
  125.8745  124.1152   63.0546 H   0  0  0  0  0  0  0  0  0  0  0  0
  124.7220  126.5325   59.1894 H   0  0  0  0  0  0  0  0  0  0  0  0
  125.7147  126.7804   60.5875 H   0  0  0  0  0  0  0  0  0  0  0  0
  125.0111  129.0946   60.0506 H   0  0  0  0  0  0  0  0  0  0  0  0
  124.6230  129.7830   58.0660 H   0  0  0  0  0  0  0  0  0  0  0  0
  126.0275  132.6107   60.1754 H   0  0  0  0  0  0  0  0  0  0  0  0
  125.1639  134.9416   60.0787 H   0  0  0  0  0  0  0  0  0  0  0  0
  126.3333  136.7513   61.3260 H   0  0  0  0  0  0  0  0  0  0  0  0
  128.3626  136.2411   62.6736 H   0  0  0  0  0  0  0  0  0  0  0  0
  129.2366  133.9124   62.7699 H   0  0  0  0  0  0  0  0  0  0  0  0
  130.5553  131.8655   62.9954 H   0  0  0  0  0  0  0  0  0  0  0  0
  132.9027  132.0090   62.1840 H   0  0  0  0  0  0  0  0  0  0  0  0
  133.3741  131.9737   59.7387 H   0  0  0  0  0  0  0  0  0  0  0  0
  131.5070  131.8025   58.1009 H   0  0  0  0  0  0  0  0  0  0  0  0
  129.1580  131.6549   58.9076 H   0  0  0  0  0  0  0  0  0  0  0  0
  129.4770  129.4092   62.5232 H   0  0  0  0  0  0  0  0  0  0  0  0
  129.2366  128.3453   64.7533 H   0  0  0  0  0  0  0  0  0  0  0  0
  1  2  1  0
  2  3  1  0
  3  4  2  0
  4  5  1  0
  5  6  2  0
  6  7  1  0
  7  8  1  0
  8  9  1  0
  9 10  1  0
 10 11  1  0
 11 12  1  0
 12 13  1  0
 13 14  1  0
 14 15  2  0
 15 16  1  0
 16 17  2  0
 17 18  1  0
 18 19  1  0
 19 20  2  0
 19 21  1  0
 21 22  2  0
 22 23  1  0
 23 24  2  0
 24 25  1  0
 25 26  2  0
 17 27  1  0
 27 28  2  0
 28 29  1  0
 29 30  2  0
 12 31  1  0
 31 32  1  0
 32 33  1  0
  7 34  1  0
 34 35  2  0
 35 36  1  0
 36 37  2  0
 37 38  1  0
 38 39  2  0
  7 40  1  0
 40 41  2  0
 41 42  1  0
 42 43  2  0
 43 44  1  0
 44 45  2  0
  6 46  1  0
 46 47  2  0
 47  3  1  0
 32 10  1  0
 39 34  1  0
 45 40  1  0
 30 13  1  0
 30 16  1  0
 26 21  1  0
  1 48  1  0
  1 49  1  0
  1 50  1  0
  4 51  1  0
  5 52  1  0
  9 53  1  0
  9 54  1  0
 10 55  1  6
 12 56  1  6
 14 57  1  0
 18 58  1  0
 22 59  1  0
 23 60  1  0
 24 61  1  0
 25 62  1  0
 26 63  1  0
 28 64  1  0
 31 65  1  0
 31 66  1  0
 32 67  1  1
 33 68  1  0
 35 69  1  0
 36 70  1  0
 37 71  1  0
 38 72  1  0
 39 73  1  0
 41 74  1  0
 42 75  1  0
 43 76  1  0
 44 77  1  0
 45 78  1  0
 46 79  1  0
 47 80  1  0
M  END
>  <Binding energies>  (1) 
[-8.97]

>  <Ligand effiencies>  (1) 
[-0.18306122448979592]

>  <Interactions>  (1) 
["V-A:GLU:543:CG:4906, V-B:GLU:543:CD:9879, V-A:ALA:541:CB:4891, V-A:TYR:539:CD1:4872, V-A:GLU:543:CD:4907, H-B:TYR:484:OH:9318, H-B:ALA:541:N:9862, V-B:ASP:366:CG:8183, V-B:PRO:540:CA:9854, V-B:ALA:541:CB:9863, V-B:PRO:540:C:9852, V-B:TYR:539:CE2:9847, V-B:TYR:539:CD2:9845, V-A:TYR:539:CE1:4874, V-A:PRO:540:CB:4884, V-A:PRO:540:CA:4882, V-A:PRO:482:CG:4326, V-B:ASP:366:CB:8182, V-A:PRO:482:CB:4325, V-A:SER:385:CB:3408, V-A:SER:385:CA:3406, V-A:LEU:475:CD2:4258, V-B:TYR:539:C:9838, H-B:TYR:539:O:9839, V-A:HIS:383:CE1:3393"]

$$$$
RR8_A_Rahimova_2017
     RDKit          3D

 73 77  0  0  0  0  0  0  0  0999 V2000
  128.8370  129.0860   63.6850 O   0  0  0  0  0  0  0  0  0  0  0  0
  128.7700  128.6460   64.8380 C   0  0  0  0  0  0  0  0  0  0  0  0
  129.7890  127.9910   65.4760 O   0  0  0  0  0  0  0  0  0  0  0  0
  130.1250  126.7110   65.0150 C   0  0  1  0  0  0  0  0  0  0  0  0
  130.2610  126.6840   63.6240 O   0  0  0  0  0  0  0  0  0  0  0  0
  131.3340  125.8410   63.2130 C   0  0  2  0  0  0  0  0  0  0  0  0
  130.7850  124.7920   62.2300 C   0  0  0  0  0  0  0  0  0  0  0  0
  130.5450  123.5830   62.9370 O   0  0  0  0  0  0  0  0  0  0  0  0
  129.8100  122.6170   62.1960 C   0  0  0  0  0  0  0  0  0  0  0  0
  128.3570  123.0520   62.0800 C   0  0  0  0  0  0  0  0  0  0  0  0
  127.7790  123.2220   60.8190 C   0  0  0  0  0  0  0  0  0  0  0  0
  126.4470  123.6140   60.7100 C   0  0  0  0  0  0  0  0  0  0  0  0
  125.6950  123.8320   61.8630 C   0  0  0  0  0  0  0  0  0  0  0  0
  126.2610  123.6590   63.1240 C   0  0  0  0  0  0  0  0  0  0  0  0
  127.5930  123.2660   63.2330 C   0  0  0  0  0  0  0  0  0  0  0  0
  131.8870  125.2840   64.5310 C   0  0  1  0  0  0  0  0  0  0  0  0
  133.3090  125.1790   64.5430 O   0  0  0  0  0  0  0  0  0  0  0  0
  133.9330  125.1030   63.2670 C   0  0  0  0  0  0  0  0  0  0  0  0
  133.6710  123.7400   62.6410 C   0  0  0  0  0  0  0  0  0  0  0  0
  133.5820  123.6200   61.2510 C   0  0  0  0  0  0  0  0  0  0  0  0
  133.3340  122.3790   60.6730 C   0  0  0  0  0  0  0  0  0  0  0  0
  133.1710  121.2580   61.4860 C   0  0  0  0  0  0  0  0  0  0  0  0
  133.2510  121.3700   62.8720 C   0  0  0  0  0  0  0  0  0  0  0  0
  133.4980  122.6120   63.4510 C   0  0  0  0  0  0  0  0  0  0  0  0
  131.5040  126.3460   65.5470 C   0  0  2  0  0  0  0  0  0  0  0  0
  131.4840  125.7980   66.8620 O   0  0  0  0  0  0  0  0  0  0  0  0
  130.1940  125.5180   67.3940 C   0  0  0  0  0  0  0  0  0  0  0  0
  129.8370  126.5470   68.4560 C   0  0  0  0  0  0  0  0  0  0  0  0
  130.4950  127.7810   68.4890 C   0  0  0  0  0  0  0  0  0  0  0  0
  130.1570  128.7240   69.4570 C   0  0  0  0  0  0  0  0  0  0  0  0
  129.1610  128.4330   70.3860 C   0  0  0  0  0  0  0  0  0  0  0  0
  128.4970  127.2090   70.3560 C   0  0  0  0  0  0  0  0  0  0  0  0
  128.8340  126.2650   69.3880 C   0  0  0  0  0  0  0  0  0  0  0  0
  127.5470  128.7910   65.6970 C   0  0  0  0  0  0  0  0  0  0  0  0
  127.5950  128.6230   67.0900 C   0  0  0  0  0  0  0  0  0  0  0  0
  126.4430  128.7630   67.8590 C   0  0  0  0  0  0  0  0  0  0  0  0
  125.2160  129.0720   67.2580 C   0  0  0  0  0  0  0  0  0  0  0  0
  123.9900  129.2230   68.0790 N   0  0  0  0  0  0  0  0  0  0  0  0
  124.0330  128.9080   69.2650 O   0  0  0  0  0  0  0  0  0  0  0  0
  122.9740  129.6580   67.5440 O   0  0  0  0  0  0  0  0  0  0  0  0
  125.1690  129.2370   65.8680 C   0  0  0  0  0  0  0  0  0  0  0  0
  126.3190  129.0980   65.0970 C   0  0  0  0  0  0  0  0  0  0  0  0
  129.3284  126.0281   65.3455 H   0  0  0  0  0  0  0  0  0  0  0  0
  132.1478  126.3333   62.6603 H   0  0  0  0  0  0  0  0  0  0  0  0
  129.8450  125.1551   61.7888 H   0  0  0  0  0  0  0  0  0  0  0  0
  131.5143  124.6160   61.4256 H   0  0  0  0  0  0  0  0  0  0  0  0
  130.2439  122.5213   61.1897 H   0  0  0  0  0  0  0  0  0  0  0  0
  129.8585  121.6481   62.7145 H   0  0  0  0  0  0  0  0  0  0  0  0
  128.3763  123.0461   59.9122 H   0  0  0  0  0  0  0  0  0  0  0  0
  125.9906  123.7509   59.7185 H   0  0  0  0  0  0  0  0  0  0  0  0
  124.6437  124.1439   61.7763 H   0  0  0  0  0  0  0  0  0  0  0  0
  125.6595  123.8317   64.0286 H   0  0  0  0  0  0  0  0  0  0  0  0
  128.0446  123.1238   64.2259 H   0  0  0  0  0  0  0  0  0  0  0  0
  131.4940  124.2736   64.7168 H   0  0  0  0  0  0  0  0  0  0  0  0
  133.5246  125.8885   62.6142 H   0  0  0  0  0  0  0  0  0  0  0  0
  135.0174  125.2440   63.3858 H   0  0  0  0  0  0  0  0  0  0  0  0
  133.7082  124.5076   60.6137 H   0  0  0  0  0  0  0  0  0  0  0  0
  133.2668  122.2826   59.5793 H   0  0  0  0  0  0  0  0  0  0  0  0
  132.9775  120.2765   61.0287 H   0  0  0  0  0  0  0  0  0  0  0  0
  133.1196  120.4811   63.5065 H   0  0  0  0  0  0  0  0  0  0  0  0
  133.5572  122.7066   64.5453 H   0  0  0  0  0  0  0  0  0  0  0  0
  132.1837  127.2054   65.6441 H   0  0  0  0  0  0  0  0  0  0  0  0
  129.4498  125.5558   66.5849 H   0  0  0  0  0  0  0  0  0  0  0  0
  130.1993  124.5161   67.8480 H   0  0  0  0  0  0  0  0  0  0  0  0
  131.2789  128.0066   67.7510 H   0  0  0  0  0  0  0  0  0  0  0  0
  130.6745  129.6942   69.4875 H   0  0  0  0  0  0  0  0  0  0  0  0
  128.8960  129.1774   71.1512 H   0  0  0  0  0  0  0  0  0  0  0  0
  127.7105  126.9886   71.0928 H   0  0  0  0  0  0  0  0  0  0  0  0
  128.3108  125.2979   69.3572 H   0  0  0  0  0  0  0  0  0  0  0  0
  128.5503  128.3788   67.5776 H   0  0  0  0  0  0  0  0  0  0  0  0
  126.4968  128.6296   68.9496 H   0  0  0  0  0  0  0  0  0  0  0  0
  124.2130  129.4790   65.3807 H   0  0  0  0  0  0  0  0  0  0  0  0
  126.2633  129.2304   64.0064 H   0  0  0  0  0  0  0  0  0  0  0  0
  1  2  2  0
  2  3  1  0
  3  4  1  0
  4  5  1  0
  5  6  1  0
  6  7  1  0
  7  8  1  0
  8  9  1  0
  9 10  1  0
 10 11  2  0
 11 12  1  0
 12 13  2  0
 13 14  1  0
 14 15  2  0
  6 16  1  0
 16 17  1  0
 17 18  1  0
 18 19  1  0
 19 20  2  0
 20 21  1  0
 21 22  2  0
 22 23  1  0
 23 24  2  0
 16 25  1  0
 25 26  1  0
 26 27  1  0
 27 28  1  0
 28 29  2  0
 29 30  1  0
 30 31  2  0
 31 32  1  0
 32 33  2  0
  2 34  1  0
 34 35  2  0
 35 36  1  0
 36 37  2  0
 37 38  1  0
 38 39  2  0
 38 40  1  0
 37 41  1  0
 41 42  2  0
 25  4  1  0
 33 28  1  0
 42 34  1  0
 15 10  1  0
 24 19  1  0
  4 43  1  6
  6 44  1  6
  7 45  1  0
  7 46  1  0
  9 47  1  0
  9 48  1  0
 11 49  1  0
 12 50  1  0
 13 51  1  0
 14 52  1  0
 15 53  1  0
 16 54  1  1
 18 55  1  0
 18 56  1  0
 20 57  1  0
 21 58  1  0
 22 59  1  0
 23 60  1  0
 24 61  1  0
 25 62  1  1
 27 63  1  0
 27 64  1  0
 29 65  1  0
 30 66  1  0
 31 67  1  0
 32 68  1  0
 33 69  1  0
 35 70  1  0
 36 71  1  0
 41 72  1  0
 42 73  1  0
M  CHG  2  38   1  40  -1
M  END
>  <Binding energies>  (1) 
[-9.47]

>  <Ligand effiencies>  (1) 
[-0.2254761904761905]

>  <Interactions>  (1) 
["V-B:ARG:545:CG:9893, V-A:GLU:543:CB:4905, V-B:GLU:543:CB:9877, V-B:GLU:543:CD:9879, V-B:HIS:456:CE1:9040, H-A:GLY:454:N:4049, V-A:HIS:456:CE1:4069, V-A:GLU:543:CD:4907, V-A:GLY:454:CA:4048, V-B:ARG:545:CZ:9897, H-B:TYR:484:OH:9318, V-B:ARG:545:CD:9894, H-B:GLY:454:N:9020, V-A:GLU:543:C:4901, V-A:TYR:484:CZ:4346, V-B:PRO:540:CA:9854, V-A:ARG:545:CZ:4925, V-B:PRO:540:CB:9856, V-A:GLY:453:CA:4043, V-B:ALA:541:CB:9863, V-A:ASP:366:CG:3212, V-B:TYR:539:CE2:9847, H-A:TYR:484:OH:4347, H-B:ILE:455:N:9025, V-B:ALA:541:C:9859, V-B:GLU:543:CG:9878, V-B:ALA:541:CA:9861, V-A:ILE:369:CG2:3236, V-A:TYR:484:CE2:4345, V-A:LEU:475:CD2:4258, V-B:ARG:545:CB:9892, V-A:ILE:369:CD1:3238, H-B:HIS:456:ND1:9037, V-B:ILE:455:C:9022"]

$$$$
RR8_B_Rahimova_2017
     RDKit          3D

 73 77  0  0  0  0  0  0  0  0999 V2000
  129.0880  126.2860   63.6000 O   0  0  0  0  0  0  0  0  0  0  0  0
  129.7500  127.1370   64.2030 C   0  0  0  0  0  0  0  0  0  0  0  0
  129.5340  128.4850   64.1210 O   0  0  0  0  0  0  0  0  0  0  0  0
  128.4590  128.9390   63.3350 C   0  0  2  0  0  0  0  0  0  0  0  0
  128.7980  130.0790   62.5970 O   0  0  0  0  0  0  0  0  0  0  0  0
  128.4820  131.2740   63.3100 C   0  0  2  0  0  0  0  0  0  0  0  0
  129.7580  132.1170   63.4890 C   0  0  0  0  0  0  0  0  0  0  0  0
  130.2290  132.5290   62.2120 O   0  0  0  0  0  0  0  0  0  0  0  0
  131.4080  131.8720   61.7690 C   0  0  0  0  0  0  0  0  0  0  0  0
  131.5830  132.1110   60.2770 C   0  0  0  0  0  0  0  0  0  0  0  0
  132.8180  131.8550   59.6740 C   0  0  0  0  0  0  0  0  0  0  0  0
  132.9940  132.0940   58.3130 C   0  0  0  0  0  0  0  0  0  0  0  0
  131.9300  132.5880   57.5590 C   0  0  0  0  0  0  0  0  0  0  0  0
  130.6950  132.8390   58.1520 C   0  0  0  0  0  0  0  0  0  0  0  0
  130.5210  132.6030   59.5130 C   0  0  0  0  0  0  0  0  0  0  0  0
  127.8300  130.7820   64.6070 C   0  0  1  0  0  0  0  0  0  0  0  0
  126.7920  131.6840   65.0020 O   0  0  0  0  0  0  0  0  0  0  0  0
  126.2710  132.5550   63.9950 C   0  0  0  0  0  0  0  0  0  0  0  0
  124.9570  132.0440   63.4120 C   0  0  0  0  0  0  0  0  0  0  0  0
  124.4600  130.7950   63.7940 C   0  0  0  0  0  0  0  0  0  0  0  0
  123.2440  130.3460   63.2850 C   0  0  0  0  0  0  0  0  0  0  0  0
  122.5320  131.1450   62.3920 C   0  0  0  0  0  0  0  0  0  0  0  0
  123.0240  132.3890   62.0040 C   0  0  0  0  0  0  0  0  0  0  0  0
  124.2390  132.8410   62.5160 C   0  0  0  0  0  0  0  0  0  0  0  0
  127.3180  129.3920   64.2450 C   0  0  2  0  0  0  0  0  0  0  0  0
  127.1670  128.5970   65.4180 O   0  0  0  0  0  0  0  0  0  0  0  0
  126.7990  129.3010   66.5940 C   0  0  0  0  0  0  0  0  0  0  0  0
  127.5850  128.7250   67.7580 C   0  0  0  0  0  0  0  0  0  0  0  0
  127.0610  127.6700   68.5110 C   0  0  0  0  0  0  0  0  0  0  0  0
  127.7830  127.1630   69.5890 C   0  0  0  0  0  0  0  0  0  0  0  0
  129.0220  127.7110   69.9100 C   0  0  0  0  0  0  0  0  0  0  0  0
  129.5510  128.7630   69.1630 C   0  0  0  0  0  0  0  0  0  0  0  0
  128.8310  129.2700   68.0850 C   0  0  0  0  0  0  0  0  0  0  0  0
  130.9150  126.7960   65.0870 C   0  0  0  0  0  0  0  0  0  0  0  0
  130.8520  126.9380   66.4810 C   0  0  0  0  0  0  0  0  0  0  0  0
  131.9500  126.6230   67.2740 C   0  0  0  0  0  0  0  0  0  0  0  0
  133.1410  126.1680   66.6950 C   0  0  0  0  0  0  0  0  0  0  0  0
  134.3200  125.8580   67.5400 N   0  0  0  0  0  0  0  0  0  0  0  0
  134.2110  125.9530   68.7600 O   0  0  0  0  0  0  0  0  0  0  0  0
  135.3630  125.5120   66.9910 O   0  0  0  0  0  0  0  0  0  0  0  0
  133.2020  126.0210   65.3030 C   0  0  0  0  0  0  0  0  0  0  0  0
  132.1020  126.3290   64.5090 C   0  0  0  0  0  0  0  0  0  0  0  0
  128.1844  128.1053   62.6720 H   0  0  0  0  0  0  0  0  0  0  0  0
  127.7870  131.9536   62.7952 H   0  0  0  0  0  0  0  0  0  0  0  0
  129.5311  133.0026   64.1008 H   0  0  0  0  0  0  0  0  0  0  0  0
  130.5303  131.5164   63.9917 H   0  0  0  0  0  0  0  0  0  0  0  0
  132.2779  132.2724   62.3103 H   0  0  0  0  0  0  0  0  0  0  0  0
  131.3247  130.7925   61.9632 H   0  0  0  0  0  0  0  0  0  0  0  0
  133.6521  131.4642   60.2753 H   0  0  0  0  0  0  0  0  0  0  0  0
  133.9652  131.8945   57.8365 H   0  0  0  0  0  0  0  0  0  0  0  0
  132.0675  132.7814   56.4849 H   0  0  0  0  0  0  0  0  0  0  0  0
  129.8600  133.2224   57.5471 H   0  0  0  0  0  0  0  0  0  0  0  0
  129.5486  132.8036   59.9866 H   0  0  0  0  0  0  0  0  0  0  0  0
  128.5100  130.7394   65.4706 H   0  0  0  0  0  0  0  0  0  0  0  0
  126.0992  133.5466   64.4391 H   0  0  0  0  0  0  0  0  0  0  0  0
  127.0060  132.6030   63.1780 H   0  0  0  0  0  0  0  0  0  0  0  0
  125.0286  130.1673   64.4959 H   0  0  0  0  0  0  0  0  0  0  0  0
  122.8472  129.3653   63.5863 H   0  0  0  0  0  0  0  0  0  0  0  0
  121.5719  130.7896   61.9896 H   0  0  0  0  0  0  0  0  0  0  0  0
  122.4564  133.0117   61.2969 H   0  0  0  0  0  0  0  0  0  0  0  0
  124.6322  133.8234   62.2154 H   0  0  0  0  0  0  0  0  0  0  0  0
  126.3263  129.3339   63.7727 H   0  0  0  0  0  0  0  0  0  0  0  0
  127.0350  130.3691   66.4777 H   0  0  0  0  0  0  0  0  0  0  0  0
  125.7192  129.1971   66.7765 H   0  0  0  0  0  0  0  0  0  0  0  0
  126.0813  127.2415   68.2529 H   0  0  0  0  0  0  0  0  0  0  0  0
  127.3757  126.3327   70.1845 H   0  0  0  0  0  0  0  0  0  0  0  0
  129.5899  127.3097   70.7623 H   0  0  0  0  0  0  0  0  0  0  0  0
  130.5308  129.1894   69.4239 H   0  0  0  0  0  0  0  0  0  0  0  0
  129.2419  130.0992   67.4903 H   0  0  0  0  0  0  0  0  0  0  0  0
  129.9263  127.3016   66.9509 H   0  0  0  0  0  0  0  0  0  0  0  0
  131.8823  126.7323   68.3665 H   0  0  0  0  0  0  0  0  0  0  0  0
  134.1284  125.6586   64.8335 H   0  0  0  0  0  0  0  0  0  0  0  0
  132.1651  126.2047   63.4179 H   0  0  0  0  0  0  0  0  0  0  0  0
  1  2  2  0
  2  3  1  0
  3  4  1  0
  4  5  1  0
  5  6  1  0
  6  7  1  0
  7  8  1  0
  8  9  1  0
  9 10  1  0
 10 11  2  0
 11 12  1  0
 12 13  2  0
 13 14  1  0
 14 15  2  0
  6 16  1  0
 16 17  1  0
 17 18  1  0
 18 19  1  0
 19 20  2  0
 20 21  1  0
 21 22  2  0
 22 23  1  0
 23 24  2  0
 16 25  1  0
 25 26  1  0
 26 27  1  0
 27 28  1  0
 28 29  2  0
 29 30  1  0
 30 31  2  0
 31 32  1  0
 32 33  2  0
  2 34  1  0
 34 35  2  0
 35 36  1  0
 36 37  2  0
 37 38  1  0
 38 39  2  0
 38 40  1  0
 37 41  1  0
 41 42  2  0
 25  4  1  0
 33 28  1  0
 42 34  1  0
 15 10  1  0
 24 19  1  0
  4 43  1  6
  6 44  1  6
  7 45  1  0
  7 46  1  0
  9 47  1  0
  9 48  1  0
 11 49  1  0
 12 50  1  0
 13 51  1  0
 14 52  1  0
 15 53  1  0
 16 54  1  1
 18 55  1  0
 18 56  1  0
 20 57  1  0
 21 58  1  0
 22 59  1  0
 23 60  1  0
 24 61  1  0
 25 62  1  6
 27 63  1  0
 27 64  1  0
 29 65  1  0
 30 66  1  0
 31 67  1  0
 32 68  1  0
 33 69  1  0
 35 70  1  0
 36 71  1  0
 41 72  1  0
 42 73  1  0
M  CHG  2  38   1  40  -1
M  END
>  <Binding energies>  (1) 
[-9.4]

>  <Ligand effiencies>  (1) 
[-0.22380952380952382]

>  <Interactions>  (1) 
["V-A:GLU:543:CB:4905, V-B:GLU:543:CB:9877, V-A:GLU:543:CG:4906, V-B:GLU:543:CD:9879, V-B:HIS:456:CE1:9040, V-A:ALA:541:CB:4891, H-A:GLY:454:N:4049, V-A:HIS:456:CE1:4069, V-A:GLU:543:CD:4907, V-B:LEU:475:CD1:9228, H-B:TYR:484:OH:9318, V-B:ILE:369:CG2:8207, V-B:ILE:369:CG1:8208, V-A:ARG:545:CZ:4925, V-A:ARG:545:CD:4922, V-A:ARG:545:CG:4921, H-A:HIS:456:ND1:4066, H-A:TYR:484:OH:4347, V-A:PRO:540:CB:4884, V-A:PRO:540:CA:4882, H-A:ALA:541:N:4890, V-B:GLY:453:C:9012, V-B:GLY:453:CA:9014, V-A:LEU:363:CA:3184, V-A:LEU:363:CD1:3188, V-A:PRO:540:N:4883, H-A:ILE:455:N:4054, V-A:TYR:539:C:4866, V-A:ILE:455:C:4051, V-A:ARG:545:CB:4920"]

$$$$
RR9_Rahimova_2017
     RDKit          3D

 64 68  0  0  0  0  0  0  0  0999 V2000
  129.1330  122.5360   73.7460 C   0  0  0  0  0  0  0  0  0  0  0  0
  129.7620  123.7760   73.1030 C   0  0  0  0  0  0  0  0  0  0  0  0
  128.9720  124.9140   73.4350 O   0  0  0  0  0  0  0  0  0  0  0  0
  128.3420  125.6200   72.4290 C   0  0  0  0  0  0  0  0  0  0  0  0
  128.9840  125.6500   71.1920 C   0  0  0  0  0  0  0  0  0  0  0  0
  128.4260  126.3380   70.1200 C   0  0  0  0  0  0  0  0  0  0  0  0
  127.2070  127.0190   70.2540 C   0  0  0  0  0  0  0  0  0  0  0  0
  126.6030  127.7670   69.1030 C   0  0  0  0  0  0  0  0  0  0  0  0
  127.3420  128.0580   67.9460 C   0  0  0  0  0  0  0  0  0  0  0  0
  126.7670  128.7480   66.8630 C   0  0  0  0  0  0  0  0  0  0  0  0
  127.5790  128.9400   65.6120 C   0  0  0  0  0  0  0  0  0  0  0  0
  127.2650  129.8040   64.7920 O   0  0  0  0  0  0  0  0  0  0  0  0
  128.6250  128.1040   65.4580 N   0  0  0  0  0  0  0  0  0  0  0  0
  129.4810  128.0070   64.2710 C   0  0  0  0  0  0  0  0  0  0  0  0
  130.2000  126.6440   64.1520 C   0  0  0  0  0  0  0  0  0  0  0  0
  131.3320  126.4310   65.1510 C   0  0  0  0  0  0  0  0  0  0  0  0
  131.1010  126.6030   66.5200 C   0  0  0  0  0  0  0  0  0  0  0  0
  132.1280  126.3750   67.4320 C   0  0  0  0  0  0  0  0  0  0  0  0
  133.3830  125.9800   66.9730 C   0  0  0  0  0  0  0  0  0  0  0  0
  133.6210  125.8110   65.6100 C   0  0  0  0  0  0  0  0  0  0  0  0
  132.5940  126.0380   64.6970 C   0  0  0  0  0  0  0  0  0  0  0  0
  125.4200  129.1580   67.0250 C   0  0  0  0  0  0  0  0  0  0  0  0
  124.4110  129.8860   66.2930 C   0  0  0  0  0  0  0  0  0  0  0  0
  124.5140  130.5930   64.9820 C   0  0  0  0  0  0  0  0  0  0  0  0
  125.0610  131.8770   64.9170 C   0  0  0  0  0  0  0  0  0  0  0  0
  125.1420  132.5420   63.6950 C   0  0  0  0  0  0  0  0  0  0  0  0
  124.6790  131.9210   62.5340 C   0  0  0  0  0  0  0  0  0  0  0  0
  124.7500  132.6520   61.2050 C   0  0  0  0  0  0  0  0  0  0  0  0
  124.1300  130.6400   62.5950 C   0  0  0  0  0  0  0  0  0  0  0  0
  124.0530  129.9770   63.8160 C   0  0  0  0  0  0  0  0  0  0  0  0
  123.2770  129.8970   66.9580 N   0  0  0  0  0  0  0  0  0  0  0  0
  123.4770  129.2670   68.1270 N   0  0  0  0  0  0  0  0  0  0  0  0
  124.7680  128.8040   68.2300 C   0  0  0  0  0  0  0  0  0  0  0  0
  125.3020  128.1420   69.2550 N   0  0  0  0  0  0  0  0  0  0  0  0
  126.5680  126.9860   71.5020 C   0  0  0  0  0  0  0  0  0  0  0  0
  127.1240  126.2970   72.5770 C   0  0  0  0  0  0  0  0  0  0  0  0
  129.1794  122.6274   74.8412 H   0  0  0  0  0  0  0  0  0  0  0  0
  128.0830  122.4514   73.4293 H   0  0  0  0  0  0  0  0  0  0  0  0
  129.6850  121.6388   73.4293 H   0  0  0  0  0  0  0  0  0  0  0  0
  130.7849  123.9118   73.4840 H   0  0  0  0  0  0  0  0  0  0  0  0
  129.8005  123.6526   72.0106 H   0  0  0  0  0  0  0  0  0  0  0  0
  129.9415  125.1242   71.0626 H   0  0  0  0  0  0  0  0  0  0  0  0
  128.9486  126.3483   69.1521 H   0  0  0  0  0  0  0  0  0  0  0  0
  128.3932  127.7399   67.8845 H   0  0  0  0  0  0  0  0  0  0  0  0
  128.8570  127.4860   66.2220 H   0  0  0  0  0  0  0  0  0  0  0  0
  128.8574  128.1531   63.3767 H   0  0  0  0  0  0  0  0  0  0  0  0
  130.2575  128.7807   64.3624 H   0  0  0  0  0  0  0  0  0  0  0  0
  129.4549  125.8492   64.3040 H   0  0  0  0  0  0  0  0  0  0  0  0
  130.6594  126.6215   63.1528 H   0  0  0  0  0  0  0  0  0  0  0  0
  130.1089  126.9181   66.8756 H   0  0  0  0  0  0  0  0  0  0  0  0
  131.9496  126.5060   68.5095 H   0  0  0  0  0  0  0  0  0  0  0  0
  134.1942  125.7997   67.6937 H   0  0  0  0  0  0  0  0  0  0  0  0
  134.6153  125.4998   65.2571 H   0  0  0  0  0  0  0  0  0  0  0  0
  132.7759  125.9081   63.6200 H   0  0  0  0  0  0  0  0  0  0  0  0
  125.4285  132.3640   65.8323 H   0  0  0  0  0  0  0  0  0  0  0  0
  125.5699  133.5541   63.6456 H   0  0  0  0  0  0  0  0  0  0  0  0
  124.8549  133.7320   61.3857 H   0  0  0  0  0  0  0  0  0  0  0  0
  125.6172  132.2900   60.6333 H   0  0  0  0  0  0  0  0  0  0  0  0
  123.8293  132.4636   60.6333 H   0  0  0  0  0  0  0  0  0  0  0  0
  123.7588  130.1551   61.6800 H   0  0  0  0  0  0  0  0  0  0  0  0
  123.6274  128.9638   63.8633 H   0  0  0  0  0  0  0  0  0  0  0  0
  122.7280  129.1770   68.7980 H   0  0  0  0  0  0  0  0  0  0  0  0
  125.6116  127.5132   71.6340 H   0  0  0  0  0  0  0  0  0  0  0  0
  126.6047  126.2841   73.5466 H   0  0  0  0  0  0  0  0  0  0  0  0
  1  2  1  0
  2  3  1  0
  3  4  1  0
  4  5  2  0
  5  6  1  0
  6  7  2  0
  7  8  1  0
  8  9  2  0
  9 10  1  0
 10 11  1  0
 11 12  2  0
 11 13  1  0
 13 14  1  0
 14 15  1  0
 15 16  1  0
 16 17  2  0
 17 18  1  0
 18 19  2  0
 19 20  1  0
 20 21  2  0
 10 22  2  0
 22 23  1  0
 23 24  1  0
 24 25  2  0
 25 26  1  0
 26 27  2  0
 27 28  1  0
 27 29  1  0
 29 30  2  0
 23 31  2  0
 31 32  1  0
 32 33  1  0
 33 34  2  0
  7 35  1  0
 35 36  2  0
 36  4  1  0
 34  8  1  0
 21 16  1  0
 33 22  1  0
 30 24  1  0
  1 37  1  0
  1 38  1  0
  1 39  1  0
  2 40  1  0
  2 41  1  0
  5 42  1  0
  6 43  1  0
  9 44  1  0
 13 45  1  0
 14 46  1  0
 14 47  1  0
 15 48  1  0
 15 49  1  0
 17 50  1  0
 18 51  1  0
 19 52  1  0
 20 53  1  0
 21 54  1  0
 25 55  1  0
 26 56  1  0
 28 57  1  0
 28 58  1  0
 28 59  1  0
 29 60  1  0
 30 61  1  0
 32 62  1  0
 35 63  1  0
 36 64  1  0
M  END
>  <Binding energies>  (1) 
[-10.0]

>  <Ligand effiencies>  (1) 
[-0.2631578947368421]

>  <Interactions>  (1) 
["V-B:ARG:545:CG:9893, V-B:GLU:543:CB:9877, V-B:GLU:543:CD:9879, V-B:HIS:456:CE1:9040, V-A:HIS:456:CE1:4069, V-A:GLU:543:CD:4907, V-B:LEU:475:CD1:9228, V-B:ARG:545:CZ:9897, H-B:TYR:484:OH:9318, V-B:ARG:545:CD:9894, H-B:GLY:454:N:9020, V-A:TYR:484:CZ:4346, V-A:ARG:545:CZ:4925, V-A:ARG:545:CD:4922, V-A:ARG:545:CG:4921, V-B:GLU:543:C:9873, V-B:GLY:544:C:9883, H-B:ILE:455:N:9025, V-B:ARG:545:CB:9892, V-B:GLY:454:CA:9019, H-B:GLU:543:OE2:9881, H-B:GLU:543:OE1:9880, H-B:ILE:455:O:9023, H-B:HIS:456:ND1:9037, V-B:GLY:544:CA:9885, V-B:LYS:547:CE:9921, V-B:ILE:455:C:9022, H-B:LYS:547:NZ:9922, V-A:HIS:456:CD2:4067, V-A:TYR:484:CB:4340"]

$$$$
