1a_Ghoteimi_2023
     RDKit          3D

 40 43  0  0  0  0  0  0  0  0999 V2000
  132.7390  117.7890   58.9670 C   0  0  0  0  0  0  0  0  0  0  0  0
  133.5130  119.1000   59.1340 C   0  0  0  0  0  0  0  0  0  0  0  0
  133.7680  119.3240   60.5150 O   0  0  0  0  0  0  0  0  0  0  0  0
  132.7500  119.4290   61.4080 C   0  0  0  0  0  0  0  0  0  0  0  0
  132.0200  118.4840   61.7220 O   0  0  0  0  0  0  0  0  0  0  0  0
  132.6050  120.8090   61.9820 C   0  0  0  0  0  0  0  0  0  0  0  0
  133.6960  121.5080   62.5190 C   0  0  0  0  0  0  0  0  0  0  0  0
  133.5300  122.7860   63.0460 C   0  0  0  0  0  0  0  0  0  0  0  0
  132.2650  123.3920   63.0420 C   0  0  0  0  0  0  0  0  0  0  0  0
  131.9820  124.6740   63.5510 N   0  0  0  0  0  0  0  0  0  0  0  0
  132.6950  125.4420   64.4040 C   0  0  0  0  0  0  0  0  0  0  0  0
  133.7810  125.1440   64.8990 O   0  0  0  0  0  0  0  0  0  0  0  0
  132.0670  126.7910   64.7540 C   0  0  0  0  0  0  0  0  0  0  0  0
  130.3190  126.8680   64.2600 S   0  0  0  0  0  0  0  0  0  0  0  0
  129.4810  127.7660   65.5460 C   0  0  0  0  0  0  0  0  0  0  0  0
  128.5620  128.6490   65.0890 N   0  0  0  0  0  0  0  0  0  0  0  0
  127.8460  129.3960   65.9710 C   0  0  0  0  0  0  0  0  0  0  0  0
  126.8330  130.3370   65.3880 C   0  0  0  0  0  0  0  0  0  0  0  0
  127.1700  131.6600   65.0580 C   0  0  0  0  0  0  0  0  0  0  0  0
  126.2280  132.5310   64.5170 C   0  0  0  0  0  0  0  0  0  0  0  0
  124.9210  132.1080   64.2900 C   0  0  0  0  0  0  0  0  0  0  0  0
  124.0540  133.0380   63.7480 O   0  0  0  0  0  0  0  0  0  0  0  0
  123.7270  132.9570   62.3650 C   0  0  0  0  0  0  0  0  0  0  0  0
  124.5670  130.7920   64.6180 C   0  0  0  0  0  0  0  0  0  0  0  0
  125.5110  129.9250   65.1590 C   0  0  0  0  0  0  0  0  0  0  0  0
  128.0530  129.2610   67.3500 C   0  0  0  0  0  0  0  0  0  0  0  0
  129.0150  128.3720   67.8450 C   0  0  0  0  0  0  0  0  0  0  0  0
  129.2030  128.3040   69.3260 C   0  0  0  0  0  0  0  0  0  0  0  0
  130.0320  129.2170   69.9860 C   0  0  0  0  0  0  0  0  0  0  0  0
  130.1900  129.1560   71.3680 C   0  0  0  0  0  0  0  0  0  0  0  0
  129.5180  128.1900   72.1170 C   0  0  0  0  0  0  0  0  0  0  0  0
  129.7350  128.2080   73.4810 O   0  0  0  0  0  0  0  0  0  0  0  0
  131.0530  128.0070   73.9770 C   0  0  0  0  0  0  0  0  0  0  0  0
  128.6780  127.2790   71.4590 C   0  0  0  0  0  0  0  0  0  0  0  0
  128.5230  127.3400   70.0760 C   0  0  0  0  0  0  0  0  0  0  0  0
  129.7530  127.5940   66.9200 C   0  0  0  0  0  0  0  0  0  0  0  0
  130.7630  126.6350   67.3790 C   0  0  0  0  0  0  0  0  0  0  0  0
  131.5600  125.8780   67.7420 N   0  0  0  0  0  0  0  0  0  0  0  0
  131.1770  122.6980   62.5120 C   0  0  0  0  0  0  0  0  0  0  0  0
  131.3440  121.4190   61.9840 C   0  0  0  0  0  0  0  0  0  0  0  0
  1  2  1  0
  2  3  1  0
  3  4  1  0
  4  5  2  0
  4  6  1  0
  6  7  2  0
  7  8  1  0
  8  9  2  0
  9 10  1  0
 10 11  1  0
 11 12  2  0
 11 13  1  0
 13 14  1  0
 14 15  1  0
 15 16  2  0
 16 17  1  0
 17 18  1  0
 18 19  2  0
 19 20  1  0
 20 21  2  0
 21 22  1  0
 22 23  1  0
 21 24  1  0
 24 25  2  0
 17 26  2  0
 26 27  1  0
 27 28  1  0
 28 29  2  0
 29 30  1  0
 30 31  2  0
 31 32  1  0
 32 33  1  0
 31 34  1  0
 34 35  2  0
 27 36  2  0
 36 37  1  0
 37 38  3  0
  9 39  1  0
 39 40  2  0
 40  6  1  0
 36 15  1  0
 25 18  1  0
 35 28  1  0
M  END
>  <Binding energies>  (1) 
[-8.57]

>  <Ligand effiencies>  (1) 
[-0.20902439024390246]

>  <Interactions>  (1) 
["V-A:GLU:543:CB:4905, V-A:GLU:543:CG:4906, V-B:GLU:543:CD:9879, V-B:HIS:456:CE1:9040, V-B:SER:385:CB:8379, H-A:GLY:454:N:4049, V-A:HIS:456:CE1:4069, V-A:GLU:543:CD:4907, V-A:GLY:454:CA:4048, V-B:LEU:475:CD1:9228, H-B:GLY:454:N:9020, V-A:GLU:543:C:4901, V-A:ARG:545:CZ:4925, V-A:GLU:543:CA:4903, V-B:TYR:539:CE2:9847, V-B:TYR:539:CD2:9845, H-A:TYR:484:OH:4347, V-B:TYR:539:CG:9843, V-A:LEU:373:CD2:3280, V-B:TYR:539:CB:9842, V-A:SER:385:CB:3408, V-A:ILE:369:CG2:3236, V-A:LEU:373:CD1:3279, V-A:SER:385:CA:3406, V-A:LEU:475:CD2:4258, V-A:LEU:373:CG:3278, V-B:GLY:454:CA:9019, V-A:ILE:369:CD1:3238, V-A:SER:385:C:3404"]

$$$$
1b_Ghoteimi_2023
     RDKit          3D

 34 37  0  0  0  0  0  0  0  0999 V2000
  133.8200  121.6870   61.7900 C   0  0  0  0  0  0  0  0  0  0  0  0
  134.2470  122.4580   62.9070 O   0  0  0  0  0  0  0  0  0  0  0  0
  133.3620  123.3430   63.4930 C   0  0  0  0  0  0  0  0  0  0  0  0
  133.6600  124.6980   63.3690 C   0  0  0  0  0  0  0  0  0  0  0  0
  132.8270  125.6630   63.9280 C   0  0  0  0  0  0  0  0  0  0  0  0
  131.6650  125.3000   64.6260 C   0  0  0  0  0  0  0  0  0  0  0  0
  130.7690  126.3440   65.2300 C   0  0  0  0  0  0  0  0  0  0  0  0
  130.5230  126.4340   66.6050 C   0  0  0  0  0  0  0  0  0  0  0  0
  129.6810  127.4290   67.1170 C   0  0  0  0  0  0  0  0  0  0  0  0
  129.4600  127.4610   68.5940 C   0  0  0  0  0  0  0  0  0  0  0  0
  128.7450  126.4370   69.2230 C   0  0  0  0  0  0  0  0  0  0  0  0
  128.5290  126.4670   70.5980 C   0  0  0  0  0  0  0  0  0  0  0  0
  129.0180  127.5210   71.3700 C   0  0  0  0  0  0  0  0  0  0  0  0
  128.7550  127.4670   72.7250 O   0  0  0  0  0  0  0  0  0  0  0  0
  127.5500  126.8560   73.1740 C   0  0  0  0  0  0  0  0  0  0  0  0
  129.7290  128.5550   70.7420 C   0  0  0  0  0  0  0  0  0  0  0  0
  129.9420  128.5220   69.3670 C   0  0  0  0  0  0  0  0  0  0  0  0
  129.0960  128.3490   66.2130 C   0  0  0  0  0  0  0  0  0  0  0  0
  128.2860  129.4660   66.7080 C   0  0  0  0  0  0  0  0  0  0  0  0
  127.6460  130.3480   67.1000 N   0  0  0  0  0  0  0  0  0  0  0  0
  129.3690  128.1900   64.8360 C   0  0  0  0  0  0  0  0  0  0  0  0
  128.7160  129.2450   63.5580 S   0  0  0  0  0  0  0  0  0  0  0  0
  126.9580  128.8200   63.3230 C   0  0  0  0  0  0  0  0  0  0  0  0
  125.9890  129.4980   64.3020 C   0  0  0  0  0  0  0  0  0  0  0  0
  125.7200  130.6960   64.1930 O   0  0  0  0  0  0  0  0  0  0  0  0
  125.4860  128.6810   65.2540 N   0  0  0  0  0  0  0  0  0  0  0  0
  124.5920  129.0160   66.2640 C   0  0  0  0  0  0  0  0  0  0  0  0
  124.8870  128.8770   67.6200 C   0  0  0  0  0  0  0  0  0  0  0  0
  123.7600  129.3110   68.2780 C   0  0  0  0  0  0  0  0  0  0  0  0
  122.8350  129.6950   67.3660 O   0  0  0  0  0  0  0  0  0  0  0  0
  123.3740  129.5040   66.0930 N   0  0  0  0  0  0  0  0  0  0  0  0
  130.1990  127.2270   64.3690 N   0  0  0  0  0  0  0  0  0  0  0  0
  131.3760  123.9320   64.7470 C   0  0  0  0  0  0  0  0  0  0  0  0
  132.2070  122.9640   64.1910 C   0  0  0  0  0  0  0  0  0  0  0  0
  1  2  1  0
  2  3  1  0
  3  4  2  0
  4  5  1  0
  5  6  2  0
  6  7  1  0
  7  8  2  0
  8  9  1  0
  9 10  1  0
 10 11  2  0
 11 12  1  0
 12 13  2  0
 13 14  1  0
 14 15  1  0
 13 16  1  0
 16 17  2  0
  9 18  2  0
 18 19  1  0
 19 20  3  0
 18 21  1  0
 21 22  1  0
 22 23  1  0
 23 24  1  0
 24 25  2  0
 24 26  1  0
 26 27  1  0
 27 28  1  0
 28 29  2  0
 29 30  1  0
 30 31  1  0
 21 32  2  0
  6 33  1  0
 33 34  2  0
 34  3  1  0
 32  7  1  0
 17 10  1  0
 31 27  2  0
M  END
>  <Binding energies>  (2) 
[-8.43]

>  <Ligand effiencies>  (2) 
[-0.24085714285714285]

>  <Interactions>  (2) 
["V-B:ARG:545:CG:9893, V-A:GLU:543:CB:4905, V-B:GLU:543:CB:9877, V-A:GLU:543:CG:4906, V-B:GLU:543:CD:9879, V-B:HIS:456:CE1:9040, H-A:GLY:454:N:4049, V-A:HIS:456:CE1:4069, V-A:GLU:543:CD:4907, V-A:GLY:454:CA:4048, V-B:ARG:545:CZ:9897, H-B:TYR:484:OH:9318, V-B:ARG:545:CD:9894, H-B:GLY:454:N:9020, V-A:ARG:545:CZ:4925, V-A:ASP:366:CG:3212, H-B:ILE:455:N:9025, H-B:ARG:545:NE:9895, V-A:ILE:369:CG2:3236, V-A:LEU:475:CD2:4258, V-B:ARG:545:CB:9892, H-B:GLU:543:OE2:9881, V-A:ILE:369:CD1:3238, H-B:GLU:543:OE1:9880, V-B:LYS:547:CE:9921, V-B:ILE:455:C:9022"]

$$$$
1c_Ghoteimi_2023
     RDKit          3D

 34 37  0  0  0  0  0  0  0  0999 V2000
  135.1140  125.5220   67.2530 C   0  0  0  0  0  0  0  0  0  0  0  0
  134.2250  125.7850   66.1720 O   0  0  0  0  0  0  0  0  0  0  0  0
  132.9300  126.1830   66.4440 C   0  0  0  0  0  0  0  0  0  0  0  0
  132.6740  126.6380   67.7350 C   0  0  0  0  0  0  0  0  0  0  0  0
  131.3960  127.0560   68.0970 C   0  0  0  0  0  0  0  0  0  0  0  0
  130.3350  127.0300   67.1790 C   0  0  0  0  0  0  0  0  0  0  0  0
  128.9550  127.4750   67.5670 C   0  0  0  0  0  0  0  0  0  0  0  0
  128.1660  128.2930   66.7510 C   0  0  0  0  0  0  0  0  0  0  0  0
  126.8740  128.6600   67.1440 C   0  0  0  0  0  0  0  0  0  0  0  0
  126.0640  129.4780   66.1940 C   0  0  0  0  0  0  0  0  0  0  0  0
  124.8400  129.0060   65.7120 C   0  0  0  0  0  0  0  0  0  0  0  0
  124.0970  129.7600   64.8100 C   0  0  0  0  0  0  0  0  0  0  0  0
  124.5640  130.9980   64.3680 C   0  0  0  0  0  0  0  0  0  0  0  0
  123.7600  131.6780   63.4730 O   0  0  0  0  0  0  0  0  0  0  0  0
  122.9840  130.9380   62.5360 C   0  0  0  0  0  0  0  0  0  0  0  0
  125.7960  131.4740   64.8450 C   0  0  0  0  0  0  0  0  0  0  0  0
  126.5370  130.7160   65.7470 C   0  0  0  0  0  0  0  0  0  0  0  0
  126.3980  128.2090   68.3970 C   0  0  0  0  0  0  0  0  0  0  0  0
  125.0650  128.5860   68.8810 C   0  0  0  0  0  0  0  0  0  0  0  0
  124.0140  128.8850   69.2620 N   0  0  0  0  0  0  0  0  0  0  0  0
  127.2380  127.3730   69.1620 C   0  0  0  0  0  0  0  0  0  0  0  0
  126.7060  126.5970   70.6730 S   0  0  0  0  0  0  0  0  0  0  0  0
  128.2130  126.4780   71.6900 C   0  0  0  0  0  0  0  0  0  0  0  0
  127.9540  126.8510   73.1540 C   0  0  0  0  0  0  0  0  0  0  0  0
  128.8830  126.8260   73.9620 O   0  0  0  0  0  0  0  0  0  0  0  0
  126.6880  127.2310   73.4350 N   0  0  0  0  0  0  0  0  0  0  0  0
  126.2280  127.7590   74.6310 C   0  0  0  0  0  0  0  0  0  0  0  0
  126.9370  128.2780   75.6110 N   0  0  0  0  0  0  0  0  0  0  0  0
  126.1650  128.7230   76.5830 C   0  0  0  0  0  0  0  0  0  0  0  0
  124.7940  128.5690   76.4000 C   0  0  0  0  0  0  0  0  0  0  0  0
  124.5110  127.7960   74.8690 S   0  0  0  0  0  0  0  0  0  0  0  0
  128.4770  127.0110   68.7520 N   0  0  0  0  0  0  0  0  0  0  0  0
  130.6070  126.5760   65.8800 C   0  0  0  0  0  0  0  0  0  0  0  0
  131.8820  126.1560   65.5130 C   0  0  0  0  0  0  0  0  0  0  0  0
  1  2  1  0
  2  3  1  0
  3  4  2  0
  4  5  1  0
  5  6  2  0
  6  7  1  0
  7  8  2  0
  8  9  1  0
  9 10  1  0
 10 11  2  0
 11 12  1  0
 12 13  2  0
 13 14  1  0
 14 15  1  0
 13 16  1  0
 16 17  2  0
  9 18  2  0
 18 19  1  0
 19 20  3  0
 18 21  1  0
 21 22  1  0
 22 23  1  0
 23 24  1  0
 24 25  2  0
 24 26  1  0
 26 27  1  0
 27 28  2  0
 28 29  1  0
 29 30  2  0
 30 31  1  0
 21 32  2  0
  6 33  1  0
 33 34  2  0
 34  3  1  0
 32  7  1  0
 17 10  1  0
 31 27  1  0
M  END
>  <Binding energies>  (3) 
[-9.11]

>  <Ligand effiencies>  (3) 
[-0.2602857142857143]

>  <Interactions>  (3) 
["V-B:ARG:545:CG:9893, V-B:GLU:543:CB:9877, V-B:GLU:543:CD:9879, V-B:HIS:456:CE1:9040, H-A:GLY:454:N:4049, V-A:HIS:456:CE1:4069, V-A:GLU:543:CD:4907, V-A:GLY:454:CA:4048, V-B:ARG:545:CZ:9897, H-B:TYR:484:OH:9318, H-B:GLY:454:N:9020, V-B:TYR:484:CZ:9317, V-A:ARG:545:CZ:4925, V-A:GLY:453:CA:4043, V-A:ARG:545:CD:4922, V-A:ARG:545:CG:4921, V-B:GLY:544:C:9883, H-A:ARG:545:NE:4923, H-A:TYR:484:OH:4347, H-B:ARG:545:N:9891, V-B:GLY:453:CA:9014, V-B:ARG:545:CA:9890, V-B:ARG:545:CB:9892, V-B:GLY:454:CA:9019, V-A:GLY:453:C:4041, H-B:HIS:456:ND1:9037, V-B:LYS:547:CE:9921, H-B:LYS:547:NZ:9922, V-A:ILE:455:C:4051, V-A:GLY:454:C:4046, H-B:GLY:544:O:9884, V-B:HIS:456:CG:9036, V-B:HIS:456:CD2:9038, V-B:HIS:456:CB:9035, V-B:LYS:547:CD:9920, H-B:HIS:456:NE2:9041, V-B:VAL:458:CG2:9057"]

$$$$
1d_Ghoteimi_2023
     RDKit          3D

 30 32  0  0  0  0  0  0  0  0999 V2000
  124.6700  129.3380   64.3190 C   0  0  0  0  0  0  0  0  0  0  0  0
  124.0840  130.0330   65.4090 O   0  0  0  0  0  0  0  0  0  0  0  0
  124.0170  129.4610   66.6290 C   0  0  0  0  0  0  0  0  0  0  0  0
  123.1190  129.6160   67.4580 O   0  0  0  0  0  0  0  0  0  0  0  0
  125.2160  128.5600   66.9140 C   0  0  0  0  0  0  0  0  0  0  0  0
  126.6970  129.6130   66.9390 S   0  0  0  0  0  0  0  0  0  0  0  0
  128.0540  128.5910   67.4700 C   0  0  0  0  0  0  0  0  0  0  0  0
  128.0860  128.3780   68.8070 N   0  0  0  0  0  0  0  0  0  0  0  0
  129.0720  127.6170   69.3480 C   0  0  0  0  0  0  0  0  0  0  0  0
  129.0320  127.4260   70.8370 C   0  0  0  0  0  0  0  0  0  0  0  0
  129.7120  128.2980   71.7020 C   0  0  0  0  0  0  0  0  0  0  0  0
  129.6790  128.1150   73.0810 C   0  0  0  0  0  0  0  0  0  0  0  0
  128.9680  127.0550   73.6390 C   0  0  0  0  0  0  0  0  0  0  0  0
  128.9940  126.9490   75.0170 O   0  0  0  0  0  0  0  0  0  0  0  0
  130.2370  127.0760   75.6980 C   0  0  0  0  0  0  0  0  0  0  0  0
  128.2850  126.1750   72.7890 C   0  0  0  0  0  0  0  0  0  0  0  0
  128.3190  126.3620   71.4100 C   0  0  0  0  0  0  0  0  0  0  0  0
  130.0540  127.0390   68.5350 C   0  0  0  0  0  0  0  0  0  0  0  0
  130.0530  127.2550   67.1520 C   0  0  0  0  0  0  0  0  0  0  0  0
  131.1360  126.6140   66.3440 C   0  0  0  0  0  0  0  0  0  0  0  0
  130.8450  126.0550   65.0960 C   0  0  0  0  0  0  0  0  0  0  0  0
  131.8480  125.4560   64.3390 C   0  0  0  0  0  0  0  0  0  0  0  0
  133.1600  125.4090   64.8090 C   0  0  0  0  0  0  0  0  0  0  0  0
  134.0870  124.7890   63.9940 O   0  0  0  0  0  0  0  0  0  0  0  0
  133.8480  124.7250   62.5920 C   0  0  0  0  0  0  0  0  0  0  0  0
  133.4590  125.9800   66.0560 C   0  0  0  0  0  0  0  0  0  0  0  0
  132.4540  126.5790   66.8110 C   0  0  0  0  0  0  0  0  0  0  0  0
  129.0370  128.0720   66.5970 C   0  0  0  0  0  0  0  0  0  0  0  0
  129.0480  128.4160   65.1720 C   0  0  0  0  0  0  0  0  0  0  0  0
  129.0570  128.6870   64.0470 N   0  0  0  0  0  0  0  0  0  0  0  0
  1  2  1  0
  2  3  1  0
  3  4  2  0
  3  5  1  0
  5  6  1  0
  6  7  1  0
  7  8  2  0
  8  9  1  0
  9 10  1  0
 10 11  2  0
 11 12  1  0
 12 13  2  0
 13 14  1  0
 14 15  1  0
 13 16  1  0
 16 17  2  0
  9 18  2  0
 18 19  1  0
 19 20  1  0
 20 21  2  0
 21 22  1  0
 22 23  2  0
 23 24  1  0
 24 25  1  0
 23 26  1  0
 26 27  2  0
 19 28  2  0
 28 29  1  0
 29 30  3  0
 28  7  1  0
 17 10  1  0
 27 20  1  0
M  END
>  <Binding energies>  (4) 
[-7.99]

>  <Ligand effiencies>  (4) 
[-0.26633333333333337]

>  <Interactions>  (4) 
["V-B:ARG:545:CG:9893, V-A:GLU:543:CG:4906, V-B:GLU:543:CD:9879, V-B:HIS:456:CE1:9040, H-A:GLY:454:N:4049, V-A:HIS:456:CE1:4069, V-A:GLU:543:CD:4907, V-B:ARG:545:CZ:9897, H-B:TYR:484:OH:9318, V-B:ARG:545:CD:9894, H-B:GLY:454:N:9020, V-A:ARG:545:CZ:4925, V-A:ASP:366:CG:3212, V-A:ARG:545:CD:4922, V-A:ARG:545:CG:4921, H-B:ILE:455:N:9025, V-A:ILE:369:CD1:3238, H-B:LYS:547:NZ:9922"]

$$$$
1j_Grossjean_2025
     RDKit          3D

 20 21  0  0  0  0  0  0  0  0999 V2000
  134.9920  125.5280   67.2520 C   0  0  0  0  0  0  0  0  0  0  0  0
  133.7590  125.6640   66.3790 C   0  0  0  0  0  0  0  0  0  0  0  0
  132.5880  126.2490   66.8580 C   0  0  0  0  0  0  0  0  0  0  0  0
  131.4860  126.3600   66.0040 C   0  0  0  0  0  0  0  0  0  0  0  0
  130.2190  127.0200   66.5460 C   0  0  0  0  0  0  0  0  0  0  0  0
  131.5850  125.8700   64.6820 C   0  0  0  0  0  0  0  0  0  0  0  0
  130.4610  126.0240   63.7540 C   0  0  0  0  0  0  0  0  0  0  0  0
  129.5720  126.1480   63.0240 N   0  0  0  0  0  0  0  0  0  0  0  0
  132.8030  125.2680   64.2890 C   0  0  0  0  0  0  0  0  0  0  0  0
  133.1010  124.5970   62.6680 S   0  0  0  0  0  0  0  0  0  0  0  0
  133.8970  122.9770   62.8780 C   0  0  0  0  0  0  0  0  0  0  0  0
  133.1140  121.8590   62.1870 C   0  0  0  0  0  0  0  0  0  0  0  0
  131.8840  121.8510   62.2560 O   0  0  0  0  0  0  0  0  0  0  0  0
  133.8610  120.9420   61.5330 N   0  0  0  0  0  0  0  0  0  0  0  0
  133.3930  119.8360   60.8390 C   0  0  0  0  0  0  0  0  0  0  0  0
  133.6730  119.4810   59.6020 N   0  0  0  0  0  0  0  0  0  0  0  0
  133.0510  118.3690   59.2660 C   0  0  0  0  0  0  0  0  0  0  0  0
  132.2430  117.7940   60.2430 C   0  0  0  0  0  0  0  0  0  0  0  0
  132.3110  118.7720   61.6780 S   0  0  0  0  0  0  0  0  0  0  0  0
  133.8740  125.1840   65.1190 N   0  0  0  0  0  0  0  0  0  0  0  0
  1  2  1  0
  2  3  2  0
  3  4  1  0
  4  5  1  0
  4  6  2  0
  6  7  1  0
  7  8  3  0
  6  9  1  0
  9 10  1  0
 10 11  1  0
 11 12  1  0
 12 13  2  0
 12 14  1  0
 14 15  1  0
 15 16  2  0
 16 17  1  0
 17 18  2  0
 18 19  1  0
  9 20  2  0
 20  2  1  0
 19 15  1  0
M  END
>  <Binding energies>  (5) 
[-6.65]

>  <Ligand effiencies>  (5) 
[-0.3166666666666667]

>  <Interactions>  (5) 
["H-A:GLY:454:N:4049, V-A:HIS:456:CE1:4069, V-A:GLU:543:CD:4907, V-A:GLY:454:CA:4048, V-A:ARG:545:CZ:4925, V-A:GLY:453:CA:4043, V-A:ARG:545:CD:4922, V-A:ARG:545:CG:4921, V-B:TYR:539:CD2:9845, H-A:TYR:484:OH:4347, V-A:LEU:373:CD2:3280, V-A:SER:385:CB:3408, V-A:ILE:369:CG2:3236, V-A:SER:385:CA:3406, V-A:LEU:475:CD2:4258, V-A:LEU:373:CG:3278, H-A:SER:385:O:3405, V-A:GLY:453:C:4041, V-A:ILE:369:CD1:3238, V-A:SER:385:C:3404, V-A:HIS:383:CE1:3393, V-A:ILE:455:C:4051, V-A:GLY:454:C:4046"]

$$$$
1o_Grossjean_2025
     RDKit          3D

 26 27  0  0  0  0  0  0  0  0999 V2000
  125.5550  131.7300   64.5530 C   0  0  0  0  0  0  0  0  0  0  0  0
  124.4940  131.3110   65.3990 O   0  0  0  0  0  0  0  0  0  0  0  0
  124.1740  129.9970   65.5220 C   0  0  0  0  0  0  0  0  0  0  0  0
  123.3340  129.4320   64.8150 O   0  0  0  0  0  0  0  0  0  0  0  0
  124.9480  129.2960   66.6010 C   0  0  0  0  0  0  0  0  0  0  0  0
  124.3970  129.0480   67.8670 C   0  0  0  0  0  0  0  0  0  0  0  0
  125.1410  128.3930   68.8460 C   0  0  0  0  0  0  0  0  0  0  0  0
  126.4470  127.9780   68.5830 C   0  0  0  0  0  0  0  0  0  0  0  0
  127.1030  127.3170   69.6400 N   0  0  0  0  0  0  0  0  0  0  0  0
  128.2950  126.6790   69.6540 C   0  0  0  0  0  0  0  0  0  0  0  0
  129.0700  126.6020   68.7010 O   0  0  0  0  0  0  0  0  0  0  0  0
  128.6860  126.0400   70.9950 C   0  0  0  0  0  0  0  0  0  0  0  0
  127.7990  126.4960   72.1710 C   0  0  0  0  0  0  0  0  0  0  0  0
  128.7300  127.1490   73.5880 S   0  0  0  0  0  0  0  0  0  0  0  0
  129.7930  125.8600   74.2070 C   0  0  0  0  0  0  0  0  0  0  0  0
  129.2630  124.6170   74.0820 N   0  0  0  0  0  0  0  0  0  0  0  0
  129.9840  123.5550   74.5110 C   0  0  0  0  0  0  0  0  0  0  0  0
  129.3330  122.1970   74.3240 C   0  0  0  0  0  0  0  0  0  0  0  0
  131.2450  123.6870   75.0890 C   0  0  0  0  0  0  0  0  0  0  0  0
  131.7900  124.9650   75.2460 C   0  0  0  0  0  0  0  0  0  0  0  0
  133.1670  125.0850   75.8960 C   0  0  0  0  0  0  0  0  0  0  0  0
  131.0530  126.0900   74.8100 C   0  0  0  0  0  0  0  0  0  0  0  0
  131.5810  127.4400   75.0210 C   0  0  0  0  0  0  0  0  0  0  0  0
  132.0010  128.5050   75.1870 N   0  0  0  0  0  0  0  0  0  0  0  0
  127.0020  128.2170   67.3170 C   0  0  0  0  0  0  0  0  0  0  0  0
  126.2570  128.8720   66.3400 C   0  0  0  0  0  0  0  0  0  0  0  0
  1  2  1  0
  2  3  1  0
  3  4  2  0
  3  5  1  0
  5  6  2  0
  6  7  1  0
  7  8  2  0
  8  9  1  0
  9 10  1  0
 10 11  2  0
 10 12  1  0
 12 13  1  0
 13 14  1  0
 14 15  1  0
 15 16  2  0
 16 17  1  0
 17 18  1  0
 17 19  2  0
 19 20  1  0
 20 21  1  0
 20 22  2  0
 22 23  1  0
 23 24  3  0
  8 25  1  0
 25 26  2  0
 26  5  1  0
 22 15  1  0
M  END
>  <Binding energies>  (6) 
[-7.25]

>  <Ligand effiencies>  (6) 
[-0.26851851851851855]

>  <Interactions>  (6) 
["V-B:ARG:545:CG:9893, V-B:GLU:543:CB:9877, V-B:GLU:543:CD:9879, V-B:HIS:456:CE1:9040, H-B:ARG:545:NH2:9899, V-A:HIS:456:CE1:4069, V-B:LEU:475:CD1:9228, V-B:ARG:545:CZ:9897, H-B:TYR:484:OH:9318, V-B:ARG:545:CD:9894, H-B:GLY:454:N:9020, V-B:GLU:543:C:9873, V-B:GLY:544:C:9883, H-B:ARG:545:NH1:9898, H-B:ARG:545:NE:9895, V-B:ARG:545:CA:9890, V-B:ARG:545:CB:9892, V-B:GLY:454:CA:9019, H-A:LYS:547:NZ:4950, H-B:LYS:547:NZ:9922, V-A:HIS:456:CG:4065, V-A:TYR:484:CB:4340, V-A:HIS:456:CB:4064, H-B:HIS:456:NE2:9041"]

$$$$
1p_Grossjean_2025
     RDKit          3D

 21 22  0  0  0  0  0  0  0  0999 V2000
  128.1940  132.0230   64.9500 C   0  0  0  0  0  0  0  0  0  0  0  0
  127.6050  130.9440   65.8400 C   0  0  0  0  0  0  0  0  0  0  0  0
  126.3420  130.4090   65.5970 C   0  0  0  0  0  0  0  0  0  0  0  0
  125.8430  129.4260   66.4590 C   0  0  0  0  0  0  0  0  0  0  0  0
  124.4500  128.8640   66.1830 C   0  0  0  0  0  0  0  0  0  0  0  0
  126.6350  128.9940   67.5470 C   0  0  0  0  0  0  0  0  0  0  0  0
  126.1170  128.0020   68.4900 C   0  0  0  0  0  0  0  0  0  0  0  0
  125.7060  127.2170   69.2350 N   0  0  0  0  0  0  0  0  0  0  0  0
  127.9150  129.5770   67.7040 C   0  0  0  0  0  0  0  0  0  0  0  0
  129.0410  129.1430   69.0100 S   0  0  0  0  0  0  0  0  0  0  0  0
  130.3270  128.0950   68.2690 C   0  0  0  0  0  0  0  0  0  0  0  0
  129.9340  126.6090   68.1650 C   0  0  0  0  0  0  0  0  0  0  0  0
  130.6560  125.8610   67.0340 C   0  0  0  0  0  0  0  0  0  0  0  0
  130.2200  124.7740   66.6500 O   0  0  0  0  0  0  0  0  0  0  0  0
  131.7410  126.4830   66.5210 N   0  0  0  0  0  0  0  0  0  0  0  0
  132.5660  126.0290   65.5000 C   0  0  0  0  0  0  0  0  0  0  0  0
  132.1770  126.0060   64.1610 C   0  0  0  0  0  0  0  0  0  0  0  0
  133.2600  125.4970   63.4820 C   0  0  0  0  0  0  0  0  0  0  0  0
  134.2490  125.2260   64.3660 O   0  0  0  0  0  0  0  0  0  0  0  0
  133.7960  125.5660   65.6420 N   0  0  0  0  0  0  0  0  0  0  0  0
  128.3810  130.5450   66.8750 N   0  0  0  0  0  0  0  0  0  0  0  0
  1  2  1  0
  2  3  2  0
  3  4  1  0
  4  5  1  0
  4  6  2  0
  6  7  1  0
  7  8  3  0
  6  9  1  0
  9 10  1  0
 10 11  1  0
 11 12  1  0
 12 13  1  0
 13 14  2  0
 13 15  1  0
 15 16  1  0
 16 17  1  0
 17 18  2  0
 18 19  1  0
 19 20  1  0
  9 21  2  0
 21  2  1  0
 20 16  2  0
M  END
>  <Binding energies>  (7) 
[-7.49]

>  <Ligand effiencies>  (7) 
[-0.34045454545454545]

>  <Interactions>  (7) 
["V-B:ARG:545:CG:9893, V-A:GLU:543:CB:4905, V-B:GLU:543:CB:9877, V-A:GLU:543:CG:4906, V-B:GLU:543:CD:9879, V-B:HIS:456:CE1:9040, V-A:ALA:541:CB:4891, H-A:GLY:454:N:4049, V-A:HIS:456:CE1:4069, H-A:ARG:545:NH1:4926, V-A:GLU:543:CD:4907, V-B:ARG:545:CZ:9897, H-B:TYR:484:OH:9318, H-A:ARG:545:NH2:4927, V-B:ARG:545:CD:9894, V-B:TYR:484:CZ:9317, V-B:TYR:484:CE2:9316, V-A:TYR:484:CZ:4346, V-A:ARG:545:CZ:4925, V-A:ASP:366:CG:3212, H-A:ARG:545:NE:4923, H-A:TYR:484:OH:4347, H-B:ARG:545:N:9891, V-A:TYR:484:CE2:4345, H-A:GLU:543:OE1:4908"]

$$$$
2a_Ghoteimi_2023
     RDKit          3D

 48 53  0  0  0  0  0  0  0  0999 V2000
  123.6710  124.0590   58.7840 C   0  0  0  0  0  0  0  0  0  0  0  0
  124.7690  123.9510   57.7220 C   0  0  0  0  0  0  0  0  0  0  0  0
  126.0250  123.7590   58.3600 O   0  0  0  0  0  0  0  0  0  0  0  0
  126.9430  124.7580   58.4190 C   0  0  0  0  0  0  0  0  0  0  0  0
  128.0470  124.7000   57.8690 O   0  0  0  0  0  0  0  0  0  0  0  0
  126.4770  125.9440   59.2140 C   0  0  0  0  0  0  0  0  0  0  0  0
  126.4780  125.9450   60.6170 C   0  0  0  0  0  0  0  0  0  0  0  0
  126.0410  127.0610   61.3230 C   0  0  0  0  0  0  0  0  0  0  0  0
  125.6000  128.2000   60.6470 C   0  0  0  0  0  0  0  0  0  0  0  0
  125.1770  129.2690   61.4600 N   0  0  0  0  0  0  0  0  0  0  0  0
  124.2550  130.2260   61.2210 C   0  0  0  0  0  0  0  0  0  0  0  0
  123.6260  130.3570   60.1700 O   0  0  0  0  0  0  0  0  0  0  0  0
  124.0400  131.2250   62.3660 C   0  0  0  0  0  0  0  0  0  0  0  0
  123.7890  130.4580   63.9990 S   0  0  0  0  0  0  0  0  0  0  0  0
  125.4170  130.1020   64.6170 C   0  0  0  0  0  0  0  0  0  0  0  0
  126.4090  130.3690   63.7360 N   0  0  0  0  0  0  0  0  0  0  0  0
  127.6970  130.1300   64.0880 C   0  0  0  0  0  0  0  0  0  0  0  0
  128.7380  130.4410   63.0610 C   0  0  0  0  0  0  0  0  0  0  0  0
  129.1360  131.7590   62.8070 C   0  0  0  0  0  0  0  0  0  0  0  0
  130.0970  132.0430   61.8410 C   0  0  0  0  0  0  0  0  0  0  0  0
  130.7020  131.0200   61.0980 C   0  0  0  0  0  0  0  0  0  0  0  0
  131.6450  131.3230   60.1090 N   0  0  0  0  0  0  0  0  0  0  0  0
  131.2640  132.0420   58.8760 C   0  0  0  0  0  0  0  0  0  0  0  0
  132.4650  132.6030   58.0860 C   0  0  0  0  0  0  0  0  0  0  0  0
  133.3890  131.5640   57.8040 O   0  0  0  0  0  0  0  0  0  0  0  0
  133.8900  130.9800   58.9950 C   0  0  0  0  0  0  0  0  0  0  0  0
  132.7340  130.3690   59.8150 C   0  0  0  0  0  0  0  0  0  0  0  0
  130.2910  129.7010   61.3480 C   0  0  0  0  0  0  0  0  0  0  0  0
  129.3320  129.4170   62.3150 C   0  0  0  0  0  0  0  0  0  0  0  0
  128.0190  129.6250   65.3510 C   0  0  0  0  0  0  0  0  0  0  0  0
  127.0090  129.3400   66.2800 C   0  0  0  0  0  0  0  0  0  0  0  0
  127.4230  128.7960   67.6090 C   0  0  0  0  0  0  0  0  0  0  0  0
  128.5500  129.3090   68.2580 C   0  0  0  0  0  0  0  0  0  0  0  0
  128.9550  128.7960   69.4860 C   0  0  0  0  0  0  0  0  0  0  0  0
  128.2440  127.7560   70.1050 C   0  0  0  0  0  0  0  0  0  0  0  0
  128.6450  127.2140   71.3290 N   0  0  0  0  0  0  0  0  0  0  0  0
  127.7330  126.3040   72.0510 C   0  0  0  0  0  0  0  0  0  0  0  0
  128.4350  125.4880   73.1570 C   0  0  0  0  0  0  0  0  0  0  0  0
  129.0950  126.3610   74.0610 O   0  0  0  0  0  0  0  0  0  0  0  0
  130.0780  127.1480   73.4070 C   0  0  0  0  0  0  0  0  0  0  0  0
  129.4210  128.0050   72.3040 C   0  0  0  0  0  0  0  0  0  0  0  0
  127.1220  127.2390   69.4410 C   0  0  0  0  0  0  0  0  0  0  0  0
  126.7170  127.7510   68.2120 C   0  0  0  0  0  0  0  0  0  0  0  0
  125.6650  129.5890   65.9100 C   0  0  0  0  0  0  0  0  0  0  0  0
  124.5700  129.3640   66.8590 C   0  0  0  0  0  0  0  0  0  0  0  0
  123.7070  129.1850   67.6100 N   0  0  0  0  0  0  0  0  0  0  0  0
  125.5890  128.2040   59.2440 C   0  0  0  0  0  0  0  0  0  0  0  0
  126.0270  127.0870   58.5380 C   0  0  0  0  0  0  0  0  0  0  0  0
  1  2  1  0
  2  3  1  0
  3  4  1  0
  4  5  2  0
  4  6  1  0
  6  7  2  0
  7  8  1  0
  8  9  2  0
  9 10  1  0
 10 11  1  0
 11 12  2  0
 11 13  1  0
 13 14  1  0
 14 15  1  0
 15 16  2  0
 16 17  1  0
 17 18  1  0
 18 19  2  0
 19 20  1  0
 20 21  2  0
 21 22  1  0
 22 23  1  0
 23 24  1  0
 24 25  1  0
 25 26  1  0
 26 27  1  0
 21 28  1  0
 28 29  2  0
 17 30  2  0
 30 31  1  0
 31 32  1  0
 32 33  2  0
 33 34  1  0
 34 35  2  0
 35 36  1  0
 36 37  1  0
 37 38  1  0
 38 39  1  0
 39 40  1  0
 40 41  1  0
 35 42  1  0
 42 43  2  0
 31 44  2  0
 44 45  1  0
 45 46  3  0
  9 47  1  0
 47 48  2  0
 48  6  1  0
 44 15  1  0
 29 18  1  0
 43 32  1  0
 27 22  1  0
 41 36  1  0
M  END
>  <Binding energies>  (8) 
[-9.56]

>  <Ligand effiencies>  (8) 
[-0.19510204081632654]

>  <Interactions>  (8) 
["V-B:ARG:545:CG:9893, V-A:GLU:543:CB:4905, V-B:GLU:543:CB:9877, V-A:GLU:543:CG:4906, V-B:GLU:543:CD:9879, V-B:HIS:456:CE1:9040, V-A:HIS:456:CE1:4069, V-A:GLU:543:CD:4907, H-B:TYR:484:OH:9318, V-B:ARG:545:CD:9894, H-B:GLY:454:N:9020, V-B:ASP:366:CG:8183, V-B:TYR:484:CE2:9316, V-B:PRO:540:CB:9856, V-A:ASP:366:CG:3212, V-B:GLU:543:C:9873, V-B:GLY:544:C:9883, V-A:ASN:362:C:3171, H-B:ARG:545:NE:9895, V-A:PRO:540:CB:4884, V-A:PRO:540:CA:4882, V-B:ASP:366:CB:8182, V-B:TYR:531:CE2:9764, V-B:LEU:363:CD1:8159, V-A:LEU:363:CA:3184, V-A:LEU:363:CD1:3188, V-A:PRO:540:N:4883, V-A:ASP:366:CB:3211, H-A:TYR:531:OH:4794, V-B:LYS:547:CE:9921, H-B:LYS:547:NZ:9922, V-B:LEU:363:CA:8155, V-B:LEU:363:CB:8157, V-A:LEU:363:C:3182"]

$$$$
2aa_Ghoteimi_2023
     RDKit          3D

 48 53  0  0  0  0  0  0  0  0999 V2000
  124.5650  123.4970   57.5970 C   0  0  0  0  0  0  0  0  0  0  0  0
  125.0960  124.8070   58.1890 C   0  0  0  0  0  0  0  0  0  0  0  0
  126.5040  124.8700   58.0050 O   0  0  0  0  0  0  0  0  0  0  0  0
  127.1970  126.0090   58.2660 C   0  0  0  0  0  0  0  0  0  0  0  0
  128.2500  126.3110   57.6940 O   0  0  0  0  0  0  0  0  0  0  0  0
  126.5470  126.8720   59.3080 C   0  0  0  0  0  0  0  0  0  0  0  0
  125.8190  128.0220   58.9680 C   0  0  0  0  0  0  0  0  0  0  0  0
  125.2240  128.8000   59.9570 C   0  0  0  0  0  0  0  0  0  0  0  0
  125.3500  128.4520   61.3030 C   0  0  0  0  0  0  0  0  0  0  0  0
  124.7060  129.3070   62.2190 N   0  0  0  0  0  0  0  0  0  0  0  0
  124.4380  130.6270   62.1280 C   0  0  0  0  0  0  0  0  0  0  0  0
  124.7040  131.3390   61.1570 O   0  0  0  0  0  0  0  0  0  0  0  0
  123.7260  131.2190   63.3510 C   0  0  0  0  0  0  0  0  0  0  0  0
  123.9800  130.4020   64.4990 O   0  0  0  0  0  0  0  0  0  0  0  0
  125.2850  130.1050   64.8670 C   0  0  0  0  0  0  0  0  0  0  0  0
  126.2760  130.3460   63.9640 N   0  0  0  0  0  0  0  0  0  0  0  0
  127.5630  130.0710   64.2930 C   0  0  0  0  0  0  0  0  0  0  0  0
  128.5970  130.3570   63.2500 C   0  0  0  0  0  0  0  0  0  0  0  0
  129.0940  129.3330   62.4380 C   0  0  0  0  0  0  0  0  0  0  0  0
  130.0510  129.5950   61.4610 C   0  0  0  0  0  0  0  0  0  0  0  0
  130.5370  130.8950   61.2510 C   0  0  0  0  0  0  0  0  0  0  0  0
  131.5080  131.1730   60.2820 N   0  0  0  0  0  0  0  0  0  0  0  0
  131.3280  132.2640   59.3020 C   0  0  0  0  0  0  0  0  0  0  0  0
  132.3060  132.1980   58.1100 C   0  0  0  0  0  0  0  0  0  0  0  0
  133.6430  132.1550   58.5810 O   0  0  0  0  0  0  0  0  0  0  0  0
  133.8710  131.0140   59.3930 C   0  0  0  0  0  0  0  0  0  0  0  0
  132.9400  131.0450   60.6230 C   0  0  0  0  0  0  0  0  0  0  0  0
  130.0510  131.9140   62.0820 C   0  0  0  0  0  0  0  0  0  0  0  0
  129.0960  131.6510   63.0600 C   0  0  0  0  0  0  0  0  0  0  0  0
  127.8900  129.5280   65.5400 C   0  0  0  0  0  0  0  0  0  0  0  0
  126.8890  129.2600   66.4820 C   0  0  0  0  0  0  0  0  0  0  0  0
  127.2960  128.6560   67.7870 C   0  0  0  0  0  0  0  0  0  0  0  0
  128.4630  129.0800   68.4270 C   0  0  0  0  0  0  0  0  0  0  0  0
  128.8590  128.5080   69.6330 C   0  0  0  0  0  0  0  0  0  0  0  0
  128.1060  127.4830   70.2260 C   0  0  0  0  0  0  0  0  0  0  0  0
  128.4820  126.8960   71.4380 N   0  0  0  0  0  0  0  0  0  0  0  0
  127.5470  126.0540   72.2070 C   0  0  0  0  0  0  0  0  0  0  0  0
  128.2350  125.2190   73.3080 C   0  0  0  0  0  0  0  0  0  0  0  0
  128.9760  126.0690   74.1700 O   0  0  0  0  0  0  0  0  0  0  0  0
  129.9810  126.7800   73.4650 C   0  0  0  0  0  0  0  0  0  0  0  0
  129.3400  127.6570   72.3690 C   0  0  0  0  0  0  0  0  0  0  0  0
  126.9330  127.0690   69.5800 C   0  0  0  0  0  0  0  0  0  0  0  0
  126.5370  127.6420   68.3760 C   0  0  0  0  0  0  0  0  0  0  0  0
  125.5520  129.5710   66.1410 C   0  0  0  0  0  0  0  0  0  0  0  0
  124.4470  129.3720   67.0810 C   0  0  0  0  0  0  0  0  0  0  0  0
  123.5740  129.2140   67.8250 N   0  0  0  0  0  0  0  0  0  0  0  0
  126.0710  127.3000   61.6500 C   0  0  0  0  0  0  0  0  0  0  0  0
  126.6620  126.5210   60.6590 C   0  0  0  0  0  0  0  0  0  0  0  0
  1  2  1  0
  2  3  1  0
  3  4  1  0
  4  5  2  0
  4  6  1  0
  6  7  2  0
  7  8  1  0
  8  9  2  0
  9 10  1  0
 10 11  1  0
 11 12  2  0
 11 13  1  0
 13 14  1  0
 14 15  1  0
 15 16  2  0
 16 17  1  0
 17 18  1  0
 18 19  2  0
 19 20  1  0
 20 21  2  0
 21 22  1  0
 22 23  1  0
 23 24  1  0
 24 25  1  0
 25 26  1  0
 26 27  1  0
 21 28  1  0
 28 29  2  0
 17 30  2  0
 30 31  1  0
 31 32  1  0
 32 33  2  0
 33 34  1  0
 34 35  2  0
 35 36  1  0
 36 37  1  0
 37 38  1  0
 38 39  1  0
 39 40  1  0
 40 41  1  0
 35 42  1  0
 42 43  2  0
 31 44  2  0
 44 45  1  0
 45 46  3  0
  9 47  1  0
 47 48  2  0
 48  6  1  0
 44 15  1  0
 29 18  1  0
 43 32  1  0
 27 22  1  0
 41 36  1  0
M  END
>  <Binding energies>  (9) 
[-9.5]

>  <Ligand effiencies>  (9) 
[-0.19387755102040816]

>  <Interactions>  (9) 
["V-B:ARG:545:CG:9893, V-A:GLU:543:CB:4905, V-B:GLU:543:CB:9877, V-A:GLU:543:CG:4906, V-B:GLU:543:CD:9879, V-B:HIS:456:CE1:9040, V-A:HIS:456:CE1:4069, V-A:GLU:543:CD:4907, H-B:TYR:484:OH:9318, V-B:ARG:545:CD:9894, H-B:GLY:454:N:9020, H-B:ASP:366:OD2:8185, H-B:ASP:366:OD1:8184, V-B:ASP:366:CG:8183, V-B:PRO:540:CB:9856, V-A:ASP:366:CG:3212, V-B:GLU:543:C:9873, V-B:GLY:544:C:9883, V-A:ASN:362:C:3171, H-B:ARG:545:NE:9895, V-A:PRO:540:CB:4884, V-A:PRO:540:CA:4882, V-B:ASP:366:CB:8182, V-B:TYR:531:CE2:9764, V-B:LEU:363:CD1:8159, H-B:TYR:531:OH:9766, V-A:LEU:363:CA:3184, V-A:PRO:540:N:4883, V-B:GLY:454:CA:9019, V-A:ASP:366:CB:3211, V-B:GLY:544:CA:9885, V-B:LYS:547:CE:9921, H-B:LYS:547:NZ:9922"]

$$$$
2b_Ghoteimi_2023
     RDKit          3D

 42 47  0  0  0  0  0  0  0  0999 V2000
  123.7720  129.1600   67.5720 N   0  0  0  0  0  0  0  0  0  0  0  0
  124.6290  129.3660   66.8220 C   0  0  0  0  0  0  0  0  0  0  0  0
  125.7180  129.6240   65.8750 C   0  0  0  0  0  0  0  0  0  0  0  0
  127.0610  129.3420   66.2290 C   0  0  0  0  0  0  0  0  0  0  0  0
  127.4710  128.7760   67.5490 C   0  0  0  0  0  0  0  0  0  0  0  0
  128.5980  129.2710   68.2080 C   0  0  0  0  0  0  0  0  0  0  0  0
  128.9850  128.7470   69.4370 C   0  0  0  0  0  0  0  0  0  0  0  0
  128.2650  127.7000   70.0340 C   0  0  0  0  0  0  0  0  0  0  0  0
  128.6260  127.1660   71.2730 N   0  0  0  0  0  0  0  0  0  0  0  0
  129.3650  128.0120   72.2320 C   0  0  0  0  0  0  0  0  0  0  0  0
  130.0230  127.2090   73.3740 C   0  0  0  0  0  0  0  0  0  0  0  0
  129.0500  126.4140   74.0360 O   0  0  0  0  0  0  0  0  0  0  0  0
  128.4340  125.4930   73.1500 C   0  0  0  0  0  0  0  0  0  0  0  0
  127.7280  126.2550   72.0090 C   0  0  0  0  0  0  0  0  0  0  0  0
  127.1370  127.2080   69.3640 C   0  0  0  0  0  0  0  0  0  0  0  0
  126.7470  127.7350   68.1360 C   0  0  0  0  0  0  0  0  0  0  0  0
  128.0670  129.6010   65.2900 C   0  0  0  0  0  0  0  0  0  0  0  0
  127.7420  130.0950   64.0230 C   0  0  0  0  0  0  0  0  0  0  0  0
  128.7740  130.3590   62.9740 C   0  0  0  0  0  0  0  0  0  0  0  0
  129.4490  129.3010   62.3540 C   0  0  0  0  0  0  0  0  0  0  0  0
  130.3990  129.5390   61.3650 C   0  0  0  0  0  0  0  0  0  0  0  0
  130.7220  130.8470   60.9680 C   0  0  0  0  0  0  0  0  0  0  0  0
  131.6530  131.1000   59.9540 N   0  0  0  0  0  0  0  0  0  0  0  0
  131.5130  132.3050   59.1110 C   0  0  0  0  0  0  0  0  0  0  0  0
  132.3530  132.2540   57.8160 C   0  0  0  0  0  0  0  0  0  0  0  0
  133.7150  132.0080   58.1300 O   0  0  0  0  0  0  0  0  0  0  0  0
  133.8780  130.7670   58.7980 C   0  0  0  0  0  0  0  0  0  0  0  0
  133.0820  130.7710   60.1210 C   0  0  0  0  0  0  0  0  0  0  0  0
  130.0390  131.9030   61.5870 C   0  0  0  0  0  0  0  0  0  0  0  0
  129.0860  131.6640   62.5730 C   0  0  0  0  0  0  0  0  0  0  0  0
  126.4540  130.3630   63.6860 N   0  0  0  0  0  0  0  0  0  0  0  0
  125.4680  130.1520   64.5890 C   0  0  0  0  0  0  0  0  0  0  0  0
  123.8460  130.5610   63.9810 S   0  0  0  0  0  0  0  0  0  0  0  0
  124.0410  131.2170   62.2960 C   0  0  0  0  0  0  0  0  0  0  0  0
  124.4750  132.6830   62.2960 C   0  0  0  0  0  0  0  0  0  0  0  0
  123.6160  133.5670   62.2680 O   0  0  0  0  0  0  0  0  0  0  0  0
  125.8080  132.8950   62.3230 N   0  0  0  0  0  0  0  0  0  0  0  0
  126.4670  134.1170   62.3400 C   0  0  0  0  0  0  0  0  0  0  0  0
  126.3140  135.0770   61.3410 C   0  0  0  0  0  0  0  0  0  0  0  0
  127.1210  136.1230   61.7230 C   0  0  0  0  0  0  0  0  0  0  0  0
  127.7280  135.8090   62.8920 O   0  0  0  0  0  0  0  0  0  0  0  0
  127.3030  134.5350   63.2750 N   0  0  0  0  0  0  0  0  0  0  0  0
  1  2  3  0
  2  3  1  0
  3  4  2  0
  4  5  1  0
  5  6  2  0
  6  7  1  0
  7  8  2  0
  8  9  1  0
  9 10  1  0
 10 11  1  0
 11 12  1  0
 12 13  1  0
 13 14  1  0
  8 15  1  0
 15 16  2  0
  4 17  1  0
 17 18  2  0
 18 19  1  0
 19 20  2  0
 20 21  1  0
 21 22  2  0
 22 23  1  0
 23 24  1  0
 24 25  1  0
 25 26  1  0
 26 27  1  0
 27 28  1  0
 22 29  1  0
 29 30  2  0
 18 31  1  0
 31 32  2  0
 32 33  1  0
 33 34  1  0
 34 35  1  0
 35 36  2  0
 35 37  1  0
 37 38  1  0
 38 39  1  0
 39 40  2  0
 40 41  1  0
 41 42  1  0
 32  3  1  0
 42 38  2  0
 16  5  1  0
 30 19  1  0
 14  9  1  0
 28 23  1  0
M  END
>  <Binding energies>  (10) 
[-9.61]

>  <Ligand effiencies>  (10) 
[-0.22348837209302325]

>  <Interactions>  (10) 
["V-B:ARG:545:CG:9893, V-A:GLU:543:CB:4905, V-B:GLU:543:CB:9877, V-A:GLU:543:CG:4906, V-B:GLU:543:CD:9879, V-B:HIS:456:CE1:9040, V-A:HIS:456:CE1:4069, V-A:TYR:539:CD1:4872, V-A:GLU:543:CD:4907, V-B:LEU:475:CD1:9228, H-B:TYR:484:OH:9318, V-B:ARG:545:CD:9894, H-B:GLY:454:N:9020, V-A:ASP:366:CG:3212, V-B:GLU:543:C:9873, V-B:GLY:544:C:9883, V-A:ASN:362:C:3171, H-B:ARG:545:NE:9895, V-A:PRO:540:CB:4884, V-A:PRO:540:CA:4882, V-A:LEU:363:CA:3184, V-A:LEU:363:CD1:3188, V-A:PRO:540:N:4883, V-A:ASP:366:CB:3211, V-B:LYS:547:CE:9921, H-B:LYS:547:NZ:9922, V-A:LEU:363:C:3182"]

$$$$
2c_Ghoteimi_2023
     RDKit          3D

 42 47  0  0  0  0  0  0  0  0999 V2000
  123.3430  129.7890   67.0700 N   0  0  0  0  0  0  0  0  0  0  0  0
  124.2330  129.9410   66.3480 C   0  0  0  0  0  0  0  0  0  0  0  0
  125.3650  130.1300   65.4350 C   0  0  0  0  0  0  0  0  0  0  0  0
  126.6570  129.6610   65.7800 C   0  0  0  0  0  0  0  0  0  0  0  0
  126.9720  128.9590   67.0610 C   0  0  0  0  0  0  0  0  0  0  0  0
  128.1790  129.2040   67.7180 C   0  0  0  0  0  0  0  0  0  0  0  0
  128.4780  128.5580   68.9140 C   0  0  0  0  0  0  0  0  0  0  0  0
  127.5840  127.6350   69.4800 C   0  0  0  0  0  0  0  0  0  0  0  0
  127.8540  126.9900   70.6890 N   0  0  0  0  0  0  0  0  0  0  0  0
  126.7360  126.6420   71.5880 C   0  0  0  0  0  0  0  0  0  0  0  0
  127.1910  126.3010   73.0230 C   0  0  0  0  0  0  0  0  0  0  0  0
  128.1590  125.2630   72.9920 O   0  0  0  0  0  0  0  0  0  0  0  0
  129.3070  125.6380   72.2470 C   0  0  0  0  0  0  0  0  0  0  0  0
  128.9080  125.9620   70.7920 C   0  0  0  0  0  0  0  0  0  0  0  0
  126.3760  127.3930   68.8100 C   0  0  0  0  0  0  0  0  0  0  0  0
  126.0760  128.0410   67.6150 C   0  0  0  0  0  0  0  0  0  0  0  0
  127.7040  129.8630   64.8730 C   0  0  0  0  0  0  0  0  0  0  0  0
  127.4670  130.4900   63.6460 C   0  0  0  0  0  0  0  0  0  0  0  0
  128.5470  130.7130   62.6360 C   0  0  0  0  0  0  0  0  0  0  0  0
  129.0400  129.6520   61.8700 C   0  0  0  0  0  0  0  0  0  0  0  0
  130.0420  129.8550   60.9240 C   0  0  0  0  0  0  0  0  0  0  0  0
  130.5980  131.1280   60.7180 C   0  0  0  0  0  0  0  0  0  0  0  0
  131.5870  131.3540   59.7550 N   0  0  0  0  0  0  0  0  0  0  0  0
  131.5110  132.5480   58.8890 C   0  0  0  0  0  0  0  0  0  0  0  0
  132.4230  132.4700   57.6460 C   0  0  0  0  0  0  0  0  0  0  0  0
  133.7610  132.2170   58.0400 O   0  0  0  0  0  0  0  0  0  0  0  0
  133.8740  130.9860   58.7360 C   0  0  0  0  0  0  0  0  0  0  0  0
  133.0020  131.0150   60.0090 C   0  0  0  0  0  0  0  0  0  0  0  0
  130.0920  132.1910   61.4800 C   0  0  0  0  0  0  0  0  0  0  0  0
  129.0890  131.9870   62.4240 C   0  0  0  0  0  0  0  0  0  0  0  0
  126.2290  130.9370   63.3160 N   0  0  0  0  0  0  0  0  0  0  0  0
  125.2060  130.7810   64.1900 C   0  0  0  0  0  0  0  0  0  0  0  0
  123.6600  131.4340   63.6010 S   0  0  0  0  0  0  0  0  0  0  0  0
  123.8550  131.7810   61.8270 C   0  0  0  0  0  0  0  0  0  0  0  0
  124.2820  133.2270   61.5690 C   0  0  0  0  0  0  0  0  0  0  0  0
  123.4570  134.0320   61.1330 O   0  0  0  0  0  0  0  0  0  0  0  0
  125.5730  133.5120   61.8450 N   0  0  0  0  0  0  0  0  0  0  0  0
  126.1970  134.7440   61.7140 C   0  0  0  0  0  0  0  0  0  0  0  0
  125.9840  135.6640   60.7990 N   0  0  0  0  0  0  0  0  0  0  0  0
  126.7540  136.7170   60.9820 C   0  0  0  0  0  0  0  0  0  0  0  0
  127.6210  136.6640   62.0700 C   0  0  0  0  0  0  0  0  0  0  0  0
  127.4050  135.1480   62.8910 S   0  0  0  0  0  0  0  0  0  0  0  0
  1  2  3  0
  2  3  1  0
  3  4  2  0
  4  5  1  0
  5  6  2  0
  6  7  1  0
  7  8  2  0
  8  9  1  0
  9 10  1  0
 10 11  1  0
 11 12  1  0
 12 13  1  0
 13 14  1  0
  8 15  1  0
 15 16  2  0
  4 17  1  0
 17 18  2  0
 18 19  1  0
 19 20  2  0
 20 21  1  0
 21 22  2  0
 22 23  1  0
 23 24  1  0
 24 25  1  0
 25 26  1  0
 26 27  1  0
 27 28  1  0
 22 29  1  0
 29 30  2  0
 18 31  1  0
 31 32  2  0
 32 33  1  0
 33 34  1  0
 34 35  1  0
 35 36  2  0
 35 37  1  0
 37 38  1  0
 38 39  2  0
 39 40  1  0
 40 41  2  0
 41 42  1  0
 32  3  1  0
 42 38  1  0
 16  5  1  0
 30 19  1  0
 14  9  1  0
 28 23  1  0
M  END
>  <Binding energies>  (11) 
[-9.96]

>  <Ligand effiencies>  (11) 
[-0.2316279069767442]

>  <Interactions>  (11) 
["V-B:ARG:545:CG:9893, V-A:GLU:543:CB:4905, V-B:GLU:543:CB:9877, V-B:GLU:543:CD:9879, V-B:HIS:456:CE1:9040, V-B:SER:385:CB:8379, H-B:SER:385:OG:8380, V-A:ALA:541:CB:4891, V-A:HIS:456:CE1:4069, V-A:TYR:539:CD1:4872, V-B:LEU:475:CD1:9228, H-B:TYR:484:OH:9318, H-B:GLY:454:N:9020, V-B:ILE:369:CG2:8207, V-B:GLU:543:C:9873, V-B:GLY:544:C:9883, V-A:ASN:362:C:3171, H-B:ILE:455:N:9025, V-A:PRO:540:CB:4884, V-A:PRO:540:CA:4882, V-A:LEU:363:CA:3184, V-A:TYR:531:CE2:4792, V-A:LEU:363:CD1:3188, V-A:PRO:540:N:4883, V-B:GLY:454:CA:9019, V-A:ASP:366:CB:3211, V-B:GLY:544:CA:9885, V-B:LYS:547:CE:9921, H-B:LYS:547:NZ:9922, V-A:HIS:456:CD2:4067, V-A:TYR:539:CB:4870, V-A:LEU:363:C:3182, V-B:PRO:482:CB:9296"]

$$$$
2j_Grossjean_2025
     RDKit          3D

 23 24  0  0  0  0  0  0  0  0999 V2000
  124.1460  123.3520   63.1990 C   0  0  0  0  0  0  0  0  0  0  0  0
  125.2510  123.4180   62.1620 C   0  0  0  0  0  0  0  0  0  0  0  0
  124.9730  123.6270   60.8130 C   0  0  0  0  0  0  0  0  0  0  0  0
  126.0300  123.6830   59.8910 C   0  0  0  0  0  0  0  0  0  0  0  0
  125.7050  123.9160   58.4030 C   0  0  0  0  0  0  0  0  0  0  0  0
  126.2860  125.0390   57.9810 F   0  0  0  0  0  0  0  0  0  0  0  0
  126.1550  122.8950   57.6720 F   0  0  0  0  0  0  0  0  0  0  0  0
  124.3950  124.0280   58.1730 F   0  0  0  0  0  0  0  0  0  0  0  0
  127.3540  123.5220   60.3700 C   0  0  0  0  0  0  0  0  0  0  0  0
  128.4970  123.5710   59.4520 C   0  0  0  0  0  0  0  0  0  0  0  0
  129.3980  123.6110   58.7270 N   0  0  0  0  0  0  0  0  0  0  0  0
  127.5440  123.3130   61.7570 C   0  0  0  0  0  0  0  0  0  0  0  0
  129.1680  123.1000   62.4720 S   0  0  0  0  0  0  0  0  0  0  0  0
  129.6610  124.6710   63.2600 C   0  0  0  0  0  0  0  0  0  0  0  0
  130.6480  124.5260   64.4270 C   0  0  0  0  0  0  0  0  0  0  0  0
  130.6650  123.5030   65.1140 O   0  0  0  0  0  0  0  0  0  0  0  0
  131.4540  125.5940   64.6220 N   0  0  0  0  0  0  0  0  0  0  0  0
  132.4330  125.7270   65.5990 C   0  0  0  0  0  0  0  0  0  0  0  0
  133.7160  125.4580   65.4970 N   0  0  0  0  0  0  0  0  0  0  0  0
  134.3550  125.7050   66.6240 C   0  0  0  0  0  0  0  0  0  0  0  0
  133.5820  126.1870   67.6770 C   0  0  0  0  0  0  0  0  0  0  0  0
  131.9310  126.3200   67.1500 S   0  0  0  0  0  0  0  0  0  0  0  0
  126.5080  123.2640   62.6330 N   0  0  0  0  0  0  0  0  0  0  0  0
  1  2  1  0
  2  3  2  0
  3  4  1  0
  4  5  1  0
  5  6  1  0
  5  7  1  0
  5  8  1  0
  4  9  2  0
  9 10  1  0
 10 11  3  0
  9 12  1  0
 12 13  1  0
 13 14  1  0
 14 15  1  0
 15 16  2  0
 15 17  1  0
 17 18  1  0
 18 19  2  0
 19 20  1  0
 20 21  2  0
 21 22  1  0
 12 23  2  0
 23  2  1  0
 22 18  1  0
M  END
>  <Binding energies>  (12) 
[-6.23]

>  <Ligand effiencies>  (12) 
[-0.25958333333333333]

>  <Interactions>  (12) 
["H-A:GLY:454:N:4049, V-A:HIS:456:CE1:4069, V-A:GLY:454:CA:4048, V-B:ARG:545:CZ:9897, H-B:ALA:541:N:9862, V-B:PRO:540:CA:9854, V-A:ARG:545:CZ:4925, V-B:PRO:540:CB:9856, V-A:GLY:453:CA:4043, V-A:ARG:545:CD:4922, V-A:ARG:545:CG:4921, V-B:PRO:540:C:9852, V-B:TYR:539:CE2:9847, V-B:ASN:362:CG:8147, H-A:ARG:545:NE:4923, H-A:TYR:484:OH:4347, V-B:ASN:362:CB:8146, V-B:ALA:541:C:9859, V-B:LEU:363:CD1:8159, V-B:TYR:539:C:9838, V-B:PRO:540:N:9855, V-A:GLY:453:C:4041, H-A:GLU:543:OE1:4908, V-B:PRO:540:CD:9858"]

$$$$
3ab_Grossjean_2025
     RDKit          3D

 33 35  0  0  0  0  0  0  0  0999 V2000
  133.0910  132.2450   62.1050 C   0  0  0  0  0  0  0  0  0  0  0  0
  131.7250  132.6160   61.9790 O   0  0  0  0  0  0  0  0  0  0  0  0
  131.0790  132.5090   60.7900 C   0  0  0  0  0  0  0  0  0  0  0  0
  131.6580  132.3490   59.7120 O   0  0  0  0  0  0  0  0  0  0  0  0
  129.5860  132.6030   60.9170 C   0  0  0  0  0  0  0  0  0  0  0  0
  128.9620  132.9310   62.1300 C   0  0  0  0  0  0  0  0  0  0  0  0
  127.5750  133.0120   62.2180 C   0  0  0  0  0  0  0  0  0  0  0  0
  126.7830  132.7630   61.0860 C   0  0  0  0  0  0  0  0  0  0  0  0
  125.3760  132.8220   61.0580 N   0  0  0  0  0  0  0  0  0  0  0  0
  124.5150  133.3790   61.9340 C   0  0  0  0  0  0  0  0  0  0  0  0
  124.8270  133.9550   62.9770 O   0  0  0  0  0  0  0  0  0  0  0  0
  123.0340  133.2620   61.5640 C   0  0  0  0  0  0  0  0  0  0  0  0
  122.2560  131.7980   62.3110 S   0  0  0  0  0  0  0  0  0  0  0  0
  123.5510  130.6290   62.6690 C   0  0  0  0  0  0  0  0  0  0  0  0
  123.7100  130.3860   63.9920 N   0  0  0  0  0  0  0  0  0  0  0  0
  124.6590  129.5090   64.4090 C   0  0  0  0  0  0  0  0  0  0  0  0
  124.7690  129.2940   65.8890 C   0  0  0  0  0  0  0  0  0  0  0  0
  125.9530  128.7960   66.4570 C   0  0  0  0  0  0  0  0  0  0  0  0
  126.0610  128.5950   67.8310 C   0  0  0  0  0  0  0  0  0  0  0  0
  124.9820  128.8890   68.6580 C   0  0  0  0  0  0  0  0  0  0  0  0
  123.7960  129.3800   68.1210 C   0  0  0  0  0  0  0  0  0  0  0  0
  123.6930  129.5790   66.7470 C   0  0  0  0  0  0  0  0  0  0  0  0
  125.4940  128.8660   63.4880 C   0  0  0  0  0  0  0  0  0  0  0  0
  125.3620  129.1160   62.1140 C   0  0  0  0  0  0  0  0  0  0  0  0
  126.3050  128.3920   61.1340 C   0  0  0  0  0  0  0  0  0  0  0  0
  127.0030  127.4140   61.7150 F   0  0  0  0  0  0  0  0  0  0  0  0
  125.6030  127.8440   60.1410 F   0  0  0  0  0  0  0  0  0  0  0  0
  127.1780  129.2580   60.6190 F   0  0  0  0  0  0  0  0  0  0  0  0
  124.3680  130.0300   61.6840 C   0  0  0  0  0  0  0  0  0  0  0  0
  124.2250  130.3690   60.2660 C   0  0  0  0  0  0  0  0  0  0  0  0
  124.1150  130.6360   59.1450 N   0  0  0  0  0  0  0  0  0  0  0  0
  127.4000  132.4420   59.8770 C   0  0  0  0  0  0  0  0  0  0  0  0
  128.7870  132.3610   59.7920 C   0  0  0  0  0  0  0  0  0  0  0  0
  1  2  1  0
  2  3  1  0
  3  4  2  0
  3  5  1  0
  5  6  2  0
  6  7  1  0
  7  8  2  0
  8  9  1  0
  9 10  1  0
 10 11  2  0
 10 12  1  0
 12 13  1  0
 13 14  1  0
 14 15  2  0
 15 16  1  0
 16 17  1  0
 17 18  2  0
 18 19  1  0
 19 20  2  0
 20 21  1  0
 21 22  2  0
 16 23  2  0
 23 24  1  0
 24 25  1  0
 25 26  1  0
 25 27  1  0
 25 28  1  0
 24 29  2  0
 29 30  1  0
 30 31  3  0
  8 32  1  0
 32 33  2  0
 33  5  1  0
 29 14  1  0
 22 17  1  0
M  END
>  <Binding energies>  (13) 
[-7.11]

>  <Ligand effiencies>  (13) 
[-0.20911764705882355]

>  <Interactions>  (13) 
["V-B:ARG:545:CG:9893, V-B:GLU:543:CD:9879, V-B:HIS:456:CE1:9040, V-B:SER:385:CB:8379, V-A:ALA:541:CB:4891, V-A:TYR:539:CD1:4872, V-B:ARG:545:CZ:9897, V-B:ARG:545:CD:9894, H-B:GLY:454:N:9020, V-B:ILE:369:CG2:8207, V-B:ASP:366:CG:8183, V-B:ILE:369:CG1:8208, V-B:TYR:484:CZ:9317, V-A:PRO:540:C:4880, V-A:TYR:539:CE1:4874, V-A:ASN:362:CB:3175, V-A:PRO:540:CB:4884, V-A:PRO:540:CA:4882, H-A:ALA:541:N:4890, V-B:ASP:366:CB:8182, V-B:ARG:545:CB:9892, V-B:GLY:454:CA:9019, V-B:SER:385:C:8375, V-B:ILE:369:CB:8206, V-B:SER:385:CA:8377, V-B:ILE:455:C:9022"]

$$$$
3ac_Grossjean_2025
     RDKit          3D

 31 33  0  0  0  0  0  0  0  0999 V2000
  133.5370  125.8720   66.2230 C   0  0  0  0  0  0  0  0  0  0  0  0
  134.2290  125.5130   65.0300 O   0  0  0  0  0  0  0  0  0  0  0  0
  133.5040  125.1810   63.9020 C   0  0  0  0  0  0  0  0  0  0  0  0
  132.2160  125.7100   63.8130 C   0  0  0  0  0  0  0  0  0  0  0  0
  131.4120  125.4350   62.7110 C   0  0  0  0  0  0  0  0  0  0  0  0
  131.8830  124.6160   61.6830 C   0  0  0  0  0  0  0  0  0  0  0  0
  131.0060  124.4110   60.6020 N   0  0  0  0  0  0  0  0  0  0  0  0
  130.2880  125.3190   59.9050 C   0  0  0  0  0  0  0  0  0  0  0  0
  130.3170  126.5370   60.0820 O   0  0  0  0  0  0  0  0  0  0  0  0
  129.3830  124.7450   58.8140 C   0  0  0  0  0  0  0  0  0  0  0  0
  128.1960  123.5330   59.4710 S   0  0  0  0  0  0  0  0  0  0  0  0
  128.9260  122.7290   60.8860 C   0  0  0  0  0  0  0  0  0  0  0  0
  129.7020  121.6690   60.5550 N   0  0  0  0  0  0  0  0  0  0  0  0
  130.3300  120.9600   61.5280 C   0  0  0  0  0  0  0  0  0  0  0  0
  131.1650  119.7980   61.0780 C   0  0  0  0  0  0  0  0  0  0  0  0
  132.4820  119.9910   60.6280 C   0  0  0  0  0  0  0  0  0  0  0  0
  133.2630  118.9160   60.2150 C   0  0  0  0  0  0  0  0  0  0  0  0
  132.7360  117.6290   60.2420 C   0  0  0  0  0  0  0  0  0  0  0  0
  131.4340  117.4100   60.6780 C   0  0  0  0  0  0  0  0  0  0  0  0
  130.6550  118.4880   61.0900 C   0  0  0  0  0  0  0  0  0  0  0  0
  130.1720  121.2980   62.8750 C   0  0  0  0  0  0  0  0  0  0  0  0
  129.3560  122.3770   63.2470 C   0  0  0  0  0  0  0  0  0  0  0  0
  129.2060  122.7110   64.7440 C   0  0  0  0  0  0  0  0  0  0  0  0
  130.0060  121.9780   65.5210 F   0  0  0  0  0  0  0  0  0  0  0  0
  129.5050  123.9930   64.9630 F   0  0  0  0  0  0  0  0  0  0  0  0
  127.9500  122.4880   65.1340 F   0  0  0  0  0  0  0  0  0  0  0  0
  128.6980  123.1100   62.2280 C   0  0  0  0  0  0  0  0  0  0  0  0
  127.7760  124.1950   62.5710 C   0  0  0  0  0  0  0  0  0  0  0  0
  127.0460  125.0520   62.8420 N   0  0  0  0  0  0  0  0  0  0  0  0
  133.1800  124.0860   61.7620 C   0  0  0  0  0  0  0  0  0  0  0  0
  133.9820  124.3640   62.8660 C   0  0  0  0  0  0  0  0  0  0  0  0
  1  2  1  0
  2  3  1  0
  3  4  2  0
  4  5  1  0
  5  6  2  0
  6  7  1  0
  7  8  1  0
  8  9  2  0
  8 10  1  0
 10 11  1  0
 11 12  1  0
 12 13  2  0
 13 14  1  0
 14 15  1  0
 15 16  2  0
 16 17  1  0
 17 18  2  0
 18 19  1  0
 19 20  2  0
 14 21  2  0
 21 22  1  0
 22 23  1  0
 23 24  1  0
 23 25  1  0
 23 26  1  0
 22 27  2  0
 27 28  1  0
 28 29  3  0
  6 30  1  0
 30 31  2  0
 31  3  1  0
 27 12  1  0
 20 15  1  0
M  END
>  <Binding energies>  (14) 
[-7.03]

>  <Ligand effiencies>  (14) 
[-0.2196875]

>  <Interactions>  (14) 
["V-B:GLU:543:CB:9877, V-B:GLU:543:CD:9879, H-A:GLY:454:N:4049, H-A:ARG:545:NH1:4926, V-A:GLY:454:CA:4048, H-A:ARG:545:NH2:4927, V-A:TYR:484:CZ:4346, V-A:ARG:545:CZ:4925, V-B:ALA:541:CB:9863, V-A:ASP:366:CG:3212, V-A:ARG:545:CD:4922, V-A:ARG:545:CG:4921, V-B:TYR:539:CE2:9847, V-B:TYR:539:CD2:9845, H-A:ARG:545:NE:4923, H-A:TYR:484:OH:4347, V-B:ALA:541:C:9859, V-B:GLU:543:CG:9878, V-B:ALA:541:CA:9861, V-A:SER:385:CB:3408, V-A:ILE:369:CG2:3236, V-A:SER:385:CA:3406, V-A:TYR:484:CE2:4345, V-A:LEU:475:CD2:4258, V-A:ILE:369:CD1:3238, V-A:LEU:475:CD1:4257, V-A:HIS:383:CE1:3393, V-A:LEU:475:CG:4256, V-A:VAL:384:C:3396"]

$$$$
3af_Grossjean_2025
     RDKit          3D

 29 31  0  0  0  0  0  0  0  0999 V2000
  125.2450  128.2160   69.2540 N   0  0  0  0  0  0  0  0  0  0  0  0
  126.3030  127.9680   68.8560 C   0  0  0  0  0  0  0  0  0  0  0  0
  127.6420  127.6550   68.3510 C   0  0  0  0  0  0  0  0  0  0  0  0
  128.1190  128.2440   67.1550 C   0  0  0  0  0  0  0  0  0  0  0  0
  127.2990  129.2690   66.3470 C   0  0  0  0  0  0  0  0  0  0  0  0
  125.9910  129.0010   66.3450 F   0  0  0  0  0  0  0  0  0  0  0  0
  127.4590  130.4880   66.8640 F   0  0  0  0  0  0  0  0  0  0  0  0
  127.7040  129.2800   65.0760 F   0  0  0  0  0  0  0  0  0  0  0  0
  129.3870  127.8710   66.6820 C   0  0  0  0  0  0  0  0  0  0  0  0
  130.1560  126.9360   67.3840 C   0  0  0  0  0  0  0  0  0  0  0  0
  131.5080  126.4890   66.9150 C   0  0  0  0  0  0  0  0  0  0  0  0
  132.6300  126.5950   67.7530 C   0  0  0  0  0  0  0  0  0  0  0  0
  133.8870  126.1790   67.3230 C   0  0  0  0  0  0  0  0  0  0  0  0
  134.0400  125.6480   66.0470 C   0  0  0  0  0  0  0  0  0  0  0  0
  132.9440  125.5290   65.1980 C   0  0  0  0  0  0  0  0  0  0  0  0
  131.6880  125.9460   65.6320 C   0  0  0  0  0  0  0  0  0  0  0  0
  129.6940  126.3720   68.5280 N   0  0  0  0  0  0  0  0  0  0  0  0
  128.4820  126.7330   69.0160 C   0  0  0  0  0  0  0  0  0  0  0  0
  128.0550  125.8990   70.5310 S   0  0  0  0  0  0  0  0  0  0  0  0
  129.1980  126.4650   71.8270 C   0  0  0  0  0  0  0  0  0  0  0  0
  129.3460  125.4340   72.9450 C   0  0  0  0  0  0  0  0  0  0  0  0
  129.3830  125.8190   74.1140 O   0  0  0  0  0  0  0  0  0  0  0  0
  129.4350  124.1490   72.5390 N   0  0  0  0  0  0  0  0  0  0  0  0
  129.5850  122.9740   73.3020 C   0  0  0  0  0  0  0  0  0  0  0  0
  128.5430  122.1210   73.7090 C   0  0  0  0  0  0  0  0  0  0  0  0
  128.8360  120.9860   74.4680 C   0  0  0  0  0  0  0  0  0  0  0  0
  130.1670  120.7310   74.8020 C   0  0  0  0  0  0  0  0  0  0  0  0
  131.1890  121.5360   74.4220 N   0  0  0  0  0  0  0  0  0  0  0  0
  130.8880  122.6350   73.6850 C   0  0  0  0  0  0  0  0  0  0  0  0
  1  2  3  0
  2  3  1  0
  3  4  2  0
  4  5  1  0
  5  6  1  0
  5  7  1  0
  5  8  1  0
  4  9  1  0
  9 10  2  0
 10 11  1  0
 11 12  2  0
 12 13  1  0
 13 14  2  0
 14 15  1  0
 15 16  2  0
 10 17  1  0
 17 18  2  0
 18 19  1  0
 19 20  1  0
 20 21  1  0
 21 22  2  0
 21 23  1  0
 23 24  1  0
 24 25  2  0
 25 26  1  0
 26 27  2  0
 27 28  1  0
 28 29  2  0
 18  3  1  0
 29 24  1  0
 16 11  1  0
M  END
>  <Binding energies>  (15) 
[-7.5]

>  <Ligand effiencies>  (15) 
[-0.25]

>  <Interactions>  (15) 
["V-B:ARG:545:CG:9893, V-B:GLU:543:CB:9877, V-A:GLU:543:CG:4906, V-B:GLU:543:CD:9879, V-B:HIS:456:CE1:9040, V-A:HIS:456:CE1:4069, V-A:GLU:543:CD:4907, V-A:GLY:454:CA:4048, V-B:TYR:484:CZ:9317, V-B:TYR:484:CE2:9316, V-A:ARG:545:CZ:4925, V-A:GLY:453:CA:4043, V-A:ARG:545:CD:4922, V-A:ARG:545:CG:4921, V-B:GLU:543:C:9873, V-A:GLY:453:C:4041, H-B:HIS:456:ND1:9037, H-A:HIS:456:NE2:4070, H-B:GLU:543:O:9874, H-B:LYS:547:NZ:9922, V-A:HIS:456:CG:4065, V-A:HIS:456:CD2:4067, V-A:ARG:545:CB:4920, V-A:TYR:484:CG:4341, V-A:TYR:484:CB:4340, V-A:TYR:484:CD2:4343"]

$$$$
3ag_Grossjean_2025
     RDKit          3D

 30 32  0  0  0  0  0  0  0  0999 V2000
  132.8540  124.3710   63.9760 N   0  0  0  0  0  0  0  0  0  0  0  0
  131.7420  124.2820   63.6660 C   0  0  0  0  0  0  0  0  0  0  0  0
  130.3340  124.1670   63.2760 C   0  0  0  0  0  0  0  0  0  0  0  0
  129.4450  123.3440   64.0100 C   0  0  0  0  0  0  0  0  0  0  0  0
  129.8740  122.5780   65.2770 C   0  0  0  0  0  0  0  0  0  0  0  0
  128.9340  121.7400   65.7180 F   0  0  0  0  0  0  0  0  0  0  0  0
  130.9670  121.8590   65.0230 F   0  0  0  0  0  0  0  0  0  0  0  0
  130.1390  123.4350   66.2640 F   0  0  0  0  0  0  0  0  0  0  0  0
  128.1190  123.2250   63.5650 C   0  0  0  0  0  0  0  0  0  0  0  0
  127.6970  123.8970   62.4130 C   0  0  0  0  0  0  0  0  0  0  0  0
  126.2950  123.8040   61.8920 C   0  0  0  0  0  0  0  0  0  0  0  0
  125.2380  123.4390   62.7400 C   0  0  0  0  0  0  0  0  0  0  0  0
  123.9330  123.3500   62.2630 C   0  0  0  0  0  0  0  0  0  0  0  0
  123.6670  123.6260   60.9250 C   0  0  0  0  0  0  0  0  0  0  0  0
  124.6980  123.9870   60.0630 C   0  0  0  0  0  0  0  0  0  0  0  0
  126.0010  124.0740   60.5440 C   0  0  0  0  0  0  0  0  0  0  0  0
  128.5500  124.6950   61.7190 N   0  0  0  0  0  0  0  0  0  0  0  0
  129.8290  124.8400   62.1420 C   0  0  0  0  0  0  0  0  0  0  0  0
  130.7980  125.9220   61.1140 S   0  0  0  0  0  0  0  0  0  0  0  0
  131.0450  125.0790   59.5220 C   0  0  0  0  0  0  0  0  0  0  0  0
  132.1670  124.0410   59.5860 C   0  0  0  0  0  0  0  0  0  0  0  0
  133.0870  124.0790   58.7670 O   0  0  0  0  0  0  0  0  0  0  0  0
  132.0790  123.1270   60.5680 N   0  0  0  0  0  0  0  0  0  0  0  0
  133.0550  122.0700   60.8330 C   0  0  0  0  0  0  0  0  0  0  0  0
  132.4510  120.6730   60.9250 C   0  0  0  0  0  0  0  0  0  0  0  0
  131.1570  120.5090   61.4250 C   0  0  0  0  0  0  0  0  0  0  0  0
  130.5900  119.2380   61.4830 C   0  0  0  0  0  0  0  0  0  0  0  0
  131.3160  118.1380   61.0310 C   0  0  0  0  0  0  0  0  0  0  0  0
  132.6010  118.2970   60.5170 C   0  0  0  0  0  0  0  0  0  0  0  0
  133.1680  119.5670   60.4590 C   0  0  0  0  0  0  0  0  0  0  0  0
  1  2  3  0
  2  3  1  0
  3  4  2  0
  4  5  1  0
  5  6  1  0
  5  7  1  0
  5  8  1  0
  4  9  1  0
  9 10  2  0
 10 11  1  0
 11 12  2  0
 12 13  1  0
 13 14  2  0
 14 15  1  0
 15 16  2  0
 10 17  1  0
 17 18  2  0
 18 19  1  0
 19 20  1  0
 20 21  1  0
 21 22  2  0
 21 23  1  0
 23 24  1  0
 24 25  1  0
 25 26  2  0
 26 27  1  0
 27 28  2  0
 28 29  1  0
 29 30  2  0
 18  3  1  0
 30 25  1  0
 16 11  1  0
M  END
>  <Binding energies>  (16) 
[-7.73]

>  <Ligand effiencies>  (16) 
[-0.24935483870967742]

>  <Interactions>  (16) 
["V-B:GLU:543:CD:9879, H-A:GLY:454:N:4049, V-B:ASP:366:CG:8183, V-A:TYR:484:CZ:4346, V-B:PRO:540:CA:9854, V-B:PRO:540:CB:9856, V-B:ALA:541:CB:9863, V-B:TYR:539:CE2:9847, V-B:TYR:539:CZ:9848, V-B:TYR:539:CD2:9845, H-A:TYR:484:OH:4347, V-B:ASN:362:CB:8146, V-B:ALA:541:C:9859, V-B:GLU:543:CG:9878, V-B:ALA:541:CA:9861, V-A:SER:385:CB:3408, V-A:ILE:369:CG2:3236, V-A:SER:385:CA:3406, V-A:TYR:484:CE2:4345, V-A:LEU:475:CD2:4258, V-A:ILE:369:CD1:3238, V-A:LEU:475:CD1:4257, H-B:TYR:539:OH:9849, V-A:LEU:475:CG:4256, V-B:LEU:363:CA:8155, V-B:ASN:362:C:8142"]

$$$$
3bc_Grossjean_2025
     RDKit          3D

 28 30  0  0  0  0  0  0  0  0999 V2000
  123.8880  129.6420   63.6100 C   0  0  0  0  0  0  0  0  0  0  0  0
  123.7920  130.2400   64.8980 O   0  0  0  0  0  0  0  0  0  0  0  0
  124.4970  129.6880   65.9510 C   0  0  0  0  0  0  0  0  0  0  0  0
  125.8370  129.3850   65.7100 C   0  0  0  0  0  0  0  0  0  0  0  0
  126.6290  128.8260   66.7090 C   0  0  0  0  0  0  0  0  0  0  0  0
  126.0850  128.5540   67.9660 C   0  0  0  0  0  0  0  0  0  0  0  0
  126.9650  128.0010   68.9160 N   0  0  0  0  0  0  0  0  0  0  0  0
  126.7210  127.0680   69.8610 C   0  0  0  0  0  0  0  0  0  0  0  0
  125.6400  126.4980   70.0220 O   0  0  0  0  0  0  0  0  0  0  0  0
  127.9300  126.7120   70.7370 C   0  0  0  0  0  0  0  0  0  0  0  0
  127.6250  126.7570   72.5360 S   0  0  0  0  0  0  0  0  0  0  0  0
  129.0670  126.1050   73.3480 C   0  0  0  0  0  0  0  0  0  0  0  0
  129.0120  124.7680   73.5680 N   0  0  0  0  0  0  0  0  0  0  0  0
  130.0490  124.1390   74.1790 C   0  0  0  0  0  0  0  0  0  0  0  0
  129.9010  122.6630   74.4030 C   0  0  0  0  0  0  0  0  0  0  0  0
  130.8860  121.9400   75.0910 C   0  0  0  0  0  0  0  0  0  0  0  0
  130.7550  120.5700   75.3040 C   0  0  0  0  0  0  0  0  0  0  0  0
  129.6320  119.9030   74.8260 C   0  0  0  0  0  0  0  0  0  0  0  0
  128.6410  120.5960   74.1380 C   0  0  0  0  0  0  0  0  0  0  0  0
  128.7770  121.9660   73.9280 C   0  0  0  0  0  0  0  0  0  0  0  0
  131.1810  124.8520   74.5890 C   0  0  0  0  0  0  0  0  0  0  0  0
  131.2630  126.2280   74.3500 C   0  0  0  0  0  0  0  0  0  0  0  0
  132.5250  126.9630   74.7990 C   0  0  0  0  0  0  0  0  0  0  0  0
  130.1920  126.8830   73.7050 C   0  0  0  0  0  0  0  0  0  0  0  0
  130.2780  128.3120   73.4000 C   0  0  0  0  0  0  0  0  0  0  0  0
  130.3480  129.4420   73.1610 N   0  0  0  0  0  0  0  0  0  0  0  0
  124.7420  128.8680   68.2210 C   0  0  0  0  0  0  0  0  0  0  0  0
  123.9540  129.4280   67.2180 C   0  0  0  0  0  0  0  0  0  0  0  0
  1  2  1  0
  2  3  1  0
  3  4  2  0
  4  5  1  0
  5  6  2  0
  6  7  1  0
  7  8  1  0
  8  9  2  0
  8 10  1  0
 10 11  1  0
 11 12  1  0
 12 13  2  0
 13 14  1  0
 14 15  1  0
 15 16  2  0
 16 17  1  0
 17 18  2  0
 18 19  1  0
 19 20  2  0
 14 21  2  0
 21 22  1  0
 22 23  1  0
 22 24  2  0
 24 25  1  0
 25 26  3  0
  6 27  1  0
 27 28  2  0
 28  3  1  0
 24 12  1  0
 20 15  1  0
M  END
>  <Binding energies>  (17) 
[-8.03]

>  <Ligand effiencies>  (17) 
[-0.2768965517241379]

>  <Interactions>  (17) 
["V-B:ARG:545:CG:9893, V-B:GLU:543:CB:9877, V-B:GLU:543:CD:9879, V-B:HIS:456:CE1:9040, V-A:HIS:456:CE1:4069, V-B:ARG:545:CZ:9897, V-B:ARG:545:CD:9894, H-B:GLY:454:N:9020, H-B:ARG:545:N:9891, V-B:ARG:545:CB:9892, H-A:LYS:547:NZ:4950, H-B:LYS:547:NZ:9922, V-A:HIS:456:CG:4065, V-A:HIS:456:CD2:4067, V-A:ASP:473:CB:4238, V-A:TYR:484:C:4336, V-A:TYR:484:CB:4340, V-A:ASP:473:CG:4239, V-A:HIS:456:CB:4064"]

$$$$
3bd_Grossjean_2025
     RDKit          3D

 26 28  0  0  0  0  0  0  0  0999 V2000
  134.6390  124.3220   62.5230 C   0  0  0  0  0  0  0  0  0  0  0  0
  133.3670  123.4980   62.7110 C   0  0  0  0  0  0  0  0  0  0  0  0
  133.2580  122.2830   62.0240 C   0  0  0  0  0  0  0  0  0  0  0  0
  132.1060  121.5000   62.1660 C   0  0  0  0  0  0  0  0  0  0  0  0
  131.9270  120.1880   61.4630 C   0  0  0  0  0  0  0  0  0  0  0  0
  130.7490  119.4410   61.6260 C   0  0  0  0  0  0  0  0  0  0  0  0
  130.5770  118.2210   60.9780 C   0  0  0  0  0  0  0  0  0  0  0  0
  131.5840  117.7290   60.1530 C   0  0  0  0  0  0  0  0  0  0  0  0
  132.7620  118.4480   59.9770 C   0  0  0  0  0  0  0  0  0  0  0  0
  132.9300  119.6670   60.6270 C   0  0  0  0  0  0  0  0  0  0  0  0
  131.0920  121.8970   62.9780 N   0  0  0  0  0  0  0  0  0  0  0  0
  131.1800  123.0720   63.6510 C   0  0  0  0  0  0  0  0  0  0  0  0
  129.7760  123.4850   64.6740 S   0  0  0  0  0  0  0  0  0  0  0  0
  128.3580  122.4990   64.1080 C   0  0  0  0  0  0  0  0  0  0  0  0
  127.9250  122.8770   62.6910 C   0  0  0  0  0  0  0  0  0  0  0  0
  126.7600  123.2220   62.4930 O   0  0  0  0  0  0  0  0  0  0  0  0
  128.8830  122.7860   61.7430 N   0  0  0  0  0  0  0  0  0  0  0  0
  128.8020  123.0870   60.3700 C   0  0  0  0  0  0  0  0  0  0  0  0
  129.7070  124.0400   59.8960 C   0  0  0  0  0  0  0  0  0  0  0  0
  129.6970  124.4090   58.5530 C   0  0  0  0  0  0  0  0  0  0  0  0
  128.7730  123.8330   57.6860 C   0  0  0  0  0  0  0  0  0  0  0  0
  127.8560  122.8920   58.1500 C   0  0  0  0  0  0  0  0  0  0  0  0
  127.8650  122.5200   59.4910 C   0  0  0  0  0  0  0  0  0  0  0  0
  132.3080  123.9140   63.5470 C   0  0  0  0  0  0  0  0  0  0  0  0
  132.3920  125.1800   64.2810 C   0  0  0  0  0  0  0  0  0  0  0  0
  132.4610  126.1790   64.8610 N   0  0  0  0  0  0  0  0  0  0  0  0
  1  2  1  0
  2  3  2  0
  3  4  1  0
  4  5  1  0
  5  6  2  0
  6  7  1  0
  7  8  2  0
  8  9  1  0
  9 10  2  0
  4 11  2  0
 11 12  1  0
 12 13  1  0
 13 14  1  0
 14 15  1  0
 15 16  2  0
 15 17  1  0
 17 18  1  0
 18 19  2  0
 19 20  1  0
 20 21  2  0
 21 22  1  0
 22 23  2  0
 12 24  2  0
 24 25  1  0
 25 26  3  0
 24  2  1  0
 10  5  1  0
 23 18  1  0
M  END
>  <Binding energies>  (18) 
[-7.89]

>  <Ligand effiencies>  (18) 
[-0.2922222222222222]

>  <Interactions>  (18) 
["V-B:GLU:543:CD:9879, H-A:ARG:545:NH2:4927, H-B:ALA:541:N:9862, V-B:PRO:540:CA:9854, V-A:GLY:453:CA:4043, V-B:ALA:541:CB:9863, V-A:ASP:366:CG:3212, V-B:TYR:539:CE2:9847, V-B:TYR:539:CZ:9848, V-B:TYR:539:CD2:9845, H-A:ARG:545:NE:4923, V-B:MET:535:CE:9806, V-B:ALA:541:C:9859, V-B:GLU:543:CG:9878, V-B:ALA:541:CA:9861, V-B:TYR:539:CB:9842, V-A:ILE:369:CG2:3236, V-A:SER:385:CA:3406, V-A:LEU:475:CD2:4258, V-B:TYR:539:C:9838, V-B:PRO:540:N:9855, V-A:GLY:453:C:4041, V-A:ILE:369:CD1:3238, V-A:HIS:383:CE1:3393"]

$$$$
3be_Grossjean_2025
     RDKit          3D

 27 29  0  0  0  0  0  0  0  0999 V2000
  134.7340  125.8390   67.3640 C   0  0  0  0  0  0  0  0  0  0  0  0
  133.5150  125.8720   66.4630 C   0  0  0  0  0  0  0  0  0  0  0  0
  132.2870  126.3620   66.9120 C   0  0  0  0  0  0  0  0  0  0  0  0
  131.2060  126.3590   66.0290 C   0  0  0  0  0  0  0  0  0  0  0  0
  131.3790  125.8710   64.7310 C   0  0  0  0  0  0  0  0  0  0  0  0
  132.6370  125.3980   64.3440 C   0  0  0  0  0  0  0  0  0  0  0  0
  132.7430  124.9100   63.0290 N   0  0  0  0  0  0  0  0  0  0  0  0
  133.8370  124.4490   62.3830 C   0  0  0  0  0  0  0  0  0  0  0  0
  134.9660  124.3890   62.8740 O   0  0  0  0  0  0  0  0  0  0  0  0
  133.5830  123.9820   60.9410 C   0  0  0  0  0  0  0  0  0  0  0  0
  132.7490  122.3660   60.7850 S   0  0  0  0  0  0  0  0  0  0  0  0
  131.0970  122.5320   61.4250 C   0  0  0  0  0  0  0  0  0  0  0  0
  130.1530  122.6760   60.4630 N   0  0  0  0  0  0  0  0  0  0  0  0
  128.8450  122.8090   60.8110 C   0  0  0  0  0  0  0  0  0  0  0  0
  127.8660  122.9780   59.6870 C   0  0  0  0  0  0  0  0  0  0  0  0
  128.1630  122.5030   58.3990 C   0  0  0  0  0  0  0  0  0  0  0  0
  127.2600  122.6580   57.3520 C   0  0  0  0  0  0  0  0  0  0  0  0
  126.0440  123.2940   57.5770 C   0  0  0  0  0  0  0  0  0  0  0  0
  125.7260  123.7750   58.8420 C   0  0  0  0  0  0  0  0  0  0  0  0
  126.6320  123.6190   59.8870 C   0  0  0  0  0  0  0  0  0  0  0  0
  128.4570  122.8040   62.1550 C   0  0  0  0  0  0  0  0  0  0  0  0
  129.4150  122.6320   63.1590 C   0  0  0  0  0  0  0  0  0  0  0  0
  128.9420  122.6160   64.6110 C   0  0  0  0  0  0  0  0  0  0  0  0
  130.7720  122.4800   62.8000 C   0  0  0  0  0  0  0  0  0  0  0  0
  131.7840  122.2440   63.8320 C   0  0  0  0  0  0  0  0  0  0  0  0
  132.5820  122.0580   64.6490 N   0  0  0  0  0  0  0  0  0  0  0  0
  133.6970  125.3950   65.2060 N   0  0  0  0  0  0  0  0  0  0  0  0
  1  2  1  0
  2  3  2  0
  3  4  1  0
  4  5  2  0
  5  6  1  0
  6  7  1  0
  7  8  1  0
  8  9  2  0
  8 10  1  0
 10 11  1  0
 11 12  1  0
 12 13  2  0
 13 14  1  0
 14 15  1  0
 15 16  2  0
 16 17  1  0
 17 18  2  0
 18 19  1  0
 19 20  2  0
 14 21  2  0
 21 22  1  0
 22 23  1  0
 22 24  2  0
 24 25  1  0
 25 26  3  0
  6 27  2  0
 27  2  1  0
 24 12  1  0
 20 15  1  0
M  END
>  <Binding energies>  (19) 
[-8.58]

>  <Ligand effiencies>  (19) 
[-0.30642857142857144]

>  <Interactions>  (19) 
["V-B:GLU:543:CD:9879, H-A:GLY:454:N:4049, V-A:HIS:456:CE1:4069, V-B:PRO:540:CA:9854, V-A:ARG:545:CZ:4925, V-B:PRO:540:CB:9856, V-B:ALA:541:CB:9863, V-A:ASP:366:CG:3212, V-A:ARG:545:CD:4922, V-A:ARG:545:CG:4921, V-B:TYR:539:CE2:9847, V-B:TYR:539:CZ:9848, V-B:TYR:539:CD2:9845, H-A:ARG:545:NE:4923, V-B:MET:535:CE:9806, H-A:TYR:484:OH:4347, V-B:TYR:539:CG:9843, V-B:GLU:543:CG:9878, V-A:LEU:475:CD2:4258, H-A:ASP:366:OD2:3214, V-B:TYR:539:C:9838, V-B:PRO:540:N:9855, V-A:ILE:369:CD1:3238, V-A:ILE:455:C:4051, V-A:ARG:545:CB:4920"]

$$$$
3bf_Grossjean_2025
     RDKit          3D

 26 28  0  0  0  0  0  0  0  0999 V2000
  122.9750  129.5950   67.3570 C   0  0  0  0  0  0  0  0  0  0  0  0
  124.4530  129.2410   67.2060 C   0  0  0  0  0  0  0  0  0  0  0  0
  125.0900  128.6030   68.2750 C   0  0  0  0  0  0  0  0  0  0  0  0
  126.4400  128.2470   68.1730 C   0  0  0  0  0  0  0  0  0  0  0  0
  127.1750  127.5420   69.2730 C   0  0  0  0  0  0  0  0  0  0  0  0
  128.5750  127.4550   69.2570 C   0  0  0  0  0  0  0  0  0  0  0  0
  129.2650  126.8010   70.2750 C   0  0  0  0  0  0  0  0  0  0  0  0
  128.5600  126.2250   71.3260 C   0  0  0  0  0  0  0  0  0  0  0  0
  127.1710  126.2970   71.3650 C   0  0  0  0  0  0  0  0  0  0  0  0
  126.4850  126.9500   70.3440 C   0  0  0  0  0  0  0  0  0  0  0  0
  127.1470  128.5130   67.0420 N   0  0  0  0  0  0  0  0  0  0  0  0
  126.5500  129.1530   66.0070 C   0  0  0  0  0  0  0  0  0  0  0  0
  127.6290  129.4220   64.6170 S   0  0  0  0  0  0  0  0  0  0  0  0
  128.2270  127.7970   64.0430 C   0  0  0  0  0  0  0  0  0  0  0  0
  129.7440  127.5810   64.1610 C   0  0  0  0  0  0  0  0  0  0  0  0
  130.5150  128.0700   63.3330 O   0  0  0  0  0  0  0  0  0  0  0  0
  130.1280  126.8590   65.2360 N   0  0  0  0  0  0  0  0  0  0  0  0
  131.4250  126.4760   65.6250 C   0  0  0  0  0  0  0  0  0  0  0  0
  131.7550  126.6230   66.9760 C   0  0  0  0  0  0  0  0  0  0  0  0
  133.0230  126.2490   67.4280 C   0  0  0  0  0  0  0  0  0  0  0  0
  133.9310  125.7280   66.5060 C   0  0  0  0  0  0  0  0  0  0  0  0
  133.6340  125.5640   65.1920 N   0  0  0  0  0  0  0  0  0  0  0  0
  132.3980  125.9320   64.7680 C   0  0  0  0  0  0  0  0  0  0  0  0
  125.1870  129.5240   66.0340 C   0  0  0  0  0  0  0  0  0  0  0  0
  124.5260  130.1460   64.8830 C   0  0  0  0  0  0  0  0  0  0  0  0
  124.0030  130.6390   63.9760 N   0  0  0  0  0  0  0  0  0  0  0  0
  1  2  1  0
  2  3  2  0
  3  4  1  0
  4  5  1  0
  5  6  2  0
  6  7  1  0
  7  8  2  0
  8  9  1  0
  9 10  2  0
  4 11  2  0
 11 12  1  0
 12 13  1  0
 13 14  1  0
 14 15  1  0
 15 16  2  0
 15 17  1  0
 17 18  1  0
 18 19  2  0
 19 20  1  0
 20 21  2  0
 21 22  1  0
 22 23  2  0
 12 24  2  0
 24 25  1  0
 25 26  3  0
 24  2  1  0
 10  5  1  0
 23 18  1  0
M  END
>  <Binding energies>  (20) 
[-8.43]

>  <Ligand effiencies>  (20) 
[-0.31222222222222223]

>  <Interactions>  (20) 
["V-B:ARG:545:CG:9893, V-B:GLU:543:CB:9877, V-B:GLU:543:CD:9879, V-B:HIS:456:CE1:9040, H-A:GLY:454:N:4049, V-A:HIS:456:CE1:4069, V-A:GLU:543:CD:4907, H-A:ARG:545:NH2:4927, V-B:ARG:545:CD:9894, H-B:GLY:454:N:9020, V-A:TYR:484:CZ:4346, V-A:ARG:545:CZ:4925, V-A:ARG:545:CD:4922, V-A:ARG:545:CG:4921, V-B:GLU:543:C:9873, V-B:GLY:544:C:9883, H-A:ARG:545:NE:4923, H-A:TYR:484:OH:4347, V-B:GLY:453:C:9012, V-B:GLY:453:CA:9014, V-B:ARG:545:CA:9890, V-B:ARG:545:CB:9892, V-B:GLY:454:CA:9019, H-B:GLU:543:OE2:9881, V-B:GLY:544:CA:9885, V-B:GLY:454:C:9017, V-B:ILE:455:C:9022"]

$$$$
3bg_Grossjean_2025
     RDKit          3D

 27 29  0  0  0  0  0  0  0  0999 V2000
  134.6630  124.3690   62.4760 C   0  0  0  0  0  0  0  0  0  0  0  0
  133.5370  123.3510   62.6530 C   0  0  0  0  0  0  0  0  0  0  0  0
  133.4920  122.2570   61.7830 C   0  0  0  0  0  0  0  0  0  0  0  0
  132.4810  121.2960   61.9150 C   0  0  0  0  0  0  0  0  0  0  0  0
  132.3820  120.0910   61.0210 C   0  0  0  0  0  0  0  0  0  0  0  0
  133.3230  119.8650   60.0030 C   0  0  0  0  0  0  0  0  0  0  0  0
  133.2450  118.7420   59.1850 C   0  0  0  0  0  0  0  0  0  0  0  0
  132.2180  117.8230   59.3700 C   0  0  0  0  0  0  0  0  0  0  0  0
  131.2660  118.0260   60.3620 C   0  0  0  0  0  0  0  0  0  0  0  0
  131.3470  119.1520   61.1760 C   0  0  0  0  0  0  0  0  0  0  0  0
  131.5470  121.4070   62.8970 N   0  0  0  0  0  0  0  0  0  0  0  0
  131.5780  122.4610   63.7520 C   0  0  0  0  0  0  0  0  0  0  0  0
  130.3170  122.4700   65.0170 S   0  0  0  0  0  0  0  0  0  0  0  0
  128.9600  123.5530   64.4630 C   0  0  0  0  0  0  0  0  0  0  0  0
  128.2550  122.9960   63.2230 C   0  0  0  0  0  0  0  0  0  0  0  0
  127.0290  122.8770   63.2150 O   0  0  0  0  0  0  0  0  0  0  0  0
  129.0450  122.6370   62.1960 N   0  0  0  0  0  0  0  0  0  0  0  0
  128.6070  121.9200   60.9980 C   0  0  0  0  0  0  0  0  0  0  0  0
  128.7150  122.7860   59.7490 C   0  0  0  0  0  0  0  0  0  0  0  0
  127.8620  122.5590   58.6630 C   0  0  0  0  0  0  0  0  0  0  0  0
  127.9660  123.3430   57.5190 C   0  0  0  0  0  0  0  0  0  0  0  0
  128.9160  124.3620   57.4660 C   0  0  0  0  0  0  0  0  0  0  0  0
  129.7560  124.6080   58.5500 C   0  0  0  0  0  0  0  0  0  0  0  0
  129.6510  123.8220   59.6950 C   0  0  0  0  0  0  0  0  0  0  0  0
  132.5590  123.4710   63.6620 C   0  0  0  0  0  0  0  0  0  0  0  0
  132.5840  124.6020   64.5930 C   0  0  0  0  0  0  0  0  0  0  0  0
  132.6050  125.4960   65.3270 N   0  0  0  0  0  0  0  0  0  0  0  0
  1  2  1  0
  2  3  2  0
  3  4  1  0
  4  5  1  0
  5  6  2  0
  6  7  1  0
  7  8  2  0
  8  9  1  0
  9 10  2  0
  4 11  2  0
 11 12  1  0
 12 13  1  0
 13 14  1  0
 14 15  1  0
 15 16  2  0
 15 17  1  0
 17 18  1  0
 18 19  1  0
 19 20  2  0
 20 21  1  0
 21 22  2  0
 22 23  1  0
 23 24  2  0
 12 25  2  0
 25 26  1  0
 26 27  3  0
 25  2  1  0
 10  5  1  0
 24 19  1  0
M  END
>  <Binding energies>  (21) 
[-8.16]

>  <Ligand effiencies>  (21) 
[-0.2914285714285714]

>  <Interactions>  (21) 
["V-B:GLU:543:CD:9879, V-A:GLY:454:CA:4048, H-B:ALA:541:N:9862, V-B:PRO:540:CA:9854, V-A:GLY:453:CA:4043, V-B:ALA:541:CB:9863, V-A:ASP:366:CG:3212, V-B:PRO:540:C:9852, V-B:TYR:539:CE2:9847, V-B:TYR:539:CZ:9848, V-B:TYR:539:CD2:9845, V-B:MET:535:CE:9806, H-A:TYR:484:OH:4347, V-B:TYR:539:CG:9843, V-A:LEU:373:CD2:3280, V-B:GLU:543:CG:9878, V-B:ALA:541:CA:9861, V-B:TYR:539:CB:9842, V-A:ILE:369:CG2:3236, V-A:SER:385:CA:3406, V-A:LEU:475:CD2:4258, V-A:LEU:373:CG:3278, V-B:TYR:539:C:9838, V-B:PRO:540:N:9855, V-A:GLY:453:C:4041, V-A:ILE:369:CD1:3238"]

$$$$
3ca_Grossjean_2025
     RDKit          3D

 31 33  0  0  0  0  0  0  0  0999 V2000
  123.3830  130.6720   63.2410 C   0  0  0  0  0  0  0  0  0  0  0  0
  123.7500  129.6440   64.3140 C   0  0  0  0  0  0  0  0  0  0  0  0
  124.0740  130.3170   65.5250 O   0  0  0  0  0  0  0  0  0  0  0  0
  124.3310  129.6270   66.6640 C   0  0  0  0  0  0  0  0  0  0  0  0
  123.4860  129.4230   67.5420 O   0  0  0  0  0  0  0  0  0  0  0  0
  125.7450  129.1290   66.7510 C   0  0  0  0  0  0  0  0  0  0  0  0
  126.5780  129.2350   65.6300 C   0  0  0  0  0  0  0  0  0  0  0  0
  127.8930  128.7830   65.6780 C   0  0  0  0  0  0  0  0  0  0  0  0
  128.4010  128.2090   66.8450 C   0  0  0  0  0  0  0  0  0  0  0  0
  129.7430  127.7860   66.7870 N   0  0  0  0  0  0  0  0  0  0  0  0
  130.3200  126.6770   67.2980 C   0  0  0  0  0  0  0  0  0  0  0  0
  129.7340  125.7900   67.9190 O   0  0  0  0  0  0  0  0  0  0  0  0
  131.8240  126.5440   67.0400 C   0  0  0  0  0  0  0  0  0  0  0  0
  132.2250  126.1820   65.2980 S   0  0  0  0  0  0  0  0  0  0  0  0
  131.6130  124.5600   64.8590 C   0  0  0  0  0  0  0  0  0  0  0  0
  130.5690  124.1060   65.5970 N   0  0  0  0  0  0  0  0  0  0  0  0
  130.0420  122.8970   65.3080 C   0  0  0  0  0  0  0  0  0  0  0  0
  128.8670  122.4680   66.1650 C   0  0  0  0  0  0  0  0  0  0  0  0
  130.5380  122.0880   64.2880 C   0  0  0  0  0  0  0  0  0  0  0  0
  131.6270  122.5260   63.5240 C   0  0  0  0  0  0  0  0  0  0  0  0
  132.1330  121.6190   62.4500 C   0  0  0  0  0  0  0  0  0  0  0  0
  131.2370  120.8480   61.7000 C   0  0  0  0  0  0  0  0  0  0  0  0
  131.7000  119.9920   60.7040 C   0  0  0  0  0  0  0  0  0  0  0  0
  133.0670  119.9010   60.4560 C   0  0  0  0  0  0  0  0  0  0  0  0
  133.9740  120.6560   61.1980 C   0  0  0  0  0  0  0  0  0  0  0  0
  133.5060  121.5090   62.1940 C   0  0  0  0  0  0  0  0  0  0  0  0
  132.1790  123.8020   63.8060 C   0  0  0  0  0  0  0  0  0  0  0  0
  133.2860  124.3350   63.0060 C   0  0  0  0  0  0  0  0  0  0  0  0
  134.1600  124.7560   62.3740 N   0  0  0  0  0  0  0  0  0  0  0  0
  127.5760  128.1050   67.9760 C   0  0  0  0  0  0  0  0  0  0  0  0
  126.2610  128.5610   67.9250 C   0  0  0  0  0  0  0  0  0  0  0  0
  1  2  1  0
  2  3  1  0
  3  4  1  0
  4  5  2  0
  4  6  1  0
  6  7  2  0
  7  8  1  0
  8  9  2  0
  9 10  1  0
 10 11  1  0
 11 12  2  0
 11 13  1  0
 13 14  1  0
 14 15  1  0
 15 16  2  0
 16 17  1  0
 17 18  1  0
 17 19  2  0
 19 20  1  0
 20 21  1  0
 21 22  2  0
 22 23  1  0
 23 24  2  0
 24 25  1  0
 25 26  2  0
 20 27  2  0
 27 28  1  0
 28 29  3  0
  9 30  1  0
 30 31  2  0
 31  6  1  0
 27 15  1  0
 26 21  1  0
M  END
>  <Binding energies>  (22) 
[-8.38]

>  <Ligand effiencies>  (22) 
[-0.261875]

>  <Interactions>  (22) 
["V-B:ARG:545:CG:9893, V-B:GLU:543:CB:9877, V-B:GLU:543:CD:9879, V-B:HIS:456:CE1:9040, H-A:GLY:454:N:4049, V-A:HIS:456:CE1:4069, V-A:GLU:543:CD:4907, V-B:ARG:545:CZ:9897, H-B:TYR:484:OH:9318, H-A:ARG:545:NH2:4927, V-B:ARG:545:CD:9894, H-B:GLY:454:N:9020, V-A:TYR:484:CZ:4346, V-B:ALA:541:CB:9863, V-B:TYR:539:CE2:9847, V-B:TYR:539:CD2:9845, H-A:TYR:484:OH:4347, H-A:GLU:543:OE2:4909, H-B:ILE:455:N:9025, H-B:ARG:545:NE:9895, V-B:GLU:543:CG:9878, V-A:SER:385:CB:3408, V-A:ILE:369:CG2:3236, V-A:SER:385:CA:3406, V-B:GLY:453:C:9012, V-A:TYR:484:CE2:4345, V-A:LEU:475:CD2:4258, V-B:GLY:453:CA:9014, V-B:GLY:454:CA:9019, V-A:ILE:369:CD1:3238, V-A:SER:385:C:3404, V-B:GLU:543:CA:9875, V-A:LEU:475:CD1:4257, H-A:GLU:543:OE1:4908"]

$$$$
3ce_Grossjean_2025
     RDKit          3D

 27 29  0  0  0  0  0  0  0  0999 V2000
  129.9530  117.9850   61.4880 C   0  0  0  0  0  0  0  0  0  0  0  0
  131.2380  118.5470   60.9120 C   0  0  0  0  0  0  0  0  0  0  0  0
  131.9440  117.8780   59.9090 C   0  0  0  0  0  0  0  0  0  0  0  0
  133.1130  118.4590   59.4200 C   0  0  0  0  0  0  0  0  0  0  0  0
  133.5470  119.6820   59.9390 C   0  0  0  0  0  0  0  0  0  0  0  0
  132.7980  120.2930   60.9510 C   0  0  0  0  0  0  0  0  0  0  0  0
  133.2700  121.5300   61.4210 N   0  0  0  0  0  0  0  0  0  0  0  0
  133.7640  121.8260   62.6440 C   0  0  0  0  0  0  0  0  0  0  0  0
  133.8860  121.0220   63.5700 O   0  0  0  0  0  0  0  0  0  0  0  0
  134.2000  123.2760   62.8500 C   0  0  0  0  0  0  0  0  0  0  0  0
  132.7940  124.4250   62.7790 S   0  0  0  0  0  0  0  0  0  0  0  0
  132.6910  125.1620   64.3930 C   0  0  0  0  0  0  0  0  0  0  0  0
  133.8650  125.1740   65.0700 N   0  0  0  0  0  0  0  0  0  0  0  0
  133.8960  125.7300   66.3030 C   0  0  0  0  0  0  0  0  0  0  0  0
  135.2440  125.7220   66.9980 C   0  0  0  0  0  0  0  0  0  0  0  0
  132.7660  126.2760   66.9070 C   0  0  0  0  0  0  0  0  0  0  0  0
  131.5370  126.2500   66.2340 C   0  0  0  0  0  0  0  0  0  0  0  0
  130.3490  126.8240   66.9340 C   0  0  0  0  0  0  0  0  0  0  0  0
  129.6680  127.9160   66.3810 C   0  0  0  0  0  0  0  0  0  0  0  0
  128.5640  128.4610   67.0310 C   0  0  0  0  0  0  0  0  0  0  0  0
  128.1380  127.9210   68.2410 C   0  0  0  0  0  0  0  0  0  0  0  0
  128.8110  126.8410   68.8090 C   0  0  0  0  0  0  0  0  0  0  0  0
  129.9150  126.2980   68.1570 C   0  0  0  0  0  0  0  0  0  0  0  0
  131.4910  125.6810   64.9360 C   0  0  0  0  0  0  0  0  0  0  0  0
  130.2370  125.6390   64.1780 C   0  0  0  0  0  0  0  0  0  0  0  0
  129.2470  125.6060   63.5800 N   0  0  0  0  0  0  0  0  0  0  0  0
  131.6480  119.7340   61.4290 N   0  0  0  0  0  0  0  0  0  0  0  0
  1  2  1  0
  2  3  2  0
  3  4  1  0
  4  5  2  0
  5  6  1  0
  6  7  1  0
  7  8  1  0
  8  9  2  0
  8 10  1  0
 10 11  1  0
 11 12  1  0
 12 13  2  0
 13 14  1  0
 14 15  1  0
 14 16  2  0
 16 17  1  0
 17 18  1  0
 18 19  2  0
 19 20  1  0
 20 21  2  0
 21 22  1  0
 22 23  2  0
 17 24  2  0
 24 25  1  0
 25 26  3  0
  6 27  2  0
 27  2  1  0
 24 12  1  0
 23 18  1  0
M  END
>  <Binding energies>  (23) 
[-8.5]

>  <Ligand effiencies>  (23) 
[-0.30357142857142855]

>  <Interactions>  (23) 
["V-B:GLU:543:CB:9877, V-A:GLU:543:CG:4906, V-B:GLU:543:CD:9879, H-A:GLY:454:N:4049, V-A:HIS:456:CE1:4069, V-A:GLU:543:CD:4907, V-A:GLY:454:CA:4048, V-A:ARG:545:CZ:4925, V-A:GLY:453:CA:4043, V-B:ALA:541:CB:9863, V-A:ARG:545:CD:4922, V-A:ARG:545:CG:4921, V-B:TYR:539:CE2:9847, V-B:TYR:539:CD2:9845, H-A:TYR:484:OH:4347, V-A:PRO:482:CG:4326, V-A:PRO:482:CB:4325, V-A:LEU:373:CD2:3280, V-B:TYR:539:CB:9842, V-A:ILE:369:CG2:3236, V-A:SER:385:CA:3406, V-A:LEU:475:CD2:4258, V-B:TYR:539:C:9838, V-A:GLY:453:C:4041, V-A:ILE:369:CD1:3238, V-A:HIS:383:CE1:3393, V-A:ILE:455:C:4051, V-A:ARG:545:CB:4920, V-A:VAL:384:C:3396"]

$$$$
3cj_Grossjean_2025
     RDKit          3D

 25 27  0  0  0  0  0  0  0  0999 V2000
  130.6250  127.0450   67.7560 C   0  0  0  0  0  0  0  0  0  0  0  0
  129.1920  127.4860   67.9810 C   0  0  0  0  0  0  0  0  0  0  0  0
  128.5420  128.3330   67.0850 C   0  0  0  0  0  0  0  0  0  0  0  0
  127.2090  128.6970   67.3200 C   0  0  0  0  0  0  0  0  0  0  0  0
  126.5320  129.5520   66.3010 C   0  0  0  0  0  0  0  0  0  0  0  0
  127.1160  130.7530   65.8800 C   0  0  0  0  0  0  0  0  0  0  0  0
  126.4770  131.5560   64.9390 C   0  0  0  0  0  0  0  0  0  0  0  0
  125.2470  131.1630   64.4200 C   0  0  0  0  0  0  0  0  0  0  0  0
  124.6490  129.9770   64.8360 C   0  0  0  0  0  0  0  0  0  0  0  0
  125.2900  129.1750   65.7770 C   0  0  0  0  0  0  0  0  0  0  0  0
  126.5740  128.2130   68.4900 C   0  0  0  0  0  0  0  0  0  0  0  0
  125.1900  128.5820   68.8060 C   0  0  0  0  0  0  0  0  0  0  0  0
  124.0970  128.8730   69.0540 N   0  0  0  0  0  0  0  0  0  0  0  0
  127.3080  127.3560   69.3410 C   0  0  0  0  0  0  0  0  0  0  0  0
  126.5890  126.5720   70.7690 S   0  0  0  0  0  0  0  0  0  0  0  0
  127.9950  126.2440   71.8780 C   0  0  0  0  0  0  0  0  0  0  0  0
  127.7050  126.6890   73.3150 C   0  0  0  0  0  0  0  0  0  0  0  0
  128.5810  126.5780   74.1750 O   0  0  0  0  0  0  0  0  0  0  0  0
  126.4800  127.2210   73.5190 N   0  0  0  0  0  0  0  0  0  0  0  0
  126.0200  127.8170   74.6830 C   0  0  0  0  0  0  0  0  0  0  0  0
  126.7300  128.2780   75.6890 N   0  0  0  0  0  0  0  0  0  0  0  0
  125.9620  128.8090   76.6190 C   0  0  0  0  0  0  0  0  0  0  0  0
  124.5920  128.7850   76.3750 C   0  0  0  0  0  0  0  0  0  0  0  0
  124.3040  128.0210   74.8400 S   0  0  0  0  0  0  0  0  0  0  0  0
  128.5890  126.9920   69.0850 N   0  0  0  0  0  0  0  0  0  0  0  0
  1  2  1  0
  2  3  2  0
  3  4  1  0
  4  5  1  0
  5  6  2  0
  6  7  1  0
  7  8  2  0
  8  9  1  0
  9 10  2  0
  4 11  2  0
 11 12  1  0
 12 13  3  0
 11 14  1  0
 14 15  1  0
 15 16  1  0
 16 17  1  0
 17 18  2  0
 17 19  1  0
 19 20  1  0
 20 21  2  0
 21 22  1  0
 22 23  2  0
 23 24  1  0
 14 25  2  0
 25  2  1  0
 10  5  1  0
 24 20  1  0
M  END
>  <Binding energies>  (24) 
[-7.88]

>  <Ligand effiencies>  (24) 
[-0.3030769230769231]

>  <Interactions>  (24) 
["V-B:ARG:545:CG:9893, V-B:GLU:543:CB:9877, V-B:GLU:543:CD:9879, V-B:HIS:456:CE1:9040, V-A:HIS:456:CE1:4069, V-B:ARG:545:CZ:9897, H-B:TYR:484:OH:9318, V-B:TYR:484:CZ:9317, V-B:GLU:543:C:9873, V-B:GLY:544:C:9883, H-B:ARG:545:N:9891, V-B:ARG:545:CA:9890, V-B:ARG:545:CB:9892, H-B:HIS:456:ND1:9037, V-B:LYS:547:CE:9921, H-B:LYS:547:NZ:9922, H-B:GLY:544:O:9884, V-B:HIS:456:CG:9036, V-B:HIS:456:CD2:9038, V-B:HIS:456:CB:9035, V-B:LYS:547:CD:9920, H-B:HIS:456:NE2:9041, V-B:VAL:458:CG2:9057, V-B:HIS:456:CA:9033"]

$$$$
4ba_Grossjean_2025
     RDKit          3D

 28 30  0  0  0  0  0  0  0  0999 V2000
  130.7820  123.0700   74.1080 C   0  0  0  0  0  0  0  0  0  0  0  0
  129.6920  123.5150   73.1140 C   0  0  0  0  0  0  0  0  0  0  0  0
  129.1080  124.9200   73.3700 C   0  0  0  0  0  0  0  0  0  0  0  0
  129.2270  125.4330   74.4850 O   0  0  0  0  0  0  0  0  0  0  0  0
  128.4160  125.6060   72.2280 C   0  0  0  0  0  0  0  0  0  0  0  0
  129.0010  125.5840   70.9560 C   0  0  0  0  0  0  0  0  0  0  0  0
  128.3820  126.2140   69.8800 C   0  0  0  0  0  0  0  0  0  0  0  0
  127.1640  126.8740   70.0520 C   0  0  0  0  0  0  0  0  0  0  0  0
  126.6310  127.4830   68.9000 N   0  0  0  0  0  0  0  0  0  0  0  0
  125.4820  128.1830   68.7360 C   0  0  0  0  0  0  0  0  0  0  0  0
  124.6520  128.3690   69.6270 O   0  0  0  0  0  0  0  0  0  0  0  0
  125.2560  128.7070   67.3870 C   0  0  0  0  0  0  0  0  0  0  0  0
  123.6500  129.2510   66.9050 S   0  0  0  0  0  0  0  0  0  0  0  0
  124.2110  129.6260   65.2930 C   0  0  0  0  0  0  0  0  0  0  0  0
  123.3870  130.1170   64.3680 N   0  0  0  0  0  0  0  0  0  0  0  0
  123.9340  130.3670   63.1570 C   0  0  0  0  0  0  0  0  0  0  0  0
  122.9760  130.9170   62.1160 C   0  0  0  0  0  0  0  0  0  0  0  0
  125.2750  130.1450   62.8530 C   0  0  0  0  0  0  0  0  0  0  0  0
  126.1480  129.6280   63.8230 C   0  0  0  0  0  0  0  0  0  0  0  0
  127.6150  129.4020   63.4420 C   0  0  0  0  0  0  0  0  0  0  0  0
  128.0030  128.1330   63.5870 F   0  0  0  0  0  0  0  0  0  0  0  0
  127.8070  129.7350   62.1650 F   0  0  0  0  0  0  0  0  0  0  0  0
  128.4020  130.1510   64.2150 F   0  0  0  0  0  0  0  0  0  0  0  0
  125.6000  129.3470   65.1100 C   0  0  0  0  0  0  0  0  0  0  0  0
  126.1680  128.8130   66.3240 C   0  0  0  0  0  0  0  0  0  0  0  0
  127.4860  128.4460   66.4250 N   0  0  0  0  0  0  0  0  0  0  0  0
  126.5740  126.9060   71.3240 C   0  0  0  0  0  0  0  0  0  0  0  0
  127.1950  126.2760   72.3990 C   0  0  0  0  0  0  0  0  0  0  0  0
  1  2  1  0
  2  3  1  0
  3  4  2  0
  3  5  1  0
  5  6  2  0
  6  7  1  0
  7  8  2  0
  8  9  1  0
  9 10  1  0
 10 11  2  0
 10 12  1  0
 12 13  1  0
 13 14  1  0
 14 15  2  0
 15 16  1  0
 16 17  1  0
 16 18  2  0
 18 19  1  0
 19 20  1  0
 20 21  1  0
 20 22  1  0
 20 23  1  0
 19 24  2  0
 24 25  1  0
 25 26  1  0
  8 27  1  0
 27 28  2  0
 28  5  1  0
 25 12  2  0
 24 14  1  0
M  END
>  <Binding energies>  (25) 
[-7.53]

>  <Ligand effiencies>  (25) 
[-0.24290322580645163]

>  <Interactions>  (25) 
["V-B:ARG:545:CG:9893, V-B:GLU:543:CB:9877, V-A:GLU:543:CG:4906, V-B:GLU:543:CD:9879, V-B:HIS:456:CE1:9040, V-A:HIS:456:CE1:4069, V-A:GLU:543:CD:4907, V-B:ARG:545:CZ:9897, V-B:ARG:545:CD:9894, H-B:GLY:454:N:9020, V-B:ASP:366:CG:8183, V-B:GLU:543:C:9873, V-B:GLY:544:C:9883, H-B:ARG:545:NH1:9898, H-B:ARG:545:N:9891, H-B:GLU:543:OE2:9881, H-B:GLU:543:OE1:9880, H-B:HIS:456:ND1:9037, V-B:GLY:544:CA:9885, V-B:LYS:547:CE:9921, H-B:LYS:547:NZ:9922, V-A:HIS:456:CD2:4067, V-A:TYR:484:CD2:4343"]

$$$$
4bb_Grossjean_2025
     RDKit          3D

 27 29  0  0  0  0  0  0  0  0999 V2000
  129.6240  123.5680   73.1670 C   0  0  0  0  0  0  0  0  0  0  0  0
  129.0960  124.9870   73.3860 C   0  0  0  0  0  0  0  0  0  0  0  0
  129.2470  125.4970   74.4980 O   0  0  0  0  0  0  0  0  0  0  0  0
  128.4150  125.6760   72.2420 C   0  0  0  0  0  0  0  0  0  0  0  0
  129.0010  125.6410   70.9710 C   0  0  0  0  0  0  0  0  0  0  0  0
  128.3900  126.2730   69.8920 C   0  0  0  0  0  0  0  0  0  0  0  0
  127.1790  126.9460   70.0610 C   0  0  0  0  0  0  0  0  0  0  0  0
  126.6500  127.5520   68.9040 N   0  0  0  0  0  0  0  0  0  0  0  0
  125.4760  128.2060   68.7220 C   0  0  0  0  0  0  0  0  0  0  0  0
  124.6240  128.3530   69.5980 O   0  0  0  0  0  0  0  0  0  0  0  0
  125.2520  128.7220   67.3690 C   0  0  0  0  0  0  0  0  0  0  0  0
  123.6460  129.2530   66.8770 S   0  0  0  0  0  0  0  0  0  0  0  0
  124.2130  129.6320   65.2670 C   0  0  0  0  0  0  0  0  0  0  0  0
  123.3940  130.1230   64.3390 N   0  0  0  0  0  0  0  0  0  0  0  0
  123.9490  130.3760   63.1310 C   0  0  0  0  0  0  0  0  0  0  0  0
  122.9980  130.9370   62.0890 C   0  0  0  0  0  0  0  0  0  0  0  0
  125.2900  130.1520   62.8320 C   0  0  0  0  0  0  0  0  0  0  0  0
  126.1580  129.6350   63.8060 C   0  0  0  0  0  0  0  0  0  0  0  0
  127.6250  129.4040   63.4300 C   0  0  0  0  0  0  0  0  0  0  0  0
  128.4740  130.0980   64.1930 F   0  0  0  0  0  0  0  0  0  0  0  0
  127.9290  128.1130   63.5680 F   0  0  0  0  0  0  0  0  0  0  0  0
  127.8320  129.7730   62.1660 F   0  0  0  0  0  0  0  0  0  0  0  0
  125.6050  129.3560   65.0920 C   0  0  0  0  0  0  0  0  0  0  0  0
  126.1700  128.8320   66.3110 C   0  0  0  0  0  0  0  0  0  0  0  0
  127.4900  128.4800   66.4230 N   0  0  0  0  0  0  0  0  0  0  0  0
  126.5890  126.9920   71.3330 C   0  0  0  0  0  0  0  0  0  0  0  0
  127.2030  126.3600   72.4120 C   0  0  0  0  0  0  0  0  0  0  0  0
  1  2  1  0
  2  3  2  0
  2  4  1  0
  4  5  2  0
  5  6  1  0
  6  7  2  0
  7  8  1  0
  8  9  1  0
  9 10  2  0
  9 11  1  0
 11 12  1  0
 12 13  1  0
 13 14  2  0
 14 15  1  0
 15 16  1  0
 15 17  2  0
 17 18  1  0
 18 19  1  0
 19 20  1  0
 19 21  1  0
 19 22  1  0
 18 23  2  0
 23 24  1  0
 24 25  1  0
  7 26  1  0
 26 27  2  0
 27  4  1  0
 24 11  2  0
 23 13  1  0
M  END
>  <Binding energies>  (26) 
[-7.38]

>  <Ligand effiencies>  (26) 
[-0.246]

>  <Interactions>  (26) 
["V-B:ARG:545:CG:9893, V-B:GLU:543:CB:9877, V-A:GLU:543:CG:4906, V-B:GLU:543:CD:9879, V-B:HIS:456:CE1:9040, V-A:HIS:456:CE1:4069, V-A:GLU:543:CD:4907, V-B:ARG:545:CZ:9897, V-B:ARG:545:CD:9894, H-B:GLY:454:N:9020, V-B:ASP:366:CG:8183, V-B:GLU:543:C:9873, V-B:GLY:544:C:9883, H-B:ARG:545:NH1:9898, H-B:ARG:545:N:9891, H-B:GLU:543:OE2:9881, H-B:GLU:543:OE1:9880, H-B:HIS:456:ND1:9037, V-B:GLY:544:CA:9885, V-B:LYS:547:CE:9921, H-B:LYS:547:NZ:9922, V-A:HIS:456:CD2:4067, V-A:TYR:484:CD2:4343"]

$$$$
4bd_Grossjean_2025
     RDKit          3D

 24 26  0  0  0  0  0  0  0  0999 V2000
  122.5730  130.7630   61.7030 C   0  0  0  0  0  0  0  0  0  0  0  0
  123.5830  130.2530   62.7150 C   0  0  0  0  0  0  0  0  0  0  0  0
  124.8910  129.9610   62.3400 C   0  0  0  0  0  0  0  0  0  0  0  0
  125.8140  129.4870   63.2860 C   0  0  0  0  0  0  0  0  0  0  0  0
  127.2420  129.1760   62.8250 C   0  0  0  0  0  0  0  0  0  0  0  0
  127.4270  129.3880   61.5200 F   0  0  0  0  0  0  0  0  0  0  0  0
  128.1070  129.9490   63.4820 F   0  0  0  0  0  0  0  0  0  0  0  0
  127.5250  127.8960   63.0650 F   0  0  0  0  0  0  0  0  0  0  0  0
  125.3500  129.3250   64.6250 C   0  0  0  0  0  0  0  0  0  0  0  0
  125.9890  128.8740   65.8380 C   0  0  0  0  0  0  0  0  0  0  0  0
  127.3050  128.4940   65.8820 N   0  0  0  0  0  0  0  0  0  0  0  0
  125.1440  128.8600   66.9610 C   0  0  0  0  0  0  0  0  0  0  0  0
  125.4560  128.4470   68.3330 C   0  0  0  0  0  0  0  0  0  0  0  0
  124.6680  128.6760   69.2510 O   0  0  0  0  0  0  0  0  0  0  0  0
  126.6390  127.8030   68.4910 N   0  0  0  0  0  0  0  0  0  0  0  0
  127.2440  127.3210   69.6670 C   0  0  0  0  0  0  0  0  0  0  0  0
  128.6080  127.5940   69.8090 C   0  0  0  0  0  0  0  0  0  0  0  0
  129.2950  127.1680   70.9420 C   0  0  0  0  0  0  0  0  0  0  0  0
  128.6160  126.4750   71.9410 C   0  0  0  0  0  0  0  0  0  0  0  0
  127.2550  126.2080   71.8170 C   0  0  0  0  0  0  0  0  0  0  0  0
  126.5640  126.6320   70.6850 C   0  0  0  0  0  0  0  0  0  0  0  0
  123.5240  129.4140   66.5470 S   0  0  0  0  0  0  0  0  0  0  0  0
  123.9840  129.6580   64.8780 C   0  0  0  0  0  0  0  0  0  0  0  0
  123.1130  130.1090   63.9760 N   0  0  0  0  0  0  0  0  0  0  0  0
  1  2  1  0
  2  3  2  0
  3  4  1  0
  4  5  1  0
  5  6  1  0
  5  7  1  0
  5  8  1  0
  4  9  2  0
  9 10  1  0
 10 11  1  0
 10 12  2  0
 12 13  1  0
 13 14  2  0
 13 15  1  0
 15 16  1  0
 16 17  2  0
 17 18  1  0
 18 19  2  0
 19 20  1  0
 20 21  2  0
 12 22  1  0
 22 23  1  0
 23 24  2  0
 24  2  1  0
 23  9  1  0
 21 16  1  0
M  END
>  <Binding energies>  (27) 
[-6.25]

>  <Ligand effiencies>  (27) 
[-0.23148148148148148]

>  <Interactions>  (27) 
["V-B:ARG:545:CG:9893, V-B:GLU:543:CB:9877, V-B:GLU:543:CD:9879, V-B:HIS:456:CE1:9040, V-A:HIS:456:CE1:4069, V-B:ARG:545:CZ:9897, H-B:TYR:484:OH:9318, V-B:ARG:545:CD:9894, H-B:GLY:454:N:9020, V-B:ASP:366:CG:8183, V-B:ILE:369:CG1:8208, V-B:GLU:543:C:9873, V-B:GLY:544:C:9883, H-B:ARG:545:NH1:9898, V-B:GLY:453:C:9012, V-B:GLY:453:CA:9014, V-B:ARG:545:CA:9890, V-B:GLY:454:CA:9019, H-B:GLU:543:OE2:9881, V-B:ASP:366:CA:8180, H-B:GLU:543:OE1:9880, H-B:HIS:456:ND1:9037, V-B:GLY:544:CA:9885"]

$$$$
4be_Grossjean_2025
     RDKit          3D

 25 27  0  0  0  0  0  0  0  0999 V2000
  121.5700  131.4880   62.4740 C   0  0  0  0  0  0  0  0  0  0  0  0
  122.8790  130.7230   62.4230 C   0  0  0  0  0  0  0  0  0  0  0  0
  123.5430  130.4920   61.2160 C   0  0  0  0  0  0  0  0  0  0  0  0
  124.7420  129.7780   61.2450 C   0  0  0  0  0  0  0  0  0  0  0  0
  125.2420  129.3180   62.4650 C   0  0  0  0  0  0  0  0  0  0  0  0
  124.5290  129.5900   63.6380 C   0  0  0  0  0  0  0  0  0  0  0  0
  125.0820  129.0930   64.8320 N   0  0  0  0  0  0  0  0  0  0  0  0
  124.8870  129.5220   66.1040 C   0  0  0  0  0  0  0  0  0  0  0  0
  124.1480  130.4610   66.4060 O   0  0  0  0  0  0  0  0  0  0  0  0
  125.6430  128.8020   67.1330 C   0  0  0  0  0  0  0  0  0  0  0  0
  124.8950  128.4390   68.6880 S   0  0  0  0  0  0  0  0  0  0  0  0
  126.3590  127.6770   69.2640 C   0  0  0  0  0  0  0  0  0  0  0  0
  126.4330  127.1490   70.4850 N   0  0  0  0  0  0  0  0  0  0  0  0
  127.6180  126.5850   70.8170 C   0  0  0  0  0  0  0  0  0  0  0  0
  127.6830  125.9930   72.2130 C   0  0  0  0  0  0  0  0  0  0  0  0
  128.7170  126.5350   69.9650 C   0  0  0  0  0  0  0  0  0  0  0  0
  128.6450  127.0880   68.6770 C   0  0  0  0  0  0  0  0  0  0  0  0
  129.8800  127.0060   67.7740 C   0  0  0  0  0  0  0  0  0  0  0  0
  129.8070  127.8170   66.7150 F   0  0  0  0  0  0  0  0  0  0  0  0
  130.9670  127.3510   68.4630 F   0  0  0  0  0  0  0  0  0  0  0  0
  130.0240  125.7630   67.3170 F   0  0  0  0  0  0  0  0  0  0  0  0
  127.4110  127.6950   68.2960 C   0  0  0  0  0  0  0  0  0  0  0  0
  126.9730  128.3560   67.0910 C   0  0  0  0  0  0  0  0  0  0  0  0
  127.7870  128.5240   66.0010 N   0  0  0  0  0  0  0  0  0  0  0  0
  123.3530  130.2830   63.6170 N   0  0  0  0  0  0  0  0  0  0  0  0
  1  2  1  0
  2  3  2  0
  3  4  1  0
  4  5  2  0
  5  6  1  0
  6  7  1  0
  7  8  1  0
  8  9  2  0
  8 10  1  0
 10 11  1  0
 11 12  1  0
 12 13  2  0
 13 14  1  0
 14 15  1  0
 14 16  2  0
 16 17  1  0
 17 18  1  0
 18 19  1  0
 18 20  1  0
 18 21  1  0
 17 22  2  0
 22 23  1  0
 23 24  1  0
  6 25  2  0
 25  2  1  0
 23 10  2  0
 22 12  1  0
M  END
>  <Binding energies>  (28) 
[-6.89]

>  <Ligand effiencies>  (28) 
[-0.24607142857142855]

>  <Interactions>  (28) 
["V-B:ARG:545:CG:9893, V-B:GLU:543:CB:9877, V-A:GLU:543:CG:4906, V-B:GLU:543:CD:9879, V-B:HIS:456:CE1:9040, V-A:HIS:456:CE1:4069, V-A:GLU:543:CD:4907, V-B:ARG:545:CZ:9897, H-B:TYR:484:OH:9318, V-B:ARG:545:CD:9894, H-B:GLY:454:N:9020, V-B:ASP:366:CG:8183, V-B:ILE:369:CG1:8208, V-B:GLU:543:C:9873, V-B:GLY:544:C:9883, H-B:ARG:545:N:9891, V-B:ASP:366:CB:8182, V-B:GLY:453:C:9012, V-A:TYR:484:CE2:4345, V-B:GLY:453:CA:9014, V-B:ARG:545:CA:9890, V-B:ARG:545:CB:9892, H-B:GLU:543:OE2:9881, H-B:GLU:543:OE1:9880, H-B:HIS:456:ND1:9037, V-B:GLY:544:CA:9885"]

$$$$
4bg_Grossjean_2025
     RDKit          3D

 25 27  0  0  0  0  0  0  0  0999 V2000
  123.5570  124.4140   57.5260 C   0  0  0  0  0  0  0  0  0  0  0  0
  124.4990  124.0320   58.6530 C   0  0  0  0  0  0  0  0  0  0  0  0
  124.0600  123.9950   59.9740 C   0  0  0  0  0  0  0  0  0  0  0  0
  124.9440  123.6460   61.0080 C   0  0  0  0  0  0  0  0  0  0  0  0
  124.4150  123.6200   62.4460 C   0  0  0  0  0  0  0  0  0  0  0  0
  125.2480  124.1900   63.3190 F   0  0  0  0  0  0  0  0  0  0  0  0
  123.2570  124.2770   62.5120 F   0  0  0  0  0  0  0  0  0  0  0  0
  124.2290  122.3590   62.8360 F   0  0  0  0  0  0  0  0  0  0  0  0
  126.2860  123.3350   60.6400 C   0  0  0  0  0  0  0  0  0  0  0  0
  127.4490  122.9500   61.4030 C   0  0  0  0  0  0  0  0  0  0  0  0
  127.4320  122.8210   62.7690 N   0  0  0  0  0  0  0  0  0  0  0  0
  128.5910  122.7120   60.6230 C   0  0  0  0  0  0  0  0  0  0  0  0
  129.9350  122.3390   61.0650 C   0  0  0  0  0  0  0  0  0  0  0  0
  130.8070  123.1870   61.2570 O   0  0  0  0  0  0  0  0  0  0  0  0
  130.1410  121.0230   61.2820 N   0  0  0  0  0  0  0  0  0  0  0  0
  131.4030  120.4210   61.7100 C   0  0  0  0  0  0  0  0  0  0  0  0
  131.9510  119.3910   60.7310 C   0  0  0  0  0  0  0  0  0  0  0  0
  131.2570  118.1980   60.5080 C   0  0  0  0  0  0  0  0  0  0  0  0
  131.7400  117.2750   59.5840 C   0  0  0  0  0  0  0  0  0  0  0  0
  132.9070  117.5540   58.8750 C   0  0  0  0  0  0  0  0  0  0  0  0
  133.5940  118.7480   59.0790 C   0  0  0  0  0  0  0  0  0  0  0  0
  133.1120  119.6710   60.0050 C   0  0  0  0  0  0  0  0  0  0  0  0
  128.2720  122.9960   58.9150 S   0  0  0  0  0  0  0  0  0  0  0  0
  126.6060  123.4030   59.2490 C   0  0  0  0  0  0  0  0  0  0  0  0
  125.7630  123.7380   58.2720 N   0  0  0  0  0  0  0  0  0  0  0  0
  1  2  1  0
  2  3  2  0
  3  4  1  0
  4  5  1  0
  5  6  1  0
  5  7  1  0
  5  8  1  0
  4  9  2  0
  9 10  1  0
 10 11  1  0
 10 12  2  0
 12 13  1  0
 13 14  2  0
 13 15  1  0
 15 16  1  0
 16 17  1  0
 17 18  2  0
 18 19  1  0
 19 20  2  0
 20 21  1  0
 21 22  2  0
 12 23  1  0
 23 24  1  0
 24 25  2  0
 25  2  1  0
 24  9  1  0
 22 17  1  0
M  END
>  <Binding energies>  (29) 
[-6.91]

>  <Ligand effiencies>  (29) 
[-0.2467857142857143]

>  <Interactions>  (29) 
["V-B:GLU:543:CD:9879, V-B:ARG:545:CZ:9897, V-B:ASP:366:CG:8183, H-B:ALA:541:O:9860, V-B:PRO:540:CA:9854, V-B:PRO:540:CB:9856, V-B:ALA:541:CB:9863, V-B:PRO:540:C:9852, V-B:TYR:539:CE2:9847, V-B:ASN:362:CG:8147, V-B:TYR:539:CD2:9845, V-B:ASN:362:CB:8146, V-B:ASP:366:CB:8182, V-B:ALA:541:C:9859, V-A:LEU:373:CD2:3280, V-B:GLU:543:CG:9878, V-B:ALA:541:CA:9861, V-B:TYR:539:CB:9842, V-A:ILE:369:CG2:3236, V-A:LEU:373:CD1:3279, V-A:SER:385:CA:3406, V-A:LEU:475:CD2:4258, V-A:LEU:373:CG:3278, V-B:TYR:531:CE2:9764, V-B:LEU:363:CD1:8159, V-B:TYR:531:CZ:9765, V-B:TYR:539:C:9838, H-B:GLU:543:OE2:9881, H-B:TYR:539:O:9839, V-B:PRO:540:N:9855, V-A:HIS:383:CE1:3393, V-B:LEU:363:CA:8155, V-A:VAL:384:C:3396, V-B:ASN:362:C:8142, V-B:ASN:362:CA:8144"]

$$$$
4ca_Grossjean_2025
     RDKit          3D

 34 37  0  0  0  0  0  0  0  0999 V2000
  122.7460  132.1330   61.9700 C   0  0  0  0  0  0  0  0  0  0  0  0
  122.2210  130.7920   62.4920 C   0  0  0  0  0  0  0  0  0  0  0  0
  122.9980  130.3840   63.6100 O   0  0  0  0  0  0  0  0  0  0  0  0
  124.2340  129.8450   63.4480 C   0  0  0  0  0  0  0  0  0  0  0  0
  124.7920  129.7430   62.3500 O   0  0  0  0  0  0  0  0  0  0  0  0
  124.8560  129.3910   64.7360 C   0  0  0  0  0  0  0  0  0  0  0  0
  126.1990  128.9880   64.7430 C   0  0  0  0  0  0  0  0  0  0  0  0
  126.8050  128.5660   65.9230 C   0  0  0  0  0  0  0  0  0  0  0  0
  126.0830  128.5290   67.1150 C   0  0  0  0  0  0  0  0  0  0  0  0
  126.7970  128.0940   68.2490 N   0  0  0  0  0  0  0  0  0  0  0  0
  127.9020  128.6150   68.8380 C   0  0  0  0  0  0  0  0  0  0  0  0
  128.4600  129.6480   68.4680 O   0  0  0  0  0  0  0  0  0  0  0  0
  128.4070  127.8670   69.9910 C   0  0  0  0  0  0  0  0  0  0  0  0
  128.0550  126.1480   70.1560 S   0  0  0  0  0  0  0  0  0  0  0  0
  128.9840  126.0550   71.6330 C   0  0  0  0  0  0  0  0  0  0  0  0
  129.1140  124.9100   72.2990 N   0  0  0  0  0  0  0  0  0  0  0  0
  129.8670  124.9300   73.4290 C   0  0  0  0  0  0  0  0  0  0  0  0
  130.0030  123.6210   74.1520 C   0  0  0  0  0  0  0  0  0  0  0  0
  130.7140  123.5370   75.3600 C   0  0  0  0  0  0  0  0  0  0  0  0
  130.8480  122.3250   76.0330 C   0  0  0  0  0  0  0  0  0  0  0  0
  130.2720  121.1750   75.5040 C   0  0  0  0  0  0  0  0  0  0  0  0
  129.5640  121.2290   74.3080 C   0  0  0  0  0  0  0  0  0  0  0  0
  129.4320  122.4430   73.6390 C   0  0  0  0  0  0  0  0  0  0  0  0
  130.4660  126.1050   73.8970 C   0  0  0  0  0  0  0  0  0  0  0  0
  130.3300  127.3180   73.2050 C   0  0  0  0  0  0  0  0  0  0  0  0
  131.0160  128.5660   73.7730 C   0  0  0  0  0  0  0  0  0  0  0  0
  131.6140  129.3060   72.8370 F   0  0  0  0  0  0  0  0  0  0  0  0
  130.1160  129.3400   74.3780 F   0  0  0  0  0  0  0  0  0  0  0  0
  131.9510  128.2070   74.6530 F   0  0  0  0  0  0  0  0  0  0  0  0
  129.5580  127.3040   72.0090 C   0  0  0  0  0  0  0  0  0  0  0  0
  129.2120  128.3240   71.0490 C   0  0  0  0  0  0  0  0  0  0  0  0
  129.6340  129.6230   71.1640 N   0  0  0  0  0  0  0  0  0  0  0  0
  124.7410  128.9350   67.1200 C   0  0  0  0  0  0  0  0  0  0  0  0
  124.1360  129.3600   65.9390 C   0  0  0  0  0  0  0  0  0  0  0  0
  1  2  1  0
  2  3  1  0
  3  4  1  0
  4  5  2  0
  4  6  1  0
  6  7  2  0
  7  8  1  0
  8  9  2  0
  9 10  1  0
 10 11  1  0
 11 12  2  0
 11 13  1  0
 13 14  1  0
 14 15  1  0
 15 16  2  0
 16 17  1  0
 17 18  1  0
 18 19  2  0
 19 20  1  0
 20 21  2  0
 21 22  1  0
 22 23  2  0
 17 24  2  0
 24 25  1  0
 25 26  1  0
 26 27  1  0
 26 28  1  0
 26 29  1  0
 25 30  2  0
 30 31  1  0
 31 32  1  0
  9 33  1  0
 33 34  2  0
 34  6  1  0
 31 13  2  0
 30 15  1  0
 23 18  1  0
M  END
>  <Binding energies>  (30) 
[-7.07]

>  <Ligand effiencies>  (30) 
[-0.1910810810810811]

>  <Interactions>  (30) 
["V-B:ARG:545:CG:9893, V-B:GLU:543:CB:9877, V-B:GLU:543:CD:9879, V-B:HIS:456:CE1:9040, V-A:HIS:456:CE1:4069, V-B:ARG:545:CZ:9897, H-B:TYR:484:OH:9318, V-B:ARG:545:CD:9894, H-B:GLY:454:N:9020, V-B:ILE:369:CG2:8207, V-B:ASP:366:CG:8183, V-B:ILE:369:CG1:8208, V-A:GLU:543:C:4901, V-B:GLU:543:C:9873, V-B:GLY:453:C:9012, V-B:GLY:453:CA:9014, V-B:ILE:369:CB:8206, H-B:GLU:543:OE2:9881, H-B:GLU:543:OE1:9880, V-B:GLU:543:CA:9875, V-A:GLY:544:C:4911, V-A:GLY:544:CA:4913, V-A:HIS:456:CG:4065, V-A:HIS:456:CD2:4067, V-A:TYR:484:CB:4340, V-A:ASP:473:CG:4239, V-A:LYS:547:CE:4949, H-A:GLU:543:O:4902, H-B:HIS:456:NE2:9041"]

$$$$
4cb_Grossjean_2025
     RDKit          3D

 33 36  0  0  0  0  0  0  0  0999 V2000
  133.0410  127.8000   75.2410 C   0  0  0  0  0  0  0  0  0  0  0  0
  131.6520  128.0930   75.3030 O   0  0  0  0  0  0  0  0  0  0  0  0
  130.7280  127.1890   74.8870 C   0  0  0  0  0  0  0  0  0  0  0  0
  130.4020  126.1960   75.5440 O   0  0  0  0  0  0  0  0  0  0  0  0
  130.1400  127.5180   73.5440 C   0  0  0  0  0  0  0  0  0  0  0  0
  129.2390  126.6210   72.9540 C   0  0  0  0  0  0  0  0  0  0  0  0
  128.6710  126.9000   71.7140 C   0  0  0  0  0  0  0  0  0  0  0  0
  128.9940  128.0760   71.0370 C   0  0  0  0  0  0  0  0  0  0  0  0
  128.3510  128.2640   69.7990 N   0  0  0  0  0  0  0  0  0  0  0  0
  127.1930  127.7390   69.3280 C   0  0  0  0  0  0  0  0  0  0  0  0
  126.4530  127.0000   69.9800 O   0  0  0  0  0  0  0  0  0  0  0  0
  126.8420  128.1250   67.9590 C   0  0  0  0  0  0  0  0  0  0  0  0
  125.2120  128.6820   67.5850 S   0  0  0  0  0  0  0  0  0  0  0  0
  125.6390  128.9510   65.9110 C   0  0  0  0  0  0  0  0  0  0  0  0
  124.7530  129.4140   65.0330 N   0  0  0  0  0  0  0  0  0  0  0  0
  125.1800  129.6010   63.7570 C   0  0  0  0  0  0  0  0  0  0  0  0
  124.1590  130.1300   62.7920 C   0  0  0  0  0  0  0  0  0  0  0  0
  122.8880  130.5270   63.2370 C   0  0  0  0  0  0  0  0  0  0  0  0
  121.9350  131.0150   62.3470 C   0  0  0  0  0  0  0  0  0  0  0  0
  122.2410  131.1130   60.9940 C   0  0  0  0  0  0  0  0  0  0  0  0
  123.4930  130.7240   60.5250 C   0  0  0  0  0  0  0  0  0  0  0  0
  124.4410  130.2350   61.4190 C   0  0  0  0  0  0  0  0  0  0  0  0
  126.4890  129.3010   63.3660 C   0  0  0  0  0  0  0  0  0  0  0  0
  127.4310  128.8080   64.2820 C   0  0  0  0  0  0  0  0  0  0  0  0
  128.8490  128.5020   63.7860 C   0  0  0  0  0  0  0  0  0  0  0  0
  129.7880  128.7440   64.7040 F   0  0  0  0  0  0  0  0  0  0  0  0
  128.9410  127.2150   63.4520 F   0  0  0  0  0  0  0  0  0  0  0  0
  129.1280  129.2540   62.7220 F   0  0  0  0  0  0  0  0  0  0  0  0
  126.9970  128.6240   65.6270 C   0  0  0  0  0  0  0  0  0  0  0  0
  127.6630  128.1590   66.8200 C   0  0  0  0  0  0  0  0  0  0  0  0
  128.9820  127.7830   66.8330 N   0  0  0  0  0  0  0  0  0  0  0  0
  129.8920  128.9820   71.6220 C   0  0  0  0  0  0  0  0  0  0  0  0
  130.4590  128.7010   72.8620 C   0  0  0  0  0  0  0  0  0  0  0  0
  1  2  1  0
  2  3  1  0
  3  4  2  0
  3  5  1  0
  5  6  2  0
  6  7  1  0
  7  8  2  0
  8  9  1  0
  9 10  1  0
 10 11  2  0
 10 12  1  0
 12 13  1  0
 13 14  1  0
 14 15  2  0
 15 16  1  0
 16 17  1  0
 17 18  2  0
 18 19  1  0
 19 20  2  0
 20 21  1  0
 21 22  2  0
 16 23  2  0
 23 24  1  0
 24 25  1  0
 25 26  1  0
 25 27  1  0
 25 28  1  0
 24 29  2  0
 29 30  1  0
 30 31  1  0
  8 32  1  0
 32 33  2  0
 33  5  1  0
 30 12  2  0
 29 14  1  0
 22 17  1  0
M  END
>  <Binding energies>  (31) 
[-6.93]

>  <Ligand effiencies>  (31) 
[-0.1925]

>  <Interactions>  (31) 
["V-B:ARG:545:CG:9893, V-B:GLU:543:CB:9877, V-A:GLU:543:CG:4906, V-B:GLU:543:CD:9879, V-B:HIS:456:CE1:9040, H-B:ARG:545:NH2:9899, V-A:HIS:456:CE1:4069, V-A:GLU:543:CD:4907, V-B:ARG:545:CZ:9897, V-B:ARG:545:CD:9894, V-B:ILE:369:CG2:8207, V-B:ASP:366:CG:8183, V-B:ILE:369:CG1:8208, V-A:GLU:543:C:4901, H-B:ARG:545:N:9891, V-B:ASP:366:CB:8182, V-B:GLY:453:C:9012, V-B:GLY:453:CA:9014, V-B:GLY:454:CA:9019, V-B:ILE:369:CB:8206, H-B:GLU:543:OE2:9881, V-B:ASP:366:CA:8180, H-A:GLU:543:OE1:4908, H-A:LYS:547:NZ:4950, H-B:LYS:547:NZ:9922"]

$$$$
4cc_Grossjean_2025
     RDKit          3D

 31 34  0  0  0  0  0  0  0  0999 V2000
  130.4540  129.1640   72.2560 C   0  0  0  0  0  0  0  0  0  0  0  0
  129.3850  128.7990   71.3900 O   0  0  0  0  0  0  0  0  0  0  0  0
  129.6620  128.0880   70.2380 C   0  0  0  0  0  0  0  0  0  0  0  0
  128.9970  126.8730   70.0810 C   0  0  0  0  0  0  0  0  0  0  0  0
  129.2110  126.0880   68.9510 C   0  0  0  0  0  0  0  0  0  0  0  0
  130.1060  126.5050   67.9650 C   0  0  0  0  0  0  0  0  0  0  0  0
  130.2460  125.6540   66.8520 N   0  0  0  0  0  0  0  0  0  0  0  0
  131.1130  125.7360   65.8150 C   0  0  0  0  0  0  0  0  0  0  0  0
  131.9840  126.6020   65.7110 O   0  0  0  0  0  0  0  0  0  0  0  0
  130.9610  124.7040   64.7840 C   0  0  0  0  0  0  0  0  0  0  0  0
  132.0990  123.3620   64.6960 S   0  0  0  0  0  0  0  0  0  0  0  0
  131.2540  122.6760   63.3290 C   0  0  0  0  0  0  0  0  0  0  0  0
  131.6650  121.5490   62.7520 N   0  0  0  0  0  0  0  0  0  0  0  0
  130.9390  121.0880   61.7020 C   0  0  0  0  0  0  0  0  0  0  0  0
  131.4270  119.8170   61.0700 C   0  0  0  0  0  0  0  0  0  0  0  0
  132.6380  119.7880   60.3580 C   0  0  0  0  0  0  0  0  0  0  0  0
  133.0970  118.6130   59.7680 C   0  0  0  0  0  0  0  0  0  0  0  0
  132.3490  117.4460   59.8810 C   0  0  0  0  0  0  0  0  0  0  0  0
  131.1450  117.4480   60.5780 C   0  0  0  0  0  0  0  0  0  0  0  0
  130.6890  118.6250   61.1650 C   0  0  0  0  0  0  0  0  0  0  0  0
  129.8140  121.7690   61.2250 C   0  0  0  0  0  0  0  0  0  0  0  0
  129.3730  122.9600   61.8250 C   0  0  0  0  0  0  0  0  0  0  0  0
  128.1290  123.6500   61.2540 C   0  0  0  0  0  0  0  0  0  0  0  0
  128.3670  124.8950   60.8320 F   0  0  0  0  0  0  0  0  0  0  0  0
  127.6660  122.9590   60.2140 F   0  0  0  0  0  0  0  0  0  0  0  0
  127.1830  123.7210   62.1910 F   0  0  0  0  0  0  0  0  0  0  0  0
  130.1220  123.4480   62.9330 C   0  0  0  0  0  0  0  0  0  0  0  0
  129.9820  124.6050   63.7820 C   0  0  0  0  0  0  0  0  0  0  0  0
  128.9760  125.5240   63.6220 N   0  0  0  0  0  0  0  0  0  0  0  0
  130.7710  127.7330   68.1100 C   0  0  0  0  0  0  0  0  0  0  0  0
  130.5520  128.5150   69.2400 C   0  0  0  0  0  0  0  0  0  0  0  0
  1  2  1  0
  2  3  1  0
  3  4  2  0
  4  5  1  0
  5  6  2  0
  6  7  1  0
  7  8  1  0
  8  9  2  0
  8 10  1  0
 10 11  1  0
 11 12  1  0
 12 13  2  0
 13 14  1  0
 14 15  1  0
 15 16  2  0
 16 17  1  0
 17 18  2  0
 18 19  1  0
 19 20  2  0
 14 21  2  0
 21 22  1  0
 22 23  1  0
 23 24  1  0
 23 25  1  0
 23 26  1  0
 22 27  2  0
 27 28  1  0
 28 29  1  0
  6 30  1  0
 30 31  2  0
 31  3  1  0
 28 10  2  0
 27 12  1  0
 20 15  1  0
M  END
>  <Binding energies>  (32) 
[-7.33]

>  <Ligand effiencies>  (32) 
[-0.21558823529411764]

>  <Interactions>  (32) 
["V-A:GLU:543:CB:4905, V-B:GLU:543:CB:9877, V-B:GLU:543:CD:9879, V-B:HIS:456:CE1:9040, V-A:HIS:456:CE1:4069, V-A:GLU:543:CD:4907, V-A:GLY:454:CA:4048, H-A:ARG:545:NH2:4927, V-A:GLU:543:C:4901, V-A:TYR:484:CZ:4346, V-B:PRO:540:CA:9854, V-B:TYR:539:CE2:9847, V-B:TYR:539:CD2:9845, H-A:ARG:545:NE:4923, H-A:TYR:484:OH:4347, V-A:ILE:369:CG2:3236, V-A:SER:385:CA:3406, V-A:TYR:484:CE2:4345, V-A:LEU:475:CD2:4258, V-B:TYR:539:C:9838, H-B:GLU:543:OE2:9881, V-B:PRO:540:N:9855, H-B:GLU:543:OE1:9880, V-A:GLY:544:C:4911, V-A:GLY:544:CA:4913, V-A:HIS:383:CE1:3393, V-A:VAL:384:C:3396"]

$$$$
4ce_Grossjean_2025
     RDKit          3D

 30 33  0  0  0  0  0  0  0  0999 V2000
  120.6630  130.3840   62.1260 C   0  0  0  0  0  0  0  0  0  0  0  0
  122.0040  131.0490   62.3740 C   0  0  0  0  0  0  0  0  0  0  0  0
  122.2810  132.3340   61.8980 C   0  0  0  0  0  0  0  0  0  0  0  0
  123.5330  132.8870   62.1710 C   0  0  0  0  0  0  0  0  0  0  0  0
  124.4660  132.1520   62.9050 C   0  0  0  0  0  0  0  0  0  0  0  0
  124.1250  130.8680   63.3470 C   0  0  0  0  0  0  0  0  0  0  0  0
  125.0980  130.1880   64.1020 N   0  0  0  0  0  0  0  0  0  0  0  0
  125.1560  130.0060   65.4450 C   0  0  0  0  0  0  0  0  0  0  0  0
  124.3030  130.4240   66.2300 O   0  0  0  0  0  0  0  0  0  0  0  0
  126.3210  129.2620   65.9290 C   0  0  0  0  0  0  0  0  0  0  0  0
  127.7110  129.0070   64.8770 S   0  0  0  0  0  0  0  0  0  0  0  0
  128.5690  128.1590   66.1410 C   0  0  0  0  0  0  0  0  0  0  0  0
  129.7930  127.6760   65.9450 N   0  0  0  0  0  0  0  0  0  0  0  0
  130.3870  127.0450   66.9920 C   0  0  0  0  0  0  0  0  0  0  0  0
  131.7680  126.5170   66.7400 C   0  0  0  0  0  0  0  0  0  0  0  0
  132.7240  126.4930   67.7680 C   0  0  0  0  0  0  0  0  0  0  0  0
  134.0110  126.0110   67.5400 C   0  0  0  0  0  0  0  0  0  0  0  0
  134.3590  125.5440   66.2770 C   0  0  0  0  0  0  0  0  0  0  0  0
  133.4310  125.5580   65.2410 C   0  0  0  0  0  0  0  0  0  0  0  0
  132.1460  126.0430   65.4720 C   0  0  0  0  0  0  0  0  0  0  0  0
  129.7400  126.8830   68.2210 C   0  0  0  0  0  0  0  0  0  0  0  0
  128.4460  127.3840   68.4370 C   0  0  0  0  0  0  0  0  0  0  0  0
  127.7970  127.1730   69.8080 C   0  0  0  0  0  0  0  0  0  0  0  0
  126.4650  127.2370   69.7730 F   0  0  0  0  0  0  0  0  0  0  0  0
  128.1260  125.9710   70.2830 F   0  0  0  0  0  0  0  0  0  0  0  0
  128.2200  128.1110   70.6560 F   0  0  0  0  0  0  0  0  0  0  0  0
  127.8200  128.0610   67.3510 C   0  0  0  0  0  0  0  0  0  0  0  0
  126.5360  128.7010   67.1990 C   0  0  0  0  0  0  0  0  0  0  0  0
  125.6110  128.7550   68.2100 N   0  0  0  0  0  0  0  0  0  0  0  0
  122.9010  130.3220   63.0880 N   0  0  0  0  0  0  0  0  0  0  0  0
  1  2  1  0
  2  3  2  0
  3  4  1  0
  4  5  2  0
  5  6  1  0
  6  7  1  0
  7  8  1  0
  8  9  2  0
  8 10  1  0
 10 11  1  0
 11 12  1  0
 12 13  2  0
 13 14  1  0
 14 15  1  0
 15 16  2  0
 16 17  1  0
 17 18  2  0
 18 19  1  0
 19 20  2  0
 14 21  2  0
 21 22  1  0
 22 23  1  0
 23 24  1  0
 23 25  1  0
 23 26  1  0
 22 27  2  0
 27 28  1  0
 28 29  1  0
  6 30  2  0
 30  2  1  0
 28 10  2  0
 27 12  1  0
 20 15  1  0
M  END
>  <Binding energies>  (33) 
[-7.34]

>  <Ligand effiencies>  (33) 
[-0.2224242424242424]

>  <Interactions>  (33) 
["V-B:ARG:545:CG:9893, V-B:GLU:543:CB:9877, V-B:GLU:543:CD:9879, V-B:HIS:456:CE1:9040, V-B:SER:385:CB:8379, V-A:HIS:456:CE1:4069, V-A:GLU:543:CD:4907, V-A:GLY:454:CA:4048, H-B:TYR:484:OH:9318, H-B:GLY:454:N:9020, V-B:ILE:369:CG2:8207, V-B:ASP:366:CG:8183, V-B:ILE:369:CG1:8208, V-A:ARG:545:CZ:4925, V-A:GLY:453:CA:4043, V-A:ARG:545:CD:4922, V-A:ARG:545:CG:4921, V-B:GLU:543:C:9873, V-B:GLY:453:C:9012, V-B:GLY:453:CA:9014, V-B:ILE:369:CD1:8209, V-B:SER:385:C:8375, V-B:ILE:369:CB:8206, V-B:ASP:366:CA:8180, V-A:GLY:453:C:4041, V-B:GLU:543:CA:9875, V-A:ARG:545:CB:4920, V-B:CYS:365:C:8174"]

$$$$
4cf_Grossjean_2025
     RDKit          3D

 29 32  0  0  0  0  0  0  0  0999 V2000
  125.5900  128.7970   68.2390 N   0  0  0  0  0  0  0  0  0  0  0  0
  126.5180  128.7600   67.2300 C   0  0  0  0  0  0  0  0  0  0  0  0
  126.3080  129.3410   65.9690 C   0  0  0  0  0  0  0  0  0  0  0  0
  125.1170  130.0360   65.4700 C   0  0  0  0  0  0  0  0  0  0  0  0
  124.1900  130.3170   66.2320 O   0  0  0  0  0  0  0  0  0  0  0  0
  125.1330  130.3400   64.1500 N   0  0  0  0  0  0  0  0  0  0  0  0
  124.1430  130.9510   63.3570 C   0  0  0  0  0  0  0  0  0  0  0  0
  122.9020  130.3790   63.0160 C   0  0  0  0  0  0  0  0  0  0  0  0
  122.0140  131.0900   62.2060 C   0  0  0  0  0  0  0  0  0  0  0  0
  122.3870  132.3560   61.7560 C   0  0  0  0  0  0  0  0  0  0  0  0
  123.5780  132.9270   62.0640 N   0  0  0  0  0  0  0  0  0  0  0  0
  124.4320  132.2230   62.8510 C   0  0  0  0  0  0  0  0  0  0  0  0
  127.7050  129.1120   64.9210 S   0  0  0  0  0  0  0  0  0  0  0  0
  128.5560  128.2350   66.1720 C   0  0  0  0  0  0  0  0  0  0  0  0
  129.7780  127.7460   65.9700 N   0  0  0  0  0  0  0  0  0  0  0  0
  130.3510  127.0650   66.9970 C   0  0  0  0  0  0  0  0  0  0  0  0
  131.7250  126.5190   66.7380 C   0  0  0  0  0  0  0  0  0  0  0  0
  132.0900  126.0740   65.4580 C   0  0  0  0  0  0  0  0  0  0  0  0
  133.3630  125.5670   65.2090 C   0  0  0  0  0  0  0  0  0  0  0  0
  134.2920  125.5000   66.2420 C   0  0  0  0  0  0  0  0  0  0  0  0
  133.9580  125.9370   67.5200 C   0  0  0  0  0  0  0  0  0  0  0  0
  132.6850  126.4440   67.7630 C   0  0  0  0  0  0  0  0  0  0  0  0
  129.7060  126.8990   68.2260 C   0  0  0  0  0  0  0  0  0  0  0  0
  128.4190  127.4150   68.4500 C   0  0  0  0  0  0  0  0  0  0  0  0
  127.7680  127.1920   69.8200 C   0  0  0  0  0  0  0  0  0  0  0  0
  126.4370  127.2870   69.7900 F   0  0  0  0  0  0  0  0  0  0  0  0
  128.0710  125.9750   70.2710 F   0  0  0  0  0  0  0  0  0  0  0  0
  128.2120  128.1050   70.6850 F   0  0  0  0  0  0  0  0  0  0  0  0
  127.8010  128.1160   67.3750 C   0  0  0  0  0  0  0  0  0  0  0  0
  1  2  1  0
  2  3  2  0
  3  4  1  0
  4  5  2  0
  4  6  1  0
  6  7  1  0
  7  8  2  0
  8  9  1  0
  9 10  2  0
 10 11  1  0
 11 12  2  0
  3 13  1  0
 13 14  1  0
 14 15  2  0
 15 16  1  0
 16 17  1  0
 17 18  2  0
 18 19  1  0
 19 20  2  0
 20 21  1  0
 21 22  2  0
 16 23  2  0
 23 24  1  0
 24 25  1  0
 25 26  1  0
 25 27  1  0
 25 28  1  0
 24 29  2  0
 29  2  1  0
 12  7  1  0
 29 14  1  0
 22 17  1  0
M  END
>  <Binding energies>  (34) 
[-7.0]

>  <Ligand effiencies>  (34) 
[-0.21875]

>  <Interactions>  (34) 
["V-B:ARG:545:CG:9893, V-B:GLU:543:CB:9877, V-B:GLU:543:CD:9879, V-B:HIS:456:CE1:9040, V-A:HIS:456:CE1:4069, V-A:GLU:543:CD:4907, V-A:GLY:454:CA:4048, H-B:TYR:484:OH:9318, H-B:GLY:454:N:9020, V-B:ILE:369:CG2:8207, V-B:ASP:366:CG:8183, V-B:ILE:369:CG1:8208, V-B:TYR:484:CZ:9317, V-A:ARG:545:CZ:4925, V-A:GLY:453:CA:4043, V-A:ARG:545:CD:4922, V-A:ARG:545:CG:4921, V-B:GLU:543:C:9873, V-B:GLY:453:C:9012, V-B:GLY:453:CA:9014, V-B:ILE:369:CD1:8209, V-B:SER:385:C:8375, V-B:ILE:369:CB:8206, V-A:GLY:453:C:4041, V-B:GLU:543:CA:9875"]

$$$$
4ci_Grossjean_2025
     RDKit          3D

 28 31  0  0  0  0  0  0  0  0999 V2000
  129.3160  125.4170   63.8780 N   0  0  0  0  0  0  0  0  0  0  0  0
  130.4010  124.5790   63.8760 C   0  0  0  0  0  0  0  0  0  0  0  0
  131.5060  124.7480   64.7260 C   0  0  0  0  0  0  0  0  0  0  0  0
  131.7250  125.7800   65.7440 C   0  0  0  0  0  0  0  0  0  0  0  0
  132.8420  126.2790   65.9020 O   0  0  0  0  0  0  0  0  0  0  0  0
  130.6360  126.1150   66.4790 N   0  0  0  0  0  0  0  0  0  0  0  0
  130.5620  127.0510   67.5030 C   0  0  0  0  0  0  0  0  0  0  0  0
  129.3560  127.5240   68.0190 C   0  0  0  0  0  0  0  0  0  0  0  0
  129.7120  128.4210   68.9980 C   0  0  0  0  0  0  0  0  0  0  0  0
  131.0640  128.4860   69.0690 O   0  0  0  0  0  0  0  0  0  0  0  0
  131.5910  127.6140   68.1160 N   0  0  0  0  0  0  0  0  0  0  0  0
  132.7090  123.4880   64.4640 S   0  0  0  0  0  0  0  0  0  0  0  0
  131.7320  122.7520   63.2160 C   0  0  0  0  0  0  0  0  0  0  0  0
  132.1350  121.6590   62.5710 N   0  0  0  0  0  0  0  0  0  0  0  0
  131.3070  121.1560   61.6190 C   0  0  0  0  0  0  0  0  0  0  0  0
  131.7920  119.9270   60.9060 C   0  0  0  0  0  0  0  0  0  0  0  0
  131.0320  118.7450   60.9100 C   0  0  0  0  0  0  0  0  0  0  0  0
  131.4760  117.6020   60.2500 C   0  0  0  0  0  0  0  0  0  0  0  0
  132.6910  117.6240   59.5750 C   0  0  0  0  0  0  0  0  0  0  0  0
  133.4660  118.7780   59.5580 C   0  0  0  0  0  0  0  0  0  0  0  0
  133.0190  119.9180   60.2210 C   0  0  0  0  0  0  0  0  0  0  0  0
  130.0860  121.7640   61.3090 C   0  0  0  0  0  0  0  0  0  0  0  0
  129.6510  122.9170   61.9820 C   0  0  0  0  0  0  0  0  0  0  0  0
  128.3010  123.5300   61.5910 C   0  0  0  0  0  0  0  0  0  0  0  0
  127.7000  122.8790   60.5930 F   0  0  0  0  0  0  0  0  0  0  0  0
  127.4760  123.5050   62.6370 F   0  0  0  0  0  0  0  0  0  0  0  0
  128.4760  124.7920   61.1970 F   0  0  0  0  0  0  0  0  0  0  0  0
  130.5060  123.4440   62.9910 C   0  0  0  0  0  0  0  0  0  0  0  0
  1  2  1  0
  2  3  2  0
  3  4  1  0
  4  5  2  0
  4  6  1  0
  6  7  1  0
  7  8  1  0
  8  9  2  0
  9 10  1  0
 10 11  1  0
  3 12  1  0
 12 13  1  0
 13 14  2  0
 14 15  1  0
 15 16  1  0
 16 17  2  0
 17 18  1  0
 18 19  2  0
 19 20  1  0
 20 21  2  0
 15 22  2  0
 22 23  1  0
 23 24  1  0
 24 25  1  0
 24 26  1  0
 24 27  1  0
 23 28  2  0
 28  2  1  0
 11  7  2  0
 28 13  1  0
 21 16  1  0
M  END
>  <Binding energies>  (35) 
[-7.28]

>  <Ligand effiencies>  (35) 
[-0.23483870967741935]

>  <Interactions>  (35) 
["V-A:GLU:543:CB:4905, V-B:GLU:543:CD:9879, V-A:HIS:456:CE1:4069, V-A:GLU:543:CD:4907, V-A:GLY:454:CA:4048, H-A:ARG:545:NH2:4927, V-B:PRO:540:CA:9854, V-B:PRO:540:C:9852, V-B:TYR:539:CE2:9847, V-B:TYR:539:CD2:9845, H-A:ARG:545:NE:4923, H-A:TYR:484:OH:4347, V-A:LEU:373:CD2:3280, V-B:TYR:539:CB:9842, V-A:ILE:369:CG2:3236, V-A:SER:385:CA:3406, V-A:LEU:475:CD2:4258, H-B:GLU:543:OE2:9881, V-B:PRO:540:N:9855, H-B:GLU:543:OE1:9880, V-A:HIS:383:CE1:3393, V-A:VAL:384:C:3396"]

$$$$
8a_Ghoteimi_2023
     RDKit          3D

 40 44  0  0  0  0  0  0  0  0999 V2000
  123.7950  131.1690   58.4400 C   0  0  0  0  0  0  0  0  0  0  0  0
  124.9910  132.0710   58.7590 C   0  0  0  0  0  0  0  0  0  0  0  0
  124.5230  133.3470   59.1750 O   0  0  0  0  0  0  0  0  0  0  0  0
  125.0720  133.9820   60.2440 C   0  0  0  0  0  0  0  0  0  0  0  0
  125.2640  135.2010   60.2860 O   0  0  0  0  0  0  0  0  0  0  0  0
  125.4290  133.0510   61.3670 C   0  0  0  0  0  0  0  0  0  0  0  0
  126.6780  133.1780   61.9890 C   0  0  0  0  0  0  0  0  0  0  0  0
  127.0390  132.3300   63.0320 C   0  0  0  0  0  0  0  0  0  0  0  0
  126.1630  131.3380   63.4750 C   0  0  0  0  0  0  0  0  0  0  0  0
  126.6370  130.5360   64.5320 N   0  0  0  0  0  0  0  0  0  0  0  0
  126.0630  129.4780   65.1560 C   0  0  0  0  0  0  0  0  0  0  0  0
  124.9540  129.0240   64.8730 O   0  0  0  0  0  0  0  0  0  0  0  0
  126.8640  128.8730   66.2240 C   0  0  0  0  0  0  0  0  0  0  0  0
  126.2800  128.8760   67.8870 S   0  0  0  0  0  0  0  0  0  0  0  0
  127.7170  128.0510   68.4440 C   0  0  0  0  0  0  0  0  0  0  0  0
  127.9030  127.7590   69.7310 N   0  0  0  0  0  0  0  0  0  0  0  0
  129.0580  127.1210   70.0580 C   0  0  0  0  0  0  0  0  0  0  0  0
  129.2550  126.8210   71.5090 C   0  0  0  0  0  0  0  0  0  0  0  0
  129.0000  125.5420   72.0250 C   0  0  0  0  0  0  0  0  0  0  0  0
  129.1740  125.2720   73.3790 C   0  0  0  0  0  0  0  0  0  0  0  0
  129.6090  126.2690   74.2500 C   0  0  0  0  0  0  0  0  0  0  0  0
  129.7510  125.9110   75.5780 O   0  0  0  0  0  0  0  0  0  0  0  0
  130.8920  125.1570   75.9730 C   0  0  0  0  0  0  0  0  0  0  0  0
  129.8720  127.5500   73.7440 C   0  0  0  0  0  0  0  0  0  0  0  0
  129.6950  127.8180   72.3890 C   0  0  0  0  0  0  0  0  0  0  0  0
  130.0150  126.7730   69.1020 C   0  0  0  0  0  0  0  0  0  0  0  0
  129.8170  127.0640   67.7470 C   0  0  0  0  0  0  0  0  0  0  0  0
  130.8510  126.6430   66.7680 C   0  0  0  0  0  0  0  0  0  0  0  0
  132.2020  126.6610   67.1220 C   0  0  0  0  0  0  0  0  0  0  0  0
  133.1740  126.2480   66.2140 C   0  0  0  0  0  0  0  0  0  0  0  0
  132.8130  125.8050   64.9420 C   0  0  0  0  0  0  0  0  0  0  0  0
  133.8430  125.4150   64.1090 O   0  0  0  0  0  0  0  0  0  0  0  0
  133.5350  124.8120   62.8580 C   0  0  0  0  0  0  0  0  0  0  0  0
  131.4550  125.7790   64.5870 C   0  0  0  0  0  0  0  0  0  0  0  0
  130.4850  126.1910   65.4980 C   0  0  0  0  0  0  0  0  0  0  0  0
  128.6240  127.7510   67.3850 C   0  0  0  0  0  0  0  0  0  0  0  0
  128.1190  128.2490   66.1290 C   0  0  0  0  0  0  0  0  0  0  0  0
  128.8190  128.1330   64.9550 N   0  0  0  0  0  0  0  0  0  0  0  0
  124.9080  131.2070   62.8610 C   0  0  0  0  0  0  0  0  0  0  0  0
  124.5480  132.0560   61.8170 C   0  0  0  0  0  0  0  0  0  0  0  0
  1  2  1  0
  2  3  1  0
  3  4  1  0
  4  5  2  0
  4  6  1  0
  6  7  2  0
  7  8  1  0
  8  9  2  0
  9 10  1  0
 10 11  1  0
 11 12  2  0
 11 13  1  0
 13 14  1  0
 14 15  1  0
 15 16  2  0
 16 17  1  0
 17 18  1  0
 18 19  2  0
 19 20  1  0
 20 21  2  0
 21 22  1  0
 22 23  1  0
 21 24  1  0
 24 25  2  0
 17 26  2  0
 26 27  1  0
 27 28  1  0
 28 29  2  0
 29 30  1  0
 30 31  2  0
 31 32  1  0
 32 33  1  0
 31 34  1  0
 34 35  2  0
 27 36  2  0
 36 37  1  0
 37 38  1  0
  9 39  1  0
 39 40  2  0
 40  6  1  0
 37 13  2  0
 36 15  1  0
 25 18  1  0
 35 28  1  0
M  END
>  <Binding energies>  (36) 
[-7.3]

>  <Ligand effiencies>  (36) 
[-0.1697674418604651]

>  <Interactions>  (36) 
["V-B:GLU:543:CD:9879, V-B:HIS:456:CE1:9040, H-B:SER:385:OG:8380, H-B:ARG:545:NH2:9899, H-A:GLY:454:N:4049, V-A:HIS:456:CE1:4069, V-A:TYR:539:CD1:4872, H-A:ARG:545:NH1:4926, V-A:GLU:543:CD:4907, H-A:ARG:545:NH2:4927, V-B:ILE:369:CG2:8207, V-A:ARG:545:CZ:4925, V-A:ASP:366:CG:3212, V-A:ARG:545:CD:4922, V-A:ARG:545:CG:4921, V-B:GLU:543:C:9873, V-A:TYR:539:CE1:4874, H-A:GLU:543:OE2:4909, H-B:ARG:545:NE:9895, V-B:ILE:369:CB:8206, H-B:GLU:543:OE2:9881, H-B:GLU:543:OE1:9880, V-B:LYS:547:CE:9921, H-A:GLU:543:OE1:4908, H-B:LYS:547:NZ:9922, V-A:HIS:456:CD2:4067"]

$$$$
8c_Ghoteimi_2023
     RDKit          3D

 34 38  0  0  0  0  0  0  0  0999 V2000
  128.5470  129.2190   76.1800 C   0  0  0  0  0  0  0  0  0  0  0  0
  129.7120  128.8770   75.4380 O   0  0  0  0  0  0  0  0  0  0  0  0
  129.6020  128.6410   74.0810 C   0  0  0  0  0  0  0  0  0  0  0  0
  130.4220  129.3990   73.2480 C   0  0  0  0  0  0  0  0  0  0  0  0
  130.3770  129.2320   71.8680 C   0  0  0  0  0  0  0  0  0  0  0  0
  129.5080  128.2990   71.2830 C   0  0  0  0  0  0  0  0  0  0  0  0
  129.4520  128.1170   69.7990 C   0  0  0  0  0  0  0  0  0  0  0  0
  128.3890  128.6080   69.0350 C   0  0  0  0  0  0  0  0  0  0  0  0
  128.3620  128.4260   67.6480 C   0  0  0  0  0  0  0  0  0  0  0  0
  127.2170  128.9510   66.8700 C   0  0  0  0  0  0  0  0  0  0  0  0
  125.9340  128.4370   67.0740 C   0  0  0  0  0  0  0  0  0  0  0  0
  124.8580  128.9380   66.3480 C   0  0  0  0  0  0  0  0  0  0  0  0
  125.0450  129.9530   65.4090 C   0  0  0  0  0  0  0  0  0  0  0  0
  123.9190  130.3900   64.7380 O   0  0  0  0  0  0  0  0  0  0  0  0
  123.7090  129.9790   63.3920 C   0  0  0  0  0  0  0  0  0  0  0  0
  126.3360  130.4650   65.2030 C   0  0  0  0  0  0  0  0  0  0  0  0
  127.4120  129.9640   65.9300 C   0  0  0  0  0  0  0  0  0  0  0  0
  129.4470  127.7360   67.0440 C   0  0  0  0  0  0  0  0  0  0  0  0
  129.7400  127.3830   65.6800 C   0  0  0  0  0  0  0  0  0  0  0  0
  128.9040  127.7060   64.6410 N   0  0  0  0  0  0  0  0  0  0  0  0
  130.9480  126.6850   65.5200 C   0  0  0  0  0  0  0  0  0  0  0  0
  131.5530  126.1800   64.2850 C   0  0  0  0  0  0  0  0  0  0  0  0
  131.4770  126.8250   63.2370 O   0  0  0  0  0  0  0  0  0  0  0  0
  132.1790  124.9820   64.3930 N   0  0  0  0  0  0  0  0  0  0  0  0
  132.8300  124.2880   63.3830 C   0  0  0  0  0  0  0  0  0  0  0  0
  133.2970  124.7620   62.2480 N   0  0  0  0  0  0  0  0  0  0  0  0
  133.8630  123.8160   61.5240 C   0  0  0  0  0  0  0  0  0  0  0  0
  133.8620  122.5380   62.0720 C   0  0  0  0  0  0  0  0  0  0  0  0
  133.0730  122.5870   63.6210 S   0  0  0  0  0  0  0  0  0  0  0  0
  131.7590  126.4520   67.0690 S   0  0  0  0  0  0  0  0  0  0  0  0
  130.4780  127.2850   67.9190 C   0  0  0  0  0  0  0  0  0  0  0  0
  130.5030  127.4560   69.2400 N   0  0  0  0  0  0  0  0  0  0  0  0
  128.6880  127.5390   72.1270 C   0  0  0  0  0  0  0  0  0  0  0  0
  128.7300  127.7040   73.5080 C   0  0  0  0  0  0  0  0  0  0  0  0
  1  2  1  0
  2  3  1  0
  3  4  2  0
  4  5  1  0
  5  6  2  0
  6  7  1  0
  7  8  2  0
  8  9  1  0
  9 10  1  0
 10 11  2  0
 11 12  1  0
 12 13  2  0
 13 14  1  0
 14 15  1  0
 13 16  1  0
 16 17  2  0
  9 18  2  0
 18 19  1  0
 19 20  1  0
 19 21  2  0
 21 22  1  0
 22 23  2  0
 22 24  1  0
 24 25  1  0
 25 26  2  0
 26 27  1  0
 27 28  2  0
 28 29  1  0
 21 30  1  0
 30 31  1  0
 31 32  2  0
  6 33  1  0
 33 34  2  0
 34  3  1  0
 32  7  1  0
 17 10  1  0
 31 18  1  0
 29 25  1  0
M  END
>  <Binding energies>  (37) 
[-7.37]

>  <Ligand effiencies>  (37) 
[-0.19918918918918918]

>  <Interactions>  (37) 
["V-B:ARG:545:CG:9893, V-B:GLU:543:CD:9879, V-B:HIS:456:CE1:9040, V-A:HIS:456:CE1:4069, V-A:GLU:543:CD:4907, V-A:GLY:454:CA:4048, V-B:ARG:545:CZ:9897, H-A:ARG:545:NH2:4927, V-B:ARG:545:CD:9894, H-B:GLY:454:N:9020, V-A:GLU:543:C:4901, V-A:ASP:366:CG:3212, H-A:TYR:484:OH:4347, H-A:GLU:543:OE2:4909, V-A:LEU:475:CD2:4258, H-B:GLU:543:OE2:9881, V-A:ILE:369:CD1:3238, H-B:GLU:543:OE1:9880, V-A:GLY:544:C:4911, V-A:GLY:544:CA:4913, H-A:LYS:547:NZ:4950, V-B:HIS:456:CD2:9038"]

$$$$
8d_Ghoteimi_2023
     RDKit          3D

 30 33  0  0  0  0  0  0  0  0999 V2000
  123.6770  129.6840   63.8550 C   0  0  0  0  0  0  0  0  0  0  0  0
  124.2640  130.5720   64.7970 O   0  0  0  0  0  0  0  0  0  0  0  0
  124.5110  130.1710   66.0710 C   0  0  0  0  0  0  0  0  0  0  0  0
  123.7510  130.3800   67.0190 O   0  0  0  0  0  0  0  0  0  0  0  0
  125.7970  129.4530   66.2090 C   0  0  0  0  0  0  0  0  0  0  0  0
  126.7910  129.1450   64.7830 S   0  0  0  0  0  0  0  0  0  0  0  0
  127.9980  128.3310   65.7530 C   0  0  0  0  0  0  0  0  0  0  0  0
  129.1040  127.8170   65.2130 N   0  0  0  0  0  0  0  0  0  0  0  0
  129.9780  127.2080   66.0580 C   0  0  0  0  0  0  0  0  0  0  0  0
  131.2080  126.6360   65.4270 C   0  0  0  0  0  0  0  0  0  0  0  0
  131.2840  126.4320   64.0420 C   0  0  0  0  0  0  0  0  0  0  0  0
  132.4310  125.9000   63.4600 C   0  0  0  0  0  0  0  0  0  0  0  0
  133.5300  125.5560   64.2450 C   0  0  0  0  0  0  0  0  0  0  0  0
  134.6240  125.0340   63.5830 O   0  0  0  0  0  0  0  0  0  0  0  0
  134.4160  124.1280   62.5050 C   0  0  0  0  0  0  0  0  0  0  0  0
  133.4660  125.7570   65.6320 C   0  0  0  0  0  0  0  0  0  0  0  0
  132.3170  126.2910   66.2100 C   0  0  0  0  0  0  0  0  0  0  0  0
  129.7410  127.1070   67.4320 C   0  0  0  0  0  0  0  0  0  0  0  0
  128.5830  127.6480   67.9980 C   0  0  0  0  0  0  0  0  0  0  0  0
  128.3650  127.5330   69.4580 C   0  0  0  0  0  0  0  0  0  0  0  0
  129.1890  128.2250   70.3480 C   0  0  0  0  0  0  0  0  0  0  0  0
  128.9900  128.1100   71.7210 C   0  0  0  0  0  0  0  0  0  0  0  0
  127.9650  127.3080   72.2240 C   0  0  0  0  0  0  0  0  0  0  0  0
  127.8430  127.2530   73.5980 O   0  0  0  0  0  0  0  0  0  0  0  0
  126.5790  127.5190   74.1950 C   0  0  0  0  0  0  0  0  0  0  0  0
  127.1340  126.6160   71.3270 C   0  0  0  0  0  0  0  0  0  0  0  0
  127.3360  126.7320   69.9540 C   0  0  0  0  0  0  0  0  0  0  0  0
  127.6570  128.2930   67.1350 C   0  0  0  0  0  0  0  0  0  0  0  0
  126.3950  128.9400   67.3660 C   0  0  0  0  0  0  0  0  0  0  0  0
  125.8320  129.0380   68.6130 N   0  0  0  0  0  0  0  0  0  0  0  0
  1  2  1  0
  2  3  1  0
  3  4  2  0
  3  5  1  0
  5  6  1  0
  6  7  1  0
  7  8  2  0
  8  9  1  0
  9 10  1  0
 10 11  2  0
 11 12  1  0
 12 13  2  0
 13 14  1  0
 14 15  1  0
 13 16  1  0
 16 17  2  0
  9 18  2  0
 18 19  1  0
 19 20  1  0
 20 21  2  0
 21 22  1  0
 22 23  2  0
 23 24  1  0
 24 25  1  0
 23 26  1  0
 26 27  2  0
 19 28  2  0
 28 29  1  0
 29 30  1  0
 29  5  2  0
 28  7  1  0
 17 10  1  0
 27 20  1  0
M  END
>  <Binding energies>  (38) 
[-6.57]

>  <Ligand effiencies>  (38) 
[-0.2053125]

>  <Interactions>  (38) 
["V-B:GLU:543:CB:9877, V-B:GLU:543:CD:9879, V-B:HIS:456:CE1:9040, H-A:GLY:454:N:4049, V-A:HIS:456:CE1:4069, H-A:ARG:545:NH1:4926, V-A:GLU:543:CD:4907, V-A:GLY:454:CA:4048, V-B:ARG:545:CZ:9897, H-B:TYR:484:OH:9318, H-B:GLY:454:N:9020, V-B:TYR:484:CZ:9317, V-A:ARG:545:CZ:4925, V-A:GLY:453:CA:4043, V-A:ASP:366:CG:3212, V-A:ARG:545:CD:4922, V-B:GLU:543:C:9873, V-B:GLY:544:C:9883, H-B:ILE:455:N:9025, V-B:GLY:453:CA:9014, V-B:GLY:454:CA:9019, V-A:GLY:453:C:4041, V-A:ILE:369:CD1:3238, H-B:ILE:455:O:9023, V-B:LYS:547:CE:9921, H-B:LYS:547:NZ:9922, V-B:HIS:456:CG:9036, V-B:HIS:456:CD2:9038"]

$$$$
9a_Ghoteimi_2023
     RDKit          3D

 48 54  0  0  0  0  0  0  0  0999 V2000
  124.6490  128.1300   75.5470 C   0  0  0  0  0  0  0  0  0  0  0  0
  125.7490  128.9340   76.2460 C   0  0  0  0  0  0  0  0  0  0  0  0
  126.9420  128.1610   76.2970 O   0  0  0  0  0  0  0  0  0  0  0  0
  128.1070  128.6350   75.7860 C   0  0  0  0  0  0  0  0  0  0  0  0
  128.8910  129.3450   76.4250 O   0  0  0  0  0  0  0  0  0  0  0  0
  128.3460  128.2160   74.3640 C   0  0  0  0  0  0  0  0  0  0  0  0
  129.4020  128.7950   73.6480 C   0  0  0  0  0  0  0  0  0  0  0  0
  129.6480  128.4290   72.3280 C   0  0  0  0  0  0  0  0  0  0  0  0
  128.8480  127.4770   71.6970 C   0  0  0  0  0  0  0  0  0  0  0  0
  129.1890  127.1850   70.3620 N   0  0  0  0  0  0  0  0  0  0  0  0
  129.7580  127.9660   69.4100 C   0  0  0  0  0  0  0  0  0  0  0  0
  130.0900  129.1390   69.5840 O   0  0  0  0  0  0  0  0  0  0  0  0
  129.9750  127.3160   68.1140 C   0  0  0  0  0  0  0  0  0  0  0  0
  130.5810  125.6610   68.0380 S   0  0  0  0  0  0  0  0  0  0  0  0
  130.5300  125.6740   66.2910 C   0  0  0  0  0  0  0  0  0  0  0  0
  130.8800  124.6070   65.5740 N   0  0  0  0  0  0  0  0  0  0  0  0
  130.7940  124.7170   64.2220 C   0  0  0  0  0  0  0  0  0  0  0  0
  131.1810  123.5050   63.4380 C   0  0  0  0  0  0  0  0  0  0  0  0
  130.2960  122.9460   62.5090 C   0  0  0  0  0  0  0  0  0  0  0  0
  130.6500  121.8170   61.7740 C   0  0  0  0  0  0  0  0  0  0  0  0
  131.9070  121.2130   61.9310 C   0  0  0  0  0  0  0  0  0  0  0  0
  132.2680  120.0680   61.2140 N   0  0  0  0  0  0  0  0  0  0  0  0
  131.3670  118.9020   61.1150 C   0  0  0  0  0  0  0  0  0  0  0  0
  132.0590  117.6200   60.6090 C   0  0  0  0  0  0  0  0  0  0  0  0
  132.7040  117.8710   59.3710 O   0  0  0  0  0  0  0  0  0  0  0  0
  133.6930  118.8810   59.4960 C   0  0  0  0  0  0  0  0  0  0  0  0
  133.0440  120.2000   59.9630 C   0  0  0  0  0  0  0  0  0  0  0  0
  132.7840  121.7690   62.8740 C   0  0  0  0  0  0  0  0  0  0  0  0
  132.4290  122.8950   63.6100 C   0  0  0  0  0  0  0  0  0  0  0  0
  130.3860  125.8960   63.5940 C   0  0  0  0  0  0  0  0  0  0  0  0
  130.0370  127.0250   64.3430 C   0  0  0  0  0  0  0  0  0  0  0  0
  129.6460  128.2650   63.6240 C   0  0  0  0  0  0  0  0  0  0  0  0
  128.4300  128.8950   63.9020 C   0  0  0  0  0  0  0  0  0  0  0  0
  128.0710  130.0630   63.2380 C   0  0  0  0  0  0  0  0  0  0  0  0
  128.9280  130.6450   62.2890 C   0  0  0  0  0  0  0  0  0  0  0  0
  128.5850  131.8120   61.6020 N   0  0  0  0  0  0  0  0  0  0  0  0
  127.8310  132.8680   62.3080 C   0  0  0  0  0  0  0  0  0  0  0  0
  127.8520  134.2260   61.5750 C   0  0  0  0  0  0  0  0  0  0  0  0
  127.3790  134.0690   60.2460 O   0  0  0  0  0  0  0  0  0  0  0  0
  128.1820  133.1620   59.5070 C   0  0  0  0  0  0  0  0  0  0  0  0
  128.1710  131.7750   60.1850 C   0  0  0  0  0  0  0  0  0  0  0  0
  130.1470  130.0070   62.0210 C   0  0  0  0  0  0  0  0  0  0  0  0
  130.5040  128.8350   62.6820 C   0  0  0  0  0  0  0  0  0  0  0  0
  130.0850  126.9210   65.7630 C   0  0  0  0  0  0  0  0  0  0  0  0
  129.7520  127.8330   66.8290 C   0  0  0  0  0  0  0  0  0  0  0  0
  129.2480  129.0870   66.5960 N   0  0  0  0  0  0  0  0  0  0  0  0
  127.7900  126.8880   72.4070 C   0  0  0  0  0  0  0  0  0  0  0  0
  127.5450  127.2560   73.7280 C   0  0  0  0  0  0  0  0  0  0  0  0
  1  2  1  0
  2  3  1  0
  3  4  1  0
  4  5  2  0
  4  6  1  0
  6  7  2  0
  7  8  1  0
  8  9  2  0
  9 10  1  0
 10 11  1  0
 11 12  2  0
 11 13  1  0
 13 14  1  0
 14 15  1  0
 15 16  2  0
 16 17  1  0
 17 18  1  0
 18 19  2  0
 19 20  1  0
 20 21  2  0
 21 22  1  0
 22 23  1  0
 23 24  1  0
 24 25  1  0
 25 26  1  0
 26 27  1  0
 21 28  1  0
 28 29  2  0
 17 30  2  0
 30 31  1  0
 31 32  1  0
 32 33  2  0
 33 34  1  0
 34 35  2  0
 35 36  1  0
 36 37  1  0
 37 38  1  0
 38 39  1  0
 39 40  1  0
 40 41  1  0
 35 42  1  0
 42 43  2  0
 31 44  2  0
 44 45  1  0
 45 46  1  0
  9 47  1  0
 47 48  2  0
 48  6  1  0
 45 13  2  0
 44 15  1  0
 29 18  1  0
 43 32  1  0
 27 22  1  0
 41 36  1  0
M  END
>  <Binding energies>  (39) 
[-8.62]

>  <Ligand effiencies>  (39) 
[-0.16901960784313724]

>  <Interactions>  (39) 
["V-A:GLU:543:CB:4905, V-A:GLU:543:CG:4906, V-B:GLU:543:CD:9879, V-B:HIS:456:CE1:9040, V-A:ALA:541:CB:4891, V-A:HIS:456:CE1:4069, V-A:TYR:539:CD1:4872, V-A:GLU:543:CD:4907, V-A:GLY:454:CA:4048, V-A:TYR:484:CZ:4346, V-B:TYR:539:CE2:9847, V-B:TYR:539:CD2:9845, H-A:TYR:484:OH:4347, V-A:TYR:539:CE1:4874, H-A:GLU:543:OE2:4909, V-A:LEU:373:CD2:3280, V-A:ILE:369:CG2:3236, V-A:SER:385:CA:3406, V-A:TYR:484:CE2:4345, V-A:LEU:475:CD2:4258, V-A:TYR:539:C:4866, H-A:HIS:456:NE2:4070, H-B:GLU:543:O:9874, V-B:LYS:547:CE:9921, H-A:GLU:543:OE1:4908, H-A:HIS:383:ND1:3390, V-A:HIS:383:CE1:3393, H-A:LYS:547:NZ:4950, H-B:LYS:547:NZ:9922, V-A:HIS:456:CD2:4067, V-A:VAL:384:C:3396, V-B:HIS:456:CG:9036, V-B:HIS:456:CD2:9038, V-B:HIS:456:CB:9035, V-B:LYS:547:CD:9920, V-B:VAL:458:CG2:9057"]

$$$$
9b_Ghoteimi_2023
     RDKit          3D

 42 48  0  0  0  0  0  0  0  0999 V2000
  130.1250  125.9040   67.5900 N   0  0  0  0  0  0  0  0  0  0  0  0
  129.4630  127.0920   67.7730 C   0  0  0  0  0  0  0  0  0  0  0  0
  128.9850  127.5270   69.0180 C   0  0  0  0  0  0  0  0  0  0  0  0
  129.0980  126.8680   70.3220 C   0  0  0  0  0  0  0  0  0  0  0  0
  128.9420  125.6490   70.4260 O   0  0  0  0  0  0  0  0  0  0  0  0
  129.3730  127.6870   71.3670 N   0  0  0  0  0  0  0  0  0  0  0  0
  129.5220  127.3350   72.7030 C   0  0  0  0  0  0  0  0  0  0  0  0
  130.3360  128.0390   73.5890 C   0  0  0  0  0  0  0  0  0  0  0  0
  130.2070  127.3830   74.7910 C   0  0  0  0  0  0  0  0  0  0  0  0
  129.3590  126.3380   74.6360 O   0  0  0  0  0  0  0  0  0  0  0  0
  128.9320  126.3180   73.3080 N   0  0  0  0  0  0  0  0  0  0  0  0
  128.1590  129.0780   68.8770 S   0  0  0  0  0  0  0  0  0  0  0  0
  128.4430  129.1250   67.1540 C   0  0  0  0  0  0  0  0  0  0  0  0
  127.9970  130.1270   66.3990 N   0  0  0  0  0  0  0  0  0  0  0  0
  128.2560  130.0590   65.0670 C   0  0  0  0  0  0  0  0  0  0  0  0
  127.7260  131.1850   64.2400 C   0  0  0  0  0  0  0  0  0  0  0  0
  126.3580  131.4830   64.2150 C   0  0  0  0  0  0  0  0  0  0  0  0
  125.8680  132.5240   63.4320 C   0  0  0  0  0  0  0  0  0  0  0  0
  126.7260  133.2960   62.6330 C   0  0  0  0  0  0  0  0  0  0  0  0
  126.2480  134.3480   61.8430 N   0  0  0  0  0  0  0  0  0  0  0  0
  125.3410  134.1040   60.7040 C   0  0  0  0  0  0  0  0  0  0  0  0
  124.6500  135.3770   60.1740 C   0  0  0  0  0  0  0  0  0  0  0  0
  125.6220  136.3550   59.8460 O   0  0  0  0  0  0  0  0  0  0  0  0
  126.3910  136.7240   60.9790 C   0  0  0  0  0  0  0  0  0  0  0  0
  127.1340  135.4920   61.5400 C   0  0  0  0  0  0  0  0  0  0  0  0
  128.0970  133.0060   62.6780 C   0  0  0  0  0  0  0  0  0  0  0  0
  128.5880  131.9670   63.4640 C   0  0  0  0  0  0  0  0  0  0  0  0
  128.9810  129.0070   64.5000 C   0  0  0  0  0  0  0  0  0  0  0  0
  129.4700  127.9620   65.2930 C   0  0  0  0  0  0  0  0  0  0  0  0
  130.2600  126.8840   64.6460 C   0  0  0  0  0  0  0  0  0  0  0  0
  131.5650  126.6200   65.0640 C   0  0  0  0  0  0  0  0  0  0  0  0
  132.3020  125.5980   64.4740 C   0  0  0  0  0  0  0  0  0  0  0  0
  131.7530  124.8110   63.4490 C   0  0  0  0  0  0  0  0  0  0  0  0
  132.4700  123.7700   62.8530 N   0  0  0  0  0  0  0  0  0  0  0  0
  132.6510  122.5040   63.5900 C   0  0  0  0  0  0  0  0  0  0  0  0
  133.7700  121.6150   63.0060 C   0  0  0  0  0  0  0  0  0  0  0  0
  133.5230  121.3650   61.6310 O   0  0  0  0  0  0  0  0  0  0  0  0
  133.4780  122.5670   60.8770 C   0  0  0  0  0  0  0  0  0  0  0  0
  132.3550  123.4830   61.4090 C   0  0  0  0  0  0  0  0  0  0  0  0
  130.4340  125.0740   63.0500 C   0  0  0  0  0  0  0  0  0  0  0  0
  129.6980  126.0970   63.6410 C   0  0  0  0  0  0  0  0  0  0  0  0
  129.1800  127.9960   66.6860 C   0  0  0  0  0  0  0  0  0  0  0  0
  1  2  1  0
  2  3  2  0
  3  4  1  0
  4  5  2  0
  4  6  1  0
  6  7  1  0
  7  8  1  0
  8  9  2  0
  9 10  1  0
 10 11  1  0
  3 12  1  0
 12 13  1  0
 13 14  2  0
 14 15  1  0
 15 16  1  0
 16 17  2  0
 17 18  1  0
 18 19  2  0
 19 20  1  0
 20 21  1  0
 21 22  1  0
 22 23  1  0
 23 24  1  0
 24 25  1  0
 19 26  1  0
 26 27  2  0
 15 28  2  0
 28 29  1  0
 29 30  1  0
 30 31  2  0
 31 32  1  0
 32 33  2  0
 33 34  1  0
 34 35  1  0
 35 36  1  0
 36 37  1  0
 37 38  1  0
 38 39  1  0
 33 40  1  0
 40 41  2  0
 29 42  2  0
 42  2  1  0
 11  7  2  0
 42 13  1  0
 27 16  1  0
 41 30  1  0
 25 20  1  0
 39 34  1  0
M  END
>  <Binding energies>  (40) 
[-8.29]

>  <Ligand effiencies>  (40) 
[-0.1842222222222222]

>  <Interactions>  (40) 
["V-A:GLU:543:CB:4905, V-A:GLU:543:CG:4906, V-B:GLU:543:CD:9879, V-B:HIS:456:CE1:9040, V-B:SER:385:CB:8379, H-B:SER:385:OG:8380, V-A:ALA:541:CB:4891, V-A:HIS:456:CE1:4069, V-A:TYR:539:CD1:4872, V-A:GLU:543:CD:4907, V-A:GLY:454:CA:4048, V-B:LEU:475:CD1:9228, H-B:TYR:484:OH:9318, V-B:ILE:369:CG2:8207, V-B:TYR:484:CE2:9316, V-A:ARG:545:CZ:4925, H-A:TYR:484:OH:4347, V-A:TYR:539:CE1:4874, V-A:ILE:369:CG2:3236, V-A:TYR:484:CE2:4345, V-A:LEU:475:CD2:4258, V-B:SER:385:CA:8377, H-B:GLU:543:OE2:9881, V-A:ILE:369:CD1:3238, V-A:SER:385:C:3404, H-A:HIS:456:NE2:4070, H-B:LYS:547:NZ:9922, V-A:TYR:539:CB:4870, H-A:GLU:543:O:4902, H-B:HIS:456:NE2:9041, H-B:HIS:383:NE2:8364"]

$$$$
9c_Ghoteimi_2023
     RDKit          3D

 42 48  0  0  0  0  0  0  0  0999 V2000
  131.3180  125.7130   61.5650 N   0  0  0  0  0  0  0  0  0  0  0  0
  131.4000  125.1370   62.8080 C   0  0  0  0  0  0  0  0  0  0  0  0
  131.9040  123.8460   63.0300 C   0  0  0  0  0  0  0  0  0  0  0  0
  132.4390  122.8930   62.0520 C   0  0  0  0  0  0  0  0  0  0  0  0
  133.1790  123.2720   61.1420 O   0  0  0  0  0  0  0  0  0  0  0  0
  132.0560  121.6040   62.2270 N   0  0  0  0  0  0  0  0  0  0  0  0
  132.4050  120.5160   61.4390 C   0  0  0  0  0  0  0  0  0  0  0  0
  133.5150  120.3350   60.7560 N   0  0  0  0  0  0  0  0  0  0  0  0
  133.5060  119.1830   60.1140 C   0  0  0  0  0  0  0  0  0  0  0  0
  132.3660  118.4000   60.2700 C   0  0  0  0  0  0  0  0  0  0  0  0
  131.2510  119.2260   61.3170 S   0  0  0  0  0  0  0  0  0  0  0  0
  131.8340  123.4190   64.7390 S   0  0  0  0  0  0  0  0  0  0  0  0
  131.1160  124.9610   65.1410 C   0  0  0  0  0  0  0  0  0  0  0  0
  130.7720  125.2660   66.3920 N   0  0  0  0  0  0  0  0  0  0  0  0
  130.2050  126.4830   66.5950 C   0  0  0  0  0  0  0  0  0  0  0  0
  129.8090  126.7910   68.0030 C   0  0  0  0  0  0  0  0  0  0  0  0
  129.9480  128.0810   68.5300 C   0  0  0  0  0  0  0  0  0  0  0  0
  129.5860  128.3600   69.8440 C   0  0  0  0  0  0  0  0  0  0  0  0
  129.0840  127.3550   70.6860 C   0  0  0  0  0  0  0  0  0  0  0  0
  128.7090  127.6210   72.0080 N   0  0  0  0  0  0  0  0  0  0  0  0
  129.7070  128.0020   73.0280 C   0  0  0  0  0  0  0  0  0  0  0  0
  129.0910  128.5910   74.3140 C   0  0  0  0  0  0  0  0  0  0  0  0
  128.1370  127.6890   74.8510 O   0  0  0  0  0  0  0  0  0  0  0  0
  127.0790  127.4470   73.9370 C   0  0  0  0  0  0  0  0  0  0  0  0
  127.6330  126.8270   72.6360 C   0  0  0  0  0  0  0  0  0  0  0  0
  128.9290  126.0690   70.1470 C   0  0  0  0  0  0  0  0  0  0  0  0
  129.2870  125.7920   68.8310 C   0  0  0  0  0  0  0  0  0  0  0  0
  130.0110  127.3990   65.5580 C   0  0  0  0  0  0  0  0  0  0  0  0
  130.3910  127.0920   64.2470 C   0  0  0  0  0  0  0  0  0  0  0  0
  130.1930  128.1100   63.1860 C   0  0  0  0  0  0  0  0  0  0  0  0
  128.9510  128.7260   63.0240 C   0  0  0  0  0  0  0  0  0  0  0  0
  128.7650  129.6940   62.0410 C   0  0  0  0  0  0  0  0  0  0  0  0
  129.8180  130.0710   61.1920 C   0  0  0  0  0  0  0  0  0  0  0  0
  129.6580  131.0490   60.2060 N   0  0  0  0  0  0  0  0  0  0  0  0
  128.7980  132.2170   60.4830 C   0  0  0  0  0  0  0  0  0  0  0  0
  128.3980  132.9950   59.2100 C   0  0  0  0  0  0  0  0  0  0  0  0
  129.5610  133.3850   58.4950 O   0  0  0  0  0  0  0  0  0  0  0  0
  130.3350  132.2640   58.1000 C   0  0  0  0  0  0  0  0  0  0  0  0
  130.7810  131.4630   59.3430 C   0  0  0  0  0  0  0  0  0  0  0  0
  131.0670  129.4610   61.3790 C   0  0  0  0  0  0  0  0  0  0  0  0
  131.2530  128.4930   62.3620 C   0  0  0  0  0  0  0  0  0  0  0  0
  130.9550  125.8070   64.0040 C   0  0  0  0  0  0  0  0  0  0  0  0
  1  2  1  0
  2  3  2  0
  3  4  1  0
  4  5  2  0
  4  6  1  0
  6  7  1  0
  7  8  2  0
  8  9  1  0
  9 10  2  0
 10 11  1  0
  3 12  1  0
 12 13  1  0
 13 14  2  0
 14 15  1  0
 15 16  1  0
 16 17  2  0
 17 18  1  0
 18 19  2  0
 19 20  1  0
 20 21  1  0
 21 22  1  0
 22 23  1  0
 23 24  1  0
 24 25  1  0
 19 26  1  0
 26 27  2  0
 15 28  2  0
 28 29  1  0
 29 30  1  0
 30 31  2  0
 31 32  1  0
 32 33  2  0
 33 34  1  0
 34 35  1  0
 35 36  1  0
 36 37  1  0
 37 38  1  0
 38 39  1  0
 33 40  1  0
 40 41  2  0
 29 42  2  0
 42  2  1  0
 11  7  1  0
 42 13  1  0
 27 16  1  0
 41 30  1  0
 25 20  1  0
 39 34  1  0
M  END
>  <Binding energies>  (41) 
[-8.34]

>  <Ligand effiencies>  (41) 
[-0.18533333333333332]

>  <Interactions>  (41) 
["V-A:GLU:543:CB:4905, V-B:GLU:543:CB:9877, V-B:GLU:543:CD:9879, V-B:HIS:456:CE1:9040, V-A:HIS:456:CE1:4069, V-A:TYR:539:CD1:4872, V-A:GLU:543:CD:4907, V-A:TYR:484:CZ:4346, H-A:ASP:366:OD1:3213, V-A:ASP:366:CG:3212, V-B:TYR:539:CD2:9845, H-A:TYR:484:OH:4347, V-A:TYR:539:CE1:4874, V-A:SER:385:CB:3408, V-A:ILE:369:CG2:3236, V-A:SER:385:CA:3406, V-A:TYR:484:CE2:4345, V-A:LEU:475:CD2:4258, H-A:ASP:366:OD2:3214, V-A:TYR:539:C:4866, V-B:LYS:547:CE:9921, H-B:LYS:547:NZ:9922, V-A:VAL:384:C:3396, V-B:HIS:456:CG:9036, V-B:HIS:456:CD2:9038"]

$$$$
RR11_Rahimova_2017
     RDKit          3D

 33 38  0  0  0  0  0  0  0  0999 V2000
  134.6310  130.4720   57.5930 N   0  0  0  0  0  0  0  0  0  0  0  0
  133.4790  130.8890   58.2570 C   0  0  0  0  0  0  0  0  0  0  0  0
  132.6190  131.8030   57.6500 C   0  0  0  0  0  0  0  0  0  0  0  0
  131.4680  132.2160   58.3130 C   0  0  0  0  0  0  0  0  0  0  0  0
  131.1650  131.7220   59.5890 C   0  0  0  0  0  0  0  0  0  0  0  0
  129.9210  132.1640   60.3000 C   0  0  0  0  0  0  0  0  0  0  0  0
  128.9260  131.3670   60.6220 N   0  0  0  0  0  0  0  0  0  0  0  0
  128.0140  132.1660   61.2610 C   0  0  0  0  0  0  0  0  0  0  0  0
  126.7730  131.8250   61.8170 C   0  0  0  0  0  0  0  0  0  0  0  0
  126.0240  132.8310   62.4390 C   0  0  0  0  0  0  0  0  0  0  0  0
  124.6700  132.4910   63.0480 C   0  0  0  0  0  0  0  0  0  0  0  0
  124.7340  131.3290   64.0290 C   0  0  0  0  0  0  0  0  0  0  0  0
  123.7190  130.3660   64.0230 C   0  0  0  0  0  0  0  0  0  0  0  0
  123.7380  129.2770   64.8970 C   0  0  0  0  0  0  0  0  0  0  0  0
  124.8140  129.1640   65.7870 C   0  0  0  0  0  0  0  0  0  0  0  0
  125.0580  128.2060   66.7370 N   0  0  0  0  0  0  0  0  0  0  0  0
  126.1910  128.5600   67.3040 C   0  0  0  0  0  0  0  0  0  0  0  0
  126.8510  127.8090   68.4240 C   0  0  0  0  0  0  0  0  0  0  0  0
  126.0830  127.2390   69.4470 C   0  0  0  0  0  0  0  0  0  0  0  0
  126.6950  126.5510   70.4920 C   0  0  0  0  0  0  0  0  0  0  0  0
  128.0820  126.4270   70.5200 C   0  0  0  0  0  0  0  0  0  0  0  0
  128.6970  125.7430   71.5680 N   0  0  0  0  0  0  0  0  0  0  0  0
  128.8590  126.9850   69.5070 C   0  0  0  0  0  0  0  0  0  0  0  0
  128.2450  127.6730   68.4640 C   0  0  0  0  0  0  0  0  0  0  0  0
  126.7040  129.7160   66.7550 N   0  0  0  0  0  0  0  0  0  0  0  0
  125.8400  130.1390   65.7730 C   0  0  0  0  0  0  0  0  0  0  0  0
  125.8290  131.2280   64.8970 C   0  0  0  0  0  0  0  0  0  0  0  0
  126.4930  134.1490   62.4800 C   0  0  0  0  0  0  0  0  0  0  0  0
  127.7220  134.5210   61.9300 C   0  0  0  0  0  0  0  0  0  0  0  0
  128.4670  133.5050   61.3270 C   0  0  0  0  0  0  0  0  0  0  0  0
  129.6900  133.4650   60.6990 N   0  0  0  0  0  0  0  0  0  0  0  0
  132.0390  130.8050   60.1890 C   0  0  0  0  0  0  0  0  0  0  0  0
  133.1910  130.3900   59.5270 C   0  0  0  0  0  0  0  0  0  0  0  0
  1  2  1  0
  2  3  2  0
  3  4  1  0
  4  5  2  0
  5  6  1  0
  6  7  2  0
  7  8  1  0
  8  9  2  0
  9 10  1  0
 10 11  1  0
 11 12  1  0
 12 13  2  0
 13 14  1  0
 14 15  2  0
 15 16  1  0
 16 17  2  0
 17 18  1  0
 18 19  2  0
 19 20  1  0
 20 21  2  0
 21 22  1  0
 21 23  1  0
 23 24  2  0
 17 25  1  0
 25 26  1  0
 26 27  2  0
 10 28  2  0
 28 29  1  0
 29 30  2  0
 30 31  1  0
  5 32  1  0
 32 33  2  0
 33  2  1  0
 31  6  1  0
 30  8  1  0
 27 12  1  0
 26 15  1  0
 24 18  1  0
M  END
>  <Binding energies>  (42) 
[-8.55]

>  <Ligand effiencies>  (42) 
[-0.21923076923076926]

>  <Interactions>  (42) 
["V-B:ARG:545:CG:9893, V-B:GLU:543:CB:9877, V-B:GLU:543:CD:9879, V-B:HIS:456:CE1:9040, V-A:ALA:541:CB:4891, V-A:HIS:456:CE1:4069, H-A:TYR:539:O:4867, V-B:LEU:475:CD1:9228, V-B:ARG:545:CZ:9897, H-B:TYR:484:OH:9318, V-B:ARG:545:CD:9894, V-B:TYR:484:CZ:9317, V-A:ASP:366:CG:3212, V-B:GLU:543:C:9873, V-B:GLY:544:C:9883, V-A:PRO:540:C:4880, H-B:ARG:545:NE:9895, V-A:PRO:540:CB:4884, V-A:PRO:540:CA:4882, V-B:GLY:453:C:9012, V-B:GLY:453:CA:9014, V-B:ARG:545:CA:9890, V-A:LEU:363:CA:3184, V-A:TYR:531:CE2:4792, V-A:LEU:363:CD1:3188, V-A:PRO:540:N:4883, V-B:GLY:454:CA:9019, V-A:TYR:539:C:4866, V-A:ASP:366:CB:3211, H-A:TYR:531:OH:4794, H-A:HIS:456:NE2:4070, H-B:GLU:543:O:9874, V-A:TYR:531:CZ:4793, V-A:LEU:363:C:3182, H-A:LEU:363:O:3183"]

$$$$
RR16_Rahimova_2017
     RDKit          3D

 44 49  0  0  0  0  0  0  0  0999 V2000
  130.2140  124.1220   58.6020 O   0  0  0  0  0  0  0  0  0  0  0  0
  131.4440  124.7550   59.0920 S   0  0  0  0  0  0  0  0  0  0  0  0
  132.6380  124.8360   58.2430 O   0  0  0  0  0  0  0  0  0  0  0  0
  131.8940  123.9490   60.5960 N   0  0  0  0  0  0  0  0  0  0  0  0
  131.8980  122.4710   60.6960 C   0  0  0  0  0  0  0  0  0  0  0  0
  133.3200  121.9910   61.0880 C   0  0  0  0  0  0  0  0  0  0  0  0
  133.4450  120.5890   61.7150 C   0  0  0  0  0  0  0  0  0  0  0  0
  132.5370  119.5300   61.0630 C   0  0  0  0  0  0  0  0  0  0  0  0
  131.1060  119.4420   61.6200 C   0  0  0  0  0  0  0  0  0  0  0  0
  130.1740  120.6440   61.3680 C   0  0  0  0  0  0  0  0  0  0  0  0
  130.7590  122.0410   61.6490 C   0  0  0  0  0  0  0  0  0  0  0  0
  131.0090  126.4170   59.5900 C   0  0  0  0  0  0  0  0  0  0  0  0
  130.5770  126.6730   60.8940 C   0  0  0  0  0  0  0  0  0  0  0  0
  130.1260  127.9450   61.2340 C   0  0  0  0  0  0  0  0  0  0  0  0
  130.1090  128.9550   60.2700 C   0  0  0  0  0  0  0  0  0  0  0  0
  129.3980  130.5510   60.6640 S   0  0  0  0  0  0  0  0  0  0  0  0
  128.4870  130.9090   59.5690 O   0  0  0  0  0  0  0  0  0  0  0  0
  130.5030  131.4460   61.0310 O   0  0  0  0  0  0  0  0  0  0  0  0
  128.4280  130.2470   62.1180 N   0  0  0  0  0  0  0  0  0  0  0  0
  128.1760  131.4500   62.9540 C   0  0  0  0  0  0  0  0  0  0  0  0
  127.6080  131.0440   64.3290 C   0  0  0  0  0  0  0  0  0  0  0  0
  126.3630  130.1330   64.1900 C   0  0  0  0  0  0  0  0  0  0  0  0
  125.8120  129.6800   65.5440 C   0  0  0  0  0  0  0  0  0  0  0  0
  124.4870  129.9810   65.8910 C   0  0  0  0  0  0  0  0  0  0  0  0
  123.9410  129.5810   67.1120 C   0  0  0  0  0  0  0  0  0  0  0  0
  122.6420  129.8810   67.4330 O   0  0  0  0  0  0  0  0  0  0  0  0
  124.7550  128.8590   67.9970 C   0  0  0  0  0  0  0  0  0  0  0  0
  124.4930  128.3320   69.2290 N   0  0  0  0  0  0  0  0  0  0  0  0
  125.6350  127.6900   69.6560 N   0  0  0  0  0  0  0  0  0  0  0  0
  126.5930  127.8580   68.7240 N   0  0  0  0  0  0  0  0  0  0  0  0
  127.8880  127.2080   68.8770 C   0  0  0  0  0  0  0  0  0  0  0  0
  128.3540  127.1610   70.3250 C   0  0  0  0  0  0  0  0  0  0  0  0
  128.0000  126.0820   71.1420 C   0  0  0  0  0  0  0  0  0  0  0  0
  128.4450  126.0260   72.4630 C   0  0  0  0  0  0  0  0  0  0  0  0
  129.2460  127.0470   72.9740 C   0  0  0  0  0  0  0  0  0  0  0  0
  129.6050  128.1250   72.1650 C   0  0  0  0  0  0  0  0  0  0  0  0
  130.6050  129.3840   72.7910 Cl  0  0  0  0  0  0  0  0  0  0  0  0
  129.1560  128.1840   70.8430 C   0  0  0  0  0  0  0  0  0  0  0  0
  126.0930  128.5660   67.6430 C   0  0  0  0  0  0  0  0  0  0  0  0
  126.6430  128.9700   66.4220 C   0  0  0  0  0  0  0  0  0  0  0  0
  126.6050  128.9510   63.2140 C   0  0  0  0  0  0  0  0  0  0  0  0
  127.2140  129.4230   61.8790 C   0  0  0  0  0  0  0  0  0  0  0  0
  130.5800  128.7090   58.9780 C   0  0  0  0  0  0  0  0  0  0  0  0
  131.0270  127.4370   58.6370 C   0  0  0  0  0  0  0  0  0  0  0  0
  1  2  2  0
  2  3  2  0
  2  4  1  0
  4  5  1  0
  5  6  1  0
  6  7  1  0
  7  8  1  0
  8  9  1  0
  9 10  1  0
 10 11  1  0
  2 12  1  0
 12 13  2  0
 13 14  1  0
 14 15  2  0
 15 16  1  0
 16 17  2  0
 16 18  2  0
 16 19  1  0
 19 20  1  0
 20 21  1  0
 21 22  1  0
 22 23  1  0
 23 24  2  0
 24 25  1  0
 25 26  1  0
 25 27  2  0
 27 28  1  0
 28 29  2  0
 29 30  1  0
 30 31  1  0
 31 32  1  0
 32 33  2  0
 33 34  1  0
 34 35  2  0
 35 36  1  0
 36 37  1  0
 36 38  2  0
 30 39  1  0
 39 40  2  0
 22 41  1  0
 41 42  1  0
 15 43  1  0
 43 44  2  0
 11  5  1  0
 44 12  1  0
 42 19  1  0
 40 23  1  0
 39 27  1  0
 38 32  1  0
M  END
>  <Binding energies>  (43) 
[-9.29]

>  <Ligand effiencies>  (43) 
[-0.19354166666666664]

>  <Interactions>  (43) 
["V-B:ARG:545:CG:9893, V-B:GLU:543:CB:9877, V-B:GLU:543:CD:9879, V-B:HIS:456:CE1:9040, V-A:HIS:456:CE1:4069, H-B:TYR:484:OH:9318, V-B:ARG:545:CD:9894, H-B:GLY:454:N:9020, V-B:ALA:541:CB:9863, V-A:ASP:366:CG:3212, V-B:TYR:539:CE2:9847, V-B:GLU:543:C:9873, V-B:TYR:539:CZ:9848, V-B:TYR:539:CD2:9845, H-B:ILE:455:N:9025, H-B:ARG:545:N:9891, V-A:SER:385:CB:3408, V-A:ILE:369:CG2:3236, V-A:SER:385:CA:3406, V-A:LEU:475:CD2:4258, H-A:ASP:366:OD2:3214, V-B:GLY:454:CA:9019, V-A:ASP:366:CB:3211, V-A:ILE:369:CD1:3238, V-A:SER:385:C:3404, H-B:ILE:455:O:9023, H-B:HIS:456:ND1:9037, V-A:GLY:544:C:4911, V-A:GLY:544:CA:4913, H-B:TYR:539:OH:9849"]

$$$$
RR18_Rahimova_2017
     RDKit          3D

 36 41  0  0  0  0  0  0  0  0999 V2000
  129.3150  127.4170   60.0050 C   0  0  0  0  0  0  0  0  0  0  0  0
  129.4740  127.7820   61.4590 C   0  0  0  0  0  0  0  0  0  0  0  0
  129.9280  127.1070   62.5800 C   0  0  0  0  0  0  0  0  0  0  0  0
  129.8310  127.9940   63.6520 C   0  0  0  0  0  0  0  0  0  0  0  0
  129.3210  129.1790   63.1480 C   0  0  0  0  0  0  0  0  0  0  0  0
  128.9810  130.5320   63.7660 C   0  0  1  0  0  0  0  0  0  0  0  0
  128.9000  131.6510   62.6850 C   0  0  0  0  0  0  0  0  0  0  0  0
  130.0890  132.0410   61.9340 C   0  0  0  0  0  0  0  0  0  0  0  0
  130.7890  132.9960   62.2750 O   0  0  0  0  0  0  0  0  0  0  0  0
  130.3500  131.2570   60.8620 N   0  0  0  0  0  0  0  0  0  0  0  0
  131.3830  131.3360   59.9030 C   0  0  0  0  0  0  0  0  0  0  0  0
  132.5980  130.6360   60.0140 C   0  0  0  0  0  0  0  0  0  0  0  0
  133.5820  130.7630   59.0340 C   0  0  0  0  0  0  0  0  0  0  0  0
  133.3710  131.5910   57.9360 C   0  0  0  0  0  0  0  0  0  0  0  0
  132.1770  132.2990   57.8190 C   0  0  0  0  0  0  0  0  0  0  0  0
  131.1810  132.1810   58.7930 C   0  0  0  0  0  0  0  0  0  0  0  0
  129.8930  132.9820   58.6200 C   0  0  0  0  0  0  0  0  0  0  0  0
  127.6820  132.1760   62.3880 C   0  0  0  0  0  0  0  0  0  0  0  0
  126.5280  131.8850   63.0500 N   0  0  0  0  0  0  0  0  0  0  0  0
  126.5670  131.1250   64.0810 C   0  0  0  0  0  0  0  0  0  0  0  0
  125.2000  130.7850   65.1160 S   0  0  0  0  0  0  0  0  0  0  0  0
  126.2010  129.7580   66.1890 C   0  0  0  0  0  0  0  0  0  0  0  0
  125.7900  129.0880   67.3210 C   0  0  0  0  0  0  0  0  0  0  0  0
  124.4130  129.2400   67.8140 C   0  0  0  0  0  0  0  0  0  0  0  0
  123.4740  129.8880   67.3540 O   0  0  0  0  0  0  0  0  0  0  0  0
  124.3130  128.5290   68.9420 N   0  0  0  0  0  0  0  0  0  0  0  0
  125.4640  127.8750   69.2620 C   0  0  0  0  0  0  0  0  0  0  0  0
  125.6980  127.0410   70.3550 C   0  0  0  0  0  0  0  0  0  0  0  0
  126.9460  126.4390   70.4860 C   0  0  0  0  0  0  0  0  0  0  0  0
  127.9270  126.6700   69.5240 C   0  0  0  0  0  0  0  0  0  0  0  0
  127.6690  127.5100   68.4380 C   0  0  0  0  0  0  0  0  0  0  0  0
  126.4210  128.1470   68.3000 C   0  0  0  0  0  0  0  0  0  0  0  0
  127.5680  129.7550   65.6660 C   0  0  0  0  0  0  0  0  0  0  0  0
  128.5400  129.2010   66.1700 O   0  0  0  0  0  0  0  0  0  0  0  0
  127.6780  130.4790   64.5190 N   0  0  0  0  0  0  0  0  0  0  0  0
  129.1060  129.0420   61.8120 O   0  0  0  0  0  0  0  0  0  0  0  0
  1  2  1  0
  2  3  2  0
  3  4  1  0
  4  5  2  0
  6  5  1  6
  6  7  1  0
  7  8  1  0
  8  9  2  0
  8 10  1  0
 10 11  1  0
 11 12  2  0
 12 13  1  0
 13 14  2  0
 14 15  1  0
 15 16  2  0
 16 17  1  0
  7 18  2  0
 18 19  1  0
 19 20  2  0
 20 21  1  0
 21 22  1  0
 22 23  2  0
 23 24  1  0
 24 25  2  0
 24 26  1  0
 26 27  1  0
 27 28  2  0
 28 29  1  0
 29 30  2  0
 30 31  1  0
 31 32  2  0
 22 33  1  0
 33 34  2  0
 33 35  1  0
  5 36  1  0
 36  2  1  0
 35  6  1  0
 16 11  1  0
 35 20  1  0
 32 23  1  0
 32 27  1  0
M  END
>  <Binding energies>  (44) 
[-9.29]

>  <Ligand effiencies>  (44) 
[-0.2444736842105263]

>  <Interactions>  (44) 
["V-B:ARG:545:CG:9893, V-B:GLU:543:CB:9877, V-A:GLU:543:CG:4906, V-B:GLU:543:CD:9879, V-B:HIS:456:CE1:9040, V-A:TYR:539:CD1:4872, V-A:GLU:543:CD:4907, H-B:TYR:484:OH:9318, V-B:ARG:545:CD:9894, H-B:GLY:454:N:9020, V-B:TYR:484:CZ:9317, V-A:ASP:366:CG:3212, V-B:GLU:543:C:9873, V-B:GLY:544:C:9883, V-A:ASN:362:C:3171, H-B:ILE:455:N:9025, V-A:PRO:540:CB:4884, V-A:PRO:540:CA:4882, H-A:ALA:541:N:4890, V-B:ARG:545:CA:9890, V-B:ARG:545:CB:9892, V-A:LEU:363:CA:3184, V-A:TYR:531:CE2:4792, V-A:LEU:363:CD1:3188, V-A:PRO:540:N:4883, V-B:GLY:454:CA:9019, V-A:TYR:539:C:4866, V-A:ASP:366:CB:3211, H-B:ILE:455:O:9023, V-B:GLU:543:CA:9875, V-A:TYR:531:CZ:4793"]

$$$$
RR20_Rahimova_2017
     RDKit          3D

 38 43  0  0  0  0  0  0  0  0999 V2000
  135.2140  124.4860   76.7430 C   0  0  0  0  0  0  0  0  0  0  0  0
  134.1510  125.3440   76.0820 C   0  0  0  0  0  0  0  0  0  0  0  0
  134.4910  126.5920   75.5600 C   0  0  0  0  0  0  0  0  0  0  0  0
  133.5190  127.3770   74.9450 C   0  0  0  0  0  0  0  0  0  0  0  0
  132.1970  126.9260   74.8600 C   0  0  0  0  0  0  0  0  0  0  0  0
  131.1600  127.7860   74.1700 C   0  0  0  0  0  0  0  0  0  0  0  0
  131.0970  128.9740   74.4930 O   0  0  0  0  0  0  0  0  0  0  0  0
  130.3540  127.2280   73.2190 N   0  0  0  0  0  0  0  0  0  0  0  0
  129.4770  126.0870   73.5250 C   0  0  0  0  0  0  0  0  0  0  0  0
  128.6340  125.8500   72.2830 C   0  0  0  0  0  0  0  0  0  0  0  0
  128.8320  127.1120   71.5000 C   0  0  0  0  0  0  0  0  0  0  0  0
  128.2330  127.5060   70.3020 C   0  0  0  0  0  0  0  0  0  0  0  0
  128.6690  128.6560   69.6320 C   0  0  0  0  0  0  0  0  0  0  0  0
  128.0190  129.0870   68.3470 C   0  0  0  0  0  0  0  0  0  0  0  0
  128.5400  130.1110   67.6910 N   0  0  0  0  0  0  0  0  0  0  0  0
  127.9070  130.3860   66.5790 C   0  0  0  0  0  0  0  0  0  0  0  0
  128.1910  131.3830   65.6580 N   0  0  0  0  0  0  0  0  0  0  0  0
  128.3840  131.2300   64.3250 C   0  0  0  0  0  0  0  0  0  0  0  0
  128.3090  130.1490   63.7370 O   0  0  0  0  0  0  0  0  0  0  0  0
  128.6930  132.4930   63.4860 C   0  0  0  0  0  0  0  0  0  0  0  0
  129.4490  132.1960   62.2560 N   0  0  0  0  0  0  0  0  0  0  0  0
  129.1430  133.1370   61.1680 C   0  0  0  0  0  0  0  0  0  0  0  0
  129.7480  132.6290   59.8390 C   0  0  0  0  0  0  0  0  0  0  0  0
  131.1930  132.1530   59.9840 C   0  0  0  0  0  0  0  0  0  0  0  0
  131.9900  131.9140   58.8590 C   0  0  0  0  0  0  0  0  0  0  0  0
  133.2940  131.4430   58.9900 C   0  0  0  0  0  0  0  0  0  0  0  0
  133.8210  131.2080   60.2560 C   0  0  0  0  0  0  0  0  0  0  0  0
  133.0420  131.4510   61.3850 C   0  0  0  0  0  0  0  0  0  0  0  0
  131.7290  131.9220   61.2670 C   0  0  0  0  0  0  0  0  0  0  0  0
  130.8950  132.2440   62.5080 C   0  0  0  0  0  0  0  0  0  0  0  0
  126.5610  129.3640   66.2560 S   0  0  0  0  0  0  0  0  0  0  0  0
  126.8790  128.5100   67.7470 C   0  0  0  0  0  0  0  0  0  0  0  0
  125.9740  127.3820   68.1910 C   0  0  0  0  0  0  0  0  0  0  0  0
  129.7550  129.3690   70.1630 C   0  0  0  0  0  0  0  0  0  0  0  0
  130.3680  128.9660   71.3490 C   0  0  0  0  0  0  0  0  0  0  0  0
  129.8670  127.8630   72.0540 C   0  0  0  0  0  0  0  0  0  0  0  0
  131.8690  125.6600   75.3600 C   0  0  0  0  0  0  0  0  0  0  0  0
  132.8410  124.8740   75.9740 C   0  0  0  0  0  0  0  0  0  0  0  0
  1  2  1  0
  2  3  2  0
  3  4  1  0
  4  5  2  0
  5  6  1  0
  6  7  2  0
  6  8  1  0
  8  9  1  0
  9 10  1  0
 10 11  1  0
 11 12  2  0
 12 13  1  0
 13 14  1  0
 14 15  1  0
 15 16  2  0
 16 17  1  0
 17 18  1  0
 18 19  2  0
 18 20  1  0
 20 21  1  0
 21 22  1  0
 22 23  1  0
 23 24  1  0
 24 25  2  0
 25 26  1  0
 26 27  2  0
 27 28  1  0
 28 29  2  0
 29 30  1  0
 16 31  1  0
 31 32  1  0
 32 33  1  0
 13 34  2  0
 34 35  1  0
 35 36  2  0
  5 37  1  0
 37 38  2  0
 38  2  1  0
 36  8  1  0
 36 11  1  0
 32 14  2  0
 30 21  1  0
 29 24  1  0
M  END
>  <Binding energies>  (45) 
[-10.63]

>  <Ligand effiencies>  (45) 
[-0.2725641025641026]

>  <Interactions>  (45) 
["V-B:ARG:545:CG:9893, V-A:GLU:543:CB:4905, V-B:GLU:543:CB:9877, V-A:GLU:543:CG:4906, V-B:GLU:543:CD:9879, V-B:HIS:456:CE1:9040, V-A:ALA:541:CB:4891, V-A:HIS:456:CE1:4069, V-A:GLU:543:CD:4907, H-B:TYR:484:OH:9318, V-A:ALA:541:CA:4889, V-A:GLU:543:C:4901, V-B:TYR:484:CZ:9317, V-B:TYR:484:CE2:9316, V-A:GLU:543:CA:4903, V-A:ASP:366:CG:3212, V-A:ASN:362:C:3171, V-A:ASN:362:CB:3175, V-A:PRO:540:CB:4884, V-A:PRO:540:CA:4882, V-B:GLU:543:CG:9878, V-A:LEU:363:CA:3184, V-A:TYR:539:C:4866, V-A:ASP:366:CB:3211, H-A:LYS:547:NZ:4950, V-A:HIS:456:CG:4065, V-A:ASP:473:CG:4239, V-A:VAL:457:C:4072, V-A:VAL:458:CG2:4086, V-A:HIS:456:C:4060, V-A:HIS:456:CB:4064, V-A:LYS:471:CD:4218, V-A:HIS:456:CA:4062, V-A:LYS:471:CG:4217"]

$$$$
RR21_Rahimova_2017
     RDKit          3D

 40 45  0  0  0  0  0  0  0  0999 V2000
  133.6350  125.1200   63.1420 C   0  0  0  0  0  0  0  0  0  0  0  0
  133.8450  125.2150   64.5480 O   0  0  0  0  0  0  0  0  0  0  0  0
  132.8450  125.7400   65.3460 C   0  0  0  0  0  0  0  0  0  0  0  0
  131.5220  125.9470   64.9210 C   0  0  0  0  0  0  0  0  0  0  0  0
  130.5720  126.4790   65.7920 C   0  0  0  0  0  0  0  0  0  0  0  0
  130.9160  126.8130   67.1070 C   0  0  0  0  0  0  0  0  0  0  0  0
  129.8920  127.3800   68.0420 C   0  0  0  0  0  0  0  0  0  0  0  0
  129.8730  126.9970   69.3040 N   0  0  0  0  0  0  0  0  0  0  0  0
  128.8660  127.6600   69.8930 N   0  0  0  0  0  0  0  0  0  0  0  0
  128.5770  127.4950   71.2720 C   0  0  0  0  0  0  0  0  0  0  0  0
  127.4940  126.7070   71.6890 C   0  0  0  0  0  0  0  0  0  0  0  0
  127.2230  126.5490   73.0460 C   0  0  0  0  0  0  0  0  0  0  0  0
  128.0320  127.1780   73.9890 C   0  0  0  0  0  0  0  0  0  0  0  0
  129.1080  127.9650   73.5880 C   0  0  0  0  0  0  0  0  0  0  0  0
  129.3820  128.1250   72.2330 C   0  0  0  0  0  0  0  0  0  0  0  0
  128.2510  128.4880   68.9880 C   0  0  0  0  0  0  0  0  0  0  0  0
  128.8800  128.3260   67.7620 C   0  0  0  0  0  0  0  0  0  0  0  0
  128.6090  129.0240   66.5140 C   0  0  0  0  0  0  0  0  0  0  0  0
  127.4150  129.2350   65.9150 C   0  0  0  0  0  0  0  0  0  0  0  0
  125.8080  128.7130   66.4680 S   0  0  0  0  0  0  0  0  0  0  0  0
  125.0880  129.4940   65.0670 C   0  0  0  0  0  0  0  0  0  0  0  0
  123.8320  129.5660   64.7550 N   0  0  0  0  0  0  0  0  0  0  0  0
  123.3770  130.2440   63.5900 C   0  0  0  0  0  0  0  0  0  0  0  0
  122.2060  130.3750   63.2360 O   0  0  0  0  0  0  0  0  0  0  0  0
  124.4840  130.8400   62.7630 C   0  0  0  0  0  0  0  0  0  0  0  0
  124.1160  131.5790   61.4700 C   0  0  0  0  0  0  0  0  0  0  0  0
  124.8210  132.9220   61.2910 C   0  0  0  0  0  0  0  0  0  0  0  0
  124.3920  133.8110   60.3020 C   0  0  0  0  0  0  0  0  0  0  0  0
  125.0250  135.0420   60.1490 C   0  0  0  0  0  0  0  0  0  0  0  0
  126.0870  135.3880   60.9870 C   0  0  0  0  0  0  0  0  0  0  0  0
  126.7650  136.7370   60.8250 C   0  0  0  0  0  0  0  0  0  0  0  0
  126.5100  134.5060   61.9840 C   0  0  0  0  0  0  0  0  0  0  0  0
  125.8780  133.2750   62.1360 C   0  0  0  0  0  0  0  0  0  0  0  0
  125.7340  130.7550   63.0840 N   0  0  0  0  0  0  0  0  0  0  0  0
  126.0400  130.0680   64.2660 N   0  0  0  0  0  0  0  0  0  0  0  0
  127.3340  129.9650   64.6570 C   0  0  0  0  0  0  0  0  0  0  0  0
  128.2970  130.4310   64.0370 O   0  0  0  0  0  0  0  0  0  0  0  0
  132.2340  126.6130   67.5280 C   0  0  0  0  0  0  0  0  0  0  0  0
  133.1870  126.0820   66.6590 C   0  0  0  0  0  0  0  0  0  0  0  0
  134.4540  125.8990   67.0980 F   0  0  0  0  0  0  0  0  0  0  0  0
  1  2  1  0
  2  3  1  0
  3  4  2  0
  4  5  1  0
  5  6  2  0
  6  7  1  0
  7  8  2  0
  8  9  1  0
  9 10  1  0
 10 11  2  0
 11 12  1  0
 12 13  2  0
 13 14  1  0
 14 15  2  0
  9 16  1  0
 16 17  2  0
 17 18  1  0
 18 19  2  0
 19 20  1  0
 20 21  1  0
 21 22  2  0
 22 23  1  0
 23 24  2  0
 23 25  1  0
 25 26  1  0
 26 27  1  0
 27 28  2  0
 28 29  1  0
 29 30  2  0
 30 31  1  0
 30 32  1  0
 32 33  2  0
 25 34  2  0
 34 35  1  0
 35 36  1  0
 36 37  2  0
  6 38  1  0
 38 39  2  0
 39 40  1  0
 39  3  1  0
 17  7  1  0
 36 19  1  0
 15 10  1  0
 35 21  1  0
 33 27  1  0
M  END
>  <Binding energies>  (46) 
[-10.63]

>  <Ligand effiencies>  (46) 
[-0.26575000000000004]

>  <Interactions>  (46) 
["V-A:GLU:543:CB:4905, V-A:GLU:543:CG:4906, V-B:GLU:543:CD:9879, V-B:HIS:456:CE1:9040, V-B:SER:385:CB:8379, H-B:ARG:545:NH2:9899, H-A:GLY:454:N:4049, V-A:HIS:456:CE1:4069, V-A:TYR:539:CD1:4872, H-A:ARG:545:NH1:4926, V-A:GLU:543:CD:4907, V-B:LEU:475:CD1:9228, V-B:ARG:545:CZ:9897, H-A:ARG:545:NH2:4927, H-B:GLY:454:N:9020, V-B:ILE:369:CG2:8207, V-A:ARG:545:CZ:4925, V-A:ASP:366:CG:3212, V-A:ARG:545:CD:4922, V-A:ARG:545:CG:4921, V-B:GLY:544:C:9883, V-A:TYR:539:CE1:4874, H-B:ARG:545:NH1:9898, H-B:ARG:545:NE:9895, V-B:GLY:453:C:9012, V-B:GLY:453:CA:9014, V-B:LYS:547:CE:9921, V-B:HIS:456:CD2:9038, V-A:TYR:539:CB:4870, V-A:TYR:539:CG:4871"]

$$$$
RR23_Rahimova_2017
     RDKit          3D

 39 44  0  0  0  0  0  0  0  0999 V2000
  131.4090  125.2050   75.4500 C   0  0  0  0  0  0  0  0  0  0  0  0
  130.4200  125.6300   74.3800 C   0  0  0  0  0  0  0  0  0  0  0  0
  129.9170  126.9310   74.3710 C   0  0  0  0  0  0  0  0  0  0  0  0
  129.0170  127.3230   73.3840 C   0  0  0  0  0  0  0  0  0  0  0  0
  128.6040  126.4130   72.4040 C   0  0  0  0  0  0  0  0  0  0  0  0
  127.6410  126.8630   71.3280 C   0  0  0  0  0  0  0  0  0  0  0  0
  126.4530  126.5620   71.4620 O   0  0  0  0  0  0  0  0  0  0  0  0
  128.1110  127.5900   70.2710 N   0  0  0  0  0  0  0  0  0  0  0  0
  129.5510  127.8120   70.0680 C   0  0  0  0  0  0  0  0  0  0  0  0
  129.6900  128.5240   68.7320 C   0  0  0  0  0  0  0  0  0  0  0  0
  128.3470  128.3160   68.1020 C   0  0  0  0  0  0  0  0  0  0  0  0
  127.9100  128.6730   66.8260 C   0  0  0  0  0  0  0  0  0  0  0  0
  126.5580  128.5360   66.4750 C   0  0  0  0  0  0  0  0  0  0  0  0
  126.0350  128.9170   65.0810 C   0  0  2  0  0  0  0  0  0  0  0  0
  126.9180  129.8400   64.4000 N   0  0  0  0  0  0  0  0  0  0  0  0
  126.2780  130.6320   63.6380 C   0  0  0  0  0  0  0  0  0  0  0  0
  126.7730  131.6390   62.8700 N   0  0  0  0  0  0  0  0  0  0  0  0
  128.0350  132.1300   62.8370 C   0  0  0  0  0  0  0  0  0  0  0  0
  128.9880  131.7030   63.4920 O   0  0  0  0  0  0  0  0  0  0  0  0
  128.2570  133.3240   61.8930 C   0  0  0  0  0  0  0  0  0  0  0  0
  129.2200  132.9360   60.8380 N   0  0  0  0  0  0  0  0  0  0  0  0
  128.7180  132.9390   59.5430 N   0  0  0  0  0  0  0  0  0  0  0  0
  129.4580  132.6170   58.5300 N   0  0  0  0  0  0  0  0  0  0  0  0
  130.7930  132.2590   58.7320 C   0  0  0  0  0  0  0  0  0  0  0  0
  131.5630  131.9160   57.6180 C   0  0  0  0  0  0  0  0  0  0  0  0
  132.9000  131.5530   57.7880 C   0  0  0  0  0  0  0  0  0  0  0  0
  133.4670  131.5320   59.0640 C   0  0  0  0  0  0  0  0  0  0  0  0
  132.6980  131.8750   60.1780 C   0  0  0  0  0  0  0  0  0  0  0  0
  131.3570  132.2400   60.0080 C   0  0  0  0  0  0  0  0  0  0  0  0
  130.5070  132.6100   61.2010 C   0  0  0  0  0  0  0  0  0  0  0  0
  130.9200  132.6080   62.3650 O   0  0  0  0  0  0  0  0  0  0  0  0
  124.5040  130.4260   63.5610 S   0  0  0  0  0  0  0  0  0  0  0  0
  124.5820  129.4440   65.0690 C   0  0  2  0  0  0  0  0  0  0  0  0
  124.1530  130.3220   66.2640 C   0  0  0  0  0  0  0  0  0  0  0  0
  125.6520  128.0820   67.4400 C   0  0  0  0  0  0  0  0  0  0  0  0
  126.0850  127.7450   68.7240 C   0  0  0  0  0  0  0  0  0  0  0  0
  127.4480  127.8080   69.0410 C   0  0  0  0  0  0  0  0  0  0  0  0
  129.1340  125.1160   72.4020 C   0  0  0  0  0  0  0  0  0  0  0  0
  130.0350  124.7250   73.3890 C   0  0  0  0  0  0  0  0  0  0  0  0
  1  2  1  0
  2  3  2  0
  3  4  1  0
  4  5  2  0
  5  6  1  0
  6  7  2  0
  6  8  1  0
  8  9  1  0
  9 10  1  0
 10 11  1  0
 11 12  2  0
 12 13  1  0
 14 13  1  1
 14 15  1  0
 15 16  2  0
 16 17  1  0
 17 18  1  0
 18 19  2  0
 18 20  1  0
 20 21  1  0
 21 22  1  0
 22 23  2  0
 23 24  1  0
 24 25  2  0
 25 26  1  0
 26 27  2  0
 27 28  1  0
 28 29  2  0
 29 30  1  0
 30 31  2  0
 16 32  1  0
 32 33  1  0
 33 34  1  1
 13 35  2  0
 35 36  1  0
 36 37  2  0
  5 38  1  0
 38 39  2  0
 39  2  1  0
 37  8  1  0
 37 11  1  0
 33 14  1  0
 30 21  1  0
 29 24  1  0
M  END
>  <Binding energies>  (47) 
[-10.24]

>  <Ligand effiencies>  (47) 
[-0.256]

>  <Interactions>  (47) 
["V-B:ARG:545:CG:9893, V-A:GLU:543:CB:4905, V-B:GLU:543:CB:9877, V-B:GLU:543:CD:9879, V-B:HIS:456:CE1:9040, V-A:ALA:541:CB:4891, V-A:HIS:456:CE1:4069, V-B:ARG:545:CZ:9897, V-B:ARG:545:CD:9894, V-B:GLU:543:C:9873, V-A:PRO:540:C:4880, V-A:PRO:540:CB:4884, H-B:ARG:545:N:9891, V-A:PRO:540:CA:4882, H-A:ALA:541:N:4890, V-A:LEU:363:CA:3184, V-A:TYR:531:CE2:4792, V-A:LEU:363:CD1:3188, V-B:GLY:454:CA:9019, V-A:HIS:456:CG:4065, V-A:HIS:456:CD2:4067, V-A:TYR:531:CZ:4793"]

$$$$
RR26_Rahimova_2017
     RDKit          3D

 38 44  0  0  0  0  0  0  0  0999 V2000
  125.0920  133.1180   61.2240 C   0  0  0  0  0  0  0  0  0  0  0  0
  125.9260  134.3540   61.5380 C   0  0  0  0  0  0  0  0  0  0  0  0
  125.6780  135.5230   60.8110 C   0  0  0  0  0  0  0  0  0  0  0  0
  126.3830  136.6940   61.0840 C   0  0  0  0  0  0  0  0  0  0  0  0
  127.3390  136.7070   62.0940 C   0  0  0  0  0  0  0  0  0  0  0  0
  127.5950  135.5490   62.8260 C   0  0  0  0  0  0  0  0  0  0  0  0
  126.9020  134.3590   62.5590 C   0  0  0  0  0  0  0  0  0  0  0  0
  127.2490  133.1530   63.3840 C   0  0  0  0  0  0  0  0  0  0  0  0
  127.5850  133.2420   64.6680 N   0  0  0  0  0  0  0  0  0  0  0  0
  127.7860  131.9910   64.9820 C   0  0  0  0  0  0  0  0  0  0  0  0
  128.2550  131.1320   66.4020 S   0  0  0  0  0  0  0  0  0  0  0  0
  128.1380  129.5870   65.4790 C   0  0  0  0  0  0  0  0  0  0  0  0
  128.3810  128.3350   65.9270 C   0  0  0  0  0  0  0  0  0  0  0  0
  128.7880  127.9230   67.2600 C   0  0  0  0  0  0  0  0  0  0  0  0
  128.1170  128.1130   68.4580 C   0  0  0  0  0  0  0  0  0  0  0  0
  128.8530  127.5220   69.4540 N   0  0  0  0  0  0  0  0  0  0  0  0
  128.5610  127.4550   70.8400 C   0  0  0  0  0  0  0  0  0  0  0  0
  129.3540  128.1350   71.7760 C   0  0  0  0  0  0  0  0  0  0  0  0
  129.0580  128.0580   73.1340 C   0  0  0  0  0  0  0  0  0  0  0  0
  127.9670  127.3060   73.5610 C   0  0  0  0  0  0  0  0  0  0  0  0
  127.1690  126.6280   72.6420 C   0  0  0  0  0  0  0  0  0  0  0  0
  127.4640  126.7010   71.2840 C   0  0  0  0  0  0  0  0  0  0  0  0
  129.9480  126.9410   68.9400 N   0  0  0  0  0  0  0  0  0  0  0  0
  129.9250  127.1750   67.6420 C   0  0  0  0  0  0  0  0  0  0  0  0
  131.0300  126.6600   66.7720 C   0  0  0  0  0  0  0  0  0  0  0  0
  132.3460  126.6030   67.2540 C   0  0  0  0  0  0  0  0  0  0  0  0
  133.3830  126.1280   66.4500 C   0  0  0  0  0  0  0  0  0  0  0  0
  133.1100  125.7050   65.1510 C   0  0  0  0  0  0  0  0  0  0  0  0
  131.7950  125.7390   64.6630 C   0  0  0  0  0  0  0  0  0  0  0  0
  130.7620  126.2200   65.4670 C   0  0  0  0  0  0  0  0  0  0  0  0
  131.4840  125.3710   63.3690 O   0  0  0  0  0  0  0  0  0  0  0  0
  132.4800  124.5620   62.7350 C   0  0  0  0  0  0  0  0  0  0  0  0
  133.8940  125.1340   63.0000 C   0  0  0  0  0  0  0  0  0  0  0  0
  134.1550  125.1970   64.4060 O   0  0  0  0  0  0  0  0  0  0  0  0
  127.7420  129.7990   64.0900 C   0  0  0  0  0  0  0  0  0  0  0  0
  127.5760  128.9700   63.1940 O   0  0  0  0  0  0  0  0  0  0  0  0
  127.5720  131.1830   63.9280 N   0  0  0  0  0  0  0  0  0  0  0  0
  127.2160  131.9290   62.8790 N   0  0  0  0  0  0  0  0  0  0  0  0
  1  2  1  0
  2  3  2  0
  3  4  1  0
  4  5  2  0
  5  6  1  0
  6  7  2  0
  7  8  1  0
  8  9  1  0
  9 10  2  0
 10 11  1  0
 11 12  1  0
 12 13  2  0
 13 14  1  0
 14 15  2  0
 15 16  1  0
 16 17  1  0
 17 18  2  0
 18 19  1  0
 19 20  2  0
 20 21  1  0
 21 22  2  0
 16 23  1  0
 23 24  2  0
 24 25  1  0
 25 26  2  0
 26 27  1  0
 27 28  2  0
 28 29  1  0
 29 30  2  0
 29 31  1  0
 31 32  1  0
 32 33  1  0
 33 34  1  0
 12 35  1  0
 35 36  2  0
 35 37  1  0
 37 38  1  0
  7  2  1  0
 38  8  2  0
 37 10  1  0
 24 14  1  0
 30 25  1  0
 22 17  1  0
 34 28  1  0
M  END
>  <Binding energies>  (48) 
[-9.48]

>  <Ligand effiencies>  (48) 
[-0.24947368421052632]

>  <Interactions>  (48) 
["V-A:GLU:543:CB:4905, V-A:GLU:543:CG:4906, V-B:GLU:543:CD:9879, V-B:HIS:456:CE1:9040, V-B:SER:385:CB:8379, V-A:ALA:541:CB:4891, H-A:GLY:454:N:4049, V-A:HIS:456:CE1:4069, V-A:TYR:539:CD1:4872, H-A:ARG:545:NH1:4926, V-A:GLU:543:CD:4907, V-B:LEU:475:CD1:9228, H-A:ARG:545:NH2:4927, V-B:TYR:484:CZ:9317, V-B:TYR:484:CE2:9316, V-A:ARG:545:CZ:4925, V-A:ASP:366:CG:3212, V-A:ARG:545:CD:4922, V-A:ARG:545:CG:4921, V-B:GLU:543:C:9873, V-B:GLY:544:C:9883, V-B:LYS:547:CE:9921, V-B:HIS:456:CD2:9038, V-A:TYR:539:CB:4870, V-B:PRO:482:CB:9296"]

$$$$
RR2_Rahimova_2017
     RDKit          3D

 46 50  0  0  0  0  0  0  0  0999 V2000
  128.2600  133.4420   61.1990 C   0  0  0  0  0  0  0  0  0  0  0  0
  127.9820  132.2480   60.4760 O   0  0  0  0  0  0  0  0  0  0  0  0
  128.6500  131.0850   60.8110 C   0  0  0  0  0  0  0  0  0  0  0  0
  128.8180  130.6200   62.1220 C   0  0  0  0  0  0  0  0  0  0  0  0
  129.5110  129.4370   62.3650 C   0  0  0  0  0  0  0  0  0  0  0  0
  130.0530  128.6950   61.3060 C   0  0  0  0  0  0  0  0  0  0  0  0
  130.8090  127.4130   61.5980 C   0  0  0  0  0  0  0  0  0  0  0  0
  131.2070  127.1710   62.7430 O   0  0  0  0  0  0  0  0  0  0  0  0
  131.0160  126.5960   60.5390 N   0  0  0  0  0  0  0  0  0  0  0  0
  131.7840  125.4520   60.7320 N   0  0  0  0  0  0  0  0  0  0  0  0
  132.2880  124.8320   59.6460 C   0  0  0  0  0  0  0  0  0  0  0  0
  131.9800  125.0900   58.4790 O   0  0  0  0  0  0  0  0  0  0  0  0
  133.3360  123.7480   59.9320 C   0  0  0  0  0  0  0  0  0  0  0  0
  132.9700  122.6760   61.3690 S   0  0  0  0  0  0  0  0  0  0  0  0
  133.1630  123.8300   62.6930 C   0  0  0  0  0  0  0  0  0  0  0  0
  134.3150  124.3630   63.0140 N   0  0  0  0  0  0  0  0  0  0  0  0
  134.1110  125.1560   64.1340 N   0  0  0  0  0  0  0  0  0  0  0  0
  132.8340  125.0980   64.4310 C   0  0  0  0  0  0  0  0  0  0  0  0
  132.2210  125.8400   65.5740 C   0  0  0  0  0  0  0  0  0  0  0  0
  130.8710  126.1950   65.5280 C   0  0  0  0  0  0  0  0  0  0  0  0
  130.2930  126.8930   66.5840 C   0  0  0  0  0  0  0  0  0  0  0  0
  131.0580  127.2290   67.7070 C   0  0  0  0  0  0  0  0  0  0  0  0
  130.5320  127.9400   68.7950 N   0  0  0  0  0  0  0  0  0  0  0  0
  129.0150  127.5380   69.6300 S   0  0  0  0  0  0  0  0  0  0  0  0
  128.9760  128.3850   70.8270 O   0  0  0  0  0  0  0  0  0  0  0  0
  128.9300  126.0760   69.7390 O   0  0  0  0  0  0  0  0  0  0  0  0
  127.7140  128.1180   68.5440 C   0  0  0  0  0  0  0  0  0  0  0  0
  128.0030  128.9860   67.4880 C   0  0  0  0  0  0  0  0  0  0  0  0
  126.9750  129.4370   66.6650 C   0  0  0  0  0  0  0  0  0  0  0  0
  125.6620  129.0170   66.8930 C   0  0  0  0  0  0  0  0  0  0  0  0
  124.5410  129.5230   66.0030 C   0  0  0  0  0  0  0  0  0  0  0  0
  125.3770  128.1520   67.9510 C   0  0  0  0  0  0  0  0  0  0  0  0
  126.4030  127.7010   68.7760 C   0  0  0  0  0  0  0  0  0  0  0  0
  132.4060  126.8720   67.7530 C   0  0  0  0  0  0  0  0  0  0  0  0
  132.9860  126.1790   66.6940 C   0  0  0  0  0  0  0  0  0  0  0  0
  132.1670  124.2620   63.5510 N   0  0  0  0  0  0  0  0  0  0  0  0
  130.8050  123.8960   63.5500 C   0  0  0  0  0  0  0  0  0  0  0  0
  129.9380  124.4410   62.6020 C   0  0  0  0  0  0  0  0  0  0  0  0
  128.5960  124.0720   62.6040 C   0  0  0  0  0  0  0  0  0  0  0  0
  128.1100  123.1640   63.5470 C   0  0  0  0  0  0  0  0  0  0  0  0
  126.7640  122.8600   63.4700 O   0  0  0  0  0  0  0  0  0  0  0  0
  125.8820  123.7720   62.8230 C   0  0  0  0  0  0  0  0  0  0  0  0
  128.9900  122.6210   64.4970 C   0  0  0  0  0  0  0  0  0  0  0  0
  130.3330  122.9850   64.4980 C   0  0  0  0  0  0  0  0  0  0  0  0
  129.8750  129.1640   59.9960 C   0  0  0  0  0  0  0  0  0  0  0  0
  129.1810  130.3470   59.7560 C   0  0  0  0  0  0  0  0  0  0  0  0
  1  2  1  0
  2  3  1  0
  3  4  2  0
  4  5  1  0
  5  6  2  0
  6  7  1  0
  7  8  2  0
  7  9  1  0
  9 10  1  0
 10 11  1  0
 11 12  2  0
 11 13  1  0
 13 14  1  0
 14 15  1  0
 15 16  2  0
 16 17  1  0
 17 18  2  0
 18 19  1  0
 19 20  2  0
 20 21  1  0
 21 22  2  0
 22 23  1  0
 23 24  1  0
 24 25  2  0
 24 26  2  0
 24 27  1  0
 27 28  2  0
 28 29  1  0
 29 30  2  0
 30 31  1  0
 30 32  1  0
 32 33  2  0
 22 34  1  0
 34 35  2  0
 18 36  1  0
 36 37  1  0
 37 38  2  0
 38 39  1  0
 39 40  2  0
 40 41  1  0
 41 42  1  0
 40 43  1  0
 43 44  2  0
  6 45  1  0
 45 46  2  0
 46  3  1  0
 36 15  1  0
 44 37  1  0
 35 19  1  0
 33 27  1  0
M  END
>  <Binding energies>  (49) 
[-9.05]

>  <Ligand effiencies>  (49) 
[-0.18469387755102043]

>  <Interactions>  (49) 
["V-B:ARG:545:CG:9893, V-A:GLU:543:CB:4905, V-B:GLU:543:CB:9877, V-B:GLU:543:CD:9879, V-B:HIS:456:CE1:9040, H-A:GLY:454:N:4049, V-A:HIS:456:CE1:4069, H-A:ARG:545:NH1:4926, V-A:GLU:543:CD:4907, V-B:ARG:545:CZ:9897, H-A:ARG:545:NH2:4927, V-B:ARG:545:CD:9894, H-B:ALA:541:N:9862, V-A:ARG:545:CZ:4925, H-A:ASP:366:OD1:3213, V-B:ALA:541:CB:9863, V-A:ASP:366:CG:3212, V-A:ARG:545:CD:4922, V-A:ARG:545:CG:4921, V-B:TYR:539:CE2:9847, V-B:GLU:543:CG:9878, V-B:ALA:541:CA:9861, V-A:ILE:369:CG2:3236, H-A:ASP:366:OD2:3214, V-A:ASP:366:CB:3211, V-A:ILE:369:CD1:3238, H-A:GLU:543:OE1:4908, V-A:ILE:369:CB:3235, H-B:TYR:539:OH:9849"]

$$$$
RR33_Rahimova_2017
     RDKit          3D

 18 19  0  0  0  0  0  0  0  0999 V2000
  122.5940  130.8710   62.6220 C   0  0  0  0  0  0  0  0  0  0  0  0
  123.6460  130.0030   63.3180 C   0  0  0  0  0  0  0  0  0  0  0  0
  123.3840  130.0000   64.7190 O   0  0  0  0  0  0  0  0  0  0  0  0
  124.3680  129.5790   65.5920 C   0  0  0  0  0  0  0  0  0  0  0  0
  123.9630  129.2980   66.8960 C   0  0  0  0  0  0  0  0  0  0  0  0
  124.8850  128.8700   67.8480 C   0  0  0  0  0  0  0  0  0  0  0  0
  126.2320  128.7160   67.5060 C   0  0  0  0  0  0  0  0  0  0  0  0
  127.2210  128.2570   68.5290 C   0  0  0  0  0  0  0  0  0  0  0  0
  127.1730  127.1650   69.2590 N   0  0  0  0  0  0  0  0  0  0  0  0
  128.2640  127.1970   70.0080 C   0  0  0  0  0  0  0  0  0  0  0  0
  128.5680  126.0830   70.9870 C   0  0  0  0  0  0  0  0  0  0  0  0
  127.4460  125.8720   71.8900 N   0  0  0  0  0  0  0  0  0  0  0  0
  127.4940  126.8130   72.9960 C   0  0  0  0  0  0  0  0  0  0  0  0
  128.9940  128.3440   69.7210 C   0  0  0  0  0  0  0  0  0  0  0  0
  130.2900  128.9420   70.2120 C   0  0  0  0  0  0  0  0  0  0  0  0
  128.3170  129.0240   68.7680 O   0  0  0  0  0  0  0  0  0  0  0  0
  126.6420  128.9920   66.1980 C   0  0  0  0  0  0  0  0  0  0  0  0
  125.7200  129.4210   65.2460 C   0  0  0  0  0  0  0  0  0  0  0  0
  1  2  1  0
  2  3  1  0
  3  4  1  0
  4  5  2  0
  5  6  1  0
  6  7  2  0
  7  8  1  0
  8  9  2  0
  9 10  1  0
 10 11  1  0
 11 12  1  0
 12 13  1  0
 10 14  2  0
 14 15  1  0
 14 16  1  0
  7 17  1  0
 17 18  2  0
 18  4  1  0
 16  8  1  0
M  END
>  <Binding energies>  (50) 
[-5.49]

>  <Ligand effiencies>  (50) 
[-0.2889473684210526]

>  <Interactions>  (50) 
["V-B:ARG:545:CG:9893, V-A:GLU:543:CB:4905, V-B:GLU:543:CB:9877, V-B:GLU:543:CD:9879, V-B:HIS:456:CE1:9040, V-A:HIS:456:CE1:4069, V-B:ARG:545:CZ:9897, V-B:ARG:545:CD:9894, H-B:GLY:454:N:9020, V-A:GLU:543:C:4901, V-B:GLU:543:C:9873, V-B:GLY:544:C:9883, H-B:ARG:545:NH1:9898, V-B:GLY:453:C:9012, V-B:GLY:453:CA:9014, H-B:GLU:543:O:9874, V-B:LYS:547:CE:9921, H-B:GLY:544:O:9884"]

$$$$
RR3_Rahimova_2017
     RDKit          3D

 38 44  0  0  0  0  0  0  0  0999 V2000
  133.9810  122.6560   62.8880 C   0  0  0  0  0  0  0  0  0  0  0  0
  132.8390  122.3410   63.6170 C   0  0  0  0  0  0  0  0  0  0  0  0
  131.9490  123.3500   63.9750 C   0  0  0  0  0  0  0  0  0  0  0  0
  132.1870  124.6830   63.6100 C   0  0  0  0  0  0  0  0  0  0  0  0
  131.2290  125.7670   63.9950 C   0  0  0  0  0  0  0  0  0  0  0  0
  131.0520  126.1280   65.3380 C   0  0  0  0  0  0  0  0  0  0  0  0
  130.1590  127.1340   65.6960 C   0  0  0  0  0  0  0  0  0  0  0  0
  129.4130  127.7970   64.7170 C   0  0  0  0  0  0  0  0  0  0  0  0
  128.4470  128.8750   65.0950 C   0  0  0  0  0  0  0  0  0  0  0  0
  127.9250  129.6590   64.1580 N   0  0  0  0  0  0  0  0  0  0  0  0
  127.0920  130.4680   64.7670 C   0  0  0  0  0  0  0  0  0  0  0  0
  126.2940  131.5020   64.1140 C   0  0  0  0  0  0  0  0  0  0  0  0
  126.6910  132.8090   63.8880 C   0  0  0  0  0  0  0  0  0  0  0  0
  125.6980  133.5010   63.2450 N   0  0  0  0  0  0  0  0  0  0  0  0
  124.6160  132.6760   63.0300 C   0  0  0  0  0  0  0  0  0  0  0  0
  123.3830  132.9280   62.4190 C   0  0  0  0  0  0  0  0  0  0  0  0
  122.4800  131.8670   62.3540 C   0  0  0  0  0  0  0  0  0  0  0  0
  122.7840  130.6120   62.8720 C   0  0  0  0  0  0  0  0  0  0  0  0
  124.0130  130.3610   63.4810 C   0  0  0  0  0  0  0  0  0  0  0  0
  124.9600  131.3970   63.5720 C   0  0  0  0  0  0  0  0  0  0  0  0
  127.0670  130.2220   66.1120 N   0  0  0  0  0  0  0  0  0  0  0  0
  127.9530  129.2080   66.3690 C   0  0  0  0  0  0  0  0  0  0  0  0
  128.2380  128.7080   67.7470 C   0  0  0  0  0  0  0  0  0  0  0  0
  129.3220  129.2150   68.4650 C   0  0  0  0  0  0  0  0  0  0  0  0
  129.5980  128.7430   69.7440 C   0  0  0  0  0  0  0  0  0  0  0  0
  128.7960  127.7580   70.3380 C   0  0  0  0  0  0  0  0  0  0  0  0
  129.1070  127.2390   71.7070 C   0  0  0  0  0  0  0  0  0  0  0  0
  128.7250  125.9440   72.0890 C   0  0  0  0  0  0  0  0  0  0  0  0
  129.0190  125.4600   73.3620 C   0  0  0  0  0  0  0  0  0  0  0  0
  129.7010  126.2670   74.2670 C   0  0  0  0  0  0  0  0  0  0  0  0
  130.0900  127.5530   73.9080 C   0  0  0  0  0  0  0  0  0  0  0  0
  129.7930  128.0350   72.6370 C   0  0  0  0  0  0  0  0  0  0  0  0
  127.6990  127.2700   69.6130 C   0  0  0  0  0  0  0  0  0  0  0  0
  127.4200  127.7400   68.3330 C   0  0  0  0  0  0  0  0  0  0  0  0
  129.5920  127.4530   63.3760 C   0  0  0  0  0  0  0  0  0  0  0  0
  130.4860  126.4470   63.0210 C   0  0  0  0  0  0  0  0  0  0  0  0
  133.3460  124.9770   62.8750 C   0  0  0  0  0  0  0  0  0  0  0  0
  134.2380  123.9710   62.5140 C   0  0  0  0  0  0  0  0  0  0  0  0
  1  2  2  0
  2  3  1  0
  3  4  2  0
  4  5  1  0
  5  6  2  0
  6  7  1  0
  7  8  2  0
  8  9  1  0
  9 10  1  0
 10 11  2  0
 11 12  1  0
 12 13  2  0
 13 14  1  0
 14 15  1  0
 15 16  2  0
 16 17  1  0
 17 18  2  0
 18 19  1  0
 19 20  2  0
 11 21  1  0
 21 22  1  0
 22 23  1  0
 23 24  2  0
 24 25  1  0
 25 26  2  0
 26 27  1  0
 27 28  2  0
 28 29  1  0
 29 30  2  0
 30 31  1  0
 31 32  2  0
 26 33  1  0
 33 34  2  0
  8 35  1  0
 35 36  2  0
  4 37  1  0
 37 38  2  0
 38  1  1  0
 36  5  1  0
 22  9  2  0
 34 23  1  0
 20 12  1  0
 32 27  1  0
 20 15  1  0
M  END
>  <Binding energies>  (51) 
[-9.44]

>  <Ligand effiencies>  (51) 
[-0.236]

>  <Interactions>  (51) 
["V-A:GLU:543:CB:4905, V-B:GLU:543:CB:9877, V-A:GLU:543:CG:4906, V-B:GLU:543:CD:9879, V-B:HIS:456:CE1:9040, V-B:SER:385:CB:8379, V-A:HIS:456:CE1:4069, V-A:GLU:543:CD:4907, V-A:GLY:454:CA:4048, V-B:LEU:475:CD1:9228, H-B:TYR:484:OH:9318, V-B:ILE:369:CG1:8208, V-A:ASP:366:CG:3212, V-B:GLY:453:C:9012, V-A:LEU:475:CD2:4258, V-B:GLY:453:CA:9014, V-B:GLY:454:CA:9019, V-B:SER:385:C:8375, V-A:GLY:453:C:4041, V-A:ILE:369:CD1:3238, V-B:LYS:547:CE:9921"]

$$$$
RR4_Rahimova_2017
     RDKit          3D

 40 44  0  0  0  0  0  0  0  0999 V2000
  128.3030  128.2800   74.8220 C   0  0  0  0  0  0  0  0  0  0  0  0
  128.2750  127.0930   74.0370 O   0  0  0  0  0  0  0  0  0  0  0  0
  128.4050  127.1890   72.6650 C   0  0  0  0  0  0  0  0  0  0  0  0
  129.3620  128.0830   72.1890 C   0  0  0  0  0  0  0  0  0  0  0  0
  129.5640  128.2460   70.8220 C   0  0  0  0  0  0  0  0  0  0  0  0
  128.8110  127.5190   69.8880 C   0  0  0  0  0  0  0  0  0  0  0  0
  129.0310  127.6970   68.4130 C   0  0  0  0  0  0  0  0  0  0  0  0
  130.0270  127.0140   67.7070 C   0  0  0  0  0  0  0  0  0  0  0  0
  130.1890  127.2120   66.3300 C   0  0  0  0  0  0  0  0  0  0  0  0
  131.2550  126.4250   65.6380 C   0  0  0  0  0  0  0  0  0  0  0  0
  131.0060  125.8570   64.3850 C   0  0  0  0  0  0  0  0  0  0  0  0
  131.9970  125.1320   63.7280 C   0  0  0  0  0  0  0  0  0  0  0  0
  133.2560  124.9680   64.3060 C   0  0  0  0  0  0  0  0  0  0  0  0
  134.1760  124.2350   63.5820 O   0  0  0  0  0  0  0  0  0  0  0  0
  133.8890  123.9050   62.2270 C   0  0  0  0  0  0  0  0  0  0  0  0
  133.5110  125.5410   65.5610 C   0  0  0  0  0  0  0  0  0  0  0  0
  132.5190  126.2660   66.2160 C   0  0  0  0  0  0  0  0  0  0  0  0
  129.3420  128.1400   65.6770 C   0  0  0  0  0  0  0  0  0  0  0  0
  129.4690  128.3840   64.2370 C   0  0  0  0  0  0  0  0  0  0  0  0
  129.5690  128.5770   63.1000 N   0  0  0  0  0  0  0  0  0  0  0  0
  128.3770  128.8180   66.4570 C   0  0  0  0  0  0  0  0  0  0  0  0
  127.2400  130.0240   65.8080 S   0  0  0  0  0  0  0  0  0  0  0  0
  128.2180  131.4360   65.1940 C   0  0  0  0  0  0  0  0  0  0  0  0
  128.4460  131.4410   63.6760 C   0  0  0  0  0  0  0  0  0  0  0  0
  127.5370  131.1280   62.9040 O   0  0  0  0  0  0  0  0  0  0  0  0
  129.6960  131.7930   63.2930 N   0  0  0  0  0  0  0  0  0  0  0  0
  130.2110  131.8940   61.9980 C   0  0  0  0  0  0  0  0  0  0  0  0
  131.6160  131.0090   61.4650 S   0  0  0  0  0  0  0  0  0  0  0  0
  131.5220  131.7080   59.8770 C   0  0  0  0  0  0  0  0  0  0  0  0
  130.4420  132.5980   59.7680 C   0  0  0  0  0  0  0  0  0  0  0  0
  129.6920  132.6900   60.9660 C   0  0  0  0  0  0  0  0  0  0  0  0
  128.5080  133.5320   61.1100 C   0  0  0  0  0  0  0  0  0  0  0  0
  127.5700  134.2000   61.2240 N   0  0  0  0  0  0  0  0  0  0  0  0
  130.1230  133.3150   58.4510 C   0  0  0  0  0  0  0  0  0  0  0  0
  130.8500  132.6340   57.2690 C   0  0  0  0  0  0  0  0  0  0  0  0
  132.3240  132.3320   57.5910 C   0  0  0  0  0  0  0  0  0  0  0  0
  132.4690  131.3220   58.7490 C   0  0  0  0  0  0  0  0  0  0  0  0
  128.2200  128.5840   67.7810 N   0  0  0  0  0  0  0  0  0  0  0  0
  127.8520  126.6180   70.3770 C   0  0  0  0  0  0  0  0  0  0  0  0
  127.6470  126.4530   71.7440 C   0  0  0  0  0  0  0  0  0  0  0  0
  1  2  1  0
  2  3  1  0
  3  4  2  0
  4  5  1  0
  5  6  2  0
  6  7  1  0
  7  8  2  0
  8  9  1  0
  9 10  1  0
 10 11  2  0
 11 12  1  0
 12 13  2  0
 13 14  1  0
 14 15  1  0
 13 16  1  0
 16 17  2  0
  9 18  2  0
 18 19  1  0
 19 20  3  0
 18 21  1  0
 21 22  1  0
 22 23  1  0
 23 24  1  0
 24 25  2  0
 24 26  1  0
 26 27  1  0
 27 28  1  0
 28 29  1  0
 29 30  2  0
 30 31  1  0
 31 32  1  0
 32 33  3  0
 30 34  1  0
 34 35  1  0
 35 36  1  0
 36 37  1  0
 21 38  2  0
  6 39  1  0
 39 40  2  0
 40  3  1  0
 38  7  1  0
 17 10  1  0
 31 27  2  0
 37 29  1  0
M  END
>  <Binding energies>  (52) 
[-9.69]

>  <Ligand effiencies>  (52) 
[-0.23634146341463413]

>  <Interactions>  (52) 
["V-B:GLU:543:CB:9877, V-A:GLU:543:CG:4906, V-B:GLU:543:CD:9879, V-B:HIS:456:CE1:9040, V-A:ALA:541:CB:4891, H-A:GLY:454:N:4049, V-A:HIS:456:CE1:4069, V-A:TYR:539:CD1:4872, V-A:GLU:543:CD:4907, V-A:GLY:454:CA:4048, H-B:TYR:484:OH:9318, V-A:ARG:545:CZ:4925, V-A:ASP:366:CG:3212, V-B:GLU:543:C:9873, V-B:GLY:544:C:9883, H-A:GLU:543:OE2:4909, V-A:PRO:540:CB:4884, V-A:PRO:540:CA:4882, V-A:TYR:531:CE2:4792, V-A:LEU:363:CD1:3188, V-A:PRO:540:N:4883, V-A:TYR:539:C:4866, V-A:ILE:369:CD1:3238, H-B:LYS:547:NZ:9922, V-B:HIS:456:CD2:9038"]

$$$$
RR6_Rahimova_2017
     RDKit          3D

 38 41  0  0  0  0  0  0  0  0999 V2000
  127.8380  122.9380   63.5640 C   0  0  0  0  0  0  0  0  0  0  0  0
  126.7600  123.0890   62.6500 O   0  0  0  0  0  0  0  0  0  0  0  0
  126.9680  123.5790   61.4010 C   0  0  0  0  0  0  0  0  0  0  0  0
  127.3830  122.8930   60.4620 O   0  0  0  0  0  0  0  0  0  0  0  0
  126.6400  125.0390   61.2740 C   0  0  0  0  0  0  0  0  0  0  0  0
  126.2760  125.6160   60.0480 C   0  0  0  0  0  0  0  0  0  0  0  0
  125.9850  126.9750   59.9620 C   0  0  0  0  0  0  0  0  0  0  0  0
  126.0580  127.7840   61.1060 C   0  0  0  0  0  0  0  0  0  0  0  0
  125.8130  129.1700   61.1250 N   0  0  0  0  0  0  0  0  0  0  0  0
  124.9160  129.8910   60.4180 C   0  0  0  0  0  0  0  0  0  0  0  0
  124.1130  129.4320   59.6040 O   0  0  0  0  0  0  0  0  0  0  0  0
  124.9720  131.4080   60.6270 C   0  0  0  0  0  0  0  0  0  0  0  0
  124.8600  131.9110   62.3770 S   0  0  0  0  0  0  0  0  0  0  0  0
  126.2220  131.1350   63.2230 C   0  0  0  0  0  0  0  0  0  0  0  0
  127.4030  131.2110   62.5640 N   0  0  0  0  0  0  0  0  0  0  0  0
  128.5210  130.6820   63.1230 C   0  0  0  0  0  0  0  0  0  0  0  0
  129.7990  130.8620   62.3580 C   0  0  0  0  0  0  0  0  0  0  0  0
  130.3510  129.8080   61.6130 C   0  0  0  0  0  0  0  0  0  0  0  0
  131.5430  129.9720   60.9140 C   0  0  0  0  0  0  0  0  0  0  0  0
  132.2060  131.1980   60.9430 C   0  0  0  0  0  0  0  0  0  0  0  0
  133.5110  131.3700   60.1870 C   0  0  0  0  0  0  0  0  0  0  0  0
  131.6740  132.2580   61.6750 C   0  0  0  0  0  0  0  0  0  0  0  0
  130.4820  132.0890   62.3710 C   0  0  0  0  0  0  0  0  0  0  0  0
  128.4650  130.0450   64.3670 C   0  0  0  0  0  0  0  0  0  0  0  0
  127.2540  129.9490   65.0660 C   0  0  0  0  0  0  0  0  0  0  0  0
  127.2700  129.2730   66.3970 C   0  0  0  0  0  0  0  0  0  0  0  0
  126.1990  128.4620   66.7860 C   0  0  0  0  0  0  0  0  0  0  0  0
  126.2130  127.8150   68.0200 C   0  0  0  0  0  0  0  0  0  0  0  0
  127.2970  127.9600   68.8830 C   0  0  0  0  0  0  0  0  0  0  0  0
  127.2260  127.2800   70.0830 O   0  0  0  0  0  0  0  0  0  0  0  0
  128.1920  126.2750   70.3700 C   0  0  0  0  0  0  0  0  0  0  0  0
  128.3770  128.7690   68.4950 C   0  0  0  0  0  0  0  0  0  0  0  0
  128.3600  129.4140   67.2610 C   0  0  0  0  0  0  0  0  0  0  0  0
  126.0910  130.5050   64.4770 C   0  0  0  0  0  0  0  0  0  0  0  0
  124.7860  130.4140   65.1400 C   0  0  0  0  0  0  0  0  0  0  0  0
  123.7570  130.3440   65.6650 N   0  0  0  0  0  0  0  0  0  0  0  0
  126.4030  127.2110   62.3300 C   0  0  0  0  0  0  0  0  0  0  0  0
  126.6960  125.8520   62.4140 C   0  0  0  0  0  0  0  0  0  0  0  0
  1  2  1  0
  2  3  1  0
  3  4  2  0
  3  5  1  0
  5  6  2  0
  6  7  1  0
  7  8  2  0
  8  9  1  0
  9 10  1  0
 10 11  2  0
 10 12  1  0
 12 13  1  0
 13 14  1  0
 14 15  2  0
 15 16  1  0
 16 17  1  0
 17 18  2  0
 18 19  1  0
 19 20  2  0
 20 21  1  0
 20 22  1  0
 22 23  2  0
 16 24  2  0
 24 25  1  0
 25 26  1  0
 26 27  2  0
 27 28  1  0
 28 29  2  0
 29 30  1  0
 30 31  1  0
 29 32  1  0
 32 33  2  0
 25 34  2  0
 34 35  1  0
 35 36  3  0
  8 37  1  0
 37 38  2  0
 38  5  1  0
 34 14  1  0
 23 17  1  0
 33 26  1  0
M  END
>  <Binding energies>  (53) 
[-7.23]

>  <Ligand effiencies>  (53) 
[-0.1853846153846154]

>  <Interactions>  (53) 
["V-B:ARG:545:CG:9893, V-A:GLU:543:CB:4905, V-B:GLU:543:CB:9877, V-A:GLU:543:CG:4906, V-B:GLU:543:CD:9879, V-B:HIS:456:CE1:9040, V-A:ALA:541:CB:4891, V-A:GLU:543:CD:4907, H-B:TYR:484:OH:9318, H-B:GLY:454:N:9020, H-B:ALA:541:N:9862, V-B:ASP:366:CG:8183, V-B:PRO:540:CA:9854, V-B:ALA:541:CB:9863, V-B:GLU:543:C:9873, V-A:PRO:540:C:4880, V-A:ASN:362:C:3171, V-A:PRO:540:CB:4884, V-A:PRO:540:CA:4882, V-B:ALA:541:C:9859, V-B:GLU:543:CG:9878, V-B:ALA:541:CA:9861, V-A:LEU:363:CA:3184, V-B:GLY:454:CA:9019"]

$$$$
RR7_Rahimova_2017
     RDKit          3D

 47 53  0  0  0  0  0  0  0  0999 V2000
  126.4170  128.5060   66.9980 C   0  0  0  0  0  0  0  0  0  0  0  0
  127.5880  129.2710   66.7310 O   0  0  0  0  0  0  0  0  0  0  0  0
  127.7790  129.7880   65.4640 C   0  0  0  0  0  0  0  0  0  0  0  0
  127.0490  130.9300   65.1400 C   0  0  0  0  0  0  0  0  0  0  0  0
  127.1800  131.5240   63.8890 C   0  0  0  0  0  0  0  0  0  0  0  0
  128.0390  130.9810   62.9230 C   0  0  0  0  0  0  0  0  0  0  0  0
  128.2300  131.6450   61.5240 C   0  0  0  0  0  0  0  0  0  0  0  0
  127.4360  130.8730   60.5950 O   0  0  0  0  0  0  0  0  0  0  0  0
  127.6510  129.4640   60.4670 C   0  0  0  0  0  0  0  0  0  0  0  0
  127.0180  128.9780   59.1530 C   0  0  1  0  0  0  0  0  0  0  0  0
  127.7060  127.7870   58.7800 O   0  0  0  0  0  0  0  0  0  0  0  0
  126.8390  126.6950   58.6720 C   0  0  1  0  0  0  0  0  0  0  0  0
  127.5210  125.4750   59.0620 N   0  0  0  0  0  0  0  0  0  0  0  0
  128.4410  124.7430   58.3320 C   0  0  0  0  0  0  0  0  0  0  0  0
  128.8690  123.6470   58.9090 N   0  0  0  0  0  0  0  0  0  0  0  0
  128.1680  123.6000   60.0830 C   0  0  0  0  0  0  0  0  0  0  0  0
  128.1600  122.6690   61.1400 C   0  0  0  0  0  0  0  0  0  0  0  0
  129.0110  121.5510   61.0610 N   0  0  0  0  0  0  0  0  0  0  0  0
  129.9470  121.1290   61.9450 C   0  0  0  0  0  0  0  0  0  0  0  0
  130.2170  121.7080   63.0000 O   0  0  0  0  0  0  0  0  0  0  0  0
  130.7040  119.8790   61.5490 C   0  0  0  0  0  0  0  0  0  0  0  0
  131.9970  119.9910   61.0150 C   0  0  0  0  0  0  0  0  0  0  0  0
  132.7130  118.8540   60.6500 C   0  0  0  0  0  0  0  0  0  0  0  0
  132.1450  117.5960   60.8210 C   0  0  0  0  0  0  0  0  0  0  0  0
  130.8660  117.4630   61.3540 C   0  0  0  0  0  0  0  0  0  0  0  0
  130.1480  118.6000   61.7180 C   0  0  0  0  0  0  0  0  0  0  0  0
  127.3260  122.8740   62.2040 N   0  0  0  0  0  0  0  0  0  0  0  0
  126.5370  123.9800   62.1870 C   0  0  0  0  0  0  0  0  0  0  0  0
  126.4680  124.9400   61.2260 N   0  0  0  0  0  0  0  0  0  0  0  0
  127.3000  124.7160   60.2010 C   0  0  0  0  0  0  0  0  0  0  0  0
  125.6290  127.0560   59.5260 C   0  0  0  0  0  0  0  0  0  0  0  0
  125.5480  128.5500   59.2600 C   0  0  2  0  0  0  0  0  0  0  0  0
  124.8120  128.8410   58.0840 O   0  0  0  0  0  0  0  0  0  0  0  0
  127.6900  133.0990   61.4820 C   0  0  0  0  0  0  0  0  0  0  0  0
  126.5460  133.4080   60.7280 C   0  0  0  0  0  0  0  0  0  0  0  0
  126.0610  134.7110   60.6720 C   0  0  0  0  0  0  0  0  0  0  0  0
  126.7160  135.7210   61.3700 C   0  0  0  0  0  0  0  0  0  0  0  0
  127.8510  135.4380   62.1230 C   0  0  0  0  0  0  0  0  0  0  0  0
  128.3370  134.1340   62.1770 C   0  0  0  0  0  0  0  0  0  0  0  0
  129.6950  131.7290   61.0090 C   0  0  0  0  0  0  0  0  0  0  0  0
  130.7610  131.8430   61.9150 C   0  0  0  0  0  0  0  0  0  0  0  0
  132.0750  131.9280   61.4640 C   0  0  0  0  0  0  0  0  0  0  0  0
  132.3360  131.9100   60.0970 C   0  0  0  0  0  0  0  0  0  0  0  0
  131.2940  131.8120   59.1800 C   0  0  0  0  0  0  0  0  0  0  0  0
  129.9810  131.7260   59.6340 C   0  0  0  0  0  0  0  0  0  0  0  0
  128.7820  129.8400   63.2590 C   0  0  0  0  0  0  0  0  0  0  0  0
  128.6520  129.2450   64.5110 C   0  0  0  0  0  0  0  0  0  0  0  0
  1  2  1  0
  2  3  1  0
  3  4  2  0
  4  5  1  0
  5  6  2  0
  6  7  1  0
  7  8  1  0
  8  9  1  0
 10  9  1  1
 10 11  1  0
 11 12  1  0
 12 13  1  1
 13 14  1  0
 14 15  2  0
 15 16  1  0
 16 17  2  0
 17 18  1  0
 18 19  1  0
 19 20  2  0
 19 21  1  0
 21 22  2  0
 22 23  1  0
 23 24  2  0
 24 25  1  0
 25 26  2  0
 17 27  1  0
 27 28  2  0
 28 29  1  0
 29 30  2  0
 12 31  1  0
 31 32  1  0
 32 33  1  6
  7 34  1  0
 34 35  2  0
 35 36  1  0
 36 37  2  0
 37 38  1  0
 38 39  2  0
  7 40  1  0
 40 41  2  0
 41 42  1  0
 42 43  2  0
 43 44  1  0
 44 45  2  0
  6 46  1  0
 46 47  2  0
 47  3  1  0
 32 10  1  0
 39 34  1  0
 45 40  1  0
 30 13  1  0
 30 16  1  0
 26 21  1  0
M  END
>  <Binding energies>  (54) 
[-8.97]

>  <Ligand effiencies>  (54) 
[-0.18306122448979592]

>  <Interactions>  (54) 
["V-A:GLU:543:CG:4906, V-B:GLU:543:CD:9879, V-A:ALA:541:CB:4891, V-A:TYR:539:CD1:4872, V-A:GLU:543:CD:4907, H-B:TYR:484:OH:9318, H-B:ALA:541:N:9862, V-B:ASP:366:CG:8183, V-B:PRO:540:CA:9854, V-B:ALA:541:CB:9863, V-B:PRO:540:C:9852, V-B:TYR:539:CE2:9847, V-B:TYR:539:CD2:9845, V-A:TYR:539:CE1:4874, V-A:PRO:540:CB:4884, V-A:PRO:540:CA:4882, V-A:PRO:482:CG:4326, V-B:ASP:366:CB:8182, V-A:PRO:482:CB:4325, V-A:SER:385:CB:3408, V-A:SER:385:CA:3406, V-A:LEU:475:CD2:4258, V-B:TYR:539:C:9838, H-B:TYR:539:O:9839, V-A:HIS:383:CE1:3393"]

$$$$
RR8_A_Rahimova_2017
     RDKit          3D

 42 46  0  0  0  0  0  0  0  0999 V2000
  128.8370  129.0860   63.6850 O   0  0  0  0  0  0  0  0  0  0  0  0
  128.7700  128.6460   64.8380 C   0  0  0  0  0  0  0  0  0  0  0  0
  129.7890  127.9910   65.4760 O   0  0  0  0  0  0  0  0  0  0  0  0
  130.1250  126.7110   65.0150 C   0  0  1  0  0  0  0  0  0  0  0  0
  130.2610  126.6840   63.6240 O   0  0  0  0  0  0  0  0  0  0  0  0
  131.3340  125.8410   63.2130 C   0  0  2  0  0  0  0  0  0  0  0  0
  130.7850  124.7920   62.2300 C   0  0  0  0  0  0  0  0  0  0  0  0
  130.5450  123.5830   62.9370 O   0  0  0  0  0  0  0  0  0  0  0  0
  129.8100  122.6170   62.1960 C   0  0  0  0  0  0  0  0  0  0  0  0
  128.3570  123.0520   62.0800 C   0  0  0  0  0  0  0  0  0  0  0  0
  127.7790  123.2220   60.8190 C   0  0  0  0  0  0  0  0  0  0  0  0
  126.4470  123.6140   60.7100 C   0  0  0  0  0  0  0  0  0  0  0  0
  125.6950  123.8320   61.8630 C   0  0  0  0  0  0  0  0  0  0  0  0
  126.2610  123.6590   63.1240 C   0  0  0  0  0  0  0  0  0  0  0  0
  127.5930  123.2660   63.2330 C   0  0  0  0  0  0  0  0  0  0  0  0
  131.8870  125.2840   64.5310 C   0  0  1  0  0  0  0  0  0  0  0  0
  133.3090  125.1790   64.5430 O   0  0  0  0  0  0  0  0  0  0  0  0
  133.9330  125.1030   63.2670 C   0  0  0  0  0  0  0  0  0  0  0  0
  133.6710  123.7400   62.6410 C   0  0  0  0  0  0  0  0  0  0  0  0
  133.5820  123.6200   61.2510 C   0  0  0  0  0  0  0  0  0  0  0  0
  133.3340  122.3790   60.6730 C   0  0  0  0  0  0  0  0  0  0  0  0
  133.1710  121.2580   61.4860 C   0  0  0  0  0  0  0  0  0  0  0  0
  133.2510  121.3700   62.8720 C   0  0  0  0  0  0  0  0  0  0  0  0
  133.4980  122.6120   63.4510 C   0  0  0  0  0  0  0  0  0  0  0  0
  131.5040  126.3460   65.5470 C   0  0  2  0  0  0  0  0  0  0  0  0
  131.4840  125.7980   66.8620 O   0  0  0  0  0  0  0  0  0  0  0  0
  130.1940  125.5180   67.3940 C   0  0  0  0  0  0  0  0  0  0  0  0
  129.8370  126.5470   68.4560 C   0  0  0  0  0  0  0  0  0  0  0  0
  130.4950  127.7810   68.4890 C   0  0  0  0  0  0  0  0  0  0  0  0
  130.1570  128.7240   69.4570 C   0  0  0  0  0  0  0  0  0  0  0  0
  129.1610  128.4330   70.3860 C   0  0  0  0  0  0  0  0  0  0  0  0
  128.4970  127.2090   70.3560 C   0  0  0  0  0  0  0  0  0  0  0  0
  128.8340  126.2650   69.3880 C   0  0  0  0  0  0  0  0  0  0  0  0
  127.5470  128.7910   65.6970 C   0  0  0  0  0  0  0  0  0  0  0  0
  127.5950  128.6230   67.0900 C   0  0  0  0  0  0  0  0  0  0  0  0
  126.4430  128.7630   67.8590 C   0  0  0  0  0  0  0  0  0  0  0  0
  125.2160  129.0720   67.2580 C   0  0  0  0  0  0  0  0  0  0  0  0
  123.9900  129.2230   68.0790 N   0  0  0  0  0  0  0  0  0  0  0  0
  124.0330  128.9080   69.2650 O   0  0  0  0  0  0  0  0  0  0  0  0
  122.9740  129.6580   67.5440 O   0  0  0  0  0  0  0  0  0  0  0  0
  125.1690  129.2370   65.8680 C   0  0  0  0  0  0  0  0  0  0  0  0
  126.3190  129.0980   65.0970 C   0  0  0  0  0  0  0  0  0  0  0  0
  1  2  2  0
  2  3  1  0
  4  3  1  1
  4  5  1  0
  5  6  1  0
  6  7  1  6
  7  8  1  0
  8  9  1  0
  9 10  1  0
 10 11  2  0
 11 12  1  0
 12 13  2  0
 13 14  1  0
 14 15  2  0
  6 16  1  0
 16 17  1  6
 17 18  1  0
 18 19  1  0
 19 20  2  0
 20 21  1  0
 21 22  2  0
 22 23  1  0
 23 24  2  0
 16 25  1  0
 25 26  1  1
 26 27  1  0
 27 28  1  0
 28 29  2  0
 29 30  1  0
 30 31  2  0
 31 32  1  0
 32 33  2  0
  2 34  1  0
 34 35  2  0
 35 36  1  0
 36 37  2  0
 37 38  1  0
 38 39  2  0
 38 40  1  0
 37 41  1  0
 41 42  2  0
 25  4  1  0
 33 28  1  0
 42 34  1  0
 15 10  1  0
 24 19  1  0
M  CHG  2  38   1  40  -1
M  END
>  <Binding energies>  (55) 
[-9.47]

>  <Ligand effiencies>  (55) 
[-0.2254761904761905]

>  <Interactions>  (55) 
["V-B:ARG:545:CG:9893, V-A:GLU:543:CB:4905, V-B:GLU:543:CB:9877, V-B:GLU:543:CD:9879, V-B:HIS:456:CE1:9040, H-A:GLY:454:N:4049, V-A:HIS:456:CE1:4069, V-A:GLU:543:CD:4907, V-A:GLY:454:CA:4048, V-B:ARG:545:CZ:9897, H-B:TYR:484:OH:9318, V-B:ARG:545:CD:9894, H-B:GLY:454:N:9020, V-A:GLU:543:C:4901, V-A:TYR:484:CZ:4346, V-B:PRO:540:CA:9854, V-A:ARG:545:CZ:4925, V-B:PRO:540:CB:9856, V-A:GLY:453:CA:4043, V-B:ALA:541:CB:9863, V-A:ASP:366:CG:3212, V-B:TYR:539:CE2:9847, H-A:TYR:484:OH:4347, H-B:ILE:455:N:9025, V-B:ALA:541:C:9859, V-B:GLU:543:CG:9878, V-B:ALA:541:CA:9861, V-A:ILE:369:CG2:3236, V-A:TYR:484:CE2:4345, V-A:LEU:475:CD2:4258, V-B:ARG:545:CB:9892, V-A:ILE:369:CD1:3238, H-B:HIS:456:ND1:9037, V-B:ILE:455:C:9022"]

$$$$
RR8_B_Rahimova_2017
     RDKit          3D

 42 46  0  0  0  0  0  0  0  0999 V2000
  129.0880  126.2860   63.6000 O   0  0  0  0  0  0  0  0  0  0  0  0
  129.7500  127.1370   64.2030 C   0  0  0  0  0  0  0  0  0  0  0  0
  129.5340  128.4850   64.1210 O   0  0  0  0  0  0  0  0  0  0  0  0
  128.4590  128.9390   63.3350 C   0  0  2  0  0  0  0  0  0  0  0  0
  128.7980  130.0790   62.5970 O   0  0  0  0  0  0  0  0  0  0  0  0
  128.4820  131.2740   63.3100 C   0  0  2  0  0  0  0  0  0  0  0  0
  129.7580  132.1170   63.4890 C   0  0  0  0  0  0  0  0  0  0  0  0
  130.2290  132.5290   62.2120 O   0  0  0  0  0  0  0  0  0  0  0  0
  131.4080  131.8720   61.7690 C   0  0  0  0  0  0  0  0  0  0  0  0
  131.5830  132.1110   60.2770 C   0  0  0  0  0  0  0  0  0  0  0  0
  132.8180  131.8550   59.6740 C   0  0  0  0  0  0  0  0  0  0  0  0
  132.9940  132.0940   58.3130 C   0  0  0  0  0  0  0  0  0  0  0  0
  131.9300  132.5880   57.5590 C   0  0  0  0  0  0  0  0  0  0  0  0
  130.6950  132.8390   58.1520 C   0  0  0  0  0  0  0  0  0  0  0  0
  130.5210  132.6030   59.5130 C   0  0  0  0  0  0  0  0  0  0  0  0
  127.8300  130.7820   64.6070 C   0  0  1  0  0  0  0  0  0  0  0  0
  126.7920  131.6840   65.0020 O   0  0  0  0  0  0  0  0  0  0  0  0
  126.2710  132.5550   63.9950 C   0  0  0  0  0  0  0  0  0  0  0  0
  124.9570  132.0440   63.4120 C   0  0  0  0  0  0  0  0  0  0  0  0
  124.4600  130.7950   63.7940 C   0  0  0  0  0  0  0  0  0  0  0  0
  123.2440  130.3460   63.2850 C   0  0  0  0  0  0  0  0  0  0  0  0
  122.5320  131.1450   62.3920 C   0  0  0  0  0  0  0  0  0  0  0  0
  123.0240  132.3890   62.0040 C   0  0  0  0  0  0  0  0  0  0  0  0
  124.2390  132.8410   62.5160 C   0  0  0  0  0  0  0  0  0  0  0  0
  127.3180  129.3920   64.2450 C   0  0  2  0  0  0  0  0  0  0  0  0
  127.1670  128.5970   65.4180 O   0  0  0  0  0  0  0  0  0  0  0  0
  126.7990  129.3010   66.5940 C   0  0  0  0  0  0  0  0  0  0  0  0
  127.5850  128.7250   67.7580 C   0  0  0  0  0  0  0  0  0  0  0  0
  127.0610  127.6700   68.5110 C   0  0  0  0  0  0  0  0  0  0  0  0
  127.7830  127.1630   69.5890 C   0  0  0  0  0  0  0  0  0  0  0  0
  129.0220  127.7110   69.9100 C   0  0  0  0  0  0  0  0  0  0  0  0
  129.5510  128.7630   69.1630 C   0  0  0  0  0  0  0  0  0  0  0  0
  128.8310  129.2700   68.0850 C   0  0  0  0  0  0  0  0  0  0  0  0
  130.9150  126.7960   65.0870 C   0  0  0  0  0  0  0  0  0  0  0  0
  130.8520  126.9380   66.4810 C   0  0  0  0  0  0  0  0  0  0  0  0
  131.9500  126.6230   67.2740 C   0  0  0  0  0  0  0  0  0  0  0  0
  133.1410  126.1680   66.6950 C   0  0  0  0  0  0  0  0  0  0  0  0
  134.3200  125.8580   67.5400 N   0  0  0  0  0  0  0  0  0  0  0  0
  134.2110  125.9530   68.7600 O   0  0  0  0  0  0  0  0  0  0  0  0
  135.3630  125.5120   66.9910 O   0  0  0  0  0  0  0  0  0  0  0  0
  133.2020  126.0210   65.3030 C   0  0  0  0  0  0  0  0  0  0  0  0
  132.1020  126.3290   64.5090 C   0  0  0  0  0  0  0  0  0  0  0  0
  1  2  2  0
  2  3  1  0
  4  3  1  1
  4  5  1  0
  5  6  1  0
  6  7  1  1
  7  8  1  0
  8  9  1  0
  9 10  1  0
 10 11  2  0
 11 12  1  0
 12 13  2  0
 13 14  1  0
 14 15  2  0
  6 16  1  0
 16 17  1  6
 17 18  1  0
 18 19  1  0
 19 20  2  0
 20 21  1  0
 21 22  2  0
 22 23  1  0
 23 24  2  0
 16 25  1  0
 25 26  1  1
 26 27  1  0
 27 28  1  0
 28 29  2  0
 29 30  1  0
 30 31  2  0
 31 32  1  0
 32 33  2  0
  2 34  1  0
 34 35  2  0
 35 36  1  0
 36 37  2  0
 37 38  1  0
 38 39  2  0
 38 40  1  0
 37 41  1  0
 41 42  2  0
 25  4  1  0
 33 28  1  0
 42 34  1  0
 15 10  1  0
 24 19  1  0
M  CHG  2  38   1  40  -1
M  END
>  <Binding energies>  (56) 
[-9.4]

>  <Ligand effiencies>  (56) 
[-0.22380952380952382]

>  <Interactions>  (56) 
["V-A:GLU:543:CB:4905, V-B:GLU:543:CB:9877, V-A:GLU:543:CG:4906, V-B:GLU:543:CD:9879, V-B:HIS:456:CE1:9040, V-A:ALA:541:CB:4891, H-A:GLY:454:N:4049, V-A:HIS:456:CE1:4069, V-A:GLU:543:CD:4907, V-B:LEU:475:CD1:9228, H-B:TYR:484:OH:9318, V-B:ILE:369:CG2:8207, V-B:ILE:369:CG1:8208, V-A:ARG:545:CZ:4925, V-A:ARG:545:CD:4922, V-A:ARG:545:CG:4921, H-A:HIS:456:ND1:4066, H-A:TYR:484:OH:4347, V-A:PRO:540:CB:4884, V-A:PRO:540:CA:4882, H-A:ALA:541:N:4890, V-B:GLY:453:C:9012, V-B:GLY:453:CA:9014, V-A:LEU:363:CA:3184, V-A:LEU:363:CD1:3188, V-A:PRO:540:N:4883, H-A:ILE:455:N:4054, V-A:TYR:539:C:4866, V-A:ILE:455:C:4051, V-A:ARG:545:CB:4920"]

$$$$
RR9_Rahimova_2017
     RDKit          3D

 36 40  0  0  0  0  0  0  0  0999 V2000
  129.1330  122.5360   73.7460 C   0  0  0  0  0  0  0  0  0  0  0  0
  129.7620  123.7760   73.1030 C   0  0  0  0  0  0  0  0  0  0  0  0
  128.9720  124.9140   73.4350 O   0  0  0  0  0  0  0  0  0  0  0  0
  128.3420  125.6200   72.4290 C   0  0  0  0  0  0  0  0  0  0  0  0
  128.9840  125.6500   71.1920 C   0  0  0  0  0  0  0  0  0  0  0  0
  128.4260  126.3380   70.1200 C   0  0  0  0  0  0  0  0  0  0  0  0
  127.2070  127.0190   70.2540 C   0  0  0  0  0  0  0  0  0  0  0  0
  126.6030  127.7670   69.1030 C   0  0  0  0  0  0  0  0  0  0  0  0
  127.3420  128.0580   67.9460 C   0  0  0  0  0  0  0  0  0  0  0  0
  126.7670  128.7480   66.8630 C   0  0  0  0  0  0  0  0  0  0  0  0
  127.5790  128.9400   65.6120 C   0  0  0  0  0  0  0  0  0  0  0  0
  127.2650  129.8040   64.7920 O   0  0  0  0  0  0  0  0  0  0  0  0
  128.6250  128.1040   65.4580 N   0  0  0  0  0  0  0  0  0  0  0  0
  129.4810  128.0070   64.2710 C   0  0  0  0  0  0  0  0  0  0  0  0
  130.2000  126.6440   64.1520 C   0  0  0  0  0  0  0  0  0  0  0  0
  131.3320  126.4310   65.1510 C   0  0  0  0  0  0  0  0  0  0  0  0
  131.1010  126.6030   66.5200 C   0  0  0  0  0  0  0  0  0  0  0  0
  132.1280  126.3750   67.4320 C   0  0  0  0  0  0  0  0  0  0  0  0
  133.3830  125.9800   66.9730 C   0  0  0  0  0  0  0  0  0  0  0  0
  133.6210  125.8110   65.6100 C   0  0  0  0  0  0  0  0  0  0  0  0
  132.5940  126.0380   64.6970 C   0  0  0  0  0  0  0  0  0  0  0  0
  125.4200  129.1580   67.0250 C   0  0  0  0  0  0  0  0  0  0  0  0
  124.4110  129.8860   66.2930 C   0  0  0  0  0  0  0  0  0  0  0  0
  124.5140  130.5930   64.9820 C   0  0  0  0  0  0  0  0  0  0  0  0
  125.0610  131.8770   64.9170 C   0  0  0  0  0  0  0  0  0  0  0  0
  125.1420  132.5420   63.6950 C   0  0  0  0  0  0  0  0  0  0  0  0
  124.6790  131.9210   62.5340 C   0  0  0  0  0  0  0  0  0  0  0  0
  124.7500  132.6520   61.2050 C   0  0  0  0  0  0  0  0  0  0  0  0
  124.1300  130.6400   62.5950 C   0  0  0  0  0  0  0  0  0  0  0  0
  124.0530  129.9770   63.8160 C   0  0  0  0  0  0  0  0  0  0  0  0
  123.2770  129.8970   66.9580 N   0  0  0  0  0  0  0  0  0  0  0  0
  123.4770  129.2670   68.1270 N   0  0  0  0  0  0  0  0  0  0  0  0
  124.7680  128.8040   68.2300 C   0  0  0  0  0  0  0  0  0  0  0  0
  125.3020  128.1420   69.2550 N   0  0  0  0  0  0  0  0  0  0  0  0
  126.5680  126.9860   71.5020 C   0  0  0  0  0  0  0  0  0  0  0  0
  127.1240  126.2970   72.5770 C   0  0  0  0  0  0  0  0  0  0  0  0
  1  2  1  0
  2  3  1  0
  3  4  1  0
  4  5  2  0
  5  6  1  0
  6  7  2  0
  7  8  1  0
  8  9  2  0
  9 10  1  0
 10 11  1  0
 11 12  2  0
 11 13  1  0
 13 14  1  0
 14 15  1  0
 15 16  1  0
 16 17  2  0
 17 18  1  0
 18 19  2  0
 19 20  1  0
 20 21  2  0
 10 22  2  0
 22 23  1  0
 23 24  1  0
 24 25  2  0
 25 26  1  0
 26 27  2  0
 27 28  1  0
 27 29  1  0
 29 30  2  0
 23 31  2  0
 31 32  1  0
 32 33  1  0
 33 34  2  0
  7 35  1  0
 35 36  2  0
 36  4  1  0
 34  8  1  0
 21 16  1  0
 33 22  1  0
 30 24  1  0
M  END
>  <Binding energies>  (57) 
[-10.0]

>  <Ligand effiencies>  (57) 
[-0.2631578947368421]

>  <Interactions>  (57) 
["V-B:ARG:545:CG:9893, V-B:GLU:543:CB:9877, V-B:GLU:543:CD:9879, V-B:HIS:456:CE1:9040, V-A:HIS:456:CE1:4069, V-A:GLU:543:CD:4907, V-B:LEU:475:CD1:9228, V-B:ARG:545:CZ:9897, H-B:TYR:484:OH:9318, V-B:ARG:545:CD:9894, H-B:GLY:454:N:9020, V-A:TYR:484:CZ:4346, V-A:ARG:545:CZ:4925, V-A:ARG:545:CD:4922, V-A:ARG:545:CG:4921, V-B:GLU:543:C:9873, V-B:GLY:544:C:9883, H-B:ILE:455:N:9025, V-B:ARG:545:CB:9892, V-B:GLY:454:CA:9019, H-B:GLU:543:OE2:9881, H-B:GLU:543:OE1:9880, H-B:ILE:455:O:9023, H-B:HIS:456:ND1:9037, V-B:GLY:544:CA:9885, V-B:LYS:547:CE:9921, V-B:ILE:455:C:9022, H-B:LYS:547:NZ:9922, V-A:HIS:456:CD2:4067, V-A:TYR:484:CB:4340"]

$$$$
