1a_Grossjean_2025
     RDKit          3D

 26 27  0  0  0  0  0  0  0  0999 V2000
  127.4850  139.5030   62.8650 C   0  0  0  0  0  0  0  0  0  0  0  0
  127.2360  138.2970   61.9560 C   0  0  0  0  0  0  0  0  0  0  0  0
  125.8490  137.9850   61.9510 O   0  0  0  0  0  0  0  0  0  0  0  0
  125.3390  137.0700   61.0860 C   0  0  0  0  0  0  0  0  0  0  0  0
  124.5900  137.3640   60.1490 O   0  0  0  0  0  0  0  0  0  0  0  0
  125.7630  135.6630   61.3920 C   0  0  0  0  0  0  0  0  0  0  0  0
  127.1210  135.3260   61.3130 C   0  0  0  0  0  0  0  0  0  0  0  0
  127.5450  134.0290   61.5860 C   0  0  0  0  0  0  0  0  0  0  0  0
  126.6250  133.0430   61.9420 C   0  0  0  0  0  0  0  0  0  0  0  0
  127.1640  131.7660   62.1940 N   0  0  0  0  0  0  0  0  0  0  0  0
  127.7260  131.2670   63.3150 C   0  0  0  0  0  0  0  0  0  0  0  0
  127.8720  131.8770   64.3750 O   0  0  0  0  0  0  0  0  0  0  0  0
  128.2100  129.8190   63.2170 C   0  0  0  0  0  0  0  0  0  0  0  0
  126.8390  128.6550   62.9520 S   0  0  0  0  0  0  0  0  0  0  0  0
  125.6040  129.4960   61.9860 C   0  0  0  0  0  0  0  0  0  0  0  0
  125.8670  129.5130   60.6560 N   0  0  0  0  0  0  0  0  0  0  0  0
  124.9940  130.1330   59.8270 C   0  0  0  0  0  0  0  0  0  0  0  0
  125.3610  130.1240   58.3550 C   0  0  0  0  0  0  0  0  0  0  0  0
  123.8290  130.7450   60.2840 C   0  0  0  0  0  0  0  0  0  0  0  0
  123.5370  130.7140   61.6520 C   0  0  0  0  0  0  0  0  0  0  0  0
  122.2460  131.3770   62.1290 C   0  0  0  0  0  0  0  0  0  0  0  0
  124.4330  130.0690   62.5360 C   0  0  0  0  0  0  0  0  0  0  0  0
  124.1240  129.9820   63.9660 C   0  0  0  0  0  0  0  0  0  0  0  0
  123.8770  129.9150   65.0940 N   0  0  0  0  0  0  0  0  0  0  0  0
  125.2640  133.3730   62.0310 C   0  0  0  0  0  0  0  0  0  0  0  0
  124.8410  134.6700   61.7570 C   0  0  0  0  0  0  0  0  0  0  0  0
  1  2  1  0
  2  3  1  0
  3  4  1  0
  4  5  2  0
  4  6  1  0
  6  7  2  0
  7  8  1  0
  8  9  2  0
  9 10  1  0
 10 11  1  0
 11 12  2  0
 11 13  1  0
 13 14  1  0
 14 15  1  0
 15 16  2  0
 16 17  1  0
 17 18  1  0
 17 19  2  0
 19 20  1  0
 20 21  1  0
 20 22  2  0
 22 23  1  0
 23 24  3  0
  9 25  1  0
 25 26  2  0
 26  6  1  0
 22 15  1  0
M  END
>  <Binding energies>  (1) 
[-7.55]

>  <Ligand effiencies>  (1) 
[-0.2796296296296296]

>  <Interactions>  (1) 
["V-B:ILE:369:CG1:8209, V-B:GLY:453:C:9013, V-B:ASP:366:CB:8183, V-B:ILE:369:CB:8207, V-A:TYR:539:CE1:4875, V-B:ILE:369:CG2:8208, V-B:LEU:475:CD2:9230, V-B:ASP:366:CG:8184, V-B:GLY:454:CA:9020, V-B:SER:385:CB:8380, V-B:ASP:366:CA:8181, V-B:GLY:453:CA:9015, V-A:TYR:539:CD1:4873, V-A:TYR:539:C:4867, V-A:GLU:543:CD:4908, V-B:ARG:545:CZ:9898, H-B:TYR:484:OH:9319, H-B:GLY:454:N:9021, V-B:LEU:475:CG:9228, V-A:VAL:344:CG1:3001, V-B:HIS:383:CE1:8364, V-B:PRO:482:CB:9297, V-B:HIS:383:CD2:8363, H-B:ARG:545:NE:9896, H-B:ARG:545:NH2:9900, H-B:HIS:383:NE2:8365"]

$$$$
1aa_Ghoteimi_2023
     RDKit          3D

 40 43  0  0  0  0  0  0  0  0999 V2000
  131.1930  131.9530   55.7590 C   0  0  0  0  0  0  0  0  0  0  0  0
  131.5970  132.8830   56.9070 C   0  0  0  0  0  0  0  0  0  0  0  0
  130.4700  133.6500   57.3130 O   0  0  0  0  0  0  0  0  0  0  0  0
  129.2260  133.1080   57.3390 C   0  0  0  0  0  0  0  0  0  0  0  0
  128.4280  133.1900   56.3990 O   0  0  0  0  0  0  0  0  0  0  0  0
  128.9130  132.3970   58.6240 C   0  0  0  0  0  0  0  0  0  0  0  0
  129.7670  132.4650   59.7360 C   0  0  0  0  0  0  0  0  0  0  0  0
  129.4500  131.7950   60.9160 C   0  0  0  0  0  0  0  0  0  0  0  0
  128.2680  131.0450   61.0050 C   0  0  0  0  0  0  0  0  0  0  0  0
  127.8470  130.3290   62.1400 N   0  0  0  0  0  0  0  0  0  0  0  0
  126.6090  130.1550   62.6580 C   0  0  0  0  0  0  0  0  0  0  0  0
  125.5750  130.6230   62.1820 O   0  0  0  0  0  0  0  0  0  0  0  0
  126.4920  129.3060   63.9340 C   0  0  0  0  0  0  0  0  0  0  0  0
  127.6510  129.4800   64.7600 O   0  0  0  0  0  0  0  0  0  0  0  0
  128.2530  128.3850   65.3640 C   0  0  0  0  0  0  0  0  0  0  0  0
  128.1460  128.2610   66.7160 N   0  0  0  0  0  0  0  0  0  0  0  0
  128.7340  127.2100   67.3460 C   0  0  0  0  0  0  0  0  0  0  0  0
  128.5680  127.1430   68.8380 C   0  0  0  0  0  0  0  0  0  0  0  0
  129.6650  127.3130   69.6950 C   0  0  0  0  0  0  0  0  0  0  0  0
  129.5140  127.2500   71.0770 C   0  0  0  0  0  0  0  0  0  0  0  0
  128.2640  127.0170   71.6450 C   0  0  0  0  0  0  0  0  0  0  0  0
  128.2090  126.9700   73.0250 O   0  0  0  0  0  0  0  0  0  0  0  0
  127.9530  128.1680   73.7510 C   0  0  0  0  0  0  0  0  0  0  0  0
  127.1570  126.8510   70.8020 C   0  0  0  0  0  0  0  0  0  0  0  0
  127.3100  126.9160   69.4210 C   0  0  0  0  0  0  0  0  0  0  0  0
  129.4340  126.2410   66.6170 C   0  0  0  0  0  0  0  0  0  0  0  0
  129.5490  126.3400   65.2240 C   0  0  0  0  0  0  0  0  0  0  0  0
  130.2990  125.2690   64.5020 C   0  0  0  0  0  0  0  0  0  0  0  0
  129.6330  124.1240   64.0550 C   0  0  0  0  0  0  0  0  0  0  0  0
  130.3230  123.1250   63.3730 C   0  0  0  0  0  0  0  0  0  0  0  0
  131.6880  123.2520   63.1200 C   0  0  0  0  0  0  0  0  0  0  0  0
  132.2900  122.2120   62.4370 O   0  0  0  0  0  0  0  0  0  0  0  0
  133.6610  122.3210   62.0740 C   0  0  0  0  0  0  0  0  0  0  0  0
  132.3590  124.4040   63.5600 C   0  0  0  0  0  0  0  0  0  0  0  0
  131.6670  125.4010   64.2420 C   0  0  0  0  0  0  0  0  0  0  0  0
  128.9490  127.4480   64.5820 C   0  0  0  0  0  0  0  0  0  0  0  0
  129.0540  127.6590   63.1370 C   0  0  0  0  0  0  0  0  0  0  0  0
  129.1360  127.8280   61.9950 N   0  0  0  0  0  0  0  0  0  0  0  0
  127.4190  130.9750   59.9000 C   0  0  0  0  0  0  0  0  0  0  0  0
  127.7360  131.6430   58.7210 C   0  0  0  0  0  0  0  0  0  0  0  0
  1  2  1  0
  2  3  1  0
  3  4  1  0
  4  5  2  0
  4  6  1  0
  6  7  2  0
  7  8  1  0
  8  9  2  0
  9 10  1  0
 10 11  1  0
 11 12  2  0
 11 13  1  0
 13 14  1  0
 14 15  1  0
 15 16  2  0
 16 17  1  0
 17 18  1  0
 18 19  2  0
 19 20  1  0
 20 21  2  0
 21 22  1  0
 22 23  1  0
 21 24  1  0
 24 25  2  0
 17 26  2  0
 26 27  1  0
 27 28  1  0
 28 29  2  0
 29 30  1  0
 30 31  2  0
 31 32  1  0
 32 33  1  0
 31 34  1  0
 34 35  2  0
 27 36  2  0
 36 37  1  0
 37 38  3  0
  9 39  1  0
 39 40  2  0
 40  6  1  0
 36 15  1  0
 25 18  1  0
 35 28  1  0
M  END
>  <Binding energies>  (2) 
[-8.3]

>  <Ligand effiencies>  (2) 
[-0.20243902439024392]

>  <Interactions>  (2) 
["V-A:TYR:539:CA:4869, V-A:PRO:540:CD:4887, V-A:ILE:538:CG2:4863, V-A:ILE:538:CB:4862, V-A:TYR:539:CE1:4875, V-A:LEU:363:CD1:3189, V-A:PRO:540:CA:4883, V-A:MET:535:CE:4835, V-A:TYR:539:CD1:4873, V-A:PRO:540:N:4884, V-A:PRO:540:CB:4885, V-A:TYR:539:C:4867, V-A:GLY:454:CA:4049, V-A:GLU:543:CD:4908, V-A:ILE:369:CD1:3239, V-A:ARG:545:CZ:4926, V-A:TYR:539:CG:4872, V-B:GLU:543:CD:9880, V-B:HIS:456:CE1:9041, V-B:GLU:543:C:9874, V-A:HIS:456:CE1:4070, V-B:GLU:543:CG:9879, V-B:GLU:543:CB:9878, V-A:LEU:475:CD2:4259, V-B:HIS:456:CD2:9039, V-A:GLU:543:CG:4907, H-B:LYS:547:NZ:9923, V-B:GLY:544:CA:9886, V-B:GLY:544:C:9884, H-A:TYR:539:N:4870, H-A:GLU:543:OE1:4909, H-B:TYR:484:OH:9319"]

$$$$
1b_Grossjean_2025
     RDKit          3D

 25 26  0  0  0  0  0  0  0  0999 V2000
  127.3730  138.5430   62.1840 C   0  0  0  0  0  0  0  0  0  0  0  0
  126.8230  137.9260   61.0280 O   0  0  0  0  0  0  0  0  0  0  0  0
  125.7690  137.0750   61.1250 C   0  0  0  0  0  0  0  0  0  0  0  0
  124.5930  137.4300   60.9960 O   0  0  0  0  0  0  0  0  0  0  0  0
  126.1760  135.6550   61.3980 C   0  0  0  0  0  0  0  0  0  0  0  0
  127.4940  135.3130   61.7360 C   0  0  0  0  0  0  0  0  0  0  0  0
  127.8380  133.9870   61.9810 C   0  0  0  0  0  0  0  0  0  0  0  0
  126.8790  132.9780   61.8960 C   0  0  0  0  0  0  0  0  0  0  0  0
  127.3400  131.6750   62.1640 N   0  0  0  0  0  0  0  0  0  0  0  0
  127.7750  131.1250   63.3180 C   0  0  0  0  0  0  0  0  0  0  0  0
  127.8420  131.7010   64.4040 O   0  0  0  0  0  0  0  0  0  0  0  0
  128.1990  129.6590   63.2270 C   0  0  0  0  0  0  0  0  0  0  0  0
  126.7900  128.5560   62.9050 S   0  0  0  0  0  0  0  0  0  0  0  0
  125.5990  129.4800   61.9580 C   0  0  0  0  0  0  0  0  0  0  0  0
  125.9150  129.5940   60.6440 N   0  0  0  0  0  0  0  0  0  0  0  0
  125.0760  130.2770   59.8310 C   0  0  0  0  0  0  0  0  0  0  0  0
  125.4870  130.3510   58.3710 C   0  0  0  0  0  0  0  0  0  0  0  0
  123.9050  130.8770   60.2900 C   0  0  0  0  0  0  0  0  0  0  0  0
  123.5820  130.7830   61.6480 C   0  0  0  0  0  0  0  0  0  0  0  0
  122.3020  131.4620   62.1310 C   0  0  0  0  0  0  0  0  0  0  0  0
  124.4430  130.0750   62.5160 C   0  0  0  0  0  0  0  0  0  0  0  0
  124.1480  130.0010   63.9490 C   0  0  0  0  0  0  0  0  0  0  0  0
  123.9110  129.9440   65.0800 N   0  0  0  0  0  0  0  0  0  0  0  0
  125.5590  133.3130   61.5590 C   0  0  0  0  0  0  0  0  0  0  0  0
  125.2150  134.6390   61.3140 C   0  0  0  0  0  0  0  0  0  0  0  0
  1  2  1  0
  2  3  1  0
  3  4  2  0
  3  5  1  0
  5  6  2  0
  6  7  1  0
  7  8  2  0
  8  9  1  0
  9 10  1  0
 10 11  2  0
 10 12  1  0
 12 13  1  0
 13 14  1  0
 14 15  2  0
 15 16  1  0
 16 17  1  0
 16 18  2  0
 18 19  1  0
 19 20  1  0
 19 21  2  0
 21 22  1  0
 22 23  3  0
  8 24  1  0
 24 25  2  0
 25  5  1  0
 21 14  1  0
M  END
>  <Binding energies>  (3) 
[-7.24]

>  <Ligand effiencies>  (3) 
[-0.2784615384615385]

>  <Interactions>  (3) 
["V-B:ILE:369:CG1:8209, V-B:GLY:453:C:9013, V-B:ASP:366:CB:8183, V-B:ILE:369:CB:8207, V-A:TYR:539:CE1:4875, V-B:ILE:369:CG2:8208, V-B:LEU:475:CD2:9230, V-B:ASP:366:CG:8184, V-B:GLY:454:CA:9020, V-B:ASP:366:CA:8181, V-B:GLY:453:CA:9015, V-A:TYR:539:CD1:4873, V-A:ALA:541:CB:4892, V-A:TYR:539:C:4867, V-A:GLU:543:CD:4908, V-B:ARG:545:CZ:9898, H-B:TYR:484:OH:9319, H-B:GLY:454:N:9021, V-B:LEU:475:CG:9228, V-B:HIS:383:CE1:8364, V-B:PRO:482:CB:9297, H-B:ARG:545:NE:9896, H-B:ARG:545:NH2:9900, H-B:HIS:383:NE2:8365"]

$$$$
1c_Grossjean_2025
     RDKit          3D

 23 24  0  0  0  0  0  0  0  0999 V2000
  131.6850  132.0930   55.7090 C   0  0  0  0  0  0  0  0  0  0  0  0
  130.6490  132.9460   56.1840 O   0  0  0  0  0  0  0  0  0  0  0  0
  130.2100  132.8110   57.4870 C   0  0  0  0  0  0  0  0  0  0  0  0
  131.0620  132.1410   58.3640 C   0  0  0  0  0  0  0  0  0  0  0  0
  130.7090  131.9560   59.6970 C   0  0  0  0  0  0  0  0  0  0  0  0
  129.4870  132.4520   60.1750 C   0  0  0  0  0  0  0  0  0  0  0  0
  129.0270  132.3120   61.4980 N   0  0  0  0  0  0  0  0  0  0  0  0
  129.7330  132.1860   62.6420 C   0  0  0  0  0  0  0  0  0  0  0  0
  130.9610  132.1880   62.7280 O   0  0  0  0  0  0  0  0  0  0  0  0
  128.8980  132.0360   63.9150 C   0  0  0  0  0  0  0  0  0  0  0  0
  127.3620  131.1120   63.6130 S   0  0  0  0  0  0  0  0  0  0  0  0
  126.1540  132.2350   62.9410 C   0  0  0  0  0  0  0  0  0  0  0  0
  126.6990  133.3560   62.4040 N   0  0  0  0  0  0  0  0  0  0  0  0
  125.8770  134.2850   61.8620 C   0  0  0  0  0  0  0  0  0  0  0  0
  126.5590  135.5050   61.2720 C   0  0  0  0  0  0  0  0  0  0  0  0
  124.4920  134.1440   61.8440 C   0  0  0  0  0  0  0  0  0  0  0  0
  123.9170  133.0050   62.4170 C   0  0  0  0  0  0  0  0  0  0  0  0
  122.3950  132.8800   62.4000 C   0  0  0  0  0  0  0  0  0  0  0  0
  124.7560  132.0210   62.9900 C   0  0  0  0  0  0  0  0  0  0  0  0
  124.1700  130.8480   63.6440 C   0  0  0  0  0  0  0  0  0  0  0  0
  123.7070  129.9210   64.1590 N   0  0  0  0  0  0  0  0  0  0  0  0
  128.6270  133.1140   59.2970 C   0  0  0  0  0  0  0  0  0  0  0  0
  128.9830  133.2970   57.9640 C   0  0  0  0  0  0  0  0  0  0  0  0
  1  2  1  0
  2  3  1  0
  3  4  2  0
  4  5  1  0
  5  6  2  0
  6  7  1  0
  7  8  1  0
  8  9  2  0
  8 10  1  0
 10 11  1  0
 11 12  1  0
 12 13  2  0
 13 14  1  0
 14 15  1  0
 14 16  2  0
 16 17  1  0
 17 18  1  0
 17 19  2  0
 19 20  1  0
 20 21  3  0
  6 22  1  0
 22 23  2  0
 23  3  1  0
 19 12  1  0
M  END
>  <Binding energies>  (4) 
[-7.09]

>  <Ligand effiencies>  (4) 
[-0.29541666666666666]

>  <Interactions>  (4) 
["V-A:TYR:539:CA:4869, V-B:ILE:369:CG1:8209, H-A:ALA:541:N:4891, V-A:ILE:538:CG2:4863, V-A:ILE:538:CB:4862, V-B:GLY:453:C:9013, V-B:ILE:369:CB:8207, V-A:TYR:539:CE1:4875, V-A:LEU:363:CD1:3189, V-B:ILE:369:CG2:8208, V-A:PRO:540:CA:4883, V-B:LEU:475:CD2:9230, V-B:GLY:454:CA:9020, V-A:MET:535:CE:4835, V-A:TYR:539:CD1:4873, V-A:ALA:541:CB:4892, V-A:PRO:540:N:4884, V-A:PRO:540:CB:4885, V-A:TYR:539:C:4867, V-A:GLU:543:CD:4908, V-A:TYR:539:CG:4872, V-A:GLU:543:CG:4907, H-A:TYR:539:N:4870, H-B:TYR:484:OH:9319, H-B:GLY:454:N:9021, H-B:ARG:545:NE:9896, H-B:ARG:545:NH1:9899, H-B:ARG:545:NH2:9900, V-B:ILE:369:CD1:8210"]

$$$$
1d_Grossjean_2025
     RDKit          3D

 21 22  0  0  0  0  0  0  0  0999 V2000
  124.0480  131.6400   62.2750 C   0  0  0  0  0  0  0  0  0  0  0  0
  124.5890  133.0130   61.9260 C   0  0  0  0  0  0  0  0  0  0  0  0
  123.7620  134.0210   61.4360 C   0  0  0  0  0  0  0  0  0  0  0  0
  124.3140  135.2710   61.1410 C   0  0  0  0  0  0  0  0  0  0  0  0
  123.3840  136.3650   60.6190 C   0  0  0  0  0  0  0  0  0  0  0  0
  125.6990  135.4790   61.3380 C   0  0  0  0  0  0  0  0  0  0  0  0
  126.2900  136.7940   61.0820 C   0  0  0  0  0  0  0  0  0  0  0  0
  126.7550  137.8350   60.8780 N   0  0  0  0  0  0  0  0  0  0  0  0
  126.4670  134.3920   61.8170 C   0  0  0  0  0  0  0  0  0  0  0  0
  128.2180  134.4760   62.1210 S   0  0  0  0  0  0  0  0  0  0  0  0
  128.8220  132.7690   62.2880 C   0  0  0  0  0  0  0  0  0  0  0  0
  129.9580  132.4610   61.3110 C   0  0  0  0  0  0  0  0  0  0  0  0
  131.0730  132.1840   61.7530 O   0  0  0  0  0  0  0  0  0  0  0  0
  129.6220  132.4990   60.0030 N   0  0  0  0  0  0  0  0  0  0  0  0
  130.4160  132.2870   58.8610 C   0  0  0  0  0  0  0  0  0  0  0  0
  129.9900  132.9340   57.6980 C   0  0  0  0  0  0  0  0  0  0  0  0
  130.7070  132.7960   56.5130 C   0  0  0  0  0  0  0  0  0  0  0  0
  131.8590  132.0130   56.4910 C   0  0  0  0  0  0  0  0  0  0  0  0
  132.3000  131.3690   57.6450 C   0  0  0  0  0  0  0  0  0  0  0  0
  131.5840  131.5050   58.8310 C   0  0  0  0  0  0  0  0  0  0  0  0
  125.9170  133.1890   62.1200 N   0  0  0  0  0  0  0  0  0  0  0  0
  1  2  1  0
  2  3  2  0
  3  4  1  0
  4  5  1  0
  4  6  2  0
  6  7  1  0
  7  8  3  0
  6  9  1  0
  9 10  1  0
 10 11  1  0
 11 12  1  0
 12 13  2  0
 12 14  1  0
 14 15  1  0
 15 16  2  0
 16 17  1  0
 17 18  2  0
 18 19  1  0
 19 20  2  0
  9 21  2  0
 21  2  1  0
 20 15  1  0
M  END
>  <Binding energies>  (5) 
[-7.67]

>  <Ligand effiencies>  (5) 
[-0.34863636363636363]

>  <Interactions>  (5) 
["H-A:ALA:541:N:4891, V-A:ILE:538:CG2:4863, V-A:ILE:538:CB:4862, V-B:SER:385:CA:8378, V-A:TYR:539:CE1:4875, V-A:LEU:363:CD1:3189, V-B:ILE:369:CG2:8208, V-A:PRO:540:CA:4883, V-B:LEU:475:CD2:9230, V-A:ILE:538:CA:4860, V-B:LEU:373:CD1:8251, V-B:SER:385:CB:8380, V-A:TYR:539:CD1:4873, V-A:ALA:541:CB:4892, V-A:PRO:540:N:4884, V-A:PRO:540:CB:4885, V-A:TYR:539:C:4867, V-A:PRO:540:C:4881, H-A:TYR:539:O:4868, V-A:TYR:539:CB:4871, H-B:HIS:383:NE2:8365"]

$$$$
1e_Grossjean_2025
     RDKit          3D

 22 23  0  0  0  0  0  0  0  0999 V2000
  128.5980  133.2540   54.7810 C   0  0  0  0  0  0  0  0  0  0  0  0
  129.4690  133.0150   56.0000 C   0  0  0  0  0  0  0  0  0  0  0  0
  130.8200  132.6770   55.8780 C   0  0  0  0  0  0  0  0  0  0  0  0
  131.5580  132.4700   57.0440 C   0  0  0  0  0  0  0  0  0  0  0  0
  130.9380  132.6030   58.2880 C   0  0  0  0  0  0  0  0  0  0  0  0
  129.5830  132.9490   58.3380 C   0  0  0  0  0  0  0  0  0  0  0  0
  129.0100  133.0570   59.6180 N   0  0  0  0  0  0  0  0  0  0  0  0
  129.0620  132.1730   60.6390 C   0  0  0  0  0  0  0  0  0  0  0  0
  129.6340  131.0830   60.6020 O   0  0  0  0  0  0  0  0  0  0  0  0
  128.3160  132.5820   61.9110 C   0  0  0  0  0  0  0  0  0  0  0  0
  127.9770  134.3680   61.9570 S   0  0  0  0  0  0  0  0  0  0  0  0
  126.2280  134.6220   61.7310 C   0  0  0  0  0  0  0  0  0  0  0  0
  125.4820  133.5230   62.0090 N   0  0  0  0  0  0  0  0  0  0  0  0
  124.1370  133.5940   61.8720 C   0  0  0  0  0  0  0  0  0  0  0  0
  123.3710  132.3290   62.2080 C   0  0  0  0  0  0  0  0  0  0  0  0
  123.4860  134.7480   61.4420 C   0  0  0  0  0  0  0  0  0  0  0  0
  124.2460  135.8790   61.1280 C   0  0  0  0  0  0  0  0  0  0  0  0
  123.5100  137.1270   60.6420 C   0  0  0  0  0  0  0  0  0  0  0  0
  125.6530  135.8280   61.2620 C   0  0  0  0  0  0  0  0  0  0  0  0
  126.4670  136.9840   60.8810 C   0  0  0  0  0  0  0  0  0  0  0  0
  127.1080  137.8990   60.5800 N   0  0  0  0  0  0  0  0  0  0  0  0
  128.8530  133.1490   57.2010 N   0  0  0  0  0  0  0  0  0  0  0  0
  1  2  1  0
  2  3  2  0
  3  4  1  0
  4  5  2  0
  5  6  1  0
  6  7  1  0
  7  8  1  0
  8  9  2  0
  8 10  1  0
 10 11  1  0
 11 12  1  0
 12 13  2  0
 13 14  1  0
 14 15  1  0
 14 16  2  0
 16 17  1  0
 17 18  1  0
 17 19  2  0
 19 20  1  0
 20 21  3  0
  6 22  2  0
 22  2  1  0
 19 12  1  0
M  END
>  <Binding energies>  (6) 
[-7.45]

>  <Ligand effiencies>  (6) 
[-0.3239130434782609]

>  <Interactions>  (6) 
["V-A:PRO:540:CD:4887, V-B:ILE:369:CG1:8209, V-A:ILE:538:CG2:4863, V-A:TYR:539:CE2:4876, V-A:ILE:538:CB:4862, V-B:SER:385:CA:8378, V-A:TYR:539:CE1:4875, V-A:LEU:363:CD1:3189, V-B:ILE:369:CG2:8208, V-A:PRO:540:CA:4883, V-B:LEU:475:CD2:9230, V-A:ILE:538:CA:4860, V-B:GLY:454:CA:9020, V-B:LEU:373:CD1:8251, V-A:MET:535:CE:4835, V-B:SER:385:CB:8380, V-A:TYR:539:CD1:4873, V-A:PRO:540:N:4884, V-A:PRO:540:CB:4885, V-A:TYR:539:C:4867, V-A:TYR:539:CG:4872, V-A:ILE:538:C:4858, H-A:TYR:539:N:4870, V-A:TYR:539:CD2:4874, V-B:SER:385:C:8376, H-A:TYR:539:O:4868, V-B:VAL:384:C:8368, V-B:HIS:383:CD2:8363, V-A:TYR:539:CB:4871, H-B:HIS:383:NE2:8365, V-A:VAL:537:C:4850"]

$$$$
1f_Grossjean_2025
     RDKit          3D

 21 22  0  0  0  0  0  0  0  0999 V2000
  125.1960  130.5830   60.0520 C   0  0  0  0  0  0  0  0  0  0  0  0
  126.3790  131.2170   59.3430 C   0  0  0  0  0  0  0  0  0  0  0  0
  126.3830  131.4140   57.9650 C   0  0  0  0  0  0  0  0  0  0  0  0
  127.5060  131.9920   57.3650 C   0  0  0  0  0  0  0  0  0  0  0  0
  127.4950  132.1800   55.8490 C   0  0  0  0  0  0  0  0  0  0  0  0
  128.6050  132.3690   58.1710 C   0  0  0  0  0  0  0  0  0  0  0  0
  129.8120  132.9230   57.5550 C   0  0  0  0  0  0  0  0  0  0  0  0
  130.7650  133.3620   57.0660 N   0  0  0  0  0  0  0  0  0  0  0  0
  128.5020  132.1570   59.5660 C   0  0  0  0  0  0  0  0  0  0  0  0
  129.7810  132.5680   60.7380 S   0  0  0  0  0  0  0  0  0  0  0  0
  129.0240  132.7020   62.3930 C   0  0  0  0  0  0  0  0  0  0  0  0
  127.6590  133.4070   62.4250 C   0  0  0  0  0  0  0  0  0  0  0  0
  126.7590  132.9920   63.1560 O   0  0  0  0  0  0  0  0  0  0  0  0
  127.5510  134.4590   61.5860 N   0  0  0  0  0  0  0  0  0  0  0  0
  126.4630  135.3240   61.3660 C   0  0  0  0  0  0  0  0  0  0  0  0
  125.1260  134.9280   61.1710 C   0  0  0  0  0  0  0  0  0  0  0  0
  124.1410  135.8970   60.9660 C   0  0  0  0  0  0  0  0  0  0  0  0
  124.5150  137.2410   60.9630 C   0  0  0  0  0  0  0  0  0  0  0  0
  125.7940  137.6490   61.1530 N   0  0  0  0  0  0  0  0  0  0  0  0
  126.7410  136.6960   61.3510 C   0  0  0  0  0  0  0  0  0  0  0  0
  127.4170  131.5740   60.1350 N   0  0  0  0  0  0  0  0  0  0  0  0
  1  2  1  0
  2  3  2  0
  3  4  1  0
  4  5  1  0
  4  6  2  0
  6  7  1  0
  7  8  3  0
  6  9  1  0
  9 10  1  0
 10 11  1  0
 11 12  1  0
 12 13  2  0
 12 14  1  0
 14 15  1  0
 15 16  2  0
 16 17  1  0
 17 18  2  0
 18 19  1  0
 19 20  2  0
  9 21  2  0
 21  2  1  0
 20 15  1  0
M  END
>  <Binding energies>  (7) 
[-7.08]

>  <Ligand effiencies>  (7) 
[-0.32181818181818184]

>  <Interactions>  (7) 
["H-A:ALA:541:N:4891, V-A:TYR:539:CE2:4876, V-B:SER:385:CA:8378, V-A:TYR:539:CE1:4875, V-A:TYR:539:CZ:4877, V-B:ILE:369:CG2:8208, V-A:PRO:540:CA:4883, V-B:LEU:475:CD2:9230, V-B:ASP:366:CG:8184, V-B:LEU:373:CD1:8251, V-A:MET:535:CE:4835, V-B:SER:385:CB:8380, V-A:TYR:539:CD1:4873, V-A:ALA:541:CB:4892, V-A:PRO:540:N:4884, V-A:TYR:539:C:4867, H-A:TYR:539:N:4870, H-B:TYR:484:OH:9319, H-A:TYR:539:O:4868, V-B:HIS:383:CD2:8363, H-B:HIS:383:NE2:8365"]

$$$$
1g_Grossjean_2025
     RDKit          3D

 22 23  0  0  0  0  0  0  0  0999 V2000
  126.3890  128.2030   58.6510 C   0  0  0  0  0  0  0  0  0  0  0  0
  126.4270  126.7750   58.1380 C   0  0  0  0  0  0  0  0  0  0  0  0
  127.4940  126.3010   57.3780 C   0  0  0  0  0  0  0  0  0  0  0  0
  127.4660  124.9790   56.9200 C   0  0  0  0  0  0  0  0  0  0  0  0
  128.6410  124.4860   56.0750 C   0  0  0  0  0  0  0  0  0  0  0  0
  126.3640  124.1570   57.2440 C   0  0  0  0  0  0  0  0  0  0  0  0
  126.2890  122.7870   56.7310 C   0  0  0  0  0  0  0  0  0  0  0  0
  126.2320  121.7050   56.3230 N   0  0  0  0  0  0  0  0  0  0  0  0
  125.3370  124.7150   58.0420 C   0  0  0  0  0  0  0  0  0  0  0  0
  123.8860  123.8210   58.5510 S   0  0  0  0  0  0  0  0  0  0  0  0
  123.8040  123.9130   60.3650 C   0  0  0  0  0  0  0  0  0  0  0  0
  125.1910  123.8450   61.0050 C   0  0  0  0  0  0  0  0  0  0  0  0
  125.5340  122.8380   61.6270 O   0  0  0  0  0  0  0  0  0  0  0  0
  125.9740  124.9260   60.8490 N   0  0  0  0  0  0  0  0  0  0  0  0
  127.3510  125.0540   61.3250 C   0  0  0  0  0  0  0  0  0  0  0  0
  128.1240  123.7390   61.3700 C   0  0  0  0  0  0  0  0  0  0  0  0
  128.6360  123.2720   62.5840 C   0  0  0  0  0  0  0  0  0  0  0  0
  129.3410  122.0720   62.6260 C   0  0  0  0  0  0  0  0  0  0  0  0
  129.5270  121.3400   61.4540 C   0  0  0  0  0  0  0  0  0  0  0  0
  129.0150  121.7980   60.2420 C   0  0  0  0  0  0  0  0  0  0  0  0
  128.3120  122.9990   60.1990 C   0  0  0  0  0  0  0  0  0  0  0  0
  125.3620  126.0050   58.4640 N   0  0  0  0  0  0  0  0  0  0  0  0
  1  2  1  0
  2  3  2  0
  3  4  1  0
  4  5  1  0
  4  6  2  0
  6  7  1  0
  7  8  3  0
  6  9  1  0
  9 10  1  0
 10 11  1  0
 11 12  1  0
 12 13  2  0
 12 14  1  0
 14 15  1  0
 15 16  1  0
 16 17  2  0
 17 18  1  0
 18 19  2  0
 19 20  1  0
 20 21  2  0
  9 22  2  0
 22  2  1  0
 21 16  1  0
M  END
>  <Binding energies>  (8) 
[-7.2]

>  <Ligand effiencies>  (8) 
[-0.3130434782608696]

>  <Interactions>  (8) 
["V-B:ASP:366:CG:8184, V-B:TYR:539:C:9839, V-B:TYR:539:CZ:9849, V-B:PRO:540:CA:9855, V-B:TYR:539:CE2:9848, V-B:PRO:540:N:9856, V-B:TYR:539:CE1:9847, V-B:PRO:540:CB:9857, V-B:TYR:539:CD2:9846, H-B:TYR:539:N:9842, V-B:GLU:543:CD:9880, H-B:ALA:541:N:9863, V-B:GLU:543:CG:9879, V-B:ALA:541:CB:9864, V-A:LEU:475:CD2:4259, V-B:MET:535:CE:9807, V-B:PRO:540:CD:9859, H-B:GLU:543:OE1:9881, H-B:ASP:366:OD1:8185, H-B:TYR:531:OH:9767, V-B:LEU:363:CA:8156, V-B:ASN:362:C:8143, V-B:ASN:362:CB:8147"]

$$$$
1h_Grossjean_2025
     RDKit          3D

 28 29  0  0  0  0  0  0  0  0999 V2000
  127.8850  133.2980   54.5840 C   0  0  0  0  0  0  0  0  0  0  0  0
  128.4490  133.6540   55.8410 O   0  0  0  0  0  0  0  0  0  0  0  0
  128.3540  132.7710   56.9020 C   0  0  0  0  0  0  0  0  0  0  0  0
  127.2870  131.8780   57.0860 C   0  0  0  0  0  0  0  0  0  0  0  0
  127.2500  131.0240   58.1890 C   0  0  0  0  0  0  0  0  0  0  0  0
  126.0960  130.0430   58.3640 C   0  0  0  0  0  0  0  0  0  0  0  0
  125.1700  130.3990   59.4400 N   0  0  0  0  0  0  0  0  0  0  0  0
  124.1230  131.2340   59.3190 C   0  0  0  0  0  0  0  0  0  0  0  0
  123.8050  131.7820   58.2640 O   0  0  0  0  0  0  0  0  0  0  0  0
  123.3110  131.4970   60.5870 C   0  0  0  0  0  0  0  0  0  0  0  0
  123.9690  132.9000   61.5380 S   0  0  0  0  0  0  0  0  0  0  0  0
  125.5660  132.4310   62.1840 C   0  0  0  0  0  0  0  0  0  0  0  0
  126.6210  133.1660   61.7410 N   0  0  0  0  0  0  0  0  0  0  0  0
  127.8600  132.8650   62.1950 C   0  0  0  0  0  0  0  0  0  0  0  0
  128.9840  133.7330   61.6590 C   0  0  0  0  0  0  0  0  0  0  0  0
  128.1020  131.8310   63.0960 C   0  0  0  0  0  0  0  0  0  0  0  0
  127.0250  131.0660   63.5570 C   0  0  0  0  0  0  0  0  0  0  0  0
  127.3120  129.9380   64.5460 C   0  0  0  0  0  0  0  0  0  0  0  0
  125.7220  131.3620   63.0970 C   0  0  0  0  0  0  0  0  0  0  0  0
  124.5750  130.5760   63.5600 C   0  0  0  0  0  0  0  0  0  0  0  0
  123.6700  129.9540   63.9270 N   0  0  0  0  0  0  0  0  0  0  0  0
  128.3060  131.0330   59.1010 C   0  0  0  0  0  0  0  0  0  0  0  0
  129.3890  131.9120   58.9390 C   0  0  0  0  0  0  0  0  0  0  0  0
  130.4670  131.9760   59.8040 O   0  0  0  0  0  0  0  0  0  0  0  0
  130.9550  130.7800   60.4040 C   0  0  0  0  0  0  0  0  0  0  0  0
  129.3960  132.7830   57.8410 C   0  0  0  0  0  0  0  0  0  0  0  0
  130.4520  133.6450   57.6660 O   0  0  0  0  0  0  0  0  0  0  0  0
  131.5100  133.1110   56.8820 C   0  0  0  0  0  0  0  0  0  0  0  0
  1  2  1  0
  2  3  1  0
  3  4  2  0
  4  5  1  0
  5  6  1  0
  6  7  1  0
  7  8  1  0
  8  9  2  0
  8 10  1  0
 10 11  1  0
 11 12  1  0
 12 13  2  0
 13 14  1  0
 14 15  1  0
 14 16  2  0
 16 17  1  0
 17 18  1  0
 17 19  2  0
 19 20  1  0
 20 21  3  0
  5 22  2  0
 22 23  1  0
 23 24  1  0
 24 25  1  0
 23 26  2  0
 26 27  1  0
 27 28  1  0
 26  3  1  0
 19 12  1  0
M  END
>  <Binding energies>  (9) 
[-6.86]

>  <Ligand effiencies>  (9) 
[-0.23655172413793105]

>  <Interactions>  (9) 
["V-A:PRO:540:CD:4887, V-B:ILE:369:CG1:8209, V-A:ILE:538:CG2:4863, V-A:TYR:539:CE2:4876, V-A:ILE:538:CB:4862, V-B:ASP:366:CB:8183, V-B:ILE:369:CB:8207, V-A:TYR:539:CE1:4875, V-A:LEU:363:CD1:3189, V-A:TYR:539:CZ:4877, V-B:ILE:369:CG2:8208, V-A:PRO:540:CA:4883, V-B:ASP:366:CG:8184, V-A:ILE:538:CA:4860, V-A:MET:535:CE:4835, V-B:ASP:366:CA:8181, V-A:TYR:539:CD1:4873, V-A:ALA:541:CB:4892, V-A:PRO:540:N:4884, V-A:PRO:540:CB:4885, V-A:TYR:539:C:4867, V-A:TYR:539:CG:4872, V-A:ALA:541:CA:4890, H-A:TYR:539:OH:4878, H-B:ASP:366:OD2:8186, H-A:TYR:539:N:4870, V-A:PRO:540:C:4881, V-A:TYR:539:CD2:4874, H-B:GLY:454:N:9021, H-B:ARG:545:NE:9896, H-B:ARG:545:NH1:9899, H-B:ARG:545:NH2:9900, V-A:VAL:537:C:4850"]

$$$$
1i_Grossjean_2025
     RDKit          3D

 20 21  0  0  0  0  0  0  0  0999 V2000
  123.4490  132.5880   62.0720 C   0  0  0  0  0  0  0  0  0  0  0  0
  124.2660  133.8330   61.7840 C   0  0  0  0  0  0  0  0  0  0  0  0
  123.6690  135.0130   61.3450 C   0  0  0  0  0  0  0  0  0  0  0  0
  124.4720  136.1330   61.1040 C   0  0  0  0  0  0  0  0  0  0  0  0
  123.7910  137.4200   60.6400 C   0  0  0  0  0  0  0  0  0  0  0  0
  125.8680  136.0390   61.3050 C   0  0  0  0  0  0  0  0  0  0  0  0
  126.7210  137.2140   61.1080 C   0  0  0  0  0  0  0  0  0  0  0  0
  127.3920  138.1440   60.9530 N   0  0  0  0  0  0  0  0  0  0  0  0
  126.3910  134.7940   61.7280 C   0  0  0  0  0  0  0  0  0  0  0  0
  128.1200  134.4980   62.0290 S   0  0  0  0  0  0  0  0  0  0  0  0
  128.4230  132.7220   61.7890 C   0  0  0  0  0  0  0  0  0  0  0  0
  128.5450  132.3530   60.3090 C   0  0  0  0  0  0  0  0  0  0  0  0
  128.1820  131.2380   59.9330 O   0  0  0  0  0  0  0  0  0  0  0  0
  129.0560  133.3150   59.5090 N   0  0  0  0  0  0  0  0  0  0  0  0
  129.2760  133.2420   58.1420 C   0  0  0  0  0  0  0  0  0  0  0  0
  128.3040  132.8220   57.2350 C   0  0  0  0  0  0  0  0  0  0  0  0
  128.9100  132.8910   56.0020 C   0  0  0  0  0  0  0  0  0  0  0  0
  130.1820  133.3280   56.1580 O   0  0  0  0  0  0  0  0  0  0  0  0
  130.4040  133.5450   57.5190 N   0  0  0  0  0  0  0  0  0  0  0  0
  125.6020  133.7190   61.9780 N   0  0  0  0  0  0  0  0  0  0  0  0
  1  2  1  0
  2  3  2  0
  3  4  1  0
  4  5  1  0
  4  6  2  0
  6  7  1  0
  7  8  3  0
  6  9  1  0
  9 10  1  0
 10 11  1  0
 11 12  1  0
 12 13  2  0
 12 14  1  0
 14 15  1  0
 15 16  1  0
 16 17  2  0
 17 18  1  0
 18 19  1  0
  9 20  2  0
 20  2  1  0
 19 15  2  0
M  END
>  <Binding energies>  (10) 
[-7.61]

>  <Ligand effiencies>  (10) 
[-0.3623809523809524]

>  <Interactions>  (10) 
["V-A:TYR:539:CA:4869, V-B:ILE:369:CG1:8209, H-A:ALA:541:N:4891, V-B:SER:385:CA:8378, V-A:TYR:539:CE1:4875, V-A:TYR:539:CZ:4877, V-B:ILE:369:CG2:8208, V-A:PRO:540:CA:4883, V-B:LEU:475:CD2:9230, V-A:ILE:538:CA:4860, V-B:GLY:454:CA:9020, V-B:LEU:373:CD1:8251, V-A:MET:535:CE:4835, V-B:SER:385:CB:8380, V-A:TYR:539:CD1:4873, V-A:PRO:540:N:4884, V-A:TYR:539:C:4867, V-A:TYR:539:CG:4872, H-A:TYR:539:N:4870, H-A:TYR:539:O:4868, V-B:VAL:384:C:8368, V-B:HIS:383:CD2:8363, V-A:TYR:539:CB:4871, H-B:HIS:383:NE2:8365"]

$$$$
1k_Grossjean_2025
     RDKit          3D

 25 25  0  0  0  0  0  0  0  0999 V2000
  132.8400  124.6420   64.1160 C   0  0  0  0  0  0  0  0  0  0  0  0
  134.2330  124.7220   63.8600 O   0  0  0  0  0  0  0  0  0  0  0  0
  134.5800  124.4270   62.5140 C   0  0  0  0  0  0  0  0  0  0  0  0
  133.7730  123.2140   62.0310 C   0  0  0  0  0  0  0  0  0  0  0  0
  133.9920  123.0250   60.6390 O   0  0  0  0  0  0  0  0  0  0  0  0
  132.9460  123.5340   59.8220 C   0  0  0  0  0  0  0  0  0  0  0  0
  133.5470  124.3880   58.6990 C   0  0  0  0  0  0  0  0  0  0  0  0
  132.5020  125.0230   57.9740 O   0  0  0  0  0  0  0  0  0  0  0  0
  132.0180  126.2100   58.5900 C   0  0  0  0  0  0  0  0  0  0  0  0
  130.4970  126.3180   58.3800 C   0  0  0  0  0  0  0  0  0  0  0  0
  129.9660  125.3900   57.3800 N   0  0  0  0  0  0  0  0  0  0  0  0
  128.7200  125.4220   56.8770 C   0  0  0  0  0  0  0  0  0  0  0  0
  127.8810  126.2600   57.2120 O   0  0  0  0  0  0  0  0  0  0  0  0
  128.3930  124.3300   55.8460 C   0  0  0  0  0  0  0  0  0  0  0  0
  127.4510  122.8990   56.4810 S   0  0  0  0  0  0  0  0  0  0  0  0
  127.3560  123.0030   58.2630 C   0  0  0  0  0  0  0  0  0  0  0  0
  128.4420  122.5490   58.9420 N   0  0  0  0  0  0  0  0  0  0  0  0
  128.4320  122.5900   60.2940 C   0  0  0  0  0  0  0  0  0  0  0  0
  129.6750  122.0570   60.9780 C   0  0  0  0  0  0  0  0  0  0  0  0
  127.3540  123.0880   61.0220 C   0  0  0  0  0  0  0  0  0  0  0  0
  126.2330  123.5650   60.3360 C   0  0  0  0  0  0  0  0  0  0  0  0
  125.0620  124.1070   61.1530 C   0  0  0  0  0  0  0  0  0  0  0  0
  126.2220  123.5280   58.9230 C   0  0  0  0  0  0  0  0  0  0  0  0
  125.0590  124.0180   58.1780 C   0  0  0  0  0  0  0  0  0  0  0  0
  124.1400  124.4050   57.5900 N   0  0  0  0  0  0  0  0  0  0  0  0
  1  2  1  0
  2  3  1  0
  3  4  1  0
  4  5  1  0
  5  6  1  0
  6  7  1  0
  7  8  1  0
  8  9  1  0
  9 10  1  0
 10 11  1  0
 11 12  1  0
 12 13  2  0
 12 14  1  0
 14 15  1  0
 15 16  1  0
 16 17  2  0
 17 18  1  0
 18 19  1  0
 18 20  2  0
 20 21  1  0
 21 22  1  0
 21 23  2  0
 23 24  1  0
 24 25  3  0
 23 16  1  0
M  END
>  <Binding energies>  (11) 
[-6.07]

>  <Ligand effiencies>  (11) 
[-0.23346153846153847]

>  <Interactions>  (11) 
["V-A:GLY:453:C:4042, V-B:TYR:539:C:9839, V-B:PRO:540:C:9853, V-B:TYR:539:CZ:9849, V-B:PRO:540:CA:9855, H-A:ARG:545:NE:4924, V-B:TYR:539:CE2:9848, H-A:GLY:454:N:4050, V-A:ILE:369:CG2:3237, V-A:ASP:366:CA:3210, V-B:PRO:540:N:9856, V-A:ASP:366:C:3208, V-A:ILE:369:CB:3236, V-A:ASP:366:CB:3212, V-B:TYR:539:CE1:9847, V-A:ILE:369:CD1:3239, V-A:ASP:366:CG:3213, V-B:PRO:540:CB:9857, H-B:TYR:539:OH:9850, V-B:TYR:539:CD2:9846, V-A:ARG:545:CZ:4926, H-B:TYR:531:OH:9767, V-B:LEU:363:CD1:8160, V-A:GLY:453:CA:4044, H-A:ARG:545:NH2:4928, H-A:ARG:545:NH1:4927"]

$$$$
1l_Grossjean_2025
     RDKit          3D

 17 17  0  0  0  0  0  0  0  0999 V2000
  127.7670  137.8960   62.0470 C   0  0  0  0  0  0  0  0  0  0  0  0
  126.8110  137.8850   60.9960 O   0  0  0  0  0  0  0  0  0  0  0  0
  126.4230  136.5750   60.7200 N   0  0  0  0  0  0  0  0  0  0  0  0
  125.1650  136.1920   61.0100 C   0  0  0  0  0  0  0  0  0  0  0  0
  124.2580  136.9790   61.2950 O   0  0  0  0  0  0  0  0  0  0  0  0
  124.9140  134.6780   60.9480 C   0  0  0  0  0  0  0  0  0  0  0  0
  125.8480  133.6910   62.1650 S   0  0  0  0  0  0  0  0  0  0  0  0
  127.3990  133.2150   61.4220 C   0  0  0  0  0  0  0  0  0  0  0  0
  127.4920  133.4020   60.0790 N   0  0  0  0  0  0  0  0  0  0  0  0
  128.6420  133.0610   59.4500 C   0  0  0  0  0  0  0  0  0  0  0  0
  128.6690  133.3000   57.9520 C   0  0  0  0  0  0  0  0  0  0  0  0
  129.7370  132.5270   60.1240 C   0  0  0  0  0  0  0  0  0  0  0  0
  129.6550  132.3310   61.5060 C   0  0  0  0  0  0  0  0  0  0  0  0
  130.8690  131.7440   62.2250 C   0  0  0  0  0  0  0  0  0  0  0  0
  128.4640  132.6790   62.1820 C   0  0  0  0  0  0  0  0  0  0  0  0
  128.3500  132.4840   63.6310 C   0  0  0  0  0  0  0  0  0  0  0  0
  128.2610  132.3300   64.7740 N   0  0  0  0  0  0  0  0  0  0  0  0
  1  2  1  0
  2  3  1  0
  3  4  1  0
  4  5  2  0
  4  6  1  0
  6  7  1  0
  7  8  1  0
  8  9  2  0
  9 10  1  0
 10 11  1  0
 10 12  2  0
 12 13  1  0
 13 14  1  0
 13 15  2  0
 15 16  1  0
 16 17  3  0
 15  8  1  0
M  END
>  <Binding energies>  (12) 
[-6.3]

>  <Ligand effiencies>  (12) 
[-0.35]

>  <Interactions>  (12) 
["V-A:TYR:539:CA:4869, V-A:TYR:539:CE1:4875, V-B:ILE:369:CG2:8208, V-A:PRO:540:CA:4883, V-B:LEU:475:CD2:9230, V-A:TYR:539:CD1:4873, V-A:ALA:541:CB:4892, V-A:PRO:540:N:4884, V-A:PRO:540:CB:4885, V-A:TYR:539:C:4867, V-A:GLU:543:CD:4908, V-A:TYR:539:CG:4872, V-A:GLU:543:CG:4907, H-B:TYR:484:OH:9319, V-B:LEU:475:CG:9228, V-B:PRO:482:CB:9297, H-A:TYR:539:O:4868, V-A:TYR:539:CB:4871, H-B:HIS:383:NE2:8365"]

$$$$
1m_Grossjean_2025
     RDKit          3D

 20 20  0  0  0  0  0  0  0  0999 V2000
  128.1450  132.6390   56.6990 C   0  0  0  0  0  0  0  0  0  0  0  0
  129.0620  133.4870   57.3750 O   0  0  0  0  0  0  0  0  0  0  0  0
  130.3660  133.1550   57.4660 C   0  0  0  0  0  0  0  0  0  0  0  0
  131.2300  133.4020   56.6200 O   0  0  0  0  0  0  0  0  0  0  0  0
  130.6710  132.4180   58.7870 C   0  0  0  0  0  0  0  0  0  0  0  0
  129.6680  132.6800   59.8310 N   0  0  0  0  0  0  0  0  0  0  0  0
  129.8630  132.5530   61.1570 C   0  0  0  0  0  0  0  0  0  0  0  0
  130.9310  132.1770   61.6460 O   0  0  0  0  0  0  0  0  0  0  0  0
  128.6570  132.9010   62.0390 C   0  0  0  0  0  0  0  0  0  0  0  0
  128.2510  134.6790   62.1080 S   0  0  0  0  0  0  0  0  0  0  0  0
  126.5210  134.8630   61.7270 C   0  0  0  0  0  0  0  0  0  0  0  0
  125.8160  133.7080   61.8330 N   0  0  0  0  0  0  0  0  0  0  0  0
  124.4890  133.7290   61.5720 C   0  0  0  0  0  0  0  0  0  0  0  0
  123.7650  132.4050   61.7300 C   0  0  0  0  0  0  0  0  0  0  0  0
  123.8160  134.8870   61.1880 C   0  0  0  0  0  0  0  0  0  0  0  0
  124.5370  136.0780   61.0500 C   0  0  0  0  0  0  0  0  0  0  0  0
  123.7820  137.3310   60.6130 C   0  0  0  0  0  0  0  0  0  0  0  0
  125.9260  136.0800   61.3160 C   0  0  0  0  0  0  0  0  0  0  0  0
  126.7080  137.3040   61.1300 C   0  0  0  0  0  0  0  0  0  0  0  0
  127.3260  138.2710   60.9830 N   0  0  0  0  0  0  0  0  0  0  0  0
  1  2  1  0
  2  3  1  0
  3  4  2  0
  3  5  1  0
  5  6  1  0
  6  7  1  0
  7  8  2  0
  7  9  1  0
  9 10  1  0
 10 11  1  0
 11 12  2  0
 12 13  1  0
 13 14  1  0
 13 15  2  0
 15 16  1  0
 16 17  1  0
 16 18  2  0
 18 19  1  0
 19 20  3  0
 18 11  1  0
M  END
>  <Binding energies>  (13) 
[-6.71]

>  <Ligand effiencies>  (13) 
[-0.31952380952380954]

>  <Interactions>  (13) 
["V-A:TYR:539:CA:4869, V-A:PRO:540:CD:4887, H-A:ALA:541:N:4891, V-A:TYR:539:CE2:4876, V-B:SER:385:CA:8378, V-A:TYR:539:CE1:4875, V-A:TYR:539:CZ:4877, V-B:ILE:369:CG2:8208, V-A:PRO:540:CA:4883, V-B:LEU:475:CD2:9230, V-B:LEU:373:CD1:8251, V-A:MET:535:CE:4835, V-B:SER:385:CB:8380, V-A:TYR:539:CD1:4873, V-A:ALA:541:CB:4892, V-A:PRO:540:N:4884, V-A:PRO:540:CB:4885, V-A:TYR:539:C:4867, V-A:TYR:539:CG:4872, H-A:TYR:539:N:4870, V-A:PRO:540:C:4881, H-A:TYR:539:O:4868, V-B:VAL:384:C:8368, V-B:HIS:383:CD2:8363, V-A:TYR:539:CB:4871, H-B:HIS:383:NE2:8365"]

$$$$
1n_Grossjean_2025
     RDKit          3D

 27 28  0  0  0  0  0  0  0  0999 V2000
  132.2890  131.3520   58.0330 C   0  0  0  0  0  0  0  0  0  0  0  0
  131.9740  131.1290   56.5500 C   0  0  0  0  0  0  0  0  0  0  0  0
  130.6080  131.4410   56.3050 O   0  0  0  0  0  0  0  0  0  0  0  0
  130.0250  132.5290   56.8710 C   0  0  0  0  0  0  0  0  0  0  0  0
  130.5090  133.6640   56.8190 O   0  0  0  0  0  0  0  0  0  0  0  0
  128.7260  132.2170   57.5560 C   0  0  0  0  0  0  0  0  0  0  0  0
  128.5610  132.3680   58.9410 C   0  0  0  0  0  0  0  0  0  0  0  0
  127.3440  132.0660   59.5450 C   0  0  0  0  0  0  0  0  0  0  0  0
  126.2710  131.6020   58.7830 C   0  0  0  0  0  0  0  0  0  0  0  0
  125.0890  131.3230   59.4960 N   0  0  0  0  0  0  0  0  0  0  0  0
  123.8010  131.4250   59.1050 C   0  0  0  0  0  0  0  0  0  0  0  0
  123.4190  131.7930   57.9940 O   0  0  0  0  0  0  0  0  0  0  0  0
  122.7560  131.0380   60.1600 C   0  0  0  0  0  0  0  0  0  0  0  0
  123.2590  131.2220   61.6070 C   0  0  0  0  0  0  0  0  0  0  0  0
  122.8730  132.8410   62.3390 S   0  0  0  0  0  0  0  0  0  0  0  0
  124.2000  133.9520   61.9210 C   0  0  0  0  0  0  0  0  0  0  0  0
  123.7750  135.1570   61.4640 N   0  0  0  0  0  0  0  0  0  0  0  0
  124.6990  136.0880   61.1310 C   0  0  0  0  0  0  0  0  0  0  0  0
  124.1510  137.4140   60.6390 C   0  0  0  0  0  0  0  0  0  0  0  0
  126.0700  135.8580   61.2310 C   0  0  0  0  0  0  0  0  0  0  0  0
  126.5180  134.6110   61.6820 C   0  0  0  0  0  0  0  0  0  0  0  0
  128.0240  134.3770   61.7710 C   0  0  0  0  0  0  0  0  0  0  0  0
  125.5710  133.6210   62.0310 C   0  0  0  0  0  0  0  0  0  0  0  0
  126.0180  132.2930   62.4550 C   0  0  0  0  0  0  0  0  0  0  0  0
  126.3730  131.2430   62.7890 N   0  0  0  0  0  0  0  0  0  0  0  0
  126.4250  131.4580   57.3960 C   0  0  0  0  0  0  0  0  0  0  0  0
  127.6420  131.7630   56.7930 C   0  0  0  0  0  0  0  0  0  0  0  0
  1  2  1  0
  2  3  1  0
  3  4  1  0
  4  5  2  0
  4  6  1  0
  6  7  2  0
  7  8  1  0
  8  9  2  0
  9 10  1  0
 10 11  1  0
 11 12  2  0
 11 13  1  0
 13 14  1  0
 14 15  1  0
 15 16  1  0
 16 17  2  0
 17 18  1  0
 18 19  1  0
 18 20  2  0
 20 21  1  0
 21 22  1  0
 21 23  2  0
 23 24  1  0
 24 25  3  0
  9 26  1  0
 26 27  2  0
 27  6  1  0
 23 16  1  0
M  END
>  <Binding energies>  (14) 
[-7.8]

>  <Ligand effiencies>  (14) 
[-0.2785714285714286]

>  <Interactions>  (14) 
["V-B:ILE:369:CG1:8209, H-A:TYR:531:OH:4795, V-B:ASP:366:CB:8183, V-B:SER:385:CA:8378, V-B:ILE:369:CB:8207, V-A:TYR:539:CE1:4875, V-A:LEU:363:CD1:3189, V-A:TYR:539:CZ:4877, V-A:TYR:531:CZ:4794, V-A:TYR:531:CE2:4793, V-B:ILE:369:CG2:8208, V-B:LEU:475:CD2:9230, V-B:ASP:366:CG:8184, V-B:LEU:373:CD1:8251, V-A:MET:535:CE:4835, V-B:SER:385:CB:8380, V-B:ASP:366:CA:8181, V-A:TYR:539:CD1:4873, V-A:ALA:541:CB:4892, V-A:PRO:540:CB:4885, V-A:TYR:539:C:4867, H-A:TYR:539:OH:4878, H-A:TYR:539:N:4870, V-A:PRO:540:C:4881, H-B:GLY:454:N:9021, V-B:HIS:383:CD2:8363"]

$$$$
1q_Grossjean_2025
     RDKit          3D

 21 21  0  0  0  0  0  0  0  0999 V2000
  127.4840  138.1770   61.7930 C   0  0  0  0  0  0  0  0  0  0  0  0
  126.6760  137.7240   60.7180 O   0  0  0  0  0  0  0  0  0  0  0  0
  125.4610  137.1700   60.9560 C   0  0  0  0  0  0  0  0  0  0  0  0
  124.3940  137.7840   61.0180 O   0  0  0  0  0  0  0  0  0  0  0  0
  125.5000  135.6440   61.1870 C   0  0  0  0  0  0  0  0  0  0  0  0
  126.8660  135.1210   61.3390 N   0  0  0  0  0  0  0  0  0  0  0  0
  127.2020  133.9410   61.8940 C   0  0  0  0  0  0  0  0  0  0  0  0
  126.3730  133.1490   62.3460 O   0  0  0  0  0  0  0  0  0  0  0  0
  128.7020  133.6150   61.9240 C   0  0  0  0  0  0  0  0  0  0  0  0
  129.1230  132.4800   60.9680 C   0  0  0  0  0  0  0  0  0  0  0  0
  129.1210  132.9670   59.2160 S   0  0  0  0  0  0  0  0  0  0  0  0
  127.7080  132.2250   58.4230 C   0  0  0  0  0  0  0  0  0  0  0  0
  126.7950  131.7340   59.2990 N   0  0  0  0  0  0  0  0  0  0  0  0
  125.6780  131.1430   58.8140 C   0  0  0  0  0  0  0  0  0  0  0  0
  124.7120  130.6050   59.8540 C   0  0  0  0  0  0  0  0  0  0  0  0
  125.4200  131.0280   57.4500 C   0  0  0  0  0  0  0  0  0  0  0  0
  126.3420  131.5520   56.5390 C   0  0  0  0  0  0  0  0  0  0  0  0
  126.0280  131.4290   55.0480 C   0  0  0  0  0  0  0  0  0  0  0  0
  127.5150  132.1760   57.0210 C   0  0  0  0  0  0  0  0  0  0  0  0
  128.4630  132.7810   56.0830 C   0  0  0  0  0  0  0  0  0  0  0  0
  129.2090  133.2580   55.3390 N   0  0  0  0  0  0  0  0  0  0  0  0
  1  2  1  0
  2  3  1  0
  3  4  2  0
  3  5  1  0
  5  6  1  0
  6  7  1  0
  7  8  2  0
  7  9  1  0
  9 10  1  0
 10 11  1  0
 11 12  1  0
 12 13  2  0
 13 14  1  0
 14 15  1  0
 14 16  2  0
 16 17  1  0
 17 18  1  0
 17 19  2  0
 19 20  1  0
 20 21  3  0
 19 12  1  0
M  END
>  <Binding energies>  (15) 
[-6.06]

>  <Ligand effiencies>  (15) 
[-0.27545454545454545]

>  <Interactions>  (15) 
["V-A:TYR:539:CE2:4876, V-B:ASP:366:CB:8183, V-A:TYR:539:CE1:4875, V-A:TYR:539:CZ:4877, V-A:PRO:540:CA:4883, V-B:LEU:475:CD2:9230, V-B:ASP:366:CG:8184, V-A:MET:535:CE:4835, V-A:TYR:539:CD1:4873, V-A:ALA:541:CB:4892, V-A:TYR:539:CG:4872, H-A:TYR:539:N:4870, V-A:PRO:540:C:4881, V-A:TYR:539:CD2:4874, V-B:TYR:531:CE1:9764, V-B:HIS:383:CE1:8364, H-A:TYR:539:O:4868, V-B:HIS:383:CD2:8363, H-B:HIS:383:NE2:8365"]

$$$$
2a_Grossjean_2025
     RDKit          3D

 29 30  0  0  0  0  0  0  0  0999 V2000
  131.9940  131.2970   56.3080 C   0  0  0  0  0  0  0  0  0  0  0  0
  131.8640  132.4900   57.2580 C   0  0  0  0  0  0  0  0  0  0  0  0
  130.9050  133.4030   56.7390 O   0  0  0  0  0  0  0  0  0  0  0  0
  129.8340  132.9650   56.0270 C   0  0  0  0  0  0  0  0  0  0  0  0
  129.8180  132.8950   54.7950 O   0  0  0  0  0  0  0  0  0  0  0  0
  128.6780  132.5510   56.8930 C   0  0  0  0  0  0  0  0  0  0  0  0
  128.6310  132.8560   58.2620 C   0  0  0  0  0  0  0  0  0  0  0  0
  127.5460  132.4570   59.0370 C   0  0  0  0  0  0  0  0  0  0  0  0
  126.4930  131.7410   58.4660 C   0  0  0  0  0  0  0  0  0  0  0  0
  125.4570  131.3780   59.3450 N   0  0  0  0  0  0  0  0  0  0  0  0
  124.1180  131.4100   59.1700 C   0  0  0  0  0  0  0  0  0  0  0  0
  123.5380  131.8100   58.1600 O   0  0  0  0  0  0  0  0  0  0  0  0
  123.2850  130.9010   60.3520 C   0  0  0  0  0  0  0  0  0  0  0  0
  123.0060  132.1650   61.6360 S   0  0  0  0  0  0  0  0  0  0  0  0
  124.2850  133.4130   61.5430 C   0  0  0  0  0  0  0  0  0  0  0  0
  123.8820  134.6380   61.1200 N   0  0  0  0  0  0  0  0  0  0  0  0
  124.7980  135.6270   61.0130 C   0  0  0  0  0  0  0  0  0  0  0  0
  124.2770  136.9590   60.5070 C   0  0  0  0  0  0  0  0  0  0  0  0
  126.1410  135.4430   61.3290 C   0  0  0  0  0  0  0  0  0  0  0  0
  126.5790  134.1870   61.7770 C   0  0  0  0  0  0  0  0  0  0  0  0
  128.0680  134.0010   62.1240 C   0  0  0  0  0  0  0  0  0  0  0  0
  128.6890  135.1800   62.1240 F   0  0  0  0  0  0  0  0  0  0  0  0
  128.1890  133.4470   63.3310 F   0  0  0  0  0  0  0  0  0  0  0  0
  128.7040  133.2110   61.2540 F   0  0  0  0  0  0  0  0  0  0  0  0
  125.6280  133.1400   61.8900 C   0  0  0  0  0  0  0  0  0  0  0  0
  126.0310  131.8070   62.3500 C   0  0  0  0  0  0  0  0  0  0  0  0
  126.3490  130.7550   62.7130 N   0  0  0  0  0  0  0  0  0  0  0  0
  126.5290  131.4400   57.0970 C   0  0  0  0  0  0  0  0  0  0  0  0
  127.6130  131.8440   56.3220 C   0  0  0  0  0  0  0  0  0  0  0  0
  1  2  1  0
  2  3  1  0
  3  4  1  0
  4  5  2  0
  4  6  1  0
  6  7  2  0
  7  8  1  0
  8  9  2  0
  9 10  1  0
 10 11  1  0
 11 12  2  0
 11 13  1  0
 13 14  1  0
 14 15  1  0
 15 16  2  0
 16 17  1  0
 17 18  1  0
 17 19  2  0
 19 20  1  0
 20 21  1  0
 21 22  1  0
 21 23  1  0
 21 24  1  0
 20 25  2  0
 25 26  1  0
 26 27  3  0
  9 28  1  0
 28 29  2  0
 29  6  1  0
 25 15  1  0
M  END
>  <Binding energies>  (16) 
[-7.41]

>  <Ligand effiencies>  (16) 
[-0.247]

>  <Interactions>  (16) 
["V-A:PRO:540:CD:4887, V-B:ILE:369:CG1:8209, V-A:ILE:538:CG2:4863, V-A:ILE:538:CB:4862, V-B:ASP:366:CB:8183, V-B:SER:385:CA:8378, V-B:ILE:369:CB:8207, V-A:TYR:539:CE1:4875, V-A:LEU:363:CD1:3189, V-A:TYR:539:CZ:4877, V-A:TYR:531:CZ:4794, V-A:TYR:531:CE2:4793, V-B:ILE:369:CG2:8208, V-A:PRO:540:CA:4883, V-B:LEU:475:CD2:9230, V-B:ASP:366:CG:8184, V-A:ILE:538:CA:4860, V-B:LEU:373:CD1:8251, V-A:MET:535:CE:4835, V-B:SER:385:CB:8380, V-B:ASP:366:CA:8181, V-A:TYR:539:CD1:4873, V-A:ALA:541:CB:4892, V-A:PRO:540:N:4884, V-A:PRO:540:CB:4885, V-A:TYR:539:C:4867, V-A:ALA:541:CA:4890, H-A:TYR:539:OH:4878, V-A:ILE:538:C:4858, H-A:TYR:539:N:4870, V-A:PRO:540:C:4881, V-B:HIS:383:CD2:8363"]

$$$$
2b_Grossjean_2025
     RDKit          3D

 28 29  0  0  0  0  0  0  0  0999 V2000
  131.6960  132.3610   57.2320 C   0  0  0  0  0  0  0  0  0  0  0  0
  130.8620  133.3020   56.5700 O   0  0  0  0  0  0  0  0  0  0  0  0
  129.7540  132.9010   55.8950 C   0  0  0  0  0  0  0  0  0  0  0  0
  129.6750  132.8930   54.6630 O   0  0  0  0  0  0  0  0  0  0  0  0
  128.6330  132.4720   56.7970 C   0  0  0  0  0  0  0  0  0  0  0  0
  128.6240  132.7770   58.1660 C   0  0  0  0  0  0  0  0  0  0  0  0
  127.5700  132.3630   58.9750 C   0  0  0  0  0  0  0  0  0  0  0  0
  126.5040  131.6430   58.4350 C   0  0  0  0  0  0  0  0  0  0  0  0
  125.4950  131.2690   59.3430 N   0  0  0  0  0  0  0  0  0  0  0  0
  124.1530  131.3370   59.2160 C   0  0  0  0  0  0  0  0  0  0  0  0
  123.5510  131.7870   58.2400 O   0  0  0  0  0  0  0  0  0  0  0  0
  123.3560  130.8170   60.4170 C   0  0  0  0  0  0  0  0  0  0  0  0
  123.0000  132.1080   61.6540 S   0  0  0  0  0  0  0  0  0  0  0  0
  124.2350  133.3970   61.5640 C   0  0  0  0  0  0  0  0  0  0  0  0
  123.7810  134.6240   61.2040 N   0  0  0  0  0  0  0  0  0  0  0  0
  124.6610  135.6460   61.1100 C   0  0  0  0  0  0  0  0  0  0  0  0
  124.0760  136.9810   60.6900 C   0  0  0  0  0  0  0  0  0  0  0  0
  126.0190  135.4940   61.3770 C   0  0  0  0  0  0  0  0  0  0  0  0
  126.5100  134.2360   61.7590 C   0  0  0  0  0  0  0  0  0  0  0  0
  128.0140  134.0860   62.0550 C   0  0  0  0  0  0  0  0  0  0  0  0
  128.5670  135.2880   62.2290 F   0  0  0  0  0  0  0  0  0  0  0  0
  128.1930  133.3640   63.1630 F   0  0  0  0  0  0  0  0  0  0  0  0
  128.6770  133.4780   61.0690 F   0  0  0  0  0  0  0  0  0  0  0  0
  125.5980  133.1540   61.8540 C   0  0  0  0  0  0  0  0  0  0  0  0
  126.0570  131.8160   62.2420 C   0  0  0  0  0  0  0  0  0  0  0  0
  126.4200  130.7610   62.5490 N   0  0  0  0  0  0  0  0  0  0  0  0
  126.5090  131.3270   57.0690 C   0  0  0  0  0  0  0  0  0  0  0  0
  127.5640  131.7410   56.2610 C   0  0  0  0  0  0  0  0  0  0  0  0
  1  2  1  0
  2  3  1  0
  3  4  2  0
  3  5  1  0
  5  6  2  0
  6  7  1  0
  7  8  2  0
  8  9  1  0
  9 10  1  0
 10 11  2  0
 10 12  1  0
 12 13  1  0
 13 14  1  0
 14 15  2  0
 15 16  1  0
 16 17  1  0
 16 18  2  0
 18 19  1  0
 19 20  1  0
 20 21  1  0
 20 22  1  0
 20 23  1  0
 19 24  2  0
 24 25  1  0
 25 26  3  0
  8 27  1  0
 27 28  2  0
 28  5  1  0
 24 14  1  0
M  END
>  <Binding energies>  (17) 
[-7.16]

>  <Ligand effiencies>  (17) 
[-0.24689655172413794]

>  <Interactions>  (17) 
["V-B:ILE:369:CG1:8209, V-A:ILE:538:CG2:4863, V-A:ILE:538:CB:4862, V-B:ASP:366:CB:8183, V-B:SER:385:CA:8378, V-B:ILE:369:CB:8207, V-A:TYR:539:CE1:4875, V-A:LEU:363:CD1:3189, V-A:TYR:539:CZ:4877, V-B:ILE:369:CG2:8208, V-A:PRO:540:CA:4883, V-B:LEU:475:CD2:9230, V-B:ASP:366:CG:8184, V-A:ILE:538:CA:4860, V-B:LEU:373:CD1:8251, V-A:MET:535:CE:4835, V-B:SER:385:CB:8380, V-B:ASP:366:CA:8181, V-A:TYR:539:CD1:4873, V-A:ALA:541:CB:4892, V-A:PRO:540:CB:4885, V-A:TYR:539:C:4867, V-A:ALA:541:CA:4890, H-A:TYR:539:OH:4878, V-A:ILE:538:C:4858, H-A:TYR:539:N:4870, V-A:PRO:540:C:4881, V-B:HIS:383:CD2:8363"]

$$$$
2c_Grossjean_2025
     RDKit          3D

 26 27  0  0  0  0  0  0  0  0999 V2000
  124.6050  129.5600   64.9960 C   0  0  0  0  0  0  0  0  0  0  0  0
  123.7450  130.2150   64.0690 O   0  0  0  0  0  0  0  0  0  0  0  0
  124.1010  130.2580   62.7350 C   0  0  0  0  0  0  0  0  0  0  0  0
  123.2560  130.9740   61.8880 C   0  0  0  0  0  0  0  0  0  0  0  0
  123.5300  131.0720   60.5260 C   0  0  0  0  0  0  0  0  0  0  0  0
  124.6620  130.4380   59.9930 C   0  0  0  0  0  0  0  0  0  0  0  0
  125.0310  130.4970   58.6360 N   0  0  0  0  0  0  0  0  0  0  0  0
  124.4220  131.1520   57.6250 C   0  0  0  0  0  0  0  0  0  0  0  0
  123.3700  131.7850   57.7330 O   0  0  0  0  0  0  0  0  0  0  0  0
  125.1190  131.0290   56.2610 C   0  0  0  0  0  0  0  0  0  0  0  0
  126.7990  131.7410   56.1710 S   0  0  0  0  0  0  0  0  0  0  0  0
  127.9690  130.5960   56.8920 C   0  0  0  0  0  0  0  0  0  0  0  0
  127.4780  129.3670   57.1970 N   0  0  0  0  0  0  0  0  0  0  0  0
  128.3020  128.4540   57.7540 C   0  0  0  0  0  0  0  0  0  0  0  0
  127.6740  127.1130   58.0800 C   0  0  0  0  0  0  0  0  0  0  0  0
  129.6440  128.7170   58.0210 C   0  0  0  0  0  0  0  0  0  0  0  0
  130.1750  129.9760   57.7070 C   0  0  0  0  0  0  0  0  0  0  0  0
  131.6620  130.2510   58.0070 C   0  0  0  0  0  0  0  0  0  0  0  0
  132.2660  130.7300   56.9190 F   0  0  0  0  0  0  0  0  0  0  0  0
  131.7730  131.1440   58.9920 F   0  0  0  0  0  0  0  0  0  0  0  0
  132.3230  129.1540   58.3830 F   0  0  0  0  0  0  0  0  0  0  0  0
  129.3190  130.9470   57.1280 C   0  0  0  0  0  0  0  0  0  0  0  0
  129.8210  132.2810   56.7810 C   0  0  0  0  0  0  0  0  0  0  0  0
  130.2170  133.3340   56.5080 N   0  0  0  0  0  0  0  0  0  0  0  0
  125.5200  129.7340   60.8390 C   0  0  0  0  0  0  0  0  0  0  0  0
  125.2420  129.6390   62.1990 C   0  0  0  0  0  0  0  0  0  0  0  0
  1  2  1  0
  2  3  1  0
  3  4  2  0
  4  5  1  0
  5  6  2  0
  6  7  1  0
  7  8  1  0
  8  9  2  0
  8 10  1  0
 10 11  1  0
 11 12  1  0
 12 13  2  0
 13 14  1  0
 14 15  1  0
 14 16  2  0
 16 17  1  0
 17 18  1  0
 18 19  1  0
 18 20  1  0
 18 21  1  0
 17 22  2  0
 22 23  1  0
 23 24  3  0
  6 25  1  0
 25 26  2  0
 26  3  1  0
 22 12  1  0
M  END
>  <Binding energies>  (18) 
[-6.54]

>  <Ligand effiencies>  (18) 
[-0.24222222222222223]

>  <Interactions>  (18) 
["V-B:ASP:366:CB:8183, V-B:ILE:369:CB:8207, V-A:TYR:539:CE1:4875, V-A:LEU:363:CD1:3189, V-A:TYR:539:CZ:4877, V-A:TYR:531:CZ:4794, V-A:TYR:531:CE2:4793, V-B:ILE:369:CG2:8208, V-B:ASP:366:CG:8184, V-A:MET:535:CE:4835, V-B:ASP:366:CA:8181, V-A:PRO:540:CB:4885, V-A:ASP:366:CB:3212, V-A:ASP:366:CG:3213, H-A:TYR:539:OH:4878, H-B:TYR:531:OH:9767, H-A:TYR:539:N:4870, V-B:TYR:531:CZ:9766, V-B:TYR:531:CE1:9764, V-B:ARG:545:CZ:9898, H-B:GLY:454:N:9021, V-B:ARG:545:CD:9895, H-B:ARG:545:NH2:9900, H-B:ASN:370:N:8215"]

$$$$
2d_Ghoteimi_2023
     RDKit          3D

 38 42  0  0  0  0  0  0  0  0999 V2000
  130.7250  132.5920   56.9460 C   0  0  0  0  0  0  0  0  0  0  0  0
  129.7190  133.2840   57.6700 O   0  0  0  0  0  0  0  0  0  0  0  0
  128.7420  132.6050   58.3060 C   0  0  0  0  0  0  0  0  0  0  0  0
  127.6810  132.2330   57.7970 O   0  0  0  0  0  0  0  0  0  0  0  0
  129.1140  132.3340   59.7720 C   0  0  0  0  0  0  0  0  0  0  0  0
  127.6260  132.2410   60.8240 S   0  0  0  0  0  0  0  0  0  0  0  0
  127.6320  130.6710   61.6660 C   0  0  0  0  0  0  0  0  0  0  0  0
  127.4190  129.6190   60.8380 N   0  0  0  0  0  0  0  0  0  0  0  0
  127.3910  128.3610   61.3450 C   0  0  0  0  0  0  0  0  0  0  0  0
  127.1330  127.2540   60.3750 C   0  0  0  0  0  0  0  0  0  0  0  0
  127.0270  125.9300   60.8160 C   0  0  0  0  0  0  0  0  0  0  0  0
  126.7870  124.8940   59.9170 C   0  0  0  0  0  0  0  0  0  0  0  0
  126.6330  125.1460   58.5460 C   0  0  0  0  0  0  0  0  0  0  0  0
  126.4090  124.1140   57.6270 N   0  0  0  0  0  0  0  0  0  0  0  0
  127.5050  123.2380   57.1680 C   0  0  0  0  0  0  0  0  0  0  0  0
  127.1580  122.4240   55.9040 C   0  0  0  0  0  0  0  0  0  0  0  0
  125.9710  121.6770   56.1210 O   0  0  0  0  0  0  0  0  0  0  0  0
  124.8690  122.5210   56.4090 C   0  0  0  0  0  0  0  0  0  0  0  0
  125.1500  123.3440   57.6850 C   0  0  0  0  0  0  0  0  0  0  0  0
  126.7540  126.4720   58.1070 C   0  0  0  0  0  0  0  0  0  0  0  0
  126.9960  127.5070   59.0040 C   0  0  0  0  0  0  0  0  0  0  0  0
  127.5830  128.1300   62.7100 C   0  0  0  0  0  0  0  0  0  0  0  0
  127.8390  129.1950   63.5810 C   0  0  0  0  0  0  0  0  0  0  0  0
  128.0620  128.8700   65.0220 C   0  0  0  0  0  0  0  0  0  0  0  0
  127.6870  129.7790   66.0130 C   0  0  0  0  0  0  0  0  0  0  0  0
  127.8800  129.4810   67.3590 C   0  0  0  0  0  0  0  0  0  0  0  0
  128.4580  128.2630   67.7520 C   0  0  0  0  0  0  0  0  0  0  0  0
  128.6490  127.9370   69.0980 N   0  0  0  0  0  0  0  0  0  0  0  0
  130.0020  127.8260   69.6780 C   0  0  0  0  0  0  0  0  0  0  0  0
  130.0100  127.8190   71.2220 C   0  0  0  0  0  0  0  0  0  0  0  0
  129.1640  126.7880   71.7070 O   0  0  0  0  0  0  0  0  0  0  0  0
  127.8240  126.9620   71.2740 C   0  0  0  0  0  0  0  0  0  0  0  0
  127.7600  126.9440   69.7320 C   0  0  0  0  0  0  0  0  0  0  0  0
  128.8150  127.3490   66.7510 C   0  0  0  0  0  0  0  0  0  0  0  0
  128.6210  127.6480   65.4050 C   0  0  0  0  0  0  0  0  0  0  0  0
  127.8710  130.5090   63.0500 C   0  0  0  0  0  0  0  0  0  0  0  0
  128.1540  131.6550   63.9190 C   0  0  0  0  0  0  0  0  0  0  0  0
  128.3780  132.5580   64.6080 N   0  0  0  0  0  0  0  0  0  0  0  0
  1  2  1  0
  2  3  1  0
  3  4  2  0
  3  5  1  0
  5  6  1  0
  6  7  1  0
  7  8  2  0
  8  9  1  0
  9 10  1  0
 10 11  2  0
 11 12  1  0
 12 13  2  0
 13 14  1  0
 14 15  1  0
 15 16  1  0
 16 17  1  0
 17 18  1  0
 18 19  1  0
 13 20  1  0
 20 21  2  0
  9 22  2  0
 22 23  1  0
 23 24  1  0
 24 25  2  0
 25 26  1  0
 26 27  2  0
 27 28  1  0
 28 29  1  0
 29 30  1  0
 30 31  1  0
 31 32  1  0
 32 33  1  0
 27 34  1  0
 34 35  2  0
 23 36  2  0
 36 37  1  0
 37 38  3  0
 36  7  1  0
 21 10  1  0
 35 24  1  0
 19 14  1  0
 33 28  1  0
M  END
>  <Binding energies>  (19) 
[-10.02]

>  <Ligand effiencies>  (19) 
[-0.2636842105263158]

>  <Interactions>  (19) 
["V-A:TYR:539:CE1:4875, V-A:PRO:540:CA:4883, V-A:TYR:539:CD1:4873, V-A:PRO:540:N:4884, V-A:GLU:543:CD:4908, V-B:TYR:539:CZ:9849, V-B:PRO:540:CA:9855, V-B:TYR:539:CE2:9848, V-B:PRO:540:N:9856, V-B:TYR:539:CE1:9847, V-B:PRO:540:CB:9857, V-B:TYR:539:CD1:9845, V-B:TYR:539:CG:9844, H-B:TYR:539:N:9842, V-B:GLU:543:CD:9880, V-B:HIS:456:CE1:9041, V-B:GLU:543:C:9874, V-A:HIS:456:CE1:4070, V-B:GLU:543:CG:9879, V-B:GLU:543:CB:9878, V-A:GLU:543:CB:4906, V-A:GLU:543:CG:4907, V-B:GLY:544:C:9884, V-B:MET:535:CE:9807, V-B:PRO:540:CD:9859, V-B:LEU:363:CD1:8160, V-B:PRO:540:CG:9858, H-A:TYR:539:N:4870, V-B:ILE:538:CG2:9835, H-B:TYR:484:OH:9319, V-B:TYR:484:CZ:9318, V-B:ILE:538:CA:9832, V-B:TYR:484:CE2:9317"]

$$$$
2d_Grossjean_2025
     RDKit          3D

 24 25  0  0  0  0  0  0  0  0999 V2000
  129.1900  122.7820   61.3190 C   0  0  0  0  0  0  0  0  0  0  0  0
  129.0730  123.4280   59.9510 C   0  0  0  0  0  0  0  0  0  0  0  0
  128.2520  122.8940   58.9600 C   0  0  0  0  0  0  0  0  0  0  0  0
  128.1740  123.5320   57.7130 C   0  0  0  0  0  0  0  0  0  0  0  0
  127.2530  122.9330   56.6330 C   0  0  0  0  0  0  0  0  0  0  0  0
  126.8790  121.7020   56.9830 F   0  0  0  0  0  0  0  0  0  0  0  0
  126.1640  123.6900   56.4890 F   0  0  0  0  0  0  0  0  0  0  0  0
  127.8430  122.8490   55.4390 F   0  0  0  0  0  0  0  0  0  0  0  0
  128.9460  124.7020   57.5000 C   0  0  0  0  0  0  0  0  0  0  0  0
  128.8640  125.4310   56.2310 C   0  0  0  0  0  0  0  0  0  0  0  0
  128.7970  126.0060   55.2290 N   0  0  0  0  0  0  0  0  0  0  0  0
  129.7710  125.1570   58.5560 C   0  0  0  0  0  0  0  0  0  0  0  0
  130.8270  126.5890   58.4490 S   0  0  0  0  0  0  0  0  0  0  0  0
  132.4060  126.0960   57.6830 C   0  0  0  0  0  0  0  0  0  0  0  0
  133.0430  124.8770   58.3560 C   0  0  0  0  0  0  0  0  0  0  0  0
  133.8610  124.2050   57.7260 O   0  0  0  0  0  0  0  0  0  0  0  0
  132.6190  124.6140   59.6100 N   0  0  0  0  0  0  0  0  0  0  0  0
  133.0110  123.5810   60.4820 C   0  0  0  0  0  0  0  0  0  0  0  0
  133.7800  123.9680   61.5820 C   0  0  0  0  0  0  0  0  0  0  0  0
  134.2210  123.0180   62.4990 C   0  0  0  0  0  0  0  0  0  0  0  0
  133.9000  121.6750   62.3100 C   0  0  0  0  0  0  0  0  0  0  0  0
  133.1460  121.2760   61.2100 C   0  0  0  0  0  0  0  0  0  0  0  0
  132.7020  122.2240   60.2920 C   0  0  0  0  0  0  0  0  0  0  0  0
  129.8180  124.5410   59.7620 N   0  0  0  0  0  0  0  0  0  0  0  0
  1  2  1  0
  2  3  2  0
  3  4  1  0
  4  5  1  0
  5  6  1  0
  5  7  1  0
  5  8  1  0
  4  9  2  0
  9 10  1  0
 10 11  3  0
  9 12  1  0
 12 13  1  0
 13 14  1  0
 14 15  1  0
 15 16  2  0
 15 17  1  0
 17 18  1  0
 18 19  2  0
 19 20  1  0
 20 21  2  0
 21 22  1  0
 22 23  2  0
 12 24  2  0
 24  2  1  0
 23 18  1  0
M  END
>  <Binding energies>  (20) 
[-6.34]

>  <Ligand effiencies>  (20) 
[-0.2536]

>  <Interactions>  (20) 
["H-A:TYR:531:OH:4795, V-A:TYR:531:CZ:4794, V-A:GLY:454:CA:4049, V-A:GLY:453:C:4042, V-B:TYR:539:C:9839, V-B:TYR:539:CZ:9849, V-B:PRO:540:CA:9855, H-A:ASN:370:N:3244, V-B:TYR:539:CE2:9848, V-A:ILE:369:CG2:3237, V-A:ASP:366:CA:3210, V-B:PRO:540:N:9856, V-A:ASP:366:C:3208, V-A:ASP:366:CB:3212, V-B:TYR:539:CE1:9847, V-A:ILE:369:CD1:3239, V-A:ASP:366:CG:3213, V-B:PRO:540:CB:9857, H-B:TYR:539:OH:9850, V-B:TYR:539:CD2:9846, V-B:TYR:539:CD1:9845, V-B:TYR:539:CG:9844, V-A:LEU:475:CD2:4259, V-B:MET:535:CE:9807, V-B:PRO:540:CD:9859, V-B:ILE:538:C:9830, V-B:TYR:539:CA:9841, V-A:SER:385:C:3405"]

$$$$
2e_Grossjean_2025
     RDKit          3D

 25 26  0  0  0  0  0  0  0  0999 V2000
  132.3640  131.7920   62.6430 C   0  0  0  0  0  0  0  0  0  0  0  0
  132.3960  131.7220   61.1280 C   0  0  0  0  0  0  0  0  0  0  0  0
  133.5790  131.4620   60.4330 C   0  0  0  0  0  0  0  0  0  0  0  0
  133.5300  131.4010   59.0390 C   0  0  0  0  0  0  0  0  0  0  0  0
  132.3140  131.5990   58.3810 C   0  0  0  0  0  0  0  0  0  0  0  0
  131.1680  131.8650   59.1400 C   0  0  0  0  0  0  0  0  0  0  0  0
  129.9630  132.0130   58.4300 N   0  0  0  0  0  0  0  0  0  0  0  0
  129.6990  132.8490   57.4010 C   0  0  0  0  0  0  0  0  0  0  0  0
  130.5250  133.5860   56.8600 O   0  0  0  0  0  0  0  0  0  0  0  0
  128.2420  132.8870   56.9300 C   0  0  0  0  0  0  0  0  0  0  0  0
  127.2690  131.5050   57.6080 S   0  0  0  0  0  0  0  0  0  0  0  0
  126.7950  132.0150   59.2450 C   0  0  0  0  0  0  0  0  0  0  0  0
  127.8320  132.2750   60.0790 N   0  0  0  0  0  0  0  0  0  0  0  0
  127.5610  132.6260   61.3560 C   0  0  0  0  0  0  0  0  0  0  0  0
  128.7670  132.9040   62.2330 C   0  0  0  0  0  0  0  0  0  0  0  0
  126.2620  132.7250   61.8500 C   0  0  0  0  0  0  0  0  0  0  0  0
  125.1780  132.4500   61.0030 C   0  0  0  0  0  0  0  0  0  0  0  0
  123.7490  132.5420   61.5700 C   0  0  0  0  0  0  0  0  0  0  0  0
  123.7560  132.2750   62.8760 F   0  0  0  0  0  0  0  0  0  0  0  0
  123.2620  133.7690   61.3810 F   0  0  0  0  0  0  0  0  0  0  0  0
  122.9080  131.6820   60.9900 F   0  0  0  0  0  0  0  0  0  0  0  0
  125.4450  132.0860   59.6600 C   0  0  0  0  0  0  0  0  0  0  0  0
  124.3570  131.7570   58.7330 C   0  0  0  0  0  0  0  0  0  0  0  0
  123.4980  131.4970   58.0020 N   0  0  0  0  0  0  0  0  0  0  0  0
  131.2060  131.9180   60.5030 N   0  0  0  0  0  0  0  0  0  0  0  0
  1  2  1  0
  2  3  2  0
  3  4  1  0
  4  5  2  0
  5  6  1  0
  6  7  1  0
  7  8  1  0
  8  9  2  0
  8 10  1  0
 10 11  1  0
 11 12  1  0
 12 13  2  0
 13 14  1  0
 14 15  1  0
 14 16  2  0
 16 17  1  0
 17 18  1  0
 18 19  1  0
 18 20  1  0
 18 21  1  0
 17 22  2  0
 22 23  1  0
 23 24  3  0
  6 25  2  0
 25  2  1  0
 22 12  1  0
M  END
>  <Binding energies>  (21) 
[-6.55]

>  <Ligand effiencies>  (21) 
[-0.2519230769230769]

>  <Interactions>  (21) 
["V-B:ILE:369:CG1:8209, V-A:TYR:539:CE2:4876, V-B:ILE:369:CB:8207, V-A:TYR:539:CE1:4875, V-A:LEU:363:CD1:3189, V-A:TYR:539:CZ:4877, V-B:ILE:369:CG2:8208, V-A:PRO:540:CA:4883, V-B:GLY:454:CA:9020, V-A:TYR:539:CD1:4873, V-A:ALA:541:CB:4892, V-A:PRO:540:N:4884, V-A:PRO:540:CB:4885, V-A:TYR:539:C:4867, V-A:GLU:543:CD:4908, V-A:ASP:366:CB:3212, V-A:ASP:366:CG:3213, V-A:TYR:539:CG:4872, V-A:GLU:543:CG:4907, H-A:TYR:539:OH:4878, V-A:ASN:362:CB:3176, H-A:TYR:539:N:4870, V-A:TYR:539:CD2:4874, V-A:ALA:541:C:4888, V-A:LEU:363:CA:3185, V-A:ASN:362:C:3172, V-A:LEU:363:CB:3187, V-B:ILE:369:CD1:8210"]

$$$$
2f_Grossjean_2025
     RDKit          3D

 24 25  0  0  0  0  0  0  0  0999 V2000
  125.9020  131.3310   58.1240 C   0  0  0  0  0  0  0  0  0  0  0  0
  125.5040  131.0900   59.5670 C   0  0  0  0  0  0  0  0  0  0  0  0
  124.1740  131.1410   59.9760 C   0  0  0  0  0  0  0  0  0  0  0  0
  123.8570  130.9190   61.3250 C   0  0  0  0  0  0  0  0  0  0  0  0
  122.3810  130.9910   61.7600 C   0  0  0  0  0  0  0  0  0  0  0  0
  122.1540  130.1360   62.7590 F   0  0  0  0  0  0  0  0  0  0  0  0
  122.0880  132.2250   62.1730 F   0  0  0  0  0  0  0  0  0  0  0  0
  121.5350  130.6860   60.7730 F   0  0  0  0  0  0  0  0  0  0  0  0
  124.9110  130.6410   62.2330 C   0  0  0  0  0  0  0  0  0  0  0  0
  124.6380  130.4580   63.6600 C   0  0  0  0  0  0  0  0  0  0  0  0
  124.4210  130.3130   64.7880 N   0  0  0  0  0  0  0  0  0  0  0  0
  126.2310  130.5830   61.7220 C   0  0  0  0  0  0  0  0  0  0  0  0
  127.6700  130.2360   62.7130 S   0  0  0  0  0  0  0  0  0  0  0  0
  128.6110  131.7880   62.9070 C   0  0  0  0  0  0  0  0  0  0  0  0
  129.6650  132.0510   61.8210 C   0  0  0  0  0  0  0  0  0  0  0  0
  130.8440  132.2400   62.1220 O   0  0  0  0  0  0  0  0  0  0  0  0
  129.1780  132.0720   60.5610 N   0  0  0  0  0  0  0  0  0  0  0  0
  129.8550  132.2720   59.3430 C   0  0  0  0  0  0  0  0  0  0  0  0
  131.1200  131.7490   59.0170 C   0  0  0  0  0  0  0  0  0  0  0  0
  131.6780  132.0210   57.7660 C   0  0  0  0  0  0  0  0  0  0  0  0
  130.9550  132.8070   56.8690 C   0  0  0  0  0  0  0  0  0  0  0  0
  129.7300  133.3160   57.1560 N   0  0  0  0  0  0  0  0  0  0  0  0
  129.2010  133.0420   58.3760 C   0  0  0  0  0  0  0  0  0  0  0  0
  126.5190  130.8230   60.4200 N   0  0  0  0  0  0  0  0  0  0  0  0
  1  2  1  0
  2  3  2  0
  3  4  1  0
  4  5  1  0
  5  6  1  0
  5  7  1  0
  5  8  1  0
  4  9  2  0
  9 10  1  0
 10 11  3  0
  9 12  1  0
 12 13  1  0
 13 14  1  0
 14 15  1  0
 15 16  2  0
 15 17  1  0
 17 18  1  0
 18 19  2  0
 19 20  1  0
 20 21  2  0
 21 22  1  0
 22 23  2  0
 12 24  2  0
 24  2  1  0
 23 18  1  0
M  END
>  <Binding energies>  (22) 
[-6.43]

>  <Ligand effiencies>  (22) 
[-0.2572]

>  <Interactions>  (22) 
["V-A:PRO:540:CD:4887, V-B:ILE:369:CG1:8209, H-A:ALA:541:N:4891, V-A:ILE:538:CB:4862, V-B:GLY:453:C:9013, V-B:ASP:366:CB:8183, V-B:ILE:369:CB:8207, V-A:TYR:539:CE1:4875, V-A:LEU:363:CD1:3189, V-A:TYR:539:CZ:4877, V-B:ILE:369:CG2:8208, V-A:PRO:540:CA:4883, V-B:ASP:366:CG:8184, V-B:GLY:454:CA:9020, V-B:ASP:366:CA:8181, V-B:GLY:453:CA:9015, V-A:TYR:539:CD1:4873, V-A:PRO:540:N:4884, V-A:PRO:540:CB:4885, V-A:TYR:539:C:4867, H-A:TYR:539:N:4870, V-B:ARG:545:CZ:9898, H-B:TYR:484:OH:9319, H-B:GLY:454:N:9021, V-B:CYS:365:C:8175, V-B:ILE:369:CD1:8210"]

$$$$
2g_Grossjean_2025
     RDKit          3D

 25 26  0  0  0  0  0  0  0  0999 V2000
  128.0540  127.2950   58.0320 C   0  0  0  0  0  0  0  0  0  0  0  0
  128.6610  128.6540   57.7400 C   0  0  0  0  0  0  0  0  0  0  0  0
  130.0260  128.8900   57.8880 C   0  0  0  0  0  0  0  0  0  0  0  0
  130.5390  130.1670   57.6130 C   0  0  0  0  0  0  0  0  0  0  0  0
  132.0510  130.4110   57.7910 C   0  0  0  0  0  0  0  0  0  0  0  0
  132.5570  130.9910   56.7020 F   0  0  0  0  0  0  0  0  0  0  0  0
  132.2590  131.2070   58.8410 F   0  0  0  0  0  0  0  0  0  0  0  0
  132.7350  129.2840   57.9970 F   0  0  0  0  0  0  0  0  0  0  0  0
  129.6440  131.1790   57.1820 C   0  0  0  0  0  0  0  0  0  0  0  0
  130.1190  132.5440   56.9370 C   0  0  0  0  0  0  0  0  0  0  0  0
  130.4950  133.6210   56.7430 N   0  0  0  0  0  0  0  0  0  0  0  0
  128.2780  130.8390   57.0310 C   0  0  0  0  0  0  0  0  0  0  0  0
  127.0270  131.9780   56.4770 S   0  0  0  0  0  0  0  0  0  0  0  0
  125.4660  131.0450   56.3240 C   0  0  0  0  0  0  0  0  0  0  0  0
  124.6040  131.0220   57.5940 C   0  0  0  0  0  0  0  0  0  0  0  0
  123.4660  131.4960   57.6060 O   0  0  0  0  0  0  0  0  0  0  0  0
  125.1790  130.4610   58.6730 N   0  0  0  0  0  0  0  0  0  0  0  0
  124.5560  130.3160   59.9890 C   0  0  0  0  0  0  0  0  0  0  0  0
  124.2950  131.6350   60.7100 C   0  0  0  0  0  0  0  0  0  0  0  0
  125.1110  132.7410   60.4540 C   0  0  0  0  0  0  0  0  0  0  0  0
  124.8510  133.9570   61.0820 C   0  0  0  0  0  0  0  0  0  0  0  0
  123.7720  134.0650   61.9550 C   0  0  0  0  0  0  0  0  0  0  0  0
  122.9470  132.9700   62.2040 C   0  0  0  0  0  0  0  0  0  0  0  0
  123.2060  131.7550   61.5770 C   0  0  0  0  0  0  0  0  0  0  0  0
  127.7960  129.6060   57.3240 N   0  0  0  0  0  0  0  0  0  0  0  0
  1  2  1  0
  2  3  2  0
  3  4  1  0
  4  5  1  0
  5  6  1  0
  5  7  1  0
  5  8  1  0
  4  9  2  0
  9 10  1  0
 10 11  3  0
  9 12  1  0
 12 13  1  0
 13 14  1  0
 14 15  1  0
 15 16  2  0
 15 17  1  0
 17 18  1  0
 18 19  1  0
 19 20  2  0
 20 21  1  0
 21 22  2  0
 22 23  1  0
 23 24  2  0
 12 25  2  0
 25  2  1  0
 24 19  1  0
M  END
>  <Binding energies>  (23) 
[-6.04]

>  <Ligand effiencies>  (23) 
[-0.2323076923076923]

>  <Interactions>  (23) 
["V-B:ILE:369:CG1:8209, V-B:ASP:366:CB:8183, V-B:ILE:369:CB:8207, V-A:TYR:539:CE1:4875, V-A:LEU:363:CD1:3189, V-A:TYR:539:CZ:4877, V-A:TYR:531:CZ:4794, V-A:TYR:531:CE2:4793, V-B:ILE:369:CG2:8208, V-B:ASP:366:CG:8184, V-B:GLY:454:CA:9020, V-A:MET:535:CE:4835, V-A:TYR:539:CD1:4873, V-A:PRO:540:CB:4885, V-A:ASP:366:CB:3212, V-A:ASP:366:CG:3213, H-A:TYR:539:OH:4878, H-B:TYR:531:OH:9767, H-A:TYR:539:N:4870, V-B:TYR:531:CZ:9766, V-B:TYR:531:CE1:9764"]

$$$$
2h_Grossjean_2025
     RDKit          3D

 31 32  0  0  0  0  0  0  0  0999 V2000
  132.6900  130.4110   58.3380 C   0  0  0  0  0  0  0  0  0  0  0  0
  131.8680  131.5160   58.6970 O   0  0  0  0  0  0  0  0  0  0  0  0
  130.5130  131.4720   58.4220 C   0  0  0  0  0  0  0  0  0  0  0  0
  129.6410  130.4970   58.9320 C   0  0  0  0  0  0  0  0  0  0  0  0
  128.2850  130.5220   58.6170 C   0  0  0  0  0  0  0  0  0  0  0  0
  127.7690  131.5180   57.7870 C   0  0  0  0  0  0  0  0  0  0  0  0
  126.2740  131.5370   57.4720 C   0  0  0  0  0  0  0  0  0  0  0  0
  125.4240  131.3790   58.6520 N   0  0  0  0  0  0  0  0  0  0  0  0
  124.0790  131.3570   58.6350 C   0  0  0  0  0  0  0  0  0  0  0  0
  123.4130  131.5530   57.6170 O   0  0  0  0  0  0  0  0  0  0  0  0
  123.4050  131.0600   59.9820 C   0  0  0  0  0  0  0  0  0  0  0  0
  123.7470  132.2730   61.3000 S   0  0  0  0  0  0  0  0  0  0  0  0
  125.4030  131.9590   61.8710 C   0  0  0  0  0  0  0  0  0  0  0  0
  126.3550  132.6340   61.1820 N   0  0  0  0  0  0  0  0  0  0  0  0
  127.6510  132.4540   61.5210 C   0  0  0  0  0  0  0  0  0  0  0  0
  128.6610  133.2350   60.7030 C   0  0  0  0  0  0  0  0  0  0  0  0
  128.0470  131.6070   62.5540 C   0  0  0  0  0  0  0  0  0  0  0  0
  127.0750  130.9150   63.2920 C   0  0  0  0  0  0  0  0  0  0  0  0
  127.5320  129.9900   64.4370 C   0  0  0  0  0  0  0  0  0  0  0  0
  128.2870  130.6710   65.2980 F   0  0  0  0  0  0  0  0  0  0  0  0
  126.5100  129.4730   65.1220 F   0  0  0  0  0  0  0  0  0  0  0  0
  128.2430  128.9730   63.9480 F   0  0  0  0  0  0  0  0  0  0  0  0
  125.7100  131.0990   62.9530 C   0  0  0  0  0  0  0  0  0  0  0  0
  124.6530  130.4470   63.7310 C   0  0  0  0  0  0  0  0  0  0  0  0
  123.8200  129.9330   64.3480 N   0  0  0  0  0  0  0  0  0  0  0  0
  128.6320  132.4860   57.2510 C   0  0  0  0  0  0  0  0  0  0  0  0
  128.1320  133.4690   56.4300 O   0  0  0  0  0  0  0  0  0  0  0  0
  128.3690  133.2530   55.0450 C   0  0  0  0  0  0  0  0  0  0  0  0
  129.9970  132.4700   57.5860 C   0  0  0  0  0  0  0  0  0  0  0  0
  130.8420  133.4270   57.0770 O   0  0  0  0  0  0  0  0  0  0  0  0
  131.8120  132.9230   56.1690 C   0  0  0  0  0  0  0  0  0  0  0  0
  1  2  1  0
  2  3  1  0
  3  4  2  0
  4  5  1  0
  5  6  2  0
  6  7  1  0
  7  8  1  0
  8  9  1  0
  9 10  2  0
  9 11  1  0
 11 12  1  0
 12 13  1  0
 13 14  2  0
 14 15  1  0
 15 16  1  0
 15 17  2  0
 17 18  1  0
 18 19  1  0
 19 20  1  0
 19 21  1  0
 19 22  1  0
 18 23  2  0
 23 24  1  0
 24 25  3  0
  6 26  1  0
 26 27  1  0
 27 28  1  0
 26 29  2  0
 29 30  1  0
 30 31  1  0
 29  3  1  0
 23 13  1  0
M  END
>  <Binding energies>  (24) 
[-6.51]

>  <Ligand effiencies>  (24) 
[-0.2034375]

>  <Interactions>  (24) 
["V-A:PRO:540:CD:4887, V-B:ILE:369:CG1:8209, V-A:ILE:538:CG2:4863, V-A:TYR:539:CE2:4876, V-A:ILE:538:CB:4862, V-B:ASP:366:CB:8183, V-B:ILE:369:CB:8207, V-A:TYR:539:CE1:4875, V-A:LEU:363:CD1:3189, V-A:TYR:539:CZ:4877, V-B:ILE:369:CG2:8208, V-A:PRO:540:CA:4883, V-B:ASP:366:CG:8184, V-A:ILE:538:CA:4860, V-A:MET:535:CE:4835, V-B:ASP:366:CA:8181, V-A:TYR:539:CD1:4873, V-A:PRO:540:N:4884, V-A:TYR:539:C:4867, V-A:GLU:543:CD:4908, V-A:ASP:366:CB:3212, V-A:ASP:366:CG:3213, V-A:TYR:539:CG:4872, V-A:GLU:543:CB:4906, V-A:GLU:543:CG:4907, H-A:TYR:539:OH:4878, V-A:ILE:538:C:4858, H-A:TYR:539:N:4870, V-A:TYR:539:CD2:4874, V-B:ARG:545:CZ:9898, H-B:TYR:484:OH:9319, H-B:GLY:454:N:9021, V-B:TYR:484:CZ:9318, H-B:ARG:545:NE:9896, H-B:ARG:545:NH1:9899, H-B:ARG:545:NH2:9900, V-B:TYR:484:CE2:9317"]

$$$$
2i_Grossjean_2025
     RDKit          3D

 23 24  0  0  0  0  0  0  0  0999 V2000
  124.3280  132.0850   60.6650 C   0  0  0  0  0  0  0  0  0  0  0  0
  124.9890  133.4340   60.8820 C   0  0  0  0  0  0  0  0  0  0  0  0
  124.3130  134.6260   60.6350 C   0  0  0  0  0  0  0  0  0  0  0  0
  124.9680  135.8470   60.8530 C   0  0  0  0  0  0  0  0  0  0  0  0
  124.2060  137.1570   60.5750 C   0  0  0  0  0  0  0  0  0  0  0  0
  124.7390  137.7800   59.5230 F   0  0  0  0  0  0  0  0  0  0  0  0
  122.9230  136.8950   60.3180 F   0  0  0  0  0  0  0  0  0  0  0  0
  124.2430  138.0050   61.6050 F   0  0  0  0  0  0  0  0  0  0  0  0
  126.3060  135.8240   61.3220 C   0  0  0  0  0  0  0  0  0  0  0  0
  127.0370  137.0710   61.5680 C   0  0  0  0  0  0  0  0  0  0  0  0
  127.6150  138.0550   61.7620 N   0  0  0  0  0  0  0  0  0  0  0  0
  126.9170  134.5680   61.5430 C   0  0  0  0  0  0  0  0  0  0  0  0
  128.5990  134.4160   62.1240 S   0  0  0  0  0  0  0  0  0  0  0  0
  129.1740  132.7310   61.7540 C   0  0  0  0  0  0  0  0  0  0  0  0
  129.5580  132.5600   60.2830 C   0  0  0  0  0  0  0  0  0  0  0  0
  130.6630  132.0910   60.0030 O   0  0  0  0  0  0  0  0  0  0  0  0
  128.6390  132.9720   59.3840 N   0  0  0  0  0  0  0  0  0  0  0  0
  128.7580  132.9370   58.0040 C   0  0  0  0  0  0  0  0  0  0  0  0
  127.8990  132.3950   57.0370 C   0  0  0  0  0  0  0  0  0  0  0  0
  128.5190  132.6530   55.8350 C   0  0  0  0  0  0  0  0  0  0  0  0
  129.6770  133.3170   56.0670 O   0  0  0  0  0  0  0  0  0  0  0  0
  129.8110  133.4940   57.4460 N   0  0  0  0  0  0  0  0  0  0  0  0
  126.2650  133.3970   61.3270 N   0  0  0  0  0  0  0  0  0  0  0  0
  1  2  1  0
  2  3  2  0
  3  4  1  0
  4  5  1  0
  5  6  1  0
  5  7  1  0
  5  8  1  0
  4  9  2  0
  9 10  1  0
 10 11  3  0
  9 12  1  0
 12 13  1  0
 13 14  1  0
 14 15  1  0
 15 16  2  0
 15 17  1  0
 17 18  1  0
 18 19  1  0
 19 20  2  0
 20 21  1  0
 21 22  1  0
 12 23  2  0
 23  2  1  0
 22 18  2  0
M  END
>  <Binding energies>  (25) 
[-6.45]

>  <Ligand effiencies>  (25) 
[-0.26875]

>  <Interactions>  (25) 
["H-A:ALA:541:N:4891, V-A:TYR:539:CE2:4876, V-B:SER:385:CA:8378, V-A:TYR:539:CE1:4875, V-A:TYR:539:CZ:4877, V-B:ILE:369:CG2:8208, V-A:PRO:540:CA:4883, V-B:LEU:475:CD2:9230, V-A:ILE:538:CA:4860, V-B:LEU:373:CD1:8251, V-A:MET:535:CE:4835, V-B:SER:385:CB:8380, V-A:TYR:539:CD1:4873, V-A:ALA:541:CB:4892, V-A:PRO:540:N:4884, V-A:TYR:539:C:4867, V-A:TYR:539:CG:4872, H-A:TYR:539:N:4870, V-B:THR:477:CG2:9244, H-A:TYR:539:O:4868, V-B:VAL:384:C:8368, V-B:HIS:383:CD2:8363, V-A:TYR:539:CB:4871, H-B:HIS:383:NE2:8365"]

$$$$
2k_Grossjean_2025
     RDKit          3D

 28 28  0  0  0  0  0  0  0  0999 V2000
  127.1280  137.5970   61.6730 C   0  0  0  0  0  0  0  0  0  0  0  0
  126.0010  137.7680   60.8270 O   0  0  0  0  0  0  0  0  0  0  0  0
  125.0990  136.6680   60.8560 C   0  0  0  0  0  0  0  0  0  0  0  0
  125.8300  135.4120   61.3480 C   0  0  0  0  0  0  0  0  0  0  0  0
  124.9420  134.3050   61.2820 O   0  0  0  0  0  0  0  0  0  0  0  0
  123.8560  134.3720   62.1980 C   0  0  0  0  0  0  0  0  0  0  0  0
  123.0870  133.0460   62.1360 C   0  0  0  0  0  0  0  0  0  0  0  0
  124.0350  132.0020   61.9740 O   0  0  0  0  0  0  0  0  0  0  0  0
  124.1340  131.1010   63.0660 C   0  0  0  0  0  0  0  0  0  0  0  0
  125.5560  131.1810   63.6520 C   0  0  0  0  0  0  0  0  0  0  0  0
  126.3930  132.1830   62.9880 N   0  0  0  0  0  0  0  0  0  0  0  0
  127.6110  132.5830   63.3990 C   0  0  0  0  0  0  0  0  0  0  0  0
  128.1800  132.1170   64.3880 O   0  0  0  0  0  0  0  0  0  0  0  0
  128.2640  133.6950   62.5640 C   0  0  0  0  0  0  0  0  0  0  0  0
  128.3600  133.3720   60.7690 S   0  0  0  0  0  0  0  0  0  0  0  0
  129.9330  132.6150   60.3850 C   0  0  0  0  0  0  0  0  0  0  0  0
  130.6910  132.2570   61.4530 N   0  0  0  0  0  0  0  0  0  0  0  0
  131.8950  131.6830   61.2360 C   0  0  0  0  0  0  0  0  0  0  0  0
  132.6860  131.3230   62.4790 C   0  0  0  0  0  0  0  0  0  0  0  0
  132.3890  131.4310   59.9590 C   0  0  0  0  0  0  0  0  0  0  0  0
  131.6190  131.7850   58.8400 C   0  0  0  0  0  0  0  0  0  0  0  0
  132.1780  131.4950   57.4340 C   0  0  0  0  0  0  0  0  0  0  0  0
  133.3460  130.8510   57.4650 F   0  0  0  0  0  0  0  0  0  0  0  0
  131.3210  130.7360   56.7490 F   0  0  0  0  0  0  0  0  0  0  0  0
  132.3670  132.6370   56.7730 F   0  0  0  0  0  0  0  0  0  0  0  0
  130.3570  132.3960   59.0530 C   0  0  0  0  0  0  0  0  0  0  0  0
  129.5120  132.7900   57.9200 C   0  0  0  0  0  0  0  0  0  0  0  0
  128.8460  133.1000   57.0260 N   0  0  0  0  0  0  0  0  0  0  0  0
  1  2  1  0
  2  3  1  0
  3  4  1  0
  4  5  1  0
  5  6  1  0
  6  7  1  0
  7  8  1  0
  8  9  1  0
  9 10  1  0
 10 11  1  0
 11 12  1  0
 12 13  2  0
 12 14  1  0
 14 15  1  0
 15 16  1  0
 16 17  2  0
 17 18  1  0
 18 19  1  0
 18 20  2  0
 20 21  1  0
 21 22  1  0
 22 23  1  0
 22 24  1  0
 22 25  1  0
 21 26  2  0
 26 27  1  0
 27 28  3  0
 26 16  1  0
M  END
>  <Binding energies>  (26) 
[-6.15]

>  <Ligand effiencies>  (26) 
[-0.2120689655172414]

>  <Interactions>  (26) 
["V-A:PRO:540:CD:4887, V-B:ILE:369:CG1:8209, H-A:ALA:541:N:4891, V-A:ILE:538:CG2:4863, V-A:ILE:538:CB:4862, V-B:ILE:369:CB:8207, V-A:TYR:539:CE1:4875, V-A:LEU:363:CD1:3189, V-A:TYR:531:CZ:4794, V-A:TYR:531:CE2:4793, V-B:ILE:369:CG2:8208, V-A:PRO:540:CA:4883, V-B:LEU:475:CD2:9230, V-B:GLY:454:CA:9020, V-A:MET:535:CE:4835, V-A:TYR:539:CD1:4873, V-A:ALA:541:CB:4892, V-A:PRO:540:N:4884, V-A:PRO:540:CB:4885, V-A:TYR:539:C:4867, V-A:GLU:543:CD:4908, V-A:ASP:366:CB:3212, V-A:GLU:543:CG:4907, V-A:ASN:362:CB:3176, H-A:TYR:539:N:4870, V-A:PRO:540:C:4881, V-A:LEU:363:CA:3185, H-B:TYR:484:OH:9319, H-B:HIS:383:NE2:8365, V-A:LEU:363:CG:3188"]

$$$$
3aa_Grossjean_2025
     RDKit          3D

 34 36  0  0  0  0  0  0  0  0999 V2000
  127.5350  138.1740   61.8770 C   0  0  0  0  0  0  0  0  0  0  0  0
  126.0600  137.8430   62.1250 C   0  0  0  0  0  0  0  0  0  0  0  0
  125.4580  137.4170   60.9090 O   0  0  0  0  0  0  0  0  0  0  0  0
  124.4940  136.4610   60.9040 C   0  0  0  0  0  0  0  0  0  0  0  0
  123.3840  136.6160   60.3870 O   0  0  0  0  0  0  0  0  0  0  0  0
  124.9070  135.1980   61.6060 C   0  0  0  0  0  0  0  0  0  0  0  0
  124.0560  134.5350   62.5030 C   0  0  0  0  0  0  0  0  0  0  0  0
  124.4680  133.3630   63.1330 C   0  0  0  0  0  0  0  0  0  0  0  0
  125.7320  132.8300   62.8770 C   0  0  0  0  0  0  0  0  0  0  0  0
  126.0490  131.6400   63.5630 N   0  0  0  0  0  0  0  0  0  0  0  0
  125.2330  130.6550   63.9990 C   0  0  0  0  0  0  0  0  0  0  0  0
  124.0070  130.6390   63.8850 O   0  0  0  0  0  0  0  0  0  0  0  0
  125.9270  129.4860   64.6990 C   0  0  0  0  0  0  0  0  0  0  0  0
  127.6500  129.8830   65.1270 S   0  0  0  0  0  0  0  0  0  0  0  0
  128.3670  128.4090   65.8200 C   0  0  0  0  0  0  0  0  0  0  0  0
  128.4130  128.4120   67.1730 N   0  0  0  0  0  0  0  0  0  0  0  0
  128.9390  127.3460   67.8310 C   0  0  0  0  0  0  0  0  0  0  0  0
  128.9410  127.4190   69.3280 C   0  0  0  0  0  0  0  0  0  0  0  0
  127.8490  126.9400   70.0680 C   0  0  0  0  0  0  0  0  0  0  0  0
  127.8440  127.0030   71.4600 C   0  0  0  0  0  0  0  0  0  0  0  0
  128.9340  127.5460   72.1300 C   0  0  0  0  0  0  0  0  0  0  0  0
  130.0300  128.0250   71.4200 C   0  0  0  0  0  0  0  0  0  0  0  0
  130.0330  127.9590   70.0290 C   0  0  0  0  0  0  0  0  0  0  0  0
  129.4280  126.2400   67.1300 C   0  0  0  0  0  0  0  0  0  0  0  0
  129.4070  126.2210   65.7270 C   0  0  0  0  0  0  0  0  0  0  0  0
  129.9660  124.9890   64.9910 C   0  0  0  0  0  0  0  0  0  0  0  0
  131.1510  125.2180   64.4220 F   0  0  0  0  0  0  0  0  0  0  0  0
  130.1240  123.9760   65.8440 F   0  0  0  0  0  0  0  0  0  0  0  0
  129.1230  124.6140   64.0280 F   0  0  0  0  0  0  0  0  0  0  0  0
  128.8730  127.3420   65.0450 C   0  0  0  0  0  0  0  0  0  0  0  0
  128.8780  127.4030   63.5810 C   0  0  0  0  0  0  0  0  0  0  0  0
  128.8820  127.4510   62.4240 N   0  0  0  0  0  0  0  0  0  0  0  0
  126.5930  133.4960   61.9920 C   0  0  0  0  0  0  0  0  0  0  0  0
  126.1800  134.6670   61.3650 C   0  0  0  0  0  0  0  0  0  0  0  0
  1  2  1  0
  2  3  1  0
  3  4  1  0
  4  5  2  0
  4  6  1  0
  6  7  2  0
  7  8  1  0
  8  9  2  0
  9 10  1  0
 10 11  1  0
 11 12  2  0
 11 13  1  0
 13 14  1  0
 14 15  1  0
 15 16  2  0
 16 17  1  0
 17 18  1  0
 18 19  2  0
 19 20  1  0
 20 21  2  0
 21 22  1  0
 22 23  2  0
 17 24  2  0
 24 25  1  0
 25 26  1  0
 26 27  1  0
 26 28  1  0
 26 29  1  0
 25 30  2  0
 30 31  1  0
 31 32  3  0
  9 33  1  0
 33 34  2  0
 34  6  1  0
 30 15  1  0
 23 18  1  0
M  END
>  <Binding energies>  (27) 
[-8.87]

>  <Ligand effiencies>  (27) 
[-0.2534285714285714]

>  <Interactions>  (27) 
["V-B:SER:385:CA:8378, V-A:TYR:539:CE1:4875, V-B:LEU:475:CD2:9230, V-B:GLY:454:CA:9020, V-B:LEU:373:CD1:8251, V-B:SER:385:CB:8380, V-A:TYR:539:CD1:4873, V-A:GLU:543:CD:4908, V-A:TYR:484:CZ:4347, V-B:GLU:543:CD:9880, V-B:HIS:456:CE1:9041, V-B:GLU:543:C:9874, V-A:HIS:456:CE1:4070, V-B:GLU:543:CG:9879, V-A:GLU:543:C:4902, V-B:GLU:543:CB:9878, V-A:TYR:484:CE2:4346, V-A:GLU:543:CB:4906, V-B:HIS:456:CD2:9039, V-A:GLU:543:CG:4907, V-B:GLY:544:C:9884, H-B:TYR:484:OH:9319, H-B:GLY:454:N:9021, V-B:LEU:475:CG:9228, H-B:HIS:383:NE2:8365"]

$$$$
3ad_Grossjean_2025
     RDKit          3D

 29 31  0  0  0  0  0  0  0  0999 V2000
  129.3140  126.2650   55.0000 N   0  0  0  0  0  0  0  0  0  0  0  0
  129.3640  125.7700   56.0450 C   0  0  0  0  0  0  0  0  0  0  0  0
  129.4230  125.1400   57.3680 C   0  0  0  0  0  0  0  0  0  0  0  0
  128.4970  124.1340   57.7330 C   0  0  0  0  0  0  0  0  0  0  0  0
  127.4140  123.6100   56.7700 C   0  0  0  0  0  0  0  0  0  0  0  0
  126.7860  122.5280   57.2350 F   0  0  0  0  0  0  0  0  0  0  0  0
  126.4930  124.5540   56.5660 F   0  0  0  0  0  0  0  0  0  0  0  0
  127.9620  123.2800   55.5990 F   0  0  0  0  0  0  0  0  0  0  0  0
  128.5680  123.5960   59.0270 C   0  0  0  0  0  0  0  0  0  0  0  0
  129.5330  124.0520   59.9310 C   0  0  0  0  0  0  0  0  0  0  0  0
  129.6430  123.5230   61.3310 C   0  0  0  0  0  0  0  0  0  0  0  0
  129.6550  122.1410   61.5760 C   0  0  0  0  0  0  0  0  0  0  0  0
  129.7580  121.6440   62.8720 C   0  0  0  0  0  0  0  0  0  0  0  0
  129.8510  122.5260   63.9440 C   0  0  0  0  0  0  0  0  0  0  0  0
  129.8430  123.8990   63.7280 C   0  0  0  0  0  0  0  0  0  0  0  0
  129.7410  124.3930   62.4300 C   0  0  0  0  0  0  0  0  0  0  0  0
  130.4140  125.0220   59.5780 N   0  0  0  0  0  0  0  0  0  0  0  0
  130.3790  125.5410   58.3280 C   0  0  0  0  0  0  0  0  0  0  0  0
  131.6140  126.7880   58.0390 S   0  0  0  0  0  0  0  0  0  0  0  0
  133.0420  125.9660   57.2720 C   0  0  0  0  0  0  0  0  0  0  0  0
  133.5040  124.7460   58.0710 C   0  0  0  0  0  0  0  0  0  0  0  0
  134.1770  123.8820   57.5080 O   0  0  0  0  0  0  0  0  0  0  0  0
  133.1200  124.7210   59.3650 N   0  0  0  0  0  0  0  0  0  0  0  0
  133.3820  123.7660   60.3650 C   0  0  0  0  0  0  0  0  0  0  0  0
  132.9180  122.4740   60.1040 C   0  0  0  0  0  0  0  0  0  0  0  0
  133.1210  121.4530   61.0300 C   0  0  0  0  0  0  0  0  0  0  0  0
  133.7860  121.7260   62.2220 C   0  0  0  0  0  0  0  0  0  0  0  0
  134.2480  123.0100   62.4980 C   0  0  0  0  0  0  0  0  0  0  0  0
  134.0460  124.0340   61.5750 C   0  0  0  0  0  0  0  0  0  0  0  0
  1  2  3  0
  2  3  1  0
  3  4  2  0
  4  5  1  0
  5  6  1  0
  5  7  1  0
  5  8  1  0
  4  9  1  0
  9 10  2  0
 10 11  1  0
 11 12  2  0
 12 13  1  0
 13 14  2  0
 14 15  1  0
 15 16  2  0
 10 17  1  0
 17 18  2  0
 18 19  1  0
 19 20  1  0
 20 21  1  0
 21 22  2  0
 21 23  1  0
 23 24  1  0
 24 25  2  0
 25 26  1  0
 26 27  2  0
 27 28  1  0
 28 29  2  0
 18  3  1  0
 29 24  1  0
 16 11  1  0
M  END
>  <Binding energies>  (28) 
[-7.2]

>  <Ligand effiencies>  (28) 
[-0.24000000000000002]

>  <Interactions>  (28) 
["H-A:TYR:531:OH:4795, V-A:TYR:531:CZ:4794, V-A:GLY:454:CA:4049, V-A:GLY:453:C:4042, V-B:TYR:539:C:9839, V-B:TYR:539:CZ:9849, V-B:PRO:540:CA:9855, H-A:ASN:370:N:3244, V-B:TYR:539:CE2:9848, V-A:ILE:369:CG2:3237, V-A:ASP:366:CA:3210, V-B:PRO:540:N:9856, V-A:ASP:366:C:3208, V-A:ASP:366:CB:3212, V-B:TYR:539:CE1:9847, V-A:ILE:369:CD1:3239, V-A:ASP:366:CG:3213, V-B:PRO:540:CB:9857, H-B:TYR:539:OH:9850, V-B:TYR:539:CD2:9846, V-B:TYR:539:CD1:9845, V-B:GLU:543:CG:9879, V-B:ALA:541:CB:9864, V-A:LEU:475:CD2:4259, V-B:MET:535:CE:9807, V-B:PRO:540:CD:9859, H-A:ASP:366:OD1:3214"]

$$$$
3ai_Grossjean_2025
     RDKit          3D

 28 30  0  0  0  0  0  0  0  0999 V2000
  123.1270  131.2070   60.8790 N   0  0  0  0  0  0  0  0  0  0  0  0
  124.1100  131.4120   60.3040 C   0  0  0  0  0  0  0  0  0  0  0  0
  125.3550  131.6730   59.5750 C   0  0  0  0  0  0  0  0  0  0  0  0
  125.4550  131.3930   58.1900 C   0  0  0  0  0  0  0  0  0  0  0  0
  124.2720  130.8520   57.3640 C   0  0  0  0  0  0  0  0  0  0  0  0
  124.4590  130.9790   56.0480 F   0  0  0  0  0  0  0  0  0  0  0  0
  124.0930  129.5550   57.6210 F   0  0  0  0  0  0  0  0  0  0  0  0
  123.1560  131.5120   57.6730 F   0  0  0  0  0  0  0  0  0  0  0  0
  126.6830  131.6150   57.5480 C   0  0  0  0  0  0  0  0  0  0  0  0
  127.7800  132.0980   58.2670 C   0  0  0  0  0  0  0  0  0  0  0  0
  129.1170  132.3430   57.6350 C   0  0  0  0  0  0  0  0  0  0  0  0
  129.2230  132.6020   56.2590 C   0  0  0  0  0  0  0  0  0  0  0  0
  130.4600  132.8340   55.6660 C   0  0  0  0  0  0  0  0  0  0  0  0
  131.6130  132.8120   56.4440 C   0  0  0  0  0  0  0  0  0  0  0  0
  131.5360  132.5600   57.8100 C   0  0  0  0  0  0  0  0  0  0  0  0
  130.2970  132.3280   58.3990 C   0  0  0  0  0  0  0  0  0  0  0  0
  127.6830  132.3560   59.5960 N   0  0  0  0  0  0  0  0  0  0  0  0
  126.5010  132.1740   60.2340 C   0  0  0  0  0  0  0  0  0  0  0  0
  126.5580  132.5850   61.9650 S   0  0  0  0  0  0  0  0  0  0  0  0
  128.0210  131.7680   62.6870 C   0  0  0  0  0  0  0  0  0  0  0  0
  129.3730  132.2960   62.1840 C   0  0  0  0  0  0  0  0  0  0  0  0
  129.4540  133.3930   61.6270 O   0  0  0  0  0  0  0  0  0  0  0  0
  130.4190  131.4680   62.4050 N   0  0  0  0  0  0  0  0  0  0  0  0
  131.7490  131.6840   62.0660 C   0  0  0  0  0  0  0  0  0  0  0  0
  132.2710  131.3950   60.8060 C   0  0  0  0  0  0  0  0  0  0  0  0
  133.6000  131.7450   60.8800 C   0  0  0  0  0  0  0  0  0  0  0  0
  133.8640  132.2200   62.1200 O   0  0  0  0  0  0  0  0  0  0  0  0
  132.6830  132.1780   62.8630 N   0  0  0  0  0  0  0  0  0  0  0  0
  1  2  3  0
  2  3  1  0
  3  4  2  0
  4  5  1  0
  5  6  1  0
  5  7  1  0
  5  8  1  0
  4  9  1  0
  9 10  2  0
 10 11  1  0
 11 12  2  0
 12 13  1  0
 13 14  2  0
 14 15  1  0
 15 16  2  0
 10 17  1  0
 17 18  2  0
 18 19  1  0
 19 20  1  0
 20 21  1  0
 21 22  2  0
 21 23  1  0
 23 24  1  0
 24 25  1  0
 25 26  2  0
 26 27  1  0
 27 28  1  0
 18  3  1  0
 28 24  2  0
 16 11  1  0
M  END
>  <Binding energies>  (29) 
[-7.92]

>  <Ligand effiencies>  (29) 
[-0.2731034482758621]

>  <Interactions>  (29) 
["V-A:PRO:540:CD:4887, H-A:ALA:541:N:4891, V-A:ILE:538:CG2:4863, V-A:ILE:538:CB:4862, V-B:ASP:366:CB:8183, V-B:ILE:369:CB:8207, V-A:TYR:539:CE1:4875, V-A:LEU:363:CD1:3189, V-A:TYR:539:CZ:4877, V-B:ILE:369:CG2:8208, V-A:PRO:540:CA:4883, V-B:ASP:366:CG:8184, V-A:ILE:538:CA:4860, V-A:MET:535:CE:4835, V-B:ASP:366:CA:8181, V-A:TYR:539:CD1:4873, V-A:ALA:541:CB:4892, V-A:PRO:540:N:4884, V-A:PRO:540:CB:4885, V-A:GLU:543:CD:4908, V-A:ASP:366:CG:3213, V-A:GLU:543:CG:4907, V-A:ILE:538:C:4858, V-A:ASN:362:CB:3176, V-B:TYR:531:CE2:9765, V-B:ASP:366:C:8179, V-B:TYR:531:CZ:9766, V-B:TYR:531:CE1:9764, H-A:LEU:363:N:3186, V-A:LEU:363:CA:3185, V-A:ASN:362:C:3172, H-A:GLU:543:OE1:4909, V-B:ILE:369:C:8203, V-B:ILE:369:CA:8205"]

$$$$
3aj_Grossjean_2025
     RDKit          3D

 28 30  0  0  0  0  0  0  0  0999 V2000
  123.0670  131.2350   60.9520 N   0  0  0  0  0  0  0  0  0  0  0  0
  124.0400  131.4440   60.3630 C   0  0  0  0  0  0  0  0  0  0  0  0
  125.2730  131.7090   59.6140 C   0  0  0  0  0  0  0  0  0  0  0  0
  125.3650  131.3910   58.2370 C   0  0  0  0  0  0  0  0  0  0  0  0
  124.1880  130.7990   57.4390 C   0  0  0  0  0  0  0  0  0  0  0  0
  124.3230  130.9620   56.1210 F   0  0  0  0  0  0  0  0  0  0  0  0
  124.0880  129.4910   57.6750 F   0  0  0  0  0  0  0  0  0  0  0  0
  123.0490  131.3910   57.7990 F   0  0  0  0  0  0  0  0  0  0  0  0
  126.5830  131.6200   57.5770 C   0  0  0  0  0  0  0  0  0  0  0  0
  127.6770  132.1460   58.2730 C   0  0  0  0  0  0  0  0  0  0  0  0
  129.0010  132.4010   57.6200 C   0  0  0  0  0  0  0  0  0  0  0  0
  130.1430  132.6580   58.3930 C   0  0  0  0  0  0  0  0  0  0  0  0
  131.3780  132.8920   57.7930 C   0  0  0  0  0  0  0  0  0  0  0  0
  131.4860  132.8710   56.4060 C   0  0  0  0  0  0  0  0  0  0  0  0
  130.3690  132.6160   55.6170 C   0  0  0  0  0  0  0  0  0  0  0  0
  129.1370  132.3820   56.2210 C   0  0  0  0  0  0  0  0  0  0  0  0
  127.5850  132.4420   59.5940 N   0  0  0  0  0  0  0  0  0  0  0  0
  126.4140  132.2530   60.2480 C   0  0  0  0  0  0  0  0  0  0  0  0
  126.4750  132.7180   61.9650 S   0  0  0  0  0  0  0  0  0  0  0  0
  127.9480  131.9330   62.7040 C   0  0  0  0  0  0  0  0  0  0  0  0
  129.2870  132.3430   62.0740 C   0  0  0  0  0  0  0  0  0  0  0  0
  129.3850  133.3840   61.4200 O   0  0  0  0  0  0  0  0  0  0  0  0
  130.3050  131.4820   62.3010 N   0  0  0  0  0  0  0  0  0  0  0  0
  131.6140  131.6110   61.8570 C   0  0  0  0  0  0  0  0  0  0  0  0
  132.6280  132.1700   62.4830 N   0  0  0  0  0  0  0  0  0  0  0  0
  133.7330  132.1110   61.7660 C   0  0  0  0  0  0  0  0  0  0  0  0
  133.6280  131.4920   60.5240 C   0  0  0  0  0  0  0  0  0  0  0  0
  131.9890  130.9630   60.2920 S   0  0  0  0  0  0  0  0  0  0  0  0
  1  2  3  0
  2  3  1  0
  3  4  2  0
  4  5  1  0
  5  6  1  0
  5  7  1  0
  5  8  1  0
  4  9  1  0
  9 10  2  0
 10 11  1  0
 11 12  2  0
 12 13  1  0
 13 14  2  0
 14 15  1  0
 15 16  2  0
 10 17  1  0
 17 18  2  0
 18 19  1  0
 19 20  1  0
 20 21  1  0
 21 22  2  0
 21 23  1  0
 23 24  1  0
 24 25  2  0
 25 26  1  0
 26 27  2  0
 27 28  1  0
 18  3  1  0
 28 24  1  0
 16 11  1  0
M  END
>  <Binding energies>  (30) 
[-7.69]

>  <Ligand effiencies>  (30) 
[-0.26517241379310347]

>  <Interactions>  (30) 
["V-A:PRO:540:CD:4887, H-A:ALA:541:N:4891, V-A:ILE:538:CG2:4863, V-A:ILE:538:CB:4862, V-B:ASP:366:CB:8183, V-B:ILE:369:CB:8207, V-A:TYR:539:CE1:4875, V-A:LEU:363:CD1:3189, V-A:TYR:539:CZ:4877, V-B:ILE:369:CG2:8208, V-A:PRO:540:CA:4883, V-B:ASP:366:CG:8184, V-A:ILE:538:CA:4860, V-A:MET:535:CE:4835, V-B:ASP:366:CA:8181, V-A:TYR:539:CD1:4873, V-A:ALA:541:CB:4892, V-A:PRO:540:N:4884, V-A:PRO:540:CB:4885, V-A:TYR:539:C:4867, V-A:GLU:543:CD:4908, V-A:ASP:366:CG:3213, V-A:GLU:543:CG:4907, V-A:ASN:362:CB:3176, V-B:TYR:531:CE2:9765, V-B:ASP:366:C:8179, V-B:TYR:531:CZ:9766, V-B:TYR:531:CE1:9764, V-A:LEU:363:CA:3185, V-A:PRO:540:CG:4886, V-A:ASN:362:C:3172, H-A:GLU:543:OE1:4909, V-B:ILE:369:C:8203, V-B:ILE:369:CA:8205"]

$$$$
3ak_Grossjean_2025
     RDKit          3D

 33 34  0  0  0  0  0  0  0  0999 V2000
  127.8260  138.3370   61.9360 C   0  0  0  0  0  0  0  0  0  0  0  0
  126.7660  138.1760   61.0060 O   0  0  0  0  0  0  0  0  0  0  0  0
  126.1400  136.9030   61.0780 C   0  0  0  0  0  0  0  0  0  0  0  0
  124.6700  137.0450   60.6630 C   0  0  0  0  0  0  0  0  0  0  0  0
  123.9920  135.8240   60.9370 O   0  0  0  0  0  0  0  0  0  0  0  0
  124.8240  134.7280   61.3080 C   0  0  0  0  0  0  0  0  0  0  0  0
  124.2690  133.8980   62.4800 C   0  0  0  0  0  0  0  0  0  0  0  0
  125.3270  133.1520   63.0670 O   0  0  0  0  0  0  0  0  0  0  0  0
  124.9310  131.8800   63.5610 C   0  0  0  0  0  0  0  0  0  0  0  0
  125.9900  130.8200   63.2080 C   0  0  0  0  0  0  0  0  0  0  0  0
  127.2510  131.3880   62.7270 N   0  0  0  0  0  0  0  0  0  0  0  0
  128.2060  131.9520   63.4910 C   0  0  0  0  0  0  0  0  0  0  0  0
  128.1180  132.0330   64.7170 O   0  0  0  0  0  0  0  0  0  0  0  0
  129.4610  132.5210   62.8080 C   0  0  0  0  0  0  0  0  0  0  0  0
  130.4190  131.3630   61.7620 S   0  0  0  0  0  0  0  0  0  0  0  0
  129.8650  131.5260   60.0710 C   0  0  0  0  0  0  0  0  0  0  0  0
  128.5230  131.4730   59.8860 N   0  0  0  0  0  0  0  0  0  0  0  0
  128.0060  131.5810   58.6360 C   0  0  0  0  0  0  0  0  0  0  0  0
  126.5120  131.5130   58.5230 C   0  0  0  0  0  0  0  0  0  0  0  0
  125.9000  131.1070   57.3270 C   0  0  0  0  0  0  0  0  0  0  0  0
  124.5130  131.0390   57.2180 C   0  0  0  0  0  0  0  0  0  0  0  0
  123.7180  131.3750   58.3080 C   0  0  0  0  0  0  0  0  0  0  0  0
  124.2990  131.7770   59.5060 C   0  0  0  0  0  0  0  0  0  0  0  0
  125.6850  131.8440   59.6120 C   0  0  0  0  0  0  0  0  0  0  0  0
  128.8410  131.7640   57.5280 C   0  0  0  0  0  0  0  0  0  0  0  0
  130.2320  131.8240   57.6920 C   0  0  0  0  0  0  0  0  0  0  0  0
  131.1190  132.0240   56.4470 C   0  0  0  0  0  0  0  0  0  0  0  0
  131.8470  130.9300   56.2250 F   0  0  0  0  0  0  0  0  0  0  0  0
  130.3590  132.2620   55.3780 F   0  0  0  0  0  0  0  0  0  0  0  0
  131.9640  133.0490   56.5730 F   0  0  0  0  0  0  0  0  0  0  0  0
  130.7650  131.7000   58.9980 C   0  0  0  0  0  0  0  0  0  0  0  0
  132.2120  131.7550   59.2290 C   0  0  0  0  0  0  0  0  0  0  0  0
  133.3550  131.7970   59.4120 N   0  0  0  0  0  0  0  0  0  0  0  0
  1  2  1  0
  2  3  1  0
  3  4  1  0
  4  5  1  0
  5  6  1  0
  6  7  1  0
  7  8  1  0
  8  9  1  0
  9 10  1  0
 10 11  1  0
 11 12  1  0
 12 13  2  0
 12 14  1  0
 14 15  1  0
 15 16  1  0
 16 17  2  0
 17 18  1  0
 18 19  1  0
 19 20  2  0
 20 21  1  0
 21 22  2  0
 22 23  1  0
 23 24  2  0
 18 25  2  0
 25 26  1  0
 26 27  1  0
 27 28  1  0
 27 29  1  0
 27 30  1  0
 26 31  2  0
 31 32  1  0
 32 33  3  0
 31 16  1  0
 24 19  1  0
M  END
>  <Binding energies>  (31) 
[-6.68]

>  <Ligand effiencies>  (31) 
[-0.19647058823529412]

>  <Interactions>  (31) 
["V-A:PRO:540:CD:4887, V-A:ILE:538:CG2:4863, V-A:ILE:538:CB:4862, V-B:ASP:366:CB:8183, V-B:ILE:369:CB:8207, V-A:TYR:539:CE1:4875, V-A:LEU:363:CD1:3189, V-A:TYR:539:CZ:4877, V-A:TYR:531:CZ:4794, V-A:TYR:531:CE2:4793, V-B:ILE:369:CG2:8208, V-A:PRO:540:CA:4883, V-B:LEU:475:CD2:9230, V-A:ILE:538:CA:4860, V-B:GLY:454:CA:9020, V-B:LEU:373:CD1:8251, V-A:MET:535:CE:4835, V-B:SER:385:CB:8380, V-B:ASP:366:CA:8181, V-A:TYR:539:CD1:4873, V-A:ALA:541:CB:4892, V-A:PRO:540:N:4884, V-A:PRO:540:CB:4885, V-A:ALA:541:CA:4890, V-B:ASP:366:C:8179, H-B:TYR:484:OH:9319, V-A:VAL:344:CG1:3001, V-B:PRO:482:CB:9297, V-B:HIS:383:CD2:8363, H-B:HIS:383:NE2:8365"]

$$$$
3bk_Grossjean_2025
     RDKit          3D

 30 31  0  0  0  0  0  0  0  0999 V2000
  132.6880  130.7940   57.9350 C   0  0  0  0  0  0  0  0  0  0  0  0
  132.5900  131.0850   56.5490 O   0  0  0  0  0  0  0  0  0  0  0  0
  131.7460  132.1910   56.2610 C   0  0  0  0  0  0  0  0  0  0  0  0
  131.0920  132.6910   57.5570 C   0  0  0  0  0  0  0  0  0  0  0  0
  130.0840  133.6410   57.2400 O   0  0  0  0  0  0  0  0  0  0  0  0
  128.7990  133.3050   57.7450 C   0  0  0  0  0  0  0  0  0  0  0  0
  128.9050  133.0130   59.2480 C   0  0  0  0  0  0  0  0  0  0  0  0
  127.6030  132.8260   59.7850 O   0  0  0  0  0  0  0  0  0  0  0  0
  127.1940  133.8590   60.6730 C   0  0  0  0  0  0  0  0  0  0  0  0
  127.0600  133.2900   62.0920 C   0  0  0  0  0  0  0  0  0  0  0  0
  127.4480  131.8800   62.1660 N   0  0  0  0  0  0  0  0  0  0  0  0
  127.9160  131.2560   63.2600 C   0  0  0  0  0  0  0  0  0  0  0  0
  128.0590  131.8060   64.3530 O   0  0  0  0  0  0  0  0  0  0  0  0
  128.2560  129.7720   63.1060 C   0  0  0  0  0  0  0  0  0  0  0  0
  126.7680  128.7560   62.8440 S   0  0  0  0  0  0  0  0  0  0  0  0
  125.5760  129.7000   61.9090 C   0  0  0  0  0  0  0  0  0  0  0  0
  125.8540  129.8670   60.5910 N   0  0  0  0  0  0  0  0  0  0  0  0
  125.0040  130.5750   59.8010 C   0  0  0  0  0  0  0  0  0  0  0  0
  125.3750  130.6930   58.3540 C   0  0  0  0  0  0  0  0  0  0  0  0
  126.7160  130.6030   57.9470 C   0  0  0  0  0  0  0  0  0  0  0  0
  127.0670  130.7170   56.6030 C   0  0  0  0  0  0  0  0  0  0  0  0
  126.0790  130.9220   55.6470 C   0  0  0  0  0  0  0  0  0  0  0  0
  124.7420  131.0100   56.0230 C   0  0  0  0  0  0  0  0  0  0  0  0
  124.3950  130.8940   57.3660 C   0  0  0  0  0  0  0  0  0  0  0  0
  123.8350  131.1350   60.3280 C   0  0  0  0  0  0  0  0  0  0  0  0
  123.5340  130.9750   61.6840 C   0  0  0  0  0  0  0  0  0  0  0  0
  122.2470  131.6030   62.2180 C   0  0  0  0  0  0  0  0  0  0  0  0
  124.4170  130.2420   62.5050 C   0  0  0  0  0  0  0  0  0  0  0  0
  124.1260  130.0560   63.9290 C   0  0  0  0  0  0  0  0  0  0  0  0
  123.8970  129.9090   65.0540 N   0  0  0  0  0  0  0  0  0  0  0  0
  1  2  1  0
  2  3  1  0
  3  4  1  0
  4  5  1  0
  5  6  1  0
  6  7  1  0
  7  8  1  0
  8  9  1  0
  9 10  1  0
 10 11  1  0
 11 12  1  0
 12 13  2  0
 12 14  1  0
 14 15  1  0
 15 16  1  0
 16 17  2  0
 17 18  1  0
 18 19  1  0
 19 20  2  0
 20 21  1  0
 21 22  2  0
 22 23  1  0
 23 24  2  0
 18 25  2  0
 25 26  1  0
 26 27  1  0
 26 28  2  0
 28 29  1  0
 29 30  3  0
 28 16  1  0
 24 19  1  0
M  END
>  <Binding energies>  (32) 
[-6.92]

>  <Ligand effiencies>  (32) 
[-0.2232258064516129]

>  <Interactions>  (32) 
["V-A:TYR:539:CA:4869, V-A:PRO:540:CD:4887, V-B:ILE:369:CG1:8209, V-A:ILE:538:CG2:4863, H-A:TYR:531:OH:4795, V-A:ILE:538:CB:4862, V-B:GLY:453:C:9013, V-B:ILE:369:CB:8207, V-A:TYR:539:CE1:4875, V-A:LEU:363:CD1:3189, V-A:TYR:539:CZ:4877, V-A:TYR:531:CE2:4793, V-B:ILE:369:CG2:8208, V-A:PRO:540:CA:4883, V-B:LEU:475:CD2:9230, V-B:ASP:366:CG:8184, V-B:GLY:454:CA:9020, V-A:MET:535:CE:4835, V-B:GLY:453:CA:9015, V-A:TYR:539:CD1:4873, V-A:PRO:540:N:4884, V-A:PRO:540:CB:4885, V-A:TYR:539:C:4867, V-A:GLU:543:CD:4908, V-A:ASP:366:CB:3212, V-A:TYR:539:CG:4872, H-A:TYR:539:N:4870, V-B:TYR:531:CZ:9766, V-B:TYR:531:CE1:9764, V-B:ARG:545:CZ:9898, H-B:TYR:484:OH:9319, H-B:GLY:454:N:9021, H-B:ARG:545:NE:9896, H-B:ARG:545:NH2:9900"]

$$$$
3cb_Grossjean_2025
     RDKit          3D

 30 32  0  0  0  0  0  0  0  0999 V2000
  127.3600  127.6640   73.2360 C   0  0  0  0  0  0  0  0  0  0  0  0
  128.6520  127.1550   72.9410 O   0  0  0  0  0  0  0  0  0  0  0  0
  129.5190  127.8550   72.1650 C   0  0  0  0  0  0  0  0  0  0  0  0
  130.3070  128.6950   72.6110 O   0  0  0  0  0  0  0  0  0  0  0  0
  129.4240  127.5080   70.7060 C   0  0  0  0  0  0  0  0  0  0  0  0
  128.2580  126.9630   70.1470 C   0  0  0  0  0  0  0  0  0  0  0  0
  128.2020  126.6550   68.7910 C   0  0  0  0  0  0  0  0  0  0  0  0
  129.3050  126.8790   67.9670 C   0  0  0  0  0  0  0  0  0  0  0  0
  129.1370  126.5340   66.6100 N   0  0  0  0  0  0  0  0  0  0  0  0
  129.8960  125.7510   65.8140 C   0  0  0  0  0  0  0  0  0  0  0  0
  130.9140  125.1570   66.1710 O   0  0  0  0  0  0  0  0  0  0  0  0
  129.3810  125.6210   64.3720 C   0  0  0  0  0  0  0  0  0  0  0  0
  129.3970  123.9240   63.6990 S   0  0  0  0  0  0  0  0  0  0  0  0
  129.4070  124.0430   61.9220 C   0  0  0  0  0  0  0  0  0  0  0  0
  130.5890  124.4760   61.4180 N   0  0  0  0  0  0  0  0  0  0  0  0
  130.7130  124.6050   60.0780 C   0  0  0  0  0  0  0  0  0  0  0  0
  132.0660  125.0820   59.5840 C   0  0  0  0  0  0  0  0  0  0  0  0
  129.6750  124.3160   59.1970 C   0  0  0  0  0  0  0  0  0  0  0  0
  128.4400  123.8820   59.6970 C   0  0  0  0  0  0  0  0  0  0  0  0
  127.3550  123.5900   58.7110 C   0  0  0  0  0  0  0  0  0  0  0  0
  127.5850  122.7000   57.6540 C   0  0  0  0  0  0  0  0  0  0  0  0
  126.5770  122.4130   56.7370 C   0  0  0  0  0  0  0  0  0  0  0  0
  125.3290  123.0150   56.8750 C   0  0  0  0  0  0  0  0  0  0  0  0
  125.0800  123.8950   57.9240 C   0  0  0  0  0  0  0  0  0  0  0  0
  126.0900  124.1790   58.8410 C   0  0  0  0  0  0  0  0  0  0  0  0
  128.2890  123.7540   61.1020 C   0  0  0  0  0  0  0  0  0  0  0  0
  126.9920  123.3950   61.6850 C   0  0  0  0  0  0  0  0  0  0  0  0
  125.9690  123.1110   62.1450 N   0  0  0  0  0  0  0  0  0  0  0  0
  130.4730  127.4290   68.5170 C   0  0  0  0  0  0  0  0  0  0  0  0
  130.5280  127.7370   69.8740 C   0  0  0  0  0  0  0  0  0  0  0  0
  1  2  1  0
  2  3  1  0
  3  4  2  0
  3  5  1  0
  5  6  2  0
  6  7  1  0
  7  8  2  0
  8  9  1  0
  9 10  1  0
 10 11  2  0
 10 12  1  0
 12 13  1  0
 13 14  1  0
 14 15  2  0
 15 16  1  0
 16 17  1  0
 16 18  2  0
 18 19  1  0
 19 20  1  0
 20 21  2  0
 21 22  1  0
 22 23  2  0
 23 24  1  0
 24 25  2  0
 19 26  2  0
 26 27  1  0
 27 28  3  0
  8 29  1  0
 29 30  2  0
 30  5  1  0
 26 14  1  0
 25 20  1  0
M  END
>  <Binding energies>  (33) 
[-8.97]

>  <Ligand effiencies>  (33) 
[-0.28935483870967743]

>  <Interactions>  (33) 
["V-B:TYR:539:C:9839, V-A:GLU:543:CD:4908, V-B:TYR:539:CZ:9849, V-B:PRO:540:CA:9855, V-B:TYR:539:CE2:9848, V-B:PRO:540:N:9856, H-A:TYR:484:OH:4348, V-B:TYR:539:CE1:9847, V-A:ASP:366:CG:3213, V-B:PRO:540:CB:9857, V-B:TYR:539:CD2:9846, V-B:TYR:539:CD1:9845, V-B:TYR:539:CG:9844, V-B:GLU:543:CD:9880, V-B:HIS:456:CE1:9041, V-B:GLU:543:C:9874, V-A:HIS:456:CE1:4070, H-B:ALA:541:N:9863, V-B:GLU:543:CG:9879, V-A:GLU:543:C:4902, V-B:GLU:543:CB:9878, V-A:GLU:543:CB:4906, V-B:HIS:456:CD2:9039, V-B:GLU:543:CA:9876, H-B:LYS:547:NZ:9923, H-A:LYS:547:NZ:4951, V-B:HIS:456:CG:9037, V-B:LYS:547:CE:9922, V-B:MET:535:CE:9807, V-B:PRO:540:CD:9859, H-B:GLU:543:OE2:9882, V-B:LEU:363:CD1:8160, H-A:GLU:543:OE2:4910"]

$$$$
3ch_Grossjean_2025
     RDKit          3D

 32 34  0  0  0  0  0  0  0  0999 V2000
  132.3120  131.5320   54.6190 C   0  0  0  0  0  0  0  0  0  0  0  0
  132.0020  132.2630   55.8010 O   0  0  0  0  0  0  0  0  0  0  0  0
  131.4000  131.6160   56.8650 C   0  0  0  0  0  0  0  0  0  0  0  0
  131.8560  130.4040   57.4070 C   0  0  0  0  0  0  0  0  0  0  0  0
  131.1990  129.8110   58.4950 C   0  0  0  0  0  0  0  0  0  0  0  0
  131.5830  128.6030   59.1080 N   0  0  0  0  0  0  0  0  0  0  0  0
  131.4260  127.3310   58.6810 C   0  0  0  0  0  0  0  0  0  0  0  0
  130.9030  126.9930   57.6200 O   0  0  0  0  0  0  0  0  0  0  0  0
  131.9960  126.2520   59.6020 C   0  0  0  0  0  0  0  0  0  0  0  0
  130.8960  125.8960   61.0050 S   0  0  0  0  0  0  0  0  0  0  0  0
  129.9470  124.4650   60.5370 C   0  0  0  0  0  0  0  0  0  0  0  0
  130.3180  123.3270   61.1750 N   0  0  0  0  0  0  0  0  0  0  0  0
  129.6630  122.1810   60.8840 C   0  0  0  0  0  0  0  0  0  0  0  0
  130.1320  120.9450   61.6280 C   0  0  0  0  0  0  0  0  0  0  0  0
  128.6250  122.1230   59.9570 C   0  0  0  0  0  0  0  0  0  0  0  0
  128.2220  123.2900   59.2930 C   0  0  0  0  0  0  0  0  0  0  0  0
  127.1110  123.1790   58.2990 C   0  0  0  0  0  0  0  0  0  0  0  0
  125.8510  123.7140   58.5910 C   0  0  0  0  0  0  0  0  0  0  0  0
  124.8080  123.6070   57.6730 C   0  0  0  0  0  0  0  0  0  0  0  0
  125.0230  122.9590   56.4590 C   0  0  0  0  0  0  0  0  0  0  0  0
  126.2680  122.4150   56.1580 C   0  0  0  0  0  0  0  0  0  0  0  0
  127.3080  122.5240   57.0780 C   0  0  0  0  0  0  0  0  0  0  0  0
  128.8870  124.5050   59.6020 C   0  0  0  0  0  0  0  0  0  0  0  0
  128.4450  125.7710   59.0090 C   0  0  0  0  0  0  0  0  0  0  0  0
  128.0970  126.7700   58.5410 N   0  0  0  0  0  0  0  0  0  0  0  0
  130.0660  130.4310   59.0260 C   0  0  0  0  0  0  0  0  0  0  0  0
  129.5900  131.6420   58.5000 C   0  0  0  0  0  0  0  0  0  0  0  0
  128.4790  132.3120   58.9850 O   0  0  0  0  0  0  0  0  0  0  0  0
  128.6370  133.2640   60.0310 C   0  0  0  0  0  0  0  0  0  0  0  0
  130.2640  132.2230   57.4180 C   0  0  0  0  0  0  0  0  0  0  0  0
  129.8190  133.4180   56.9050 O   0  0  0  0  0  0  0  0  0  0  0  0
  128.7250  133.2910   56.0070 C   0  0  0  0  0  0  0  0  0  0  0  0
  1  2  1  0
  2  3  1  0
  3  4  2  0
  4  5  1  0
  5  6  1  0
  6  7  1  0
  7  8  2  0
  7  9  1  0
  9 10  1  0
 10 11  1  0
 11 12  2  0
 12 13  1  0
 13 14  1  0
 13 15  2  0
 15 16  1  0
 16 17  1  0
 17 18  2  0
 18 19  1  0
 19 20  2  0
 20 21  1  0
 21 22  2  0
 16 23  2  0
 23 24  1  0
 24 25  3  0
  5 26  2  0
 26 27  1  0
 27 28  1  0
 28 29  1  0
 27 30  2  0
 30 31  1  0
 31 32  1  0
 30  3  1  0
 23 11  1  0
 22 17  1  0
M  END
>  <Binding energies>  (34) 
[-7.52]

>  <Ligand effiencies>  (34) 
[-0.22787878787878788]

>  <Interactions>  (34) 
["V-A:ILE:538:CG2:4863, V-A:TYR:539:CE2:4876, H-A:TYR:531:OH:4795, V-A:ILE:538:CB:4862, V-A:TYR:539:CE1:4875, V-A:LEU:363:CD1:3189, V-A:TYR:539:CZ:4877, V-A:TYR:531:CZ:4794, V-A:TYR:531:CE2:4793, V-A:PRO:540:CA:4883, V-A:ILE:538:CA:4860, V-A:MET:535:CE:4835, V-A:TYR:539:CD1:4873, V-A:PRO:540:N:4884, V-A:TYR:539:C:4867, V-B:TYR:539:C:9839, V-B:TYR:539:CZ:9849, V-B:PRO:540:CA:9855, V-B:TYR:539:CE2:9848, V-B:PRO:540:N:9856, V-A:ASP:366:CB:3212, V-B:TYR:539:CE1:9847, V-A:ASP:366:CG:3213, V-B:PRO:540:CB:9857, V-B:TYR:539:CD2:9846, V-B:TYR:539:CD1:9845, V-B:TYR:539:CG:9844, V-A:TYR:539:CG:4872, V-B:ALA:541:CB:9864, V-A:LEU:475:CD2:4259, V-B:MET:535:CE:9807, V-B:PRO:540:CD:9859, V-A:ILE:538:C:4858, V-B:LEU:363:CD1:8160, H-A:TYR:539:N:4870, V-A:TYR:539:CD2:4874, V-B:ILE:538:CG2:9835, H-A:ASP:366:OD2:3215, H-A:ASP:366:OD1:3214, V-A:MET:535:CG:4833, V-A:TYR:531:CD2:4791"]

$$$$
3ci_Grossjean_2025
     RDKit          3D

 25 27  0  0  0  0  0  0  0  0999 V2000
  124.0930  130.5300   57.9690 C   0  0  0  0  0  0  0  0  0  0  0  0
  125.0930  131.3610   58.7500 C   0  0  0  0  0  0  0  0  0  0  0  0
  126.4230  131.4680   58.3540 C   0  0  0  0  0  0  0  0  0  0  0  0
  127.3070  132.2610   59.0990 C   0  0  0  0  0  0  0  0  0  0  0  0
  128.7210  132.3580   58.6280 C   0  0  0  0  0  0  0  0  0  0  0  0
  129.0210  132.8910   57.3670 C   0  0  0  0  0  0  0  0  0  0  0  0
  130.3400  132.9720   56.9290 C   0  0  0  0  0  0  0  0  0  0  0  0
  131.3660  132.5120   57.7490 C   0  0  0  0  0  0  0  0  0  0  0  0
  131.0850  131.9720   59.0010 C   0  0  0  0  0  0  0  0  0  0  0  0
  129.7650  131.8930   59.4360 C   0  0  0  0  0  0  0  0  0  0  0  0
  126.8090  132.9240   60.2500 C   0  0  0  0  0  0  0  0  0  0  0  0
  127.6960  133.7330   61.0930 C   0  0  0  0  0  0  0  0  0  0  0  0
  128.3970  134.3720   61.7570 N   0  0  0  0  0  0  0  0  0  0  0  0
  125.4410  132.7660   60.5790 C   0  0  0  0  0  0  0  0  0  0  0  0
  124.7040  133.5730   61.9940 S   0  0  0  0  0  0  0  0  0  0  0  0
  123.6610  134.9570   61.4300 C   0  0  0  0  0  0  0  0  0  0  0  0
  124.4540  136.2360   61.1370 C   0  0  0  0  0  0  0  0  0  0  0  0
  123.8700  137.2100   60.6590 O   0  0  0  0  0  0  0  0  0  0  0  0
  125.7740  136.1860   61.4220 N   0  0  0  0  0  0  0  0  0  0  0  0
  126.7050  137.2060   61.2790 C   0  0  0  0  0  0  0  0  0  0  0  0
  127.7150  137.4500   62.2090 C   0  0  0  0  0  0  0  0  0  0  0  0
  128.4080  138.5290   61.7100 C   0  0  0  0  0  0  0  0  0  0  0  0
  127.8450  138.9130   60.5400 O   0  0  0  0  0  0  0  0  0  0  0  0
  126.7650  138.0680   60.2780 N   0  0  0  0  0  0  0  0  0  0  0  0
  124.6060  131.9910   59.8420 N   0  0  0  0  0  0  0  0  0  0  0  0
  1  2  1  0
  2  3  2  0
  3  4  1  0
  4  5  1  0
  5  6  2  0
  6  7  1  0
  7  8  2  0
  8  9  1  0
  9 10  2  0
  4 11  2  0
 11 12  1  0
 12 13  3  0
 11 14  1  0
 14 15  1  0
 15 16  1  0
 16 17  1  0
 17 18  2  0
 17 19  1  0
 19 20  1  0
 20 21  1  0
 21 22  2  0
 22 23  1  0
 23 24  1  0
 14 25  2  0
 25  2  1  0
 10  5  1  0
 24 20  2  0
M  END
>  <Binding energies>  (35) 
[-8.16]

>  <Ligand effiencies>  (35) 
[-0.31384615384615383]

>  <Interactions>  (35) 
["V-A:PRO:540:CD:4887, H-A:ALA:541:N:4891, V-A:ILE:538:CB:4862, V-B:ASP:366:CB:8183, V-B:SER:385:CA:8378, V-A:TYR:539:CE1:4875, V-A:LEU:363:CD1:3189, V-A:TYR:539:CZ:4877, V-B:ILE:369:CG2:8208, V-A:PRO:540:CA:4883, V-B:LEU:475:CD2:9230, V-B:ASP:366:CG:8184, V-A:ILE:538:CA:4860, V-B:SER:385:CB:8380, V-B:ASP:366:CA:8181, V-A:TYR:539:CD1:4873, V-A:PRO:540:N:4884, V-A:PRO:540:CB:4885, V-A:TYR:539:C:4867, V-A:TYR:539:CG:4872, V-B:ASP:366:C:8179, V-B:LEU:475:CG:9228, V-A:VAL:344:CG1:3001, V-B:PRO:482:CB:9297, V-B:LEU:475:CD1:9229, H-A:TYR:539:O:4868, V-A:TYR:539:CB:4871, H-B:HIS:383:NE2:8365"]

$$$$
3ck_Grossjean_2025
     RDKit          3D

 30 31  0  0  0  0  0  0  0  0999 V2000
  127.8020  137.9530   62.0700 C   0  0  0  0  0  0  0  0  0  0  0  0
  126.7230  137.9220   61.1490 O   0  0  0  0  0  0  0  0  0  0  0  0
  125.9750  136.7150   61.1930 C   0  0  0  0  0  0  0  0  0  0  0  0
  124.5370  136.9850   60.7300 C   0  0  0  0  0  0  0  0  0  0  0  0
  123.6600  136.0580   61.3580 O   0  0  0  0  0  0  0  0  0  0  0  0
  124.2790  134.8300   61.7170 C   0  0  0  0  0  0  0  0  0  0  0  0
  123.1970  133.8300   62.1450 C   0  0  0  0  0  0  0  0  0  0  0  0
  123.8300  132.6090   62.4950 O   0  0  0  0  0  0  0  0  0  0  0  0
  123.5820  131.5330   61.6030 C   0  0  0  0  0  0  0  0  0  0  0  0
  124.7590  130.5400   61.6530 C   0  0  0  0  0  0  0  0  0  0  0  0
  125.8200  130.9290   62.5870 N   0  0  0  0  0  0  0  0  0  0  0  0
  126.7010  130.0930   63.1650 C   0  0  0  0  0  0  0  0  0  0  0  0
  126.7280  128.8800   62.9440 O   0  0  0  0  0  0  0  0  0  0  0  0
  127.7000  130.7490   64.1320 C   0  0  0  0  0  0  0  0  0  0  0  0
  128.3060  132.3970   63.6320 S   0  0  0  0  0  0  0  0  0  0  0  0
  129.5460  132.2030   62.3600 C   0  0  0  0  0  0  0  0  0  0  0  0
  130.7990  131.9300   62.8000 N   0  0  0  0  0  0  0  0  0  0  0  0
  131.7880  131.7740   61.8920 C   0  0  0  0  0  0  0  0  0  0  0  0
  133.1620  131.4730   62.4590 C   0  0  0  0  0  0  0  0  0  0  0  0
  131.5720  131.8850   60.5210 C   0  0  0  0  0  0  0  0  0  0  0  0
  130.2870  132.1730   60.0430 C   0  0  0  0  0  0  0  0  0  0  0  0
  130.1070  132.3060   58.5670 C   0  0  0  0  0  0  0  0  0  0  0  0
  130.9310  131.5900   57.6900 C   0  0  0  0  0  0  0  0  0  0  0  0
  130.7750  131.7170   56.3110 C   0  0  0  0  0  0  0  0  0  0  0  0
  129.7970  132.5660   55.8040 C   0  0  0  0  0  0  0  0  0  0  0  0
  128.9740  133.2920   56.6630 C   0  0  0  0  0  0  0  0  0  0  0  0
  129.1320  133.1630   58.0400 C   0  0  0  0  0  0  0  0  0  0  0  0
  129.2370  132.3260   60.9850 C   0  0  0  0  0  0  0  0  0  0  0  0
  127.8630  132.5880   60.5410 C   0  0  0  0  0  0  0  0  0  0  0  0
  126.7790  132.7930   60.1900 N   0  0  0  0  0  0  0  0  0  0  0  0
  1  2  1  0
  2  3  1  0
  3  4  1  0
  4  5  1  0
  5  6  1  0
  6  7  1  0
  7  8  1  0
  8  9  1  0
  9 10  1  0
 10 11  1  0
 11 12  1  0
 12 13  2  0
 12 14  1  0
 14 15  1  0
 15 16  1  0
 16 17  2  0
 17 18  1  0
 18 19  1  0
 18 20  2  0
 20 21  1  0
 21 22  1  0
 22 23  2  0
 23 24  1  0
 24 25  2  0
 25 26  1  0
 26 27  2  0
 21 28  2  0
 28 29  1  0
 29 30  3  0
 28 16  1  0
 27 22  1  0
M  END
>  <Binding energies>  (36) 
[-7.31]

>  <Ligand effiencies>  (36) 
[-0.2358064516129032]

>  <Interactions>  (36) 
["V-A:TYR:539:CA:4869, V-B:ILE:369:CG1:8209, H-A:ALA:541:N:4891, V-A:ILE:538:CG2:4863, V-A:ILE:538:CB:4862, V-B:SER:385:CA:8378, V-A:TYR:539:CE1:4875, V-B:ILE:369:CG2:8208, V-A:PRO:540:CA:4883, V-B:LEU:475:CD2:9230, V-B:ASP:366:CG:8184, V-A:ILE:538:CA:4860, V-B:GLY:454:CA:9020, V-B:LEU:373:CD1:8251, V-A:MET:535:CE:4835, V-B:SER:385:CB:8380, V-A:TYR:539:CD1:4873, V-A:ALA:541:CB:4892, V-A:PRO:540:N:4884, V-A:PRO:540:CB:4885, V-A:TYR:539:C:4867, V-A:GLU:543:CD:4908, V-A:TYR:539:CG:4872, V-A:ILE:538:C:4858, V-A:ASN:362:CB:3176, V-A:TYR:539:CD2:4874, V-B:SER:385:C:8376, H-B:GLY:454:N:9021, V-B:LEU:475:CG:9228, V-B:PRO:482:CB:9297, V-B:HIS:383:CD2:8363, H-B:ARG:545:NH2:9900, H-B:HIS:383:NE2:8365"]

$$$$
4aa_Grossjean_2025
     RDKit          3D

 26 28  0  0  0  0  0  0  0  0999 V2000
  131.3820  132.1050   55.7150 C   0  0  0  0  0  0  0  0  0  0  0  0
  131.9340  132.7200   57.0050 C   0  0  0  0  0  0  0  0  0  0  0  0
  130.9740  133.6160   57.5490 O   0  0  0  0  0  0  0  0  0  0  0  0
  129.6870  133.2290   57.7490 C   0  0  0  0  0  0  0  0  0  0  0  0
  128.7780  133.4450   56.9400 O   0  0  0  0  0  0  0  0  0  0  0  0
  129.4780  132.5160   59.0530 C   0  0  0  0  0  0  0  0  0  0  0  0
  130.0410  131.2460   59.2370 C   0  0  0  0  0  0  0  0  0  0  0  0
  129.8600  130.5570   60.4330 C   0  0  0  0  0  0  0  0  0  0  0  0
  129.1220  131.1260   61.4720 C   0  0  0  0  0  0  0  0  0  0  0  0
  128.9950  130.3390   62.6330 N   0  0  0  0  0  0  0  0  0  0  0  0
  127.9740  129.5500   63.0460 C   0  0  0  0  0  0  0  0  0  0  0  0
  126.9070  129.4260   62.4430 O   0  0  0  0  0  0  0  0  0  0  0  0
  128.2020  128.8430   64.3080 C   0  0  0  0  0  0  0  0  0  0  0  0
  127.5330  129.4750   65.8150 S   0  0  0  0  0  0  0  0  0  0  0  0
  128.2550  128.1740   66.7350 C   0  0  0  0  0  0  0  0  0  0  0  0
  128.1040  128.0760   68.0570 N   0  0  0  0  0  0  0  0  0  0  0  0
  128.7190  127.0230   68.6490 C   0  0  0  0  0  0  0  0  0  0  0  0
  128.5390  126.9320   70.1530 C   0  0  0  0  0  0  0  0  0  0  0  0
  129.4690  126.0740   67.9570 C   0  0  0  0  0  0  0  0  0  0  0  0
  129.6240  126.1790   66.5710 C   0  0  0  0  0  0  0  0  0  0  0  0
  130.4520  125.1190   65.8600 C   0  0  0  0  0  0  0  0  0  0  0  0
  128.9980  127.2730   65.9140 C   0  0  0  0  0  0  0  0  0  0  0  0
  128.9550  127.6810   64.5350 C   0  0  0  0  0  0  0  0  0  0  0  0
  129.5960  126.9800   63.5450 N   0  0  0  0  0  0  0  0  0  0  0  0
  128.5490  132.3940   61.2950 C   0  0  0  0  0  0  0  0  0  0  0  0
  128.7280  133.0800   60.0970 C   0  0  0  0  0  0  0  0  0  0  0  0
  1  2  1  0
  2  3  1  0
  3  4  1  0
  4  5  2  0
  4  6  1  0
  6  7  2  0
  7  8  1  0
  8  9  2  0
  9 10  1  0
 10 11  1  0
 11 12  2  0
 11 13  1  0
 13 14  1  0
 14 15  1  0
 15 16  2  0
 16 17  1  0
 17 18  1  0
 17 19  2  0
 19 20  1  0
 20 21  1  0
 20 22  2  0
 22 23  1  0
 23 24  1  0
  9 25  1  0
 25 26  2  0
 26  6  1  0
 23 13  2  0
 22 15  1  0
M  END
>  <Binding energies>  (37) 
[-7.27]

>  <Ligand effiencies>  (37) 
[-0.25068965517241376]

>  <Interactions>  (37) 
["V-A:TYR:539:CA:4869, V-A:PRO:540:CD:4887, V-A:ILE:538:CG2:4863, V-A:ILE:538:CB:4862, V-A:LEU:363:CD1:3189, V-A:PRO:540:CA:4883, V-A:MET:535:CE:4835, V-A:TYR:539:CD1:4873, V-A:PRO:540:N:4884, V-A:PRO:540:CB:4885, V-A:TYR:539:C:4867, V-A:GLU:543:CD:4908, V-B:GLU:543:CD:9880, V-B:HIS:456:CE1:9041, V-B:GLU:543:C:9874, V-A:HIS:456:CE1:4070, V-B:GLU:543:CG:9879, V-B:GLU:543:CB:9878, V-A:GLU:543:CB:4906, V-A:GLU:543:CG:4907, H-B:GLU:543:OE1:9881, H-A:TYR:539:N:4870, H-A:GLU:543:OE1:4909, V-B:TYR:484:CZ:9318, H-A:GLU:543:OE2:4910"]

$$$$
4ab_Grossjean_2025
     RDKit          3D

 25 27  0  0  0  0  0  0  0  0999 V2000
  131.4580  132.5690   56.2260 C   0  0  0  0  0  0  0  0  0  0  0  0
  130.8790  133.4010   57.2210 O   0  0  0  0  0  0  0  0  0  0  0  0
  129.6060  133.1980   57.6480 C   0  0  0  0  0  0  0  0  0  0  0  0
  128.6150  133.6770   57.0870 O   0  0  0  0  0  0  0  0  0  0  0  0
  129.5230  132.3380   58.8760 C   0  0  0  0  0  0  0  0  0  0  0  0
  128.6760  132.7240   59.9240 C   0  0  0  0  0  0  0  0  0  0  0  0
  128.5780  131.9480   61.0770 C   0  0  0  0  0  0  0  0  0  0  0  0
  129.3160  130.7710   61.2020 C   0  0  0  0  0  0  0  0  0  0  0  0
  129.1460  130.0710   62.4110 N   0  0  0  0  0  0  0  0  0  0  0  0
  128.0180  129.5960   62.9950 C   0  0  0  0  0  0  0  0  0  0  0  0
  126.8850  129.7520   62.5410 O   0  0  0  0  0  0  0  0  0  0  0  0
  128.2220  128.8800   64.2560 C   0  0  0  0  0  0  0  0  0  0  0  0
  127.5190  129.4970   65.7530 S   0  0  0  0  0  0  0  0  0  0  0  0
  128.2250  128.1910   66.6780 C   0  0  0  0  0  0  0  0  0  0  0  0
  128.0480  128.0820   67.9950 N   0  0  0  0  0  0  0  0  0  0  0  0
  128.6520  127.0250   68.5920 C   0  0  0  0  0  0  0  0  0  0  0  0
  128.4420  126.9230   70.0920 C   0  0  0  0  0  0  0  0  0  0  0  0
  129.4170  126.0830   67.9100 C   0  0  0  0  0  0  0  0  0  0  0  0
  129.6010  126.2000   66.5270 C   0  0  0  0  0  0  0  0  0  0  0  0
  130.4470  125.1470   65.8270 C   0  0  0  0  0  0  0  0  0  0  0  0
  128.9870  127.2980   65.8660 C   0  0  0  0  0  0  0  0  0  0  0  0
  128.9740  127.7180   64.4910 C   0  0  0  0  0  0  0  0  0  0  0  0
  129.6390  127.0280   63.5090 N   0  0  0  0  0  0  0  0  0  0  0  0
  130.1700  130.3800   60.1600 C   0  0  0  0  0  0  0  0  0  0  0  0
  130.2690  131.1570   59.0100 C   0  0  0  0  0  0  0  0  0  0  0  0
  1  2  1  0
  2  3  1  0
  3  4  2  0
  3  5  1  0
  5  6  2  0
  6  7  1  0
  7  8  2  0
  8  9  1  0
  9 10  1  0
 10 11  2  0
 10 12  1  0
 12 13  1  0
 13 14  1  0
 14 15  2  0
 15 16  1  0
 16 17  1  0
 16 18  2  0
 18 19  1  0
 19 20  1  0
 19 21  2  0
 21 22  1  0
 22 23  1  0
  8 24  1  0
 24 25  2  0
 25  5  1  0
 22 12  2  0
 21 14  1  0
M  END
>  <Binding energies>  (38) 
[-6.98]

>  <Ligand effiencies>  (38) 
[-0.2492857142857143]

>  <Interactions>  (38) 
["V-A:TYR:539:CA:4869, V-A:ILE:538:CG2:4863, V-A:ILE:538:CB:4862, V-A:LEU:363:CD1:3189, V-A:PRO:540:CA:4883, V-A:ILE:538:CA:4860, V-A:TYR:539:CD1:4873, V-A:PRO:540:N:4884, V-A:TYR:539:C:4867, V-A:GLU:543:CD:4908, V-B:GLU:543:CD:9880, V-B:HIS:456:CE1:9041, V-B:GLU:543:C:9874, V-A:HIS:456:CE1:4070, V-B:GLU:543:CG:9879, V-B:GLU:543:CB:9878, V-B:GLU:543:CA:9876, V-A:GLU:543:CG:4907, H-B:GLU:543:OE1:9881, H-A:TYR:539:N:4870, H-A:GLU:543:OE1:4909, V-B:TYR:484:CZ:9318, H-A:GLU:543:OE2:4910"]

$$$$
4ac_Grossjean_2025
     RDKit          3D

 23 25  0  0  0  0  0  0  0  0999 V2000
  130.0730  127.0700   68.1360 C   0  0  0  0  0  0  0  0  0  0  0  0
  130.7900  126.0030   67.5240 O   0  0  0  0  0  0  0  0  0  0  0  0
  130.3230  125.4710   66.3370 C   0  0  0  0  0  0  0  0  0  0  0  0
  129.7390  126.3650   65.4420 C   0  0  0  0  0  0  0  0  0  0  0  0
  129.2400  125.9210   64.2200 C   0  0  0  0  0  0  0  0  0  0  0  0
  129.3300  124.5720   63.8730 C   0  0  0  0  0  0  0  0  0  0  0  0
  128.7890  124.2140   62.6250 N   0  0  0  0  0  0  0  0  0  0  0  0
  127.7790  123.3560   62.3430 C   0  0  0  0  0  0  0  0  0  0  0  0
  127.1740  122.7000   63.1940 O   0  0  0  0  0  0  0  0  0  0  0  0
  127.4340  123.2350   60.9240 C   0  0  0  0  0  0  0  0  0  0  0  0
  128.4900  122.3520   59.8220 S   0  0  0  0  0  0  0  0  0  0  0  0
  127.4310  122.6790   58.4690 C   0  0  0  0  0  0  0  0  0  0  0  0
  127.6990  122.2380   57.2390 N   0  0  0  0  0  0  0  0  0  0  0  0
  126.7980  122.5620   56.2810 C   0  0  0  0  0  0  0  0  0  0  0  0
  127.1210  122.0500   54.8890 C   0  0  0  0  0  0  0  0  0  0  0  0
  125.6470  123.3110   56.5200 C   0  0  0  0  0  0  0  0  0  0  0  0
  125.3690  123.7730   57.8120 C   0  0  0  0  0  0  0  0  0  0  0  0
  124.1010  124.5860   58.0230 C   0  0  0  0  0  0  0  0  0  0  0  0
  126.2910  123.4510   58.8440 C   0  0  0  0  0  0  0  0  0  0  0  0
  126.3170  123.7520   60.2500 C   0  0  0  0  0  0  0  0  0  0  0  0
  125.3280  124.4830   60.8590 N   0  0  0  0  0  0  0  0  0  0  0  0
  129.9060  123.6640   64.7740 C   0  0  0  0  0  0  0  0  0  0  0  0
  130.4020  124.1120   65.9950 C   0  0  0  0  0  0  0  0  0  0  0  0
  1  2  1  0
  2  3  1  0
  3  4  2  0
  4  5  1  0
  5  6  2  0
  6  7  1  0
  7  8  1  0
  8  9  2  0
  8 10  1  0
 10 11  1  0
 11 12  1  0
 12 13  2  0
 13 14  1  0
 14 15  1  0
 14 16  2  0
 16 17  1  0
 17 18  1  0
 17 19  2  0
 19 20  1  0
 20 21  1  0
  6 22  1  0
 22 23  2  0
 23  3  1  0
 20 10  2  0
 19 12  1  0
M  END
>  <Binding energies>  (39) 
[-7.18]

>  <Ligand effiencies>  (39) 
[-0.27615384615384614]

>  <Interactions>  (39) 
["V-B:ASP:366:CB:8183, V-B:ASP:366:CG:8184, V-B:TYR:539:C:9839, V-A:GLU:543:CD:4908, V-B:PRO:540:CA:9855, V-B:TYR:539:CE2:9848, V-B:PRO:540:N:9856, V-B:TYR:539:CE1:9847, V-B:PRO:540:CB:9857, V-B:TYR:539:CD2:9846, V-B:TYR:539:CD1:9845, V-B:TYR:539:CG:9844, H-B:TYR:539:N:9842, V-A:TYR:484:CZ:4347, V-B:GLU:543:CD:9880, V-A:HIS:456:CE1:4070, H-B:ALA:541:N:9863, V-B:GLU:543:CG:9879, V-A:TYR:484:CE2:4346, V-A:GLU:543:CB:4906, V-B:MET:535:CE:9807, H-B:GLU:543:OE1:9881, H-B:ASP:366:OD1:8185, V-B:LEU:363:CD1:8160, V-B:TYR:531:CE2:9765, V-B:ILE:538:CG2:9835, V-B:LEU:363:CA:8156, V-B:ILE:538:CA:9832, V-B:ILE:538:C:9830, V-B:ILE:538:CB:9834"]

$$$$
4ad_Grossjean_2025
     RDKit          3D

 21 23  0  0  0  0  0  0  0  0999 V2000
  126.7620  122.0430   54.9710 C   0  0  0  0  0  0  0  0  0  0  0  0
  126.5930  122.5640   56.3860 C   0  0  0  0  0  0  0  0  0  0  0  0
  125.4920  123.3410   56.7390 C   0  0  0  0  0  0  0  0  0  0  0  0
  125.3590  123.8130   58.0500 C   0  0  0  0  0  0  0  0  0  0  0  0
  124.1410  124.6600   58.3870 C   0  0  0  0  0  0  0  0  0  0  0  0
  126.3740  123.4720   58.9840 C   0  0  0  0  0  0  0  0  0  0  0  0
  126.5530  123.7770   60.3780 C   0  0  0  0  0  0  0  0  0  0  0  0
  125.6480  124.5310   61.0820 N   0  0  0  0  0  0  0  0  0  0  0  0
  127.7220  123.2370   60.9360 C   0  0  0  0  0  0  0  0  0  0  0  0
  128.2210  123.3620   62.3070 C   0  0  0  0  0  0  0  0  0  0  0  0
  127.5900  122.8820   63.2500 O   0  0  0  0  0  0  0  0  0  0  0  0
  129.3990  124.0190   62.4390 N   0  0  0  0  0  0  0  0  0  0  0  0
  130.1180  124.3430   63.6050 C   0  0  0  0  0  0  0  0  0  0  0  0
  131.3030  125.0600   63.4140 C   0  0  0  0  0  0  0  0  0  0  0  0
  132.0800  125.4360   64.5070 C   0  0  0  0  0  0  0  0  0  0  0  0
  131.6670  125.1030   65.7940 C   0  0  0  0  0  0  0  0  0  0  0  0
  130.4820  124.4010   65.9990 C   0  0  0  0  0  0  0  0  0  0  0  0
  129.7040  124.0220   64.9080 C   0  0  0  0  0  0  0  0  0  0  0  0
  128.6360  122.3220   59.7350 S   0  0  0  0  0  0  0  0  0  0  0  0
  127.4510  122.6710   58.4970 C   0  0  0  0  0  0  0  0  0  0  0  0
  127.5800  122.2190   57.2480 N   0  0  0  0  0  0  0  0  0  0  0  0
  1  2  1  0
  2  3  2  0
  3  4  1  0
  4  5  1  0
  4  6  2  0
  6  7  1  0
  7  8  1  0
  7  9  2  0
  9 10  1  0
 10 11  2  0
 10 12  1  0
 12 13  1  0
 13 14  2  0
 14 15  1  0
 15 16  2  0
 16 17  1  0
 17 18  2  0
  9 19  1  0
 19 20  1  0
 20 21  2  0
 21  2  1  0
 20  6  1  0
 18 13  1  0
M  END
>  <Binding energies>  (40) 
[-7.38]

>  <Ligand effiencies>  (40) 
[-0.3075]

>  <Interactions>  (40) 
["V-B:ASP:366:CB:8183, V-B:ASP:366:CG:8184, V-B:TYR:539:C:9839, V-B:PRO:540:CA:9855, V-B:TYR:539:CE2:9848, V-B:PRO:540:N:9856, V-B:TYR:539:CE1:9847, V-B:PRO:540:CB:9857, V-B:TYR:539:CD2:9846, V-B:TYR:539:CD1:9845, V-A:ARG:545:CZ:4926, H-B:TYR:539:N:9842, V-A:TYR:484:CZ:4347, V-B:GLU:543:CD:9880, H-B:ALA:541:N:9863, V-B:GLU:543:CG:9879, V-A:TYR:484:CE2:4346, V-B:MET:535:CE:9807, V-B:PRO:540:CD:9859, H-B:GLU:543:OE1:9881, H-B:ASP:366:OD1:8185, V-B:LEU:363:CD1:8160, V-B:TYR:531:CE2:9765, V-B:ILE:538:CG2:9835, V-B:LEU:363:CA:8156, V-B:ILE:538:CA:9832, V-B:ILE:538:C:9830, V-B:ILE:538:CG1:9836, V-B:ILE:538:CB:9834"]

$$$$
4ae_Grossjean_2025
     RDKit          3D

 22 24  0  0  0  0  0  0  0  0999 V2000
  129.4300  125.8660   66.9900 C   0  0  0  0  0  0  0  0  0  0  0  0
  130.1870  125.3370   65.7870 C   0  0  0  0  0  0  0  0  0  0  0  0
  131.5770  125.1970   65.8020 C   0  0  0  0  0  0  0  0  0  0  0  0
  132.2070  124.7120   64.6560 C   0  0  0  0  0  0  0  0  0  0  0  0
  131.4420  124.3830   63.5350 C   0  0  0  0  0  0  0  0  0  0  0  0
  130.0530  124.5390   63.5900 C   0  0  0  0  0  0  0  0  0  0  0  0
  129.3390  124.2110   62.4250 N   0  0  0  0  0  0  0  0  0  0  0  0
  128.2040  123.4780   62.3030 C   0  0  0  0  0  0  0  0  0  0  0  0
  127.6140  122.9640   63.2560 O   0  0  0  0  0  0  0  0  0  0  0  0
  127.7030  123.3190   60.9360 C   0  0  0  0  0  0  0  0  0  0  0  0
  128.6210  122.3860   59.7540 S   0  0  0  0  0  0  0  0  0  0  0  0
  127.4420  122.7160   58.5060 C   0  0  0  0  0  0  0  0  0  0  0  0
  127.5780  122.2480   57.2650 N   0  0  0  0  0  0  0  0  0  0  0  0
  126.5970  122.5810   56.3920 C   0  0  0  0  0  0  0  0  0  0  0  0
  126.7750  122.0450   54.9840 C   0  0  0  0  0  0  0  0  0  0  0  0
  125.4920  123.3610   56.7290 C   0  0  0  0  0  0  0  0  0  0  0  0
  125.3510  123.8500   58.0330 C   0  0  0  0  0  0  0  0  0  0  0  0
  124.1310  124.7000   58.3510 C   0  0  0  0  0  0  0  0  0  0  0  0
  126.3630  123.5230   58.9760 C   0  0  0  0  0  0  0  0  0  0  0  0
  126.5350  123.8510   60.3670 C   0  0  0  0  0  0  0  0  0  0  0  0
  125.6300  124.6180   61.0560 N   0  0  0  0  0  0  0  0  0  0  0  0
  129.4300  125.0200   64.7060 N   0  0  0  0  0  0  0  0  0  0  0  0
  1  2  1  0
  2  3  2  0
  3  4  1  0
  4  5  2  0
  5  6  1  0
  6  7  1  0
  7  8  1  0
  8  9  2  0
  8 10  1  0
 10 11  1  0
 11 12  1  0
 12 13  2  0
 13 14  1  0
 14 15  1  0
 14 16  2  0
 16 17  1  0
 17 18  1  0
 17 19  2  0
 19 20  1  0
 20 21  1  0
  6 22  2  0
 22  2  1  0
 20 10  2  0
 19 12  1  0
M  END
>  <Binding energies>  (41) 
[-7.58]

>  <Ligand effiencies>  (41) 
[-0.3032]

>  <Interactions>  (41) 
["V-B:ASP:366:CB:8183, V-B:ASP:366:CG:8184, V-B:TYR:539:C:9839, V-B:PRO:540:CA:9855, V-B:TYR:539:CE2:9848, V-B:PRO:540:N:9856, V-B:TYR:539:CE1:9847, V-B:PRO:540:CB:9857, V-B:TYR:539:CD2:9846, V-B:TYR:539:CD1:9845, H-B:TYR:539:N:9842, V-A:TYR:484:CZ:4347, V-B:GLU:543:CD:9880, H-B:ALA:541:N:9863, V-B:GLU:543:CG:9879, V-B:GLU:543:CB:9878, V-B:GLU:543:CA:9876, V-B:MET:535:CE:9807, V-B:PRO:540:CD:9859, H-B:GLU:543:OE1:9881, H-B:ASP:366:OD1:8185, V-B:LEU:363:CD1:8160, V-B:TYR:531:CE2:9765, V-B:ILE:538:CG2:9835, V-B:LEU:363:CA:8156, V-B:ILE:538:CA:9832, V-B:ILE:538:C:9830, V-B:ILE:538:CG1:9836, V-B:ILE:538:CB:9834"]

$$$$
4af_Grossjean_2025
     RDKit          3D

 21 23  0  0  0  0  0  0  0  0999 V2000
  126.7310  122.0460   54.9880 C   0  0  0  0  0  0  0  0  0  0  0  0
  126.5760  122.5800   56.4000 C   0  0  0  0  0  0  0  0  0  0  0  0
  125.4630  123.3330   56.7650 C   0  0  0  0  0  0  0  0  0  0  0  0
  125.3420  123.8170   58.0730 C   0  0  0  0  0  0  0  0  0  0  0  0
  124.1100  124.6350   58.4230 C   0  0  0  0  0  0  0  0  0  0  0  0
  126.3840  123.5130   58.9910 C   0  0  0  0  0  0  0  0  0  0  0  0
  126.5820  123.8430   60.3770 C   0  0  0  0  0  0  0  0  0  0  0  0
  125.6760  124.5870   61.0890 N   0  0  0  0  0  0  0  0  0  0  0  0
  127.7730  123.3350   60.9200 C   0  0  0  0  0  0  0  0  0  0  0  0
  128.3010  123.5020   62.2750 C   0  0  0  0  0  0  0  0  0  0  0  0
  127.6590  123.1120   63.2510 O   0  0  0  0  0  0  0  0  0  0  0  0
  129.5210  124.0880   62.3540 N   0  0  0  0  0  0  0  0  0  0  0  0
  130.2770  124.4330   63.4910 C   0  0  0  0  0  0  0  0  0  0  0  0
  129.7580  124.9660   64.6850 C   0  0  0  0  0  0  0  0  0  0  0  0
  130.6230  125.2830   65.7330 C   0  0  0  0  0  0  0  0  0  0  0  0
  131.9900  125.0620   65.5620 C   0  0  0  0  0  0  0  0  0  0  0  0
  132.5160  124.5560   64.4180 N   0  0  0  0  0  0  0  0  0  0  0  0
  131.6630  124.2540   63.4080 C   0  0  0  0  0  0  0  0  0  0  0  0
  128.6880  122.4290   59.7120 S   0  0  0  0  0  0  0  0  0  0  0  0
  127.4710  122.7330   58.4930 C   0  0  0  0  0  0  0  0  0  0  0  0
  127.5880  122.2700   57.2480 N   0  0  0  0  0  0  0  0  0  0  0  0
  1  2  1  0
  2  3  2  0
  3  4  1  0
  4  5  1  0
  4  6  2  0
  6  7  1  0
  7  8  1  0
  7  9  2  0
  9 10  1  0
 10 11  2  0
 10 12  1  0
 12 13  1  0
 13 14  2  0
 14 15  1  0
 15 16  2  0
 16 17  1  0
 17 18  2  0
  9 19  1  0
 19 20  1  0
 20 21  2  0
 21  2  1  0
 20  6  1  0
 18 13  1  0
M  END
>  <Binding energies>  (42) 
[-7.08]

>  <Ligand effiencies>  (42) 
[-0.295]

>  <Interactions>  (42) 
["V-B:ASP:366:CB:8183, V-B:ASP:366:CG:8184, V-B:TYR:539:C:9839, V-B:PRO:540:CA:9855, V-B:TYR:539:CE2:9848, V-B:PRO:540:N:9856, H-A:TYR:484:OH:4348, V-B:TYR:539:CE1:9847, V-B:PRO:540:CB:9857, V-B:TYR:539:CD2:9846, V-B:TYR:539:CD1:9845, H-B:TYR:539:N:9842, V-A:TYR:484:CZ:4347, V-B:GLU:543:CD:9880, H-B:ALA:541:N:9863, V-B:GLU:543:CG:9879, V-B:MET:535:CE:9807, V-B:PRO:540:CD:9859, H-B:GLU:543:OE1:9881, H-B:ASP:366:OD1:8185, V-B:LEU:363:CD1:8160, V-B:TYR:531:CE2:9765, V-B:ILE:538:CG2:9835, V-B:LEU:363:CA:8156, V-B:ILE:538:CA:9832, V-B:ILE:538:C:9830, V-B:ILE:538:CG1:9836, V-B:ILE:538:CB:9834"]

$$$$
4ag_Grossjean_2025
     RDKit          3D

 22 24  0  0  0  0  0  0  0  0999 V2000
  127.4520  122.4080   55.0290 C   0  0  0  0  0  0  0  0  0  0  0  0
  127.0590  122.7720   56.4490 C   0  0  0  0  0  0  0  0  0  0  0  0
  125.9070  123.5140   56.7050 C   0  0  0  0  0  0  0  0  0  0  0  0
  125.5620  123.8380   58.0220 C   0  0  0  0  0  0  0  0  0  0  0  0
  124.2960  124.6490   58.2510 C   0  0  0  0  0  0  0  0  0  0  0  0
  126.4190  123.3880   59.0620 C   0  0  0  0  0  0  0  0  0  0  0  0
  126.3690  123.5370   60.4910 C   0  0  0  0  0  0  0  0  0  0  0  0
  125.3600  124.2190   61.1230 N   0  0  0  0  0  0  0  0  0  0  0  0
  127.4390  122.9280   61.1640 C   0  0  0  0  0  0  0  0  0  0  0  0
  127.6950  122.8750   62.6030 C   0  0  0  0  0  0  0  0  0  0  0  0
  126.7720  122.7930   63.4170 O   0  0  0  0  0  0  0  0  0  0  0  0
  128.9890  122.9400   62.9790 N   0  0  0  0  0  0  0  0  0  0  0  0
  129.4760  122.8780   64.3570 C   0  0  0  0  0  0  0  0  0  0  0  0
  130.7810  123.6320   64.5870 C   0  0  0  0  0  0  0  0  0  0  0  0
  131.9140  123.3050   63.8360 C   0  0  0  0  0  0  0  0  0  0  0  0
  133.1010  124.0090   64.0270 C   0  0  0  0  0  0  0  0  0  0  0  0
  133.1480  125.0430   64.9590 C   0  0  0  0  0  0  0  0  0  0  0  0
  132.0180  125.3840   65.6990 C   0  0  0  0  0  0  0  0  0  0  0  0
  130.8310  124.6810   65.5080 C   0  0  0  0  0  0  0  0  0  0  0  0
  128.5390  122.1380   60.0350 S   0  0  0  0  0  0  0  0  0  0  0  0
  127.5670  122.6360   58.6680 C   0  0  0  0  0  0  0  0  0  0  0  0
  127.8970  122.3240   57.4140 N   0  0  0  0  0  0  0  0  0  0  0  0
  1  2  1  0
  2  3  2  0
  3  4  1  0
  4  5  1  0
  4  6  2  0
  6  7  1  0
  7  8  1  0
  7  9  2  0
  9 10  1  0
 10 11  2  0
 10 12  1  0
 12 13  1  0
 13 14  1  0
 14 15  2  0
 15 16  1  0
 16 17  2  0
 17 18  1  0
 18 19  2  0
  9 20  1  0
 20 21  1  0
 21 22  2  0
 22  2  1  0
 21  6  1  0
 19 14  1  0
M  END
>  <Binding energies>  (43) 
[-7.69]

>  <Ligand effiencies>  (43) 
[-0.30760000000000004]

>  <Interactions>  (43) 
["V-B:ASP:366:CB:8183, V-B:ASP:366:CG:8184, V-A:GLY:454:CA:4049, V-B:TYR:539:C:9839, V-B:PRO:540:C:9853, V-B:TYR:539:CZ:9849, V-B:PRO:540:CA:9855, V-B:TYR:539:CE2:9848, V-B:PRO:540:N:9856, V-B:TYR:539:CE1:9847, V-B:PRO:540:CB:9857, V-B:TYR:539:CD2:9846, V-B:TYR:539:CD1:9845, V-A:ARG:545:CZ:4926, V-B:TYR:539:CG:9844, H-B:TYR:539:N:9842, V-A:TYR:484:CZ:4347, V-B:GLU:543:CD:9880, H-B:ALA:541:N:9863, V-B:GLU:543:CG:9879, V-B:ALA:541:CB:9864, V-A:LEU:475:CD2:4259, V-A:TYR:484:CE2:4346, V-B:MET:535:CE:9807, H-B:GLU:543:OE1:9881, H-B:ASP:366:OD1:8185, V-B:LEU:363:CD1:8160, V-B:TYR:531:CE2:9765, V-B:LEU:363:CA:8156, V-B:ALA:541:CA:9862, V-B:ILE:538:CA:9832, V-B:ILE:538:C:9830"]

$$$$
4ah_Grossjean_2025
     RDKit          3D

 28 30  0  0  0  0  0  0  0  0999 V2000
  133.9710  124.3880   62.1440 C   0  0  0  0  0  0  0  0  0  0  0  0
  133.7470  123.5650   63.2830 O   0  0  0  0  0  0  0  0  0  0  0  0
  132.5950  123.7390   64.0300 C   0  0  0  0  0  0  0  0  0  0  0  0
  131.4060  123.0250   63.8140 C   0  0  0  0  0  0  0  0  0  0  0  0
  130.2810  123.2540   64.6070 C   0  0  0  0  0  0  0  0  0  0  0  0
  129.0130  122.4360   64.3890 C   0  0  0  0  0  0  0  0  0  0  0  0
  128.5170  122.4810   63.0130 N   0  0  0  0  0  0  0  0  0  0  0  0
  128.2880  123.6040   62.3020 C   0  0  0  0  0  0  0  0  0  0  0  0
  128.4430  124.7320   62.7720 O   0  0  0  0  0  0  0  0  0  0  0  0
  127.7970  123.4100   60.9380 C   0  0  0  0  0  0  0  0  0  0  0  0
  128.7640  122.5110   59.7680 S   0  0  0  0  0  0  0  0  0  0  0  0
  127.5730  122.7750   58.5140 C   0  0  0  0  0  0  0  0  0  0  0  0
  127.7290  122.2960   57.2790 N   0  0  0  0  0  0  0  0  0  0  0  0
  126.7320  122.5700   56.4040 C   0  0  0  0  0  0  0  0  0  0  0  0
  126.9320  122.0180   55.0040 C   0  0  0  0  0  0  0  0  0  0  0  0
  125.5940  123.3030   56.7300 C   0  0  0  0  0  0  0  0  0  0  0  0
  125.4330  123.8070   58.0260 C   0  0  0  0  0  0  0  0  0  0  0  0
  124.1730  124.6020   58.3350 C   0  0  0  0  0  0  0  0  0  0  0  0
  126.4590  123.5410   58.9730 C   0  0  0  0  0  0  0  0  0  0  0  0
  126.6190  123.9010   60.3560 C   0  0  0  0  0  0  0  0  0  0  0  0
  125.6880  124.6480   61.0330 N   0  0  0  0  0  0  0  0  0  0  0  0
  130.3480  124.1850   65.6450 C   0  0  0  0  0  0  0  0  0  0  0  0
  131.5220  124.9170   65.8800 C   0  0  0  0  0  0  0  0  0  0  0  0
  131.6540  125.8650   66.8800 O   0  0  0  0  0  0  0  0  0  0  0  0
  130.4990  126.2850   67.5990 C   0  0  0  0  0  0  0  0  0  0  0  0
  132.6370  124.6890   65.0610 C   0  0  0  0  0  0  0  0  0  0  0  0
  133.7990  125.3860   65.2920 O   0  0  0  0  0  0  0  0  0  0  0  0
  134.4450  125.0470   66.5110 C   0  0  0  0  0  0  0  0  0  0  0  0
  1  2  1  0
  2  3  1  0
  3  4  2  0
  4  5  1  0
  5  6  1  0
  6  7  1  0
  7  8  1  0
  8  9  2  0
  8 10  1  0
 10 11  1  0
 11 12  1  0
 12 13  2  0
 13 14  1  0
 14 15  1  0
 14 16  2  0
 16 17  1  0
 17 18  1  0
 17 19  2  0
 19 20  1  0
 20 21  1  0
  5 22  2  0
 22 23  1  0
 23 24  1  0
 24 25  1  0
 23 26  2  0
 26 27  1  0
 27 28  1  0
 26  3  1  0
 20 10  2  0
 19 12  1  0
M  END
>  <Binding energies>  (44) 
[-7.22]

>  <Ligand effiencies>  (44) 
[-0.2329032258064516]

>  <Interactions>  (44) 
["V-B:ASP:366:CB:8183, V-B:ASP:366:CG:8184, V-A:GLY:454:CA:4049, V-A:GLY:453:C:4042, V-B:TYR:539:C:9839, V-A:GLU:543:CD:4908, V-B:PRO:540:CA:9855, H-A:ARG:545:NE:4924, V-B:TYR:539:CE2:9848, H-A:GLY:454:N:4050, V-B:PRO:540:N:9856, H-A:TYR:484:OH:4348, V-B:TYR:539:CE1:9847, V-A:ILE:369:CD1:3239, V-B:PRO:540:CB:9857, V-B:TYR:539:CD2:9846, V-B:TYR:539:CD1:9845, V-A:ARG:545:CZ:4926, H-B:TYR:539:N:9842, V-A:ARG:545:CD:4923, V-A:TYR:484:CZ:4347, V-A:ARG:545:CG:4922, V-B:GLU:543:CD:9880, V-A:HIS:456:CE1:4070, V-B:GLU:543:CG:9879, V-B:ALA:541:CB:9864, V-A:LEU:475:CD2:4259, V-A:TYR:484:CE2:4346, V-B:MET:535:CE:9807, V-B:PRO:540:CD:9859, H-B:GLU:543:OE1:9881, H-B:ASP:366:OD1:8185, V-B:LEU:363:CD1:8160, V-B:TYR:531:CE2:9765, V-B:ILE:538:CG2:9835, V-B:LEU:363:CA:8156, V-A:GLY:453:CA:4044, H-A:ARG:545:NH2:4928, V-B:ALA:541:CA:9862, V-B:ILE:538:CA:9832, V-B:ILE:538:C:9830, H-A:ARG:545:NH1:4927, V-B:ILE:538:CG1:9836, V-B:ILE:538:CB:9834"]

$$$$
4ai_Grossjean_2025
     RDKit          3D

 20 22  0  0  0  0  0  0  0  0999 V2000
  127.1330  122.0500   54.9240 C   0  0  0  0  0  0  0  0  0  0  0  0
  126.8170  122.5530   56.3210 C   0  0  0  0  0  0  0  0  0  0  0  0
  125.6650  123.2950   56.5730 C   0  0  0  0  0  0  0  0  0  0  0  0
  125.3900  123.7430   57.8700 C   0  0  0  0  0  0  0  0  0  0  0  0
  124.1190  124.5470   58.0940 C   0  0  0  0  0  0  0  0  0  0  0  0
  126.3180  123.4160   58.8950 C   0  0  0  0  0  0  0  0  0  0  0  0
  126.3490  123.7060   60.3030 C   0  0  0  0  0  0  0  0  0  0  0  0
  125.3660  124.4360   60.9220 N   0  0  0  0  0  0  0  0  0  0  0  0
  127.4630  123.1730   60.9710 C   0  0  0  0  0  0  0  0  0  0  0  0
  127.8130  123.2830   62.3890 C   0  0  0  0  0  0  0  0  0  0  0  0
  127.0870  122.7950   63.2560 O   0  0  0  0  0  0  0  0  0  0  0  0
  128.9760  123.9310   62.6510 N   0  0  0  0  0  0  0  0  0  0  0  0
  129.5490  124.1680   63.8940 C   0  0  0  0  0  0  0  0  0  0  0  0
  130.0130  125.4210   64.2930 C   0  0  0  0  0  0  0  0  0  0  0  0
  130.5020  125.2340   65.5650 C   0  0  0  0  0  0  0  0  0  0  0  0
  130.3400  123.9360   65.9160 O   0  0  0  0  0  0  0  0  0  0  0  0
  129.7340  123.2700   64.8490 N   0  0  0  0  0  0  0  0  0  0  0  0
  128.5230  122.3110   59.8540 S   0  0  0  0  0  0  0  0  0  0  0  0
  127.4600  122.6510   58.5070 C   0  0  0  0  0  0  0  0  0  0  0  0
  127.7250  122.2230   57.2720 N   0  0  0  0  0  0  0  0  0  0  0  0
  1  2  1  0
  2  3  2  0
  3  4  1  0
  4  5  1  0
  4  6  2  0
  6  7  1  0
  7  8  1  0
  7  9  2  0
  9 10  1  0
 10 11  2  0
 10 12  1  0
 12 13  1  0
 13 14  1  0
 14 15  2  0
 15 16  1  0
 16 17  1  0
  9 18  1  0
 18 19  1  0
 19 20  2  0
 20  2  1  0
 19  6  1  0
 17 13  2  0
M  END
>  <Binding energies>  (45) 
[-7.15]

>  <Ligand effiencies>  (45) 
[-0.31086956521739134]

>  <Interactions>  (45) 
["V-B:ASP:366:CB:8183, V-B:ASP:366:CG:8184, V-B:TYR:539:C:9839, V-B:PRO:540:CA:9855, V-B:TYR:539:CE2:9848, V-B:PRO:540:N:9856, H-A:TYR:484:OH:4348, V-B:TYR:539:CE1:9847, V-B:PRO:540:CB:9857, V-B:TYR:539:CD2:9846, V-B:TYR:539:CD1:9845, V-B:TYR:539:CG:9844, H-B:TYR:539:N:9842, V-B:GLU:543:CD:9880, H-B:ALA:541:N:9863, V-B:GLU:543:CG:9879, V-B:ALA:541:CB:9864, V-B:MET:535:CE:9807, H-B:GLU:543:OE1:9881, H-B:ASP:366:OD1:8185, V-B:LEU:363:CD1:8160, V-B:TYR:531:CE2:9765, V-B:ILE:538:CG2:9835, V-B:LEU:363:CA:8156, V-B:ILE:538:CA:9832, V-B:ILE:538:C:9830, V-B:ILE:538:CB:9834"]

$$$$
4aj_Grossjean_2025
     RDKit          3D

 20 22  0  0  0  0  0  0  0  0999 V2000
  127.1160  122.0480   54.9520 C   0  0  0  0  0  0  0  0  0  0  0  0
  126.8150  122.5650   56.3470 C   0  0  0  0  0  0  0  0  0  0  0  0
  125.6830  123.3360   56.5970 C   0  0  0  0  0  0  0  0  0  0  0  0
  125.4270  123.8070   57.8900 C   0  0  0  0  0  0  0  0  0  0  0  0
  124.1780  124.6460   58.1110 C   0  0  0  0  0  0  0  0  0  0  0  0
  126.3530  123.4700   58.9130 C   0  0  0  0  0  0  0  0  0  0  0  0
  126.4010  123.7780   60.3180 C   0  0  0  0  0  0  0  0  0  0  0  0
  125.4390  124.5380   60.9340 N   0  0  0  0  0  0  0  0  0  0  0  0
  127.5070  123.2290   60.9840 C   0  0  0  0  0  0  0  0  0  0  0  0
  127.8710  123.3500   62.3970 C   0  0  0  0  0  0  0  0  0  0  0  0
  127.2900  122.6840   63.2560 O   0  0  0  0  0  0  0  0  0  0  0  0
  128.8780  124.2170   62.6670 N   0  0  0  0  0  0  0  0  0  0  0  0
  129.4180  124.5060   63.9120 C   0  0  0  0  0  0  0  0  0  0  0  0
  129.6770  125.6900   64.4260 N   0  0  0  0  0  0  0  0  0  0  0  0
  130.1850  125.5920   65.6390 C   0  0  0  0  0  0  0  0  0  0  0  0
  130.3500  124.3010   66.1350 C   0  0  0  0  0  0  0  0  0  0  0  0
  129.8050  123.1630   64.9380 S   0  0  0  0  0  0  0  0  0  0  0  0
  128.5350  122.3220   59.8730 S   0  0  0  0  0  0  0  0  0  0  0  0
  127.4720  122.6710   58.5280 C   0  0  0  0  0  0  0  0  0  0  0  0
  127.7190  122.2220   57.2970 N   0  0  0  0  0  0  0  0  0  0  0  0
  1  2  1  0
  2  3  2  0
  3  4  1  0
  4  5  1  0
  4  6  2  0
  6  7  1  0
  7  8  1  0
  7  9  2  0
  9 10  1  0
 10 11  2  0
 10 12  1  0
 12 13  1  0
 13 14  2  0
 14 15  1  0
 15 16  2  0
 16 17  1  0
  9 18  1  0
 18 19  1  0
 19 20  2  0
 20  2  1  0
 19  6  1  0
 17 13  1  0
M  END
>  <Binding energies>  (46) 
[-7.19]

>  <Ligand effiencies>  (46) 
[-0.3126086956521739]

>  <Interactions>  (46) 
["V-B:ASP:366:CB:8183, V-B:ASP:366:CG:8184, V-B:TYR:539:C:9839, V-A:GLU:543:CD:4908, V-B:PRO:540:CA:9855, V-B:TYR:539:CE2:9848, V-B:PRO:540:N:9856, V-B:TYR:539:CE1:9847, V-B:PRO:540:CB:9857, V-B:TYR:539:CD2:9846, V-B:TYR:539:CD1:9845, V-B:TYR:539:CG:9844, H-B:TYR:539:N:9842, V-A:TYR:484:CZ:4347, V-B:GLU:543:CD:9880, H-B:ALA:541:N:9863, V-B:GLU:543:CG:9879, V-A:TYR:484:CE2:4346, V-B:MET:535:CE:9807, H-B:GLU:543:OE1:9881, H-B:ASP:366:OD1:8185, V-B:LEU:363:CD1:8160, V-B:TYR:531:CE2:9765, V-B:ILE:538:CG2:9835, V-B:LEU:363:CA:8156, V-B:ILE:538:CA:9832, V-B:ILE:538:C:9830, V-B:ILE:538:CB:9834"]

$$$$
4ak_Grossjean_2025
     RDKit          3D

 25 26  0  0  0  0  0  0  0  0999 V2000
  129.9370  129.4820   60.3920 C   0  0  0  0  0  0  0  0  0  0  0  0
  129.6740  130.7890   60.8780 O   0  0  0  0  0  0  0  0  0  0  0  0
  129.3290  130.8210   62.2570 C   0  0  0  0  0  0  0  0  0  0  0  0
  130.2340  131.8210   62.9880 C   0  0  0  0  0  0  0  0  0  0  0  0
  131.3040  132.2000   62.1330 O   0  0  0  0  0  0  0  0  0  0  0  0
  132.5070  131.4790   62.3650 C   0  0  0  0  0  0  0  0  0  0  0  0
  133.3610  131.4960   61.0910 C   0  0  0  0  0  0  0  0  0  0  0  0
  132.5480  131.1560   59.9760 O   0  0  0  0  0  0  0  0  0  0  0  0
  133.1330  131.4740   58.7200 C   0  0  0  0  0  0  0  0  0  0  0  0
  132.0930  132.1940   57.8420 C   0  0  0  0  0  0  0  0  0  0  0  0
  130.7280  132.1080   58.3610 N   0  0  0  0  0  0  0  0  0  0  0  0
  129.6400  132.6650   57.7910 C   0  0  0  0  0  0  0  0  0  0  0  0
  129.6990  133.2980   56.7350 O   0  0  0  0  0  0  0  0  0  0  0  0
  128.3730  132.4680   58.4930 C   0  0  0  0  0  0  0  0  0  0  0  0
  127.0250  131.6650   57.6890 S   0  0  0  0  0  0  0  0  0  0  0  0
  126.0210  131.8240   59.1130 C   0  0  0  0  0  0  0  0  0  0  0  0
  124.7660  131.3760   59.1450 N   0  0  0  0  0  0  0  0  0  0  0  0
  124.0960  131.5640   60.3080 C   0  0  0  0  0  0  0  0  0  0  0  0
  122.6700  131.0460   60.3250 C   0  0  0  0  0  0  0  0  0  0  0  0
  124.6470  132.1830   61.4280 C   0  0  0  0  0  0  0  0  0  0  0  0
  125.9660  132.6530   61.3920 C   0  0  0  0  0  0  0  0  0  0  0  0
  126.5210  133.3250   62.6370 C   0  0  0  0  0  0  0  0  0  0  0  0
  126.6990  132.4740   60.1880 C   0  0  0  0  0  0  0  0  0  0  0  0
  128.0410  132.8250   59.8090 C   0  0  0  0  0  0  0  0  0  0  0  0
  128.9050  133.4550   60.6690 N   0  0  0  0  0  0  0  0  0  0  0  0
  1  2  1  0
  2  3  1  0
  3  4  1  0
  4  5  1  0
  5  6  1  0
  6  7  1  0
  7  8  1  0
  8  9  1  0
  9 10  1  0
 10 11  1  0
 11 12  1  0
 12 13  2  0
 12 14  1  0
 14 15  1  0
 15 16  1  0
 16 17  2  0
 17 18  1  0
 18 19  1  0
 18 20  2  0
 20 21  1  0
 21 22  1  0
 21 23  2  0
 23 24  1  0
 24 25  1  0
 24 14  2  0
 23 16  1  0
M  END
>  <Binding energies>  (47) 
[-5.0]

>  <Ligand effiencies>  (47) 
[-0.17857142857142858]

>  <Interactions>  (47) 
["V-B:ILE:369:CG1:8209, H-A:ALA:541:N:4891, V-B:ASP:366:CB:8183, V-B:ILE:369:CB:8207, V-A:TYR:539:CE1:4875, V-A:LEU:363:CD1:3189, V-A:TYR:539:CZ:4877, V-B:ILE:369:CG2:8208, V-A:PRO:540:CA:4883, V-B:LEU:475:CD2:9230, V-B:ASP:366:CG:8184, V-B:ASP:366:CA:8181, V-A:TYR:539:CD1:4873, V-A:ALA:541:CB:4892, V-A:PRO:540:N:4884, V-A:PRO:540:CB:4885, V-A:TYR:539:C:4867, V-A:GLU:543:CD:4908, V-A:ASP:366:CG:3213, V-A:GLU:543:CG:4907, V-A:ASN:362:CB:3176, H-A:TYR:539:N:4870, V-A:PRO:540:C:4881, V-A:LEU:363:CA:3185, V-A:ASN:362:C:3172, H-A:TYR:539:O:4868, V-A:LEU:363:CB:3187"]

$$$$
4al_Grossjean_2025
     RDKit          3D

 16 17  0  0  0  0  0  0  0  0999 V2000
  128.7500  131.3140   63.6240 C   0  0  0  0  0  0  0  0  0  0  0  0
  129.4460  132.3460   62.9420 O   0  0  0  0  0  0  0  0  0  0  0  0
  130.5960  132.0830   62.2670 C   0  0  0  0  0  0  0  0  0  0  0  0
  131.6660  131.8000   62.8120 O   0  0  0  0  0  0  0  0  0  0  0  0
  130.4360  132.1720   60.8000 C   0  0  0  0  0  0  0  0  0  0  0  0
  129.0960  133.0940   60.1130 S   0  0  0  0  0  0  0  0  0  0  0  0
  129.6110  132.7110   58.4870 C   0  0  0  0  0  0  0  0  0  0  0  0
  128.9520  133.1530   57.4160 N   0  0  0  0  0  0  0  0  0  0  0  0
  129.4560  132.7840   56.2120 C   0  0  0  0  0  0  0  0  0  0  0  0
  128.6900  133.2980   55.0060 C   0  0  0  0  0  0  0  0  0  0  0  0
  130.5910  131.9920   56.0570 C   0  0  0  0  0  0  0  0  0  0  0  0
  131.2810  131.5290   57.1820 C   0  0  0  0  0  0  0  0  0  0  0  0
  132.5140  130.6680   56.9630 C   0  0  0  0  0  0  0  0  0  0  0  0
  130.7820  131.8960   58.4620 C   0  0  0  0  0  0  0  0  0  0  0  0
  131.2300  131.6050   59.7960 C   0  0  0  0  0  0  0  0  0  0  0  0
  132.3370  130.8380   60.0520 N   0  0  0  0  0  0  0  0  0  0  0  0
  1  2  1  0
  2  3  1  0
  3  4  2  0
  3  5  1  0
  5  6  1  0
  6  7  1  0
  7  8  2  0
  8  9  1  0
  9 10  1  0
  9 11  2  0
 11 12  1  0
 12 13  1  0
 12 14  2  0
 14 15  1  0
 15 16  1  0
 15  5  2  0
 14  7  1  0
M  END
>  <Binding energies>  (48) 
[-5.87]

>  <Ligand effiencies>  (48) 
[-0.32611111111111113]

>  <Interactions>  (48) 
["H-A:ALA:541:N:4891, V-A:ILE:538:CG2:4863, V-A:TYR:539:CE2:4876, V-A:ILE:538:CB:4862, V-A:LEU:363:CD1:3189, V-A:TYR:539:CZ:4877, V-A:TYR:531:CZ:4794, V-A:TYR:531:CE2:4793, V-A:PRO:540:CA:4883, V-A:ILE:538:CA:4860, V-A:MET:535:CE:4835, V-A:ALA:541:CB:4892, V-A:PRO:540:N:4884, V-A:PRO:540:CB:4885, V-A:TYR:539:C:4867, V-A:GLU:543:CD:4908, V-A:ASP:366:CG:3213, V-A:GLU:543:CG:4907, V-A:ALA:541:CA:4890, V-A:ILE:538:C:4858, H-A:TYR:539:N:4870, V-A:PRO:540:C:4881, V-A:TYR:539:CD2:4874, H-A:GLU:543:OE1:4909, H-A:ASP:366:OD2:3215, V-A:VAL:537:C:4850"]

$$$$
4bc_Grossjean_2025
     RDKit          3D

 26 28  0  0  0  0  0  0  0  0999 V2000
  133.4880  125.4250   67.1730 C   0  0  0  0  0  0  0  0  0  0  0  0
  132.0740  125.4520   67.0090 O   0  0  0  0  0  0  0  0  0  0  0  0
  131.5290  125.0820   65.7940 C   0  0  0  0  0  0  0  0  0  0  0  0
  130.1900  125.4080   65.5880 C   0  0  0  0  0  0  0  0  0  0  0  0
  129.5540  125.0760   64.3940 C   0  0  0  0  0  0  0  0  0  0  0  0
  130.2570  124.4180   63.3840 C   0  0  0  0  0  0  0  0  0  0  0  0
  129.5290  124.1090   62.2200 N   0  0  0  0  0  0  0  0  0  0  0  0
  128.3350  123.4810   62.0970 C   0  0  0  0  0  0  0  0  0  0  0  0
  127.6940  123.0320   63.0480 O   0  0  0  0  0  0  0  0  0  0  0  0
  127.8290  123.3500   60.7270 C   0  0  0  0  0  0  0  0  0  0  0  0
  128.7260  122.4110   59.5370 S   0  0  0  0  0  0  0  0  0  0  0  0
  127.5370  122.7520   58.3030 C   0  0  0  0  0  0  0  0  0  0  0  0
  127.6610  122.2740   57.0650 N   0  0  0  0  0  0  0  0  0  0  0  0
  126.6780  122.6070   56.1980 C   0  0  0  0  0  0  0  0  0  0  0  0
  126.8360  122.0480   54.7960 C   0  0  0  0  0  0  0  0  0  0  0  0
  125.5840  123.4010   56.5340 C   0  0  0  0  0  0  0  0  0  0  0  0
  125.4480  123.9080   57.8360 C   0  0  0  0  0  0  0  0  0  0  0  0
  124.2280  124.7790   58.1580 C   0  0  0  0  0  0  0  0  0  0  0  0
  123.5760  124.3790   59.2510 F   0  0  0  0  0  0  0  0  0  0  0  0
  124.6150  126.0370   58.3610 F   0  0  0  0  0  0  0  0  0  0  0  0
  123.3660  124.7410   57.1420 F   0  0  0  0  0  0  0  0  0  0  0  0
  126.4670  123.5730   58.7770 C   0  0  0  0  0  0  0  0  0  0  0  0
  126.6630  123.8970   60.1690 C   0  0  0  0  0  0  0  0  0  0  0  0
  125.7810  124.6700   60.8800 N   0  0  0  0  0  0  0  0  0  0  0  0
  131.6020  124.0740   63.5890 C   0  0  0  0  0  0  0  0  0  0  0  0
  132.2330  124.4070   64.7840 C   0  0  0  0  0  0  0  0  0  0  0  0
  1  2  1  0
  2  3  1  0
  3  4  2  0
  4  5  1  0
  5  6  2  0
  6  7  1  0
  7  8  1  0
  8  9  2  0
  8 10  1  0
 10 11  1  0
 11 12  1  0
 12 13  2  0
 13 14  1  0
 14 15  1  0
 14 16  2  0
 16 17  1  0
 17 18  1  0
 18 19  1  0
 18 20  1  0
 18 21  1  0
 17 22  2  0
 22 23  1  0
 23 24  1  0
  6 25  1  0
 25 26  2  0
 26  3  1  0
 23 10  2  0
 22 12  1  0
M  END
>  <Binding energies>  (49) 
[-5.98]

>  <Ligand effiencies>  (49) 
[-0.20620689655172414]

>  <Interactions>  (49) 
["V-B:ASP:366:CB:8183, V-B:ASP:366:CG:8184, V-B:TYR:539:C:9839, V-B:PRO:540:CA:9855, V-B:TYR:539:CE2:9848, V-B:PRO:540:N:9856, H-A:TYR:484:OH:4348, V-B:TYR:539:CE1:9847, V-B:PRO:540:CB:9857, V-B:TYR:539:CD2:9846, V-B:TYR:539:CD1:9845, V-A:ARG:545:CZ:4926, H-B:TYR:539:N:9842, V-A:ARG:545:CD:4923, V-A:TYR:484:CZ:4347, V-A:ARG:545:CG:4922, V-B:GLU:543:CD:9880, V-A:HIS:456:CE1:4070, H-B:ALA:541:N:9863, V-B:GLU:543:CG:9879, V-B:MET:535:CE:9807, H-B:GLU:543:OE1:9881, H-B:ASP:366:OD1:8185, V-B:LEU:363:CD1:8160, V-B:TYR:531:CE2:9765, V-B:TYR:531:CZ:9766, V-B:ILE:538:CG2:9835, V-B:LEU:363:CA:8156, V-B:ASN:362:C:8143, V-B:LEU:363:CB:8158, V-B:ILE:538:CA:9832, V-B:ILE:538:C:9830, V-B:LEU:363:CG:8159, V-B:ILE:538:CG1:9836, V-B:ILE:538:CB:9834, V-B:TYR:531:CD2:9763"]

$$$$
4bf_Grossjean_2025
     RDKit          3D

 24 26  0  0  0  0  0  0  0  0999 V2000
  127.1280  122.0410   54.8870 C   0  0  0  0  0  0  0  0  0  0  0  0
  126.8870  122.5760   56.2880 C   0  0  0  0  0  0  0  0  0  0  0  0
  125.7960  123.3940   56.5660 C   0  0  0  0  0  0  0  0  0  0  0  0
  125.5880  123.8840   57.8640 C   0  0  0  0  0  0  0  0  0  0  0  0
  124.3740  124.7840   58.1220 C   0  0  0  0  0  0  0  0  0  0  0  0
  123.6490  124.3940   59.1740 F   0  0  0  0  0  0  0  0  0  0  0  0
  124.7780  126.0320   58.3560 F   0  0  0  0  0  0  0  0  0  0  0  0
  123.5700  124.7730   57.0580 F   0  0  0  0  0  0  0  0  0  0  0  0
  126.5340  123.5080   58.8640 C   0  0  0  0  0  0  0  0  0  0  0  0
  126.6490  123.8090   60.2690 C   0  0  0  0  0  0  0  0  0  0  0  0
  125.7450  124.6000   60.9320 N   0  0  0  0  0  0  0  0  0  0  0  0
  127.7610  123.2210   60.8940 C   0  0  0  0  0  0  0  0  0  0  0  0
  128.1940  123.3410   62.2900 C   0  0  0  0  0  0  0  0  0  0  0  0
  127.5390  122.8260   63.1970 O   0  0  0  0  0  0  0  0  0  0  0  0
  129.3460  124.0290   62.4820 N   0  0  0  0  0  0  0  0  0  0  0  0
  130.0000  124.3630   63.6830 C   0  0  0  0  0  0  0  0  0  0  0  0
  129.6870  123.8470   64.9530 C   0  0  0  0  0  0  0  0  0  0  0  0
  130.4070  124.2750   66.0700 C   0  0  0  0  0  0  0  0  0  0  0  0
  131.4230  125.2150   65.8900 C   0  0  0  0  0  0  0  0  0  0  0  0
  131.7400  125.7330   64.6780 N   0  0  0  0  0  0  0  0  0  0  0  0
  131.0310  125.3070   63.6010 C   0  0  0  0  0  0  0  0  0  0  0  0
  128.7070  122.2730   59.7490 S   0  0  0  0  0  0  0  0  0  0  0  0
  127.6090  122.6630   58.4460 C   0  0  0  0  0  0  0  0  0  0  0  0
  127.8020  122.2000   57.2120 N   0  0  0  0  0  0  0  0  0  0  0  0
  1  2  1  0
  2  3  2  0
  3  4  1  0
  4  5  1  0
  5  6  1  0
  5  7  1  0
  5  8  1  0
  4  9  2  0
  9 10  1  0
 10 11  1  0
 10 12  2  0
 12 13  1  0
 13 14  2  0
 13 15  1  0
 15 16  1  0
 16 17  2  0
 17 18  1  0
 18 19  2  0
 19 20  1  0
 20 21  2  0
 12 22  1  0
 22 23  1  0
 23 24  2  0
 24  2  1  0
 23  9  1  0
 21 16  1  0
M  END
>  <Binding energies>  (50) 
[-6.48]

>  <Ligand effiencies>  (50) 
[-0.24000000000000002]

>  <Interactions>  (50) 
["V-B:ASP:366:CB:8183, V-B:ASP:366:CG:8184, V-B:TYR:539:C:9839, V-B:PRO:540:CA:9855, H-A:ARG:545:NE:4924, V-B:TYR:539:CE2:9848, V-B:PRO:540:N:9856, V-B:TYR:539:CE1:9847, V-B:PRO:540:CB:9857, V-B:TYR:539:CD2:9846, V-B:TYR:539:CD1:9845, V-B:TYR:539:CG:9844, H-B:TYR:539:N:9842, V-A:TYR:484:CZ:4347, V-B:GLU:543:CD:9880, H-B:ALA:541:N:9863, V-B:GLU:543:CG:9879, V-B:GLU:543:CB:9878, V-A:TYR:484:CE2:4346, V-B:MET:535:CE:9807, H-B:GLU:543:OE1:9881, H-B:ASP:366:OD1:8185, V-B:LEU:363:CD1:8160, V-B:TYR:531:CE2:9765, V-B:TYR:531:CZ:9766, V-B:ILE:538:CG2:9835, V-B:LEU:363:CA:8156, H-A:ARG:545:NH2:4928, V-B:ASN:362:C:8143, V-B:LEU:363:CB:8158, V-B:ILE:538:CA:9832, V-B:ILE:538:C:9830, V-B:LEU:363:CG:8159, V-B:ILE:538:CB:9834, V-B:TYR:531:CD2:9763"]

$$$$
4bh_Grossjean_2025
     RDKit          3D

 31 33  0  0  0  0  0  0  0  0999 V2000
  127.8090  126.9500   69.0840 C   0  0  0  0  0  0  0  0  0  0  0  0
  128.9720  127.1480   68.2880 O   0  0  0  0  0  0  0  0  0  0  0  0
  128.8320  127.4950   66.9560 C   0  0  0  0  0  0  0  0  0  0  0  0
  128.3180  128.7240   66.5160 C   0  0  0  0  0  0  0  0  0  0  0  0
  128.2020  129.0070   65.1550 C   0  0  0  0  0  0  0  0  0  0  0  0
  127.6840  130.3650   64.6960 C   0  0  0  0  0  0  0  0  0  0  0  0
  128.1190  130.7310   63.3480 N   0  0  0  0  0  0  0  0  0  0  0  0
  129.1560  131.5430   63.0540 C   0  0  0  0  0  0  0  0  0  0  0  0
  129.8290  132.1000   63.9240 O   0  0  0  0  0  0  0  0  0  0  0  0
  129.4140  131.7660   61.6310 C   0  0  0  0  0  0  0  0  0  0  0  0
  128.2580  132.6680   60.6560 S   0  0  0  0  0  0  0  0  0  0  0  0
  129.2280  132.4400   59.2190 C   0  0  0  0  0  0  0  0  0  0  0  0
  128.8540  132.9400   58.0420 N   0  0  0  0  0  0  0  0  0  0  0  0
  129.6870  132.7000   57.0040 C   0  0  0  0  0  0  0  0  0  0  0  0
  129.2410  133.2770   55.6720 C   0  0  0  0  0  0  0  0  0  0  0  0
  130.8750  131.9820   57.1130 C   0  0  0  0  0  0  0  0  0  0  0  0
  131.2730  131.4520   58.3500 C   0  0  0  0  0  0  0  0  0  0  0  0
  132.5900  130.6710   58.4220 C   0  0  0  0  0  0  0  0  0  0  0  0
  132.4190  129.3860   58.7420 F   0  0  0  0  0  0  0  0  0  0  0  0
  133.2020  130.7090   57.2390 F   0  0  0  0  0  0  0  0  0  0  0  0
  133.3840  131.2100   59.3460 F   0  0  0  0  0  0  0  0  0  0  0  0
  130.4160  131.6840   59.4660 C   0  0  0  0  0  0  0  0  0  0  0  0
  130.4860  131.3010   60.8540 C   0  0  0  0  0  0  0  0  0  0  0  0
  131.5160  130.5550   61.3670 N   0  0  0  0  0  0  0  0  0  0  0  0
  128.6310  128.0640   64.2190 C   0  0  0  0  0  0  0  0  0  0  0  0
  129.1430  126.8230   64.6290 C   0  0  0  0  0  0  0  0  0  0  0  0
  129.5720  125.8380   63.7580 O   0  0  0  0  0  0  0  0  0  0  0  0
  130.5040  126.1710   62.7340 C   0  0  0  0  0  0  0  0  0  0  0  0
  129.2320  126.5490   66.0020 C   0  0  0  0  0  0  0  0  0  0  0  0
  129.7480  125.3440   66.4180 O   0  0  0  0  0  0  0  0  0  0  0  0
  131.1660  125.3240   66.5080 C   0  0  0  0  0  0  0  0  0  0  0  0
  1  2  1  0
  2  3  1  0
  3  4  2  0
  4  5  1  0
  5  6  1  0
  6  7  1  0
  7  8  1  0
  8  9  2  0
  8 10  1  0
 10 11  1  0
 11 12  1  0
 12 13  2  0
 13 14  1  0
 14 15  1  0
 14 16  2  0
 16 17  1  0
 17 18  1  0
 18 19  1  0
 18 20  1  0
 18 21  1  0
 17 22  2  0
 22 23  1  0
 23 24  1  0
  5 25  2  0
 25 26  1  0
 26 27  1  0
 27 28  1  0
 26 29  2  0
 29 30  1  0
 30 31  1  0
 29  3  1  0
 23 10  2  0
 22 12  1  0
M  END
>  <Binding energies>  (51) 
[-5.95]

>  <Ligand effiencies>  (51) 
[-0.17500000000000002]

>  <Interactions>  (51) 
["H-A:ALA:541:N:4891, V-A:ILE:538:CG2:4863, V-A:ILE:538:CB:4862, V-A:LEU:363:CD1:3189, V-A:TYR:531:CZ:4794, V-A:TYR:531:CE2:4793, V-A:PRO:540:CA:4883, V-A:ILE:538:CA:4860, V-A:MET:535:CE:4835, V-A:PRO:540:CB:4885, V-A:GLU:543:CD:4908, V-A:ASP:366:CB:3212, V-A:ASP:366:CG:3213, V-A:TYR:484:CZ:4347, V-B:GLU:543:CD:9880, V-B:HIS:456:CE1:9041, V-B:GLU:543:C:9874, V-A:HIS:456:CE1:4070, V-B:GLU:543:CG:9879, V-B:GLU:543:CB:9878, V-A:GLU:543:CB:4906, V-A:GLU:543:CG:4907, V-A:ILE:538:C:4858, V-A:TYR:539:CD2:4874, V-A:LEU:363:CA:3185, H-A:GLU:543:OE1:4909, V-A:LEU:363:CB:3187, H-A:ASP:366:OD2:3215"]

$$$$
4bi_Grossjean_2025
     RDKit          3D

 23 25  0  0  0  0  0  0  0  0999 V2000
  133.4790  130.9100   62.4820 C   0  0  0  0  0  0  0  0  0  0  0  0
  132.2900  131.4150   61.6840 C   0  0  0  0  0  0  0  0  0  0  0  0
  132.2570  131.3010   60.2970 C   0  0  0  0  0  0  0  0  0  0  0  0
  131.1490  131.7680   59.5710 C   0  0  0  0  0  0  0  0  0  0  0  0
  131.1530  131.6130   58.0470 C   0  0  0  0  0  0  0  0  0  0  0  0
  130.1670  130.8340   57.5980 F   0  0  0  0  0  0  0  0  0  0  0  0
  131.0120  132.8070   57.4710 F   0  0  0  0  0  0  0  0  0  0  0  0
  132.3040  131.0680   57.6520 F   0  0  0  0  0  0  0  0  0  0  0  0
  130.0840  132.3580   60.3160 C   0  0  0  0  0  0  0  0  0  0  0  0
  128.8210  132.9380   59.9300 C   0  0  0  0  0  0  0  0  0  0  0  0
  128.4130  133.0240   58.6240 N   0  0  0  0  0  0  0  0  0  0  0  0
  128.0470  133.3990   61.0080 C   0  0  0  0  0  0  0  0  0  0  0  0
  126.7330  134.0480   60.9790 C   0  0  0  0  0  0  0  0  0  0  0  0
  125.7000  133.3760   60.9630 O   0  0  0  0  0  0  0  0  0  0  0  0
  126.7530  135.4040   60.9890 N   0  0  0  0  0  0  0  0  0  0  0  0
  125.6640  136.2660   60.9790 C   0  0  0  0  0  0  0  0  0  0  0  0
  124.4230  135.9180   60.4480 C   0  0  0  0  0  0  0  0  0  0  0  0
  123.6310  137.0290   60.6290 C   0  0  0  0  0  0  0  0  0  0  0  0
  124.3590  137.9960   61.2380 O   0  0  0  0  0  0  0  0  0  0  0  0
  125.6460  137.5000   61.4540 N   0  0  0  0  0  0  0  0  0  0  0  0
  128.8790  133.1490   62.5420 S   0  0  0  0  0  0  0  0  0  0  0  0
  130.2430  132.4140   61.7340 C   0  0  0  0  0  0  0  0  0  0  0  0
  131.2970  131.9670   62.4180 N   0  0  0  0  0  0  0  0  0  0  0  0
  1  2  1  0
  2  3  2  0
  3  4  1  0
  4  5  1  0
  5  6  1  0
  5  7  1  0
  5  8  1  0
  4  9  2  0
  9 10  1  0
 10 11  1  0
 10 12  2  0
 12 13  1  0
 13 14  2  0
 13 15  1  0
 15 16  1  0
 16 17  1  0
 17 18  2  0
 18 19  1  0
 19 20  1  0
 12 21  1  0
 21 22  1  0
 22 23  2  0
 23  2  1  0
 22  9  1  0
 20 16  2  0
M  END
>  <Binding energies>  (52) 
[-6.64]

>  <Ligand effiencies>  (52) 
[-0.2553846153846154]

>  <Interactions>  (52) 
["V-A:PRO:540:CD:4887, H-A:ALA:541:N:4891, V-B:SER:385:CA:8378, V-A:TYR:539:CE1:4875, V-A:LEU:363:CD1:3189, V-A:TYR:531:CE2:4793, V-B:ILE:369:CG2:8208, V-A:PRO:540:CA:4883, V-B:LEU:475:CD2:9230, V-B:LEU:373:CD1:8251, V-B:SER:385:CB:8380, V-A:TYR:539:CD1:4873, V-A:ALA:541:CB:4892, V-A:PRO:540:N:4884, V-A:PRO:540:CB:4885, V-A:TYR:539:C:4867, V-A:GLU:543:CD:4908, V-A:ASP:366:CG:3213, V-A:ARG:545:CZ:4926, V-A:TYR:539:CG:4872, V-A:ALA:541:CA:4890, V-A:ASN:362:CB:3176, V-A:PRO:540:C:4881, V-A:ASN:362:C:3172, H-A:TYR:539:O:4868, V-B:VAL:384:C:8368, V-B:HIS:383:CD2:8363, H-B:HIS:383:NE2:8365, V-A:ASN:362:CG:3177"]

$$$$
4bj_Grossjean_2025
     RDKit          3D

 23 25  0  0  0  0  0  0  0  0999 V2000
  127.1620  122.0650   54.9350 C   0  0  0  0  0  0  0  0  0  0  0  0
  126.8810  122.5990   56.3270 C   0  0  0  0  0  0  0  0  0  0  0  0
  125.7720  123.4030   56.5770 C   0  0  0  0  0  0  0  0  0  0  0  0
  125.5280  123.8950   57.8690 C   0  0  0  0  0  0  0  0  0  0  0  0
  124.2960  124.7790   58.0950 C   0  0  0  0  0  0  0  0  0  0  0  0
  123.4850  124.8240   57.0370 F   0  0  0  0  0  0  0  0  0  0  0  0
  123.5880  124.3110   59.1230 F   0  0  0  0  0  0  0  0  0  0  0  0
  124.6810  126.0280   58.3570 F   0  0  0  0  0  0  0  0  0  0  0  0
  126.4550  123.5330   58.8910 C   0  0  0  0  0  0  0  0  0  0  0  0
  126.5350  123.8420   60.2990 C   0  0  0  0  0  0  0  0  0  0  0  0
  125.6150  124.6340   60.9370 N   0  0  0  0  0  0  0  0  0  0  0  0
  127.6310  123.2560   60.9530 C   0  0  0  0  0  0  0  0  0  0  0  0
  128.0180  123.3670   62.3610 C   0  0  0  0  0  0  0  0  0  0  0  0
  127.3700  122.7950   63.2410 O   0  0  0  0  0  0  0  0  0  0  0  0
  129.1230  124.1130   62.6050 N   0  0  0  0  0  0  0  0  0  0  0  0
  129.7040  124.3650   63.8400 C   0  0  0  0  0  0  0  0  0  0  0  0
  129.6050  123.6520   64.9410 N   0  0  0  0  0  0  0  0  0  0  0  0
  130.2950  124.1850   65.9290 C   0  0  0  0  0  0  0  0  0  0  0  0
  130.9760  125.3630   65.6380 C   0  0  0  0  0  0  0  0  0  0  0  0
  130.6880  125.7870   63.9770 S   0  0  0  0  0  0  0  0  0  0  0  0
  128.6150  122.3170   59.8340 S   0  0  0  0  0  0  0  0  0  0  0  0
  127.5480  122.6990   58.5030 C   0  0  0  0  0  0  0  0  0  0  0  0
  127.7770  122.2370   57.2750 N   0  0  0  0  0  0  0  0  0  0  0  0
  1  2  1  0
  2  3  2  0
  3  4  1  0
  4  5  1  0
  5  6  1  0
  5  7  1  0
  5  8  1  0
  4  9  2  0
  9 10  1  0
 10 11  1  0
 10 12  2  0
 12 13  1  0
 13 14  2  0
 13 15  1  0
 15 16  1  0
 16 17  2  0
 17 18  1  0
 18 19  2  0
 19 20  1  0
 12 21  1  0
 21 22  1  0
 22 23  2  0
 23  2  1  0
 22  9  1  0
 20 16  1  0
M  END
>  <Binding energies>  (53) 
[-6.46]

>  <Ligand effiencies>  (53) 
[-0.24846153846153846]

>  <Interactions>  (53) 
["V-B:ASP:366:CB:8183, V-B:ASP:366:CG:8184, V-B:TYR:539:C:9839, V-A:GLU:543:CD:4908, V-B:PRO:540:CA:9855, V-B:TYR:539:CE2:9848, V-B:PRO:540:N:9856, V-B:TYR:539:CE1:9847, V-B:PRO:540:CB:9857, V-B:TYR:539:CD2:9846, V-B:TYR:539:CD1:9845, V-B:TYR:539:CG:9844, H-B:TYR:539:N:9842, V-A:TYR:484:CZ:4347, V-B:GLU:543:CD:9880, H-B:ALA:541:N:9863, V-B:GLU:543:CG:9879, V-A:TYR:484:CE2:4346, V-B:MET:535:CE:9807, H-B:GLU:543:OE1:9881, H-B:ASP:366:OD1:8185, V-B:LEU:363:CD1:8160, V-B:TYR:531:CE2:9765, V-B:TYR:531:CZ:9766, V-B:ILE:538:CG2:9835, V-B:LEU:363:CA:8156, V-B:ASN:362:C:8143, V-B:LEU:363:CB:8158, V-B:ILE:538:CA:9832, V-B:ILE:538:C:9830, V-B:LEU:363:CG:8159, V-B:ILE:538:CB:9834, V-B:TYR:531:CD2:9763"]

$$$$
4bk_Grossjean_2025
     RDKit          3D

 28 29  0  0  0  0  0  0  0  0999 V2000
  126.1740  131.0850   56.0260 C   0  0  0  0  0  0  0  0  0  0  0  0
  127.2770  131.9250   56.3310 O   0  0  0  0  0  0  0  0  0  0  0  0
  127.5040  132.0770   57.7260 C   0  0  0  0  0  0  0  0  0  0  0  0
  128.9150  132.6340   57.9570 C   0  0  0  0  0  0  0  0  0  0  0  0
  129.3610  133.2920   56.7800 O   0  0  0  0  0  0  0  0  0  0  0  0
  130.2810  132.5300   56.0090 C   0  0  0  0  0  0  0  0  0  0  0  0
  131.7020  132.7530   56.5440 C   0  0  0  0  0  0  0  0  0  0  0  0
  131.7040  132.5870   57.9550 O   0  0  0  0  0  0  0  0  0  0  0  0
  132.6920  131.6780   58.4260 C   0  0  0  0  0  0  0  0  0  0  0  0
  132.4590  131.4010   59.9210 C   0  0  0  0  0  0  0  0  0  0  0  0
  131.1000  131.7080   60.3710 N   0  0  0  0  0  0  0  0  0  0  0  0
  130.7310  131.9160   61.6520 C   0  0  0  0  0  0  0  0  0  0  0  0
  131.5370  131.8840   62.5840 O   0  0  0  0  0  0  0  0  0  0  0  0
  129.3120  132.1950   61.8760 C   0  0  0  0  0  0  0  0  0  0  0  0
  128.5980  133.6880   61.2740 S   0  0  0  0  0  0  0  0  0  0  0  0
  127.0270  133.2370   61.8900 C   0  0  0  0  0  0  0  0  0  0  0  0
  125.9660  134.0300   61.7380 N   0  0  0  0  0  0  0  0  0  0  0  0
  124.8030  133.5720   62.2560 C   0  0  0  0  0  0  0  0  0  0  0  0
  123.6080  134.4900   62.0700 C   0  0  0  0  0  0  0  0  0  0  0  0
  124.6760  132.3530   62.9160 C   0  0  0  0  0  0  0  0  0  0  0  0
  125.7890  131.5130   63.0810 C   0  0  0  0  0  0  0  0  0  0  0  0
  125.6010  130.1830   63.8170 C   0  0  0  0  0  0  0  0  0  0  0  0
  125.6930  129.1230   63.0110 F   0  0  0  0  0  0  0  0  0  0  0  0
  126.5350  130.0520   64.7580 F   0  0  0  0  0  0  0  0  0  0  0  0
  124.3960  130.1480   64.3850 F   0  0  0  0  0  0  0  0  0  0  0  0
  127.0320  131.9660   62.5450 C   0  0  0  0  0  0  0  0  0  0  0  0
  128.3550  131.3930   62.5160 C   0  0  0  0  0  0  0  0  0  0  0  0
  128.6470  130.1730   63.0690 N   0  0  0  0  0  0  0  0  0  0  0  0
  1  2  1  0
  2  3  1  0
  3  4  1  0
  4  5  1  0
  5  6  1  0
  6  7  1  0
  7  8  1  0
  8  9  1  0
  9 10  1  0
 10 11  1  0
 11 12  1  0
 12 13  2  0
 12 14  1  0
 14 15  1  0
 15 16  1  0
 16 17  2  0
 17 18  1  0
 18 19  1  0
 18 20  2  0
 20 21  1  0
 21 22  1  0
 22 23  1  0
 22 24  1  0
 22 25  1  0
 21 26  2  0
 26 27  1  0
 27 28  1  0
 27 14  2  0
 26 16  1  0
M  END
>  <Binding energies>  (54) 
[-5.24]

>  <Ligand effiencies>  (54) 
[-0.16903225806451613]

>  <Interactions>  (54) 
["V-A:PRO:540:CD:4887, H-A:ALA:541:N:4891, V-A:ILE:538:CG2:4863, V-A:ILE:538:CB:4862, V-B:SER:385:CA:8378, V-A:TYR:539:CE1:4875, V-A:LEU:363:CD1:3189, V-A:TYR:539:CZ:4877, V-B:ILE:369:CG2:8208, V-A:PRO:540:CA:4883, V-B:LEU:475:CD2:9230, V-A:ILE:538:CA:4860, V-B:GLY:454:CA:9020, V-A:MET:535:CE:4835, V-B:SER:385:CB:8380, V-A:TYR:539:CD1:4873, V-A:PRO:540:CB:4885, V-A:TYR:539:C:4867, V-A:GLU:543:CD:4908, H-A:TYR:539:OH:4878, H-A:TYR:539:N:4870, V-A:PRO:540:C:4881, V-B:SER:385:C:8376, V-B:ARG:545:CZ:9898, H-A:GLU:543:OE1:4909, V-B:TYR:484:CZ:9318, H-A:GLU:543:OE2:4910"]

$$$$
4cd_Grossjean_2025
     RDKit          3D

 29 32  0  0  0  0  0  0  0  0999 V2000
  126.0150  127.6110   61.3790 N   0  0  0  0  0  0  0  0  0  0  0  0
  126.1020  128.6830   60.5270 C   0  0  0  0  0  0  0  0  0  0  0  0
  126.4310  128.5610   59.1670 C   0  0  0  0  0  0  0  0  0  0  0  0
  126.7510  127.3470   58.4110 C   0  0  0  0  0  0  0  0  0  0  0  0
  127.6970  127.3290   57.6240 O   0  0  0  0  0  0  0  0  0  0  0  0
  125.9460  126.2830   58.6520 N   0  0  0  0  0  0  0  0  0  0  0  0
  125.9490  125.0050   58.0640 C   0  0  0  0  0  0  0  0  0  0  0  0
  127.1920  124.3700   57.9850 C   0  0  0  0  0  0  0  0  0  0  0  0
  127.2970  123.0970   57.4320 C   0  0  0  0  0  0  0  0  0  0  0  0
  126.1550  122.4530   56.9620 C   0  0  0  0  0  0  0  0  0  0  0  0
  124.9090  123.0680   57.0470 C   0  0  0  0  0  0  0  0  0  0  0  0
  124.8000  124.3420   57.6000 C   0  0  0  0  0  0  0  0  0  0  0  0
  126.4420  130.1330   58.3720 S   0  0  0  0  0  0  0  0  0  0  0  0
  126.0180  130.9410   59.8620 C   0  0  0  0  0  0  0  0  0  0  0  0
  125.8670  132.2620   59.9180 N   0  0  0  0  0  0  0  0  0  0  0  0
  125.5500  132.8010   61.1250 C   0  0  0  0  0  0  0  0  0  0  0  0
  125.3890  134.2930   61.1570 C   0  0  0  0  0  0  0  0  0  0  0  0
  126.5010  135.1310   61.3380 C   0  0  0  0  0  0  0  0  0  0  0  0
  126.3600  136.5160   61.3690 C   0  0  0  0  0  0  0  0  0  0  0  0
  125.0990  137.0840   61.2170 C   0  0  0  0  0  0  0  0  0  0  0  0
  123.9820  136.2770   61.0330 C   0  0  0  0  0  0  0  0  0  0  0  0
  124.1280  134.8940   61.0010 C   0  0  0  0  0  0  0  0  0  0  0  0
  125.3670  132.0100   62.2620 C   0  0  0  0  0  0  0  0  0  0  0  0
  125.5190  130.6140   62.2130 C   0  0  0  0  0  0  0  0  0  0  0  0
  125.3070  129.8070   63.4990 C   0  0  0  0  0  0  0  0  0  0  0  0
  125.9890  128.6590   63.5160 F   0  0  0  0  0  0  0  0  0  0  0  0
  125.7040  130.5230   64.5520 F   0  0  0  0  0  0  0  0  0  0  0  0
  124.0160  129.5050   63.6340 F   0  0  0  0  0  0  0  0  0  0  0  0
  125.8640  130.0400   60.9570 C   0  0  0  0  0  0  0  0  0  0  0  0
  1  2  1  0
  2  3  2  0
  3  4  1  0
  4  5  2  0
  4  6  1  0
  6  7  1  0
  7  8  2  0
  8  9  1  0
  9 10  2  0
 10 11  1  0
 11 12  2  0
  3 13  1  0
 13 14  1  0
 14 15  2  0
 15 16  1  0
 16 17  1  0
 17 18  2  0
 18 19  1  0
 19 20  2  0
 20 21  1  0
 21 22  2  0
 16 23  2  0
 23 24  1  0
 24 25  1  0
 25 26  1  0
 25 27  1  0
 25 28  1  0
 24 29  2  0
 29  2  1  0
 12  7  1  0
 29 14  1  0
 22 17  1  0
M  END
>  <Binding energies>  (55) 
[-7.62]

>  <Ligand effiencies>  (55) 
[-0.238125]

>  <Interactions>  (55) 
["V-B:ASP:366:CB:8183, V-B:SER:385:CA:8378, V-A:TYR:539:CE1:4875, V-B:ILE:369:CG2:8208, V-B:LEU:475:CD2:9230, V-B:ASP:366:CG:8184, V-B:LEU:373:CD1:8251, V-B:SER:385:CB:8380, V-A:TYR:539:CD1:4873, V-B:TYR:539:C:9839, V-B:PRO:540:CA:9855, V-B:PRO:540:N:9856, V-B:PRO:540:CB:9857, V-B:GLU:543:CD:9880, V-B:MET:535:CE:9807, V-B:PRO:540:CD:9859, H-B:GLU:543:OE1:9881, H-B:ASP:366:OD1:8185, H-B:GLU:543:OE2:9882, H-B:TYR:531:OH:9767, V-B:LEU:363:CD1:8160, V-B:PRO:540:CG:9858, H-B:ASP:366:OD2:8186, V-B:TYR:531:CE2:9765, V-B:ARG:545:CZ:9898, V-B:TYR:484:CZ:9318, V-B:HIS:383:CD2:8363"]

$$$$
4cg_Grossjean_2025
     RDKit          3D

 30 33  0  0  0  0  0  0  0  0999 V2000
  128.6870  127.3150   63.6650 N   0  0  0  0  0  0  0  0  0  0  0  0
  129.0730  126.5650   64.7460 C   0  0  0  0  0  0  0  0  0  0  0  0
  129.5620  125.2550   64.6370 C   0  0  0  0  0  0  0  0  0  0  0  0
  129.8020  124.4690   63.4270 C   0  0  0  0  0  0  0  0  0  0  0  0
  130.9410  124.2890   62.9930 O   0  0  0  0  0  0  0  0  0  0  0  0
  128.7030  123.9930   62.8030 N   0  0  0  0  0  0  0  0  0  0  0  0
  128.7050  123.1680   61.5970 C   0  0  0  0  0  0  0  0  0  0  0  0
  127.4970  123.4060   60.6980 C   0  0  0  0  0  0  0  0  0  0  0  0
  126.2520  123.6870   61.2680 C   0  0  0  0  0  0  0  0  0  0  0  0
  125.1530  123.9360   60.4490 C   0  0  0  0  0  0  0  0  0  0  0  0
  125.3040  123.9120   59.0650 C   0  0  0  0  0  0  0  0  0  0  0  0
  126.5460  123.6490   58.4910 C   0  0  0  0  0  0  0  0  0  0  0  0
  127.6460  123.4020   59.3080 C   0  0  0  0  0  0  0  0  0  0  0  0
  129.9820  124.5930   66.2140 S   0  0  0  0  0  0  0  0  0  0  0  0
  129.4790  126.0650   67.0110 C   0  0  0  0  0  0  0  0  0  0  0  0
  129.5550  126.1990   68.3320 N   0  0  0  0  0  0  0  0  0  0  0  0
  129.1450  127.3810   68.8630 C   0  0  0  0  0  0  0  0  0  0  0  0
  129.2420  127.5000   70.3580 C   0  0  0  0  0  0  0  0  0  0  0  0
  130.4030  128.0030   70.9670 C   0  0  0  0  0  0  0  0  0  0  0  0
  130.4980  128.1150   72.3510 C   0  0  0  0  0  0  0  0  0  0  0  0
  129.4290  127.7220   73.1500 C   0  0  0  0  0  0  0  0  0  0  0  0
  128.2690  127.2180   72.5740 C   0  0  0  0  0  0  0  0  0  0  0  0
  128.1780  127.1080   71.1900 C   0  0  0  0  0  0  0  0  0  0  0  0
  128.6430  128.4140   68.0640 C   0  0  0  0  0  0  0  0  0  0  0  0
  128.5580  128.2830   66.6690 C   0  0  0  0  0  0  0  0  0  0  0  0
  127.9980  129.4550   65.8540 C   0  0  0  0  0  0  0  0  0  0  0  0
  128.5490  129.5600   64.6430 F   0  0  0  0  0  0  0  0  0  0  0  0
  126.6850  129.2980   65.6840 F   0  0  0  0  0  0  0  0  0  0  0  0
  128.2250  130.5990   66.4950 F   0  0  0  0  0  0  0  0  0  0  0  0
  128.9990  127.0530   66.1010 C   0  0  0  0  0  0  0  0  0  0  0  0
  1  2  1  0
  2  3  2  0
  3  4  1  0
  4  5  2  0
  4  6  1  0
  6  7  1  0
  7  8  1  0
  8  9  2  0
  9 10  1  0
 10 11  2  0
 11 12  1  0
 12 13  2  0
  3 14  1  0
 14 15  1  0
 15 16  2  0
 16 17  1  0
 17 18  1  0
 18 19  2  0
 19 20  1  0
 20 21  2  0
 21 22  1  0
 22 23  2  0
 17 24  2  0
 24 25  1  0
 25 26  1  0
 26 27  1  0
 26 28  1  0
 26 29  1  0
 25 30  2  0
 30  2  1  0
 13  8  1  0
 30 15  1  0
 23 18  1  0
M  END
>  <Binding energies>  (56) 
[-7.58]

>  <Ligand effiencies>  (56) 
[-0.2296969696969697]

>  <Interactions>  (56) 
["V-A:GLU:543:CD:4908, V-B:PRO:540:CA:9855, V-B:PRO:540:CB:9857, V-A:TYR:484:CZ:4347, V-B:GLU:543:CD:9880, V-B:HIS:456:CE1:9041, V-A:HIS:456:CE1:4070, V-B:GLU:543:CG:9879, V-A:GLU:543:C:4902, V-B:GLU:543:CB:9878, V-A:TYR:484:CE2:4346, V-A:GLU:543:CB:4906, V-A:GLY:544:C:4912, V-A:GLU:543:CA:4904, V-A:GLU:543:CG:4907, H-B:GLU:543:OE1:9881, H-B:GLU:543:OE2:9882, H-A:GLU:543:OE1:4909, V-B:TYR:484:CZ:9318, V-B:TYR:484:CE2:9317, H-A:GLU:543:OE2:4910"]

$$$$
4ch_Grossjean_2025
     RDKit          3D

 36 39  0  0  0  0  0  0  0  0999 V2000
  127.1680  122.4200   55.8200 C   0  0  0  0  0  0  0  0  0  0  0  0
  126.7610  122.0710   57.1390 O   0  0  0  0  0  0  0  0  0  0  0  0
  127.1160  122.8880   58.1970 C   0  0  0  0  0  0  0  0  0  0  0  0
  127.9390  122.4800   59.2600 C   0  0  0  0  0  0  0  0  0  0  0  0
  128.2580  123.3600   60.2960 C   0  0  0  0  0  0  0  0  0  0  0  0
  129.1300  122.8910   61.4550 C   0  0  0  0  0  0  0  0  0  0  0  0
  129.0420  123.7310   62.6500 N   0  0  0  0  0  0  0  0  0  0  0  0
  130.0780  124.3550   63.2490 C   0  0  0  0  0  0  0  0  0  0  0  0
  131.2290  124.2940   62.8140 O   0  0  0  0  0  0  0  0  0  0  0  0
  129.7510  125.1460   64.4360 C   0  0  0  0  0  0  0  0  0  0  0  0
  130.1080  124.5170   66.0410 S   0  0  0  0  0  0  0  0  0  0  0  0
  129.4870  125.9660   66.7950 C   0  0  0  0  0  0  0  0  0  0  0  0
  129.4740  126.1110   68.1170 N   0  0  0  0  0  0  0  0  0  0  0  0
  128.9770  127.2750   68.6110 C   0  0  0  0  0  0  0  0  0  0  0  0
  128.9700  127.4040   70.1080 C   0  0  0  0  0  0  0  0  0  0  0  0
  127.8710  126.9610   70.8620 C   0  0  0  0  0  0  0  0  0  0  0  0
  127.8580  127.0790   72.2500 C   0  0  0  0  0  0  0  0  0  0  0  0
  128.9470  127.6430   72.9050 C   0  0  0  0  0  0  0  0  0  0  0  0
  130.0470  128.0930   72.1820 C   0  0  0  0  0  0  0  0  0  0  0  0
  130.0550  127.9750   70.7940 C   0  0  0  0  0  0  0  0  0  0  0  0
  128.4820  128.2800   67.7750 C   0  0  0  0  0  0  0  0  0  0  0  0
  128.4900  128.1390   66.3780 C   0  0  0  0  0  0  0  0  0  0  0  0
  127.9310  129.2790   65.5200 C   0  0  0  0  0  0  0  0  0  0  0  0
  126.6390  129.1250   65.2190 F   0  0  0  0  0  0  0  0  0  0  0  0
  128.0530  130.4350   66.1710 F   0  0  0  0  0  0  0  0  0  0  0  0
  128.6020  129.3490   64.3710 F   0  0  0  0  0  0  0  0  0  0  0  0
  129.0200  126.9270   65.8490 C   0  0  0  0  0  0  0  0  0  0  0  0
  129.1950  126.4330   64.5050 C   0  0  0  0  0  0  0  0  0  0  0  0
  128.8380  127.1560   63.3950 N   0  0  0  0  0  0  0  0  0  0  0  0
  127.7400  124.6550   60.2830 C   0  0  0  0  0  0  0  0  0  0  0  0
  126.9140  125.0890   59.2330 C   0  0  0  0  0  0  0  0  0  0  0  0
  126.3670  126.3570   59.1550 O   0  0  0  0  0  0  0  0  0  0  0  0
  126.6260  127.2950   60.1940 C   0  0  0  0  0  0  0  0  0  0  0  0
  126.6150  124.1970   58.1930 C   0  0  0  0  0  0  0  0  0  0  0  0
  125.7960  124.6030   57.1680 O   0  0  0  0  0  0  0  0  0  0  0  0
  124.4110  124.5810   57.4890 C   0  0  0  0  0  0  0  0  0  0  0  0
  1  2  1  0
  2  3  1  0
  3  4  2  0
  4  5  1  0
  5  6  1  0
  6  7  1  0
  7  8  1  0
  8  9  2  0
  8 10  1  0
 10 11  1  0
 11 12  1  0
 12 13  2  0
 13 14  1  0
 14 15  1  0
 15 16  2  0
 16 17  1  0
 17 18  2  0
 18 19  1  0
 19 20  2  0
 14 21  2  0
 21 22  1  0
 22 23  1  0
 23 24  1  0
 23 25  1  0
 23 26  1  0
 22 27  2  0
 27 28  1  0
 28 29  1  0
  5 30  2  0
 30 31  1  0
 31 32  1  0
 32 33  1  0
 31 34  2  0
 34 35  1  0
 35 36  1  0
 34  3  1  0
 28 10  2  0
 27 12  1  0
 20 15  1  0
M  END
>  <Binding energies>  (57) 
[-7.39]

>  <Ligand effiencies>  (57) 
[-0.18948717948717947]

>  <Interactions>  (57) 
["V-B:ASP:366:CG:8184, V-B:TYR:539:C:9839, V-A:GLU:543:CD:4908, V-B:TYR:539:CZ:9849, V-B:PRO:540:CA:9855, V-B:TYR:539:CE2:9848, V-B:PRO:540:N:9856, V-B:TYR:539:CE1:9847, V-B:PRO:540:CB:9857, V-B:TYR:539:CD2:9846, V-B:TYR:539:CD1:9845, V-B:TYR:539:CG:9844, H-B:TYR:539:N:9842, V-A:TYR:484:CZ:4347, V-B:GLU:543:CD:9880, V-B:HIS:456:CE1:9041, V-B:GLU:543:C:9874, V-A:HIS:456:CE1:4070, V-B:GLU:543:CG:9879, V-A:GLU:543:C:4902, V-B:GLU:543:CB:9878, V-A:TYR:484:CE2:4346, V-A:GLU:543:CB:4906, V-B:HIS:456:CD2:9039, V-A:GLU:543:CG:4907, V-B:GLY:544:C:9884, V-B:MET:535:CE:9807, H-B:GLU:543:OE1:9881, H-B:GLU:543:OE2:9882, H-B:TYR:531:OH:9767, V-B:LEU:363:CD1:8160, V-B:TYR:531:CE2:9765, H-A:GLU:543:OE1:4909, V-B:TYR:484:CZ:9318, V-B:ILE:538:CA:9832, V-B:TYR:484:CE2:9317, H-A:GLU:543:OE2:4910"]

$$$$
4cj_Grossjean_2025
     RDKit          3D

 28 31  0  0  0  0  0  0  0  0999 V2000
  124.6860  130.4830   64.4920 N   0  0  0  0  0  0  0  0  0  0  0  0
  125.6000  130.5080   63.4700 C   0  0  0  0  0  0  0  0  0  0  0  0
  126.9830  130.3630   63.6720 C   0  0  0  0  0  0  0  0  0  0  0  0
  127.7060  130.1580   64.9290 C   0  0  0  0  0  0  0  0  0  0  0  0
  128.3260  131.0840   65.4590 O   0  0  0  0  0  0  0  0  0  0  0  0
  127.6450  128.9020   65.4380 N   0  0  0  0  0  0  0  0  0  0  0  0
  128.2390  128.4470   66.6080 C   0  0  0  0  0  0  0  0  0  0  0  0
  128.3040  129.0610   67.7710 N   0  0  0  0  0  0  0  0  0  0  0  0
  128.9410  128.3330   68.6670 C   0  0  0  0  0  0  0  0  0  0  0  0
  129.4090  127.0950   68.2350 C   0  0  0  0  0  0  0  0  0  0  0  0
  128.9850  126.8820   66.5620 S   0  0  0  0  0  0  0  0  0  0  0  0
  127.8600  130.4310   62.1450 S   0  0  0  0  0  0  0  0  0  0  0  0
  126.3740  130.6550   61.2520 C   0  0  0  0  0  0  0  0  0  0  0  0
  126.3740  130.7790   59.9270 N   0  0  0  0  0  0  0  0  0  0  0  0
  125.1710  130.9420   59.3180 C   0  0  0  0  0  0  0  0  0  0  0  0
  125.2040  131.0650   57.8210 C   0  0  0  0  0  0  0  0  0  0  0  0
  124.0290  130.9380   57.0640 C   0  0  0  0  0  0  0  0  0  0  0  0
  124.0540  131.0460   55.6750 C   0  0  0  0  0  0  0  0  0  0  0  0
  125.2600  131.2810   55.0230 C   0  0  0  0  0  0  0  0  0  0  0  0
  126.4380  131.4090   55.7490 C   0  0  0  0  0  0  0  0  0  0  0  0
  126.4090  131.3010   57.1370 C   0  0  0  0  0  0  0  0  0  0  0  0
  123.9770  131.0040   60.0450 C   0  0  0  0  0  0  0  0  0  0  0  0
  123.9670  130.8760   61.4430 C   0  0  0  0  0  0  0  0  0  0  0  0
  122.6230  130.9500   62.1770 C   0  0  0  0  0  0  0  0  0  0  0  0
  122.5060  130.0450   63.1500 F   0  0  0  0  0  0  0  0  0  0  0  0
  122.4790  132.1540   62.7320 F   0  0  0  0  0  0  0  0  0  0  0  0
  121.6260  130.7420   61.3160 F   0  0  0  0  0  0  0  0  0  0  0  0
  125.2210  130.6860   62.0900 C   0  0  0  0  0  0  0  0  0  0  0  0
  1  2  1  0
  2  3  2  0
  3  4  1  0
  4  5  2  0
  4  6  1  0
  6  7  1  0
  7  8  2  0
  8  9  1  0
  9 10  2  0
 10 11  1  0
  3 12  1  0
 12 13  1  0
 13 14  2  0
 14 15  1  0
 15 16  1  0
 16 17  2  0
 17 18  1  0
 18 19  2  0
 19 20  1  0
 20 21  2  0
 15 22  2  0
 22 23  1  0
 23 24  1  0
 24 25  1  0
 24 26  1  0
 24 27  1  0
 23 28  2  0
 28  2  1  0
 11  7  1  0
 28 13  1  0
 21 16  1  0
M  END
>  <Binding energies>  (58) 
[-6.84]

>  <Ligand effiencies>  (58) 
[-0.22064516129032258]

>  <Interactions>  (58) 
["V-B:ILE:369:CG1:8209, V-B:GLY:453:C:9013, V-B:ASP:366:CB:8183, V-B:ILE:369:CB:8207, V-A:TYR:539:CE1:4875, V-A:TYR:539:CZ:4877, V-B:ILE:369:CG2:8208, V-B:ASP:366:CG:8184, V-B:GLY:454:CA:9020, V-A:MET:535:CE:4835, V-B:ASP:366:CA:8181, V-B:GLY:453:CA:9015, V-A:GLU:543:CD:4908, V-B:GLU:543:CD:9880, V-B:HIS:456:CE1:9041, V-A:HIS:456:CE1:4070, V-B:GLU:543:CG:9879, V-B:GLU:543:CB:9878, V-A:GLU:543:CB:4906, V-A:GLU:543:CG:4907, H-B:GLU:543:OE1:9881, H-B:GLU:543:OE2:9882, V-B:ASP:366:C:8179, V-B:TYR:531:CZ:9766, V-B:TYR:531:CE1:9764, V-B:ARG:545:CZ:9898, H-B:TYR:484:OH:9319, V-B:ASN:370:CB:8216, V-B:TYR:484:CZ:9318, V-B:ASN:370:CA:8214, V-B:CYS:365:C:8175"]

$$$$
4ck_Grossjean_2025
     RDKit          3D

 33 35  0  0  0  0  0  0  0  0999 V2000
  123.8340  131.1170   58.9720 C   0  0  0  0  0  0  0  0  0  0  0  0
  123.7570  131.5740   57.6300 O   0  0  0  0  0  0  0  0  0  0  0  0
  124.7710  131.0400   56.7920 C   0  0  0  0  0  0  0  0  0  0  0  0
  126.1170  131.1130   57.5260 C   0  0  0  0  0  0  0  0  0  0  0  0
  127.0620  131.7720   56.6950 O   0  0  0  0  0  0  0  0  0  0  0  0
  128.1360  132.3620   57.4160 C   0  0  0  0  0  0  0  0  0  0  0  0
  128.9260  133.2840   56.4780 C   0  0  0  0  0  0  0  0  0  0  0  0
  130.1200  132.6220   56.0850 O   0  0  0  0  0  0  0  0  0  0  0  0
  131.3080  133.2980   56.4780 C   0  0  0  0  0  0  0  0  0  0  0  0
  131.9960  132.5160   57.6070 C   0  0  0  0  0  0  0  0  0  0  0  0
  131.2950  131.2700   57.9210 N   0  0  0  0  0  0  0  0  0  0  0  0
  131.3450  130.6100   59.0960 C   0  0  0  0  0  0  0  0  0  0  0  0
  131.9870  131.0210   60.0640 O   0  0  0  0  0  0  0  0  0  0  0  0
  130.5750  129.3680   59.1650 C   0  0  0  0  0  0  0  0  0  0  0  0
  129.6040  128.8520   57.7870 S   0  0  0  0  0  0  0  0  0  0  0  0
  129.1230  127.3920   58.6190 C   0  0  0  0  0  0  0  0  0  0  0  0
  128.3150  126.5020   58.0490 N   0  0  0  0  0  0  0  0  0  0  0  0
  127.9940  125.3980   58.7730 C   0  0  0  0  0  0  0  0  0  0  0  0
  127.0960  124.4050   58.0940 C   0  0  0  0  0  0  0  0  0  0  0  0
  125.7000  124.4910   58.2240 C   0  0  0  0  0  0  0  0  0  0  0  0
  124.8610  123.5720   57.5980 C   0  0  0  0  0  0  0  0  0  0  0  0
  125.4080  122.5490   56.8310 C   0  0  0  0  0  0  0  0  0  0  0  0
  126.7870  122.4430   56.6820 C   0  0  0  0  0  0  0  0  0  0  0  0
  127.6220  123.3660   57.3070 C   0  0  0  0  0  0  0  0  0  0  0  0
  128.4940  125.1890   60.0620 C   0  0  0  0  0  0  0  0  0  0  0  0
  129.3460  126.1220   60.6740 C   0  0  0  0  0  0  0  0  0  0  0  0
  129.8540  125.8320   62.0920 C   0  0  0  0  0  0  0  0  0  0  0  0
  129.4460  126.7310   62.9880 F   0  0  0  0  0  0  0  0  0  0  0  0
  129.4160  124.6400   62.4920 F   0  0  0  0  0  0  0  0  0  0  0  0
  131.1880  125.8370   62.1010 F   0  0  0  0  0  0  0  0  0  0  0  0
  129.6870  127.2850   59.9240 C   0  0  0  0  0  0  0  0  0  0  0  0
  130.5210  128.4280   60.2060 C   0  0  0  0  0  0  0  0  0  0  0  0
  131.1960  128.5820   61.3900 N   0  0  0  0  0  0  0  0  0  0  0  0
  1  2  1  0
  2  3  1  0
  3  4  1  0
  4  5  1  0
  5  6  1  0
  6  7  1  0
  7  8  1  0
  8  9  1  0
  9 10  1  0
 10 11  1  0
 11 12  1  0
 12 13  2  0
 12 14  1  0
 14 15  1  0
 15 16  1  0
 16 17  2  0
 17 18  1  0
 18 19  1  0
 19 20  2  0
 20 21  1  0
 21 22  2  0
 22 23  1  0
 23 24  2  0
 18 25  2  0
 25 26  1  0
 26 27  1  0
 27 28  1  0
 27 29  1  0
 27 30  1  0
 26 31  2  0
 31 32  1  0
 32 33  1  0
 32 14  2  0
 31 16  1  0
 24 19  1  0
M  END
>  <Binding energies>  (59) 
[-5.64]

>  <Ligand effiencies>  (59) 
[-0.15666666666666665]

>  <Interactions>  (59) 
["V-A:TYR:539:CA:4869, V-A:PRO:540:CD:4887, V-A:ILE:538:CG2:4863, V-A:TYR:539:CE2:4876, H-A:TYR:531:OH:4795, V-A:ILE:538:CB:4862, V-B:ASP:366:CB:8183, V-B:ILE:369:CB:8207, V-A:TYR:539:CE1:4875, V-A:LEU:363:CD1:3189, V-A:TYR:539:CZ:4877, V-B:ILE:369:CG2:8208, V-A:PRO:540:CA:4883, V-B:ASP:366:CG:8184, V-A:ILE:538:CA:4860, V-B:ASP:366:CA:8181, V-A:TYR:539:CD1:4873, V-A:PRO:540:N:4884, V-A:PRO:540:CB:4885, V-B:TYR:539:C:9839, V-A:GLU:543:CD:4908, V-B:TYR:539:CZ:9849, V-B:PRO:540:CA:9855, V-B:TYR:539:CE2:9848, V-B:PRO:540:N:9856, V-B:TYR:539:CE1:9847, V-A:ASP:366:CG:3213, V-B:PRO:540:CB:9857, V-B:TYR:539:CD1:9845, V-A:TYR:539:CG:4872, V-B:GLU:543:CD:9880, V-B:MET:535:CE:9807, V-B:PRO:540:CD:9859, H-A:TYR:539:OH:4878, V-A:ILE:538:C:4858, V-B:LEU:363:CD1:8160, V-B:PRO:540:CG:9858, H-A:TYR:539:N:4870, V-B:TYR:531:CZ:9766, V-A:TYR:539:CD2:4874, V-B:TYR:531:CE1:9764, V-A:PRO:540:CG:4886, H-A:GLU:543:OE1:4909, H-A:ASP:366:OD2:3215"]

$$$$
4dd_Grossjean_2025
     RDKit          3D

 26 29  0  0  0  0  0  0  0  0999 V2000
  125.1490  129.5280   63.7550 C   0  0  0  0  0  0  0  0  0  0  0  0
  125.4050  130.3160   62.4790 C   0  0  0  0  0  0  0  0  0  0  0  0
  125.2200  131.7030   62.5120 C   0  0  0  0  0  0  0  0  0  0  0  0
  125.4390  132.4850   61.3710 C   0  0  0  0  0  0  0  0  0  0  0  0
  125.2430  133.9730   61.3750 C   0  0  0  0  0  0  0  0  0  0  0  0
  123.9540  134.5290   61.3950 C   0  0  0  0  0  0  0  0  0  0  0  0
  123.7650  135.9080   61.4020 C   0  0  0  0  0  0  0  0  0  0  0  0
  124.8680  136.7550   61.3870 C   0  0  0  0  0  0  0  0  0  0  0  0
  126.1560  136.2320   61.3690 C   0  0  0  0  0  0  0  0  0  0  0  0
  126.3410  134.8510   61.3650 C   0  0  0  0  0  0  0  0  0  0  0  0
  125.8260  131.9360   60.1870 N   0  0  0  0  0  0  0  0  0  0  0  0
  126.0090  130.6170   60.1570 C   0  0  0  0  0  0  0  0  0  0  0  0
  126.5230  129.7850   58.7070 S   0  0  0  0  0  0  0  0  0  0  0  0
  126.5030  128.2270   59.5370 C   0  0  0  0  0  0  0  0  0  0  0  0
  126.8820  127.0040   58.8280 C   0  0  0  0  0  0  0  0  0  0  0  0
  128.0320  126.8490   58.4150 O   0  0  0  0  0  0  0  0  0  0  0  0
  125.8930  126.0890   58.6790 N   0  0  0  0  0  0  0  0  0  0  0  0
  125.9100  124.8520   58.0100 C   0  0  0  0  0  0  0  0  0  0  0  0
  127.1650  124.2520   57.8660 C   0  0  0  0  0  0  0  0  0  0  0  0
  127.2850  123.0190   57.2300 C   0  0  0  0  0  0  0  0  0  0  0  0
  126.1470  122.3800   56.7450 C   0  0  0  0  0  0  0  0  0  0  0  0
  124.8900  122.9590   56.8930 C   0  0  0  0  0  0  0  0  0  0  0  0
  124.7670  124.1930   57.5270 C   0  0  0  0  0  0  0  0  0  0  0  0
  126.1070  128.3740   60.8760 C   0  0  0  0  0  0  0  0  0  0  0  0
  125.9970  127.3280   61.7590 N   0  0  0  0  0  0  0  0  0  0  0  0
  125.8210  129.7320   61.2550 C   0  0  0  0  0  0  0  0  0  0  0  0
  1  2  1  0
  2  3  2  0
  3  4  1  0
  4  5  1  0
  5  6  2  0
  6  7  1  0
  7  8  2  0
  8  9  1  0
  9 10  2  0
  4 11  2  0
 11 12  1  0
 12 13  1  0
 13 14  1  0
 14 15  1  0
 15 16  2  0
 15 17  1  0
 17 18  1  0
 18 19  2  0
 19 20  1  0
 20 21  2  0
 21 22  1  0
 22 23  2  0
 14 24  2  0
 24 25  1  0
 24 26  1  0
 26  2  1  0
 10  5  1  0
 26 12  2  0
 23 18  1  0
M  END
>  <Binding energies>  (60) 
[-8.14]

>  <Ligand effiencies>  (60) 
[-0.2806896551724138]

>  <Interactions>  (60) 
["V-B:ASP:366:CB:8183, V-B:SER:385:CA:8378, V-A:TYR:539:CE1:4875, V-B:ILE:369:CG2:8208, V-B:LEU:475:CD2:9230, V-B:ASP:366:CG:8184, V-B:SER:385:CB:8380, V-A:TYR:539:CD1:4873, V-B:TYR:539:C:9839, V-B:PRO:540:CA:9855, V-B:PRO:540:N:9856, V-B:PRO:540:CB:9857, V-B:GLU:543:CD:9880, V-B:MET:535:CE:9807, V-B:PRO:540:CD:9859, H-B:GLU:543:OE1:9881, H-B:ASP:366:OD1:8185, H-B:GLU:543:OE2:9882, H-B:TYR:531:OH:9767, V-B:LEU:363:CD1:8160, V-B:PRO:540:CG:9858, H-B:ASP:366:OD2:8186, V-B:TYR:531:CE2:9765, V-B:SER:385:C:8376, V-B:ARG:545:CZ:9898"]

$$$$
4dg_Grossjean_2025
     RDKit          3D

 27 30  0  0  0  0  0  0  0  0999 V2000
  127.9810  129.5020   65.8920 C   0  0  0  0  0  0  0  0  0  0  0  0
  128.5480  128.3380   66.6900 C   0  0  0  0  0  0  0  0  0  0  0  0
  128.6180  128.4630   68.0820 C   0  0  0  0  0  0  0  0  0  0  0  0
  129.1300  127.4280   68.8730 C   0  0  0  0  0  0  0  0  0  0  0  0
  129.2160  127.5330   70.3700 C   0  0  0  0  0  0  0  0  0  0  0  0
  128.1000  127.2600   71.1780 C   0  0  0  0  0  0  0  0  0  0  0  0
  128.1740  127.3610   72.5650 C   0  0  0  0  0  0  0  0  0  0  0  0
  129.3700  127.7360   73.1670 C   0  0  0  0  0  0  0  0  0  0  0  0
  130.4910  128.0160   72.3910 C   0  0  0  0  0  0  0  0  0  0  0  0
  130.4120  127.9150   71.0050 C   0  0  0  0  0  0  0  0  0  0  0  0
  129.5600  126.2560   68.3320 N   0  0  0  0  0  0  0  0  0  0  0  0
  129.4950  126.1350   67.0060 C   0  0  0  0  0  0  0  0  0  0  0  0
  130.0210  124.6860   66.1820 S   0  0  0  0  0  0  0  0  0  0  0  0
  129.5960  125.3710   64.6140 C   0  0  0  0  0  0  0  0  0  0  0  0
  129.8470  124.6140   63.3890 C   0  0  0  0  0  0  0  0  0  0  0  0
  130.9910  124.4340   62.9680 O   0  0  0  0  0  0  0  0  0  0  0  0
  128.7530  124.1650   62.7390 N   0  0  0  0  0  0  0  0  0  0  0  0
  128.7640  123.3710   61.5110 C   0  0  0  0  0  0  0  0  0  0  0  0
  127.5040  123.5380   60.6700 C   0  0  0  0  0  0  0  0  0  0  0  0
  126.2720  123.7430   61.2980 C   0  0  0  0  0  0  0  0  0  0  0  0
  125.1240  123.9270   60.5330 C   0  0  0  0  0  0  0  0  0  0  0  0
  125.2130  123.9180   59.1420 C   0  0  0  0  0  0  0  0  0  0  0  0
  126.4400  123.7320   58.5090 C   0  0  0  0  0  0  0  0  0  0  0  0
  127.5880  123.5480   59.2750 C   0  0  0  0  0  0  0  0  0  0  0  0
  129.0860  126.6710   64.7470 C   0  0  0  0  0  0  0  0  0  0  0  0
  128.6870  127.4470   63.6880 N   0  0  0  0  0  0  0  0  0  0  0  0
  129.0070  127.1270   66.1090 C   0  0  0  0  0  0  0  0  0  0  0  0
  1  2  1  0
  2  3  2  0
  3  4  1  0
  4  5  1  0
  5  6  2  0
  6  7  1  0
  7  8  2  0
  8  9  1  0
  9 10  2  0
  4 11  2  0
 11 12  1  0
 12 13  1  0
 13 14  1  0
 14 15  1  0
 15 16  2  0
 15 17  1  0
 17 18  1  0
 18 19  1  0
 19 20  2  0
 20 21  1  0
 21 22  2  0
 22 23  1  0
 23 24  2  0
 14 25  2  0
 25 26  1  0
 25 27  1  0
 27  2  1  0
 10  5  1  0
 27 12  2  0
 24 19  1  0
M  END
>  <Binding energies>  (61) 
[-7.8]

>  <Ligand effiencies>  (61) 
[-0.26]

>  <Interactions>  (61) 
["V-A:GLU:543:CD:4908, V-B:PRO:540:CA:9855, V-B:PRO:540:CB:9857, V-A:TYR:484:CZ:4347, V-B:GLU:543:CD:9880, V-B:HIS:456:CE1:9041, V-A:HIS:456:CE1:4070, V-B:GLU:543:CG:9879, V-A:GLU:543:C:4902, V-B:GLU:543:CB:9878, V-A:TYR:484:CE2:4346, V-A:GLU:543:CB:4906, V-B:HIS:456:CD2:9039, V-A:GLY:544:C:4912, V-A:GLU:543:CG:4907, H-B:GLU:543:OE1:9881, H-B:GLU:543:OE2:9882, H-A:GLU:543:OE1:4909, H-A:GLU:543:OE2:4910"]

$$$$
4dj_Grossjean_2025
     RDKit          3D

 25 28  0  0  0  0  0  0  0  0999 V2000
  125.2850  129.4980   63.7440 C   0  0  0  0  0  0  0  0  0  0  0  0
  125.4940  130.2810   62.4570 C   0  0  0  0  0  0  0  0  0  0  0  0
  125.3260  131.6700   62.4950 C   0  0  0  0  0  0  0  0  0  0  0  0
  125.5020  132.4480   61.3440 C   0  0  0  0  0  0  0  0  0  0  0  0
  125.3330  133.9410   61.3560 C   0  0  0  0  0  0  0  0  0  0  0  0
  126.4510  134.7920   61.3640 C   0  0  0  0  0  0  0  0  0  0  0  0
  126.3020  136.1760   61.3760 C   0  0  0  0  0  0  0  0  0  0  0  0
  125.0270  136.7320   61.3830 C   0  0  0  0  0  0  0  0  0  0  0  0
  123.9030  135.9140   61.3790 C   0  0  0  0  0  0  0  0  0  0  0  0
  124.0560  134.5310   61.3660 C   0  0  0  0  0  0  0  0  0  0  0  0
  125.8580  131.8970   60.1520 N   0  0  0  0  0  0  0  0  0  0  0  0
  126.0180  130.5750   60.1140 C   0  0  0  0  0  0  0  0  0  0  0  0
  126.4660  129.7350   58.6460 S   0  0  0  0  0  0  0  0  0  0  0  0
  126.4470  128.1770   59.4750 C   0  0  0  0  0  0  0  0  0  0  0  0
  126.7540  126.9470   58.7440 C   0  0  0  0  0  0  0  0  0  0  0  0
  127.8640  126.7780   58.2320 O   0  0  0  0  0  0  0  0  0  0  0  0
  125.7460  126.0440   58.6730 N   0  0  0  0  0  0  0  0  0  0  0  0
  125.7750  124.8080   58.0410 C   0  0  0  0  0  0  0  0  0  0  0  0
  124.8410  124.2610   57.2930 N   0  0  0  0  0  0  0  0  0  0  0  0
  125.2070  123.0730   56.8520 C   0  0  0  0  0  0  0  0  0  0  0  0
  126.4670  122.6330   57.2440 C   0  0  0  0  0  0  0  0  0  0  0  0
  127.2050  123.8480   58.2440 S   0  0  0  0  0  0  0  0  0  0  0  0
  126.1020  128.3290   60.8270 C   0  0  0  0  0  0  0  0  0  0  0  0
  126.0070  127.2830   61.7110 N   0  0  0  0  0  0  0  0  0  0  0  0
  125.8540  129.6900   61.2180 C   0  0  0  0  0  0  0  0  0  0  0  0
  1  2  1  0
  2  3  2  0
  3  4  1  0
  4  5  1  0
  5  6  2  0
  6  7  1  0
  7  8  2  0
  8  9  1  0
  9 10  2  0
  4 11  2  0
 11 12  1  0
 12 13  1  0
 13 14  1  0
 14 15  1  0
 15 16  2  0
 15 17  1  0
 17 18  1  0
 18 19  2  0
 19 20  1  0
 20 21  2  0
 21 22  1  0
 14 23  2  0
 23 24  1  0
 23 25  1  0
 25  2  1  0
 10  5  1  0
 25 12  2  0
 22 18  1  0
M  END
>  <Binding energies>  (62) 
[-7.33]

>  <Ligand effiencies>  (62) 
[-0.2617857142857143]

>  <Interactions>  (62) 
["V-B:ASP:366:CB:8183, V-B:SER:385:CA:8378, V-A:TYR:539:CE1:4875, V-B:ILE:369:CG2:8208, V-B:LEU:475:CD2:9230, V-B:ASP:366:CG:8184, V-B:SER:385:CB:8380, V-A:TYR:539:CD1:4873, V-B:TYR:539:C:9839, V-B:PRO:540:CA:9855, V-B:PRO:540:N:9856, V-B:PRO:540:CB:9857, V-B:GLU:543:CD:9880, V-B:MET:535:CE:9807, V-B:PRO:540:CD:9859, H-B:GLU:543:OE1:9881, H-B:ASP:366:OD1:8185, H-B:GLU:543:OE2:9882, H-B:TYR:531:OH:9767, V-B:LEU:363:CD1:8160, H-B:ASP:366:OD2:8186, V-B:ARG:545:CZ:9898"]

$$$$
4ea_Grossjean_2025
     RDKit          3D

 31 34  0  0  0  0  0  0  0  0999 V2000
  131.1070  132.0020   55.7210 C   0  0  0  0  0  0  0  0  0  0  0  0
  131.8650  132.8810   56.7200 C   0  0  0  0  0  0  0  0  0  0  0  0
  130.9370  133.6660   57.4580 O   0  0  0  0  0  0  0  0  0  0  0  0
  129.6490  133.2670   57.6160 C   0  0  0  0  0  0  0  0  0  0  0  0
  128.7600  133.4990   56.7900 O   0  0  0  0  0  0  0  0  0  0  0  0
  129.4130  132.5160   58.8940 C   0  0  0  0  0  0  0  0  0  0  0  0
  130.3300  131.5320   59.2870 C   0  0  0  0  0  0  0  0  0  0  0  0
  130.1400  130.8180   60.4670 C   0  0  0  0  0  0  0  0  0  0  0  0
  129.0320  131.0710   61.2770 C   0  0  0  0  0  0  0  0  0  0  0  0
  128.9430  130.2890   62.4450 N   0  0  0  0  0  0  0  0  0  0  0  0
  127.9070  129.5730   62.9450 C   0  0  0  0  0  0  0  0  0  0  0  0
  126.7990  129.4910   62.4140 O   0  0  0  0  0  0  0  0  0  0  0  0
  128.1820  128.8720   64.2030 C   0  0  0  0  0  0  0  0  0  0  0  0
  127.5710  129.5070   65.7320 S   0  0  0  0  0  0  0  0  0  0  0  0
  128.2900  128.1870   66.6240 C   0  0  0  0  0  0  0  0  0  0  0  0
  128.1740  128.0860   67.9490 N   0  0  0  0  0  0  0  0  0  0  0  0
  128.7780  127.0150   68.5200 C   0  0  0  0  0  0  0  0  0  0  0  0
  128.6350  126.9190   70.0280 C   0  0  0  0  0  0  0  0  0  0  0  0
  129.4870  126.0520   67.8050 C   0  0  0  0  0  0  0  0  0  0  0  0
  129.6060  126.1620   66.4150 C   0  0  0  0  0  0  0  0  0  0  0  0
  130.3630  125.1320   65.6690 C   0  0  0  0  0  0  0  0  0  0  0  0
  131.6370  125.4190   65.1700 C   0  0  0  0  0  0  0  0  0  0  0  0
  132.3510  124.4490   64.4700 C   0  0  0  0  0  0  0  0  0  0  0  0
  131.7860  123.1920   64.2650 C   0  0  0  0  0  0  0  0  0  0  0  0
  130.5160  122.8970   64.7540 C   0  0  0  0  0  0  0  0  0  0  0  0
  129.8040  123.8680   65.4530 C   0  0  0  0  0  0  0  0  0  0  0  0
  128.9860  127.2720   65.7780 C   0  0  0  0  0  0  0  0  0  0  0  0
  128.9090  127.6870   64.4010 C   0  0  0  0  0  0  0  0  0  0  0  0
  129.4990  126.9750   63.3880 N   0  0  0  0  0  0  0  0  0  0  0  0
  128.1090  132.0550   60.8910 C   0  0  0  0  0  0  0  0  0  0  0  0
  128.3000  132.7680   59.7110 C   0  0  0  0  0  0  0  0  0  0  0  0
  1  2  1  0
  2  3  1  0
  3  4  1  0
  4  5  2  0
  4  6  1  0
  6  7  2  0
  7  8  1  0
  8  9  2  0
  9 10  1  0
 10 11  1  0
 11 12  2  0
 11 13  1  0
 13 14  1  0
 14 15  1  0
 15 16  2  0
 16 17  1  0
 17 18  1  0
 17 19  2  0
 19 20  1  0
 20 21  1  0
 21 22  2  0
 22 23  1  0
 23 24  2  0
 24 25  1  0
 25 26  2  0
 20 27  2  0
 27 28  1  0
 28 29  1  0
  9 30  1  0
 30 31  2  0
 31  6  1  0
 28 13  2  0
 27 15  1  0
 26 21  1  0
M  END
>  <Binding energies>  (63) 
[-8.6]

>  <Ligand effiencies>  (63) 
[-0.2529411764705882]

>  <Interactions>  (63) 
["V-A:TYR:539:CA:4869, V-A:PRO:540:CD:4887, V-A:ILE:538:CG2:4863, V-A:ILE:538:CB:4862, V-A:TYR:539:CE1:4875, V-A:LEU:363:CD1:3189, V-A:PRO:540:CA:4883, V-A:MET:535:CE:4835, V-A:TYR:539:CD1:4873, V-A:PRO:540:N:4884, V-A:PRO:540:CB:4885, V-A:TYR:539:C:4867, V-A:GLU:543:CD:4908, V-A:TYR:484:CZ:4347, V-B:GLU:543:CD:9880, V-B:HIS:456:CE1:9041, V-B:GLU:543:C:9874, V-A:HIS:456:CE1:4070, V-B:GLU:543:CG:9879, V-B:GLU:543:CB:9878, V-A:LEU:475:CD2:4259, V-A:TYR:484:CE2:4346, V-A:GLU:543:CB:4906, V-A:GLU:543:CG:4907, H-B:GLU:543:OE1:9881, H-A:TYR:539:N:4870, H-A:GLU:543:OE1:4909, V-B:TYR:484:CZ:9318, H-A:GLU:543:OE2:4910"]

$$$$
4eb_Grossjean_2025
     RDKit          3D

 30 33  0  0  0  0  0  0  0  0999 V2000
  131.5300  132.5040   56.3600 C   0  0  0  0  0  0  0  0  0  0  0  0
  130.9020  133.3700   57.2940 O   0  0  0  0  0  0  0  0  0  0  0  0
  129.5880  133.2240   57.6080 C   0  0  0  0  0  0  0  0  0  0  0  0
  128.6700  133.6620   56.9090 O   0  0  0  0  0  0  0  0  0  0  0  0
  129.3640  132.4770   58.8910 C   0  0  0  0  0  0  0  0  0  0  0  0
  130.2890  131.5000   59.2840 C   0  0  0  0  0  0  0  0  0  0  0  0
  130.1090  130.7910   60.4670 C   0  0  0  0  0  0  0  0  0  0  0  0
  129.0040  131.0410   61.2820 C   0  0  0  0  0  0  0  0  0  0  0  0
  128.9260  130.2640   62.4550 N   0  0  0  0  0  0  0  0  0  0  0  0
  127.8680  129.6330   63.0200 C   0  0  0  0  0  0  0  0  0  0  0  0
  126.7260  129.6450   62.5600 O   0  0  0  0  0  0  0  0  0  0  0  0
  128.1620  128.9070   64.2580 C   0  0  0  0  0  0  0  0  0  0  0  0
  127.5800  129.5150   65.8100 S   0  0  0  0  0  0  0  0  0  0  0  0
  128.3090  128.1740   66.6640 C   0  0  0  0  0  0  0  0  0  0  0  0
  128.2160  128.0480   67.9890 N   0  0  0  0  0  0  0  0  0  0  0  0
  128.8240  126.9650   68.5280 C   0  0  0  0  0  0  0  0  0  0  0  0
  128.7060  126.8410   70.0370 C   0  0  0  0  0  0  0  0  0  0  0  0
  129.5170  126.0130   67.7830 C   0  0  0  0  0  0  0  0  0  0  0  0
  129.6120  126.1490   66.3930 C   0  0  0  0  0  0  0  0  0  0  0  0
  130.3510  125.1300   65.6140 C   0  0  0  0  0  0  0  0  0  0  0  0
  131.6190  125.4210   65.1010 C   0  0  0  0  0  0  0  0  0  0  0  0
  132.3160  124.4620   64.3700 C   0  0  0  0  0  0  0  0  0  0  0  0
  131.7420  123.2120   64.1490 C   0  0  0  0  0  0  0  0  0  0  0  0
  130.4780  122.9140   64.6530 C   0  0  0  0  0  0  0  0  0  0  0  0
  129.7830  123.8730   65.3840 C   0  0  0  0  0  0  0  0  0  0  0  0
  128.9860  127.2740   65.7880 C   0  0  0  0  0  0  0  0  0  0  0  0
  128.8860  127.7160   64.4220 C   0  0  0  0  0  0  0  0  0  0  0  0
  129.4560  127.0220   63.3840 N   0  0  0  0  0  0  0  0  0  0  0  0
  128.0730  132.0180   60.8970 C   0  0  0  0  0  0  0  0  0  0  0  0
  128.2540  132.7260   59.7130 C   0  0  0  0  0  0  0  0  0  0  0  0
  1  2  1  0
  2  3  1  0
  3  4  2  0
  3  5  1  0
  5  6  2  0
  6  7  1  0
  7  8  2  0
  8  9  1  0
  9 10  1  0
 10 11  2  0
 10 12  1  0
 12 13  1  0
 13 14  1  0
 14 15  2  0
 15 16  1  0
 16 17  1  0
 16 18  2  0
 18 19  1  0
 19 20  1  0
 20 21  2  0
 21 22  1  0
 22 23  2  0
 23 24  1  0
 24 25  2  0
 19 26  2  0
 26 27  1  0
 27 28  1  0
  8 29  1  0
 29 30  2  0
 30  5  1  0
 27 12  2  0
 26 14  1  0
 25 20  1  0
M  END
>  <Binding energies>  (64) 
[-8.36]

>  <Ligand effiencies>  (64) 
[-0.2533333333333333]

>  <Interactions>  (64) 
["V-A:TYR:539:CA:4869, V-A:ILE:538:CG2:4863, V-A:ILE:538:CB:4862, V-A:TYR:539:CE1:4875, V-A:LEU:363:CD1:3189, V-A:PRO:540:CA:4883, V-A:TYR:539:CD1:4873, V-A:PRO:540:N:4884, V-A:TYR:539:C:4867, V-A:GLU:543:CD:4908, V-A:TYR:484:CZ:4347, V-B:GLU:543:CD:9880, V-B:HIS:456:CE1:9041, V-B:GLU:543:C:9874, V-A:HIS:456:CE1:4070, V-B:GLU:543:CG:9879, V-B:GLU:543:CB:9878, V-A:LEU:475:CD2:4259, V-A:TYR:484:CE2:4346, V-A:GLU:543:CB:4906, V-A:GLU:543:CG:4907, H-B:GLU:543:OE1:9881, H-A:TYR:539:N:4870, H-A:GLU:543:OE1:4909, V-B:TYR:484:CZ:9318, H-A:GLU:543:OE2:4910"]

$$$$
8b_Ghoteimi_2023
     RDKit          3D

 34 38  0  0  0  0  0  0  0  0999 V2000
  130.8780  126.9320   73.9610 C   0  0  0  0  0  0  0  0  0  0  0  0
  130.1920  127.9970   73.3110 O   0  0  0  0  0  0  0  0  0  0  0  0
  129.8690  127.8740   71.9730 C   0  0  0  0  0  0  0  0  0  0  0  0
  130.8830  128.1500   71.0590 C   0  0  0  0  0  0  0  0  0  0  0  0
  130.6500  128.0530   69.6910 C   0  0  0  0  0  0  0  0  0  0  0  0
  129.3910  127.6760   69.2010 C   0  0  0  0  0  0  0  0  0  0  0  0
  129.1330  127.5720   67.7310 C   0  0  0  0  0  0  0  0  0  0  0  0
  128.4740  128.5830   67.0250 C   0  0  0  0  0  0  0  0  0  0  0  0
  128.2460  128.4620   65.6510 C   0  0  0  0  0  0  0  0  0  0  0  0
  127.5360  129.5470   64.9350 C   0  0  0  0  0  0  0  0  0  0  0  0
  128.2320  130.6750   64.5000 C   0  0  0  0  0  0  0  0  0  0  0  0
  127.5650  131.6900   63.8180 C   0  0  0  0  0  0  0  0  0  0  0  0
  126.1960  131.5930   63.5640 C   0  0  0  0  0  0  0  0  0  0  0  0
  125.6190  132.6460   62.8810 O   0  0  0  0  0  0  0  0  0  0  0  0
  124.2000  132.7350   62.8120 C   0  0  0  0  0  0  0  0  0  0  0  0
  125.4980  130.4590   64.0060 C   0  0  0  0  0  0  0  0  0  0  0  0
  126.1660  129.4450   64.6870 C   0  0  0  0  0  0  0  0  0  0  0  0
  128.7090  127.2880   64.9970 C   0  0  0  0  0  0  0  0  0  0  0  0
  128.6530  126.8460   63.6280 C   0  0  0  0  0  0  0  0  0  0  0  0
  128.0690  127.5950   62.6390 N   0  0  0  0  0  0  0  0  0  0  0  0
  129.2480  125.5940   63.4110 C   0  0  0  0  0  0  0  0  0  0  0  0
  129.3740  124.8510   62.1550 C   0  0  0  0  0  0  0  0  0  0  0  0
  130.4770  124.6950   61.6240 O   0  0  0  0  0  0  0  0  0  0  0  0
  128.2130  124.3690   61.6450 N   0  0  0  0  0  0  0  0  0  0  0  0
  128.0430  123.6330   60.4800 C   0  0  0  0  0  0  0  0  0  0  0  0
  127.3210  124.1000   59.3830 C   0  0  0  0  0  0  0  0  0  0  0  0
  127.3850  123.0860   58.4540 C   0  0  0  0  0  0  0  0  0  0  0  0
  128.1100  122.0630   58.9640 O   0  0  0  0  0  0  0  0  0  0  0  0
  128.5230  122.4210   60.2490 N   0  0  0  0  0  0  0  0  0  0  0  0
  129.8990  124.9290   64.9090 S   0  0  0  0  0  0  0  0  0  0  0  0
  129.3710  126.3280   65.8150 C   0  0  0  0  0  0  0  0  0  0  0  0
  129.5870  126.4420   67.1250 N   0  0  0  0  0  0  0  0  0  0  0  0
  128.3750  127.3970   70.1250 C   0  0  0  0  0  0  0  0  0  0  0  0
  128.6060  127.4950   71.4950 C   0  0  0  0  0  0  0  0  0  0  0  0
  1  2  1  0
  2  3  1  0
  3  4  2  0
  4  5  1  0
  5  6  2  0
  6  7  1  0
  7  8  2  0
  8  9  1  0
  9 10  1  0
 10 11  2  0
 11 12  1  0
 12 13  2  0
 13 14  1  0
 14 15  1  0
 13 16  1  0
 16 17  2  0
  9 18  2  0
 18 19  1  0
 19 20  1  0
 19 21  2  0
 21 22  1  0
 22 23  2  0
 22 24  1  0
 24 25  1  0
 25 26  1  0
 26 27  2  0
 27 28  1  0
 28 29  1  0
 21 30  1  0
 30 31  1  0
 31 32  2  0
  6 33  1  0
 33 34  2  0
 34  3  1  0
 32  7  1  0
 17 10  1  0
 31 18  1  0
 29 25  2  0
M  END
>  <Binding energies>  (65) 
[-7.46]

>  <Ligand effiencies>  (65) 
[-0.20162162162162162]

>  <Interactions>  (65) 
["V-B:GLY:454:CA:9020, V-B:TYR:539:C:9839, V-A:GLU:543:CD:4908, V-B:PRO:540:CA:9855, V-B:PRO:540:N:9856, V-B:PRO:540:CB:9857, V-B:GLU:543:CD:9880, V-B:HIS:456:CE1:9041, V-A:HIS:456:CE1:4070, V-B:GLU:543:CG:9879, V-A:GLY:544:CA:4914, V-A:GLU:543:C:4902, V-B:GLU:543:CB:9878, V-A:GLU:543:CB:4906, V-B:HIS:456:CD2:9039, V-A:GLY:544:C:4912, V-A:GLU:543:CG:4907, V-A:HIS:456:CD2:4068, H-A:LYS:547:NZ:4951, H-B:GLU:543:OE1:9881, H-B:GLU:543:OE2:9882, H-A:GLU:543:OE1:4909"]

$$$$
9d_Ghoteimi_2023
     RDKit          3D

 38 43  0  0  0  0  0  0  0  0999 V2000
  132.8780  124.5180   64.3560 C   0  0  0  0  0  0  0  0  0  0  0  0
  132.1370  123.3080   64.2870 O   0  0  0  0  0  0  0  0  0  0  0  0
  130.8710  123.2380   64.7740 C   0  0  0  0  0  0  0  0  0  0  0  0
  130.2920  122.1810   65.0380 O   0  0  0  0  0  0  0  0  0  0  0  0
  130.2480  124.5670   64.9550 C   0  0  0  0  0  0  0  0  0  0  0  0
  129.7230  125.4900   63.5470 S   0  0  0  0  0  0  0  0  0  0  0  0
  129.1340  126.7830   64.5640 C   0  0  0  0  0  0  0  0  0  0  0  0
  128.5400  127.8590   64.0510 N   0  0  0  0  0  0  0  0  0  0  0  0
  128.1020  128.8000   64.9280 C   0  0  0  0  0  0  0  0  0  0  0  0
  127.4150  129.9860   64.3310 C   0  0  0  0  0  0  0  0  0  0  0  0
  126.0440  129.9500   64.0580 C   0  0  0  0  0  0  0  0  0  0  0  0
  125.3950  131.0480   63.4990 C   0  0  0  0  0  0  0  0  0  0  0  0
  126.0940  132.2300   63.2050 C   0  0  0  0  0  0  0  0  0  0  0  0
  125.4590  133.3350   62.6280 N   0  0  0  0  0  0  0  0  0  0  0  0
  126.1290  134.1540   61.5970 C   0  0  0  0  0  0  0  0  0  0  0  0
  125.4410  135.5090   61.3310 C   0  0  0  0  0  0  0  0  0  0  0  0
  124.0750  135.3040   61.0100 O   0  0  0  0  0  0  0  0  0  0  0  0
  123.3820  134.6690   62.0710 C   0  0  0  0  0  0  0  0  0  0  0  0
  124.0060  133.2880   62.3630 C   0  0  0  0  0  0  0  0  0  0  0  0
  127.4710  132.2550   63.4670 C   0  0  0  0  0  0  0  0  0  0  0  0
  128.1200  131.1560   64.0220 C   0  0  0  0  0  0  0  0  0  0  0  0
  128.2880  128.6780   66.3070 C   0  0  0  0  0  0  0  0  0  0  0  0
  128.9300  127.5590   66.8500 C   0  0  0  0  0  0  0  0  0  0  0  0
  129.1270  127.4930   68.3220 C   0  0  0  0  0  0  0  0  0  0  0  0
  130.3660  127.7980   68.8900 C   0  0  0  0  0  0  0  0  0  0  0  0
  130.5410  127.7530   70.2710 C   0  0  0  0  0  0  0  0  0  0  0  0
  129.4760  127.4170   71.1210 C   0  0  0  0  0  0  0  0  0  0  0  0
  129.6280  127.3550   72.5080 N   0  0  0  0  0  0  0  0  0  0  0  0
  129.0090  128.4020   73.3450 C   0  0  0  0  0  0  0  0  0  0  0  0
  128.9160  128.0130   74.8360 C   0  0  0  0  0  0  0  0  0  0  0  0
  130.2000  127.6640   75.3290 O   0  0  0  0  0  0  0  0  0  0  0  0
  130.7530  126.5640   74.6210 C   0  0  0  0  0  0  0  0  0  0  0  0
  130.8950  126.9200   73.1250 C   0  0  0  0  0  0  0  0  0  0  0  0
  128.2360  127.1110   70.5390 C   0  0  0  0  0  0  0  0  0  0  0  0
  128.0630  127.1550   69.1590 C   0  0  0  0  0  0  0  0  0  0  0  0
  129.3590  126.5420   65.9520 C   0  0  0  0  0  0  0  0  0  0  0  0
  129.9800  125.2570   66.1440 C   0  0  0  0  0  0  0  0  0  0  0  0
  130.2640  124.7450   67.3840 N   0  0  0  0  0  0  0  0  0  0  0  0
  1  2  1  0
  2  3  1  0
  3  4  2  0
  3  5  1  0
  5  6  1  0
  6  7  1  0
  7  8  2  0
  8  9  1  0
  9 10  1  0
 10 11  2  0
 11 12  1  0
 12 13  2  0
 13 14  1  0
 14 15  1  0
 15 16  1  0
 16 17  1  0
 17 18  1  0
 18 19  1  0
 13 20  1  0
 20 21  2  0
  9 22  2  0
 22 23  1  0
 23 24  1  0
 24 25  2  0
 25 26  1  0
 26 27  2  0
 27 28  1  0
 28 29  1  0
 29 30  1  0
 30 31  1  0
 31 32  1  0
 32 33  1  0
 27 34  1  0
 34 35  2  0
 23 36  2  0
 36 37  1  0
 37 38  1  0
 37  5  2  0
 36  7  1  0
 21 10  1  0
 35 24  1  0
 19 14  1  0
 33 28  1  0
M  END
>  <Binding energies>  (66) 
[-8.87]

>  <Ligand effiencies>  (66) 
[-0.22174999999999997]

>  <Interactions>  (66) 
["V-B:SER:385:CA:8378, V-A:TYR:539:CE1:4875, V-B:ILE:369:CG2:8208, V-B:LEU:475:CD2:9230, V-B:GLY:454:CA:9020, V-B:SER:385:CB:8380, V-A:TYR:539:CD1:4873, V-A:GLU:543:CD:4908, H-A:TYR:484:OH:4348, V-A:ARG:545:CZ:4926, V-A:TYR:484:CZ:4347, V-B:GLU:543:CD:9880, V-B:HIS:456:CE1:9041, V-B:GLU:543:C:9874, V-A:HIS:456:CE1:4070, V-B:GLU:543:CG:9879, V-A:GLU:543:C:4902, V-B:GLU:543:CB:9878, V-A:LEU:475:CD2:4259, V-A:TYR:484:CE2:4346, V-A:GLU:543:CB:4906, V-B:HIS:456:CD2:9039, V-B:GLU:543:CA:9876, V-A:GLY:544:C:4912, V-A:GLU:543:CG:4907, V-A:HIS:456:CG:4066, V-A:HIS:456:CD2:4068, H-A:LYS:547:NZ:4951, V-B:SER:385:C:8376, H-A:HIS:456:NE2:4071, H-B:GLU:543:O:9875"]

$$$$
RR10_Rahimova_2017
     RDKit          3D

 34 38  0  0  0  0  0  0  0  0999 V2000
  133.6580  124.4270   58.3850 C   0  0  0  0  0  0  0  0  0  0  0  0
  133.4300  123.9810   59.8390 C   0  0  1  0  0  0  0  0  0  0  0  0
  132.5230  124.9690   60.6100 C   0  0  0  0  0  0  0  0  0  0  0  0
  132.3370  124.5200   62.0770 C   0  0  0  0  0  0  0  0  0  0  0  0
  131.7380  123.0930   62.1800 C   0  0  1  0  0  0  0  0  0  0  0  0
  130.3470  123.0770   61.7060 N   0  0  0  0  0  0  0  0  0  0  0  0
  129.6600  121.9790   61.3440 C   0  0  0  0  0  0  0  0  0  0  0  0
  130.1340  120.8410   61.3960 O   0  0  0  0  0  0  0  0  0  0  0  0
  128.2200  122.1980   60.8340 C   0  0  1  0  0  0  0  0  0  0  0  0
  127.5000  123.2220   61.7500 C   0  0  0  0  0  0  0  0  0  0  0  0
  126.0880  123.5150   61.1880 C   0  0  0  0  0  0  0  0  0  0  0  0
  126.1160  123.9170   59.6950 C   0  0  0  0  0  0  0  0  0  0  0  0
  126.8780  122.9190   58.8960 N   0  0  0  0  0  0  0  0  0  0  0  0
  126.7260  123.1130   57.1420 S   0  0  0  0  0  0  0  0  0  0  0  0
  125.3080  123.3310   56.8280 O   0  0  0  0  0  0  0  0  0  0  0  0
  127.4640  122.0170   56.5010 O   0  0  0  0  0  0  0  0  0  0  0  0
  127.5780  124.6450   56.7670 C   0  0  0  0  0  0  0  0  0  0  0  0
  128.5580  124.6560   55.7690 C   0  0  0  0  0  0  0  0  0  0  0  0
  129.2610  125.8160   55.4300 C   0  0  0  0  0  0  0  0  0  0  0  0
  128.9330  126.9740   56.1400 C   0  0  0  0  0  0  0  0  0  0  0  0
  129.3860  128.2710   56.1080 N   0  0  0  0  0  0  0  0  0  0  0  0
  128.6850  128.9900   57.0540 C   0  0  0  0  0  0  0  0  0  0  0  0
  128.9080  130.4500   57.3220 C   0  0  0  0  0  0  0  0  0  0  0  0
  128.0620  131.4130   56.7550 C   0  0  0  0  0  0  0  0  0  0  0  0
  128.2650  132.7680   57.0050 C   0  0  0  0  0  0  0  0  0  0  0  0
  129.3180  133.1680   57.8240 C   0  0  0  0  0  0  0  0  0  0  0  0
  130.1670  132.2240   58.3950 C   0  0  0  0  0  0  0  0  0  0  0  0
  129.9630  130.8700   58.1440 C   0  0  0  0  0  0  0  0  0  0  0  0
  127.8070  128.2440   57.6880 N   0  0  0  0  0  0  0  0  0  0  0  0
  127.9390  126.9920   57.1480 C   0  0  0  0  0  0  0  0  0  0  0  0
  127.2490  125.8130   57.4640 C   0  0  0  0  0  0  0  0  0  0  0  0
  128.2690  122.7160   59.3750 C   0  0  0  0  0  0  0  0  0  0  0  0
  132.6490  122.1160   61.3880 C   0  0  0  0  0  0  0  0  0  0  0  0
  132.8310  122.5570   59.9190 C   0  0  0  0  0  0  0  0  0  0  0  0
  2  1  1  6
  2  3  1  0
  3  4  1  0
  4  5  1  0
  5  6  1  6
  6  7  1  0
  7  8  2  0
  9  7  1  1
  9 10  1  0
 10 11  1  0
 11 12  1  0
 12 13  1  0
 13 14  1  0
 14 15  2  0
 14 16  2  0
 14 17  1  0
 17 18  2  0
 18 19  1  0
 19 20  2  0
 20 21  1  0
 21 22  1  0
 22 23  1  0
 23 24  2  0
 24 25  1  0
 25 26  2  0
 26 27  1  0
 27 28  2  0
 22 29  2  0
 29 30  1  0
 30 31  2  0
 13 32  1  0
  5 33  1  0
 33 34  1  0
 34  2  1  0
 32  9  1  0
 31 17  1  0
 30 20  1  0
 28 23  1  0
M  END
>  <Binding energies>  (67) 
[-10.33]

>  <Ligand effiencies>  (67) 
[-0.28694444444444445]

>  <Interactions>  (67) 
["V-A:TYR:539:CA:4869, H-A:TYR:531:OH:4795, V-A:TYR:539:CE1:4875, V-A:TYR:539:CZ:4877, V-A:TYR:531:CZ:4794, V-A:PRO:540:CA:4883, V-A:MET:535:CE:4835, V-A:TYR:539:CD1:4873, V-A:PRO:540:N:4884, V-A:TYR:539:C:4867, V-B:TYR:539:C:9839, V-B:PRO:540:C:9853, V-B:TYR:539:CZ:9849, V-B:PRO:540:CA:9855, V-B:TYR:539:CE2:9848, V-A:ILE:369:CG2:3237, V-A:ASP:366:CA:3210, V-B:PRO:540:N:9856, V-A:ASP:366:C:3208, V-A:ILE:369:CB:3236, V-A:ASP:366:CB:3212, V-B:TYR:539:CE1:9847, V-A:ASP:366:CG:3213, V-B:PRO:540:CB:9857, V-B:TYR:539:CD2:9846, H-B:TYR:539:N:9842, V-A:TYR:539:CG:4872, V-A:LEU:475:CD2:4259, H-B:TYR:531:OH:9767, H-A:MET:535:SD:4834"]

$$$$
RR12_Rahimova_2017
     RDKit          3D

 26 28  0  0  0  0  0  0  0  0999 V2000
  127.7020  123.6560   56.4860 C   0  0  0  0  0  0  0  0  0  0  0  0
  128.0940  122.7600   57.6690 C   0  0  0  0  0  0  0  0  0  0  0  0
  128.6280  123.5640   58.8690 C   0  0  0  0  0  0  0  0  0  0  0  0
  127.7550  123.4040   60.0290 N   0  0  0  0  0  0  0  0  0  0  0  0
  128.1300  123.1310   61.3360 C   0  0  0  0  0  0  0  0  0  0  0  0
  129.5660  122.9010   61.7750 C   0  0  0  0  0  0  0  0  0  0  0  0
  129.6590  122.0510   63.0560 C   0  0  0  0  0  0  0  0  0  0  0  0
  129.7680  122.9080   64.3320 C   0  0  0  0  0  0  0  0  0  0  0  0
  131.1350  123.3160   64.6540 N   0  0  0  0  0  0  0  0  0  0  0  0
  131.7020  124.4780   64.2830 C   0  0  0  0  0  0  0  0  0  0  0  0
  131.1150  125.3340   63.6170 O   0  0  0  0  0  0  0  0  0  0  0  0
  133.1480  124.6890   64.7480 C   0  0  0  0  0  0  0  0  0  0  0  0
  134.0250  124.6280   63.6220 O   0  0  0  0  0  0  0  0  0  0  0  0
  133.6740  123.8520   62.5330 C   0  0  0  0  0  0  0  0  0  0  0  0
  133.8360  122.4720   62.6750 C   0  0  0  0  0  0  0  0  0  0  0  0
  133.5050  121.6100   61.6330 C   0  0  0  0  0  0  0  0  0  0  0  0
  133.0100  122.1290   60.4410 C   0  0  0  0  0  0  0  0  0  0  0  0
  132.8440  123.5030   60.2800 C   0  0  0  0  0  0  0  0  0  0  0  0
  133.1750  124.3650   61.3230 C   0  0  0  0  0  0  0  0  0  0  0  0
  127.1180  123.0710   62.1650 N   0  0  0  0  0  0  0  0  0  0  0  0
  126.0190  123.3390   61.3970 C   0  0  0  0  0  0  0  0  0  0  0  0
  124.6710  123.4150   61.7810 C   0  0  0  0  0  0  0  0  0  0  0  0
  123.7250  123.7140   60.8000 C   0  0  0  0  0  0  0  0  0  0  0  0
  124.1000  123.9310   59.4740 C   0  0  0  0  0  0  0  0  0  0  0  0
  125.4310  123.8610   59.0600 C   0  0  0  0  0  0  0  0  0  0  0  0
  126.3810  123.5600   60.0450 C   0  0  0  0  0  0  0  0  0  0  0  0
  1  2  1  0
  2  3  1  0
  3  4  1  0
  4  5  1  0
  5  6  1  0
  6  7  1  0
  7  8  1  0
  8  9  1  0
  9 10  1  0
 10 11  2  0
 10 12  1  0
 12 13  1  0
 13 14  1  0
 14 15  2  0
 15 16  1  0
 16 17  2  0
 17 18  1  0
 18 19  2  0
  5 20  2  0
 20 21  1  0
 21 22  2  0
 22 23  1  0
 23 24  2  0
 24 25  1  0
 25 26  2  0
 26  4  1  0
 19 14  1  0
 26 21  1  0
M  END
>  <Binding energies>  (68) 
[-7.26]

>  <Ligand effiencies>  (68) 
[-0.2688888888888889]

>  <Interactions>  (68) 
["V-B:ASP:366:CG:8184, V-A:GLY:454:CA:4049, V-B:TYR:539:C:9839, V-B:PRO:540:C:9853, V-B:TYR:539:CZ:9849, V-B:PRO:540:CA:9855, V-B:TYR:539:CE2:9848, H-A:GLY:454:N:4050, V-A:ILE:369:CG2:3237, V-B:PRO:540:N:9856, H-A:TYR:484:OH:4348, V-B:TYR:539:CE1:9847, V-B:PRO:540:CB:9857, V-B:TYR:539:CD2:9846, V-B:TYR:539:CD1:9845, V-A:ARG:545:CZ:4926, V-B:TYR:539:CG:9844, V-A:TYR:484:CZ:4347, H-B:ALA:541:N:9863, V-B:GLU:543:CG:9879, V-B:ALA:541:CB:9864, V-A:LEU:475:CD2:4259, V-A:TYR:484:CE2:4346, V-B:LEU:363:CA:8156, H-A:ARG:545:NH2:4928, V-B:ASN:362:C:8143, V-B:ASN:362:CB:8147, V-B:LEU:363:CB:8158, H-A:ARG:545:NH1:4927, V-B:ASN:362:CA:8145"]

$$$$
RR13_Rahimova_2017
     RDKit          3D

 48 54  0  0  0  0  0  0  0  0999 V2000
  128.9530  122.7980   60.9390 Cl  0  0  0  0  0  0  0  0  0  0  0  0
  128.7380  123.3810   59.3230 C   0  0  0  0  0  0  0  0  0  0  0  0
  127.7520  122.7770   58.5390 C   0  0  0  0  0  0  0  0  0  0  0  0
  127.5440  123.1860   57.2250 C   0  0  0  0  0  0  0  0  0  0  0  0
  128.3260  124.2030   56.6830 C   0  0  0  0  0  0  0  0  0  0  0  0
  129.3110  124.8100   57.4580 C   0  0  0  0  0  0  0  0  0  0  0  0
  129.5280  124.4200   58.7900 C   0  0  0  0  0  0  0  0  0  0  0  0
  130.6430  125.0920   59.6200 C   0  0  1  0  0  0  0  0  0  0  0  0
  132.0330  124.6690   59.1220 C   0  0  0  0  0  0  0  0  0  0  0  0
  132.6010  125.0180   57.9880 N   0  0  0  0  0  0  0  0  0  0  0  0
  133.8340  124.3730   57.9650 N   0  0  0  0  0  0  0  0  0  0  0  0
  133.9910  123.6100   59.1040 N   0  0  0  0  0  0  0  0  0  0  0  0
  132.8570  123.7890   59.7910 N   0  0  0  0  0  0  0  0  0  0  0  0
  132.6740  123.1560   61.0910 C   0  0  0  0  0  0  0  0  0  0  0  0
  133.4650  123.9180   62.1720 C   0  0  0  0  0  0  0  0  0  0  0  0
  132.5710  124.4100   63.2990 C   0  0  0  0  0  0  0  0  0  0  0  0
  133.1400  124.9640   64.4490 C   0  0  0  0  0  0  0  0  0  0  0  0
  132.3200  125.4070   65.4840 C   0  0  0  0  0  0  0  0  0  0  0  0
  130.9360  125.2940   65.3650 C   0  0  0  0  0  0  0  0  0  0  0  0
  130.3640  124.7420   64.2220 C   0  0  0  0  0  0  0  0  0  0  0  0
  131.1830  124.2980   63.1860 C   0  0  0  0  0  0  0  0  0  0  0  0
  130.5020  126.5650   59.7170 N   0  0  0  0  0  0  0  0  0  0  0  0
  130.8770  127.0330   61.0630 C   0  0  0  0  0  0  0  0  0  0  0  0
  130.8600  128.5780   61.1320 C   0  0  0  0  0  0  0  0  0  0  0  0
  129.5110  129.0960   60.8480 N   0  0  0  0  0  0  0  0  0  0  0  0
  129.4290  130.5690   60.9830 C   0  0  1  0  0  0  0  0  0  0  0  0
  128.2990  131.0920   61.8960 C   0  0  0  0  0  0  0  0  0  0  0  0
  127.6270  130.1500   62.6870 C   0  0  0  0  0  0  0  0  0  0  0  0
  126.6050  130.5340   63.5540 C   0  0  0  0  0  0  0  0  0  0  0  0
  126.2320  131.8720   63.6370 C   0  0  0  0  0  0  0  0  0  0  0  0
  126.8750  132.8210   62.8470 C   0  0  0  0  0  0  0  0  0  0  0  0
  127.8980  132.4460   61.9730 C   0  0  0  0  0  0  0  0  0  0  0  0
  128.5870  133.6890   60.9840 Cl  0  0  0  0  0  0  0  0  0  0  0  0
  130.7610  131.2110   61.3760 C   0  0  0  0  0  0  0  0  0  0  0  0
  131.0190  131.7870   62.5270 N   0  0  0  0  0  0  0  0  0  0  0  0
  132.3420  132.2110   62.4550 N   0  0  0  0  0  0  0  0  0  0  0  0
  132.8840  131.8630   61.2350 N   0  0  0  0  0  0  0  0  0  0  0  0
  131.8970  131.2280   60.5930 N   0  0  0  0  0  0  0  0  0  0  0  0
  132.1080  130.7280   59.2390 C   0  0  0  0  0  0  0  0  0  0  0  0
  132.3620  131.8960   58.2690 C   0  0  0  0  0  0  0  0  0  0  0  0
  131.0970  132.3210   57.5390 C   0  0  0  0  0  0  0  0  0  0  0  0
  129.9140  132.5250   58.2540 C   0  0  0  0  0  0  0  0  0  0  0  0
  128.7580  132.9210   57.5870 C   0  0  0  0  0  0  0  0  0  0  0  0
  128.7890  133.1120   56.2060 C   0  0  0  0  0  0  0  0  0  0  0  0
  129.9670  132.9100   55.4880 C   0  0  0  0  0  0  0  0  0  0  0  0
  131.1230  132.5150   56.1550 C   0  0  0  0  0  0  0  0  0  0  0  0
  129.1420  128.6290   59.4990 C   0  0  0  0  0  0  0  0  0  0  0  0
  129.1510  127.0840   59.4400 C   0  0  0  0  0  0  0  0  0  0  0  0
  1  2  1  0
  2  3  2  0
  3  4  1  0
  4  5  2  0
  5  6  1  0
  6  7  2  0
  7  8  1  0
  8  9  1  0
  9 10  2  0
 10 11  1  0
 11 12  2  0
 12 13  1  0
 13 14  1  0
 14 15  1  0
 15 16  1  0
 16 17  2  0
 17 18  1  0
 18 19  2  0
 19 20  1  0
 20 21  2  0
  8 22  1  6
 22 23  1  0
 23 24  1  0
 24 25  1  0
 26 25  1  1
 26 27  1  0
 27 28  2  0
 28 29  1  0
 29 30  2  0
 30 31  1  0
 31 32  2  0
 32 33  1  0
 26 34  1  0
 34 35  2  0
 35 36  1  0
 36 37  2  0
 37 38  1  0
 38 39  1  0
 39 40  1  0
 40 41  1  0
 41 42  2  0
 42 43  1  0
 43 44  2  0
 44 45  1  0
 45 46  2  0
 25 47  1  0
 47 48  1  0
  7  2  1  0
 13  9  1  0
 21 16  1  0
 48 22  1  0
 32 27  1  0
 38 34  1  0
 46 41  1  0
M  END
>  <Binding energies>  (69) 
[-13.03]

>  <Ligand effiencies>  (69) 
[-0.2714583333333333]

>  <Interactions>  (69) 
["H-A:ALA:541:N:4891, V-A:ILE:538:CG2:4863, V-A:TYR:539:CE2:4876, V-A:ILE:538:CB:4862, V-A:TYR:539:CE1:4875, V-A:LEU:363:CD1:3189, V-A:TYR:539:CZ:4877, V-A:PRO:540:CA:4883, V-B:LEU:475:CD2:9230, V-A:ILE:538:CA:4860, V-A:MET:535:CE:4835, V-A:TYR:539:CD1:4873, V-A:PRO:540:N:4884, V-A:PRO:540:CB:4885, V-A:TYR:539:C:4867, V-B:TYR:539:C:9839, V-B:TYR:539:CZ:9849, V-B:PRO:540:CA:9855, V-B:TYR:539:CE2:9848, V-A:ILE:369:CG2:3237, V-B:PRO:540:N:9856, V-B:TYR:539:CE1:9847, V-A:ASP:366:CG:3213, H-B:TYR:539:OH:9850, V-B:TYR:539:CD2:9846, V-A:ARG:545:CZ:4926, V-A:TYR:539:CG:4872, V-B:GLU:543:CG:9879, V-A:ILE:538:C:4858, V-A:PRO:540:C:4881, V-A:TYR:539:CD2:4874"]

$$$$
RR14_Rahimova_2017
     RDKit          3D

 39 43  0  0  0  0  0  0  0  0999 V2000
  131.4760  132.8080   57.1410 C   0  0  0  0  0  0  0  0  0  0  0  0
  130.4690  133.5300   56.4400 O   0  0  0  0  0  0  0  0  0  0  0  0
  129.2290  132.9490   56.2550 C   0  0  0  0  0  0  0  0  0  0  0  0
  128.8170  132.0390   57.2290 C   0  0  0  0  0  0  0  0  0  0  0  0
  127.5940  131.3850   57.1150 C   0  0  0  0  0  0  0  0  0  0  0  0
  126.7690  131.6330   56.0160 C   0  0  0  0  0  0  0  0  0  0  0  0
  125.4600  130.8710   55.8540 C   0  0  0  0  0  0  0  0  0  0  0  0
  124.6660  130.8180   57.0810 N   0  0  0  0  0  0  0  0  0  0  0  0
  123.5740  131.5800   57.2140 N   0  0  0  0  0  0  0  0  0  0  0  0
  123.1030  131.3000   58.4820 N   0  0  0  0  0  0  0  0  0  0  0  0
  123.9290  130.3690   59.1040 N   0  0  0  0  0  0  0  0  0  0  0  0
  124.8750  130.0960   58.2370 C   0  0  0  0  0  0  0  0  0  0  0  0
  126.0360  129.1400   58.4760 C   0  0  0  0  0  0  0  0  0  0  0  0
  126.3690  129.0070   59.9040 N   0  0  0  0  0  0  0  0  0  0  0  0
  126.8180  127.6490   60.2390 C   0  0  0  0  0  0  0  0  0  0  0  0
  126.9630  126.7300   59.0060 C   0  0  0  0  0  0  0  0  0  0  0  0
  126.0990  125.4530   59.0800 C   0  0  0  0  0  0  0  0  0  0  0  0
  126.2260  124.5970   57.8960 N   0  0  0  0  0  0  0  0  0  0  0  0
  125.0450  123.7350   57.7610 C   0  0  0  0  0  0  0  0  0  0  0  0
  125.1690  122.7840   56.5520 C   0  0  0  0  0  0  0  0  0  0  0  0
  126.3770  122.0350   56.6410 O   0  0  0  0  0  0  0  0  0  0  0  0
  127.5290  122.8710   56.6570 C   0  0  0  0  0  0  0  0  0  0  0  0
  127.4770  123.8240   57.8710 C   0  0  0  0  0  0  0  0  0  0  0  0
  127.3920  129.9940   60.2780 C   0  0  0  0  0  0  0  0  0  0  0  0
  126.8830  131.3950   60.6100 C   0  0  0  0  0  0  0  0  0  0  0  0
  125.6050  131.5970   61.0140 C   0  0  0  0  0  0  0  0  0  0  0  0
  125.0760  132.9460   61.3030 C   0  0  0  0  0  0  0  0  0  0  0  0
  123.7640  133.1900   61.7420 C   0  0  0  0  0  0  0  0  0  0  0  0
  122.7700  132.0560   61.9570 C   0  0  0  0  0  0  0  0  0  0  0  0
  123.3640  134.5060   61.9890 C   0  0  0  0  0  0  0  0  0  0  0  0
  124.2500  135.5660   61.8050 C   0  0  0  0  0  0  0  0  0  0  0  0
  125.5580  135.3330   61.3700 C   0  0  0  0  0  0  0  0  0  0  0  0
  126.5030  136.5130   61.1810 C   0  0  0  0  0  0  0  0  0  0  0  0
  125.9710  134.0160   61.1190 C   0  0  0  0  0  0  0  0  0  0  0  0
  127.2800  133.7330   60.6760 N   0  0  0  0  0  0  0  0  0  0  0  0
  127.8070  132.5140   60.4000 C   0  0  0  0  0  0  0  0  0  0  0  0
  128.9690  132.4120   60.0040 O   0  0  0  0  0  0  0  0  0  0  0  0
  127.1600  132.5640   55.0510 C   0  0  0  0  0  0  0  0  0  0  0  0
  128.3840  133.2160   55.1660 C   0  0  0  0  0  0  0  0  0  0  0  0
  1  2  1  0
  2  3  1  0
  3  4  2  0
  4  5  1  0
  5  6  2  0
  6  7  1  0
  7  8  1  0
  8  9  1  0
  9 10  2  0
 10 11  1  0
 11 12  2  0
 12 13  1  0
 13 14  1  0
 14 15  1  0
 15 16  1  0
 16 17  1  0
 17 18  1  0
 18 19  1  0
 19 20  1  0
 20 21  1  0
 21 22  1  0
 22 23  1  0
 14 24  1  0
 24 25  1  0
 25 26  2  0
 26 27  1  0
 27 28  2  0
 28 29  1  0
 28 30  1  0
 30 31  2  0
 31 32  1  0
 32 33  1  0
 32 34  2  0
 34 35  1  0
 35 36  1  0
 36 37  2  0
  6 38  1  0
 38 39  2  0
 39  3  1  0
 12  8  1  0
 23 18  1  0
 36 25  1  0
 34 27  1  0
M  END
>  <Binding energies>  (70) 
[-11.16]

>  <Ligand effiencies>  (70) 
[-0.279]

>  <Interactions>  (70) 
["V-A:PRO:540:CD:4887, V-B:ILE:369:CG1:8209, V-A:TYR:539:CE2:4876, V-A:ILE:538:CB:4862, V-B:GLY:453:C:9013, V-B:ASP:366:CB:8183, V-B:SER:385:CA:8378, V-B:ILE:369:CB:8207, V-A:TYR:539:CE1:4875, V-A:LEU:363:CD1:3189, V-A:TYR:539:CZ:4877, V-B:ILE:369:CG2:8208, V-A:PRO:540:CA:4883, V-B:LEU:475:CD2:9230, V-B:ASP:366:CG:8184, V-A:ILE:538:CA:4860, V-A:MET:535:CE:4835, V-B:SER:385:CB:8380, V-A:TYR:539:CD1:4873, V-A:PRO:540:N:4884, V-A:PRO:540:CB:4885, V-B:TYR:539:CZ:9849, V-B:TYR:539:CE2:9848, V-B:PRO:540:N:9856, V-B:TYR:539:CE1:9847, V-B:PRO:540:CB:9857, V-B:TYR:539:CD2:9846, V-B:TYR:539:CD1:9845, V-B:TYR:539:CG:9844, H-B:TYR:539:N:9842, V-A:TYR:539:CG:4872, V-B:MET:535:CE:9807, V-B:PRO:540:CD:9859, H-A:TYR:539:OH:4878, V-A:ILE:538:C:4858, V-B:LEU:363:CD1:8160, H-A:TYR:539:N:4870, V-B:TYR:531:CZ:9766, V-A:TYR:539:CD2:4874, V-B:TYR:531:CE1:9764, V-B:SER:385:C:8376, V-B:ILE:538:CG2:9835, H-A:TYR:539:O:4868, H-B:ASN:370:N:8215"]

$$$$
RR15_Rahimova_2017
     RDKit          3D

 45 49  0  0  0  0  0  0  0  0999 V2000
  131.6620  126.8230   73.7290 C   0  0  0  0  0  0  0  0  0  0  0  0
  130.3790  127.3480   73.4050 O   0  0  0  0  0  0  0  0  0  0  0  0
  130.0300  127.5250   72.0770 C   0  0  0  0  0  0  0  0  0  0  0  0
  130.9200  127.9870   71.0950 C   0  0  0  0  0  0  0  0  0  0  0  0
  130.5030  128.1460   69.7750 C   0  0  0  0  0  0  0  0  0  0  0  0
  129.1890  127.8510   69.4000 C   0  0  0  0  0  0  0  0  0  0  0  0
  128.7370  128.0290   67.9760 C   0  0  0  0  0  0  0  0  0  0  0  0
  129.2250  127.3150   66.9710 N   0  0  0  0  0  0  0  0  0  0  0  0
  128.5820  127.7650   65.8360 N   0  0  0  0  0  0  0  0  0  0  0  0
  127.7360  128.6860   66.2990 N   0  0  0  0  0  0  0  0  0  0  0  0
  126.9590  129.5430   65.4040 C   0  0  0  0  0  0  0  0  0  0  0  0
  127.8060  130.4030   64.4320 C   0  0  0  0  0  0  0  0  0  0  0  0
  128.2720  131.4650   64.8490 O   0  0  0  0  0  0  0  0  0  0  0  0
  128.0390  129.9550   63.1600 N   0  0  0  0  0  0  0  0  0  0  0  0
  129.2630  130.3320   62.4260 C   0  0  0  0  0  0  0  0  0  0  0  0
  129.2470  131.7830   61.9000 C   0  0  0  0  0  0  0  0  0  0  0  0
  130.3970  132.1330   60.9260 C   0  0  0  0  0  0  0  0  0  0  0  0
  129.9990  132.1250   59.5150 N   0  0  0  0  0  0  0  0  0  0  0  0
  129.0180  133.1660   59.1750 C   0  0  0  0  0  0  0  0  0  0  0  0
  128.6990  133.1680   57.6640 C   0  0  0  0  0  0  0  0  0  0  0  0
  129.8990  133.2910   56.9090 O   0  0  0  0  0  0  0  0  0  0  0  0
  130.8090  132.2270   57.1600 C   0  0  0  0  0  0  0  0  0  0  0  0
  131.1890  132.2000   58.6560 C   0  0  0  0  0  0  0  0  0  0  0  0
  127.1990  128.9170   62.4870 C   0  0  2  0  0  0  0  0  0  0  0  0
  128.0160  127.7350   61.8780 C   0  0  0  0  0  0  0  0  0  0  0  0
  128.0090  127.5140   60.6670 O   0  0  0  0  0  0  0  0  0  0  0  0
  128.7430  127.0180   62.7540 N   0  0  0  0  0  0  0  0  0  0  0  0
  129.6580  125.9380   62.4060 C   0  0  0  0  0  0  0  0  0  0  0  0
  130.6300  125.6370   63.5620 C   0  0  2  0  0  0  0  0  0  0  0  0
  131.1890  124.2040   63.5990 C   0  0  0  0  0  0  0  0  0  0  0  0
  130.3770  123.5080   64.6640 C   0  0  0  0  0  0  0  0  0  0  0  0
  130.1220  124.6450   65.6380 C   0  0  0  0  0  0  0  0  0  0  0  0
  129.8600  125.7410   64.7680 O   0  0  0  0  0  0  0  0  0  0  0  0
  126.1440  129.5700   61.6010 C   0  0  0  0  0  0  0  0  0  0  0  0
  126.4010  129.6640   60.2280 C   0  0  0  0  0  0  0  0  0  0  0  0
  125.4740  130.2500   59.3720 C   0  0  0  0  0  0  0  0  0  0  0  0
  124.2780  130.7470   59.8830 C   0  0  0  0  0  0  0  0  0  0  0  0
  123.3770  131.3160   59.0520 F   0  0  0  0  0  0  0  0  0  0  0  0
  124.0040  130.6610   61.2460 C   0  0  0  0  0  0  0  0  0  0  0  0
  124.9330  130.0750   62.1020 C   0  0  0  0  0  0  0  0  0  0  0  0
  127.8250  128.9130   67.6140 N   0  0  0  0  0  0  0  0  0  0  0  0
  128.3040  127.3890   70.3820 C   0  0  0  0  0  0  0  0  0  0  0  0
  128.7100  127.2200   71.7170 C   0  0  0  0  0  0  0  0  0  0  0  0
  127.8740  126.7630   72.7210 O   0  0  0  0  0  0  0  0  0  0  0  0
  126.9850  127.6710   73.3630 C   0  0  0  0  0  0  0  0  0  0  0  0
  1  2  1  0
  2  3  1  0
  3  4  2  0
  4  5  1  0
  5  6  2  0
  6  7  1  0
  7  8  1  0
  8  9  2  0
  9 10  1  0
 10 11  1  0
 11 12  1  0
 12 13  2  0
 12 14  1  0
 14 15  1  0
 15 16  1  0
 16 17  1  0
 17 18  1  0
 18 19  1  0
 19 20  1  0
 20 21  1  0
 21 22  1  0
 22 23  1  0
 24 14  1  6
 24 25  1  0
 25 26  2  0
 25 27  1  0
 27 28  1  0
 29 28  1  6
 29 30  1  0
 30 31  1  0
 31 32  1  0
 32 33  1  0
 24 34  1  0
 34 35  2  0
 35 36  1  0
 36 37  2  0
 37 38  1  0
 37 39  1  0
 39 40  2  0
 10 41  1  0
  6 42  1  0
 42 43  2  0
 43 44  1  0
 44 45  1  0
 43  3  1  0
 41  7  2  0
 23 18  1  0
 33 29  1  0
 40 34  1  0
M  END
>  <Binding energies>  (71) 
[-8.65]

>  <Ligand effiencies>  (71) 
[-0.18804347826086956]

>  <Interactions>  (71) 
["V-A:TYR:539:CA:4869, V-B:ILE:369:CG1:8209, V-B:ASP:366:CB:8183, V-B:ILE:369:CB:8207, V-A:TYR:539:CE1:4875, V-B:ILE:369:CG2:8208, V-A:PRO:540:CA:4883, V-B:ASP:366:CG:8184, V-B:ASP:366:CA:8181, V-A:TYR:539:CD1:4873, V-A:PRO:540:N:4884, V-A:PRO:540:CB:4885, V-A:TYR:539:C:4867, V-A:GLU:543:CD:4908, V-A:TYR:539:CG:4872, V-B:GLU:543:CD:9880, V-B:HIS:456:CE1:9041, V-A:HIS:456:CE1:4070, V-B:GLU:543:CG:9879, V-A:GLU:543:C:4902, V-B:GLU:543:CB:9878, V-A:TYR:484:CE2:4346, V-A:GLU:543:CB:4906, V-B:HIS:456:CD2:9039, V-A:GLY:544:C:4912, V-A:GLU:543:CA:4904, V-A:GLU:543:CG:4907, V-A:HIS:456:CG:4066, V-A:HIS:456:CD2:4068, H-B:LYS:547:NZ:9923, H-A:LYS:547:NZ:4951, V-B:HIS:456:CG:9037, V-B:LYS:547:CE:9922, V-B:GLY:544:C:9884, H-B:GLU:543:OE1:9881, H-B:GLU:543:OE2:9882, H-A:TYR:539:N:4870, V-B:ASP:366:C:8179, V-A:PRO:540:C:4881, H-A:GLU:543:OE1:4909, H-B:TYR:484:OH:9319, V-B:TYR:484:CZ:9318"]

$$$$
RR17_Rahimova_2017
     RDKit          3D

 38 41  0  0  0  0  0  0  0  0999 V2000
  130.7890  132.9220   57.3140 C   0  0  0  0  0  0  0  0  0  0  0  0
  129.3610  132.9290   57.8680 C   0  0  0  0  0  0  0  0  0  0  0  0
  129.4200  133.0540   59.2860 O   0  0  0  0  0  0  0  0  0  0  0  0
  128.2490  133.2270   60.0010 C   0  0  0  0  0  0  0  0  0  0  0  0
  127.1240  132.5570   59.5240 C   0  0  0  0  0  0  0  0  0  0  0  0
  125.9010  132.6720   60.1760 C   0  0  0  0  0  0  0  0  0  0  0  0
  125.7770  133.4660   61.3250 C   0  0  0  0  0  0  0  0  0  0  0  0
  124.4440  133.5710   62.0090 C   0  0  0  0  0  0  0  0  0  0  0  0
  123.7300  134.5730   61.9140 O   0  0  0  0  0  0  0  0  0  0  0  0
  123.9980  132.3640   62.8640 C   0  0  0  0  0  0  0  0  0  0  0  0
  124.7740  130.8030   62.3110 S   0  0  0  0  0  0  0  0  0  0  0  0
  125.2670  130.1370   63.8760 C   0  0  0  0  0  0  0  0  0  0  0  0
  124.4700  129.5530   64.7380 N   0  0  0  0  0  0  0  0  0  0  0  0
  125.2350  129.1640   65.8310 N   0  0  0  0  0  0  0  0  0  0  0  0
  126.4690  129.5250   65.5840 C   0  0  0  0  0  0  0  0  0  0  0  0
  127.6440  129.2790   66.5200 C   0  0  0  0  0  0  0  0  0  0  0  0
  127.5480  128.0310   67.2730 N   0  0  0  0  0  0  0  0  0  0  0  0
  128.1550  127.8260   68.5250 C   0  0  0  0  0  0  0  0  0  0  0  0
  129.3920  128.4320   68.7460 C   0  0  0  0  0  0  0  0  0  0  0  0
  130.0500  128.2650   69.9610 C   0  0  0  0  0  0  0  0  0  0  0  0
  129.4750  127.4920   70.9730 C   0  0  0  0  0  0  0  0  0  0  0  0
  130.2140  127.3140   72.2990 C   0  0  0  0  0  0  0  0  0  0  0  0
  131.5090  127.0390   72.1240 F   0  0  0  0  0  0  0  0  0  0  0  0
  130.1250  128.4230   73.0340 F   0  0  0  0  0  0  0  0  0  0  0  0
  129.6610  126.3070   72.9760 F   0  0  0  0  0  0  0  0  0  0  0  0
  128.2310  126.8900   70.7560 C   0  0  0  0  0  0  0  0  0  0  0  0
  127.5730  127.0580   69.5420 C   0  0  0  0  0  0  0  0  0  0  0  0
  126.5590  130.1600   64.3630 N   0  0  0  0  0  0  0  0  0  0  0  0
  127.7060  130.6800   63.7450 C   0  0  0  0  0  0  0  0  0  0  0  0
  128.3450  131.7870   64.3030 C   0  0  0  0  0  0  0  0  0  0  0  0
  129.4820  132.3040   63.6880 C   0  0  0  0  0  0  0  0  0  0  0  0
  129.9820  131.7170   62.5140 C   0  0  0  0  0  0  0  0  0  0  0  0
  131.1010  132.1610   61.8370 O   0  0  0  0  0  0  0  0  0  0  0  0
  132.3240  131.4460   61.9730 C   0  0  0  0  0  0  0  0  0  0  0  0
  129.3270  130.6100   61.9690 C   0  0  0  0  0  0  0  0  0  0  0  0
  128.1910  130.0870   62.5800 C   0  0  0  0  0  0  0  0  0  0  0  0
  126.9100  134.1400   61.8050 C   0  0  0  0  0  0  0  0  0  0  0  0
  128.1340  134.0220   61.1510 C   0  0  0  0  0  0  0  0  0  0  0  0
  1  2  1  0
  2  3  1  0
  3  4  1  0
  4  5  2  0
  5  6  1  0
  6  7  2  0
  7  8  1  0
  8  9  2  0
  8 10  1  0
 10 11  1  0
 11 12  1  0
 12 13  2  0
 13 14  1  0
 14 15  2  0
 15 16  1  0
 16 17  1  0
 17 18  1  0
 18 19  2  0
 19 20  1  0
 20 21  2  0
 21 22  1  0
 22 23  1  0
 22 24  1  0
 22 25  1  0
 21 26  1  0
 26 27  2  0
 15 28  1  0
 28 29  1  0
 29 30  2  0
 30 31  1  0
 31 32  2  0
 32 33  1  0
 33 34  1  0
 32 35  1  0
 35 36  2  0
  7 37  1  0
 37 38  2  0
 38  4  1  0
 28 12  1  0
 36 29  1  0
 27 18  1  0
M  END
>  <Binding energies>  (72) 
[-8.39]

>  <Ligand effiencies>  (72) 
[-0.21512820512820513]

>  <Interactions>  (72) 
["V-A:PRO:540:CD:4887, H-A:ALA:541:N:4891, V-A:TYR:539:CE1:4875, V-B:ILE:369:CG2:8208, V-A:PRO:540:CA:4883, V-B:LEU:475:CD2:9230, V-B:GLY:454:CA:9020, V-A:TYR:539:CD1:4873, V-A:ALA:541:CB:4892, V-A:PRO:540:N:4884, V-A:PRO:540:CB:4885, V-A:TYR:539:C:4867, V-A:GLU:543:CD:4908, V-B:GLU:543:CD:9880, V-B:HIS:456:CE1:9041, V-B:GLU:543:C:9874, V-A:HIS:456:CE1:4070, V-A:GLU:543:C:4902, V-B:GLU:543:CB:9878, V-A:GLU:543:CB:4906, V-A:GLY:544:C:4912, V-A:GLU:543:CA:4904, V-A:GLU:543:CG:4907, V-A:HIS:456:CG:4066, V-A:HIS:456:CD2:4068, V-A:ALA:541:CA:4890, H-B:GLU:543:OE2:9882, H-B:TYR:484:OH:9319, H-B:GLY:454:N:9021, V-B:TYR:484:CZ:9318, H-B:ARG:545:NE:9896, H-B:ARG:545:NH2:9900, V-B:TYR:484:CE2:9317"]

$$$$
RR19_Rahimova_2017
     RDKit          3D

 46 51  0  0  0  0  0  0  0  0999 V2000
  133.4960  124.2770   64.1800 O   0  0  0  0  0  0  0  0  0  0  0  0
  132.3250  124.3440   63.7940 C   0  0  0  0  0  0  0  0  0  0  0  0
  131.9180  124.6420   62.5340 N   0  0  0  0  0  0  0  0  0  0  0  0
  132.5780  124.7330   61.3340 C   0  0  0  0  0  0  0  0  0  0  0  0
  134.1690  124.2320   61.0430 S   0  0  0  0  0  0  0  0  0  0  0  0
  131.7340  125.2970   60.4100 N   0  0  0  0  0  0  0  0  0  0  0  0
  131.8230  125.4830   59.0680 C   0  0  0  0  0  0  0  0  0  0  0  0
  132.6700  124.9930   58.3170 O   0  0  0  0  0  0  0  0  0  0  0  0
  130.7400  126.4290   58.4910 C   0  0  2  0  0  0  0  0  0  0  0  0
  130.6140  127.7980   59.2200 C   0  0  0  0  0  0  0  0  0  0  0  0
  130.8490  129.0200   58.3470 C   0  0  0  0  0  0  0  0  0  0  0  0
  129.7880  129.6100   57.6270 C   0  0  0  0  0  0  0  0  0  0  0  0
  130.0050  130.7720   56.8980 C   0  0  0  0  0  0  0  0  0  0  0  0
  131.2600  131.3700   56.8890 C   0  0  0  0  0  0  0  0  0  0  0  0
  132.3050  130.8170   57.6170 C   0  0  0  0  0  0  0  0  0  0  0  0
  132.1090  129.6570   58.3540 C   0  0  0  0  0  0  0  0  0  0  0  0
  129.4240  125.7420   58.3850 N   0  0  0  0  0  0  0  0  0  0  0  0
  128.5830  125.6520   59.4550 C   0  0  0  0  0  0  0  0  0  0  0  0
  128.7820  126.0670   60.5980 O   0  0  0  0  0  0  0  0  0  0  0  0
  127.3760  124.9520   58.9520 C   0  0  0  0  0  0  0  0  0  0  0  0
  126.1970  124.5810   59.6010 C   0  0  0  0  0  0  0  0  0  0  0  0
  125.2050  123.9250   58.8640 C   0  0  0  0  0  0  0  0  0  0  0  0
  125.4000  123.6530   57.5030 C   0  0  0  0  0  0  0  0  0  0  0  0
  126.5880  124.0350   56.8710 C   0  0  0  0  0  0  0  0  0  0  0  0
  127.5660  124.6860   57.6240 C   0  0  0  0  0  0  0  0  0  0  0  0
  128.9010  125.2100   57.2400 C   0  0  0  0  0  0  0  0  0  0  0  0
  129.4180  125.1780   56.1230 O   0  0  0  0  0  0  0  0  0  0  0  0
  131.1710  124.0870   64.7990 C   0  0  2  0  0  0  0  0  0  0  0  0
  130.3340  122.8130   64.4860 C   0  0  0  0  0  0  0  0  0  0  0  0
  129.8600  122.7260   63.0470 C   0  0  0  0  0  0  0  0  0  0  0  0
  130.6570  122.0810   62.0760 C   0  0  0  0  0  0  0  0  0  0  0  0
  130.1770  121.9130   60.7840 C   0  0  0  0  0  0  0  0  0  0  0  0
  128.9030  122.3520   60.4470 C   0  0  0  0  0  0  0  0  0  0  0  0
  128.0920  122.9520   61.4020 C   0  0  0  0  0  0  0  0  0  0  0  0
  128.5540  123.1310   62.7000 C   0  0  0  0  0  0  0  0  0  0  0  0
  130.2980  125.2750   65.0130 N   0  0  0  0  0  0  0  0  0  0  0  0
  129.9870  125.7220   66.2620 C   0  0  0  0  0  0  0  0  0  0  0  0
  130.3400  125.2360   67.3370 O   0  0  0  0  0  0  0  0  0  0  0  0
  129.1340  126.9180   66.0520 C   0  0  0  0  0  0  0  0  0  0  0  0
  128.5210  127.7760   66.9660 C   0  0  0  0  0  0  0  0  0  0  0  0
  127.7620  128.8450   66.4760 C   0  0  0  0  0  0  0  0  0  0  0  0
  127.6300  129.0430   65.0960 C   0  0  0  0  0  0  0  0  0  0  0  0
  128.2540  128.1730   64.1950 C   0  0  0  0  0  0  0  0  0  0  0  0
  129.0050  127.1110   64.7040 C   0  0  0  0  0  0  0  0  0  0  0  0
  129.7710  126.0450   64.0150 C   0  0  0  0  0  0  0  0  0  0  0  0
  129.9040  125.8880   62.8000 O   0  0  0  0  0  0  0  0  0  0  0  0
  1  2  2  0
  2  3  1  0
  3  4  1  0
  4  5  2  0
  4  6  1  0
  6  7  1  0
  7  8  2  0
  7  9  1  0
  9 10  1  1
 10 11  1  0
 11 12  2  0
 12 13  1  0
 13 14  2  0
 14 15  1  0
 15 16  2  0
  9 17  1  0
 17 18  1  0
 18 19  2  0
 18 20  1  0
 20 21  2  0
 21 22  1  0
 22 23  2  0
 23 24  1  0
 24 25  2  0
 25 26  1  0
 26 27  2  0
  2 28  1  0
 28 29  1  6
 29 30  1  0
 30 31  2  0
 31 32  1  0
 32 33  2  0
 33 34  1  0
 34 35  2  0
 28 36  1  0
 36 37  1  0
 37 38  2  0
 37 39  1  0
 39 40  2  0
 40 41  1  0
 41 42  2  0
 42 43  1  0
 43 44  2  0
 44 45  1  0
 45 46  2  0
 16 11  1  0
 26 17  1  0
 35 30  1  0
 45 36  1  0
 25 20  1  0
 44 39  1  0
M  END
>  <Binding energies>  (73) 
[-10.9]

>  <Ligand effiencies>  (73) 
[-0.22708333333333333]

>  <Interactions>  (73) 
["V-A:LEU:363:CD1:3189, V-A:TYR:531:CE2:4793, V-A:MET:535:CE:4835, V-A:GLU:543:CD:4908, V-B:TYR:539:CZ:9849, V-B:PRO:540:CA:9855, V-B:TYR:539:CE2:9848, H-A:GLY:454:N:4050, H-A:TYR:484:OH:4348, V-A:ASP:366:CB:3212, V-A:ILE:369:CD1:3239, V-A:ASP:366:CG:3213, V-B:PRO:540:CB:9857, H-B:TYR:539:OH:9850, V-B:TYR:539:CD2:9846, V-A:TYR:484:CZ:4347, V-B:GLU:543:CD:9880, V-B:HIS:456:CE1:9041, V-B:GLU:543:CG:9879, V-B:ALA:541:CB:9864, V-B:GLU:543:CB:9878, V-A:LEU:475:CD2:4259, V-A:TYR:484:CE2:4346, V-A:GLU:543:CB:4906, V-A:GLU:543:CG:4907, V-B:LEU:363:CD1:8160"]

$$$$
RR1_Rahimova_2017
     RDKit          3D

 41 44  0  0  0  0  0  0  0  0999 V2000
  131.4930  132.1580   55.6630 C   0  0  0  0  0  0  0  0  0  0  0  0
  130.6160  133.0950   56.2790 O   0  0  0  0  0  0  0  0  0  0  0  0
  130.2400  132.9020   57.5940 C   0  0  0  0  0  0  0  0  0  0  0  0
  131.0170  132.2280   58.5490 C   0  0  0  0  0  0  0  0  0  0  0  0
  130.5520  132.0760   59.8520 C   0  0  0  0  0  0  0  0  0  0  0  0
  129.3110  132.5970   60.2240 C   0  0  0  0  0  0  0  0  0  0  0  0
  128.9090  132.3520   61.5510 N   0  0  0  0  0  0  0  0  0  0  0  0
  129.6630  132.2190   62.6630 C   0  0  0  0  0  0  0  0  0  0  0  0
  130.8940  132.2250   62.6810 O   0  0  0  0  0  0  0  0  0  0  0  0
  128.8610  132.0460   63.9630 C   0  0  0  0  0  0  0  0  0  0  0  0
  127.4850  130.8470   63.8810 S   0  0  0  0  0  0  0  0  0  0  0  0
  126.3630  131.8320   62.9460 C   0  0  0  0  0  0  0  0  0  0  0  0
  126.5080  133.1160   62.7380 N   0  0  0  0  0  0  0  0  0  0  0  0
  125.4590  133.4370   61.9880 C   0  0  0  0  0  0  0  0  0  0  0  0
  125.2230  134.8350   61.4920 C   0  0  0  0  0  0  0  0  0  0  0  0
  123.9390  135.2860   61.1480 C   0  0  0  0  0  0  0  0  0  0  0  0
  123.7510  136.5900   60.6860 C   0  0  0  0  0  0  0  0  0  0  0  0
  124.8630  137.4230   60.5780 C   0  0  0  0  0  0  0  0  0  0  0  0
  126.1180  137.0200   60.9010 N   0  0  0  0  0  0  0  0  0  0  0  0
  126.2790  135.7490   61.3490 C   0  0  0  0  0  0  0  0  0  0  0  0
  124.6390  132.4410   61.7060 N   0  0  0  0  0  0  0  0  0  0  0  0
  125.2180  131.4070   62.3220 N   0  0  0  0  0  0  0  0  0  0  0  0
  124.6320  130.0690   62.2400 C   0  0  0  0  0  0  0  0  0  0  0  0
  125.6110  128.9130   62.5060 C   0  0  0  0  0  0  0  0  0  0  0  0
  125.9510  128.6230   63.6590 O   0  0  0  0  0  0  0  0  0  0  0  0
  126.0480  128.2740   61.4040 N   0  0  0  0  0  0  0  0  0  0  0  0
  126.8160  127.1300   61.5730 N   0  0  0  0  0  0  0  0  0  0  0  0
  126.8730  126.2510   60.5480 C   0  0  0  0  0  0  0  0  0  0  0  0
  126.3700  126.4510   59.4370 O   0  0  0  0  0  0  0  0  0  0  0  0
  127.6340  124.9710   60.8230 C   0  0  0  0  0  0  0  0  0  0  0  0
  127.5240  123.8900   59.9420 C   0  0  0  0  0  0  0  0  0  0  0  0
  128.2040  122.7000   60.1810 C   0  0  0  0  0  0  0  0  0  0  0  0
  129.0140  122.5530   61.3190 C   0  0  0  0  0  0  0  0  0  0  0  0
  129.7060  121.3940   61.6230 O   0  0  0  0  0  0  0  0  0  0  0  0
  130.9300  121.1120   60.9540 C   0  0  0  0  0  0  0  0  0  0  0  0
  129.1320  123.6220   62.2180 C   0  0  0  0  0  0  0  0  0  0  0  0
  129.9260  123.4180   63.3340 O   0  0  0  0  0  0  0  0  0  0  0  0
  129.4080  122.6940   64.4440 C   0  0  0  0  0  0  0  0  0  0  0  0
  128.4440  124.8210   61.9600 C   0  0  0  0  0  0  0  0  0  0  0  0
  128.5320  133.2720   59.2720 C   0  0  0  0  0  0  0  0  0  0  0  0
  129.0020  133.4230   57.9710 C   0  0  0  0  0  0  0  0  0  0  0  0
  1  2  1  0
  2  3  1  0
  3  4  2  0
  4  5  1  0
  5  6  2  0
  6  7  1  0
  7  8  1  0
  8  9  2  0
  8 10  1  0
 10 11  1  0
 11 12  1  0
 12 13  2  0
 13 14  1  0
 14 15  1  0
 15 16  2  0
 16 17  1  0
 17 18  2  0
 18 19  1  0
 19 20  2  0
 14 21  2  0
 21 22  1  0
 22 23  1  0
 23 24  1  0
 24 25  2  0
 24 26  1  0
 26 27  1  0
 27 28  1  0
 28 29  2  0
 28 30  1  0
 30 31  2  0
 31 32  1  0
 32 33  2  0
 33 34  1  0
 34 35  1  0
 33 36  1  0
 36 37  1  0
 37 38  1  0
 36 39  2  0
  6 40  1  0
 40 41  2  0
 41  3  1  0
 22 12  1  0
 39 30  1  0
 20 15  1  0
M  END
>  <Binding energies>  (74) 
[-8.55]

>  <Ligand effiencies>  (74) 
[-0.19431818181818183]

>  <Interactions>  (74) 
["V-A:TYR:539:CA:4869, V-A:PRO:540:CD:4887, H-A:ALA:541:N:4891, V-A:ILE:538:CG2:4863, V-A:ILE:538:CB:4862, V-B:SER:385:CA:8378, V-A:TYR:539:CE1:4875, V-A:LEU:363:CD1:3189, V-B:ILE:369:CG2:8208, V-A:PRO:540:CA:4883, V-B:LEU:475:CD2:9230, V-B:ASP:366:CG:8184, V-B:LEU:373:CD1:8251, V-A:MET:535:CE:4835, V-B:SER:385:CB:8380, V-A:TYR:539:CD1:4873, V-A:ALA:541:CB:4892, V-A:PRO:540:N:4884, V-A:PRO:540:CB:4885, V-A:TYR:539:C:4867, V-A:GLU:543:CD:4908, V-B:PRO:540:CA:9855, V-B:TYR:539:CE2:9848, V-B:PRO:540:N:9856, V-B:TYR:539:CD2:9846, V-A:TYR:539:CG:4872, V-B:GLU:543:CD:9880, V-B:GLU:543:CG:9879, V-B:ALA:541:CB:9864, V-A:LEU:475:CD2:4259, V-A:TYR:484:CE2:4346, V-A:GLU:543:CG:4907, H-B:GLU:543:OE1:9881, H-B:ASP:366:OD1:8185, H-B:GLU:543:OE2:9882, H-B:ASP:366:OD2:8186, H-A:TYR:539:N:4870, V-B:ARG:545:CZ:9898, H-B:TYR:484:OH:9319, V-B:HIS:383:CD2:8363, H-B:ARG:545:NH2:9900, H-B:HIS:383:NE2:8365"]

$$$$
RR22_Rahimova_2017
     RDKit          3D

 31 36  0  0  0  0  0  0  0  0999 V2000
  123.6470  130.9790   55.8680 O   0  0  0  0  0  0  0  0  0  0  0  0
  124.5300  130.8720   56.7160 C   0  0  0  0  0  0  0  0  0  0  0  0
  124.3790  130.5660   58.0580 N   0  0  0  0  0  0  0  0  0  0  0  0
  125.5230  130.4190   58.9040 C   0  0  1  0  0  0  0  0  0  0  0  0
  125.3140  131.3370   59.9810 O   0  0  0  0  0  0  0  0  0  0  0  0
  125.2530  130.8320   61.2800 C   0  0  0  0  0  0  0  0  0  0  0  0
  124.6910  131.6670   62.2460 C   0  0  0  0  0  0  0  0  0  0  0  0
  124.6320  131.2470   63.5750 C   0  0  0  0  0  0  0  0  0  0  0  0
  125.1420  130.0000   63.9370 C   0  0  0  0  0  0  0  0  0  0  0  0
  125.7050  129.1650   62.9710 C   0  0  0  0  0  0  0  0  0  0  0  0
  125.7480  129.5620   61.6310 C   0  0  0  0  0  0  0  0  0  0  0  0
  126.3740  128.7510   60.5180 C   0  0  1  0  0  0  0  0  0  0  0  0
  126.3740  127.2360   60.5150 C   0  0  0  0  0  0  0  0  0  0  0  0
  126.3580  126.9770   59.0060 C   0  0  0  0  0  0  0  0  0  0  0  0
  126.7370  125.6780   58.4150 C   0  0  0  0  0  0  0  0  0  0  0  0
  128.0610  125.4340   58.0200 C   0  0  0  0  0  0  0  0  0  0  0  0
  128.4130  124.2070   57.4640 C   0  0  0  0  0  0  0  0  0  0  0  0
  127.4470  123.2190   57.3000 C   0  0  0  0  0  0  0  0  0  0  0  0
  126.1280  123.4460   57.6860 C   0  0  0  0  0  0  0  0  0  0  0  0
  125.7740  124.6720   58.2440 C   0  0  0  0  0  0  0  0  0  0  0  0
  125.9570  128.0100   58.3650 N   0  0  0  0  0  0  0  0  0  0  0  0
  125.6590  129.0100   59.3050 N   0  0  0  0  0  0  0  0  0  0  0  0
  126.7190  130.9260   58.1120 C   0  0  0  0  0  0  0  0  0  0  0  0
  127.8980  131.2590   58.6880 C   0  0  0  0  0  0  0  0  0  0  0  0
  129.1340  131.7410   58.0420 C   0  0  0  0  0  0  0  0  0  0  0  0
  130.3980  131.1900   58.2970 C   0  0  0  0  0  0  0  0  0  0  0  0
  131.5240  131.6980   57.6480 C   0  0  0  0  0  0  0  0  0  0  0  0
  131.3570  132.7580   56.7560 C   0  0  0  0  0  0  0  0  0  0  0  0
  130.1480  133.3160   56.4960 N   0  0  0  0  0  0  0  0  0  0  0  0
  129.0640  132.8070   57.1370 C   0  0  0  0  0  0  0  0  0  0  0  0
  126.3060  131.1020   56.4000 S   0  0  0  0  0  0  0  0  0  0  0  0
  1  2  2  0
  2  3  1  0
  4  3  1  6
  4  5  1  0
  5  6  1  0
  6  7  2  0
  7  8  1  0
  8  9  2  0
  9 10  1  0
 10 11  2  0
 11 12  1  0
 12 13  1  1
 13 14  1  0
 14 15  1  0
 15 16  2  0
 16 17  1  0
 17 18  2  0
 18 19  1  0
 19 20  2  0
 14 21  2  0
 21 22  1  0
  4 23  1  0
 23 24  2  0
 24 25  1  0
 25 26  2  0
 26 27  1  0
 27 28  2  0
 28 29  1  0
 29 30  2  0
 23 31  1  0
 31  2  1  0
 22  4  1  0
 30 25  1  0
 11  6  1  0
 22 12  1  0
 20 15  1  0
M  END
>  <Binding energies>  (75) 
[-9.41]

>  <Ligand effiencies>  (75) 
[-0.2940625]

>  <Interactions>  (75) 
["V-A:PRO:540:CD:4887, V-A:ILE:538:CG2:4863, V-A:ILE:538:CB:4862, V-B:ASP:366:CB:8183, V-A:TYR:539:CE1:4875, V-A:LEU:363:CD1:3189, V-A:TYR:539:CZ:4877, V-B:ASP:366:CG:8184, V-B:GLY:454:CA:9020, V-B:ASP:366:CA:8181, V-A:TYR:539:CD1:4873, V-A:PRO:540:N:4884, V-A:PRO:540:CB:4885, V-B:TYR:539:CZ:9849, V-B:PRO:540:CA:9855, V-B:TYR:539:CE2:9848, V-B:PRO:540:N:9856, V-B:PRO:540:CB:9857, H-A:TYR:539:OH:4878, H-B:TYR:531:OH:9767, H-A:TYR:539:N:4870, V-B:TYR:531:CZ:9766, V-B:TYR:531:CE1:9764, V-B:ARG:545:CZ:9898, H-B:ASP:366:O:8180, H-B:ASN:370:N:8215"]

$$$$
RR24_Rahimova_2017
     RDKit          3D

 43 49  0  0  0  0  0  0  0  0999 V2000
  132.7170  132.1370   58.1840 C   0  0  0  0  0  0  0  0  0  0  0  0
  131.2220  131.8300   58.0110 C   0  0  2  0  0  0  0  0  0  0  0  0
  130.5970  132.5120   56.7590 C   0  0  0  0  0  0  0  0  0  0  0  0
  130.8960  133.6600   56.4180 O   0  0  0  0  0  0  0  0  0  0  0  0
  129.6870  131.7120   56.1280 O   0  0  0  0  0  0  0  0  0  0  0  0
  128.8420  130.9230   56.8750 C   0  0  0  0  0  0  0  0  0  0  0  0
  129.3250  129.7370   57.4300 C   0  0  0  0  0  0  0  0  0  0  0  0
  128.4820  128.9360   58.1960 C   0  0  0  0  0  0  0  0  0  0  0  0
  127.1570  129.3210   58.4160 C   0  0  0  0  0  0  0  0  0  0  0  0
  126.2280  128.4250   59.2440 C   0  0  1  0  0  0  0  0  0  0  0  0
  126.6890  126.9490   59.2340 C   0  0  0  0  0  0  0  0  0  0  0  0
  126.8480  126.2280   60.3600 C   0  0  0  0  0  0  0  0  0  0  0  0
  126.6120  126.7550   61.6060 N   0  0  0  0  0  0  0  0  0  0  0  0
  126.1990  128.0570   61.7650 C   0  0  0  0  0  0  0  0  0  0  0  0
  126.0020  128.4190   63.0590 N   0  0  0  0  0  0  0  0  0  0  0  0
  125.6690  129.6900   63.4160 C   0  0  0  0  0  0  0  0  0  0  0  0
  125.8130  130.0430   64.5880 O   0  0  0  0  0  0  0  0  0  0  0  0
  125.3500  130.5120   62.3470 N   0  0  0  0  0  0  0  0  0  0  0  0
  124.8930  131.8760   62.6850 C   0  0  0  0  0  0  0  0  0  0  0  0
  125.5140  130.2460   60.9980 C   0  0  0  0  0  0  0  0  0  0  0  0
  125.2550  131.0500   60.0970 O   0  0  0  0  0  0  0  0  0  0  0  0
  126.0070  128.8950   60.7130 C   0  0  0  0  0  0  0  0  0  0  0  0
  127.2880  124.8780   60.0510 C   0  0  0  0  0  0  0  0  0  0  0  0
  127.5920  123.7720   60.8460 C   0  0  0  0  0  0  0  0  0  0  0  0
  127.9980  122.5840   60.2330 C   0  0  0  0  0  0  0  0  0  0  0  0
  128.0970  122.5070   58.8400 C   0  0  0  0  0  0  0  0  0  0  0  0
  127.7910  123.6190   58.0500 C   0  0  0  0  0  0  0  0  0  0  0  0
  127.3870  124.8040   58.6680 C   0  0  0  0  0  0  0  0  0  0  0  0
  127.0070  126.1080   58.0860 C   0  0  0  0  0  0  0  0  0  0  0  0
  126.9530  126.4580   56.9080 O   0  0  0  0  0  0  0  0  0  0  0  0
  126.6810  130.5200   57.8740 C   0  0  0  0  0  0  0  0  0  0  0  0
  127.5240  131.3220   57.1100 C   0  0  0  0  0  0  0  0  0  0  0  0
  130.4460  132.1060   59.2560 N   0  0  0  0  0  0  0  0  0  0  0  0
  130.7490  131.4950   60.4360 C   0  0  0  0  0  0  0  0  0  0  0  0
  131.6420  130.6710   60.6440 O   0  0  0  0  0  0  0  0  0  0  0  0
  129.7750  132.0310   61.4190 C   0  0  0  0  0  0  0  0  0  0  0  0
  129.6090  131.7630   62.7790 C   0  0  0  0  0  0  0  0  0  0  0  0
  128.5920  132.4280   63.4720 C   0  0  0  0  0  0  0  0  0  0  0  0
  127.7640  133.3420   62.8070 C   0  0  0  0  0  0  0  0  0  0  0  0
  127.9470  133.5970   61.4440 C   0  0  0  0  0  0  0  0  0  0  0  0
  128.9660  132.9230   60.7690 C   0  0  0  0  0  0  0  0  0  0  0  0
  129.4000  132.9830   59.3510 C   0  0  0  0  0  0  0  0  0  0  0  0
  128.9220  133.6780   58.4540 O   0  0  0  0  0  0  0  0  0  0  0  0
  2  1  1  1
  2  3  1  0
  3  4  2  0
  3  5  1  0
  5  6  1  0
  6  7  2  0
  7  8  1  0
  8  9  2  0
 10  9  1  1
 10 11  1  0
 11 12  2  0
 12 13  1  0
 13 14  1  0
 14 15  1  0
 15 16  1  0
 16 17  2  0
 16 18  1  0
 18 19  1  0
 18 20  1  0
 20 21  2  0
 20 22  1  0
 12 23  1  0
 23 24  2  0
 24 25  1  0
 25 26  2  0
 26 27  1  0
 27 28  2  0
 28 29  1  0
 29 30  2  0
  9 31  1  0
 31 32  2  0
  2 33  1  0
 33 34  1  0
 34 35  2  0
 34 36  1  0
 36 37  2  0
 37 38  1  0
 38 39  2  0
 39 40  1  0
 40 41  2  0
 41 42  1  0
 42 43  2  0
 32  6  1  0
 42 33  1  0
 22 10  1  0
 28 23  1  0
 41 36  1  0
 29 11  1  0
 22 14  2  0
M  END
>  <Binding energies>  (76) 
[-10.13]

>  <Ligand effiencies>  (76) 
[-0.22511111111111112]

>  <Interactions>  (76) 
["V-B:ASP:366:CB:8183, V-A:TYR:539:CE1:4875, V-A:LEU:363:CD1:3189, V-A:PRO:540:CA:4883, V-B:LEU:475:CD2:9230, V-B:ASP:366:CG:8184, V-A:MET:535:CE:4835, V-A:ALA:541:CB:4892, V-A:PRO:540:N:4884, V-A:PRO:540:CB:4885, V-A:TYR:539:C:4867, V-B:TYR:539:C:9839, V-B:PRO:540:C:9853, V-A:GLU:543:CD:4908, V-B:PRO:540:CA:9855, V-B:TYR:539:CE2:9848, V-B:PRO:540:N:9856, V-B:TYR:539:CD2:9846, V-B:TYR:539:CG:9844, V-B:GLU:543:CD:9880, V-A:GLU:543:CG:4907, H-B:GLU:543:OE1:9881, H-B:ASP:366:OD1:8185, H-B:GLU:543:OE2:9882, H-B:TYR:531:OH:9767, H-A:TYR:539:N:4870, V-A:PRO:540:CG:4886, V-B:ARG:545:CZ:9898, H-B:TYR:484:OH:9319"]

$$$$
RR25_Rahimova_2017
     RDKit          3D

 39 44  0  0  0  0  0  0  0  0999 V2000
  126.8510  123.3870   61.5090 O   0  0  0  0  0  0  0  0  0  0  0  0
  127.8310  123.9700   61.9730 C   0  0  0  0  0  0  0  0  0  0  0  0
  128.6160  123.2460   62.8360 O   0  0  0  0  0  0  0  0  0  0  0  0
  129.8650  123.6940   63.2240 C   0  0  0  0  0  0  0  0  0  0  0  0
  130.7870  122.7230   63.6120 C   0  0  0  0  0  0  0  0  0  0  0  0
  132.0630  123.1050   64.0230 C   0  0  0  0  0  0  0  0  0  0  0  0
  132.4330  124.4580   64.0560 C   0  0  0  0  0  0  0  0  0  0  0  0
  133.7940  124.8610   64.4870 N   0  0  0  0  0  0  0  0  0  0  0  0
  134.0150  124.9970   65.6880 O   0  0  0  0  0  0  0  0  0  0  0  0
  134.6520  125.0440   63.6280 O   0  0  0  0  0  0  0  0  0  0  0  0
  131.4850  125.4210   63.6730 C   0  0  0  0  0  0  0  0  0  0  0  0
  130.1990  125.0560   63.2660 C   0  0  0  0  0  0  0  0  0  0  0  0
  129.1440  126.0570   62.8330 C   0  0  0  0  0  0  0  0  0  0  0  0
  128.2690  125.4400   61.7050 C   0  0  2  0  0  0  0  0  0  0  0  0
  127.1130  126.4020   61.3030 C   0  0  0  0  0  0  0  0  0  0  0  0
  126.0470  125.8660   60.9860 O   0  0  0  0  0  0  0  0  0  0  0  0
  127.2240  127.7600   61.4150 N   0  0  0  0  0  0  0  0  0  0  0  0
  128.5280  128.4540   61.4820 C   0  0  0  0  0  0  0  0  0  0  0  0
  128.4100  129.6510   62.4490 C   0  0  0  0  0  0  0  0  0  0  0  0
  127.3110  130.5410   62.0670 N   0  0  0  0  0  0  0  0  0  0  0  0
  127.2800  131.7480   62.9050 C   0  0  0  0  0  0  0  0  0  0  0  0
  128.4740  132.7020   62.6310 C   0  0  0  0  0  0  0  0  0  0  0  0
  129.1520  132.5420   61.3110 N   0  0  0  0  0  0  0  0  0  0  0  0
  130.4580  132.1030   61.3690 C   0  0  0  0  0  0  0  0  0  0  0  0
  131.0520  131.8860   62.4320 O   0  0  0  0  0  0  0  0  0  0  0  0
  131.1100  131.8830   60.0180 C   0  0  0  0  0  0  0  0  0  0  0  0
  132.4280  131.4110   59.9600 C   0  0  0  0  0  0  0  0  0  0  0  0
  133.0570  131.1910   58.7350 C   0  0  0  0  0  0  0  0  0  0  0  0
  132.3900  131.4290   57.5350 C   0  0  0  0  0  0  0  0  0  0  0  0
  131.0570  131.9060   57.5440 C   0  0  0  0  0  0  0  0  0  0  0  0
  130.3220  132.1680   56.3640 C   0  0  0  0  0  0  0  0  0  0  0  0
  129.0110  132.6330   56.4450 C   0  0  0  0  0  0  0  0  0  0  0  0
  128.4030  132.8500   57.6800 C   0  0  0  0  0  0  0  0  0  0  0  0
  129.0920  132.6050   58.8750 C   0  0  0  0  0  0  0  0  0  0  0  0
  130.4270  132.1300   58.8000 C   0  0  0  0  0  0  0  0  0  0  0  0
  128.3930  132.8440   60.1990 C   0  0  0  0  0  0  0  0  0  0  0  0
  127.2320  133.2610   60.2610 O   0  0  0  0  0  0  0  0  0  0  0  0
  126.0410  129.8150   62.1200 C   0  0  0  0  0  0  0  0  0  0  0  0
  126.0350  128.6040   61.1560 C   0  0  0  0  0  0  0  0  0  0  0  0
  1  2  2  0
  2  3  1  0
  3  4  1  0
  4  5  2  0
  5  6  1  0
  6  7  2  0
  7  8  1  0
  8  9  2  0
  8 10  1  0
  7 11  1  0
 11 12  2  0
 12 13  1  0
 13 14  1  0
 14 15  1  1
 15 16  2  0
 15 17  1  0
 17 18  1  0
 18 19  1  0
 19 20  1  0
 20 21  1  0
 21 22  1  0
 22 23  1  0
 23 24  1  0
 24 25  2  0
 24 26  1  0
 26 27  2  0
 27 28  1  0
 28 29  2  0
 29 30  1  0
 30 31  2  0
 31 32  1  0
 32 33  2  0
 33 34  1  0
 34 35  2  0
 34 36  1  0
 36 37  2  0
 20 38  1  0
 38 39  1  0
 14  2  1  0
 39 17  1  0
 12  4  1  0
 36 23  1  0
 35 26  1  0
 35 30  1  0
M  CHG  2   8   1  10  -1
M  END
>  <Binding energies>  (77) 
[-10.39]

>  <Ligand effiencies>  (77) 
[-0.26641025641025645]

>  <Interactions>  (77) 
["H-A:ALA:541:N:4891, V-A:TYR:539:CE1:4875, V-A:LEU:363:CD1:3189, V-A:TYR:539:CZ:4877, V-A:PRO:540:CA:4883, V-B:ASP:366:CG:8184, V-A:MET:535:CE:4835, V-A:TYR:539:CD1:4873, V-A:ALA:541:CB:4892, V-A:PRO:540:N:4884, V-A:PRO:540:CB:4885, V-A:TYR:539:C:4867, V-A:GLY:454:CA:4049, V-A:GLY:453:C:4042, H-A:ARG:545:NE:4924, H-A:GLY:454:N:4050, H-A:TYR:484:OH:4348, V-A:ASP:366:CB:3212, V-A:ASP:366:CG:3213, V-A:ARG:545:CZ:4926, V-A:TYR:539:CG:4872, V-B:GLU:543:CD:9880, H-B:ALA:541:N:9863, V-B:GLU:543:CG:9879, V-A:LEU:475:CD2:4259, V-A:PRO:540:C:4881, V-A:LEU:363:CA:3185, V-A:GLY:453:CA:4044, H-A:ARG:545:NH2:4928, H-B:ARG:545:NH2:9900, H-A:ARG:545:NH1:4927"]

$$$$
RR27_Rahimova_2017
     RDKit          3D

 39 44  0  0  0  0  0  0  0  0999 V2000
  126.2980  127.0470   58.3940 O   0  0  0  0  0  0  0  0  0  0  0  0
  127.2390  127.2290   57.6160 C   0  0  0  0  0  0  0  0  0  0  0  0
  128.0480  125.9890   57.1330 C   0  0  0  0  0  0  0  0  0  0  0  0
  127.1750  124.7360   56.9370 C   0  0  0  0  0  0  0  0  0  0  0  0
  125.7920  124.7530   57.1740 C   0  0  0  0  0  0  0  0  0  0  0  0
  125.0320  123.6020   56.9850 C   0  0  0  0  0  0  0  0  0  0  0  0
  125.6500  122.4300   56.5590 C   0  0  0  0  0  0  0  0  0  0  0  0
  127.0210  122.3970   56.3230 C   0  0  0  0  0  0  0  0  0  0  0  0
  127.7810  123.5480   56.5120 C   0  0  0  0  0  0  0  0  0  0  0  0
  129.3170  125.7710   57.9790 C   0  0  0  0  0  0  0  0  0  0  0  0
  129.2520  125.3020   59.2980 C   0  0  0  0  0  0  0  0  0  0  0  0
  130.4190  125.1270   60.0380 C   0  0  0  0  0  0  0  0  0  0  0  0
  131.6520  125.4240   59.4650 C   0  0  0  0  0  0  0  0  0  0  0  0
  131.7310  125.9000   58.1590 C   0  0  0  0  0  0  0  0  0  0  0  0
  130.5650  126.0760   57.4210 C   0  0  0  0  0  0  0  0  0  0  0  0
  127.4840  128.4510   57.0620 N   0  0  0  0  0  0  0  0  0  0  0  0
  128.7220  128.7810   56.3410 C   0  0  0  0  0  0  0  0  0  0  0  0
  129.7390  129.2670   57.3970 C   0  0  0  0  0  0  0  0  0  0  0  0
  129.1950  130.4490   58.2600 C   0  0  0  0  0  0  0  0  0  0  0  0
  130.1260  130.8970   59.4020 C   0  0  0  0  0  0  0  0  0  0  0  0
  131.4590  130.9480   59.1140 N   0  0  0  0  0  0  0  0  0  0  0  0
  132.3230  131.3640   60.0820 C   0  0  0  0  0  0  0  0  0  0  0  0
  133.6790  131.4610   59.9120 O   0  0  0  0  0  0  0  0  0  0  0  0
  131.8050  131.7220   61.3410 C   0  0  0  0  0  0  0  0  0  0  0  0
  132.3710  132.1730   62.4980 N   0  0  0  0  0  0  0  0  0  0  0  0
  131.3500  132.3500   63.4130 N   0  0  0  0  0  0  0  0  0  0  0  0
  130.1790  132.0230   62.8270 N   0  0  0  0  0  0  0  0  0  0  0  0
  128.9290  132.0950   63.5800 C   0  0  0  0  0  0  0  0  0  0  0  0
  127.8200  132.8460   62.8560 C   0  0  0  0  0  0  0  0  0  0  0  0
  128.1290  133.9280   62.0250 C   0  0  0  0  0  0  0  0  0  0  0  0
  127.1130  134.6100   61.3530 C   0  0  0  0  0  0  0  0  0  0  0  0
  125.7860  134.2100   61.5030 C   0  0  0  0  0  0  0  0  0  0  0  0
  125.4720  133.1250   62.3220 C   0  0  0  0  0  0  0  0  0  0  0  0
  123.8310  132.6110   62.4880 Cl  0  0  0  0  0  0  0  0  0  0  0  0
  126.4860  132.4480   63.0010 C   0  0  0  0  0  0  0  0  0  0  0  0
  130.4100  131.6170   61.5240 C   0  0  0  0  0  0  0  0  0  0  0  0
  129.5420  131.2050   60.5960 N   0  0  0  0  0  0  0  0  0  0  0  0
  127.7240  130.2060   58.7210 C   0  0  0  0  0  0  0  0  0  0  0  0
  126.8170  129.6500   57.5940 C   0  0  0  0  0  0  0  0  0  0  0  0
  1  2  2  0
  2  3  1  0
  3  4  1  0
  4  5  2  0
  5  6  1  0
  6  7  2  0
  7  8  1  0
  8  9  2  0
  3 10  1  0
 10 11  2  0
 11 12  1  0
 12 13  2  0
 13 14  1  0
 14 15  2  0
  2 16  1  0
 16 17  1  0
 17 18  1  0
 18 19  1  0
 19 20  1  0
 20 21  2  0
 21 22  1  0
 22 23  1  0
 22 24  2  0
 24 25  1  0
 25 26  2  0
 26 27  1  0
 27 28  1  0
 28 29  1  0
 29 30  2  0
 30 31  1  0
 31 32  2  0
 32 33  1  0
 33 34  1  0
 33 35  2  0
 27 36  1  0
 36 37  2  0
 19 38  1  0
 38 39  1  0
  9  4  1  0
 15 10  1  0
 39 16  1  0
 37 20  1  0
 36 24  1  0
 35 29  1  0
M  END
>  <Binding energies>  (78) 
[-10.02]

>  <Ligand effiencies>  (78) 
[-0.2505]

>  <Interactions>  (78) 
["H-A:ALA:541:N:4891, V-A:TYR:539:CE1:4875, V-A:PRO:540:CA:4883, V-B:LEU:475:CD2:9230, V-B:GLY:454:CA:9020, V-A:MET:535:CE:4835, V-A:TYR:539:CD1:4873, V-A:ALA:541:CB:4892, V-A:PRO:540:CB:4885, V-B:TYR:539:C:9839, V-A:GLU:543:CD:4908, V-B:TYR:539:CZ:9849, V-B:PRO:540:CA:9855, V-B:TYR:539:CE2:9848, V-B:PRO:540:N:9856, V-A:ASP:366:CB:3212, V-B:TYR:539:CE1:9847, V-B:PRO:540:CB:9857, V-B:TYR:539:CD1:9845, V-B:TYR:539:CG:9844, V-A:GLU:543:CG:4907, V-A:ALA:541:CA:4890, V-B:MET:535:CE:9807, V-B:PRO:540:CD:9859, H-B:TYR:531:OH:9767, V-B:LEU:363:CD1:8160, V-B:TYR:531:CE2:9765, H-A:LEU:363:N:3186, V-B:ILE:538:CG2:9835, H-A:ASP:366:OD2:3215, H-A:ASN:362:O:3173"]

$$$$
RR28_Rahimova_2017
     RDKit          3D

 46 49  0  0  0  0  0  0  0  0999 V2000
  133.6220  124.4460   62.9990 C   0  0  0  0  0  0  0  0  0  0  0  0
  132.1990  124.9920   62.9920 C   0  0  0  0  0  0  0  0  0  0  0  0
  131.9100  125.9250   62.2450 O   0  0  0  0  0  0  0  0  0  0  0  0
  131.3260  124.3970   63.8310 N   0  0  0  0  0  0  0  0  0  0  0  0
  129.8960  124.7170   64.0430 C   0  0  0  0  0  0  0  0  0  0  0  0
  129.7710  125.5410   65.3570 C   0  0  0  0  0  0  0  0  0  0  0  0
  130.3900  125.0700   66.5260 C   0  0  0  0  0  0  0  0  0  0  0  0
  130.2960  125.7780   67.7190 C   0  0  0  0  0  0  0  0  0  0  0  0
  129.5790  126.9750   67.7730 C   0  0  0  0  0  0  0  0  0  0  0  0
  129.4820  127.7360   69.0950 C   0  0  0  0  0  0  0  0  0  0  0  0
  128.9090  128.9330   68.9490 F   0  0  0  0  0  0  0  0  0  0  0  0
  128.7660  127.0410   69.9780 F   0  0  0  0  0  0  0  0  0  0  0  0
  130.7080  127.9190   69.5860 F   0  0  0  0  0  0  0  0  0  0  0  0
  128.9570  127.4530   66.6170 C   0  0  0  0  0  0  0  0  0  0  0  0
  129.0520  126.7440   65.4230 C   0  0  0  0  0  0  0  0  0  0  0  0
  129.0320  123.4050   64.0350 C   0  0  0  0  0  0  0  0  0  0  0  0
  129.0140  122.6920   62.6590 C   0  0  0  0  0  0  0  0  0  0  0  0
  128.4760  123.6640   61.6930 N   0  0  0  0  0  0  0  0  0  0  0  0
  127.1460  123.6810   61.4030 C   0  0  0  0  0  0  0  0  0  0  0  0
  126.3800  122.7980   61.7940 O   0  0  0  0  0  0  0  0  0  0  0  0
  126.6090  124.7480   60.4190 C   0  0  0  0  0  0  0  0  0  0  0  0
  126.0730  124.2130   59.0630 C   0  0  0  0  0  0  0  0  0  0  0  0
  127.0270  124.3990   57.8600 C   0  0  0  0  0  0  0  0  0  0  0  0
  127.2480  123.4210   57.1400 O   0  0  0  0  0  0  0  0  0  0  0  0
  127.4830  125.6440   57.5450 N   0  0  0  0  0  0  0  0  0  0  0  0
  127.5220  126.7550   58.5030 C   0  0  0  0  0  0  0  0  0  0  0  0
  128.8490  126.6200   59.2820 C   0  0  0  0  0  0  0  0  0  0  0  0
  130.1360  126.6010   58.3860 C   0  0  0  0  0  0  0  0  0  0  0  0
  131.2690  126.0750   59.1760 N   0  0  0  0  0  0  0  0  0  0  0  0
  132.4130  125.5230   58.7240 C   0  0  0  0  0  0  0  0  0  0  0  0
  133.4000  125.0490   59.7860 C   0  0  0  0  0  0  0  0  0  0  0  0
  132.6890  125.3870   57.5330 O   0  0  0  0  0  0  0  0  0  0  0  0
  130.4690  128.0820   58.0130 C   0  0  0  0  0  0  0  0  0  0  0  0
  131.6360  128.7330   58.4480 C   0  0  0  0  0  0  0  0  0  0  0  0
  131.8950  130.0530   58.0920 C   0  0  0  0  0  0  0  0  0  0  0  0
  130.9930  130.7590   57.2940 C   0  0  0  0  0  0  0  0  0  0  0  0
  131.2660  132.2080   56.8910 C   0  0  0  0  0  0  0  0  0  0  0  0
  130.2110  132.9790   57.1650 F   0  0  0  0  0  0  0  0  0  0  0  0
  132.3140  132.6620   57.5770 F   0  0  0  0  0  0  0  0  0  0  0  0
  131.5330  132.3270   55.5890 F   0  0  0  0  0  0  0  0  0  0  0  0
  129.8250  130.1290   56.8600 C   0  0  0  0  0  0  0  0  0  0  0  0
  129.5690  128.8090   57.2170 C   0  0  0  0  0  0  0  0  0  0  0  0
  129.8720  125.6870   57.1260 C   0  0  0  0  0  0  0  0  0  0  0  0
  128.4700  125.8180   56.4720 C   0  0  0  0  0  0  0  0  0  0  0  0
  129.3450  124.8330   61.4980 C   0  0  0  0  0  0  0  0  0  0  0  0
  129.3950  125.5930   62.8490 C   0  0  0  0  0  0  0  0  0  0  0  0
  1  2  1  0
  2  3  2  0
  2  4  1  0
  4  5  1  0
  5  6  1  0
  6  7  2  0
  7  8  1  0
  8  9  2  0
  9 10  1  0
 10 11  1  0
 10 12  1  0
 10 13  1  0
  9 14  1  0
 14 15  2  0
  5 16  1  0
 16 17  1  0
 17 18  1  0
 18 19  1  0
 19 20  2  0
 19 21  1  0
 21 22  1  0
 22 23  1  0
 23 24  2  0
 23 25  1  0
 25 26  1  0
 26 27  1  0
 27 28  1  0
 28 29  1  0
 29 30  1  0
 30 31  1  0
 30 32  2  0
 28 33  1  0
 33 34  2  0
 34 35  1  0
 35 36  2  0
 36 37  1  0
 37 38  1  0
 37 39  1  0
 37 40  1  0
 36 41  1  0
 41 42  2  0
 28 43  1  0
 43 44  1  0
 18 45  1  0
 45 46  1  0
 46  5  1  0
 15  6  1  0
 44 25  1  0
 42 33  1  0
M  END
>  <Binding energies>  (79) 
[-9.03]

>  <Ligand effiencies>  (79) 
[-0.188125]

>  <Interactions>  (79) 
["V-A:PRO:540:CD:4887, V-A:ILE:538:CG2:4863, H-A:TYR:531:OH:4795, V-A:ILE:538:CB:4862, V-A:LEU:363:CD1:3189, V-A:PRO:540:CA:4883, V-A:ILE:538:CA:4860, V-A:MET:535:CE:4835, V-A:PRO:540:N:4884, V-A:PRO:540:CB:4885, V-A:TYR:539:C:4867, V-A:GLU:543:CD:4908, V-B:TYR:539:CZ:9849, V-B:PRO:540:CA:9855, V-A:ASP:366:CA:3210, H-A:TYR:484:OH:4348, V-A:ASP:366:CB:3212, V-A:ASP:366:CG:3213, V-B:PRO:540:CB:9857, H-B:TYR:539:OH:9850, V-A:ARG:545:CZ:4926, V-A:TYR:484:CZ:4347, V-B:GLU:543:CD:9880, V-B:HIS:456:CE1:9041, V-A:HIS:456:CE1:4070, H-B:ALA:541:N:9863, V-B:GLU:543:CG:9879, V-B:ALA:541:CB:9864, V-A:GLU:543:C:4902, V-B:GLU:543:CB:9878, V-A:TYR:484:CE2:4346, V-A:GLU:543:CB:4906, V-A:GLU:543:CA:4904, V-A:GLU:543:CG:4907, V-A:PRO:540:CG:4886, H-A:ARG:545:NH2:4928"]

$$$$
RR29_Rahimova_2017
     RDKit          3D

 18 19  0  0  0  0  0  0  0  0999 V2000
  127.8590  133.3400   63.2100 C   0  0  0  0  0  0  0  0  0  0  0  0
  128.5200  132.0260   63.5970 C   0  0  0  0  0  0  0  0  0  0  0  0
  129.9100  131.8360   62.9510 C   0  0  0  0  0  0  0  0  0  0  0  0
  129.8540  130.8690   61.7500 C   0  0  0  0  0  0  0  0  0  0  0  0
  129.9600  131.5950   60.4180 C   0  0  0  0  0  0  0  0  0  0  0  0
  128.9030  132.4160   59.9780 C   0  0  0  0  0  0  0  0  0  0  0  0
  128.9810  133.0960   58.7540 C   0  0  0  0  0  0  0  0  0  0  0  0
  130.1300  132.9190   57.9930 C   0  0  0  0  0  0  0  0  0  0  0  0
  131.1570  132.1220   58.4130 C   0  0  0  0  0  0  0  0  0  0  0  0
  131.1120  131.4440   59.6270 C   0  0  0  0  0  0  0  0  0  0  0  0
  132.1600  132.1590   57.4960 O   0  0  0  0  0  0  0  0  0  0  0  0
  131.6330  132.8370   56.3860 C   0  0  0  0  0  0  0  0  0  0  0  0
  130.4560  133.4810   56.7990 O   0  0  0  0  0  0  0  0  0  0  0  0
  127.8910  131.2290   64.3800 N   0  0  0  0  0  0  0  0  0  0  0  0
  128.4490  130.0020   64.6640 N   0  0  0  0  0  0  0  0  0  0  0  0
  127.8510  129.0590   65.4090 C   0  0  0  0  0  0  0  0  0  0  0  0
  126.6390  129.1730   65.9550 N   0  0  0  0  0  0  0  0  0  0  0  0
  128.5110  127.9290   65.6190 N   0  0  0  0  0  0  0  0  0  0  0  0
  1  2  1  0
  2  3  1  0
  3  4  1  0
  4  5  1  0
  5  6  2  0
  6  7  1  0
  7  8  2  0
  8  9  1  0
  9 10  2  0
  9 11  1  0
 11 12  1  0
 12 13  1  0
  2 14  2  0
 14 15  1  0
 15 16  1  0
 16 17  1  0
 16 18  2  0
 10  5  1  0
 13  8  1  0
M  CHG  1  18   1
M  END
>  <Binding energies>  (80) 
[-7.36]

>  <Ligand effiencies>  (80) 
[-0.32]

>  <Interactions>  (80) 
["V-A:PRO:540:CD:4887, V-A:ILE:538:CG2:4863, V-A:ILE:538:CB:4862, V-A:TYR:539:CE1:4875, V-A:LEU:363:CD1:3189, V-A:PRO:540:CA:4883, V-B:LEU:475:CD2:9230, V-A:ILE:538:CA:4860, V-A:TYR:539:CD1:4873, V-A:ALA:541:CB:4892, V-A:PRO:540:N:4884, V-A:PRO:540:CB:4885, V-A:TYR:539:C:4867, V-A:GLU:543:CD:4908, V-B:GLU:543:CD:9880, V-B:HIS:456:CE1:9041, V-A:GLU:543:CG:4907, H-B:GLU:543:OE1:9881, H-B:GLU:543:OE2:9882, H-A:TYR:539:N:4870, H-A:GLU:543:OE1:4909, H-B:TYR:484:OH:9319, V-B:TYR:484:CZ:9318, H-A:GLU:543:OE2:4910"]

$$$$
RR30_Rahimova_2017
     RDKit          3D

 18 19  0  0  0  0  0  0  0  0999 V2000
  133.8720  131.8030   61.3710 C   0  0  0  0  0  0  0  0  0  0  0  0
  132.4880  131.4040   60.8380 C   0  0  0  0  0  0  0  0  0  0  0  0
  131.3660  131.9560   61.6900 C   0  0  0  0  0  0  0  0  0  0  0  0
  131.2350  131.9020   62.9920 N   0  0  0  0  0  0  0  0  0  0  0  0
  130.0330  132.5430   63.2820 N   0  0  0  0  0  0  0  0  0  0  0  0
  129.5380  132.9200   62.1310 C   0  0  0  0  0  0  0  0  0  0  0  0
  128.0340  133.7970   61.8430 S   0  0  0  0  0  0  0  0  0  0  0  0
  127.0990  132.5240   60.9370 C   0  0  0  0  0  0  0  0  0  0  0  0
  127.6980  132.2370   59.5570 C   0  0  0  0  0  0  0  0  0  0  0  0
  127.2490  131.3050   58.8870 O   0  0  0  0  0  0  0  0  0  0  0  0
  128.7270  133.0310   59.1840 N   0  0  0  0  0  0  0  0  0  0  0  0
  129.4280  132.9630   57.9890 C   0  0  0  0  0  0  0  0  0  0  0  0
  129.1910  133.6070   56.8690 N   0  0  0  0  0  0  0  0  0  0  0  0
  130.1060  133.2880   55.8730 N   0  0  0  0  0  0  0  0  0  0  0  0
  131.0100  132.4160   56.2560 C   0  0  0  0  0  0  0  0  0  0  0  0
  132.1090  131.9100   55.3500 C   0  0  0  0  0  0  0  0  0  0  0  0
  130.8060  131.9090   57.9100 S   0  0  0  0  0  0  0  0  0  0  0  0
  130.3300  132.5860   61.0810 O   0  0  0  0  0  0  0  0  0  0  0  0
  1  2  1  0
  2  3  1  0
  3  4  2  0
  4  5  1  0
  5  6  2  0
  6  7  1  0
  7  8  1  0
  8  9  1  0
  9 10  2  0
  9 11  1  0
 11 12  1  0
 12 13  2  0
 13 14  1  0
 14 15  2  0
 15 16  1  0
 15 17  1  0
  6 18  1  0
 18  3  1  0
 17 12  1  0
M  END
>  <Binding energies>  (81) 
[-6.67]

>  <Ligand effiencies>  (81) 
[-0.35105263157894734]

>  <Interactions>  (81) 
["H-A:ALA:541:N:4891, V-A:ILE:538:CG2:4863, V-A:ILE:538:CB:4862, V-A:TYR:539:CE1:4875, V-A:LEU:363:CD1:3189, V-A:TYR:531:CZ:4794, V-A:TYR:531:CE2:4793, V-A:PRO:540:CA:4883, V-A:MET:535:CE:4835, V-A:TYR:539:CD1:4873, V-A:ALA:541:CB:4892, V-A:PRO:540:N:4884, V-A:PRO:540:CB:4885, V-A:TYR:539:C:4867, V-A:ALA:541:CA:4890, V-A:ASN:362:CB:3176, H-A:TYR:539:N:4870, V-A:PRO:540:C:4881, V-A:LEU:363:CA:3185, V-A:ASN:362:C:3172, H-A:TYR:539:O:4868, V-A:ASN:362:CA:3174"]

$$$$
RR31_Rahimova_2017
     RDKit          3D

 18 19  0  0  0  0  0  0  0  0999 V2000
  122.5910  131.0530   60.9560 C   0  0  0  0  0  0  0  0  0  0  0  0
  123.9410  131.3360   60.3110 C   0  0  0  0  0  0  0  0  0  0  0  0
  124.2870  130.6680   59.1350 C   0  0  0  0  0  0  0  0  0  0  0  0
  125.5130  130.9080   58.5190 C   0  0  0  0  0  0  0  0  0  0  0  0
  126.4280  131.8290   59.0540 C   0  0  0  0  0  0  0  0  0  0  0  0
  127.6650  132.0720   58.4530 N   0  0  0  0  0  0  0  0  0  0  0  0
  127.7940  132.3250   57.0050 C   0  0  0  0  0  0  0  0  0  0  0  0
  129.2340  132.1620   56.4630 C   0  0  0  0  0  0  0  0  0  0  0  0
  130.1690  133.0200   57.1950 N   0  0  0  0  0  0  0  0  0  0  0  0
  131.5380  132.9150   56.6800 C   0  0  0  0  0  0  0  0  0  0  0  0
  131.9850  131.4570   56.4510 C   0  0  0  0  0  0  0  0  0  0  0  0
  132.8140  130.9100   57.6230 C   0  0  0  0  0  0  0  0  0  0  0  0
  132.5610  129.4080   57.7890 N   0  0  0  0  0  0  0  0  0  0  0  0
  130.1370  132.6050   58.5970 C   0  0  0  0  0  0  0  0  0  0  0  0
  128.7230  132.7900   59.1920 C   0  0  0  0  0  0  0  0  0  0  0  0
  126.0710  132.4870   60.2410 C   0  0  0  0  0  0  0  0  0  0  0  0
  124.8430  132.2540   60.8710 C   0  0  0  0  0  0  0  0  0  0  0  0
  124.5170  132.9990   62.1600 C   0  0  0  0  0  0  0  0  0  0  0  0
  1  2  1  0
  2  3  2  0
  3  4  1  0
  4  5  2  0
  5  6  1  0
  6  7  1  0
  7  8  1  0
  8  9  1  0
  9 10  1  0
 10 11  1  0
 11 12  1  0
 12 13  1  0
  9 14  1  0
 14 15  1  0
  5 16  1  0
 16 17  2  0
 17 18  1  0
 17  2  1  0
 15  6  1  0
M  CHG  1  13   1
M  END
>  <Binding energies>  (82) 
[-6.64]

>  <Ligand effiencies>  (82) 
[-0.3161904761904762]

>  <Interactions>  (82) 
["V-A:PRO:540:CD:4887, V-B:ILE:369:CG1:8209, V-A:ILE:538:CG2:4863, H-A:TYR:531:OH:4795, V-A:ILE:538:CB:4862, V-B:ASP:366:CB:8183, V-B:ILE:369:CB:8207, V-A:TYR:539:CE1:4875, V-A:LEU:363:CD1:3189, V-A:TYR:539:CZ:4877, V-A:TYR:531:CZ:4794, V-A:TYR:531:CE2:4793, V-B:ILE:369:CG2:8208, V-A:PRO:540:CA:4883, V-B:ASP:366:CG:8184, V-A:ILE:538:CA:4860, V-A:MET:535:CE:4835, V-B:ASP:366:CA:8181, V-A:TYR:539:CD1:4873, V-A:PRO:540:N:4884, V-A:PRO:540:CB:4885, V-A:TYR:539:C:4867, V-A:ASP:366:CB:3212, V-A:ASP:366:CG:3213, H-A:TYR:539:N:4870, H-A:ASP:366:OD2:3215"]

$$$$
RR32_Rahimova_2017
     RDKit          3D

 18 20  0  0  0  0  0  0  0  0999 V2000
  123.5870  132.3890   61.7400 C   0  0  0  0  0  0  0  0  0  0  0  0
  124.8590  133.2180   61.5990 C   0  0  0  0  0  0  0  0  0  0  0  0
  126.0880  132.5660   61.7140 C   0  0  0  0  0  0  0  0  0  0  0  0
  127.2700  133.2890   61.5880 C   0  0  0  0  0  0  0  0  0  0  0  0
  128.4860  132.6390   61.7020 N   0  0  0  0  0  0  0  0  0  0  0  0
  129.4460  132.8020   60.5960 C   0  0  0  0  0  0  0  0  0  0  0  0
  130.6940  131.8970   60.7310 C   0  0  0  0  0  0  0  0  0  0  0  0
  131.3830  132.1710   61.9910 N   0  0  0  0  0  0  0  0  0  0  0  0
  132.5770  131.3410   62.1040 C   0  0  0  0  0  0  0  0  0  0  0  0
  130.4580  131.8810   63.0840 C   0  0  0  0  0  0  0  0  0  0  0  0
  129.2060  132.7820   62.9830 C   0  0  0  0  0  0  0  0  0  0  0  0
  127.2880  134.6270   61.3560 N   0  0  0  0  0  0  0  0  0  0  0  0
  126.1060  135.2920   61.2420 C   0  0  0  0  0  0  0  0  0  0  0  0
  126.1550  136.6870   61.0030 C   0  0  0  0  0  0  0  0  0  0  0  0
  124.9790  137.4180   60.8780 C   0  0  0  0  0  0  0  0  0  0  0  0
  123.7440  136.7900   60.9850 C   0  0  0  0  0  0  0  0  0  0  0  0
  123.6610  135.4200   61.2190 C   0  0  0  0  0  0  0  0  0  0  0  0
  124.8400  134.6310   61.3560 C   0  0  0  0  0  0  0  0  0  0  0  0
  1  2  1  0
  2  3  2  0
  3  4  1  0
  4  5  1  0
  5  6  1  0
  6  7  1  0
  7  8  1  0
  8  9  1  0
  8 10  1  0
 10 11  1  0
  4 12  2  0
 12 13  1  0
 13 14  2  0
 14 15  1  0
 15 16  2  0
 16 17  1  0
 17 18  2  0
 18  2  1  0
 11  5  1  0
 18 13  1  0
M  END
>  <Binding energies>  (83) 
[-6.37]

>  <Ligand effiencies>  (83) 
[-0.3538888888888889]

>  <Interactions>  (83) 
["V-B:ILE:369:CG1:8209, H-A:ALA:541:N:4891, V-B:SER:385:CA:8378, V-A:TYR:539:CE1:4875, V-B:ILE:369:CG2:8208, V-A:PRO:540:CA:4883, V-B:LEU:475:CD2:9230, V-B:LEU:373:CD1:8251, V-B:SER:385:CB:8380, V-A:TYR:539:CD1:4873, V-A:ALA:541:CB:4892, V-A:PRO:540:N:4884, V-A:PRO:540:CB:4885, V-A:TYR:539:C:4867, V-A:GLU:543:CD:4908, V-A:GLU:543:CG:4907, V-A:ALA:541:CA:4890, V-A:ASN:362:CB:3176, V-A:PRO:540:C:4881, V-B:SER:385:C:8376, V-B:HIS:383:CD2:8363, V-A:TYR:539:CB:4871"]

$$$$
RR5_Rahimova_2017
     RDKit          3D

 45 50  0  0  0  0  0  0  0  0999 V2000
  128.6670  132.3730   60.6220 O   0  0  0  0  0  0  0  0  0  0  0  0
  128.5000  131.1560   60.6820 C   0  0  0  0  0  0  0  0  0  0  0  0
  127.4050  130.5800   61.6000 C   0  0  0  0  0  0  0  0  0  0  0  0
  127.9470  129.6130   62.7110 C   0  0  2  0  0  0  0  0  0  0  0  0
  127.6440  128.1830   62.4960 N   0  0  0  0  0  0  0  0  0  0  0  0
  128.4080  127.3980   61.6440 C   0  0  0  0  0  0  0  0  0  0  0  0
  129.4150  127.7500   61.0230 O   0  0  0  0  0  0  0  0  0  0  0  0
  127.8580  126.1730   61.5890 O   0  0  0  0  0  0  0  0  0  0  0  0
  126.6890  125.9170   60.8160 C   0  0  0  0  0  0  0  0  0  0  0  0
  126.4760  124.3980   60.6290 C   0  0  0  0  0  0  0  0  0  0  0  0
  126.4090  123.9670   59.1750 C   0  0  0  0  0  0  0  0  0  0  0  0
  125.5390  124.3830   58.1630 C   0  0  0  0  0  0  0  0  0  0  0  0
  125.6730  123.8640   56.8740 C   0  0  0  0  0  0  0  0  0  0  0  0
  126.6730  122.9310   56.5950 C   0  0  0  0  0  0  0  0  0  0  0  0
  127.5410  122.5120   57.6040 C   0  0  0  0  0  0  0  0  0  0  0  0
  127.4050  123.0310   58.8930 C   0  0  0  0  0  0  0  0  0  0  0  0
  128.1600  122.7680   60.1280 C   0  0  0  0  0  0  0  0  0  0  0  0
  129.2350  121.9130   60.3840 C   0  0  0  0  0  0  0  0  0  0  0  0
  129.7620  121.8340   61.6730 C   0  0  0  0  0  0  0  0  0  0  0  0
  129.2190  122.6080   62.7010 C   0  0  0  0  0  0  0  0  0  0  0  0
  128.1480  123.4630   62.4400 C   0  0  0  0  0  0  0  0  0  0  0  0
  127.6190  123.5480   61.1500 C   0  0  0  0  0  0  0  0  0  0  0  0
  127.4440  130.0470   64.1110 C   0  0  0  0  0  0  0  0  0  0  0  0
  127.8810  130.9890   64.7410 O   0  0  0  0  0  0  0  0  0  0  0  0
  126.4300  129.2240   64.5100 O   0  0  0  0  0  0  0  0  0  0  0  0
  129.1960  130.2460   59.9650 N   0  0  0  0  0  0  0  0  0  0  0  0
  130.3120  130.3510   58.9770 C   0  0  0  0  0  0  0  0  0  0  0  0
  130.4630  128.8690   58.4950 C   0  0  0  0  0  0  0  0  0  0  0  0
  131.6310  128.1300   58.7500 C   0  0  0  0  0  0  0  0  0  0  0  0
  131.7530  126.8130   58.3180 C   0  0  0  0  0  0  0  0  0  0  0  0
  130.7140  126.2140   57.6140 C   0  0  0  0  0  0  0  0  0  0  0  0
  129.5460  126.9200   57.3490 C   0  0  0  0  0  0  0  0  0  0  0  0
  129.4210  128.2340   57.7910 C   0  0  0  0  0  0  0  0  0  0  0  0
  129.8360  131.3100   57.8350 C   0  0  0  0  0  0  0  0  0  0  0  0
  130.7450  132.0680   57.0810 C   0  0  0  0  0  0  0  0  0  0  0  0
  130.2980  132.9300   56.0820 C   0  0  0  0  0  0  0  0  0  0  0  0
  128.9350  133.0460   55.8270 C   0  0  0  0  0  0  0  0  0  0  0  0
  128.0150  132.3020   56.5580 C   0  0  0  0  0  0  0  0  0  0  0  0
  128.4650  131.4350   57.5490 C   0  0  0  0  0  0  0  0  0  0  0  0
  131.5570  130.8590   59.7800 C   0  0  0  0  0  0  0  0  0  0  0  0
  131.5060  131.0070   61.1780 C   0  0  0  0  0  0  0  0  0  0  0  0
  132.6060  131.4670   61.8970 C   0  0  0  0  0  0  0  0  0  0  0  0
  133.7830  131.7810   61.2280 C   0  0  0  0  0  0  0  0  0  0  0  0
  133.8690  131.6320   59.8490 C   0  0  0  0  0  0  0  0  0  0  0  0
  132.7660  131.1730   59.1340 C   0  0  0  0  0  0  0  0  0  0  0  0
  1  2  2  0
  2  3  1  0
  4  3  1  6
  4  5  1  0
  5  6  1  0
  6  7  2  0
  6  8  1  0
  8  9  1  0
  9 10  1  0
 10 11  1  0
 11 12  2  0
 12 13  1  0
 13 14  2  0
 14 15  1  0
 15 16  2  0
 16 17  1  0
 17 18  2  0
 18 19  1  0
 19 20  2  0
 20 21  1  0
 21 22  2  0
  4 23  1  0
 23 24  2  0
 23 25  1  0
  2 26  1  0
 26 27  1  0
 27 28  1  0
 28 29  2  0
 29 30  1  0
 30 31  2  0
 31 32  1  0
 32 33  2  0
 27 34  1  0
 34 35  2  0
 35 36  1  0
 36 37  2  0
 37 38  1  0
 38 39  2  0
 27 40  1  0
 40 41  2  0
 41 42  1  0
 42 43  2  0
 43 44  1  0
 44 45  2  0
 22 10  1  0
 33 28  1  0
 39 34  1  0
 45 40  1  0
 16 11  1  0
 22 17  1  0
M  END
>  <Binding energies>  (84) 
[-10.37]

>  <Ligand effiencies>  (84) 
[-0.21604166666666666]

>  <Interactions>  (84) 
["V-A:ILE:538:CG2:4863, V-A:TYR:539:CE2:4876, V-A:ILE:538:CB:4862, V-A:TYR:539:CE1:4875, V-A:LEU:363:CD1:3189, V-A:TYR:539:CZ:4877, V-A:PRO:540:CA:4883, V-A:ILE:538:CA:4860, V-A:MET:535:CE:4835, V-A:TYR:539:CD1:4873, V-A:PRO:540:CB:4885, V-B:TYR:539:C:9839, V-B:TYR:539:CZ:9849, V-B:PRO:540:CA:9855, V-B:TYR:539:CE2:9848, V-B:PRO:540:N:9856, V-A:ASP:366:CB:3212, V-B:TYR:539:CE1:9847, V-A:ASP:366:CG:3213, V-B:PRO:540:CB:9857, V-B:TYR:539:CD2:9846, V-B:TYR:539:CD1:9845, V-B:TYR:539:CG:9844, V-B:GLU:543:CD:9880, V-B:GLU:543:CG:9879, V-B:ALA:541:CB:9864, V-A:LEU:475:CD2:4259, V-B:MET:535:CE:9807, H-B:GLU:543:OE1:9881, H-B:GLU:543:OE2:9882, V-A:ILE:538:C:4858, V-B:LEU:363:CD1:8160, V-A:ASN:362:CB:3176, V-A:TYR:539:CD2:4874, V-A:LEU:363:CA:3185, V-A:ASN:362:C:3172, H-B:TYR:484:OH:9319, V-A:LEU:363:CB:3187"]

$$$$
