1a_Ghoteimi_2023
     RDKit          3D

 40 43  0  0  0  0  0  0  0  0999 V2000
  131.1590  131.4730   56.0750 C   0  0  0  0  0  0  0  0  0  0  0  0
  131.9500  132.7150   56.4960 C   0  0  0  0  0  0  0  0  0  0  0  0
  131.1120  133.5700   57.2630 O   0  0  0  0  0  0  0  0  0  0  0  0
  129.8460  133.2020   57.5900 C   0  0  0  0  0  0  0  0  0  0  0  0
  128.8870  133.3020   56.8190 O   0  0  0  0  0  0  0  0  0  0  0  0
  129.7300  132.6560   58.9850 C   0  0  0  0  0  0  0  0  0  0  0  0
  130.7890  131.9780   59.6070 C   0  0  0  0  0  0  0  0  0  0  0  0
  130.6500  131.4800   60.8990 C   0  0  0  0  0  0  0  0  0  0  0  0
  129.4460  131.6560   61.5980 C   0  0  0  0  0  0  0  0  0  0  0  0
  129.1950  131.1920   62.9030 N   0  0  0  0  0  0  0  0  0  0  0  0
  128.3170  131.6390   63.8270 C   0  0  0  0  0  0  0  0  0  0  0  0
  127.5300  132.5730   63.6740 O   0  0  0  0  0  0  0  0  0  0  0  0
  128.3280  130.8910   65.1600 C   0  0  0  0  0  0  0  0  0  0  0  0
  127.3050  129.3910   65.0980 S   0  0  0  0  0  0  0  0  0  0  0  0
  128.2730  128.1000   65.8470 C   0  0  0  0  0  0  0  0  0  0  0  0
  128.2310  128.0960   67.2000 N   0  0  0  0  0  0  0  0  0  0  0  0
  128.9240  127.1560   67.8950 C   0  0  0  0  0  0  0  0  0  0  0  0
  128.8100  127.2060   69.3910 C   0  0  0  0  0  0  0  0  0  0  0  0
  129.9130  127.5330   70.1970 C   0  0  0  0  0  0  0  0  0  0  0  0
  129.8040  127.5790   71.5840 C   0  0  0  0  0  0  0  0  0  0  0  0
  128.5920  127.2980   72.2090 C   0  0  0  0  0  0  0  0  0  0  0  0
  128.5750  127.3700   73.5890 O   0  0  0  0  0  0  0  0  0  0  0  0
  128.0820  128.5480   74.2160 C   0  0  0  0  0  0  0  0  0  0  0  0
  127.4820  126.9650   71.4190 C   0  0  0  0  0  0  0  0  0  0  0  0
  127.5950  126.9200   70.0330 C   0  0  0  0  0  0  0  0  0  0  0  0
  129.6840  126.1910   67.2230 C   0  0  0  0  0  0  0  0  0  0  0  0
  129.7630  126.1900   65.8240 C   0  0  0  0  0  0  0  0  0  0  0  0
  130.6190  125.1500   65.1770 C   0  0  0  0  0  0  0  0  0  0  0  0
  131.9570  125.4140   64.8660 C   0  0  0  0  0  0  0  0  0  0  0  0
  132.7520  124.4350   64.2770 C   0  0  0  0  0  0  0  0  0  0  0  0
  132.2300  123.1730   63.9940 C   0  0  0  0  0  0  0  0  0  0  0  0
  133.0920  122.2660   63.4100 O   0  0  0  0  0  0  0  0  0  0  0  0
  133.8020  122.6400   62.2350 C   0  0  0  0  0  0  0  0  0  0  0  0
  130.8900  122.9020   64.3120 C   0  0  0  0  0  0  0  0  0  0  0  0
  130.0960  123.8830   64.9000 C   0  0  0  0  0  0  0  0  0  0  0  0
  129.0340  127.1700   65.1070 C   0  0  0  0  0  0  0  0  0  0  0  0
  129.0660  127.2100   63.6420 C   0  0  0  0  0  0  0  0  0  0  0  0
  129.0910  127.2400   62.4850 N   0  0  0  0  0  0  0  0  0  0  0  0
  128.3900  132.3270   60.9800 C   0  0  0  0  0  0  0  0  0  0  0  0
  128.5300  132.8250   59.6870 C   0  0  0  0  0  0  0  0  0  0  0  0
  1  2  1  0
  2  3  1  0
  3  4  1  0
  4  5  2  0
  4  6  1  0
  6  7  2  0
  7  8  1  0
  8  9  2  0
  9 10  1  0
 10 11  1  0
 11 12  2  0
 11 13  1  0
 13 14  1  0
 14 15  1  0
 15 16  2  0
 16 17  1  0
 17 18  1  0
 18 19  2  0
 19 20  1  0
 20 21  2  0
 21 22  1  0
 22 23  1  0
 21 24  1  0
 24 25  2  0
 17 26  2  0
 26 27  1  0
 27 28  1  0
 28 29  2  0
 29 30  1  0
 30 31  2  0
 31 32  1  0
 32 33  1  0
 31 34  1  0
 34 35  2  0
 27 36  2  0
 36 37  1  0
 37 38  3  0
  9 39  1  0
 39 40  2  0
 40  6  1  0
 36 15  1  0
 25 18  1  0
 35 28  1  0
M  END
>  <Binding energies>  (1) 
[-10.5]

>  <Ligand effiencies>  (1) 
[-0.25609756097560976]

>  <Interactions>  (1) 
["V-A:TYR:539:CA:4869, V-A:PRO:540:CD:4887, V-A:ILE:538:CG2:4863, V-A:ILE:538:CB:4862, V-A:LEU:363:CD1:3189, V-A:PRO:540:CA:4883, V-A:MET:535:CE:4835, V-A:TYR:539:CD1:4873, V-A:PRO:540:N:4884, V-A:PRO:540:CB:4885, V-A:TYR:539:C:4867, V-A:GLY:454:CA:4049, V-A:GLU:543:CD:4908, H-A:GLY:454:N:4050, H-A:TYR:484:OH:4348, V-A:ILE:369:CD1:3239, V-A:ARG:545:CZ:4926, V-A:TYR:484:CZ:4347, V-B:GLU:543:CD:9880, V-B:HIS:456:CE1:9041, V-B:GLU:543:C:9874, V-A:HIS:456:CE1:4070, V-B:GLU:543:CG:9879, V-B:GLU:543:CB:9878, V-A:LEU:475:CD2:4259, V-A:TYR:484:CE2:4346, V-A:GLU:543:CB:4906, V-B:HIS:456:CD2:9039, V-A:GLU:543:CG:4907, H-B:LYS:547:NZ:9923, V-B:GLY:544:CA:9886, V-B:GLY:544:C:9884, H-A:TYR:539:N:4870, H-A:GLU:543:OE1:4909, H-B:TYR:484:OH:9319, V-B:TYR:484:CZ:9318, V-B:TYR:484:CE2:9317"]

$$$$
1b_Ghoteimi_2023
     RDKit          3D

 34 37  0  0  0  0  0  0  0  0999 V2000
  131.7300  132.4910   56.0850 C   0  0  0  0  0  0  0  0  0  0  0  0
  130.6440  133.3200   56.4840 O   0  0  0  0  0  0  0  0  0  0  0  0
  129.7530  132.8540   57.4320 C   0  0  0  0  0  0  0  0  0  0  0  0
  130.2650  132.6150   58.7060 C   0  0  0  0  0  0  0  0  0  0  0  0
  129.4420  132.1440   59.7240 C   0  0  0  0  0  0  0  0  0  0  0  0
  128.0790  131.8980   59.5000 C   0  0  0  0  0  0  0  0  0  0  0  0
  127.1940  131.3870   60.6020 C   0  0  0  0  0  0  0  0  0  0  0  0
  127.6820  130.6670   61.6980 C   0  0  0  0  0  0  0  0  0  0  0  0
  126.8140  130.2160   62.7010 C   0  0  0  0  0  0  0  0  0  0  0  0
  127.4040  129.4490   63.8390 C   0  0  0  0  0  0  0  0  0  0  0  0
  128.1050  128.2630   63.6020 C   0  0  0  0  0  0  0  0  0  0  0  0
  128.6490  127.5400   64.6600 C   0  0  0  0  0  0  0  0  0  0  0  0
  128.5010  127.9850   65.9740 C   0  0  0  0  0  0  0  0  0  0  0  0
  129.0740  127.2040   66.9590 O   0  0  0  0  0  0  0  0  0  0  0  0
  129.7320  125.9960   66.5920 C   0  0  0  0  0  0  0  0  0  0  0  0
  127.7920  129.1710   66.2170 C   0  0  0  0  0  0  0  0  0  0  0  0
  127.2480  129.8910   65.1570 C   0  0  0  0  0  0  0  0  0  0  0  0
  125.4350  130.5160   62.5850 C   0  0  0  0  0  0  0  0  0  0  0  0
  124.5010  130.1500   63.6540 C   0  0  0  0  0  0  0  0  0  0  0  0
  123.7640  129.8610   64.4990 N   0  0  0  0  0  0  0  0  0  0  0  0
  125.0050  131.2280   61.4430 C   0  0  0  0  0  0  0  0  0  0  0  0
  123.3130  131.6850   61.1270 S   0  0  0  0  0  0  0  0  0  0  0  0
  122.7810  132.8200   62.4530 C   0  0  0  0  0  0  0  0  0  0  0  0
  123.6060  134.1090   62.5750 C   0  0  0  0  0  0  0  0  0  0  0  0
  123.7280  134.6790   63.6620 O   0  0  0  0  0  0  0  0  0  0  0  0
  124.1580  134.5370   61.4170 N   0  0  0  0  0  0  0  0  0  0  0  0
  124.9500  135.6630   61.2290 C   0  0  0  0  0  0  0  0  0  0  0  0
  126.3390  135.6460   61.3500 C   0  0  0  0  0  0  0  0  0  0  0  0
  126.7360  136.9380   61.0900 C   0  0  0  0  0  0  0  0  0  0  0  0
  125.6430  137.6930   60.8240 O   0  0  0  0  0  0  0  0  0  0  0  0
  124.5170  136.8740   60.9150 N   0  0  0  0  0  0  0  0  0  0  0  0
  125.8690  131.6650   60.4950 N   0  0  0  0  0  0  0  0  0  0  0  0
  127.5750  132.1400   58.2130 C   0  0  0  0  0  0  0  0  0  0  0  0
  128.3940  132.6100   57.1910 C   0  0  0  0  0  0  0  0  0  0  0  0
  1  2  1  0
  2  3  1  0
  3  4  2  0
  4  5  1  0
  5  6  2  0
  6  7  1  0
  7  8  2  0
  8  9  1  0
  9 10  1  0
 10 11  2  0
 11 12  1  0
 12 13  2  0
 13 14  1  0
 14 15  1  0
 13 16  1  0
 16 17  2  0
  9 18  2  0
 18 19  1  0
 19 20  3  0
 18 21  1  0
 21 22  1  0
 22 23  1  0
 23 24  1  0
 24 25  2  0
 24 26  1  0
 26 27  1  0
 27 28  1  0
 28 29  2  0
 29 30  1  0
 30 31  1  0
 21 32  2  0
  6 33  1  0
 33 34  2  0
 34  3  1  0
 32  7  1  0
 17 10  1  0
 31 27  2  0
M  END
>  <Binding energies>  (2) 
[-8.93]

>  <Ligand effiencies>  (2) 
[-0.2551428571428571]

>  <Interactions>  (2) 
["V-B:ILE:369:CG1:8209, V-A:ILE:538:CG2:4863, V-A:ILE:538:CB:4862, V-B:GLY:453:C:9013, V-A:TYR:539:CE1:4875, V-A:LEU:363:CD1:3189, V-A:TYR:539:CZ:4877, V-B:ILE:369:CG2:8208, V-A:PRO:540:CA:4883, V-B:LEU:475:CD2:9230, V-B:GLY:454:CA:9020, V-A:TYR:539:CD1:4873, V-A:PRO:540:N:4884, V-A:PRO:540:CB:4885, V-A:TYR:539:C:4867, V-A:GLU:543:CD:4908, V-A:TYR:539:CG:4872, V-B:GLU:543:CD:9880, V-B:HIS:456:CE1:9041, V-B:GLU:543:CG:9879, V-B:GLU:543:CB:9878, V-A:GLU:543:CG:4907, H-A:TYR:539:N:4870, V-B:SER:385:C:8376, V-B:ARG:545:CZ:9898, H-B:TYR:484:OH:9319, H-B:GLY:454:N:9021, V-B:TYR:484:CZ:9318, H-B:ARG:545:NE:9896, V-A:TYR:539:CB:4871, H-B:ARG:545:NH1:9899, H-B:ARG:545:NH2:9900, H-B:HIS:383:NE2:8365"]

$$$$
1c_Ghoteimi_2023
     RDKit          3D

 34 37  0  0  0  0  0  0  0  0999 V2000
  127.4060  128.2860   74.1120 C   0  0  0  0  0  0  0  0  0  0  0  0
  128.2640  127.2930   73.5590 O   0  0  0  0  0  0  0  0  0  0  0  0
  128.4900  127.2780   72.1960 C   0  0  0  0  0  0  0  0  0  0  0  0
  127.4050  126.9520   71.3860 C   0  0  0  0  0  0  0  0  0  0  0  0
  127.5430  126.9100   70.0020 C   0  0  0  0  0  0  0  0  0  0  0  0
  128.7720  127.1930   69.3850 C   0  0  0  0  0  0  0  0  0  0  0  0
  128.9260  127.1440   67.8920 C   0  0  0  0  0  0  0  0  0  0  0  0
  129.7080  126.1820   67.2440 C   0  0  0  0  0  0  0  0  0  0  0  0
  129.7990  126.1600   65.8470 C   0  0  0  0  0  0  0  0  0  0  0  0
  130.5970  125.0650   65.2190 C   0  0  0  0  0  0  0  0  0  0  0  0
  131.9400  125.2640   64.8870 C   0  0  0  0  0  0  0  0  0  0  0  0
  132.6760  124.2490   64.2830 C   0  0  0  0  0  0  0  0  0  0  0  0
  132.0840  123.0200   63.9950 C   0  0  0  0  0  0  0  0  0  0  0  0
  132.8900  122.0720   63.3940 O   0  0  0  0  0  0  0  0  0  0  0  0
  133.7400  122.4620   62.3210 C   0  0  0  0  0  0  0  0  0  0  0  0
  130.7340  122.8180   64.3210 C   0  0  0  0  0  0  0  0  0  0  0  0
  129.9990  123.8350   64.9260 C   0  0  0  0  0  0  0  0  0  0  0  0
  129.1070  127.1500   65.1110 C   0  0  0  0  0  0  0  0  0  0  0  0
  129.1900  127.2010   63.6470 C   0  0  0  0  0  0  0  0  0  0  0  0
  129.2550  127.2400   62.4920 N   0  0  0  0  0  0  0  0  0  0  0  0
  128.3230  128.0780   65.8270 C   0  0  0  0  0  0  0  0  0  0  0  0
  127.2690  129.2680   65.0260 S   0  0  0  0  0  0  0  0  0  0  0  0
  125.6910  129.1770   65.9320 C   0  0  0  0  0  0  0  0  0  0  0  0
  124.4930  129.5300   65.0440 C   0  0  0  0  0  0  0  0  0  0  0  0
  123.3670  129.5960   65.5390 O   0  0  0  0  0  0  0  0  0  0  0  0
  124.7910  129.7900   63.7520 N   0  0  0  0  0  0  0  0  0  0  0  0
  123.9270  130.2780   62.7840 C   0  0  0  0  0  0  0  0  0  0  0  0
  122.6280  130.4640   62.8810 N   0  0  0  0  0  0  0  0  0  0  0  0
  122.1310  130.9830   61.7750 C   0  0  0  0  0  0  0  0  0  0  0  0
  123.0380  131.2310   60.7500 C   0  0  0  0  0  0  0  0  0  0  0  0
  124.6260  130.7530   61.2700 S   0  0  0  0  0  0  0  0  0  0  0  0
  128.2300  128.0670   67.1780 N   0  0  0  0  0  0  0  0  0  0  0  0
  129.8560  127.5260   70.2100 C   0  0  0  0  0  0  0  0  0  0  0  0
  129.7230  127.5680   71.5950 C   0  0  0  0  0  0  0  0  0  0  0  0
  1  2  1  0
  2  3  1  0
  3  4  2  0
  4  5  1  0
  5  6  2  0
  6  7  1  0
  7  8  2  0
  8  9  1  0
  9 10  1  0
 10 11  2  0
 11 12  1  0
 12 13  2  0
 13 14  1  0
 14 15  1  0
 13 16  1  0
 16 17  2  0
  9 18  2  0
 18 19  1  0
 19 20  3  0
 18 21  1  0
 21 22  1  0
 22 23  1  0
 23 24  1  0
 24 25  2  0
 24 26  1  0
 26 27  1  0
 27 28  2  0
 28 29  1  0
 29 30  2  0
 30 31  1  0
 21 32  2  0
  6 33  1  0
 33 34  2  0
 34  3  1  0
 32  7  1  0
 17 10  1  0
 31 27  1  0
M  END
>  <Binding energies>  (3) 
[-8.61]

>  <Ligand effiencies>  (3) 
[-0.246]

>  <Interactions>  (3) 
["V-B:ILE:369:CG1:8209, V-B:GLY:453:C:9013, V-B:ILE:369:CB:8207, V-B:ILE:369:CG2:8208, V-B:ASP:366:CG:8184, V-B:ASP:366:CA:8181, V-B:GLY:453:CA:9015, V-A:GLY:454:CA:4049, V-A:GLU:543:CD:4908, H-A:GLY:454:N:4050, H-A:TYR:484:OH:4348, V-A:ILE:369:CD1:3239, V-A:ARG:545:CZ:4926, V-B:GLU:543:CD:9880, V-B:HIS:456:CE1:9041, V-B:GLU:543:C:9874, V-A:HIS:456:CE1:4070, V-B:GLU:543:CG:9879, V-B:GLU:543:CB:9878, V-A:LEU:475:CD2:4259, V-A:TYR:484:CE2:4346, V-B:HIS:456:CD2:9039, V-A:GLU:543:CG:4907, H-B:LYS:547:NZ:9923, V-B:HIS:456:CG:9037, V-B:GLY:544:CA:9886, V-B:GLY:544:C:9884, V-B:ARG:545:CZ:9898, H-B:TYR:484:OH:9319, H-B:GLY:454:N:9021, V-B:TYR:484:CZ:9318, H-B:ARG:545:NE:9896, V-B:ARG:545:CD:9895, H-B:ARG:545:NH1:9899, H-B:ARG:545:NH2:9900"]

$$$$
1d_Ghoteimi_2023
     RDKit          3D

 30 32  0  0  0  0  0  0  0  0999 V2000
  131.7090  126.1050   59.1130 C   0  0  0  0  0  0  0  0  0  0  0  0
  132.0190  124.7610   58.7760 O   0  0  0  0  0  0  0  0  0  0  0  0
  133.3000  124.3380   58.7510 C   0  0  0  0  0  0  0  0  0  0  0  0
  133.9090  123.9160   57.7670 O   0  0  0  0  0  0  0  0  0  0  0  0
  133.9670  124.4270   60.1210 C   0  0  0  0  0  0  0  0  0  0  0  0
  133.3300  123.0550   61.1300 S   0  0  0  0  0  0  0  0  0  0  0  0
  131.7730  123.5870   61.8080 C   0  0  0  0  0  0  0  0  0  0  0  0
  130.7290  123.4380   60.9590 N   0  0  0  0  0  0  0  0  0  0  0  0
  129.4810  123.8070   61.3470 C   0  0  0  0  0  0  0  0  0  0  0  0
  128.3790  123.6040   60.3480 C   0  0  0  0  0  0  0  0  0  0  0  0
  128.6090  122.9370   59.1350 C   0  0  0  0  0  0  0  0  0  0  0  0
  127.5870  122.7550   58.2080 C   0  0  0  0  0  0  0  0  0  0  0  0
  126.3050  123.2350   58.4620 C   0  0  0  0  0  0  0  0  0  0  0  0
  125.3540  123.0130   57.4840 O   0  0  0  0  0  0  0  0  0  0  0  0
  125.7410  122.3660   56.2760 C   0  0  0  0  0  0  0  0  0  0  0  0
  126.0590  123.9040   59.6690 C   0  0  0  0  0  0  0  0  0  0  0  0
  127.0840  124.0830   60.5950 C   0  0  0  0  0  0  0  0  0  0  0  0
  129.2600  124.3330   62.6250 C   0  0  0  0  0  0  0  0  0  0  0  0
  130.3230  124.5120   63.5180 C   0  0  0  0  0  0  0  0  0  0  0  0
  130.0160  125.0860   64.8640 C   0  0  0  0  0  0  0  0  0  0  0  0
  129.3780  126.3250   64.9710 C   0  0  0  0  0  0  0  0  0  0  0  0
  129.0880  126.8660   66.2220 C   0  0  0  0  0  0  0  0  0  0  0  0
  129.4260  126.1780   67.3870 C   0  0  0  0  0  0  0  0  0  0  0  0
  129.1080  126.7940   68.5820 O   0  0  0  0  0  0  0  0  0  0  0  0
  130.0640  127.6470   69.2010 C   0  0  0  0  0  0  0  0  0  0  0  0
  130.0560  124.9280   67.2840 C   0  0  0  0  0  0  0  0  0  0  0  0
  130.3430  124.3900   66.0330 C   0  0  0  0  0  0  0  0  0  0  0  0
  131.6260  124.1490   63.0960 C   0  0  0  0  0  0  0  0  0  0  0  0
  132.7890  124.4110   63.9500 C   0  0  0  0  0  0  0  0  0  0  0  0
  133.7060  124.6180   64.6240 N   0  0  0  0  0  0  0  0  0  0  0  0
  1  2  1  0
  2  3  1  0
  3  4  2  0
  3  5  1  0
  5  6  1  0
  6  7  1  0
  7  8  2  0
  8  9  1  0
  9 10  1  0
 10 11  2  0
 11 12  1  0
 12 13  2  0
 13 14  1  0
 14 15  1  0
 13 16  1  0
 16 17  2  0
  9 18  2  0
 18 19  1  0
 19 20  1  0
 20 21  2  0
 21 22  1  0
 22 23  2  0
 23 24  1  0
 24 25  1  0
 23 26  1  0
 26 27  2  0
 19 28  2  0
 28 29  1  0
 29 30  3  0
 28  7  1  0
 17 10  1  0
 27 20  1  0
M  END
>  <Binding energies>  (4) 
[-7.73]

>  <Ligand effiencies>  (4) 
[-0.25766666666666665]

>  <Interactions>  (4) 
["V-B:TYR:539:C:9839, V-A:GLU:543:CD:4908, V-B:TYR:539:CZ:9849, V-B:PRO:540:CA:9855, H-A:ARG:545:NE:4924, H-A:ASN:370:N:3244, V-B:TYR:539:CE2:9848, H-A:GLY:454:N:4050, V-A:ILE:369:CG2:3237, V-A:ASP:366:CA:3210, V-B:PRO:540:N:9856, H-A:TYR:484:OH:4348, V-A:ASP:366:CB:3212, V-A:ILE:369:CD1:3239, V-A:ASP:366:CG:3213, V-B:PRO:540:CB:9857, H-B:TYR:539:OH:9850, V-B:TYR:539:CD2:9846, V-A:TYR:484:CZ:4347, V-B:GLU:543:CD:9880, V-A:HIS:456:CE1:4070, V-B:GLU:543:CG:9879, V-B:GLU:543:CB:9878, V-A:TYR:484:CE2:4346, V-A:GLU:543:CB:4906, V-B:GLU:543:CA:9876, V-B:MET:535:CE:9807, V-B:PRO:540:CD:9859, V-B:LEU:363:CD1:8160, V-B:ILE:538:CG2:9835, H-A:ARG:545:NH2:4928"]

$$$$
1j_Grossjean_2025
     RDKit          3D

 20 21  0  0  0  0  0  0  0  0999 V2000
  123.6330  132.4480   62.0550 C   0  0  0  0  0  0  0  0  0  0  0  0
  124.3990  133.7280   61.7750 C   0  0  0  0  0  0  0  0  0  0  0  0
  123.7570  134.8760   61.3150 C   0  0  0  0  0  0  0  0  0  0  0  0
  124.5120  136.0310   61.0870 C   0  0  0  0  0  0  0  0  0  0  0  0
  123.7830  137.2820   60.6000 C   0  0  0  0  0  0  0  0  0  0  0  0
  125.9050  136.0030   61.3200 C   0  0  0  0  0  0  0  0  0  0  0  0
  126.7070  137.2160   61.1390 C   0  0  0  0  0  0  0  0  0  0  0  0
  127.3370  138.1760   60.9950 N   0  0  0  0  0  0  0  0  0  0  0  0
  126.4770  134.7860   61.7610 C   0  0  0  0  0  0  0  0  0  0  0  0
  128.2100  134.5710   62.1010 S   0  0  0  0  0  0  0  0  0  0  0  0
  128.6050  132.8120   61.8680 C   0  0  0  0  0  0  0  0  0  0  0  0
  129.7350  132.6060   60.8580 C   0  0  0  0  0  0  0  0  0  0  0  0
  130.8650  132.3310   61.2640 O   0  0  0  0  0  0  0  0  0  0  0  0
  129.3890  132.7450   59.5600 N   0  0  0  0  0  0  0  0  0  0  0  0
  130.2260  132.6160   58.4610 C   0  0  0  0  0  0  0  0  0  0  0  0
  130.2070  133.3140   57.3450 N   0  0  0  0  0  0  0  0  0  0  0  0
  131.1510  132.9210   56.5130 C   0  0  0  0  0  0  0  0  0  0  0  0
  131.9660  131.8820   56.9520 C   0  0  0  0  0  0  0  0  0  0  0  0
  131.4590  131.3990   58.5430 S   0  0  0  0  0  0  0  0  0  0  0  0
  125.7330  133.6770   62.0010 N   0  0  0  0  0  0  0  0  0  0  0  0
  1  2  1  0
  2  3  2  0
  3  4  1  0
  4  5  1  0
  4  6  2  0
  6  7  1  0
  7  8  3  0
  6  9  1  0
  9 10  1  0
 10 11  1  0
 11 12  1  0
 12 13  2  0
 12 14  1  0
 14 15  1  0
 15 16  2  0
 16 17  1  0
 17 18  2  0
 18 19  1  0
  9 20  2  0
 20  2  1  0
 19 15  1  0
M  END
>  <Binding energies>  (5) 
[-7.44]

>  <Ligand effiencies>  (5) 
[-0.3542857142857143]

>  <Interactions>  (5) 
["V-A:PRO:540:CD:4887, H-A:ALA:541:N:4891, V-A:ILE:538:CG2:4863, V-A:ILE:538:CB:4862, V-B:SER:385:CA:8378, V-A:TYR:539:CE1:4875, V-A:LEU:363:CD1:3189, V-B:ILE:369:CG2:8208, V-A:PRO:540:CA:4883, V-B:LEU:475:CD2:9230, V-A:ILE:538:CA:4860, V-B:LEU:373:CD1:8251, V-B:SER:385:CB:8380, V-A:TYR:539:CD1:4873, V-A:ALA:541:CB:4892, V-A:PRO:540:N:4884, V-A:PRO:540:CB:4885, V-A:TYR:539:C:4867, H-A:TYR:539:N:4870, V-A:PRO:540:C:4881, H-A:TYR:539:O:4868, V-B:VAL:384:C:8368, V-B:HIS:383:CD2:8363, V-A:TYR:539:CB:4871, H-B:HIS:383:NE2:8365"]

$$$$
1o_Grossjean_2025
     RDKit          3D

 26 27  0  0  0  0  0  0  0  0999 V2000
  128.7900  133.2190   59.2680 C   0  0  0  0  0  0  0  0  0  0  0  0
  129.1130  133.6490   57.9530 O   0  0  0  0  0  0  0  0  0  0  0  0
  129.9750  132.9420   57.1780 C   0  0  0  0  0  0  0  0  0  0  0  0
  130.8680  133.4640   56.5040 O   0  0  0  0  0  0  0  0  0  0  0  0
  129.7380  131.4600   57.2250 C   0  0  0  0  0  0  0  0  0  0  0  0
  130.7410  130.5590   57.6090 C   0  0  0  0  0  0  0  0  0  0  0  0
  130.4870  129.1900   57.6450 C   0  0  0  0  0  0  0  0  0  0  0  0
  129.2320  128.6940   57.2930 C   0  0  0  0  0  0  0  0  0  0  0  0
  129.0820  127.2960   57.3720 N   0  0  0  0  0  0  0  0  0  0  0  0
  129.2870  126.3480   56.4310 C   0  0  0  0  0  0  0  0  0  0  0  0
  129.7050  126.5580   55.2920 O   0  0  0  0  0  0  0  0  0  0  0  0
  128.9890  124.9060   56.8690 C   0  0  0  0  0  0  0  0  0  0  0  0
  128.2730  124.0740   55.7860 C   0  0  0  0  0  0  0  0  0  0  0  0
  127.1990  122.7680   56.4500 S   0  0  0  0  0  0  0  0  0  0  0  0
  127.1580  122.9180   58.2250 C   0  0  0  0  0  0  0  0  0  0  0  0
  128.2340  122.3650   58.8390 N   0  0  0  0  0  0  0  0  0  0  0  0
  128.3170  122.4260   60.1890 C   0  0  0  0  0  0  0  0  0  0  0  0
  129.5550  121.7990   60.8030 C   0  0  0  0  0  0  0  0  0  0  0  0
  127.3350  123.0240   60.9750 C   0  0  0  0  0  0  0  0  0  0  0  0
  126.2090  123.5750   60.3550 C   0  0  0  0  0  0  0  0  0  0  0  0
  125.1400  124.2120   61.2410 C   0  0  0  0  0  0  0  0  0  0  0  0
  126.0990  123.5190   58.9470 C   0  0  0  0  0  0  0  0  0  0  0  0
  124.9000  124.0380   58.2840 C   0  0  0  0  0  0  0  0  0  0  0  0
  123.9520  124.4490   57.7630 N   0  0  0  0  0  0  0  0  0  0  0  0
  128.2210  129.5900   56.9120 C   0  0  0  0  0  0  0  0  0  0  0  0
  128.4770  130.9580   56.8790 C   0  0  0  0  0  0  0  0  0  0  0  0
  1  2  1  0
  2  3  1  0
  3  4  2  0
  3  5  1  0
  5  6  2  0
  6  7  1  0
  7  8  2  0
  8  9  1  0
  9 10  1  0
 10 11  2  0
 10 12  1  0
 12 13  1  0
 13 14  1  0
 14 15  1  0
 15 16  2  0
 16 17  1  0
 17 18  1  0
 17 19  2  0
 19 20  1  0
 20 21  1  0
 20 22  2  0
 22 23  1  0
 23 24  3  0
  8 25  1  0
 25 26  2  0
 26  5  1  0
 22 15  1  0
M  END
>  <Binding energies>  (6) 
[-7.86]

>  <Ligand effiencies>  (6) 
[-0.2911111111111111]

>  <Interactions>  (6) 
["H-A:TYR:531:OH:4795, V-A:TYR:539:CE1:4875, V-A:PRO:540:CA:4883, V-A:MET:535:CE:4835, V-A:TYR:539:CD1:4873, V-A:PRO:540:N:4884, V-A:TYR:539:C:4867, V-B:TYR:539:C:9839, V-B:PRO:540:C:9853, V-B:TYR:539:CZ:9849, V-B:PRO:540:CA:9855, V-B:TYR:539:CE2:9848, V-B:PRO:540:N:9856, V-B:TYR:539:CE1:9847, V-B:PRO:540:CB:9857, H-B:TYR:539:OH:9850, V-B:TYR:539:CD2:9846, H-B:TYR:539:N:9842, V-B:LEU:363:CD1:8160, H-A:TYR:539:N:4870"]

$$$$
1p_Grossjean_2025
     RDKit          3D

 21 22  0  0  0  0  0  0  0  0999 V2000
  125.6450  130.3860   58.0590 C   0  0  0  0  0  0  0  0  0  0  0  0
  125.1900  131.1980   59.2570 C   0  0  0  0  0  0  0  0  0  0  0  0
  124.0120  130.8940   59.9370 C   0  0  0  0  0  0  0  0  0  0  0  0
  123.6340  131.6850   61.0280 C   0  0  0  0  0  0  0  0  0  0  0  0
  122.3310  131.3430   61.7480 C   0  0  0  0  0  0  0  0  0  0  0  0
  124.4580  132.7640   61.4180 C   0  0  0  0  0  0  0  0  0  0  0  0
  124.0600  133.6350   62.5250 C   0  0  0  0  0  0  0  0  0  0  0  0
  123.7450  134.3220   63.4010 N   0  0  0  0  0  0  0  0  0  0  0  0
  125.6480  132.9840   60.6840 C   0  0  0  0  0  0  0  0  0  0  0  0
  126.8010  134.2890   61.0470 S   0  0  0  0  0  0  0  0  0  0  0  0
  127.7900  133.7370   62.4680 C   0  0  0  0  0  0  0  0  0  0  0  0
  128.5800  132.4400   62.2090 C   0  0  0  0  0  0  0  0  0  0  0  0
  129.6120  132.5650   61.0790 C   0  0  0  0  0  0  0  0  0  0  0  0
  130.8140  132.5450   61.3500 O   0  0  0  0  0  0  0  0  0  0  0  0
  129.1030  132.6780   59.8320 N   0  0  0  0  0  0  0  0  0  0  0  0
  129.8100  132.8030   58.6430 C   0  0  0  0  0  0  0  0  0  0  0  0
  130.9690  132.0770   58.3660 C   0  0  0  0  0  0  0  0  0  0  0  0
  131.3540  132.4830   57.1090 C   0  0  0  0  0  0  0  0  0  0  0  0
  130.4760  133.4070   56.6540 O   0  0  0  0  0  0  0  0  0  0  0  0
  129.5020  133.6020   57.6350 N   0  0  0  0  0  0  0  0  0  0  0  0
  125.9960  132.2250   59.6140 N   0  0  0  0  0  0  0  0  0  0  0  0
  1  2  1  0
  2  3  2  0
  3  4  1  0
  4  5  1  0
  4  6  2  0
  6  7  1  0
  7  8  3  0
  6  9  1  0
  9 10  1  0
 10 11  1  0
 11 12  1  0
 12 13  1  0
 13 14  2  0
 13 15  1  0
 15 16  1  0
 16 17  1  0
 17 18  2  0
 18 19  1  0
 19 20  1  0
  9 21  2  0
 21  2  1  0
 20 16  2  0
M  END
>  <Binding energies>  (7) 
[-6.88]

>  <Ligand effiencies>  (7) 
[-0.31272727272727274]

>  <Interactions>  (7) 
["V-B:ILE:369:CG1:8209, H-A:ALA:541:N:4891, V-B:GLY:453:C:9013, V-B:ASP:366:CB:8183, V-B:ILE:369:CB:8207, V-A:TYR:539:CE1:4875, V-A:LEU:363:CD1:3189, V-B:ILE:369:CG2:8208, V-A:PRO:540:CA:4883, V-B:LEU:475:CD2:9230, V-B:ASP:366:CG:8184, V-B:GLY:454:CA:9020, V-B:ASP:366:CA:8181, V-B:GLY:453:CA:9015, V-A:TYR:539:CD1:4873, V-A:ALA:541:CB:4892, V-A:PRO:540:N:4884, V-A:PRO:540:CB:4885, V-A:TYR:539:C:4867, H-A:TYR:539:N:4870, V-A:PRO:540:C:4881, H-B:GLY:454:N:9021"]

$$$$
2a_Ghoteimi_2023
     RDKit          3D

 48 53  0  0  0  0  0  0  0  0999 V2000
  132.3710  131.2000   56.6910 C   0  0  0  0  0  0  0  0  0  0  0  0
  131.9030  132.4880   56.0060 C   0  0  0  0  0  0  0  0  0  0  0  0
  131.2860  133.3360   56.9660 O   0  0  0  0  0  0  0  0  0  0  0  0
  129.9790  133.1840   57.2990 C   0  0  0  0  0  0  0  0  0  0  0  0
  129.0490  133.3840   56.5120 O   0  0  0  0  0  0  0  0  0  0  0  0
  129.7780  132.7400   58.7200 C   0  0  0  0  0  0  0  0  0  0  0  0
  130.6430  131.8280   59.3430 C   0  0  0  0  0  0  0  0  0  0  0  0
  130.4280  131.4400   60.6620 C   0  0  0  0  0  0  0  0  0  0  0  0
  129.3520  131.9550   61.3870 C   0  0  0  0  0  0  0  0  0  0  0  0
  129.2280  131.4900   62.7100 N   0  0  0  0  0  0  0  0  0  0  0  0
  128.5270  132.0020   63.7460 C   0  0  0  0  0  0  0  0  0  0  0  0
  127.8790  133.0490   63.7130 O   0  0  0  0  0  0  0  0  0  0  0  0
  128.6110  131.1990   65.0500 C   0  0  0  0  0  0  0  0  0  0  0  0
  127.3880  129.8560   65.1890 S   0  0  0  0  0  0  0  0  0  0  0  0
  128.3000  128.4310   65.7350 C   0  0  0  0  0  0  0  0  0  0  0  0
  128.4420  128.3530   67.0780 N   0  0  0  0  0  0  0  0  0  0  0  0
  129.1280  127.3140   67.6170 C   0  0  0  0  0  0  0  0  0  0  0  0
  129.2540  127.2990   69.1070 C   0  0  0  0  0  0  0  0  0  0  0  0
  128.1840  126.9070   69.9210 C   0  0  0  0  0  0  0  0  0  0  0  0
  128.3030  126.9060   71.3080 C   0  0  0  0  0  0  0  0  0  0  0  0
  129.4980  127.2900   71.9340 C   0  0  0  0  0  0  0  0  0  0  0  0
  129.5920  127.3130   73.3290 N   0  0  0  0  0  0  0  0  0  0  0  0
  129.0100  128.4140   74.1230 C   0  0  0  0  0  0  0  0  0  0  0  0
  128.8890  128.1000   75.6290 C   0  0  0  0  0  0  0  0  0  0  0  0
  130.1510  127.7120   76.1480 O   0  0  0  0  0  0  0  0  0  0  0  0
  130.6400  126.5480   75.5020 C   0  0  0  0  0  0  0  0  0  0  0  0
  130.8150  126.8130   73.9920 C   0  0  0  0  0  0  0  0  0  0  0  0
  130.5630  127.6940   71.1130 C   0  0  0  0  0  0  0  0  0  0  0  0
  130.4450  127.6920   69.7270 C   0  0  0  0  0  0  0  0  0  0  0  0
  129.6790  126.3150   66.8100 C   0  0  0  0  0  0  0  0  0  0  0  0
  129.5430  126.3740   65.4160 C   0  0  0  0  0  0  0  0  0  0  0  0
  130.1620  125.2760   64.6130 C   0  0  0  0  0  0  0  0  0  0  0  0
  131.5490  125.2150   64.4570 C   0  0  0  0  0  0  0  0  0  0  0  0
  132.1330  124.2080   63.6940 C   0  0  0  0  0  0  0  0  0  0  0  0
  131.3470  123.2300   63.0670 C   0  0  0  0  0  0  0  0  0  0  0  0
  131.9120  122.2210   62.2810 N   0  0  0  0  0  0  0  0  0  0  0  0
  133.3100  122.3580   61.8230 C   0  0  0  0  0  0  0  0  0  0  0  0
  133.9180  121.0330   61.3170 C   0  0  0  0  0  0  0  0  0  0  0  0
  133.1030  120.4840   60.2920 O   0  0  0  0  0  0  0  0  0  0  0  0
  131.7890  120.2140   60.7550 C   0  0  0  0  0  0  0  0  0  0  0  0
  131.1260  121.5150   61.2510 C   0  0  0  0  0  0  0  0  0  0  0  0
  129.9550  123.3050   63.2180 C   0  0  0  0  0  0  0  0  0  0  0  0
  129.3710  124.3130   63.9800 C   0  0  0  0  0  0  0  0  0  0  0  0
  128.8280  127.4600   64.8550 C   0  0  0  0  0  0  0  0  0  0  0  0
  128.6060  127.5470   63.4080 C   0  0  0  0  0  0  0  0  0  0  0  0
  128.4320  127.6140   62.2660 N   0  0  0  0  0  0  0  0  0  0  0  0
  128.4780  132.8610   60.7680 C   0  0  0  0  0  0  0  0  0  0  0  0
  128.6940  133.2500   59.4490 C   0  0  0  0  0  0  0  0  0  0  0  0
  1  2  1  0
  2  3  1  0
  3  4  1  0
  4  5  2  0
  4  6  1  0
  6  7  2  0
  7  8  1  0
  8  9  2  0
  9 10  1  0
 10 11  1  0
 11 12  2  0
 11 13  1  0
 13 14  1  0
 14 15  1  0
 15 16  2  0
 16 17  1  0
 17 18  1  0
 18 19  2  0
 19 20  1  0
 20 21  2  0
 21 22  1  0
 22 23  1  0
 23 24  1  0
 24 25  1  0
 25 26  1  0
 26 27  1  0
 21 28  1  0
 28 29  2  0
 17 30  2  0
 30 31  1  0
 31 32  1  0
 32 33  2  0
 33 34  1  0
 34 35  2  0
 35 36  1  0
 36 37  1  0
 37 38  1  0
 38 39  1  0
 39 40  1  0
 40 41  1  0
 35 42  1  0
 42 43  2  0
 31 44  2  0
 44 45  1  0
 45 46  3  0
  9 47  1  0
 47 48  2  0
 48  6  1  0
 44 15  1  0
 29 18  1  0
 43 32  1  0
 27 22  1  0
 41 36  1  0
M  END
>  <Binding energies>  (8) 
[-11.9]

>  <Ligand effiencies>  (8) 
[-0.24285714285714285]

>  <Interactions>  (8) 
["V-A:TYR:539:CA:4869, V-A:PRO:540:CD:4887, V-A:ILE:538:CG2:4863, V-A:ILE:538:CB:4862, V-A:TYR:539:CE1:4875, V-A:LEU:363:CD1:3189, V-A:TYR:531:CZ:4794, V-A:TYR:531:CE2:4793, V-A:PRO:540:CA:4883, V-A:TYR:539:CD1:4873, V-A:ALA:541:CB:4892, V-A:PRO:540:N:4884, V-A:PRO:540:CB:4885, V-A:TYR:539:C:4867, V-A:GLU:543:CD:4908, V-B:TYR:539:CE2:9848, V-A:ILE:369:CG2:3237, V-A:ILE:369:CD1:3239, V-B:TYR:539:CD2:9846, V-B:GLU:543:CD:9880, V-B:HIS:456:CE1:9041, V-B:GLU:543:C:9874, V-A:HIS:456:CE1:4070, V-B:GLU:543:CG:9879, V-A:GLU:543:C:4902, V-B:GLU:543:CB:9878, V-A:LEU:475:CD2:4259, V-A:GLU:543:CB:4906, V-A:GLY:544:C:4912, V-A:GLU:543:CG:4907, V-A:HIS:456:CD2:4068, H-A:LYS:547:NZ:4951, H-A:TYR:539:N:4870, H-A:GLU:543:OE1:4909, H-B:TYR:484:OH:9319, V-B:TYR:484:CZ:9318, H-A:SER:385:OG:3410, V-B:TYR:484:CE2:9317, V-A:SER:385:CB:3409, V-A:SER:385:C:3405, V-A:SER:385:CA:3407"]

$$$$
2aa_Ghoteimi_2023
     RDKit          3D

 48 53  0  0  0  0  0  0  0  0999 V2000
  128.2620  138.3020   62.0940 C   0  0  0  0  0  0  0  0  0  0  0  0
  126.7500  138.0550   62.1040 C   0  0  0  0  0  0  0  0  0  0  0  0
  126.3680  137.4200   60.8910 O   0  0  0  0  0  0  0  0  0  0  0  0
  125.3050  136.5760   60.8440 C   0  0  0  0  0  0  0  0  0  0  0  0
  124.2390  136.8550   60.2840 O   0  0  0  0  0  0  0  0  0  0  0  0
  125.5590  135.2630   61.5270 C   0  0  0  0  0  0  0  0  0  0  0  0
  124.5420  134.5700   62.2010 C   0  0  0  0  0  0  0  0  0  0  0  0
  124.8080  133.3530   62.8210 C   0  0  0  0  0  0  0  0  0  0  0  0
  126.0930  132.8080   62.7870 C   0  0  0  0  0  0  0  0  0  0  0  0
  126.2490  131.5710   63.4440 N   0  0  0  0  0  0  0  0  0  0  0  0
  125.3150  130.6850   63.8520 C   0  0  0  0  0  0  0  0  0  0  0  0
  124.1000  130.8070   63.6840 O   0  0  0  0  0  0  0  0  0  0  0  0
  125.8790  129.4420   64.5530 C   0  0  0  0  0  0  0  0  0  0  0  0
  127.2930  129.5840   64.7220 O   0  0  0  0  0  0  0  0  0  0  0  0
  128.0360  128.5520   65.2820 C   0  0  0  0  0  0  0  0  0  0  0  0
  128.1670  128.5210   66.6370 N   0  0  0  0  0  0  0  0  0  0  0  0
  128.8820  127.5250   67.2170 C   0  0  0  0  0  0  0  0  0  0  0  0
  128.9880  127.5580   68.7090 C   0  0  0  0  0  0  0  0  0  0  0  0
  130.1350  128.0570   69.3340 C   0  0  0  0  0  0  0  0  0  0  0  0
  130.2360  128.0960   70.7220 C   0  0  0  0  0  0  0  0  0  0  0  0
  129.1850  127.6490   71.5390 C   0  0  0  0  0  0  0  0  0  0  0  0
  129.2740  127.6700   72.9350 N   0  0  0  0  0  0  0  0  0  0  0  0
  130.4740  127.1700   73.6370 C   0  0  0  0  0  0  0  0  0  0  0  0
  130.2610  126.9390   75.1480 C   0  0  0  0  0  0  0  0  0  0  0  0
  129.7740  128.1240   75.7560 O   0  0  0  0  0  0  0  0  0  0  0  0
  128.5310  128.5210   75.1980 C   0  0  0  0  0  0  0  0  0  0  0  0
  128.6930  128.8000   73.6890 C   0  0  0  0  0  0  0  0  0  0  0  0
  128.0460  127.1290   70.9070 C   0  0  0  0  0  0  0  0  0  0  0  0
  127.9470  127.0880   69.5190 C   0  0  0  0  0  0  0  0  0  0  0  0
  129.5020  126.5370   66.4460 C   0  0  0  0  0  0  0  0  0  0  0  0
  129.3920  126.5530   65.0500 C   0  0  0  0  0  0  0  0  0  0  0  0
  130.0980  125.4850   64.2780 C   0  0  0  0  0  0  0  0  0  0  0  0
  129.7420  124.1440   64.4400 C   0  0  0  0  0  0  0  0  0  0  0  0
  130.4090  123.1430   63.7390 C   0  0  0  0  0  0  0  0  0  0  0  0
  131.4620  123.4540   62.8650 C   0  0  0  0  0  0  0  0  0  0  0  0
  132.1430  122.4660   62.1480 N   0  0  0  0  0  0  0  0  0  0  0  0
  133.5490  122.6460   61.7360 C   0  0  0  0  0  0  0  0  0  0  0  0
  134.2280  121.3370   61.2800 C   0  0  0  0  0  0  0  0  0  0  0  0
  133.4700  120.7340   60.2430 O   0  0  0  0  0  0  0  0  0  0  0  0
  132.1540  120.4200   60.6720 C   0  0  0  0  0  0  0  0  0  0  0  0
  131.4200  121.7030   61.1100 C   0  0  0  0  0  0  0  0  0  0  0  0
  131.8080  124.8030   62.7030 C   0  0  0  0  0  0  0  0  0  0  0  0
  131.1410  125.8030   63.4030 C   0  0  0  0  0  0  0  0  0  0  0  0
  128.6260  127.5810   64.4530 C   0  0  0  0  0  0  0  0  0  0  0  0
  128.4150  127.6480   63.0060 C   0  0  0  0  0  0  0  0  0  0  0  0
  128.2480  127.7000   61.8610 N   0  0  0  0  0  0  0  0  0  0  0  0
  127.1120  133.4900   62.1090 C   0  0  0  0  0  0  0  0  0  0  0  0
  126.8430  134.7060   61.4870 C   0  0  0  0  0  0  0  0  0  0  0  0
  1  2  1  0
  2  3  1  0
  3  4  1  0
  4  5  2  0
  4  6  1  0
  6  7  2  0
  7  8  1  0
  8  9  2  0
  9 10  1  0
 10 11  1  0
 11 12  2  0
 11 13  1  0
 13 14  1  0
 14 15  1  0
 15 16  2  0
 16 17  1  0
 17 18  1  0
 18 19  2  0
 19 20  1  0
 20 21  2  0
 21 22  1  0
 22 23  1  0
 23 24  1  0
 24 25  1  0
 25 26  1  0
 26 27  1  0
 21 28  1  0
 28 29  2  0
 17 30  2  0
 30 31  1  0
 31 32  1  0
 32 33  2  0
 33 34  1  0
 34 35  2  0
 35 36  1  0
 36 37  1  0
 37 38  1  0
 38 39  1  0
 39 40  1  0
 40 41  1  0
 35 42  1  0
 42 43  2  0
 31 44  2  0
 44 45  1  0
 45 46  3  0
  9 47  1  0
 47 48  2  0
 48  6  1  0
 44 15  1  0
 29 18  1  0
 43 32  1  0
 27 22  1  0
 41 36  1  0
M  END
>  <Binding energies>  (9) 
[-11.42]

>  <Ligand effiencies>  (9) 
[-0.2330612244897959]

>  <Interactions>  (9) 
["V-A:TYR:539:CE1:4875, V-B:LEU:475:CD2:9230, V-B:GLY:454:CA:9020, V-A:TYR:539:CD1:4873, V-A:GLU:543:CD:4908, V-B:TYR:539:CE2:9848, V-A:ILE:369:CG2:3237, V-A:ILE:369:CD1:3239, V-B:TYR:539:CD2:9846, V-B:GLU:543:CD:9880, V-B:HIS:456:CE1:9041, V-B:GLU:543:C:9874, V-A:HIS:456:CE1:4070, V-B:GLU:543:CG:9879, V-A:GLU:543:C:4902, V-B:GLU:543:CB:9878, V-A:LEU:475:CD2:4259, V-A:GLU:543:CB:4906, V-B:HIS:456:CD2:9039, V-A:GLY:544:C:4912, V-A:GLU:543:CG:4907, V-A:HIS:456:CD2:4068, H-A:LYS:547:NZ:4951, V-B:ARG:545:CZ:9898, H-B:TYR:484:OH:9319, H-B:GLY:454:N:9021, V-B:LEU:475:CG:9228, V-A:VAL:344:CG1:3001, V-B:HIS:383:CE1:8364, V-B:PRO:482:CB:9297, H-A:SER:385:OG:3410, H-B:HIS:383:NE2:8365, V-A:SER:385:CB:3409, V-A:SER:385:C:3405, V-A:SER:385:CA:3407"]

$$$$
2b_Ghoteimi_2023
     RDKit          3D

 42 47  0  0  0  0  0  0  0  0999 V2000
  128.0660  132.5860   64.6830 N   0  0  0  0  0  0  0  0  0  0  0  0
  127.9070  131.6770   63.9840 C   0  0  0  0  0  0  0  0  0  0  0  0
  127.7070  130.5220   63.1040 C   0  0  0  0  0  0  0  0  0  0  0  0
  127.8150  129.2030   63.6110 C   0  0  0  0  0  0  0  0  0  0  0  0
  128.1300  128.8840   65.0360 C   0  0  0  0  0  0  0  0  0  0  0  0
  128.6620  127.6400   65.3780 C   0  0  0  0  0  0  0  0  0  0  0  0
  128.9560  127.3370   66.7040 C   0  0  0  0  0  0  0  0  0  0  0  0
  128.7090  128.2650   67.7280 C   0  0  0  0  0  0  0  0  0  0  0  0
  129.0080  127.9900   69.0630 N   0  0  0  0  0  0  0  0  0  0  0  0
  128.2500  126.9350   69.7670 C   0  0  0  0  0  0  0  0  0  0  0  0
  128.4050  126.9910   71.3010 C   0  0  0  0  0  0  0  0  0  0  0  0
  129.7790  126.9560   71.6560 O   0  0  0  0  0  0  0  0  0  0  0  0
  130.4920  128.0510   71.1010 C   0  0  0  0  0  0  0  0  0  0  0  0
  130.3970  128.0150   69.5620 C   0  0  0  0  0  0  0  0  0  0  0  0
  128.1710  129.5110   67.3750 C   0  0  0  0  0  0  0  0  0  0  0  0
  127.8810  129.8150   66.0480 C   0  0  0  0  0  0  0  0  0  0  0  0
  127.6100  128.1320   62.7330 C   0  0  0  0  0  0  0  0  0  0  0  0
  127.2750  128.3670   61.3970 C   0  0  0  0  0  0  0  0  0  0  0  0
  127.0160  127.2580   60.4260 C   0  0  0  0  0  0  0  0  0  0  0  0
  126.6270  127.5370   59.1110 C   0  0  0  0  0  0  0  0  0  0  0  0
  126.4000  126.5110   58.1980 C   0  0  0  0  0  0  0  0  0  0  0  0
  126.5420  125.1650   58.5690 C   0  0  0  0  0  0  0  0  0  0  0  0
  126.3470  124.1240   57.6540 N   0  0  0  0  0  0  0  0  0  0  0  0
  127.4830  123.2630   57.2660 C   0  0  0  0  0  0  0  0  0  0  0  0
  127.2230  122.4340   55.9890 C   0  0  0  0  0  0  0  0  0  0  0  0
  126.0350  121.6730   56.1380 O   0  0  0  0  0  0  0  0  0  0  0  0
  124.9070  122.5070   56.3480 C   0  0  0  0  0  0  0  0  0  0  0  0
  125.0970  123.3400   57.6330 C   0  0  0  0  0  0  0  0  0  0  0  0
  126.9400  124.8900   59.8850 C   0  0  0  0  0  0  0  0  0  0  0  0
  127.1690  125.9170   60.7970 C   0  0  0  0  0  0  0  0  0  0  0  0
  127.1710  129.6310   60.9130 N   0  0  0  0  0  0  0  0  0  0  0  0
  127.3970  130.6830   61.7350 C   0  0  0  0  0  0  0  0  0  0  0  0
  127.2220  132.2630   60.9350 S   0  0  0  0  0  0  0  0  0  0  0  0
  128.1770  132.2030   59.3890 C   0  0  0  0  0  0  0  0  0  0  0  0
  129.6850  132.2150   59.6430 C   0  0  0  0  0  0  0  0  0  0  0  0
  130.4510  132.5160   58.7250 O   0  0  0  0  0  0  0  0  0  0  0  0
  130.0670  131.8770   60.8940 N   0  0  0  0  0  0  0  0  0  0  0  0
  131.3600  131.8180   61.3940 C   0  0  0  0  0  0  0  0  0  0  0  0
  132.4540  131.4250   60.6240 C   0  0  0  0  0  0  0  0  0  0  0  0
  133.5340  131.5000   61.4730 C   0  0  0  0  0  0  0  0  0  0  0  0
  133.1110  131.9160   62.6910 O   0  0  0  0  0  0  0  0  0  0  0  0
  131.7300  132.1170   62.6270 N   0  0  0  0  0  0  0  0  0  0  0  0
  1  2  3  0
  2  3  1  0
  3  4  2  0
  4  5  1  0
  5  6  2  0
  6  7  1  0
  7  8  2  0
  8  9  1  0
  9 10  1  0
 10 11  1  0
 11 12  1  0
 12 13  1  0
 13 14  1  0
  8 15  1  0
 15 16  2  0
  4 17  1  0
 17 18  2  0
 18 19  1  0
 19 20  2  0
 20 21  1  0
 21 22  2  0
 22 23  1  0
 23 24  1  0
 24 25  1  0
 25 26  1  0
 26 27  1  0
 27 28  1  0
 22 29  1  0
 29 30  2  0
 18 31  1  0
 31 32  2  0
 32 33  1  0
 33 34  1  0
 34 35  1  0
 35 36  2  0
 35 37  1  0
 37 38  1  0
 38 39  1  0
 39 40  2  0
 40 41  1  0
 41 42  1  0
 32  3  1  0
 42 38  2  0
 16  5  1  0
 30 19  1  0
 14  9  1  0
 28 23  1  0
M  END
>  <Binding energies>  (10) 
[-11.57]

>  <Ligand effiencies>  (10) 
[-0.26906976744186045]

>  <Interactions>  (10) 
["H-A:ALA:541:N:4891, V-A:PRO:540:CA:4883, V-B:ASP:366:CG:8184, V-A:TYR:539:CD1:4873, V-A:PRO:540:CB:4885, V-A:GLU:543:CD:4908, V-B:TYR:539:CZ:9849, V-B:PRO:540:CA:9855, V-B:TYR:539:CE2:9848, V-B:PRO:540:N:9856, V-B:TYR:539:CE1:9847, V-A:ASP:366:CG:3213, V-B:PRO:540:CB:9857, V-B:TYR:539:CD1:9845, V-B:TYR:539:CG:9844, H-B:TYR:539:N:9842, V-B:GLU:543:CD:9880, V-B:HIS:456:CE1:9041, V-B:GLU:543:C:9874, V-A:HIS:456:CE1:4070, V-B:GLU:543:CG:9879, V-A:GLU:543:C:4902, V-B:GLU:543:CB:9878, V-A:GLU:543:CB:4906, V-A:GLY:544:C:4912, V-A:GLU:543:CG:4907, V-B:MET:535:CE:9807, V-B:PRO:540:CD:9859, V-B:LEU:363:CD1:8160, V-B:PRO:540:CG:9858, V-A:ASN:362:CB:3176, V-A:PRO:540:C:4881, V-A:ASN:362:C:3172, V-B:ILE:538:CG2:9835, H-B:TYR:484:OH:9319, V-B:TYR:484:CZ:9318, V-B:ILE:538:CA:9832, H-A:ASN:362:ND2:3179, V-B:TYR:484:CE2:9317"]

$$$$
2c_Ghoteimi_2023
     RDKit          3D

 42 47  0  0  0  0  0  0  0  0999 V2000
  128.1480  132.5670   64.6980 N   0  0  0  0  0  0  0  0  0  0  0  0
  127.9920  131.6590   63.9980 C   0  0  0  0  0  0  0  0  0  0  0  0
  127.7940  130.5050   63.1160 C   0  0  0  0  0  0  0  0  0  0  0  0
  127.8590  129.1860   63.6290 C   0  0  0  0  0  0  0  0  0  0  0  0
  128.1280  128.8620   65.0620 C   0  0  0  0  0  0  0  0  0  0  0  0
  127.8660  129.8070   66.0560 C   0  0  0  0  0  0  0  0  0  0  0  0
  128.1090  129.5110   67.3950 C   0  0  0  0  0  0  0  0  0  0  0  0
  128.6370  128.2680   67.7760 C   0  0  0  0  0  0  0  0  0  0  0  0
  128.8700  127.9430   69.1140 N   0  0  0  0  0  0  0  0  0  0  0  0
  128.0290  126.9210   69.7670 C   0  0  0  0  0  0  0  0  0  0  0  0
  128.1290  126.9410   71.3070 C   0  0  0  0  0  0  0  0  0  0  0  0
  129.4850  126.8120   71.7080 O   0  0  0  0  0  0  0  0  0  0  0  0
  130.2840  127.8710   71.2040 C   0  0  0  0  0  0  0  0  0  0  0  0
  130.2400  127.8760   69.6610 C   0  0  0  0  0  0  0  0  0  0  0  0
  128.9010  127.3280   66.7690 C   0  0  0  0  0  0  0  0  0  0  0  0
  128.6550  127.6220   65.4320 C   0  0  0  0  0  0  0  0  0  0  0  0
  127.6600  128.1170   62.7460 C   0  0  0  0  0  0  0  0  0  0  0  0
  127.3770  128.3550   61.3970 C   0  0  0  0  0  0  0  0  0  0  0  0
  127.1400  127.2500   60.4190 C   0  0  0  0  0  0  0  0  0  0  0  0
  127.4610  125.9280   60.7420 C   0  0  0  0  0  0  0  0  0  0  0  0
  127.2370  124.8930   59.8370 C   0  0  0  0  0  0  0  0  0  0  0  0
  126.6930  125.1450   58.5680 C   0  0  0  0  0  0  0  0  0  0  0  0
  126.4380  124.1140   57.6570 N   0  0  0  0  0  0  0  0  0  0  0  0
  127.5400  123.2380   57.2110 C   0  0  0  0  0  0  0  0  0  0  0  0
  127.2070  122.4190   55.9460 C   0  0  0  0  0  0  0  0  0  0  0  0
  126.0200  121.6720   56.1500 O   0  0  0  0  0  0  0  0  0  0  0  0
  124.9130  122.5170   56.4210 C   0  0  0  0  0  0  0  0  0  0  0  0
  125.1780  123.3440   57.6970 C   0  0  0  0  0  0  0  0  0  0  0  0
  126.3600  126.4700   58.2530 C   0  0  0  0  0  0  0  0  0  0  0  0
  126.5830  127.5040   59.1590 C   0  0  0  0  0  0  0  0  0  0  0  0
  127.3130  129.6200   60.9090 N   0  0  0  0  0  0  0  0  0  0  0  0
  127.5340  130.6690   61.7360 C   0  0  0  0  0  0  0  0  0  0  0  0
  127.4220  132.2500   60.9280 S   0  0  0  0  0  0  0  0  0  0  0  0
  126.6400  131.9800   59.3090 C   0  0  0  0  0  0  0  0  0  0  0  0
  127.6710  131.8770   58.1830 C   0  0  0  0  0  0  0  0  0  0  0  0
  127.3200  131.4580   57.0790 O   0  0  0  0  0  0  0  0  0  0  0  0
  128.9240  132.2640   58.5040 N   0  0  0  0  0  0  0  0  0  0  0  0
  130.0270  132.2820   57.6640 C   0  0  0  0  0  0  0  0  0  0  0  0
  130.5050  133.2990   56.9800 N   0  0  0  0  0  0  0  0  0  0  0  0
  131.5740  132.9590   56.2880 C   0  0  0  0  0  0  0  0  0  0  0  0
  131.9850  131.6340   56.4020 C   0  0  0  0  0  0  0  0  0  0  0  0
  130.9060  130.7980   57.4790 S   0  0  0  0  0  0  0  0  0  0  0  0
  1  2  3  0
  2  3  1  0
  3  4  2  0
  4  5  1  0
  5  6  2  0
  6  7  1  0
  7  8  2  0
  8  9  1  0
  9 10  1  0
 10 11  1  0
 11 12  1  0
 12 13  1  0
 13 14  1  0
  8 15  1  0
 15 16  2  0
  4 17  1  0
 17 18  2  0
 18 19  1  0
 19 20  2  0
 20 21  1  0
 21 22  2  0
 22 23  1  0
 23 24  1  0
 24 25  1  0
 25 26  1  0
 26 27  1  0
 27 28  1  0
 22 29  1  0
 29 30  2  0
 18 31  1  0
 31 32  2  0
 32 33  1  0
 33 34  1  0
 34 35  1  0
 35 36  2  0
 35 37  1  0
 37 38  1  0
 38 39  2  0
 39 40  1  0
 40 41  2  0
 41 42  1  0
 32  3  1  0
 42 38  1  0
 16  5  1  0
 30 19  1  0
 14  9  1  0
 28 23  1  0
M  END
>  <Binding energies>  (11) 
[-11.39]

>  <Ligand effiencies>  (11) 
[-0.26488372093023255]

>  <Interactions>  (11) 
["V-A:PRO:540:CD:4887, V-A:ILE:538:CG2:4863, V-A:ILE:538:CB:4862, V-A:TYR:539:CE1:4875, V-A:LEU:363:CD1:3189, V-A:TYR:531:CE2:4793, V-B:ASP:366:CG:8184, V-A:ILE:538:CA:4860, V-A:TYR:539:CD1:4873, V-A:GLU:543:CD:4908, V-B:TYR:539:CZ:9849, V-B:PRO:540:CA:9855, V-B:TYR:539:CE2:9848, V-B:PRO:540:N:9856, V-B:TYR:539:CE1:9847, V-B:PRO:540:CB:9857, V-B:TYR:539:CD1:9845, V-B:TYR:539:CG:9844, H-B:TYR:539:N:9842, V-B:GLU:543:CD:9880, V-B:HIS:456:CE1:9041, V-B:GLU:543:C:9874, V-A:HIS:456:CE1:4070, V-B:GLU:543:CG:9879, V-A:GLU:543:C:4902, V-B:GLU:543:CB:9878, V-A:GLU:543:CB:4906, V-A:GLY:544:C:4912, V-A:GLU:543:CG:4907, V-B:MET:535:CE:9807, V-B:PRO:540:CD:9859, V-B:LEU:363:CD1:8160, V-B:PRO:540:CG:9858, H-A:TYR:539:N:4870, V-B:ILE:538:CG2:9835, H-B:TYR:484:OH:9319, H-A:TYR:539:O:4868, V-B:TYR:484:CZ:9318, V-B:ILE:538:CA:9832, V-B:TYR:484:CE2:9317"]

$$$$
2j_Grossjean_2025
     RDKit          3D

 23 24  0  0  0  0  0  0  0  0999 V2000
  129.2470  122.5640   61.2540 C   0  0  0  0  0  0  0  0  0  0  0  0
  129.1140  123.2680   59.9160 C   0  0  0  0  0  0  0  0  0  0  0  0
  128.2370  122.8120   58.9360 C   0  0  0  0  0  0  0  0  0  0  0  0
  128.1470  123.4980   57.7160 C   0  0  0  0  0  0  0  0  0  0  0  0
  127.1700  122.9800   56.6420 C   0  0  0  0  0  0  0  0  0  0  0  0
  126.1630  123.8400   56.4900 F   0  0  0  0  0  0  0  0  0  0  0  0
  127.8030  122.8440   55.4760 F   0  0  0  0  0  0  0  0  0  0  0  0
  126.6440  121.7940   56.9540 F   0  0  0  0  0  0  0  0  0  0  0  0
  128.9610  124.6430   57.5220 C   0  0  0  0  0  0  0  0  0  0  0  0
  128.9080  125.3990   56.2670 C   0  0  0  0  0  0  0  0  0  0  0  0
  128.8660  125.9960   55.2760 N   0  0  0  0  0  0  0  0  0  0  0  0
  129.8240  125.0360   58.5720 C   0  0  0  0  0  0  0  0  0  0  0  0
  130.8930  126.4620   58.4400 S   0  0  0  0  0  0  0  0  0  0  0  0
  132.4860  125.9230   57.7290 C   0  0  0  0  0  0  0  0  0  0  0  0
  133.0860  124.6640   58.3720 C   0  0  0  0  0  0  0  0  0  0  0  0
  133.9020  123.9720   57.7590 O   0  0  0  0  0  0  0  0  0  0  0  0
  132.6380  124.3960   59.6190 N   0  0  0  0  0  0  0  0  0  0  0  0
  133.0140  123.3290   60.4250 C   0  0  0  0  0  0  0  0  0  0  0  0
  132.7760  122.0500   60.2320 N   0  0  0  0  0  0  0  0  0  0  0  0
  133.2830  121.3110   61.2000 C   0  0  0  0  0  0  0  0  0  0  0  0
  133.9520  121.9940   62.2100 C   0  0  0  0  0  0  0  0  0  0  0  0
  133.9090  123.6980   61.8640 S   0  0  0  0  0  0  0  0  0  0  0  0
  129.8950  124.3580   59.7470 N   0  0  0  0  0  0  0  0  0  0  0  0
  1  2  1  0
  2  3  2  0
  3  4  1  0
  4  5  1  0
  5  6  1  0
  5  7  1  0
  5  8  1  0
  4  9  2  0
  9 10  1  0
 10 11  3  0
  9 12  1  0
 12 13  1  0
 13 14  1  0
 14 15  1  0
 15 16  2  0
 15 17  1  0
 17 18  1  0
 18 19  2  0
 19 20  1  0
 20 21  2  0
 21 22  1  0
 12 23  2  0
 23  2  1  0
 22 18  1  0
M  END
>  <Binding energies>  (12) 
[-5.85]

>  <Ligand effiencies>  (12) 
[-0.24375]

>  <Interactions>  (12) 
["H-A:TYR:531:OH:4795, V-A:TYR:531:CZ:4794, V-A:GLY:454:CA:4049, V-B:TYR:539:C:9839, V-B:TYR:539:CZ:9849, V-B:PRO:540:CA:9855, H-A:ASN:370:N:3244, V-B:TYR:539:CE2:9848, V-A:ILE:369:CG2:3237, V-A:ASP:366:CA:3210, V-B:PRO:540:N:9856, V-A:ASP:366:CB:3212, V-B:TYR:539:CE1:9847, V-A:ILE:369:CD1:3239, V-A:ASP:366:CG:3213, V-B:PRO:540:CB:9857, H-B:TYR:539:OH:9850, V-B:TYR:539:CD2:9846, V-B:TYR:539:CD1:9845, V-B:TYR:539:CG:9844, V-A:LEU:475:CD2:4259, V-B:MET:535:CE:9807, V-B:PRO:540:CD:9859, V-B:ILE:538:C:9830, V-B:TYR:539:CA:9841, V-A:SER:385:CB:3409"]

$$$$
3ab_Grossjean_2025
     RDKit          3D

 33 35  0  0  0  0  0  0  0  0999 V2000
  126.6810  125.4370   56.9190 C   0  0  0  0  0  0  0  0  0  0  0  0
  125.9960  124.2040   56.7470 O   0  0  0  0  0  0  0  0  0  0  0  0
  126.4920  123.0520   57.2650 C   0  0  0  0  0  0  0  0  0  0  0  0
  126.6180  122.0110   56.6140 O   0  0  0  0  0  0  0  0  0  0  0  0
  126.8770  123.1690   58.7120 C   0  0  0  0  0  0  0  0  0  0  0  0
  125.9900  123.6680   59.6780 C   0  0  0  0  0  0  0  0  0  0  0  0
  126.3730  123.7650   61.0130 C   0  0  0  0  0  0  0  0  0  0  0  0
  127.6590  123.3630   61.4070 C   0  0  0  0  0  0  0  0  0  0  0  0
  128.1500  123.4120   62.7260 N   0  0  0  0  0  0  0  0  0  0  0  0
  129.0910  122.6550   63.3280 C   0  0  0  0  0  0  0  0  0  0  0  0
  129.7090  121.7290   62.8020 O   0  0  0  0  0  0  0  0  0  0  0  0
  129.3820  123.0080   64.7880 C   0  0  0  0  0  0  0  0  0  0  0  0
  130.6520  124.3000   64.9400 S   0  0  0  0  0  0  0  0  0  0  0  0
  129.8310  125.8020   65.4300 C   0  0  0  0  0  0  0  0  0  0  0  0
  129.8280  126.0050   66.7680 N   0  0  0  0  0  0  0  0  0  0  0  0
  129.2400  127.1160   67.2830 C   0  0  0  0  0  0  0  0  0  0  0  0
  129.2820  127.2680   68.7740 C   0  0  0  0  0  0  0  0  0  0  0  0
  130.4390  127.7350   69.4170 C   0  0  0  0  0  0  0  0  0  0  0  0
  130.4840  127.8780   70.8010 C   0  0  0  0  0  0  0  0  0  0  0  0
  129.3670  127.5540   71.5650 C   0  0  0  0  0  0  0  0  0  0  0  0
  128.2090  127.0850   70.9540 C   0  0  0  0  0  0  0  0  0  0  0  0
  128.1690  126.9430   69.5700 C   0  0  0  0  0  0  0  0  0  0  0  0
  128.6150  128.0480   66.4460 C   0  0  0  0  0  0  0  0  0  0  0  0
  128.5880  127.8500   65.0580 C   0  0  0  0  0  0  0  0  0  0  0  0
  127.8860  128.8970   64.1720 C   0  0  0  0  0  0  0  0  0  0  0  0
  128.6640  129.3460   63.1850 F   0  0  0  0  0  0  0  0  0  0  0  0
  126.7960  128.3700   63.6130 F   0  0  0  0  0  0  0  0  0  0  0  0
  127.5260  129.9490   64.9100 F   0  0  0  0  0  0  0  0  0  0  0  0
  129.2060  126.6900   64.5260 C   0  0  0  0  0  0  0  0  0  0  0  0
  129.1570  126.4070   63.0900 C   0  0  0  0  0  0  0  0  0  0  0  0
  129.1170  126.1860   61.9540 N   0  0  0  0  0  0  0  0  0  0  0  0
  128.5410  122.8620   60.4490 C   0  0  0  0  0  0  0  0  0  0  0  0
  128.1560  122.7670   59.1150 C   0  0  0  0  0  0  0  0  0  0  0  0
  1  2  1  0
  2  3  1  0
  3  4  2  0
  3  5  1  0
  5  6  2  0
  6  7  1  0
  7  8  2  0
  8  9  1  0
  9 10  1  0
 10 11  2  0
 10 12  1  0
 12 13  1  0
 13 14  1  0
 14 15  2  0
 15 16  1  0
 16 17  1  0
 17 18  2  0
 18 19  1  0
 19 20  2  0
 20 21  1  0
 21 22  2  0
 16 23  2  0
 23 24  1  0
 24 25  1  0
 25 26  1  0
 25 27  1  0
 25 28  1  0
 24 29  2  0
 29 30  1  0
 30 31  3  0
  8 32  1  0
 32 33  2  0
 33  5  1  0
 29 14  1  0
 22 17  1  0
M  END
>  <Binding energies>  (13) 
[-8.44]

>  <Ligand effiencies>  (13) 
[-0.24823529411764705]

>  <Interactions>  (13) 
["V-B:TYR:539:C:9839, V-A:GLU:543:CD:4908, V-B:PRO:540:CA:9855, V-B:TYR:539:CE2:9848, V-B:PRO:540:N:9856, H-A:TYR:484:OH:4348, V-B:PRO:540:CB:9857, V-B:TYR:539:CD2:9846, H-B:TYR:539:N:9842, V-B:GLU:543:CD:9880, V-B:HIS:456:CE1:9041, V-B:GLU:543:C:9874, V-A:HIS:456:CE1:4070, V-B:GLU:543:CG:9879, V-B:ALA:541:CB:9864, V-A:GLU:543:C:4902, V-B:GLU:543:CB:9878, V-A:TYR:484:CE2:4346, V-A:GLU:543:CB:4906, V-A:GLY:544:C:4912, V-A:GLU:543:CG:4907, H-B:GLU:543:OE1:9881, V-B:TYR:531:CZ:9766"]

$$$$
3ac_Grossjean_2025
     RDKit          3D

 31 33  0  0  0  0  0  0  0  0999 V2000
  128.0530  138.3540   62.0290 C   0  0  0  0  0  0  0  0  0  0  0  0
  126.7770  138.3980   61.3980 O   0  0  0  0  0  0  0  0  0  0  0  0
  126.0450  137.2330   61.2740 C   0  0  0  0  0  0  0  0  0  0  0  0
  126.7530  136.0380   61.3930 C   0  0  0  0  0  0  0  0  0  0  0  0
  126.0990  134.8140   61.2880 C   0  0  0  0  0  0  0  0  0  0  0  0
  124.7240  134.7680   61.0510 C   0  0  0  0  0  0  0  0  0  0  0  0
  124.1490  133.4850   60.9810 N   0  0  0  0  0  0  0  0  0  0  0  0
  123.2010  132.9330   61.7680 C   0  0  0  0  0  0  0  0  0  0  0  0
  122.6250  133.5030   62.6950 O   0  0  0  0  0  0  0  0  0  0  0  0
  122.8390  131.4830   61.4450 C   0  0  0  0  0  0  0  0  0  0  0  0
  124.0910  130.6780   60.3990 S   0  0  0  0  0  0  0  0  0  0  0  0
  125.7040  131.2620   60.8860 C   0  0  0  0  0  0  0  0  0  0  0  0
  126.4980  131.5730   59.8330 N   0  0  0  0  0  0  0  0  0  0  0  0
  127.7560  132.0380   60.0490 C   0  0  0  0  0  0  0  0  0  0  0  0
  128.5720  132.3520   58.8300 C   0  0  0  0  0  0  0  0  0  0  0  0
  129.9690  132.4690   58.9120 C   0  0  0  0  0  0  0  0  0  0  0  0
  130.7330  132.7540   57.7840 C   0  0  0  0  0  0  0  0  0  0  0  0
  130.1070  132.9300   56.5540 C   0  0  0  0  0  0  0  0  0  0  0  0
  128.7250  132.8250   56.4460 C   0  0  0  0  0  0  0  0  0  0  0  0
  127.9650  132.5400   57.5770 C   0  0  0  0  0  0  0  0  0  0  0  0
  128.2520  132.1850   61.3480 C   0  0  0  0  0  0  0  0  0  0  0  0
  127.4580  131.8490   62.4540 C   0  0  0  0  0  0  0  0  0  0  0  0
  128.0470  132.0220   63.8680 C   0  0  0  0  0  0  0  0  0  0  0  0
  127.4900  133.0300   64.5420 F   0  0  0  0  0  0  0  0  0  0  0  0
  127.8580  130.9130   64.5850 F   0  0  0  0  0  0  0  0  0  0  0  0
  129.3560  132.2650   63.7870 F   0  0  0  0  0  0  0  0  0  0  0  0
  126.1490  131.3580   62.2250 C   0  0  0  0  0  0  0  0  0  0  0  0
  125.3120  130.9220   63.3440 C   0  0  0  0  0  0  0  0  0  0  0  0
  124.6510  130.5770   64.2290 N   0  0  0  0  0  0  0  0  0  0  0  0
  124.0030  135.9670   60.9380 C   0  0  0  0  0  0  0  0  0  0  0  0
  124.6600  137.1890   61.0450 C   0  0  0  0  0  0  0  0  0  0  0  0
  1  2  1  0
  2  3  1  0
  3  4  2  0
  4  5  1  0
  5  6  2  0
  6  7  1  0
  7  8  1  0
  8  9  2  0
  8 10  1  0
 10 11  1  0
 11 12  1  0
 12 13  2  0
 13 14  1  0
 14 15  1  0
 15 16  2  0
 16 17  1  0
 17 18  2  0
 18 19  1  0
 19 20  2  0
 14 21  2  0
 21 22  1  0
 22 23  1  0
 23 24  1  0
 23 25  1  0
 23 26  1  0
 22 27  2  0
 27 28  1  0
 28 29  3  0
  6 30  1  0
 30 31  2  0
 31  3  1  0
 27 12  1  0
 20 15  1  0
M  END
>  <Binding energies>  (14) 
[-7.86]

>  <Ligand effiencies>  (14) 
[-0.245625]

>  <Interactions>  (14) 
["V-A:PRO:540:CD:4887, V-B:ILE:369:CG1:8209, V-A:ILE:538:CB:4862, V-B:SER:385:CA:8378, V-B:ILE:369:CB:8207, V-A:TYR:539:CE1:4875, V-A:TYR:539:CZ:4877, V-B:ILE:369:CG2:8208, V-A:PRO:540:CA:4883, V-B:LEU:475:CD2:9230, V-A:ILE:538:CA:4860, V-B:LEU:373:CD1:8251, V-A:MET:535:CE:4835, V-B:SER:385:CB:8380, V-A:TYR:539:CD1:4873, V-A:ALA:541:CB:4892, V-A:PRO:540:N:4884, V-A:PRO:540:CB:4885, V-A:TYR:539:C:4867, V-A:GLU:543:CD:4908, V-A:TYR:539:CG:4872, V-A:GLU:543:CG:4907, V-A:ALA:541:CA:4890, H-B:TYR:484:OH:9319, H-B:GLY:454:N:9021, V-A:VAL:344:CG1:3001, V-B:PRO:482:CB:9297, V-B:TYR:484:CZ:9318, V-B:HIS:383:CD2:8363, H-B:HIS:383:NE2:8365, V-B:TYR:484:CE2:9317"]

$$$$
3af_Grossjean_2025
     RDKit          3D

 29 31  0  0  0  0  0  0  0  0999 V2000
  124.6240  130.0940   64.7310 N   0  0  0  0  0  0  0  0  0  0  0  0
  124.7770  130.2970   63.6020 C   0  0  0  0  0  0  0  0  0  0  0  0
  124.9690  130.5550   62.1720 C   0  0  0  0  0  0  0  0  0  0  0  0
  123.8640  130.8470   61.3360 C   0  0  0  0  0  0  0  0  0  0  0  0
  122.4230  130.9620   61.8700 C   0  0  0  0  0  0  0  0  0  0  0  0
  121.5020  130.7990   60.9180 F   0  0  0  0  0  0  0  0  0  0  0  0
  122.2070  130.0310   62.8010 F   0  0  0  0  0  0  0  0  0  0  0  0
  122.2280  132.1660   62.4090 F   0  0  0  0  0  0  0  0  0  0  0  0
  124.0920  131.0320   59.9630 C   0  0  0  0  0  0  0  0  0  0  0  0
  125.3850  130.9260   59.4410 C   0  0  0  0  0  0  0  0  0  0  0  0
  125.6820  131.0960   57.9810 C   0  0  0  0  0  0  0  0  0  0  0  0
  126.8810  131.6910   57.5570 C   0  0  0  0  0  0  0  0  0  0  0  0
  127.1630  131.8490   56.2020 C   0  0  0  0  0  0  0  0  0  0  0  0
  126.2470  131.4120   55.2520 C   0  0  0  0  0  0  0  0  0  0  0  0
  125.0540  130.8160   55.6450 C   0  0  0  0  0  0  0  0  0  0  0  0
  124.7750  130.6590   57.0000 C   0  0  0  0  0  0  0  0  0  0  0  0
  126.4400  130.6420   60.2450 N   0  0  0  0  0  0  0  0  0  0  0  0
  126.2490  130.4820   61.5770 C   0  0  0  0  0  0  0  0  0  0  0  0
  127.7510  130.1310   62.4680 S   0  0  0  0  0  0  0  0  0  0  0  0
  128.6470  131.6960   62.6990 C   0  0  0  0  0  0  0  0  0  0  0  0
  129.6920  131.9190   61.6070 C   0  0  0  0  0  0  0  0  0  0  0  0
  130.8440  132.2070   61.9300 O   0  0  0  0  0  0  0  0  0  0  0  0
  129.2430  131.7840   60.3400 N   0  0  0  0  0  0  0  0  0  0  0  0
  129.9350  131.9280   59.1210 C   0  0  0  0  0  0  0  0  0  0  0  0
  130.9090  131.0460   58.6200 C   0  0  0  0  0  0  0  0  0  0  0  0
  131.5190  131.3150   57.3930 C   0  0  0  0  0  0  0  0  0  0  0  0
  131.1390  132.4610   56.6950 C   0  0  0  0  0  0  0  0  0  0  0  0
  130.2030  133.3270   57.1560 N   0  0  0  0  0  0  0  0  0  0  0  0
  129.6190  133.0520   58.3500 C   0  0  0  0  0  0  0  0  0  0  0  0
  1  2  3  0
  2  3  1  0
  3  4  2  0
  4  5  1  0
  5  6  1  0
  5  7  1  0
  5  8  1  0
  4  9  1  0
  9 10  2  0
 10 11  1  0
 11 12  2  0
 12 13  1  0
 13 14  2  0
 14 15  1  0
 15 16  2  0
 10 17  1  0
 17 18  2  0
 18 19  1  0
 19 20  1  0
 20 21  1  0
 21 22  2  0
 21 23  1  0
 23 24  1  0
 24 25  2  0
 25 26  1  0
 26 27  2  0
 27 28  1  0
 28 29  2  0
 18  3  1  0
 29 24  1  0
 16 11  1  0
M  END
>  <Binding energies>  (15) 
[-7.47]

>  <Ligand effiencies>  (15) 
[-0.249]

>  <Interactions>  (15) 
["V-B:ILE:369:CG1:8209, H-A:ALA:541:N:4891, V-A:TYR:539:CE2:4876, V-A:ILE:538:CB:4862, V-B:GLY:453:C:9013, V-B:ASP:366:CB:8183, V-B:ILE:369:CB:8207, V-A:TYR:539:CE1:4875, V-A:LEU:363:CD1:3189, V-A:TYR:539:CZ:4877, V-B:ILE:369:CG2:8208, V-A:PRO:540:CA:4883, V-B:ASP:366:CG:8184, V-B:GLY:454:CA:9020, V-A:MET:535:CE:4835, V-B:ASP:366:CA:8181, V-B:GLY:453:CA:9015, V-A:TYR:539:CD1:4873, V-A:PRO:540:N:4884, V-A:TYR:539:C:4867, H-A:TYR:539:N:4870, V-B:TYR:531:CZ:9766, V-B:TYR:531:CE1:9764, V-B:ARG:545:CZ:9898, H-B:TYR:484:OH:9319, H-B:GLY:454:N:9021, H-B:ARG:545:NE:9896, V-B:CYS:365:C:8175, V-B:ILE:369:CD1:8210"]

$$$$
3ag_Grossjean_2025
     RDKit          3D

 30 32  0  0  0  0  0  0  0  0999 V2000
  123.6580  132.1930   61.1890 N   0  0  0  0  0  0  0  0  0  0  0  0
  124.6230  132.1940   60.5500 C   0  0  0  0  0  0  0  0  0  0  0  0
  125.8420  132.1930   59.7370 C   0  0  0  0  0  0  0  0  0  0  0  0
  125.8990  131.4740   58.5180 C   0  0  0  0  0  0  0  0  0  0  0  0
  124.6890  130.7110   57.9450 C   0  0  0  0  0  0  0  0  0  0  0  0
  123.5320  131.3430   58.1530 F   0  0  0  0  0  0  0  0  0  0  0  0
  124.8320  130.5570   56.6280 F   0  0  0  0  0  0  0  0  0  0  0  0
  124.5930  129.5080   58.5140 F   0  0  0  0  0  0  0  0  0  0  0  0
  127.1060  131.4600   57.8030 C   0  0  0  0  0  0  0  0  0  0  0  0
  128.2290  132.1330   58.2980 C   0  0  0  0  0  0  0  0  0  0  0  0
  129.5430  132.1480   57.5780 C   0  0  0  0  0  0  0  0  0  0  0  0
  129.9760  131.0280   56.8510 C   0  0  0  0  0  0  0  0  0  0  0  0
  131.1950  131.0360   56.1790 C   0  0  0  0  0  0  0  0  0  0  0  0
  132.0020  132.1680   56.2270 C   0  0  0  0  0  0  0  0  0  0  0  0
  131.5980  133.2910   56.9430 C   0  0  0  0  0  0  0  0  0  0  0  0
  130.3790  133.2790   57.6130 C   0  0  0  0  0  0  0  0  0  0  0  0
  128.1670  132.8310   59.4610 N   0  0  0  0  0  0  0  0  0  0  0  0
  127.0060  132.8750   60.1580 C   0  0  0  0  0  0  0  0  0  0  0  0
  127.1090  133.8360   61.6510 S   0  0  0  0  0  0  0  0  0  0  0  0
  126.9150  132.6890   63.0480 C   0  0  0  0  0  0  0  0  0  0  0  0
  128.2610  132.2620   63.6370 C   0  0  0  0  0  0  0  0  0  0  0  0
  128.3140  131.8040   64.7800 O   0  0  0  0  0  0  0  0  0  0  0  0
  129.3350  132.4120   62.8420 N   0  0  0  0  0  0  0  0  0  0  0  0
  130.7060  132.0380   63.1880 C   0  0  0  0  0  0  0  0  0  0  0  0
  131.6050  131.7860   61.9820 C   0  0  0  0  0  0  0  0  0  0  0  0
  131.0400  131.3960   60.7650 C   0  0  0  0  0  0  0  0  0  0  0  0
  131.8550  131.1940   59.6540 C   0  0  0  0  0  0  0  0  0  0  0  0
  133.2300  131.3920   59.7620 C   0  0  0  0  0  0  0  0  0  0  0  0
  133.7980  131.7950   60.9680 C   0  0  0  0  0  0  0  0  0  0  0  0
  132.9840  131.9980   62.0790 C   0  0  0  0  0  0  0  0  0  0  0  0
  1  2  3  0
  2  3  1  0
  3  4  2  0
  4  5  1  0
  5  6  1  0
  5  7  1  0
  5  8  1  0
  4  9  1  0
  9 10  2  0
 10 11  1  0
 11 12  2  0
 12 13  1  0
 13 14  2  0
 14 15  1  0
 15 16  2  0
 10 17  1  0
 17 18  2  0
 18 19  1  0
 19 20  1  0
 20 21  1  0
 21 22  2  0
 21 23  1  0
 23 24  1  0
 24 25  1  0
 25 26  2  0
 26 27  1  0
 27 28  2  0
 28 29  1  0
 29 30  2  0
 18  3  1  0
 30 25  1  0
 16 11  1  0
M  END
>  <Binding energies>  (16) 
[-7.85]

>  <Ligand effiencies>  (16) 
[-0.2532258064516129]

>  <Interactions>  (16) 
["V-A:TYR:539:CA:4869, V-A:PRO:540:CD:4887, V-A:ILE:538:CG2:4863, V-A:ILE:538:CB:4862, V-B:ASP:366:CB:8183, V-B:ILE:369:CB:8207, V-A:TYR:539:CE1:4875, V-A:LEU:363:CD1:3189, V-A:TYR:539:CZ:4877, V-A:TYR:531:CZ:4794, V-A:TYR:531:CE2:4793, V-B:ILE:369:CG2:8208, V-A:PRO:540:CA:4883, V-B:LEU:475:CD2:9230, V-B:ASP:366:CG:8184, V-A:ILE:538:CA:4860, V-A:MET:535:CE:4835, V-B:ASP:366:CA:8181, V-A:TYR:539:CD1:4873, V-A:ALA:541:CB:4892, V-A:PRO:540:N:4884, V-A:PRO:540:CB:4885, V-A:TYR:539:C:4867, V-A:GLU:543:CD:4908, V-A:ASP:366:CG:3213, V-A:GLU:543:CG:4907, V-A:ALA:541:CA:4890, V-A:ASN:362:CB:3176, V-B:ASP:366:C:8179, V-B:TYR:531:CZ:9766, V-B:TYR:531:CE1:9764, V-A:ALA:541:C:4888, V-A:LEU:363:CA:3185, V-A:PRO:540:CG:4886, V-A:ASN:362:C:3172, H-B:TYR:484:OH:9319"]

$$$$
3bc_Grossjean_2025
     RDKit          3D

 28 30  0  0  0  0  0  0  0  0999 V2000
  128.0350  138.1980   62.0230 C   0  0  0  0  0  0  0  0  0  0  0  0
  126.7700  138.2430   61.3720 O   0  0  0  0  0  0  0  0  0  0  0  0
  126.0300  137.0810   61.2570 C   0  0  0  0  0  0  0  0  0  0  0  0
  126.7280  135.8830   61.4090 C   0  0  0  0  0  0  0  0  0  0  0  0
  126.0680  134.6610   61.3100 C   0  0  0  0  0  0  0  0  0  0  0  0
  124.6970  134.6220   61.0480 C   0  0  0  0  0  0  0  0  0  0  0  0
  124.1150  133.3420   60.9770 N   0  0  0  0  0  0  0  0  0  0  0  0
  123.1650  132.7930   61.7640 C   0  0  0  0  0  0  0  0  0  0  0  0
  122.6030  133.3750   62.6940 O   0  0  0  0  0  0  0  0  0  0  0  0
  122.7780  131.3540   61.3940 C   0  0  0  0  0  0  0  0  0  0  0  0
  124.0470  130.4220   60.4730 S   0  0  0  0  0  0  0  0  0  0  0  0
  125.6410  131.0350   60.9710 C   0  0  0  0  0  0  0  0  0  0  0  0
  126.4340  131.4010   59.9340 N   0  0  0  0  0  0  0  0  0  0  0  0
  127.6790  131.8900   60.1730 C   0  0  0  0  0  0  0  0  0  0  0  0
  128.4990  132.2520   58.9710 C   0  0  0  0  0  0  0  0  0  0  0  0
  127.9000  132.3870   57.7090 C   0  0  0  0  0  0  0  0  0  0  0  0
  128.6550  132.7240   56.5880 C   0  0  0  0  0  0  0  0  0  0  0  0
  130.0250  132.9280   56.7160 C   0  0  0  0  0  0  0  0  0  0  0  0
  130.6440  132.7970   57.9550 C   0  0  0  0  0  0  0  0  0  0  0  0
  129.8850  132.4600   59.0720 C   0  0  0  0  0  0  0  0  0  0  0  0
  128.1600  132.0220   61.4790 C   0  0  0  0  0  0  0  0  0  0  0  0
  127.3470  131.6700   62.5620 C   0  0  0  0  0  0  0  0  0  0  0  0
  127.9080  131.8470   63.9720 C   0  0  0  0  0  0  0  0  0  0  0  0
  126.0480  131.1720   62.3180 C   0  0  0  0  0  0  0  0  0  0  0  0
  125.1620  130.8440   63.4360 C   0  0  0  0  0  0  0  0  0  0  0  0
  124.4640  130.5840   64.3220 N   0  0  0  0  0  0  0  0  0  0  0  0
  123.9860  135.8220   60.9070 C   0  0  0  0  0  0  0  0  0  0  0  0
  124.6490  137.0430   61.0070 C   0  0  0  0  0  0  0  0  0  0  0  0
  1  2  1  0
  2  3  1  0
  3  4  2  0
  4  5  1  0
  5  6  2  0
  6  7  1  0
  7  8  1  0
  8  9  2  0
  8 10  1  0
 10 11  1  0
 11 12  1  0
 12 13  2  0
 13 14  1  0
 14 15  1  0
 15 16  2  0
 16 17  1  0
 17 18  2  0
 18 19  1  0
 19 20  2  0
 14 21  2  0
 21 22  1  0
 22 23  1  0
 22 24  2  0
 24 25  1  0
 25 26  3  0
  6 27  1  0
 27 28  2  0
 28  3  1  0
 24 12  1  0
 20 15  1  0
M  END
>  <Binding energies>  (17) 
[-8.03]

>  <Ligand effiencies>  (17) 
[-0.2768965517241379]

>  <Interactions>  (17) 
["V-A:PRO:540:CD:4887, V-B:ILE:369:CG1:8209, V-A:ILE:538:CB:4862, V-B:SER:385:CA:8378, V-B:ILE:369:CB:8207, V-A:TYR:539:CE1:4875, V-A:TYR:539:CZ:4877, V-B:ILE:369:CG2:8208, V-A:PRO:540:CA:4883, V-B:LEU:475:CD2:9230, V-A:ILE:538:CA:4860, V-B:LEU:373:CD1:8251, V-A:MET:535:CE:4835, V-B:SER:385:CB:8380, V-A:TYR:539:CD1:4873, V-A:PRO:540:N:4884, V-A:PRO:540:CB:4885, V-A:TYR:539:C:4867, H-B:TYR:484:OH:9319, H-B:GLY:454:N:9021, V-A:VAL:344:CG1:3001, V-B:PRO:482:CB:9297, V-B:HIS:383:CD2:8363, H-B:HIS:383:NE2:8365"]

$$$$
3bd_Grossjean_2025
     RDKit          3D

 26 28  0  0  0  0  0  0  0  0999 V2000
  124.2620  130.6250   57.0210 C   0  0  0  0  0  0  0  0  0  0  0  0
  125.6150  131.2820   57.2880 C   0  0  0  0  0  0  0  0  0  0  0  0
  126.0230  131.4410   58.6170 C   0  0  0  0  0  0  0  0  0  0  0  0
  127.2540  132.0410   58.9040 C   0  0  0  0  0  0  0  0  0  0  0  0
  127.7530  132.2380   60.3050 C   0  0  0  0  0  0  0  0  0  0  0  0
  127.7630  131.1730   61.2190 C   0  0  0  0  0  0  0  0  0  0  0  0
  128.2230  131.3490   62.5220 C   0  0  0  0  0  0  0  0  0  0  0  0
  128.6810  132.5980   62.9290 C   0  0  0  0  0  0  0  0  0  0  0  0
  128.6790  133.6700   62.0430 C   0  0  0  0  0  0  0  0  0  0  0  0
  128.2180  133.4900   60.7430 C   0  0  0  0  0  0  0  0  0  0  0  0
  128.0720  132.4630   57.9040 N   0  0  0  0  0  0  0  0  0  0  0  0
  127.6920  132.3170   56.6090 C   0  0  0  0  0  0  0  0  0  0  0  0
  128.8500  132.9220   55.3920 S   0  0  0  0  0  0  0  0  0  0  0  0
  130.4680  132.1660   55.7280 C   0  0  0  0  0  0  0  0  0  0  0  0
  130.9810  132.5090   57.1270 C   0  0  0  0  0  0  0  0  0  0  0  0
  130.8770  133.6660   57.5350 O   0  0  0  0  0  0  0  0  0  0  0  0
  131.5360  131.4870   57.8150 N   0  0  0  0  0  0  0  0  0  0  0  0
  132.0670  131.4820   59.1180 C   0  0  0  0  0  0  0  0  0  0  0  0
  131.1370  131.4920   60.1610 C   0  0  0  0  0  0  0  0  0  0  0  0
  131.5680  131.4970   61.4850 C   0  0  0  0  0  0  0  0  0  0  0  0
  132.9310  131.5010   61.7670 C   0  0  0  0  0  0  0  0  0  0  0  0
  133.8680  131.5050   60.7370 C   0  0  0  0  0  0  0  0  0  0  0  0
  133.4400  131.4990   59.4120 C   0  0  0  0  0  0  0  0  0  0  0  0
  126.4610  131.7280   56.2500 C   0  0  0  0  0  0  0  0  0  0  0  0
  126.0630  131.5750   54.8470 C   0  0  0  0  0  0  0  0  0  0  0  0
  125.7490  131.4530   53.7400 N   0  0  0  0  0  0  0  0  0  0  0  0
  1  2  1  0
  2  3  2  0
  3  4  1  0
  4  5  1  0
  5  6  2  0
  6  7  1  0
  7  8  2  0
  8  9  1  0
  9 10  2  0
  4 11  2  0
 11 12  1  0
 12 13  1  0
 13 14  1  0
 14 15  1  0
 15 16  2  0
 15 17  1  0
 17 18  1  0
 18 19  2  0
 19 20  1  0
 20 21  2  0
 21 22  1  0
 22 23  2  0
 12 24  2  0
 24 25  1  0
 25 26  3  0
 24  2  1  0
 10  5  1  0
 23 18  1  0
M  END
>  <Binding energies>  (18) 
[-8.04]

>  <Ligand effiencies>  (18) 
[-0.29777777777777775]

>  <Interactions>  (18) 
["V-A:ILE:538:CG2:4863, V-A:TYR:539:CE2:4876, H-A:TYR:531:OH:4795, V-A:ILE:538:CB:4862, V-B:ASP:366:CB:8183, V-A:TYR:539:CE1:4875, V-A:LEU:363:CD1:3189, V-A:TYR:539:CZ:4877, V-A:PRO:540:CA:4883, V-A:ILE:538:CA:4860, V-A:MET:535:CE:4835, V-A:TYR:539:CD1:4873, V-A:ALA:541:CB:4892, V-A:PRO:540:N:4884, V-A:PRO:540:CB:4885, V-A:TYR:539:C:4867, V-A:ASP:366:CG:3213, V-A:ALA:541:CA:4890, H-A:TYR:539:OH:4878, V-A:ASN:362:CB:3176, H-A:TYR:539:N:4870, V-B:ASP:366:C:8179, V-A:PRO:540:C:4881, V-B:TYR:531:CZ:9766, V-B:TYR:531:CE1:9764, V-A:LEU:363:CA:3185, V-A:ASN:362:C:3172, V-A:LEU:363:CB:3187"]

$$$$
3be_Grossjean_2025
     RDKit          3D

 27 29  0  0  0  0  0  0  0  0999 V2000
  126.7320  137.4460   61.0460 C   0  0  0  0  0  0  0  0  0  0  0  0
  125.9750  136.1680   61.3490 C   0  0  0  0  0  0  0  0  0  0  0  0
  124.5810  136.1460   61.4380 C   0  0  0  0  0  0  0  0  0  0  0  0
  123.9520  134.9340   61.7220 C   0  0  0  0  0  0  0  0  0  0  0  0
  124.7230  133.7840   61.9080 C   0  0  0  0  0  0  0  0  0  0  0  0
  126.1160  133.8740   61.8010 C   0  0  0  0  0  0  0  0  0  0  0  0
  126.8360  132.6830   62.0090 N   0  0  0  0  0  0  0  0  0  0  0  0
  127.4980  132.2770   63.1140 C   0  0  0  0  0  0  0  0  0  0  0  0
  127.5780  132.9260   64.1590 O   0  0  0  0  0  0  0  0  0  0  0  0
  128.1710  130.9020   62.9910 C   0  0  0  0  0  0  0  0  0  0  0  0
  127.0330  129.5010   62.7210 S   0  0  0  0  0  0  0  0  0  0  0  0
  125.6120  130.1070   61.8370 C   0  0  0  0  0  0  0  0  0  0  0  0
  125.8290  130.2780   60.5100 N   0  0  0  0  0  0  0  0  0  0  0  0
  124.8270  130.7330   59.7120 C   0  0  0  0  0  0  0  0  0  0  0  0
  125.1540  130.9080   58.2590 C   0  0  0  0  0  0  0  0  0  0  0  0
  126.4790  131.1120   57.8410 C   0  0  0  0  0  0  0  0  0  0  0  0
  126.7890  131.2770   56.4940 C   0  0  0  0  0  0  0  0  0  0  0  0
  125.7750  131.2430   55.5430 C   0  0  0  0  0  0  0  0  0  0  0  0
  124.4540  131.0450   55.9300 C   0  0  0  0  0  0  0  0  0  0  0  0
  124.1480  130.8800   57.2780 C   0  0  0  0  0  0  0  0  0  0  0  0
  123.5680  131.0330   60.2430 C   0  0  0  0  0  0  0  0  0  0  0  0
  123.3200  130.8390   61.6060 C   0  0  0  0  0  0  0  0  0  0  0  0
  121.9240  131.1620   62.1370 C   0  0  0  0  0  0  0  0  0  0  0  0
  124.3540  130.3530   62.4340 C   0  0  0  0  0  0  0  0  0  0  0  0
  124.1000  130.0910   63.8520 C   0  0  0  0  0  0  0  0  0  0  0  0
  123.8970  129.8850   64.9730 N   0  0  0  0  0  0  0  0  0  0  0  0
  126.7370  135.0580   61.5260 N   0  0  0  0  0  0  0  0  0  0  0  0
  1  2  1  0
  2  3  2  0
  3  4  1  0
  4  5  2  0
  5  6  1  0
  6  7  1  0
  7  8  1  0
  8  9  2  0
  8 10  1  0
 10 11  1  0
 11 12  1  0
 12 13  2  0
 13 14  1  0
 14 15  1  0
 15 16  2  0
 16 17  1  0
 17 18  2  0
 18 19  1  0
 19 20  2  0
 14 21  2  0
 21 22  1  0
 22 23  1  0
 22 24  2  0
 24 25  1  0
 25 26  3  0
  6 27  2  0
 27  2  1  0
 24 12  1  0
 20 15  1  0
M  END
>  <Binding energies>  (19) 
[-8.07]

>  <Ligand effiencies>  (19) 
[-0.2882142857142857]

>  <Interactions>  (19) 
["V-B:ILE:369:CG1:8209, V-B:GLY:453:C:9013, V-B:ASP:366:CB:8183, V-B:SER:385:CA:8378, V-B:ILE:369:CB:8207, V-A:TYR:539:CE1:4875, V-A:TYR:539:CZ:4877, V-B:ILE:369:CG2:8208, V-B:LEU:475:CD2:9230, V-B:ASP:366:CG:8184, V-B:GLY:454:CA:9020, V-A:MET:535:CE:4835, V-B:SER:385:CB:8380, V-B:ASP:366:CA:8181, V-B:GLY:453:CA:9015, V-A:TYR:539:CD1:4873, V-A:TYR:539:C:4867, V-B:ASP:366:C:8179, V-B:TYR:531:CZ:9766, V-B:TYR:531:CE1:9764, V-B:ARG:545:CZ:9898, H-B:TYR:484:OH:9319, V-B:ASN:370:CB:8216, H-B:GLY:454:N:9021, H-B:ARG:545:NE:9896, V-A:TYR:539:CB:4871, H-B:ARG:545:NH2:9900"]

$$$$
3bf_Grossjean_2025
     RDKit          3D

 26 28  0  0  0  0  0  0  0  0999 V2000
  122.1010  131.0500   61.9560 C   0  0  0  0  0  0  0  0  0  0  0  0
  123.5080  130.9010   61.3810 C   0  0  0  0  0  0  0  0  0  0  0  0
  123.6680  131.0070   59.9950 C   0  0  0  0  0  0  0  0  0  0  0  0
  124.9420  130.8920   59.4280 C   0  0  0  0  0  0  0  0  0  0  0  0
  125.1830  131.0170   57.9540 C   0  0  0  0  0  0  0  0  0  0  0  0
  126.4790  131.2280   57.4560 C   0  0  0  0  0  0  0  0  0  0  0  0
  126.7110  131.3450   56.0880 C   0  0  0  0  0  0  0  0  0  0  0  0
  125.6460  131.2540   55.1970 C   0  0  0  0  0  0  0  0  0  0  0  0
  124.3530  131.0470   55.6650 C   0  0  0  0  0  0  0  0  0  0  0  0
  124.1250  130.9310   57.0340 C   0  0  0  0  0  0  0  0  0  0  0  0
  126.0350  130.6770   60.2070 N   0  0  0  0  0  0  0  0  0  0  0  0
  125.8930  130.5480   61.5490 C   0  0  0  0  0  0  0  0  0  0  0  0
  127.4280  130.2660   62.4050 S   0  0  0  0  0  0  0  0  0  0  0  0
  128.2620  131.8750   62.6180 C   0  0  0  0  0  0  0  0  0  0  0  0
  129.3060  132.2160   61.5440 C   0  0  0  0  0  0  0  0  0  0  0  0
  130.4480  132.5520   61.8610 O   0  0  0  0  0  0  0  0  0  0  0  0
  128.8690  132.0850   60.2720 N   0  0  0  0  0  0  0  0  0  0  0  0
  129.5620  132.3260   59.0710 C   0  0  0  0  0  0  0  0  0  0  0  0
  130.7930  131.6820   58.9040 C   0  0  0  0  0  0  0  0  0  0  0  0
  131.5220  131.8710   57.7280 C   0  0  0  0  0  0  0  0  0  0  0  0
  130.9920  132.7020   56.7410 C   0  0  0  0  0  0  0  0  0  0  0  0
  129.7960  133.3300   56.8710 N   0  0  0  0  0  0  0  0  0  0  0  0
  129.0980  133.1370   58.0210 C   0  0  0  0  0  0  0  0  0  0  0  0
  124.6410  130.6720   62.1910 C   0  0  0  0  0  0  0  0  0  0  0  0
  124.5020  130.6080   63.6490 C   0  0  0  0  0  0  0  0  0  0  0  0
  124.3910  130.5570   64.7990 N   0  0  0  0  0  0  0  0  0  0  0  0
  1  2  1  0
  2  3  2  0
  3  4  1  0
  4  5  1  0
  5  6  2  0
  6  7  1  0
  7  8  2  0
  8  9  1  0
  9 10  2  0
  4 11  2  0
 11 12  1  0
 12 13  1  0
 13 14  1  0
 14 15  1  0
 15 16  2  0
 15 17  1  0
 17 18  1  0
 18 19  2  0
 19 20  1  0
 20 21  2  0
 21 22  1  0
 22 23  2  0
 12 24  2  0
 24 25  1  0
 25 26  3  0
 24  2  1  0
 10  5  1  0
 23 18  1  0
M  END
>  <Binding energies>  (20) 
[-8.32]

>  <Ligand effiencies>  (20) 
[-0.30814814814814817]

>  <Interactions>  (20) 
["V-A:TYR:539:CA:4869, V-B:ILE:369:CG1:8209, H-A:ALA:541:N:4891, V-A:ILE:538:CB:4862, V-B:GLY:453:C:9013, V-B:ASP:366:CB:8183, V-B:ILE:369:CB:8207, V-A:TYR:539:CE1:4875, V-A:LEU:363:CD1:3189, V-A:TYR:539:CZ:4877, V-B:ILE:369:CG2:8208, V-A:PRO:540:CA:4883, V-B:ASP:366:CG:8184, V-B:GLY:454:CA:9020, V-A:MET:535:CE:4835, V-B:ASP:366:CA:8181, V-B:GLY:453:CA:9015, V-A:TYR:539:CD1:4873, V-A:PRO:540:N:4884, V-A:PRO:540:CB:4885, V-A:TYR:539:C:4867, V-A:TYR:539:CG:4872, H-A:TYR:539:N:4870, V-B:ASP:366:C:8179, V-B:TYR:531:CZ:9766, V-B:TYR:531:CE1:9764, H-B:TYR:484:OH:9319, V-B:ASN:370:CB:8216, H-B:GLY:454:N:9021"]

$$$$
3bg_Grossjean_2025
     RDKit          3D

 27 29  0  0  0  0  0  0  0  0999 V2000
  121.9690  131.2830   62.0960 C   0  0  0  0  0  0  0  0  0  0  0  0
  123.3410  130.8680   61.5700 C   0  0  0  0  0  0  0  0  0  0  0  0
  123.6330  131.1090   60.2240 C   0  0  0  0  0  0  0  0  0  0  0  0
  124.8830  130.7520   59.7010 C   0  0  0  0  0  0  0  0  0  0  0  0
  125.2650  130.9930   58.2670 C   0  0  0  0  0  0  0  0  0  0  0  0
  126.5710  131.3780   57.9200 C   0  0  0  0  0  0  0  0  0  0  0  0
  126.9330  131.5840   56.5920 C   0  0  0  0  0  0  0  0  0  0  0  0
  125.9900  131.4120   55.5840 C   0  0  0  0  0  0  0  0  0  0  0  0
  124.6870  131.0430   55.8980 C   0  0  0  0  0  0  0  0  0  0  0  0
  124.3290  130.8390   57.2280 C   0  0  0  0  0  0  0  0  0  0  0  0
  125.8280  130.1860   60.4980 N   0  0  0  0  0  0  0  0  0  0  0  0
  125.5620  129.9480   61.8080 C   0  0  0  0  0  0  0  0  0  0  0  0
  126.8990  129.2330   62.7520 S   0  0  0  0  0  0  0  0  0  0  0  0
  127.2540  130.3320   64.1630 C   0  0  0  0  0  0  0  0  0  0  0  0
  127.7090  131.7210   63.7030 C   0  0  0  0  0  0  0  0  0  0  0  0
  128.1280  132.5330   64.5280 O   0  0  0  0  0  0  0  0  0  0  0  0
  127.5970  131.9830   62.3900 N   0  0  0  0  0  0  0  0  0  0  0  0
  127.7980  133.2900   61.7640 C   0  0  0  0  0  0  0  0  0  0  0  0
  126.5040  134.0940   61.7060 C   0  0  0  0  0  0  0  0  0  0  0  0
  126.5270  135.4270   61.2790 C   0  0  0  0  0  0  0  0  0  0  0  0
  125.3480  136.1640   61.2360 C   0  0  0  0  0  0  0  0  0  0  0  0
  124.1450  135.5650   61.6070 C   0  0  0  0  0  0  0  0  0  0  0  0
  124.1110  134.2330   62.0140 C   0  0  0  0  0  0  0  0  0  0  0  0
  125.2920  133.4950   62.0580 C   0  0  0  0  0  0  0  0  0  0  0  0
  124.3180  130.2680   62.3910 C   0  0  0  0  0  0  0  0  0  0  0  0
  124.0450  130.0110   63.8070 C   0  0  0  0  0  0  0  0  0  0  0  0
  123.8270  129.8080   64.9250 N   0  0  0  0  0  0  0  0  0  0  0  0
  1  2  1  0
  2  3  2  0
  3  4  1  0
  4  5  1  0
  5  6  2  0
  6  7  1  0
  7  8  2  0
  8  9  1  0
  9 10  2  0
  4 11  2  0
 11 12  1  0
 12 13  1  0
 13 14  1  0
 14 15  1  0
 15 16  2  0
 15 17  1  0
 17 18  1  0
 18 19  1  0
 19 20  2  0
 20 21  1  0
 21 22  2  0
 22 23  1  0
 23 24  2  0
 12 25  2  0
 25 26  1  0
 26 27  3  0
 25  2  1  0
 10  5  1  0
 24 19  1  0
M  END
>  <Binding energies>  (21) 
[-8.0]

>  <Ligand effiencies>  (21) 
[-0.2857142857142857]

>  <Interactions>  (21) 
["V-B:ILE:369:CG1:8209, V-B:GLY:453:C:9013, V-B:ASP:366:CB:8183, V-B:SER:385:CA:8378, V-B:ILE:369:CB:8207, V-A:TYR:539:CE1:4875, V-A:TYR:539:CZ:4877, V-B:ILE:369:CG2:8208, V-B:LEU:475:CD2:9230, V-B:ASP:366:CG:8184, V-A:MET:535:CE:4835, V-B:SER:385:CB:8380, V-B:ASP:366:CA:8181, V-B:GLY:453:CA:9015, V-A:TYR:539:CD1:4873, V-B:TYR:531:CZ:9766, V-B:TYR:531:CE1:9764, V-B:ARG:545:CZ:9898, H-B:TYR:484:OH:9319, H-B:GLY:454:N:9021, H-B:ARG:545:NE:9896, H-B:ARG:545:NH1:9899, H-B:ARG:545:NH2:9900"]

$$$$
3ca_Grossjean_2025
     RDKit          3D

 31 33  0  0  0  0  0  0  0  0999 V2000
  128.4270  133.2410   55.6510 C   0  0  0  0  0  0  0  0  0  0  0  0
  128.8290  132.9330   57.0960 C   0  0  0  0  0  0  0  0  0  0  0  0
  130.1930  133.2850   57.2940 O   0  0  0  0  0  0  0  0  0  0  0  0
  131.1630  132.3370   57.3320 C   0  0  0  0  0  0  0  0  0  0  0  0
  132.0790  132.2670   56.5070 O   0  0  0  0  0  0  0  0  0  0  0  0
  131.0170  131.3830   58.4840 C   0  0  0  0  0  0  0  0  0  0  0  0
  130.6730  130.0500   58.2280 C   0  0  0  0  0  0  0  0  0  0  0  0
  130.5300  129.1430   59.2740 C   0  0  0  0  0  0  0  0  0  0  0  0
  130.7190  129.5510   60.5960 C   0  0  0  0  0  0  0  0  0  0  0  0
  130.5510  128.5530   61.5750 N   0  0  0  0  0  0  0  0  0  0  0  0
  129.4740  127.7840   61.8460 C   0  0  0  0  0  0  0  0  0  0  0  0
  128.4060  127.8140   61.2360 O   0  0  0  0  0  0  0  0  0  0  0  0
  129.6520  126.7940   63.0020 C   0  0  0  0  0  0  0  0  0  0  0  0
  129.7670  125.0600   62.4500 S   0  0  0  0  0  0  0  0  0  0  0  0
  129.5530  124.9710   60.6780 C   0  0  0  0  0  0  0  0  0  0  0  0
  130.5320  125.5490   59.9380 N   0  0  0  0  0  0  0  0  0  0  0  0
  130.4470  125.5020   58.5910 C   0  0  0  0  0  0  0  0  0  0  0  0
  131.5880  126.1550   57.8350 C   0  0  0  0  0  0  0  0  0  0  0  0
  129.3830  124.8960   57.9280 C   0  0  0  0  0  0  0  0  0  0  0  0
  128.3500  124.3070   58.6690 C   0  0  0  0  0  0  0  0  0  0  0  0
  127.2220  123.6800   57.9160 C   0  0  0  0  0  0  0  0  0  0  0  0
  127.4850  122.7480   56.9050 C   0  0  0  0  0  0  0  0  0  0  0  0
  126.4410  122.1650   56.1910 C   0  0  0  0  0  0  0  0  0  0  0  0
  125.1260  122.5170   56.4830 C   0  0  0  0  0  0  0  0  0  0  0  0
  124.8470  123.4480   57.4810 C   0  0  0  0  0  0  0  0  0  0  0  0
  125.8950  124.0290   58.1920 C   0  0  0  0  0  0  0  0  0  0  0  0
  128.4360  124.3350   60.0850 C   0  0  0  0  0  0  0  0  0  0  0  0
  127.4110  123.6900   60.9130 C   0  0  0  0  0  0  0  0  0  0  0  0
  126.6020  123.1810   61.5650 N   0  0  0  0  0  0  0  0  0  0  0  0
  131.0710  130.8830   60.8600 C   0  0  0  0  0  0  0  0  0  0  0  0
  131.2160  131.7880   59.8120 C   0  0  0  0  0  0  0  0  0  0  0  0
  1  2  1  0
  2  3  1  0
  3  4  1  0
  4  5  2  0
  4  6  1  0
  6  7  2  0
  7  8  1  0
  8  9  2  0
  9 10  1  0
 10 11  1  0
 11 12  2  0
 11 13  1  0
 13 14  1  0
 14 15  1  0
 15 16  2  0
 16 17  1  0
 17 18  1  0
 17 19  2  0
 19 20  1  0
 20 21  1  0
 21 22  2  0
 22 23  1  0
 23 24  2  0
 24 25  1  0
 25 26  2  0
 20 27  2  0
 27 28  1  0
 28 29  3  0
  9 30  1  0
 30 31  2  0
 31  6  1  0
 27 15  1  0
 26 21  1  0
M  END
>  <Binding energies>  (22) 
[-8.32]

>  <Ligand effiencies>  (22) 
[-0.26]

>  <Interactions>  (22) 
["V-A:TYR:539:CE2:4876, V-A:TYR:539:CE1:4875, V-A:TYR:539:CZ:4877, V-A:PRO:540:CA:4883, V-A:ILE:538:CA:4860, V-A:MET:535:CE:4835, V-A:TYR:539:CD1:4873, V-A:PRO:540:N:4884, V-A:PRO:540:CB:4885, V-B:TYR:539:C:9839, V-A:GLU:543:CD:4908, V-B:TYR:539:CZ:9849, V-B:PRO:540:CA:9855, V-B:TYR:539:CE2:9848, V-B:PRO:540:N:9856, V-A:ASP:366:CB:3212, V-B:TYR:539:CE1:9847, V-B:PRO:540:CB:9857, V-B:TYR:539:CD2:9846, V-B:TYR:539:CD1:9845, V-B:TYR:539:CG:9844, V-A:TYR:539:CG:4872, H-B:ALA:541:N:9863, V-B:MET:535:CE:9807, V-B:PRO:540:CD:9859, V-A:ILE:538:C:4858, V-B:LEU:363:CD1:8160, V-B:PRO:540:CG:9858, H-A:TYR:539:N:4870, V-A:TYR:539:CD2:4874, V-B:ILE:538:CG2:9835, H-A:GLU:543:OE1:4909, V-B:ILE:538:CA:9832, V-B:ILE:538:C:9830, H-A:ASP:366:OD2:3215, V-B:TYR:539:CA:9841"]

$$$$
3ce_Grossjean_2025
     RDKit          3D

 27 29  0  0  0  0  0  0  0  0999 V2000
  123.9790  135.0710   62.2620 C   0  0  0  0  0  0  0  0  0  0  0  0
  123.7460  133.6390   61.8210 C   0  0  0  0  0  0  0  0  0  0  0  0
  122.8640  132.7970   62.5030 C   0  0  0  0  0  0  0  0  0  0  0  0
  122.6920  131.4950   62.0340 C   0  0  0  0  0  0  0  0  0  0  0  0
  123.3990  131.0680   60.9070 C   0  0  0  0  0  0  0  0  0  0  0  0
  124.2750  131.9590   60.2770 C   0  0  0  0  0  0  0  0  0  0  0  0
  124.9440  131.4820   59.1370 N   0  0  0  0  0  0  0  0  0  0  0  0
  124.4810  131.3980   57.8700 C   0  0  0  0  0  0  0  0  0  0  0  0
  123.3570  131.7450   57.5040 O   0  0  0  0  0  0  0  0  0  0  0  0
  125.4600  130.8300   56.8430 C   0  0  0  0  0  0  0  0  0  0  0  0
  127.0470  131.7130   56.8570 S   0  0  0  0  0  0  0  0  0  0  0  0
  127.9760  131.0170   58.2040 C   0  0  0  0  0  0  0  0  0  0  0  0
  127.3190  130.0430   58.8810 N   0  0  0  0  0  0  0  0  0  0  0  0
  127.9470  129.4370   59.9140 C   0  0  0  0  0  0  0  0  0  0  0  0
  127.1600  128.3490   60.6190 C   0  0  0  0  0  0  0  0  0  0  0  0
  129.2340  129.7840   60.3170 C   0  0  0  0  0  0  0  0  0  0  0  0
  129.9200  130.8060   59.6460 C   0  0  0  0  0  0  0  0  0  0  0  0
  131.2880  131.1590   60.1300 C   0  0  0  0  0  0  0  0  0  0  0  0
  132.3740  131.1370   59.2470 C   0  0  0  0  0  0  0  0  0  0  0  0
  133.6530  131.4590   59.6920 C   0  0  0  0  0  0  0  0  0  0  0  0
  133.8540  131.7990   61.0270 C   0  0  0  0  0  0  0  0  0  0  0  0
  132.7860  131.8160   61.9210 C   0  0  0  0  0  0  0  0  0  0  0  0
  131.5080  131.4950   61.4720 C   0  0  0  0  0  0  0  0  0  0  0  0
  129.2790  131.4430   58.5530 C   0  0  0  0  0  0  0  0  0  0  0  0
  129.9530  132.5080   57.8040 C   0  0  0  0  0  0  0  0  0  0  0  0
  130.4850  133.3480   57.2130 N   0  0  0  0  0  0  0  0  0  0  0  0
  124.4420  133.2380   60.7260 N   0  0  0  0  0  0  0  0  0  0  0  0
  1  2  1  0
  2  3  2  0
  3  4  1  0
  4  5  2  0
  5  6  1  0
  6  7  1  0
  7  8  1  0
  8  9  2  0
  8 10  1  0
 10 11  1  0
 11 12  1  0
 12 13  2  0
 13 14  1  0
 14 15  1  0
 14 16  2  0
 16 17  1  0
 17 18  1  0
 18 19  2  0
 19 20  1  0
 20 21  2  0
 21 22  1  0
 22 23  2  0
 17 24  2  0
 24 25  1  0
 25 26  3  0
  6 27  2  0
 27  2  1  0
 24 12  1  0
 23 18  1  0
M  END
>  <Binding energies>  (23) 
[-8.17]

>  <Ligand effiencies>  (23) 
[-0.29178571428571426]

>  <Interactions>  (23) 
["V-B:ILE:369:CG1:8209, V-B:GLY:453:C:9013, V-B:SER:385:CA:8378, V-B:ILE:369:CB:8207, V-A:TYR:539:CE1:4875, V-A:LEU:363:CD1:3189, V-A:TYR:539:CZ:4877, V-B:ILE:369:CG2:8208, V-A:PRO:540:CA:4883, V-B:LEU:475:CD2:9230, V-B:ASP:366:CG:8184, V-B:GLY:454:CA:9020, V-B:SER:385:CB:8380, V-B:ASP:366:CA:8181, V-B:GLY:453:CA:9015, V-A:PRO:540:N:4884, V-A:PRO:540:CB:4885, V-A:ASP:366:CG:3213, H-A:TYR:539:OH:4878, V-A:ASN:362:CB:3176, H-A:TYR:539:N:4870, V-B:TYR:531:CZ:9766, V-B:SER:385:C:8376, V-A:LEU:363:CA:3185, V-A:ASN:362:C:3172, V-A:LEU:363:CB:3187, H-B:ASN:370:N:8215"]

$$$$
3cj_Grossjean_2025
     RDKit          3D

 25 27  0  0  0  0  0  0  0  0999 V2000
  131.9360  126.5690   58.1430 C   0  0  0  0  0  0  0  0  0  0  0  0
  131.1540  125.4260   58.7600 C   0  0  0  0  0  0  0  0  0  0  0  0
  129.8860  125.0780   58.2990 C   0  0  0  0  0  0  0  0  0  0  0  0
  129.2080  124.0000   58.8840 C   0  0  0  0  0  0  0  0  0  0  0  0
  127.8810  123.6230   58.3150 C   0  0  0  0  0  0  0  0  0  0  0  0
  127.7970  122.7590   57.2170 C   0  0  0  0  0  0  0  0  0  0  0  0
  126.5590  122.4180   56.6790 C   0  0  0  0  0  0  0  0  0  0  0  0
  125.3980  122.9460   57.2360 C   0  0  0  0  0  0  0  0  0  0  0  0
  125.4650  123.8140   58.3230 C   0  0  0  0  0  0  0  0  0  0  0  0
  126.7050  124.1530   58.8590 C   0  0  0  0  0  0  0  0  0  0  0  0
  129.8300  123.3140   59.9570 C   0  0  0  0  0  0  0  0  0  0  0  0
  129.1590  122.1970   60.6280 C   0  0  0  0  0  0  0  0  0  0  0  0
  128.6290  121.3130   61.1570 N   0  0  0  0  0  0  0  0  0  0  0  0
  131.1190  123.7320   60.3560 C   0  0  0  0  0  0  0  0  0  0  0  0
  132.0660  122.8750   61.5970 S   0  0  0  0  0  0  0  0  0  0  0  0
  133.3090  121.9260   60.6640 C   0  0  0  0  0  0  0  0  0  0  0  0
  132.7770  120.5550   60.2360 C   0  0  0  0  0  0  0  0  0  0  0  0
  133.4850  119.8150   59.5500 O   0  0  0  0  0  0  0  0  0  0  0  0
  131.5450  120.2430   60.6950 N   0  0  0  0  0  0  0  0  0  0  0  0
  130.8980  119.0250   60.5660 C   0  0  0  0  0  0  0  0  0  0  0  0
  131.0450  118.1290   59.6140 N   0  0  0  0  0  0  0  0  0  0  0  0
  130.2900  117.0700   59.8270 C   0  0  0  0  0  0  0  0  0  0  0  0
  129.5050  117.0930   60.9760 C   0  0  0  0  0  0  0  0  0  0  0  0
  129.7770  118.5910   61.8170 S   0  0  0  0  0  0  0  0  0  0  0  0
  131.7730  124.7620   59.7610 N   0  0  0  0  0  0  0  0  0  0  0  0
  1  2  1  0
  2  3  2  0
  3  4  1  0
  4  5  1  0
  5  6  2  0
  6  7  1  0
  7  8  2  0
  8  9  1  0
  9 10  2  0
  4 11  2  0
 11 12  1  0
 12 13  3  0
 11 14  1  0
 14 15  1  0
 15 16  1  0
 16 17  1  0
 17 18  2  0
 17 19  1  0
 19 20  1  0
 20 21  2  0
 21 22  1  0
 22 23  2  0
 23 24  1  0
 14 25  2  0
 25  2  1  0
 10  5  1  0
 24 20  1  0
M  END
>  <Binding energies>  (24) 
[-7.57]

>  <Ligand effiencies>  (24) 
[-0.29115384615384615]

>  <Interactions>  (24) 
["V-B:TYR:539:C:9839, V-B:TYR:539:CZ:9849, V-B:PRO:540:CA:9855, V-B:TYR:539:CE2:9848, V-A:ILE:369:CG2:3237, V-B:PRO:540:N:9856, V-A:ASP:366:CB:3212, V-B:TYR:539:CE1:9847, V-A:ASP:366:CG:3213, V-B:PRO:540:CB:9857, V-B:TYR:539:CD2:9846, V-B:TYR:539:CD1:9845, V-B:TYR:539:CG:9844, H-B:ALA:541:N:9863, V-B:ALA:541:CB:9864, V-A:LEU:475:CD2:4259, V-B:PRO:540:CD:9859, V-B:LEU:363:CD1:8160, V-B:PRO:540:CG:9858, V-A:LEU:475:CD1:4258, V-A:LEU:475:CG:4257, H-A:SER:385:OG:3410, V-B:TYR:539:CB:9843, V-A:SER:385:CB:3409, V-A:HIS:383:NE2:3394, H-A:HIS:383:HE2:3395, V-A:PRO:482:CB:4326, V-A:HIS:383:CE1:3393, V-A:PRO:482:CG:4327, V-B:VAL:344:CG1:7972"]

$$$$
4ba_Grossjean_2025
     RDKit          3D

 28 30  0  0  0  0  0  0  0  0999 V2000
  131.9200  131.8040   55.7440 C   0  0  0  0  0  0  0  0  0  0  0  0
  131.8000  132.7400   56.9610 C   0  0  0  0  0  0  0  0  0  0  0  0
  130.3710  132.9120   57.5160 C   0  0  0  0  0  0  0  0  0  0  0  0
  129.5710  133.6360   56.9190 O   0  0  0  0  0  0  0  0  0  0  0  0
  130.0170  132.1730   58.7730 C   0  0  0  0  0  0  0  0  0  0  0  0
  131.0370  131.7690   59.6440 C   0  0  0  0  0  0  0  0  0  0  0  0
  130.7370  131.0810   60.8170 C   0  0  0  0  0  0  0  0  0  0  0  0
  129.4130  130.7860   61.1450 C   0  0  0  0  0  0  0  0  0  0  0  0
  129.2240  130.0800   62.3480 N   0  0  0  0  0  0  0  0  0  0  0  0
  128.0850  129.6130   62.9160 C   0  0  0  0  0  0  0  0  0  0  0  0
  126.9580  129.7850   62.4480 O   0  0  0  0  0  0  0  0  0  0  0  0
  128.2660  128.8850   64.1740 C   0  0  0  0  0  0  0  0  0  0  0  0
  127.5730  129.5120   65.6680 S   0  0  0  0  0  0  0  0  0  0  0  0
  128.2480  128.1910   66.5900 C   0  0  0  0  0  0  0  0  0  0  0  0
  128.0600  128.0950   67.9060 N   0  0  0  0  0  0  0  0  0  0  0  0
  128.6320  127.0290   68.5110 C   0  0  0  0  0  0  0  0  0  0  0  0
  128.4130  126.9440   70.0110 C   0  0  0  0  0  0  0  0  0  0  0  0
  129.3770  126.0640   67.8390 C   0  0  0  0  0  0  0  0  0  0  0  0
  129.5790  126.1590   66.4530 C   0  0  0  0  0  0  0  0  0  0  0  0
  130.4030  125.0720   65.7560 C   0  0  0  0  0  0  0  0  0  0  0  0
  129.8900  124.6980   64.5830 F   0  0  0  0  0  0  0  0  0  0  0  0
  131.6390  125.5180   65.5270 F   0  0  0  0  0  0  0  0  0  0  0  0
  130.4630  123.9870   66.5300 F   0  0  0  0  0  0  0  0  0  0  0  0
  128.9930  127.2760   65.7840 C   0  0  0  0  0  0  0  0  0  0  0  0
  128.9930  127.7060   64.4070 C   0  0  0  0  0  0  0  0  0  0  0  0
  129.6450  127.0170   63.4170 N   0  0  0  0  0  0  0  0  0  0  0  0
  128.3860  131.1810   60.2750 C   0  0  0  0  0  0  0  0  0  0  0  0
  128.6880  131.8690   59.1020 C   0  0  0  0  0  0  0  0  0  0  0  0
  1  2  1  0
  2  3  1  0
  3  4  2  0
  3  5  1  0
  5  6  2  0
  6  7  1  0
  7  8  2  0
  8  9  1  0
  9 10  1  0
 10 11  2  0
 10 12  1  0
 12 13  1  0
 13 14  1  0
 14 15  2  0
 15 16  1  0
 16 17  1  0
 16 18  2  0
 18 19  1  0
 19 20  1  0
 20 21  1  0
 20 22  1  0
 20 23  1  0
 19 24  2  0
 24 25  1  0
 25 26  1  0
  8 27  1  0
 27 28  2  0
 28  5  1  0
 25 12  2  0
 24 14  1  0
M  END
>  <Binding energies>  (25) 
[-7.08]

>  <Ligand effiencies>  (25) 
[-0.22838709677419355]

>  <Interactions>  (25) 
["V-A:PRO:540:CD:4887, V-A:ILE:538:CG2:4863, V-A:ILE:538:CB:4862, V-A:LEU:363:CD1:3189, V-A:TYR:531:CZ:4794, V-A:TYR:531:CE2:4793, V-A:PRO:540:CA:4883, V-A:PRO:540:N:4884, V-A:PRO:540:CB:4885, V-A:TYR:539:C:4867, V-A:GLU:543:CD:4908, V-A:TYR:484:CZ:4347, V-B:GLU:543:CD:9880, V-B:HIS:456:CE1:9041, V-B:GLU:543:C:9874, V-A:HIS:456:CE1:4070, V-B:GLU:543:CG:9879, V-B:GLU:543:CB:9878, V-A:TYR:484:CE2:4346, V-B:GLU:543:CA:9876, V-A:GLU:543:CG:4907, H-B:GLU:543:OE1:9881, H-A:TYR:539:N:4870, H-A:GLU:543:OE1:4909, V-B:TYR:484:CZ:9318, H-A:GLU:543:OE2:4910"]

$$$$
4bb_Grossjean_2025
     RDKit          3D

 27 29  0  0  0  0  0  0  0  0999 V2000
  134.2780  125.0490   66.6900 C   0  0  0  0  0  0  0  0  0  0  0  0
  132.8400  125.5700   66.7170 C   0  0  0  0  0  0  0  0  0  0  0  0
  132.4920  126.2630   67.6740 O   0  0  0  0  0  0  0  0  0  0  0  0
  131.9290  125.2010   65.5850 C   0  0  0  0  0  0  0  0  0  0  0  0
  132.4450  125.1220   64.2850 C   0  0  0  0  0  0  0  0  0  0  0  0
  131.6200  124.7830   63.2160 C   0  0  0  0  0  0  0  0  0  0  0  0
  130.2680  124.5070   63.4260 C   0  0  0  0  0  0  0  0  0  0  0  0
  129.5250  124.1770   62.2750 N   0  0  0  0  0  0  0  0  0  0  0  0
  128.3760  123.4700   62.1530 C   0  0  0  0  0  0  0  0  0  0  0  0
  127.7810  122.9490   63.0970 O   0  0  0  0  0  0  0  0  0  0  0  0
  127.8740  123.3250   60.7840 C   0  0  0  0  0  0  0  0  0  0  0  0
  128.7820  122.3870   59.6010 S   0  0  0  0  0  0  0  0  0  0  0  0
  127.6110  122.7400   58.3520 C   0  0  0  0  0  0  0  0  0  0  0  0
  127.7490  122.2650   57.1150 N   0  0  0  0  0  0  0  0  0  0  0  0
  126.7790  122.6070   56.2360 C   0  0  0  0  0  0  0  0  0  0  0  0
  126.9540  122.0540   54.8330 C   0  0  0  0  0  0  0  0  0  0  0  0
  125.6850  123.4040   56.5610 C   0  0  0  0  0  0  0  0  0  0  0  0
  125.5340  123.9070   57.8630 C   0  0  0  0  0  0  0  0  0  0  0  0
  124.3130  124.7800   58.1730 C   0  0  0  0  0  0  0  0  0  0  0  0
  123.3890  124.7460   57.2100 F   0  0  0  0  0  0  0  0  0  0  0  0
  123.7340  124.3610   59.2980 F   0  0  0  0  0  0  0  0  0  0  0  0
  124.6910  126.0500   58.3190 F   0  0  0  0  0  0  0  0  0  0  0  0
  126.5400  123.5660   58.8160 C   0  0  0  0  0  0  0  0  0  0  0  0
  126.7220  123.8870   60.2090 C   0  0  0  0  0  0  0  0  0  0  0  0
  125.8390  124.6690   60.9100 N   0  0  0  0  0  0  0  0  0  0  0  0
  129.7430  124.5910   64.7240 C   0  0  0  0  0  0  0  0  0  0  0  0
  130.5690  124.9330   65.7920 C   0  0  0  0  0  0  0  0  0  0  0  0
  1  2  1  0
  2  3  2  0
  2  4  1  0
  4  5  2  0
  5  6  1  0
  6  7  2  0
  7  8  1  0
  8  9  1  0
  9 10  2  0
  9 11  1  0
 11 12  1  0
 12 13  1  0
 13 14  2  0
 14 15  1  0
 15 16  1  0
 15 17  2  0
 17 18  1  0
 18 19  1  0
 19 20  1  0
 19 21  1  0
 19 22  1  0
 18 23  2  0
 23 24  1  0
 24 25  1  0
  7 26  1  0
 26 27  2  0
 27  4  1  0
 24 11  2  0
 23 13  1  0
M  END
>  <Binding energies>  (26) 
[-7.13]

>  <Ligand effiencies>  (26) 
[-0.23766666666666666]

>  <Interactions>  (26) 
["V-B:ASP:366:CB:8183, V-B:ASP:366:CG:8184, V-A:GLY:454:CA:4049, V-B:TYR:539:C:9839, V-B:PRO:540:CA:9855, H-A:ARG:545:NE:4924, V-B:TYR:539:CE2:9848, V-B:PRO:540:N:9856, H-A:TYR:484:OH:4348, V-B:TYR:539:CE1:9847, V-B:PRO:540:CB:9857, V-B:TYR:539:CD2:9846, V-B:TYR:539:CD1:9845, V-A:ARG:545:CZ:4926, H-B:TYR:539:N:9842, V-A:ARG:545:CD:4923, V-A:TYR:484:CZ:4347, V-A:ARG:545:CG:4922, V-B:GLU:543:CD:9880, V-A:HIS:456:CE1:4070, H-B:ALA:541:N:9863, V-B:GLU:543:CG:9879, V-A:TYR:484:CE2:4346, V-B:MET:535:CE:9807, H-B:GLU:543:OE1:9881, H-B:ASP:366:OD1:8185, V-B:LEU:363:CD1:8160, V-B:TYR:531:CE2:9765, V-B:TYR:531:CZ:9766, V-B:ILE:538:CG2:9835, V-B:LEU:363:CA:8156, V-B:ASN:362:C:8143, V-B:LEU:363:CB:8158, V-B:ILE:538:CA:9832, V-B:ILE:538:C:9830, H-A:HIS:456:ND1:4067, V-B:LEU:363:CG:8159, V-B:ILE:538:CG1:9836, V-B:ILE:538:CB:9834, V-B:TYR:531:CD2:9763"]

$$$$
4bd_Grossjean_2025
     RDKit          3D

 24 26  0  0  0  0  0  0  0  0999 V2000
  127.1090  122.0260   54.8970 C   0  0  0  0  0  0  0  0  0  0  0  0
  126.9130  122.5790   56.2970 C   0  0  0  0  0  0  0  0  0  0  0  0
  125.8300  123.4000   56.6000 C   0  0  0  0  0  0  0  0  0  0  0  0
  125.6630  123.9070   57.8980 C   0  0  0  0  0  0  0  0  0  0  0  0
  124.4570  124.8090   58.1830 C   0  0  0  0  0  0  0  0  0  0  0  0
  123.5650  124.8170   57.1900 F   0  0  0  0  0  0  0  0  0  0  0  0
  123.8290  124.3900   59.2810 F   0  0  0  0  0  0  0  0  0  0  0  0
  124.8660  126.0650   58.3600 F   0  0  0  0  0  0  0  0  0  0  0  0
  126.6390  123.5420   58.8720 C   0  0  0  0  0  0  0  0  0  0  0  0
  126.7970  123.8580   60.2710 C   0  0  0  0  0  0  0  0  0  0  0  0
  125.9130  124.6530   60.9530 N   0  0  0  0  0  0  0  0  0  0  0  0
  127.9330  123.2820   60.8650 C   0  0  0  0  0  0  0  0  0  0  0  0
  128.4020  123.4080   62.2480 C   0  0  0  0  0  0  0  0  0  0  0  0
  127.7520  122.9290   63.1780 O   0  0  0  0  0  0  0  0  0  0  0  0
  129.5800  124.0620   62.4050 N   0  0  0  0  0  0  0  0  0  0  0  0
  130.2740  124.3840   63.5860 C   0  0  0  0  0  0  0  0  0  0  0  0
  131.6170  124.7360   63.4300 C   0  0  0  0  0  0  0  0  0  0  0  0
  132.3860  125.0810   64.5380 C   0  0  0  0  0  0  0  0  0  0  0  0
  131.8100  125.0820   65.8050 C   0  0  0  0  0  0  0  0  0  0  0  0
  130.4690  124.7460   65.9730 C   0  0  0  0  0  0  0  0  0  0  0  0
  129.6960  124.4000   64.8670 C   0  0  0  0  0  0  0  0  0  0  0  0
  128.8420  122.3200   59.7030 S   0  0  0  0  0  0  0  0  0  0  0  0
  127.7020  122.6950   58.4310 C   0  0  0  0  0  0  0  0  0  0  0  0
  127.8560  122.2160   57.1970 N   0  0  0  0  0  0  0  0  0  0  0  0
  1  2  1  0
  2  3  2  0
  3  4  1  0
  4  5  1  0
  5  6  1  0
  5  7  1  0
  5  8  1  0
  4  9  2  0
  9 10  1  0
 10 11  1  0
 10 12  2  0
 12 13  1  0
 13 14  2  0
 13 15  1  0
 15 16  1  0
 16 17  2  0
 17 18  1  0
 18 19  2  0
 19 20  1  0
 20 21  2  0
 12 22  1  0
 22 23  1  0
 23 24  2  0
 24  2  1  0
 23  9  1  0
 21 16  1  0
M  END
>  <Binding energies>  (27) 
[-6.67]

>  <Ligand effiencies>  (27) 
[-0.24703703703703703]

>  <Interactions>  (27) 
["V-B:ASP:366:CB:8183, V-B:ASP:366:CG:8184, V-B:TYR:539:C:9839, V-B:PRO:540:CA:9855, V-B:TYR:539:CE2:9848, V-B:PRO:540:N:9856, V-B:TYR:539:CE1:9847, V-B:PRO:540:CB:9857, V-B:TYR:539:CD2:9846, V-B:TYR:539:CD1:9845, V-A:ARG:545:CZ:4926, V-B:TYR:539:CG:9844, H-B:TYR:539:N:9842, V-A:TYR:484:CZ:4347, V-B:GLU:543:CD:9880, H-B:ALA:541:N:9863, V-B:GLU:543:CG:9879, V-A:TYR:484:CE2:4346, V-B:MET:535:CE:9807, H-B:GLU:543:OE1:9881, H-B:ASP:366:OD1:8185, V-B:LEU:363:CD1:8160, V-B:TYR:531:CE2:9765, V-B:TYR:531:CZ:9766, V-B:ILE:538:CG2:9835, V-B:LEU:363:CA:8156, V-B:ASN:362:C:8143, V-B:LEU:363:CB:8158, V-B:ILE:538:CA:9832, V-B:ILE:538:C:9830, V-B:LEU:363:CG:8159, V-B:ILE:538:CB:9834, V-B:TYR:531:CD2:9763"]

$$$$
4be_Grossjean_2025
     RDKit          3D

 25 27  0  0  0  0  0  0  0  0999 V2000
  129.3620  125.8970   67.0430 C   0  0  0  0  0  0  0  0  0  0  0  0
  130.1390  125.3640   65.8540 C   0  0  0  0  0  0  0  0  0  0  0  0
  131.5240  125.1850   65.9070 C   0  0  0  0  0  0  0  0  0  0  0  0
  132.1730  124.6930   64.7740 C   0  0  0  0  0  0  0  0  0  0  0  0
  131.4310  124.3960   63.6280 C   0  0  0  0  0  0  0  0  0  0  0  0
  130.0460  124.5930   63.6450 C   0  0  0  0  0  0  0  0  0  0  0  0
  129.3580  124.2810   62.4580 N   0  0  0  0  0  0  0  0  0  0  0  0
  128.2750  123.4830   62.2860 C   0  0  0  0  0  0  0  0  0  0  0  0
  127.7070  122.8900   63.2050 O   0  0  0  0  0  0  0  0  0  0  0  0
  127.8130  123.3400   60.9020 C   0  0  0  0  0  0  0  0  0  0  0  0
  128.7450  122.3820   59.7530 S   0  0  0  0  0  0  0  0  0  0  0  0
  127.6130  122.7390   58.4690 C   0  0  0  0  0  0  0  0  0  0  0  0
  127.7820  122.2550   57.2400 N   0  0  0  0  0  0  0  0  0  0  0  0
  126.8400  122.5990   56.3320 C   0  0  0  0  0  0  0  0  0  0  0  0
  127.0510  122.0390   54.9370 C   0  0  0  0  0  0  0  0  0  0  0  0
  125.7430  123.4050   56.6220 C   0  0  0  0  0  0  0  0  0  0  0  0
  125.5590  123.9170   57.9160 C   0  0  0  0  0  0  0  0  0  0  0  0
  124.3340  124.7970   58.1890 C   0  0  0  0  0  0  0  0  0  0  0  0
  123.4410  124.7700   57.1970 F   0  0  0  0  0  0  0  0  0  0  0  0
  123.7150  124.3800   59.2930 F   0  0  0  0  0  0  0  0  0  0  0  0
  124.7150  126.0640   58.3490 F   0  0  0  0  0  0  0  0  0  0  0  0
  126.5380  123.5780   58.8970 C   0  0  0  0  0  0  0  0  0  0  0  0
  126.6860  123.9120   60.2920 C   0  0  0  0  0  0  0  0  0  0  0  0
  125.7980  124.7150   60.9600 N   0  0  0  0  0  0  0  0  0  0  0  0
  129.4040  125.0790   64.7480 N   0  0  0  0  0  0  0  0  0  0  0  0
  1  2  1  0
  2  3  2  0
  3  4  1  0
  4  5  2  0
  5  6  1  0
  6  7  1  0
  7  8  1  0
  8  9  2  0
  8 10  1  0
 10 11  1  0
 11 12  1  0
 12 13  2  0
 13 14  1  0
 14 15  1  0
 14 16  2  0
 16 17  1  0
 17 18  1  0
 18 19  1  0
 18 20  1  0
 18 21  1  0
 17 22  2  0
 22 23  1  0
 23 24  1  0
  6 25  2  0
 25  2  1  0
 23 10  2  0
 22 12  1  0
M  END
>  <Binding energies>  (28) 
[-6.9]

>  <Ligand effiencies>  (28) 
[-0.24642857142857144]

>  <Interactions>  (28) 
["V-B:ASP:366:CB:8183, V-B:ASP:366:CG:8184, V-B:TYR:539:C:9839, V-B:PRO:540:CA:9855, V-B:TYR:539:CE2:9848, V-B:PRO:540:N:9856, V-B:TYR:539:CE1:9847, V-B:PRO:540:CB:9857, V-B:TYR:539:CD2:9846, V-B:TYR:539:CD1:9845, V-B:TYR:539:CG:9844, H-B:TYR:539:N:9842, V-A:TYR:484:CZ:4347, V-B:GLU:543:CD:9880, H-B:ALA:541:N:9863, V-B:GLU:543:CG:9879, V-B:GLU:543:CB:9878, V-B:GLU:543:CA:9876, V-B:MET:535:CE:9807, H-B:GLU:543:OE1:9881, H-B:ASP:366:OD1:8185, V-B:LEU:363:CD1:8160, V-B:TYR:531:CE2:9765, V-B:TYR:531:CZ:9766, V-B:ILE:538:CG2:9835, V-B:LEU:363:CA:8156, V-B:ASN:362:C:8143, V-B:LEU:363:CB:8158, V-B:ILE:538:CA:9832, V-B:ILE:538:C:9830, V-B:LEU:363:CG:8159, V-B:ILE:538:CB:9834, V-B:TYR:531:CD2:9763"]

$$$$
4bg_Grossjean_2025
     RDKit          3D

 25 27  0  0  0  0  0  0  0  0999 V2000
  127.5110  122.3160   54.8440 C   0  0  0  0  0  0  0  0  0  0  0  0
  127.1460  122.7110   56.2630 C   0  0  0  0  0  0  0  0  0  0  0  0
  126.0360  123.5110   56.5230 C   0  0  0  0  0  0  0  0  0  0  0  0
  125.7130  123.8730   57.8400 C   0  0  0  0  0  0  0  0  0  0  0  0
  124.4830  124.7550   58.0770 C   0  0  0  0  0  0  0  0  0  0  0  0
  123.6640  124.8020   57.0240 F   0  0  0  0  0  0  0  0  0  0  0  0
  123.7820  124.2830   59.1080 F   0  0  0  0  0  0  0  0  0  0  0  0
  124.8670  126.0040   58.3400 F   0  0  0  0  0  0  0  0  0  0  0  0
  126.5640  123.3860   58.8770 C   0  0  0  0  0  0  0  0  0  0  0  0
  126.5560  123.5480   60.3100 C   0  0  0  0  0  0  0  0  0  0  0  0
  125.6150  124.3000   60.9680 N   0  0  0  0  0  0  0  0  0  0  0  0
  127.5890  122.8640   60.9690 C   0  0  0  0  0  0  0  0  0  0  0  0
  127.8960  122.8330   62.3990 C   0  0  0  0  0  0  0  0  0  0  0  0
  127.0380  123.0860   63.2460 O   0  0  0  0  0  0  0  0  0  0  0  0
  129.1560  122.4760   62.7250 N   0  0  0  0  0  0  0  0  0  0  0  0
  129.6900  122.3920   64.0840 C   0  0  0  0  0  0  0  0  0  0  0  0
  130.8770  123.3130   64.3310 C   0  0  0  0  0  0  0  0  0  0  0  0
  132.0640  123.1360   63.6130 C   0  0  0  0  0  0  0  0  0  0  0  0
  133.1340  124.0030   63.8130 C   0  0  0  0  0  0  0  0  0  0  0  0
  133.0110  125.0540   64.7190 C   0  0  0  0  0  0  0  0  0  0  0  0
  131.8260  125.2470   65.4250 C   0  0  0  0  0  0  0  0  0  0  0  0
  130.7550  124.3790   65.2270 C   0  0  0  0  0  0  0  0  0  0  0  0
  128.6320  122.0230   59.8260 S   0  0  0  0  0  0  0  0  0  0  0  0
  127.6650  122.5680   58.4760 C   0  0  0  0  0  0  0  0  0  0  0  0
  127.9680  122.2300   57.2230 N   0  0  0  0  0  0  0  0  0  0  0  0
  1  2  1  0
  2  3  2  0
  3  4  1  0
  4  5  1  0
  5  6  1  0
  5  7  1  0
  5  8  1  0
  4  9  2  0
  9 10  1  0
 10 11  1  0
 10 12  2  0
 12 13  1  0
 13 14  2  0
 13 15  1  0
 15 16  1  0
 16 17  1  0
 17 18  2  0
 18 19  1  0
 19 20  2  0
 20 21  1  0
 21 22  2  0
 12 23  1  0
 23 24  1  0
 24 25  2  0
 25  2  1  0
 24  9  1  0
 22 17  1  0
M  END
>  <Binding energies>  (29) 
[-6.84]

>  <Ligand effiencies>  (29) 
[-0.24428571428571427]

>  <Interactions>  (29) 
["V-B:ASP:366:CB:8183, V-B:ASP:366:CG:8184, V-A:GLY:454:CA:4049, V-B:TYR:539:C:9839, V-B:PRO:540:C:9853, V-B:TYR:539:CZ:9849, V-B:PRO:540:CA:9855, V-B:TYR:539:CE2:9848, V-B:PRO:540:N:9856, V-B:TYR:539:CE1:9847, V-B:PRO:540:CB:9857, V-B:TYR:539:CD2:9846, V-B:TYR:539:CD1:9845, V-A:ARG:545:CZ:4926, V-B:TYR:539:CG:9844, H-B:TYR:539:N:9842, V-A:TYR:484:CZ:4347, H-B:ALA:541:N:9863, V-B:GLU:543:CG:9879, V-B:ALA:541:CB:9864, V-A:LEU:475:CD2:4259, V-A:TYR:484:CE2:4346, V-B:MET:535:CE:9807, H-B:GLU:543:OE1:9881, H-B:ASP:366:OD1:8185, V-B:LEU:363:CD1:8160, V-B:TYR:531:CE2:9765, V-B:TYR:531:CZ:9766, V-B:LEU:363:CA:8156, V-B:ASN:362:C:8143, V-B:ALA:541:CA:9862, V-B:LEU:363:CB:8158, V-B:ILE:538:CA:9832, V-B:ILE:538:C:9830, V-B:LEU:363:CG:8159, V-B:TYR:531:CD2:9763"]

$$$$
4ca_Grossjean_2025
     RDKit          3D

 34 37  0  0  0  0  0  0  0  0999 V2000
  132.0370  131.3860   56.5720 C   0  0  0  0  0  0  0  0  0  0  0  0
  131.4150  132.6960   56.0800 C   0  0  0  0  0  0  0  0  0  0  0  0
  130.8760  133.4090   57.1860 O   0  0  0  0  0  0  0  0  0  0  0  0
  129.5750  133.2630   57.5490 C   0  0  0  0  0  0  0  0  0  0  0  0
  128.6300  133.6680   56.8650 O   0  0  0  0  0  0  0  0  0  0  0  0
  129.4020  132.5580   58.8620 C   0  0  0  0  0  0  0  0  0  0  0  0
  129.9890  131.2990   59.0460 C   0  0  0  0  0  0  0  0  0  0  0  0
  129.8500  130.6220   60.2540 C   0  0  0  0  0  0  0  0  0  0  0  0
  129.1160  131.1830   61.2990 C   0  0  0  0  0  0  0  0  0  0  0  0
  129.0470  130.4170   62.4790 N   0  0  0  0  0  0  0  0  0  0  0  0
  127.9800  129.8370   63.0820 C   0  0  0  0  0  0  0  0  0  0  0  0
  126.8350  129.8570   62.6290 O   0  0  0  0  0  0  0  0  0  0  0  0
  128.2720  129.1430   64.3380 C   0  0  0  0  0  0  0  0  0  0  0  0
  127.8590  129.8890   65.8800 S   0  0  0  0  0  0  0  0  0  0  0  0
  128.4490  128.5000   66.7610 C   0  0  0  0  0  0  0  0  0  0  0  0
  128.4020  128.4510   68.0900 N   0  0  0  0  0  0  0  0  0  0  0  0
  128.8700  127.3240   68.6870 C   0  0  0  0  0  0  0  0  0  0  0  0
  128.7960  127.2960   70.1860 C   0  0  0  0  0  0  0  0  0  0  0  0
  127.6070  126.9340   70.8400 C   0  0  0  0  0  0  0  0  0  0  0  0
  127.5300  126.9110   72.2310 C   0  0  0  0  0  0  0  0  0  0  0  0
  128.6450  127.2510   72.9900 C   0  0  0  0  0  0  0  0  0  0  0  0
  129.8340  127.6160   72.3680 C   0  0  0  0  0  0  0  0  0  0  0  0
  129.9070  127.6380   70.9770 C   0  0  0  0  0  0  0  0  0  0  0  0
  129.4030  126.2630   67.9480 C   0  0  0  0  0  0  0  0  0  0  0  0
  129.4600  126.3060   66.5460 C   0  0  0  0  0  0  0  0  0  0  0  0
  130.0530  125.1060   65.7990 C   0  0  0  0  0  0  0  0  0  0  0  0
  131.3150  125.3020   65.4110 F   0  0  0  0  0  0  0  0  0  0  0  0
  130.0400  124.0320   66.5870 F   0  0  0  0  0  0  0  0  0  0  0  0
  129.3350  124.8580   64.7030 F   0  0  0  0  0  0  0  0  0  0  0  0
  128.9560  127.4760   65.9090 C   0  0  0  0  0  0  0  0  0  0  0  0
  128.8400  127.8710   64.5260 C   0  0  0  0  0  0  0  0  0  0  0  0
  129.2510  127.0720   63.4910 N   0  0  0  0  0  0  0  0  0  0  0  0
  128.5290  132.4450   61.1270 C   0  0  0  0  0  0  0  0  0  0  0  0
  128.6710  133.1220   59.9190 C   0  0  0  0  0  0  0  0  0  0  0  0
  1  2  1  0
  2  3  1  0
  3  4  1  0
  4  5  2  0
  4  6  1  0
  6  7  2  0
  7  8  1  0
  8  9  2  0
  9 10  1  0
 10 11  1  0
 11 12  2  0
 11 13  1  0
 13 14  1  0
 14 15  1  0
 15 16  2  0
 16 17  1  0
 17 18  1  0
 18 19  2  0
 19 20  1  0
 20 21  2  0
 21 22  1  0
 22 23  2  0
 17 24  2  0
 24 25  1  0
 25 26  1  0
 26 27  1  0
 26 28  1  0
 26 29  1  0
 25 30  2  0
 30 31  1  0
 31 32  1  0
  9 33  1  0
 33 34  2  0
 34  6  1  0
 31 13  2  0
 30 15  1  0
 23 18  1  0
M  END
>  <Binding energies>  (30) 
[-8.52]

>  <Ligand effiencies>  (30) 
[-0.23027027027027025]

>  <Interactions>  (30) 
["V-A:TYR:539:CA:4869, V-A:ILE:538:CG2:4863, V-A:ILE:538:CB:4862, V-A:LEU:363:CD1:3189, V-A:TYR:531:CZ:4794, V-A:TYR:531:CE2:4793, V-A:PRO:540:CA:4883, V-A:ILE:538:CA:4860, V-A:TYR:539:CD1:4873, V-A:PRO:540:N:4884, V-A:TYR:539:C:4867, V-A:GLU:543:CD:4908, V-A:TYR:484:CZ:4347, V-B:GLU:543:CD:9880, V-B:HIS:456:CE1:9041, V-B:GLU:543:C:9874, V-A:HIS:456:CE1:4070, V-B:GLU:543:CG:9879, V-B:GLU:543:CB:9878, V-A:TYR:484:CE2:4346, V-A:GLU:543:CB:4906, V-B:HIS:456:CD2:9039, V-B:GLU:543:CA:9876, V-A:GLU:543:CG:4907, V-B:GLY:544:CA:9886, V-B:LYS:547:CE:9922, V-B:GLY:544:C:9884, H-B:GLU:543:OE1:9881, H-B:GLU:543:OE2:9882, H-A:TYR:539:N:4870, H-A:GLU:543:OE1:4909, V-B:TYR:484:CZ:9318, V-B:TYR:484:CE2:9317, H-A:GLU:543:OE2:4910"]

$$$$
4cb_Grossjean_2025
     RDKit          3D

 33 36  0  0  0  0  0  0  0  0999 V2000
  131.4680  132.5900   56.2030 C   0  0  0  0  0  0  0  0  0  0  0  0
  130.8790  133.3770   57.2290 O   0  0  0  0  0  0  0  0  0  0  0  0
  129.5700  133.2290   57.5580 C   0  0  0  0  0  0  0  0  0  0  0  0
  128.6420  133.6710   56.8740 O   0  0  0  0  0  0  0  0  0  0  0  0
  129.3620  132.4710   58.8390 C   0  0  0  0  0  0  0  0  0  0  0  0
  130.3710  131.6150   59.2990 C   0  0  0  0  0  0  0  0  0  0  0  0
  130.2110  130.9060   60.4860 C   0  0  0  0  0  0  0  0  0  0  0  0
  129.0390  131.0320   61.2330 C   0  0  0  0  0  0  0  0  0  0  0  0
  128.9890  130.2810   62.4230 N   0  0  0  0  0  0  0  0  0  0  0  0
  127.9450  129.6520   63.0150 C   0  0  0  0  0  0  0  0  0  0  0  0
  126.8090  129.6010   62.5420 O   0  0  0  0  0  0  0  0  0  0  0  0
  128.2520  128.9920   64.2880 C   0  0  0  0  0  0  0  0  0  0  0  0
  127.8250  129.7660   65.8120 S   0  0  0  0  0  0  0  0  0  0  0  0
  128.4430  128.4100   66.7260 C   0  0  0  0  0  0  0  0  0  0  0  0
  128.4010  128.3900   68.0560 N   0  0  0  0  0  0  0  0  0  0  0  0
  128.8960  127.2880   68.6780 C   0  0  0  0  0  0  0  0  0  0  0  0
  128.8290  127.2930   70.1780 C   0  0  0  0  0  0  0  0  0  0  0  0
  127.6500  126.9260   70.8450 C   0  0  0  0  0  0  0  0  0  0  0  0
  127.5790  126.9320   72.2360 C   0  0  0  0  0  0  0  0  0  0  0  0
  128.6920  127.3070   72.9810 C   0  0  0  0  0  0  0  0  0  0  0  0
  129.8730  127.6780   72.3450 C   0  0  0  0  0  0  0  0  0  0  0  0
  129.9370  127.6720   70.9550 C   0  0  0  0  0  0  0  0  0  0  0  0
  129.4500  126.2220   67.9610 C   0  0  0  0  0  0  0  0  0  0  0  0
  129.5030  126.2350   66.5590 C   0  0  0  0  0  0  0  0  0  0  0  0
  130.1220  125.0320   65.8370 C   0  0  0  0  0  0  0  0  0  0  0  0
  130.1880  123.9400   66.6020 F   0  0  0  0  0  0  0  0  0  0  0  0
  129.3910  124.7250   64.7660 F   0  0  0  0  0  0  0  0  0  0  0  0
  131.3640  125.3250   65.4530 F   0  0  0  0  0  0  0  0  0  0  0  0
  128.9710  127.3780   65.8960 C   0  0  0  0  0  0  0  0  0  0  0  0
  128.8440  127.7370   64.5040 C   0  0  0  0  0  0  0  0  0  0  0  0
  129.2670  126.9200   63.4870 N   0  0  0  0  0  0  0  0  0  0  0  0
  128.0250  131.8900   60.7810 C   0  0  0  0  0  0  0  0  0  0  0  0
  128.1870  132.5990   59.5950 C   0  0  0  0  0  0  0  0  0  0  0  0
  1  2  1  0
  2  3  1  0
  3  4  2  0
  3  5  1  0
  5  6  2  0
  6  7  1  0
  7  8  2  0
  8  9  1  0
  9 10  1  0
 10 11  2  0
 10 12  1  0
 12 13  1  0
 13 14  1  0
 14 15  2  0
 15 16  1  0
 16 17  1  0
 17 18  2  0
 18 19  1  0
 19 20  2  0
 20 21  1  0
 21 22  2  0
 16 23  2  0
 23 24  1  0
 24 25  1  0
 25 26  1  0
 25 27  1  0
 25 28  1  0
 24 29  2  0
 29 30  1  0
 30 31  1  0
  8 32  1  0
 32 33  2  0
 33  5  1  0
 30 12  2  0
 29 14  1  0
 22 17  1  0
M  END
>  <Binding energies>  (31) 
[-8.34]

>  <Ligand effiencies>  (31) 
[-0.23166666666666666]

>  <Interactions>  (31) 
["V-A:TYR:539:CA:4869, V-A:ILE:538:CG2:4863, V-A:ILE:538:CB:4862, V-A:TYR:539:CE1:4875, V-A:LEU:363:CD1:3189, V-A:PRO:540:CA:4883, V-A:ILE:538:CA:4860, V-A:TYR:539:CD1:4873, V-A:PRO:540:N:4884, V-A:TYR:539:C:4867, V-A:GLU:543:CD:4908, V-A:TYR:484:CZ:4347, V-B:GLU:543:CD:9880, V-B:HIS:456:CE1:9041, V-B:GLU:543:C:9874, V-A:HIS:456:CE1:4070, V-B:GLU:543:CG:9879, V-B:GLU:543:CB:9878, V-A:TYR:484:CE2:4346, V-A:GLU:543:CB:4906, V-B:HIS:456:CD2:9039, V-B:GLU:543:CA:9876, V-A:GLU:543:CG:4907, V-B:GLY:544:CA:9886, V-B:LYS:547:CE:9922, V-B:GLY:544:C:9884, H-B:GLU:543:OE1:9881, H-B:GLU:543:OE2:9882, H-A:TYR:539:N:4870, H-A:GLU:543:OE1:4909, V-B:TYR:484:CZ:9318, H-A:GLU:543:OE2:4910"]

$$$$
4cc_Grossjean_2025
     RDKit          3D

 31 34  0  0  0  0  0  0  0  0999 V2000
  130.7800  132.8640   56.7380 C   0  0  0  0  0  0  0  0  0  0  0  0
  129.7480  133.3180   57.6070 O   0  0  0  0  0  0  0  0  0  0  0  0
  129.5080  132.6340   58.7830 C   0  0  0  0  0  0  0  0  0  0  0  0
  130.4300  131.6470   59.1280 C   0  0  0  0  0  0  0  0  0  0  0  0
  130.2730  130.9060   60.2960 C   0  0  0  0  0  0  0  0  0  0  0  0
  129.1800  131.1380   61.1340 C   0  0  0  0  0  0  0  0  0  0  0  0
  129.1130  130.3520   62.3000 N   0  0  0  0  0  0  0  0  0  0  0  0
  128.0930  129.5890   62.7610 C   0  0  0  0  0  0  0  0  0  0  0  0
  127.0250  129.4350   62.1660 O   0  0  0  0  0  0  0  0  0  0  0  0
  128.3330  128.9290   64.0480 C   0  0  0  0  0  0  0  0  0  0  0  0
  127.8710  129.7230   65.5520 S   0  0  0  0  0  0  0  0  0  0  0  0
  128.4490  128.3700   66.4960 C   0  0  0  0  0  0  0  0  0  0  0  0
  128.3700  128.3660   67.8250 N   0  0  0  0  0  0  0  0  0  0  0  0
  128.8360  127.2660   68.4710 C   0  0  0  0  0  0  0  0  0  0  0  0
  128.7370  127.2910   69.9690 C   0  0  0  0  0  0  0  0  0  0  0  0
  129.8300  127.6940   70.7540 C   0  0  0  0  0  0  0  0  0  0  0  0
  129.7460  127.7180   72.1440 C   0  0  0  0  0  0  0  0  0  0  0  0
  128.5640  127.3370   72.7700 C   0  0  0  0  0  0  0  0  0  0  0  0
  127.4680  126.9300   72.0170 C   0  0  0  0  0  0  0  0  0  0  0  0
  127.5570  126.9070   70.6270 C   0  0  0  0  0  0  0  0  0  0  0  0
  129.3940  126.1850   67.7820 C   0  0  0  0  0  0  0  0  0  0  0  0
  129.4830  126.1800   66.3800 C   0  0  0  0  0  0  0  0  0  0  0  0
  130.1000  124.9580   65.6900 C   0  0  0  0  0  0  0  0  0  0  0  0
  129.4290  124.5770   64.6000 F   0  0  0  0  0  0  0  0  0  0  0  0
  131.3480  125.2360   65.3130 F   0  0  0  0  0  0  0  0  0  0  0  0
  130.1150  123.9240   66.5310 F   0  0  0  0  0  0  0  0  0  0  0  0
  128.9890  127.3240   65.6920 C   0  0  0  0  0  0  0  0  0  0  0  0
  128.9130  127.6740   64.2940 C   0  0  0  0  0  0  0  0  0  0  0  0
  129.3670  126.8480   63.2980 N   0  0  0  0  0  0  0  0  0  0  0  0
  128.2550  132.1390   60.8000 C   0  0  0  0  0  0  0  0  0  0  0  0
  128.4170  132.8770   59.6320 C   0  0  0  0  0  0  0  0  0  0  0  0
  1  2  1  0
  2  3  1  0
  3  4  2  0
  4  5  1  0
  5  6  2  0
  6  7  1  0
  7  8  1  0
  8  9  2  0
  8 10  1  0
 10 11  1  0
 11 12  1  0
 12 13  2  0
 13 14  1  0
 14 15  1  0
 15 16  2  0
 16 17  1  0
 17 18  2  0
 18 19  1  0
 19 20  2  0
 14 21  2  0
 21 22  1  0
 22 23  1  0
 23 24  1  0
 23 25  1  0
 23 26  1  0
 22 27  2  0
 27 28  1  0
 28 29  1  0
  6 30  1  0
 30 31  2  0
 31  3  1  0
 28 10  2  0
 27 12  1  0
 20 15  1  0
M  END
>  <Binding energies>  (32) 
[-7.53]

>  <Ligand effiencies>  (32) 
[-0.2214705882352941]

>  <Interactions>  (32) 
["V-A:ILE:538:CB:4862, V-A:TYR:539:CE1:4875, V-A:PRO:540:CA:4883, V-A:ILE:538:CA:4860, V-A:TYR:539:CD1:4873, V-A:PRO:540:N:4884, V-A:TYR:539:C:4867, V-A:GLU:543:CD:4908, V-A:TYR:484:CZ:4347, V-B:GLU:543:CD:9880, V-B:HIS:456:CE1:9041, V-B:GLU:543:C:9874, V-A:HIS:456:CE1:4070, V-B:GLU:543:CG:9879, V-B:GLU:543:CB:9878, V-A:TYR:484:CE2:4346, V-A:GLU:543:CB:4906, V-B:HIS:456:CD2:9039, V-B:GLU:543:CA:9876, V-A:GLU:543:CG:4907, V-B:GLY:544:CA:9886, V-B:LYS:547:CE:9922, V-B:GLY:544:C:9884, H-B:GLU:543:OE1:9881, H-A:TYR:539:N:4870, H-A:GLU:543:OE1:4909, V-B:TYR:484:CZ:9318, H-A:GLU:543:OE2:4910"]

$$$$
4ce_Grossjean_2025
     RDKit          3D

 30 33  0  0  0  0  0  0  0  0999 V2000
  130.1100  125.0770   67.4190 C   0  0  0  0  0  0  0  0  0  0  0  0
  129.4600  126.4450   67.5110 C   0  0  0  0  0  0  0  0  0  0  0  0
  129.4640  127.1770   68.7010 C   0  0  0  0  0  0  0  0  0  0  0  0
  128.8540  128.4320   68.7100 C   0  0  0  0  0  0  0  0  0  0  0  0
  128.2630  128.9200   67.5440 C   0  0  0  0  0  0  0  0  0  0  0  0
  128.2900  128.1320   66.3870 C   0  0  0  0  0  0  0  0  0  0  0  0
  127.6990  128.6880   65.2380 N   0  0  0  0  0  0  0  0  0  0  0  0
  127.6900  129.9820   64.8300 C   0  0  0  0  0  0  0  0  0  0  0  0
  128.2460  130.8970   65.4410 O   0  0  0  0  0  0  0  0  0  0  0  0
  126.9630  130.2450   63.5860 C   0  0  0  0  0  0  0  0  0  0  0  0
  127.8230  130.2820   62.0480 S   0  0  0  0  0  0  0  0  0  0  0  0
  126.3390  130.5800   61.1750 C   0  0  0  0  0  0  0  0  0  0  0  0
  126.3280  130.7120   59.8510 N   0  0  0  0  0  0  0  0  0  0  0  0
  125.1240  130.9270   59.2580 C   0  0  0  0  0  0  0  0  0  0  0  0
  125.1450  131.0660   57.7650 C   0  0  0  0  0  0  0  0  0  0  0  0
  123.9660  130.9230   57.0150 C   0  0  0  0  0  0  0  0  0  0  0  0
  123.9790  131.0440   55.6280 C   0  0  0  0  0  0  0  0  0  0  0  0
  125.1750  131.3130   54.9700 C   0  0  0  0  0  0  0  0  0  0  0  0
  126.3560  131.4580   55.6880 C   0  0  0  0  0  0  0  0  0  0  0  0
  126.3400  131.3340   57.0750 C   0  0  0  0  0  0  0  0  0  0  0  0
  123.9420  131.0300   59.9990 C   0  0  0  0  0  0  0  0  0  0  0  0
  123.9440  130.8970   61.3970 C   0  0  0  0  0  0  0  0  0  0  0  0
  122.6130  131.0180   62.1470 C   0  0  0  0  0  0  0  0  0  0  0  0
  122.5080  130.1660   63.1690 F   0  0  0  0  0  0  0  0  0  0  0  0
  122.4840  132.2500   62.6400 F   0  0  0  0  0  0  0  0  0  0  0  0
  121.6030  130.7700   61.3150 F   0  0  0  0  0  0  0  0  0  0  0  0
  125.1990  130.6560   62.0280 C   0  0  0  0  0  0  0  0  0  0  0  0
  125.5870  130.4620   63.4030 C   0  0  0  0  0  0  0  0  0  0  0  0
  124.6880  130.4860   64.4380 N   0  0  0  0  0  0  0  0  0  0  0  0
  128.8880  126.9060   66.3690 N   0  0  0  0  0  0  0  0  0  0  0  0
  1  2  1  0
  2  3  2  0
  3  4  1  0
  4  5  2  0
  5  6  1  0
  6  7  1  0
  7  8  1  0
  8  9  2  0
  8 10  1  0
 10 11  1  0
 11 12  1  0
 12 13  2  0
 13 14  1  0
 14 15  1  0
 15 16  2  0
 16 17  1  0
 17 18  2  0
 18 19  1  0
 19 20  2  0
 14 21  2  0
 21 22  1  0
 22 23  1  0
 23 24  1  0
 23 25  1  0
 23 26  1  0
 22 27  2  0
 27 28  1  0
 28 29  1  0
  6 30  2  0
 30  2  1  0
 28 10  2  0
 27 12  1  0
 20 15  1  0
M  END
>  <Binding energies>  (33) 
[-7.46]

>  <Ligand effiencies>  (33) 
[-0.22606060606060607]

>  <Interactions>  (33) 
["V-B:ILE:369:CG1:8209, V-B:GLY:453:C:9013, V-B:ASP:366:CB:8183, V-B:ILE:369:CB:8207, V-A:TYR:539:CE1:4875, V-A:TYR:539:CZ:4877, V-B:ILE:369:CG2:8208, V-B:ASP:366:CG:8184, V-B:GLY:454:CA:9020, V-A:MET:535:CE:4835, V-B:ASP:366:CA:8181, V-B:GLY:453:CA:9015, V-A:GLU:543:CD:4908, V-A:TYR:484:CZ:4347, V-B:GLU:543:CD:9880, V-B:HIS:456:CE1:9041, V-A:HIS:456:CE1:4070, V-B:GLU:543:CG:9879, V-B:GLU:543:CB:9878, V-A:TYR:484:CE2:4346, V-A:GLU:543:CB:4906, V-B:GLU:543:CA:9876, V-A:GLU:543:CG:4907, H-B:GLU:543:OE1:9881, H-B:GLU:543:OE2:9882, V-B:ASP:366:C:8179, V-B:TYR:531:CZ:9766, V-B:TYR:531:CE1:9764, V-B:ARG:545:CZ:9898, H-B:TYR:484:OH:9319, V-B:ASN:370:CB:8216, V-B:ASN:370:CA:8214, V-B:TYR:531:CD1:9762, V-B:CYS:365:C:8175"]

$$$$
4cf_Grossjean_2025
     RDKit          3D

 29 32  0  0  0  0  0  0  0  0999 V2000
  126.0270  127.5830   61.3690 N   0  0  0  0  0  0  0  0  0  0  0  0
  126.1060  128.6530   60.5150 C   0  0  0  0  0  0  0  0  0  0  0  0
  126.4330  128.5300   59.1550 C   0  0  0  0  0  0  0  0  0  0  0  0
  126.7760  127.3190   58.4040 C   0  0  0  0  0  0  0  0  0  0  0  0
  127.7450  127.3070   57.6430 O   0  0  0  0  0  0  0  0  0  0  0  0
  125.9700  126.2520   58.6220 N   0  0  0  0  0  0  0  0  0  0  0  0
  125.9920  124.9740   58.0330 C   0  0  0  0  0  0  0  0  0  0  0  0
  124.8750  124.2990   57.5040 C   0  0  0  0  0  0  0  0  0  0  0  0
  125.0340  123.0230   56.9590 C   0  0  0  0  0  0  0  0  0  0  0  0
  126.3060  122.4510   56.9560 C   0  0  0  0  0  0  0  0  0  0  0  0
  127.3970  123.0770   57.4650 N   0  0  0  0  0  0  0  0  0  0  0  0
  127.2270  124.3160   57.9930 C   0  0  0  0  0  0  0  0  0  0  0  0
  126.4370  130.1010   58.3570 S   0  0  0  0  0  0  0  0  0  0  0  0
  126.0110  130.9090   59.8480 C   0  0  0  0  0  0  0  0  0  0  0  0
  125.8600  132.2310   59.9030 N   0  0  0  0  0  0  0  0  0  0  0  0
  125.5440  132.7690   61.1100 C   0  0  0  0  0  0  0  0  0  0  0  0
  125.3870  134.2620   61.1430 C   0  0  0  0  0  0  0  0  0  0  0  0
  124.1240  134.8540   60.9910 C   0  0  0  0  0  0  0  0  0  0  0  0
  123.9690  136.2370   61.0220 C   0  0  0  0  0  0  0  0  0  0  0  0
  125.0820  137.0510   61.2080 C   0  0  0  0  0  0  0  0  0  0  0  0
  126.3450  136.4910   61.3650 C   0  0  0  0  0  0  0  0  0  0  0  0
  126.4950  135.1080   61.3340 C   0  0  0  0  0  0  0  0  0  0  0  0
  125.3590  131.9780   62.2470 C   0  0  0  0  0  0  0  0  0  0  0  0
  125.5120  130.5840   62.1980 C   0  0  0  0  0  0  0  0  0  0  0  0
  125.3000  129.7770   63.4850 C   0  0  0  0  0  0  0  0  0  0  0  0
  125.9710  128.6230   63.4970 F   0  0  0  0  0  0  0  0  0  0  0  0
  125.7080  130.4870   64.5360 F   0  0  0  0  0  0  0  0  0  0  0  0
  124.0060  129.4850   63.6270 F   0  0  0  0  0  0  0  0  0  0  0  0
  125.8610  130.0090   60.9420 C   0  0  0  0  0  0  0  0  0  0  0  0
  1  2  1  0
  2  3  2  0
  3  4  1  0
  4  5  2  0
  4  6  1  0
  6  7  1  0
  7  8  2  0
  8  9  1  0
  9 10  2  0
 10 11  1  0
 11 12  2  0
  3 13  1  0
 13 14  1  0
 14 15  2  0
 15 16  1  0
 16 17  1  0
 17 18  2  0
 18 19  1  0
 19 20  2  0
 20 21  1  0
 21 22  2  0
 16 23  2  0
 23 24  1  0
 24 25  1  0
 25 26  1  0
 25 27  1  0
 25 28  1  0
 24 29  2  0
 29  2  1  0
 12  7  1  0
 29 14  1  0
 22 17  1  0
M  END
>  <Binding energies>  (34) 
[-7.27]

>  <Ligand effiencies>  (34) 
[-0.2271875]

>  <Interactions>  (34) 
["V-B:ASP:366:CB:8183, V-B:SER:385:CA:8378, V-A:TYR:539:CE1:4875, V-B:ILE:369:CG2:8208, V-B:LEU:475:CD2:9230, V-B:ASP:366:CG:8184, V-B:LEU:373:CD1:8251, V-B:SER:385:CB:8380, V-A:TYR:539:CD1:4873, V-B:TYR:539:C:9839, V-B:PRO:540:CA:9855, V-B:PRO:540:N:9856, V-B:PRO:540:CB:9857, V-B:GLU:543:CD:9880, V-B:MET:535:CE:9807, V-B:PRO:540:CD:9859, H-B:GLU:543:OE1:9881, H-B:ASP:366:OD1:8185, H-B:GLU:543:OE2:9882, H-B:TYR:531:OH:9767, V-B:LEU:363:CD1:8160, H-B:ASP:366:OD2:8186, V-B:TYR:531:CE2:9765, V-B:ARG:545:CZ:9898, V-B:TYR:484:CZ:9318, V-B:HIS:383:CD2:8363"]

$$$$
4ci_Grossjean_2025
     RDKit          3D

 28 31  0  0  0  0  0  0  0  0999 V2000
  124.6620  130.5920   64.4330 N   0  0  0  0  0  0  0  0  0  0  0  0
  125.5740  130.5940   63.4100 C   0  0  0  0  0  0  0  0  0  0  0  0
  126.9570  130.4570   63.6110 C   0  0  0  0  0  0  0  0  0  0  0  0
  127.6830  130.2820   64.8720 C   0  0  0  0  0  0  0  0  0  0  0  0
  128.3680  131.1960   65.3370 O   0  0  0  0  0  0  0  0  0  0  0  0
  127.5510  129.0650   65.4570 N   0  0  0  0  0  0  0  0  0  0  0  0
  128.1270  128.6300   66.6440 C   0  0  0  0  0  0  0  0  0  0  0  0
  128.6200  127.3380   66.8240 C   0  0  0  0  0  0  0  0  0  0  0  0
  129.0960  127.3120   68.1140 C   0  0  0  0  0  0  0  0  0  0  0  0
  128.9020  128.5270   68.6820 O   0  0  0  0  0  0  0  0  0  0  0  0
  128.2860  129.3530   67.7400 N   0  0  0  0  0  0  0  0  0  0  0  0
  127.8300  130.4920   62.0820 S   0  0  0  0  0  0  0  0  0  0  0  0
  126.3430  130.6980   61.1860 C   0  0  0  0  0  0  0  0  0  0  0  0
  126.3390  130.8000   59.8590 N   0  0  0  0  0  0  0  0  0  0  0  0
  125.1350  130.9540   59.2500 C   0  0  0  0  0  0  0  0  0  0  0  0
  125.1630  131.0700   57.7530 C   0  0  0  0  0  0  0  0  0  0  0  0
  123.9850  130.9440   56.9980 C   0  0  0  0  0  0  0  0  0  0  0  0
  124.0050  131.0520   55.6090 C   0  0  0  0  0  0  0  0  0  0  0  0
  125.2080  131.2870   54.9530 C   0  0  0  0  0  0  0  0  0  0  0  0
  126.3900  131.4110   55.6750 C   0  0  0  0  0  0  0  0  0  0  0  0
  126.3660  131.3010   57.0630 C   0  0  0  0  0  0  0  0  0  0  0  0
  123.9430  131.0220   59.9790 C   0  0  0  0  0  0  0  0  0  0  0  0
  123.9350  130.9160   61.3790 C   0  0  0  0  0  0  0  0  0  0  0  0
  122.5930  131.0000   62.1140 C   0  0  0  0  0  0  0  0  0  0  0  0
  121.5460  130.7660   61.3210 F   0  0  0  0  0  0  0  0  0  0  0  0
  122.5600  130.0970   63.0940 F   0  0  0  0  0  0  0  0  0  0  0  0
  122.4370  132.2180   62.6330 F   0  0  0  0  0  0  0  0  0  0  0  0
  125.1920  130.7420   62.0260 C   0  0  0  0  0  0  0  0  0  0  0  0
  1  2  1  0
  2  3  2  0
  3  4  1  0
  4  5  2  0
  4  6  1  0
  6  7  1  0
  7  8  1  0
  8  9  2  0
  9 10  1  0
 10 11  1  0
  3 12  1  0
 12 13  1  0
 13 14  2  0
 14 15  1  0
 15 16  1  0
 16 17  2  0
 17 18  1  0
 18 19  2  0
 19 20  1  0
 20 21  2  0
 15 22  2  0
 22 23  1  0
 23 24  1  0
 24 25  1  0
 24 26  1  0
 24 27  1  0
 23 28  2  0
 28  2  1  0
 11  7  2  0
 28 13  1  0
 21 16  1  0
M  END
>  <Binding energies>  (35) 
[-6.93]

>  <Ligand effiencies>  (35) 
[-0.2235483870967742]

>  <Interactions>  (35) 
["V-B:ILE:369:CG1:8209, V-B:GLY:453:C:9013, V-B:ASP:366:CB:8183, V-B:ILE:369:CB:8207, V-A:TYR:539:CE1:4875, V-A:TYR:539:CZ:4877, V-B:ILE:369:CG2:8208, V-B:ASP:366:CG:8184, V-B:GLY:454:CA:9020, V-A:MET:535:CE:4835, V-B:ASP:366:CA:8181, V-B:GLY:453:CA:9015, V-A:GLU:543:CD:4908, V-B:GLU:543:CD:9880, V-B:HIS:456:CE1:9041, V-B:GLU:543:CG:9879, V-B:GLU:543:CB:9878, V-A:GLU:543:CB:4906, V-A:GLU:543:CG:4907, H-B:GLU:543:OE1:9881, H-B:GLU:543:OE2:9882, V-B:ASP:366:C:8179, V-B:TYR:531:CZ:9766, V-B:TYR:531:CE1:9764, V-B:ARG:545:CZ:9898, H-B:TYR:484:OH:9319, V-B:ASN:370:CB:8216, V-B:TYR:484:CZ:9318, V-B:ASN:370:CA:8214, V-B:TYR:531:CD1:9762, V-B:CYS:365:C:8175"]

$$$$
8a_Ghoteimi_2023
     RDKit          3D

 40 44  0  0  0  0  0  0  0  0999 V2000
  131.2130  131.8130   55.6190 C   0  0  0  0  0  0  0  0  0  0  0  0
  131.7250  132.8510   56.6210 C   0  0  0  0  0  0  0  0  0  0  0  0
  130.6330  133.6260   57.0980 O   0  0  0  0  0  0  0  0  0  0  0  0
  129.3860  133.0950   57.1950 C   0  0  0  0  0  0  0  0  0  0  0  0
  128.5110  133.2560   56.3380 O   0  0  0  0  0  0  0  0  0  0  0  0
  129.1750  132.2990   58.4500 C   0  0  0  0  0  0  0  0  0  0  0  0
  130.1980  132.2460   59.4050 C   0  0  0  0  0  0  0  0  0  0  0  0
  130.0340  131.5150   60.5780 C   0  0  0  0  0  0  0  0  0  0  0  0
  128.8480  130.8210   60.8210 C   0  0  0  0  0  0  0  0  0  0  0  0
  128.7970  130.1120   62.0380 N   0  0  0  0  0  0  0  0  0  0  0  0
  127.7950  129.3810   62.5860 C   0  0  0  0  0  0  0  0  0  0  0  0
  126.6930  129.2140   62.0640 O   0  0  0  0  0  0  0  0  0  0  0  0
  128.1050  128.7680   63.8810 C   0  0  0  0  0  0  0  0  0  0  0  0
  127.4450  129.4450   65.3690 S   0  0  0  0  0  0  0  0  0  0  0  0
  128.2520  128.2320   66.3350 C   0  0  0  0  0  0  0  0  0  0  0  0
  128.1560  128.2170   67.6640 N   0  0  0  0  0  0  0  0  0  0  0  0
  128.8270  127.2340   68.3200 C   0  0  0  0  0  0  0  0  0  0  0  0
  128.7220  127.2490   69.8110 C   0  0  0  0  0  0  0  0  0  0  0  0
  127.5180  126.9270   70.4550 C   0  0  0  0  0  0  0  0  0  0  0  0
  127.4230  126.9550   71.8440 C   0  0  0  0  0  0  0  0  0  0  0  0
  128.5260  127.2990   72.6220 C   0  0  0  0  0  0  0  0  0  0  0  0
  128.3390  127.3010   73.9920 O   0  0  0  0  0  0  0  0  0  0  0  0
  127.7550  128.4430   74.6100 C   0  0  0  0  0  0  0  0  0  0  0  0
  129.7360  127.6160   71.9890 C   0  0  0  0  0  0  0  0  0  0  0  0
  129.8270  127.5910   70.5990 C   0  0  0  0  0  0  0  0  0  0  0  0
  129.5810  126.2690   67.6490 C   0  0  0  0  0  0  0  0  0  0  0  0
  129.6720  126.2710   66.2520 C   0  0  0  0  0  0  0  0  0  0  0  0
  130.4610  125.2030   65.5870 C   0  0  0  0  0  0  0  0  0  0  0  0
  131.7820  125.4420   65.2020 C   0  0  0  0  0  0  0  0  0  0  0  0
  132.5320  124.4370   64.5970 C   0  0  0  0  0  0  0  0  0  0  0  0
  131.9780  123.1770   64.3710 C   0  0  0  0  0  0  0  0  0  0  0  0
  132.7960  122.2430   63.7650 O   0  0  0  0  0  0  0  0  0  0  0  0
  133.4740  122.5890   62.5640 C   0  0  0  0  0  0  0  0  0  0  0  0
  130.6530  122.9320   64.7640 C   0  0  0  0  0  0  0  0  0  0  0  0
  129.9050  123.9390   65.3710 C   0  0  0  0  0  0  0  0  0  0  0  0
  128.9950  127.3050   65.5460 C   0  0  0  0  0  0  0  0  0  0  0  0
  128.9080  127.6470   64.1470 C   0  0  0  0  0  0  0  0  0  0  0  0
  129.5710  126.9420   63.1740 N   0  0  0  0  0  0  0  0  0  0  0  0
  127.8160  130.8710   59.8720 C   0  0  0  0  0  0  0  0  0  0  0  0
  127.9820  131.6030   58.6980 C   0  0  0  0  0  0  0  0  0  0  0  0
  1  2  1  0
  2  3  1  0
  3  4  1  0
  4  5  2  0
  4  6  1  0
  6  7  2  0
  7  8  1  0
  8  9  2  0
  9 10  1  0
 10 11  1  0
 11 12  2  0
 11 13  1  0
 13 14  1  0
 14 15  1  0
 15 16  2  0
 16 17  1  0
 17 18  1  0
 18 19  2  0
 19 20  1  0
 20 21  2  0
 21 22  1  0
 22 23  1  0
 21 24  1  0
 24 25  2  0
 17 26  2  0
 26 27  1  0
 27 28  1  0
 28 29  2  0
 29 30  1  0
 30 31  2  0
 31 32  1  0
 32 33  1  0
 31 34  1  0
 34 35  2  0
 27 36  2  0
 36 37  1  0
 37 38  1  0
  9 39  1  0
 39 40  2  0
 40  6  1  0
 37 13  2  0
 36 15  1  0
 25 18  1  0
 35 28  1  0
M  END
>  <Binding energies>  (36) 
[-9.75]

>  <Ligand effiencies>  (36) 
[-0.22674418604651161]

>  <Interactions>  (36) 
["V-A:TYR:539:CA:4869, V-A:PRO:540:CD:4887, V-A:ILE:538:CG2:4863, V-A:ILE:538:CB:4862, V-A:LEU:363:CD1:3189, V-A:PRO:540:CA:4883, V-A:MET:535:CE:4835, V-A:TYR:539:CD1:4873, V-A:PRO:540:N:4884, V-A:PRO:540:CB:4885, V-A:TYR:539:C:4867, V-A:GLY:454:CA:4049, V-A:GLU:543:CD:4908, H-A:GLY:454:N:4050, H-A:TYR:484:OH:4348, V-A:ARG:545:CZ:4926, V-A:TYR:484:CZ:4347, V-B:GLU:543:CD:9880, V-B:HIS:456:CE1:9041, V-B:GLU:543:C:9874, V-A:HIS:456:CE1:4070, V-B:GLU:543:CG:9879, V-B:GLU:543:CB:9878, V-A:LEU:475:CD2:4259, V-A:TYR:484:CE2:4346, V-B:HIS:456:CD2:9039, V-A:GLU:543:CG:4907, H-B:LYS:547:NZ:9923, V-B:GLY:544:CA:9886, V-B:GLY:544:C:9884, H-B:GLU:543:OE1:9881, H-A:TYR:539:N:4870, H-A:GLU:543:OE1:4909, H-A:GLU:543:OE2:4910"]

$$$$
8c_Ghoteimi_2023
     RDKit          3D

 34 38  0  0  0  0  0  0  0  0999 V2000
  130.6120  126.4950   74.8640 C   0  0  0  0  0  0  0  0  0  0  0  0
  129.5680  127.1860   74.1880 O   0  0  0  0  0  0  0  0  0  0  0  0
  129.5540  127.2010   72.8060 C   0  0  0  0  0  0  0  0  0  0  0  0
  128.4250  126.6690   72.1880 C   0  0  0  0  0  0  0  0  0  0  0  0
  128.3250  126.6390   70.8000 C   0  0  0  0  0  0  0  0  0  0  0  0
  129.3550  127.1430   69.9930 C   0  0  0  0  0  0  0  0  0  0  0  0
  129.2560  127.1110   68.5000 C   0  0  0  0  0  0  0  0  0  0  0  0
  129.9620  126.1790   67.7340 C   0  0  0  0  0  0  0  0  0  0  0  0
  129.8500  126.1690   66.3400 C   0  0  0  0  0  0  0  0  0  0  0  0
  130.6180  125.1740   65.5580 C   0  0  0  0  0  0  0  0  0  0  0  0
  131.9400  125.4370   65.1890 C   0  0  0  0  0  0  0  0  0  0  0  0
  132.6640  124.4970   64.4630 C   0  0  0  0  0  0  0  0  0  0  0  0
  132.0800  123.2850   64.0900 C   0  0  0  0  0  0  0  0  0  0  0  0
  132.8750  122.4120   63.3720 O   0  0  0  0  0  0  0  0  0  0  0  0
  133.8030  122.9330   62.4280 C   0  0  0  0  0  0  0  0  0  0  0  0
  130.7510  123.0240   64.4570 C   0  0  0  0  0  0  0  0  0  0  0  0
  130.0270  123.9650   65.1850 C   0  0  0  0  0  0  0  0  0  0  0  0
  128.9950  127.1260   65.7320 C   0  0  0  0  0  0  0  0  0  0  0  0
  128.6490  127.3940   64.3610 C   0  0  0  0  0  0  0  0  0  0  0  0
  129.1630  126.6650   63.3170 N   0  0  0  0  0  0  0  0  0  0  0  0
  127.7470  128.4570   64.1990 C   0  0  0  0  0  0  0  0  0  0  0  0
  127.1820  128.9930   62.9580 C   0  0  0  0  0  0  0  0  0  0  0  0
  127.8400  128.9960   61.9160 O   0  0  0  0  0  0  0  0  0  0  0  0
  125.9170  129.4720   63.0550 N   0  0  0  0  0  0  0  0  0  0  0  0
  125.1560  130.0280   62.0370 C   0  0  0  0  0  0  0  0  0  0  0  0
  125.4580  130.1210   60.7600 N   0  0  0  0  0  0  0  0  0  0  0  0
  124.4970  130.7070   60.0750 C   0  0  0  0  0  0  0  0  0  0  0  0
  123.3790  131.1060   60.8010 C   0  0  0  0  0  0  0  0  0  0  0  0
  123.6120  130.6870   62.4720 S   0  0  0  0  0  0  0  0  0  0  0  0
  127.2990  129.1550   65.7560 S   0  0  0  0  0  0  0  0  0  0  0  0
  128.3210  128.0240   66.6100 C   0  0  0  0  0  0  0  0  0  0  0  0
  128.4300  128.0350   67.9390 N   0  0  0  0  0  0  0  0  0  0  0  0
  130.4870  127.6790   70.6210 C   0  0  0  0  0  0  0  0  0  0  0  0
  130.5900  127.7100   72.0090 C   0  0  0  0  0  0  0  0  0  0  0  0
  1  2  1  0
  2  3  1  0
  3  4  2  0
  4  5  1  0
  5  6  2  0
  6  7  1  0
  7  8  2  0
  8  9  1  0
  9 10  1  0
 10 11  2  0
 11 12  1  0
 12 13  2  0
 13 14  1  0
 14 15  1  0
 13 16  1  0
 16 17  2  0
  9 18  2  0
 18 19  1  0
 19 20  1  0
 19 21  2  0
 21 22  1  0
 22 23  2  0
 22 24  1  0
 24 25  1  0
 25 26  2  0
 26 27  1  0
 27 28  2  0
 28 29  1  0
 21 30  1  0
 30 31  1  0
 31 32  2  0
  6 33  1  0
 33 34  2  0
 34  3  1  0
 32  7  1  0
 17 10  1  0
 31 18  1  0
 29 25  1  0
M  END
>  <Binding energies>  (37) 
[-7.35]

>  <Ligand effiencies>  (37) 
[-0.19864864864864865]

>  <Interactions>  (37) 
["V-B:ILE:369:CG1:8209, V-B:ASP:366:CB:8183, V-B:ILE:369:CB:8207, V-B:ILE:369:CG2:8208, V-B:ASP:366:CG:8184, V-B:ASP:366:CA:8181, V-A:GLY:454:CA:4049, V-A:GLU:543:CD:4908, H-A:GLY:454:N:4050, H-A:TYR:484:OH:4348, V-A:ILE:369:CD1:3239, V-A:ARG:545:CZ:4926, V-A:TYR:484:CZ:4347, V-B:GLU:543:CD:9880, V-B:GLU:543:C:9874, V-A:HIS:456:CE1:4070, V-B:GLU:543:CG:9879, V-B:GLU:543:CB:9878, V-A:LEU:475:CD2:4259, V-A:TYR:484:CE2:4346, V-A:GLY:544:C:4912, V-A:HIS:456:CD2:4068, H-B:LYS:547:NZ:9923, H-A:LYS:547:NZ:4951, H-B:GLU:543:OE1:9881, H-B:GLU:543:OE2:9882, H-A:GLU:543:OE1:4909, H-B:TYR:484:OH:9319"]

$$$$
8d_Ghoteimi_2023
     RDKit          3D

 30 33  0  0  0  0  0  0  0  0999 V2000
  131.9600  131.4310   54.9590 C   0  0  0  0  0  0  0  0  0  0  0  0
  132.1680  131.6390   56.3490 O   0  0  0  0  0  0  0  0  0  0  0  0
  131.3500  132.4570   57.0600 C   0  0  0  0  0  0  0  0  0  0  0  0
  131.2430  133.6700   56.8600 O   0  0  0  0  0  0  0  0  0  0  0  0
  130.5920  131.7430   58.1100 C   0  0  0  0  0  0  0  0  0  0  0  0
  129.2210  132.5290   58.8950 S   0  0  0  0  0  0  0  0  0  0  0  0
  128.9400  131.1250   59.8990 C   0  0  0  0  0  0  0  0  0  0  0  0
  127.9510  131.0850   60.7930 N   0  0  0  0  0  0  0  0  0  0  0  0
  127.8200  129.9430   61.5200 C   0  0  0  0  0  0  0  0  0  0  0  0
  126.7070  129.9270   62.5180 C   0  0  0  0  0  0  0  0  0  0  0  0
  125.3990  130.2730   62.1510 C   0  0  0  0  0  0  0  0  0  0  0  0
  124.3660  130.2570   63.0840 C   0  0  0  0  0  0  0  0  0  0  0  0
  124.6120  129.8940   64.4070 C   0  0  0  0  0  0  0  0  0  0  0  0
  123.5280  129.9050   65.2630 O   0  0  0  0  0  0  0  0  0  0  0  0
  123.7530  129.9160   66.6690 C   0  0  0  0  0  0  0  0  0  0  0  0
  125.9160  129.5440   64.7860 C   0  0  0  0  0  0  0  0  0  0  0  0
  126.9460  129.5610   63.8490 C   0  0  0  0  0  0  0  0  0  0  0  0
  128.6790  128.8520   61.3580 C   0  0  0  0  0  0  0  0  0  0  0  0
  129.7140  128.8930   60.4180 C   0  0  0  0  0  0  0  0  0  0  0  0
  130.6030  127.7180   60.2640 C   0  0  0  0  0  0  0  0  0  0  0  0
  131.3070  127.2210   61.3630 C   0  0  0  0  0  0  0  0  0  0  0  0
  132.1480  126.1210   61.2160 C   0  0  0  0  0  0  0  0  0  0  0  0
  132.2950  125.5020   59.9740 C   0  0  0  0  0  0  0  0  0  0  0  0
  133.1510  124.4190   59.9220 O   0  0  0  0  0  0  0  0  0  0  0  0
  134.1380  124.2660   60.9360 C   0  0  0  0  0  0  0  0  0  0  0  0
  131.5820  126.0010   58.8710 C   0  0  0  0  0  0  0  0  0  0  0  0
  130.7420  127.1010   59.0200 C   0  0  0  0  0  0  0  0  0  0  0  0
  129.8680  130.0750   59.6460 C   0  0  0  0  0  0  0  0  0  0  0  0
  130.7990  130.4560   58.6200 C   0  0  0  0  0  0  0  0  0  0  0  0
  131.8040  129.6270   58.1880 N   0  0  0  0  0  0  0  0  0  0  0  0
  1  2  1  0
  2  3  1  0
  3  4  2  0
  3  5  1  0
  5  6  1  0
  6  7  1  0
  7  8  2  0
  8  9  1  0
  9 10  1  0
 10 11  2  0
 11 12  1  0
 12 13  2  0
 13 14  1  0
 14 15  1  0
 13 16  1  0
 16 17  2  0
  9 18  2  0
 18 19  1  0
 19 20  1  0
 20 21  2  0
 21 22  1  0
 22 23  2  0
 23 24  1  0
 24 25  1  0
 23 26  1  0
 26 27  2  0
 19 28  2  0
 28 29  1  0
 29 30  1  0
 29  5  2  0
 28  7  1  0
 17 10  1  0
 27 20  1  0
M  END
>  <Binding energies>  (38) 
[-6.61]

>  <Ligand effiencies>  (38) 
[-0.2065625]

>  <Interactions>  (38) 
["V-A:ILE:538:CG2:4863, H-A:TYR:531:OH:4795, V-A:ILE:538:CB:4862, V-A:LEU:363:CD1:3189, V-A:TYR:531:CZ:4794, V-A:TYR:531:CE2:4793, V-A:PRO:540:CA:4883, V-B:GLY:454:CA:9020, V-A:MET:535:CE:4835, V-A:PRO:540:N:4884, V-A:PRO:540:CB:4885, V-A:TYR:539:C:4867, V-A:ASP:366:CB:3212, V-A:ILE:369:CD1:3239, V-A:ASP:366:CG:3213, V-B:HIS:456:CE1:9041, H-A:TYR:539:N:4870, V-B:ARG:545:CZ:9898, H-B:TYR:484:OH:9319, H-B:GLY:454:N:9021, V-B:TYR:484:CZ:9318, H-B:ARG:545:NE:9896, V-B:ARG:545:CD:9895, V-B:ARG:545:CG:9894, H-A:ASP:366:OD2:3215, H-B:ARG:545:NH1:9899, H-B:ARG:545:NH2:9900, V-A:MET:535:CG:4833, V-B:GLY:454:C:9018, V-B:TYR:484:CE1:9316"]

$$$$
9a_Ghoteimi_2023
     RDKit          3D

 48 54  0  0  0  0  0  0  0  0999 V2000
  124.7690  122.8280   57.2610 C   0  0  0  0  0  0  0  0  0  0  0  0
  125.1500  122.1490   55.9410 C   0  0  0  0  0  0  0  0  0  0  0  0
  126.5320  121.8090   55.9650 O   0  0  0  0  0  0  0  0  0  0  0  0
  127.4880  122.7690   56.0400 C   0  0  0  0  0  0  0  0  0  0  0  0
  128.1290  123.1700   55.0630 O   0  0  0  0  0  0  0  0  0  0  0  0
  127.6970  123.2930   57.4320 C   0  0  0  0  0  0  0  0  0  0  0  0
  127.6940  124.6770   57.6510 C   0  0  0  0  0  0  0  0  0  0  0  0
  127.8860  125.1930   58.9290 C   0  0  0  0  0  0  0  0  0  0  0  0
  128.0830  124.3400   60.0150 C   0  0  0  0  0  0  0  0  0  0  0  0
  128.2670  124.9730   61.2590 N   0  0  0  0  0  0  0  0  0  0  0  0
  129.4060  125.3050   61.9160 C   0  0  0  0  0  0  0  0  0  0  0  0
  130.5400  125.0870   61.4880 O   0  0  0  0  0  0  0  0  0  0  0  0
  129.2120  125.9700   63.2080 C   0  0  0  0  0  0  0  0  0  0  0  0
  129.6690  125.1550   64.7050 S   0  0  0  0  0  0  0  0  0  0  0  0
  129.1620  126.5290   65.6600 C   0  0  0  0  0  0  0  0  0  0  0  0
  129.2810  126.5400   66.9870 N   0  0  0  0  0  0  0  0  0  0  0  0
  128.8680  127.6620   67.6350 C   0  0  0  0  0  0  0  0  0  0  0  0
  129.0210  127.6560   69.1210 C   0  0  0  0  0  0  0  0  0  0  0  0
  127.9650  127.2480   69.9430 C   0  0  0  0  0  0  0  0  0  0  0  0
  128.0990  127.2380   71.3290 C   0  0  0  0  0  0  0  0  0  0  0  0
  129.3010  127.6230   71.9440 C   0  0  0  0  0  0  0  0  0  0  0  0
  129.4450  127.6370   73.3360 N   0  0  0  0  0  0  0  0  0  0  0  0
  130.6360  127.0640   73.9940 C   0  0  0  0  0  0  0  0  0  0  0  0
  130.4620  126.8400   75.5110 C   0  0  0  0  0  0  0  0  0  0  0  0
  130.0650  128.0480   76.1390 O   0  0  0  0  0  0  0  0  0  0  0  0
  128.8300  128.5200   75.6230 C   0  0  0  0  0  0  0  0  0  0  0  0
  128.9610  128.7980   74.1120 C   0  0  0  0  0  0  0  0  0  0  0  0
  130.3520  128.0450   71.1160 C   0  0  0  0  0  0  0  0  0  0  0  0
  130.2150  128.0570   69.7310 C   0  0  0  0  0  0  0  0  0  0  0  0
  128.3140  128.7510   66.9590 C   0  0  0  0  0  0  0  0  0  0  0  0
  128.1690  128.7360   65.5670 C   0  0  0  0  0  0  0  0  0  0  0  0
  127.5400  129.9060   64.9030 C   0  0  0  0  0  0  0  0  0  0  0  0
  128.2880  131.0530   64.6250 C   0  0  0  0  0  0  0  0  0  0  0  0
  127.7010  132.1430   63.9900 C   0  0  0  0  0  0  0  0  0  0  0  0
  126.3530  132.1090   63.5980 C   0  0  0  0  0  0  0  0  0  0  0  0
  125.7390  133.1950   62.9700 N   0  0  0  0  0  0  0  0  0  0  0  0
  124.2650  133.2680   62.9360 C   0  0  0  0  0  0  0  0  0  0  0  0
  123.7310  134.6680   62.5650 C   0  0  0  0  0  0  0  0  0  0  0  0
  124.2870  135.0880   61.3290 O   0  0  0  0  0  0  0  0  0  0  0  0
  125.7030  135.1630   61.3890 C   0  0  0  0  0  0  0  0  0  0  0  0
  126.2900  133.7760   61.7290 C   0  0  0  0  0  0  0  0  0  0  0  0
  125.6130  130.9520   63.8790 C   0  0  0  0  0  0  0  0  0  0  0  0
  126.1990  129.8630   64.5180 C   0  0  0  0  0  0  0  0  0  0  0  0
  128.6280  127.5850   64.8650 C   0  0  0  0  0  0  0  0  0  0  0  0
  128.6920  127.2480   63.4640 C   0  0  0  0  0  0  0  0  0  0  0  0
  128.2910  128.1120   62.4780 N   0  0  0  0  0  0  0  0  0  0  0  0
  128.0840  122.9520   59.8060 C   0  0  0  0  0  0  0  0  0  0  0  0
  127.8930  122.4370   58.5270 C   0  0  0  0  0  0  0  0  0  0  0  0
  1  2  1  0
  2  3  1  0
  3  4  1  0
  4  5  2  0
  4  6  1  0
  6  7  2  0
  7  8  1  0
  8  9  2  0
  9 10  1  0
 10 11  1  0
 11 12  2  0
 11 13  1  0
 13 14  1  0
 14 15  1  0
 15 16  2  0
 16 17  1  0
 17 18  1  0
 18 19  2  0
 19 20  1  0
 20 21  2  0
 21 22  1  0
 22 23  1  0
 23 24  1  0
 24 25  1  0
 25 26  1  0
 26 27  1  0
 21 28  1  0
 28 29  2  0
 17 30  2  0
 30 31  1  0
 31 32  1  0
 32 33  2  0
 33 34  1  0
 34 35  2  0
 35 36  1  0
 36 37  1  0
 37 38  1  0
 38 39  1  0
 39 40  1  0
 40 41  1  0
 35 42  1  0
 42 43  2  0
 31 44  2  0
 44 45  1  0
 45 46  1  0
  9 47  1  0
 47 48  2  0
 48  6  1  0
 45 13  2  0
 44 15  1  0
 29 18  1  0
 43 32  1  0
 27 22  1  0
 41 36  1  0
M  END
>  <Binding energies>  (39) 
[-10.85]

>  <Ligand effiencies>  (39) 
[-0.21274509803921568]

>  <Interactions>  (39) 
["V-B:SER:385:CA:8378, V-A:TYR:539:CE1:4875, V-B:LEU:475:CD2:9230, V-B:GLY:454:CA:9020, V-B:SER:385:CB:8380, V-A:TYR:539:CD1:4873, V-A:ALA:541:CB:4892, V-B:TYR:539:C:9839, V-A:GLU:543:CD:4908, V-B:TYR:539:CZ:9849, V-B:PRO:540:CA:9855, V-B:TYR:539:CE2:9848, V-B:PRO:540:N:9856, V-B:TYR:539:CE1:9847, V-B:PRO:540:CB:9857, H-B:TYR:539:OH:9850, V-B:TYR:539:CD2:9846, V-B:TYR:539:CD1:9845, V-B:TYR:539:CG:9844, H-B:TYR:539:N:9842, V-B:GLU:543:CD:9880, V-B:HIS:456:CE1:9041, V-B:GLU:543:C:9874, V-A:HIS:456:CE1:4070, V-B:GLU:543:CG:9879, V-A:GLU:543:C:4902, V-B:GLU:543:CB:9878, V-A:GLU:543:CB:4906, V-B:HIS:456:CD2:9039, V-A:GLY:544:C:4912, V-A:GLU:543:CG:4907, V-A:HIS:456:CD2:4068, H-A:LYS:547:NZ:4951, V-B:MET:535:CE:9807, V-B:PRO:540:CD:9859, H-B:GLU:543:OE1:9881, V-B:LEU:363:CD1:8160, V-B:PRO:540:CG:9858, V-B:SER:385:C:8376, V-B:ILE:538:CG2:9835, H-A:GLU:543:OE1:4909, V-B:TYR:484:CZ:9318, V-B:ILE:538:CA:9832, V-B:TYR:484:CE2:9317, V-B:ILE:538:CB:9834"]

$$$$
9b_Ghoteimi_2023
     RDKit          3D

 42 48  0  0  0  0  0  0  0  0999 V2000
  128.7320  125.9020   59.1160 N   0  0  0  0  0  0  0  0  0  0  0  0
  128.6310  125.1920   60.2850 C   0  0  0  0  0  0  0  0  0  0  0  0
  128.2310  123.8480   60.3420 C   0  0  0  0  0  0  0  0  0  0  0  0
  127.8800  122.9510   59.2380 C   0  0  0  0  0  0  0  0  0  0  0  0
  128.4280  121.8530   59.1200 O   0  0  0  0  0  0  0  0  0  0  0  0
  126.9370  123.4210   58.3830 N   0  0  0  0  0  0  0  0  0  0  0  0
  126.4290  122.7920   57.2540 C   0  0  0  0  0  0  0  0  0  0  0  0
  125.0690  122.7600   56.9470 C   0  0  0  0  0  0  0  0  0  0  0  0
  124.9850  122.0560   55.7680 C   0  0  0  0  0  0  0  0  0  0  0  0
  126.2290  121.6830   55.3850 O   0  0  0  0  0  0  0  0  0  0  0  0
  127.1360  122.1550   56.3350 N   0  0  0  0  0  0  0  0  0  0  0  0
  128.1820  123.2670   62.0070 S   0  0  0  0  0  0  0  0  0  0  0  0
  128.6770  124.8290   62.6140 C   0  0  0  0  0  0  0  0  0  0  0  0
  128.8080  125.0610   63.9190 N   0  0  0  0  0  0  0  0  0  0  0  0
  129.1810  126.3140   64.2880 C   0  0  0  0  0  0  0  0  0  0  0  0
  129.3000  126.5540   65.7590 C   0  0  0  0  0  0  0  0  0  0  0  0
  130.0200  125.6760   66.5790 C   0  0  0  0  0  0  0  0  0  0  0  0
  130.1150  125.8960   67.9500 C   0  0  0  0  0  0  0  0  0  0  0  0
  129.4830  126.9940   68.5530 C   0  0  0  0  0  0  0  0  0  0  0  0
  129.5720  127.2300   69.9300 N   0  0  0  0  0  0  0  0  0  0  0  0
  128.3650  127.4470   70.7530 C   0  0  0  0  0  0  0  0  0  0  0  0
  128.6200  127.3440   72.2710 C   0  0  0  0  0  0  0  0  0  0  0  0
  129.6580  128.2310   72.6500 O   0  0  0  0  0  0  0  0  0  0  0  0
  130.8740  127.9230   71.9880 C   0  0  0  0  0  0  0  0  0  0  0  0
  130.6900  128.0390   70.4590 C   0  0  0  0  0  0  0  0  0  0  0  0
  128.7810  127.8800   67.7240 C   0  0  0  0  0  0  0  0  0  0  0  0
  128.6890  127.6630   66.3520 C   0  0  0  0  0  0  0  0  0  0  0  0
  129.4470  127.3190   63.3550 C   0  0  0  0  0  0  0  0  0  0  0  0
  129.3310  127.0740   61.9820 C   0  0  0  0  0  0  0  0  0  0  0  0
  129.6540  128.1670   61.0300 C   0  0  0  0  0  0  0  0  0  0  0  0
  130.7270  128.0380   60.1470 C   0  0  0  0  0  0  0  0  0  0  0  0
  131.0210  129.0520   59.2410 C   0  0  0  0  0  0  0  0  0  0  0  0
  130.2490  130.2240   59.1930 C   0  0  0  0  0  0  0  0  0  0  0  0
  130.5170  131.2480   58.2800 N   0  0  0  0  0  0  0  0  0  0  0  0
  129.4130  132.1140   57.8220 C   0  0  0  0  0  0  0  0  0  0  0  0
  129.7570  132.9150   56.5490 C   0  0  0  0  0  0  0  0  0  0  0  0
  130.9380  133.6750   56.7580 O   0  0  0  0  0  0  0  0  0  0  0  0
  132.0480  132.8470   57.0700 C   0  0  0  0  0  0  0  0  0  0  0  0
  131.7610  132.0400   58.3540 C   0  0  0  0  0  0  0  0  0  0  0  0
  129.1620  130.3340   60.0720 C   0  0  0  0  0  0  0  0  0  0  0  0
  128.8680  129.3190   60.9790 C   0  0  0  0  0  0  0  0  0  0  0  0
  128.9080  125.7780   61.5740 C   0  0  0  0  0  0  0  0  0  0  0  0
  1  2  1  0
  2  3  2  0
  3  4  1  0
  4  5  2  0
  4  6  1  0
  6  7  1  0
  7  8  1  0
  8  9  2  0
  9 10  1  0
 10 11  1  0
  3 12  1  0
 12 13  1  0
 13 14  2  0
 14 15  1  0
 15 16  1  0
 16 17  2  0
 17 18  1  0
 18 19  2  0
 19 20  1  0
 20 21  1  0
 21 22  1  0
 22 23  1  0
 23 24  1  0
 24 25  1  0
 19 26  1  0
 26 27  2  0
 15 28  2  0
 28 29  1  0
 29 30  1  0
 30 31  2  0
 31 32  1  0
 32 33  2  0
 33 34  1  0
 34 35  1  0
 35 36  1  0
 36 37  1  0
 37 38  1  0
 38 39  1  0
 33 40  1  0
 40 41  2  0
 29 42  2  0
 42  2  1  0
 11  7  2  0
 42 13  1  0
 27 16  1  0
 41 30  1  0
 25 20  1  0
 39 34  1  0
M  END
>  <Binding energies>  (40) 
[-9.92]

>  <Ligand effiencies>  (40) 
[-0.22044444444444444]

>  <Interactions>  (40) 
["V-A:PRO:540:CD:4887, V-A:ILE:538:CB:4862, V-A:LEU:363:CD1:3189, V-A:PRO:540:CA:4883, V-A:ILE:538:CA:4860, V-A:MET:535:CE:4835, V-A:PRO:540:N:4884, V-A:PRO:540:CB:4885, V-B:TYR:539:C:9839, V-A:GLU:543:CD:4908, V-B:PRO:540:CA:9855, V-B:TYR:539:CE2:9848, V-B:PRO:540:N:9856, V-A:ASP:366:CG:3213, V-B:PRO:540:CB:9857, V-B:TYR:539:CD2:9846, H-B:TYR:539:N:9842, V-B:GLU:543:CD:9880, V-B:HIS:456:CE1:9041, V-A:HIS:456:CE1:4070, V-B:GLU:543:CG:9879, V-A:GLU:543:C:4902, V-B:GLU:543:CB:9878, V-A:GLU:543:CB:4906, V-B:HIS:456:CD2:9039, V-A:GLY:544:C:4912, V-A:GLU:543:CG:4907, H-A:LYS:547:NZ:4951, V-B:MET:535:CE:9807, V-B:PRO:540:CD:9859, V-B:LEU:363:CD1:8160, V-B:PRO:540:CG:9858, H-A:TYR:539:N:4870, V-A:PRO:540:CG:4886, V-B:ILE:538:CG2:9835, V-B:ILE:538:CA:9832, V-B:ILE:538:CG1:9836, V-B:ILE:538:CB:9834"]

$$$$
9c_Ghoteimi_2023
     RDKit          3D

 42 48  0  0  0  0  0  0  0  0999 V2000
  127.9980  128.0390   62.2690 N   0  0  0  0  0  0  0  0  0  0  0  0
  128.5640  127.2260   63.2180 C   0  0  0  0  0  0  0  0  0  0  0  0
  129.1310  125.9760   62.9270 C   0  0  0  0  0  0  0  0  0  0  0  0
  129.2550  125.3090   61.6280 C   0  0  0  0  0  0  0  0  0  0  0  0
  130.3400  125.2610   61.0450 O   0  0  0  0  0  0  0  0  0  0  0  0
  128.1110  124.7740   61.1370 N   0  0  0  0  0  0  0  0  0  0  0  0
  127.9520  124.1060   59.9300 C   0  0  0  0  0  0  0  0  0  0  0  0
  128.1350  122.8270   59.6840 N   0  0  0  0  0  0  0  0  0  0  0  0
  127.8970  122.5390   58.4190 C   0  0  0  0  0  0  0  0  0  0  0  0
  127.5100  123.6020   57.6070 C   0  0  0  0  0  0  0  0  0  0  0  0
  127.4580  125.0520   58.5630 S   0  0  0  0  0  0  0  0  0  0  0  0
  129.7370  125.1950   64.3880 S   0  0  0  0  0  0  0  0  0  0  0  0
  129.2120  126.5360   65.3770 C   0  0  0  0  0  0  0  0  0  0  0  0
  129.3780  126.5350   66.6990 N   0  0  0  0  0  0  0  0  0  0  0  0
  128.9190  127.6190   67.3780 C   0  0  0  0  0  0  0  0  0  0  0  0
  129.0980  127.5820   68.8620 C   0  0  0  0  0  0  0  0  0  0  0  0
  130.2790  128.0360   69.4610 C   0  0  0  0  0  0  0  0  0  0  0  0
  130.4440  127.9910   70.8410 C   0  0  0  0  0  0  0  0  0  0  0  0
  129.4370  127.4770   71.6750 C   0  0  0  0  0  0  0  0  0  0  0  0
  129.5850  127.4320   73.0660 N   0  0  0  0  0  0  0  0  0  0  0  0
  129.0170  128.4830   73.9350 C   0  0  0  0  0  0  0  0  0  0  0  0
  128.9670  128.0990   75.4290 C   0  0  0  0  0  0  0  0  0  0  0  0
  130.2600  127.7180   75.8720 O   0  0  0  0  0  0  0  0  0  0  0  0
  130.7460  126.5960   75.1540 C   0  0  0  0  0  0  0  0  0  0  0  0
  130.8460  126.9300   73.6500 C   0  0  0  0  0  0  0  0  0  0  0  0
  128.2490  127.0420   71.0710 C   0  0  0  0  0  0  0  0  0  0  0  0
  128.0830  127.0910   69.6900 C   0  0  0  0  0  0  0  0  0  0  0  0
  128.3250  128.7070   66.7350 C   0  0  0  0  0  0  0  0  0  0  0  0
  128.1700  128.7220   65.3440 C   0  0  0  0  0  0  0  0  0  0  0  0
  127.5620  129.9150   64.7040 C   0  0  0  0  0  0  0  0  0  0  0  0
  128.3430  131.0360   64.4160 C   0  0  0  0  0  0  0  0  0  0  0  0
  127.7790  132.1500   63.8010 C   0  0  0  0  0  0  0  0  0  0  0  0
  126.4180  132.1740   63.4580 C   0  0  0  0  0  0  0  0  0  0  0  0
  125.8340  133.2770   62.8290 N   0  0  0  0  0  0  0  0  0  0  0  0
  126.5380  133.9190   61.7010 C   0  0  0  0  0  0  0  0  0  0  0  0
  125.9950  135.3250   61.3660 C   0  0  0  0  0  0  0  0  0  0  0  0
  124.5990  135.2600   61.1150 O   0  0  0  0  0  0  0  0  0  0  0  0
  123.8860  134.7710   62.2400 C   0  0  0  0  0  0  0  0  0  0  0  0
  124.3780  133.3520   62.6030 C   0  0  0  0  0  0  0  0  0  0  0  0
  125.6480  131.0340   63.7330 C   0  0  0  0  0  0  0  0  0  0  0  0
  126.2110  129.9200   64.3490 C   0  0  0  0  0  0  0  0  0  0  0  0
  128.6110  127.5810   64.6150 C   0  0  0  0  0  0  0  0  0  0  0  0
  1  2  1  0
  2  3  2  0
  3  4  1  0
  4  5  2  0
  4  6  1  0
  6  7  1  0
  7  8  2  0
  8  9  1  0
  9 10  2  0
 10 11  1  0
  3 12  1  0
 12 13  1  0
 13 14  2  0
 14 15  1  0
 15 16  1  0
 16 17  2  0
 17 18  1  0
 18 19  2  0
 19 20  1  0
 20 21  1  0
 21 22  1  0
 22 23  1  0
 23 24  1  0
 24 25  1  0
 19 26  1  0
 26 27  2  0
 15 28  2  0
 28 29  1  0
 29 30  1  0
 30 31  2  0
 31 32  1  0
 32 33  2  0
 33 34  1  0
 34 35  1  0
 35 36  1  0
 36 37  1  0
 37 38  1  0
 38 39  1  0
 33 40  1  0
 40 41  2  0
 29 42  2  0
 42  2  1  0
 11  7  1  0
 42 13  1  0
 27 16  1  0
 41 30  1  0
 25 20  1  0
 39 34  1  0
M  END
>  <Binding energies>  (41) 
[-9.09]

>  <Ligand effiencies>  (41) 
[-0.20199999999999999]

>  <Interactions>  (41) 
["V-B:SER:385:CA:8378, V-A:TYR:539:CE1:4875, V-B:ILE:369:CG2:8208, V-B:LEU:475:CD2:9230, V-B:GLY:454:CA:9020, V-B:SER:385:CB:8380, V-A:TYR:539:CD1:4873, V-A:ALA:541:CB:4892, V-B:TYR:539:C:9839, V-A:GLU:543:CD:4908, V-B:TYR:539:CZ:9849, V-B:PRO:540:CA:9855, V-B:TYR:539:CE2:9848, V-B:PRO:540:N:9856, V-B:TYR:539:CD2:9846, V-B:TYR:539:CG:9844, V-B:GLU:543:CD:9880, V-B:HIS:456:CE1:9041, V-B:GLU:543:C:9874, V-A:HIS:456:CE1:4070, V-B:GLU:543:CG:9879, V-A:GLU:543:C:4902, V-B:GLU:543:CB:9878, V-A:GLU:543:CB:4906, V-A:GLY:544:C:4912, V-A:GLU:543:CG:4907, V-A:HIS:456:CD2:4068, H-A:LYS:547:NZ:4951, H-B:GLU:543:OE1:9881, V-B:SER:385:C:8376, H-A:GLU:543:OE1:4909"]

$$$$
RR11_Rahimova_2017
     RDKit          3D

 33 38  0  0  0  0  0  0  0  0999 V2000
  133.7990  121.1940   61.0270 N   0  0  0  0  0  0  0  0  0  0  0  0
  133.1010  122.0330   61.8930 C   0  0  0  0  0  0  0  0  0  0  0  0
  131.7070  122.0520   61.8670 C   0  0  0  0  0  0  0  0  0  0  0  0
  131.0110  122.8880   62.7340 C   0  0  0  0  0  0  0  0  0  0  0  0
  131.6990  123.7120   63.6350 C   0  0  0  0  0  0  0  0  0  0  0  0
  130.9460  124.6080   64.5730 C   0  0  0  0  0  0  0  0  0  0  0  0
  130.3310  125.7130   64.2120 N   0  0  0  0  0  0  0  0  0  0  0  0
  129.7700  126.2070   65.3610 C   0  0  0  0  0  0  0  0  0  0  0  0
  128.9970  127.3620   65.5440 C   0  0  0  0  0  0  0  0  0  0  0  0
  128.5180  127.6460   66.8280 C   0  0  0  0  0  0  0  0  0  0  0  0
  127.6790  128.8960   67.0580 C   0  0  0  0  0  0  0  0  0  0  0  0
  126.7020  129.1720   65.9250 C   0  0  0  0  0  0  0  0  0  0  0  0
  125.3320  129.2510   66.2010 C   0  0  0  0  0  0  0  0  0  0  0  0
  124.3970  129.5110   65.1970 C   0  0  0  0  0  0  0  0  0  0  0  0
  124.8660  129.6990   63.8900 C   0  0  0  0  0  0  0  0  0  0  0  0
  124.1610  129.9560   62.7430 N   0  0  0  0  0  0  0  0  0  0  0  0
  125.0660  130.0420   61.7910 C   0  0  0  0  0  0  0  0  0  0  0  0
  124.7550  130.3000   60.3450 C   0  0  0  0  0  0  0  0  0  0  0  0
  125.6900  129.9870   59.3500 C   0  0  0  0  0  0  0  0  0  0  0  0
  125.4060  130.2360   58.0100 C   0  0  0  0  0  0  0  0  0  0  0  0
  124.1830  130.8010   57.6550 C   0  0  0  0  0  0  0  0  0  0  0  0
  123.9000  131.0550   56.3130 N   0  0  0  0  0  0  0  0  0  0  0  0
  123.2430  131.1140   58.6320 C   0  0  0  0  0  0  0  0  0  0  0  0
  123.5280  130.8650   59.9720 C   0  0  0  0  0  0  0  0  0  0  0  0
  126.3440  129.8570   62.2750 N   0  0  0  0  0  0  0  0  0  0  0  0
  126.2550  129.6290   63.6280 C   0  0  0  0  0  0  0  0  0  0  0  0
  127.1960  129.3750   64.6290 C   0  0  0  0  0  0  0  0  0  0  0  0
  128.8280  126.8090   67.9060 C   0  0  0  0  0  0  0  0  0  0  0  0
  129.6010  125.6550   67.7580 C   0  0  0  0  0  0  0  0  0  0  0  0
  130.0580  125.3740   66.4680 C   0  0  0  0  0  0  0  0  0  0  0  0
  130.8160  124.3630   65.9250 N   0  0  0  0  0  0  0  0  0  0  0  0
  133.1000  123.6830   63.6500 C   0  0  0  0  0  0  0  0  0  0  0  0
  133.7990  122.8470   62.7840 C   0  0  0  0  0  0  0  0  0  0  0  0
  1  2  1  0
  2  3  2  0
  3  4  1  0
  4  5  2  0
  5  6  1  0
  6  7  2  0
  7  8  1  0
  8  9  2  0
  9 10  1  0
 10 11  1  0
 11 12  1  0
 12 13  2  0
 13 14  1  0
 14 15  2  0
 15 16  1  0
 16 17  2  0
 17 18  1  0
 18 19  2  0
 19 20  1  0
 20 21  2  0
 21 22  1  0
 21 23  1  0
 23 24  2  0
 17 25  1  0
 25 26  1  0
 26 27  2  0
 10 28  2  0
 28 29  1  0
 29 30  2  0
 30 31  1  0
  5 32  1  0
 32 33  2  0
 33  2  1  0
 31  6  1  0
 30  8  1  0
 27 12  1  0
 26 15  1  0
 24 18  1  0
M  END
>  <Binding energies>  (42) 
[-8.97]

>  <Ligand effiencies>  (42) 
[-0.23]

>  <Interactions>  (42) 
["V-B:ASP:366:CB:8183, V-B:ILE:369:CB:8207, V-A:TYR:539:CZ:4877, V-B:ILE:369:CG2:8208, V-B:ASP:366:CG:8184, V-B:ASP:366:CA:8181, V-A:GLY:454:CA:4049, V-A:GLU:543:CD:4908, V-A:ILE:369:CG2:3237, H-A:TYR:484:OH:4348, V-A:ILE:369:CD1:3239, V-A:TYR:484:CZ:4347, V-B:GLU:543:CD:9880, V-B:HIS:456:CE1:9041, V-A:HIS:456:CE1:4070, V-B:GLU:543:CG:9879, V-B:GLU:543:CB:9878, V-A:LEU:475:CD2:4259, V-A:TYR:484:CE2:4346, V-B:GLU:543:CA:9876, H-A:TYR:539:OH:4878, H-B:TYR:531:OH:9767, V-B:ASP:366:C:8179, V-B:TYR:531:CZ:9766, V-B:TYR:531:CE1:9764, V-B:ARG:545:CZ:9898, V-B:ASN:370:CB:8216, H-B:ASP:366:O:8180, V-B:TYR:484:CZ:9318, H-A:SER:385:OG:3410, V-B:ARG:545:CD:9895, V-B:ARG:545:CG:9894, H-B:ARG:545:NH2:9900, V-A:SER:385:CB:3409, H-A:SER:385:O:3406, V-A:SER:385:C:3405, V-A:SER:385:CA:3407"]

$$$$
RR16_Rahimova_2017
     RDKit          3D

 44 49  0  0  0  0  0  0  0  0999 V2000
  128.6680  122.4660   63.7920 O   0  0  0  0  0  0  0  0  0  0  0  0
  129.3460  122.1210   62.5370 S   0  0  0  0  0  0  0  0  0  0  0  0
  129.8120  120.7520   62.2850 O   0  0  0  0  0  0  0  0  0  0  0  0
  130.7230  123.2100   62.3590 N   0  0  0  0  0  0  0  0  0  0  0  0
  130.5260  124.6330   61.9960 C   0  0  0  0  0  0  0  0  0  0  0  0
  129.5120  125.2740   62.9790 C   0  0  0  0  0  0  0  0  0  0  0  0
  129.9190  125.3510   64.4640 C   0  0  0  0  0  0  0  0  0  0  0  0
  131.1020  124.4420   64.8360 C   0  0  0  0  0  0  0  0  0  0  0  0
  132.4980  124.9690   64.4560 C   0  0  0  0  0  0  0  0  0  0  0  0
  132.9250  124.8360   62.9810 C   0  0  0  0  0  0  0  0  0  0  0  0
  131.9120  125.3160   61.9240 C   0  0  0  0  0  0  0  0  0  0  0  0
  128.2410  122.5800   61.2070 C   0  0  0  0  0  0  0  0  0  0  0  0
  128.6110  122.3670   59.8770 C   0  0  0  0  0  0  0  0  0  0  0  0
  127.7970  122.8390   58.8520 C   0  0  0  0  0  0  0  0  0  0  0  0
  126.6180  123.5210   59.1590 C   0  0  0  0  0  0  0  0  0  0  0  0
  125.6420  124.2520   57.8470 S   0  0  0  0  0  0  0  0  0  0  0  0
  124.2860  124.4610   58.3720 O   0  0  0  0  0  0  0  0  0  0  0  0
  125.8530  123.4440   56.6390 O   0  0  0  0  0  0  0  0  0  0  0  0
  126.3880  125.8410   57.5850 N   0  0  0  0  0  0  0  0  0  0  0  0
  126.3750  126.7300   58.7760 C   0  0  0  0  0  0  0  0  0  0  0  0
  126.7490  128.1720   58.3770 C   0  0  0  0  0  0  0  0  0  0  0  0
  128.0870  128.2240   57.5970 C   0  0  0  0  0  0  0  0  0  0  0  0
  128.4530  129.6420   57.1510 C   0  0  0  0  0  0  0  0  0  0  0  0
  127.4830  130.4530   56.5450 C   0  0  0  0  0  0  0  0  0  0  0  0
  127.7700  131.7540   56.1300 C   0  0  0  0  0  0  0  0  0  0  0  0
  126.8070  132.5340   55.5440 O   0  0  0  0  0  0  0  0  0  0  0  0
  129.0690  132.2430   56.3360 C   0  0  0  0  0  0  0  0  0  0  0  0
  129.6250  133.4570   56.0550 N   0  0  0  0  0  0  0  0  0  0  0  0
  130.9320  133.4260   56.4900 N   0  0  0  0  0  0  0  0  0  0  0  0
  131.1860  132.1990   56.9870 N   0  0  0  0  0  0  0  0  0  0  0  0
  132.4760  131.9090   57.5990 C   0  0  0  0  0  0  0  0  0  0  0  0
  132.3900  131.7710   59.1120 C   0  0  0  0  0  0  0  0  0  0  0  0
  133.5520  131.5750   59.8660 C   0  0  0  0  0  0  0  0  0  0  0  0
  133.4790  131.4700   61.2560 C   0  0  0  0  0  0  0  0  0  0  0  0
  132.2440  131.5620   61.8990 C   0  0  0  0  0  0  0  0  0  0  0  0
  131.0820  131.7600   61.1530 C   0  0  0  0  0  0  0  0  0  0  0  0
  129.5540  131.8850   61.9460 Cl  0  0  0  0  0  0  0  0  0  0  0  0
  131.1540  131.8600   59.7620 C   0  0  0  0  0  0  0  0  0  0  0  0
  130.0450  131.4150   56.9400 C   0  0  0  0  0  0  0  0  0  0  0  0
  129.7590  130.1100   57.3530 C   0  0  0  0  0  0  0  0  0  0  0  0
  128.1300  127.1980   56.4340 C   0  0  0  0  0  0  0  0  0  0  0  0
  127.7010  125.7900   56.8920 C   0  0  0  0  0  0  0  0  0  0  0  0
  126.2280  123.6960   60.4890 C   0  0  0  0  0  0  0  0  0  0  0  0
  127.0430  123.2270   61.5140 C   0  0  0  0  0  0  0  0  0  0  0  0
  1  2  2  0
  2  3  2  0
  2  4  1  0
  4  5  1  0
  5  6  1  0
  6  7  1  0
  7  8  1  0
  8  9  1  0
  9 10  1  0
 10 11  1  0
  2 12  1  0
 12 13  2  0
 13 14  1  0
 14 15  2  0
 15 16  1  0
 16 17  2  0
 16 18  2  0
 16 19  1  0
 19 20  1  0
 20 21  1  0
 21 22  1  0
 22 23  1  0
 23 24  2  0
 24 25  1  0
 25 26  1  0
 25 27  2  0
 27 28  1  0
 28 29  2  0
 29 30  1  0
 30 31  1  0
 31 32  1  0
 32 33  2  0
 33 34  1  0
 34 35  2  0
 35 36  1  0
 36 37  1  0
 36 38  2  0
 30 39  1  0
 39 40  2  0
 22 41  1  0
 41 42  1  0
 15 43  1  0
 43 44  2  0
 11  5  1  0
 44 12  1  0
 42 19  1  0
 40 23  1  0
 39 27  1  0
 38 32  1  0
M  END
>  <Binding energies>  (43) 
[-10.34]

>  <Ligand effiencies>  (43) 
[-0.21541666666666667]

>  <Interactions>  (43) 
["V-A:TYR:539:CE1:4875, V-A:LEU:363:CD1:3189, V-A:TYR:539:CZ:4877, V-A:PRO:540:CA:4883, V-B:ASP:366:CG:8184, V-A:MET:535:CE:4835, V-A:PRO:540:CB:4885, V-B:TYR:539:C:9839, V-B:PRO:540:C:9853, V-B:PRO:540:CA:9855, V-B:TYR:539:CE2:9848, V-B:PRO:540:N:9856, V-A:ASP:366:CG:3213, V-B:PRO:540:CB:9857, V-B:TYR:539:CD2:9846, V-A:ARG:545:CZ:4926, V-B:GLU:543:CD:9880, V-B:GLU:543:CG:9879, V-B:ALA:541:CB:9864, V-A:LEU:475:CD2:4259, H-A:TYR:539:OH:4878, H-B:TYR:531:OH:9767, V-A:ASN:362:CB:3176, H-A:TYR:539:N:4870, V-A:LEU:363:CA:3185, V-A:ASN:362:C:3172, V-A:LEU:363:CB:3187"]

$$$$
RR18_Rahimova_2017
     RDKit          3D

 36 41  0  0  0  0  0  0  0  0999 V2000
  129.8550  126.2680   61.2750 C   0  0  0  0  0  0  0  0  0  0  0  0
  128.7160  127.2480   61.1450 C   0  0  0  0  0  0  0  0  0  0  0  0
  127.3730  127.1300   60.8240 C   0  0  0  0  0  0  0  0  0  0  0  0
  126.8340  128.4150   60.8700 C   0  0  0  0  0  0  0  0  0  0  0  0
  127.8660  129.2720   61.2180 C   0  0  0  0  0  0  0  0  0  0  0  0
  127.9600  130.7780   61.4450 C   0  0  1  0  0  0  0  0  0  0  0  0
  128.8420  131.1160   62.6840 C   0  0  0  0  0  0  0  0  0  0  0  0
  128.4200  130.7140   64.0230 C   0  0  0  0  0  0  0  0  0  0  0  0
  127.8940  131.5090   64.8040 O   0  0  0  0  0  0  0  0  0  0  0  0
  128.6420  129.4100   64.3060 N   0  0  0  0  0  0  0  0  0  0  0  0
  128.3900  128.6760   65.4850 C   0  0  0  0  0  0  0  0  0  0  0  0
  127.6920  129.1980   66.5890 C   0  0  0  0  0  0  0  0  0  0  0  0
  127.4820  128.4220   67.7270 C   0  0  0  0  0  0  0  0  0  0  0  0
  127.9690  127.1200   67.7850 C   0  0  0  0  0  0  0  0  0  0  0  0
  128.6730  126.5930   66.7040 C   0  0  0  0  0  0  0  0  0  0  0  0
  128.8900  127.3590   65.5540 C   0  0  0  0  0  0  0  0  0  0  0  0
  129.6710  126.7370   64.4000 C   0  0  0  0  0  0  0  0  0  0  0  0
  130.0530  131.6970   62.4780 C   0  0  0  0  0  0  0  0  0  0  0  0
  130.5150  132.1210   61.2690 N   0  0  0  0  0  0  0  0  0  0  0  0
  129.7500  132.0550   60.2430 C   0  0  0  0  0  0  0  0  0  0  0  0
  130.1480  132.6960   58.6660 S   0  0  0  0  0  0  0  0  0  0  0  0
  128.5640  132.1860   58.0020 C   0  0  0  0  0  0  0  0  0  0  0  0
  128.1050  132.3650   56.7140 C   0  0  0  0  0  0  0  0  0  0  0  0
  128.9090  133.1110   55.7360 C   0  0  0  0  0  0  0  0  0  0  0  0
  130.0190  133.6300   55.8540 O   0  0  0  0  0  0  0  0  0  0  0  0
  128.2030  133.1730   54.6030 N   0  0  0  0  0  0  0  0  0  0  0  0
  127.0110  132.5190   54.6840 C   0  0  0  0  0  0  0  0  0  0  0  0
  126.0450  132.3760   53.6880 C   0  0  0  0  0  0  0  0  0  0  0  0
  124.8990  131.6360   53.9650 C   0  0  0  0  0  0  0  0  0  0  0  0
  124.7430  131.0480   55.2190 C   0  0  0  0  0  0  0  0  0  0  0  0
  125.7250  131.2060   56.2000 C   0  0  0  0  0  0  0  0  0  0  0  0
  126.8800  131.9700   55.9480 C   0  0  0  0  0  0  0  0  0  0  0  0
  127.8080  131.5450   59.0780 C   0  0  0  0  0  0  0  0  0  0  0  0
  126.6600  131.1170   59.0080 O   0  0  0  0  0  0  0  0  0  0  0  0
  128.5200  131.4810   60.2360 N   0  0  0  0  0  0  0  0  0  0  0  0
  129.0090  128.5530   61.3820 O   0  0  0  0  0  0  0  0  0  0  0  0
  1  2  1  0
  2  3  2  0
  3  4  1  0
  4  5  2  0
  6  5  1  6
  6  7  1  0
  7  8  1  0
  8  9  2  0
  8 10  1  0
 10 11  1  0
 11 12  2  0
 12 13  1  0
 13 14  2  0
 14 15  1  0
 15 16  2  0
 16 17  1  0
  7 18  2  0
 18 19  1  0
 19 20  2  0
 20 21  1  0
 21 22  1  0
 22 23  2  0
 23 24  1  0
 24 25  2  0
 24 26  1  0
 26 27  1  0
 27 28  2  0
 28 29  1  0
 29 30  2  0
 30 31  1  0
 31 32  2  0
 22 33  1  0
 33 34  2  0
 33 35  1  0
  5 36  1  0
 36  2  1  0
 35  6  1  0
 16 11  1  0
 35 20  1  0
 32 23  1  0
 32 27  1  0
M  END
>  <Binding energies>  (44) 
[-8.75]

>  <Ligand effiencies>  (44) 
[-0.23026315789473684]

>  <Interactions>  (44) 
["H-A:ALA:541:N:4891, V-A:TYR:539:CE2:4876, V-A:TYR:539:CE1:4875, V-A:TYR:539:CZ:4877, V-A:PRO:540:CA:4883, V-A:ILE:538:CA:4860, V-A:MET:535:CE:4835, V-A:TYR:539:CD1:4873, V-A:PRO:540:N:4884, V-A:PRO:540:CB:4885, V-A:TYR:539:C:4867, V-A:GLU:543:CD:4908, V-A:TYR:539:CG:4872, V-B:GLU:543:CD:9880, V-B:HIS:456:CE1:9041, V-B:GLU:543:CG:9879, V-B:GLU:543:CB:9878, V-A:GLU:543:CG:4907, V-A:ILE:538:C:4858, H-A:TYR:539:N:4870, V-B:TYR:531:CZ:9766, V-A:TYR:539:CD2:4874, V-B:TYR:531:CE1:9764, H-A:GLU:543:OE1:4909, H-B:TYR:484:OH:9319, V-B:ASN:370:CB:8216, V-B:TYR:484:CZ:9318, V-B:TYR:531:CD1:9762, V-A:VAL:537:C:4850, H-A:GLU:543:OE2:4910, V-B:ASN:370:CG:8217, H-A:VAL:537:O:4851"]

$$$$
RR20_Rahimova_2017
     RDKit          3D

 38 43  0  0  0  0  0  0  0  0999 V2000
  133.4980  130.7840   58.3340 C   0  0  0  0  0  0  0  0  0  0  0  0
  132.1680  131.2360   57.7590 C   0  0  0  0  0  0  0  0  0  0  0  0
  131.9600  132.5840   57.4670 C   0  0  0  0  0  0  0  0  0  0  0  0
  130.7440  132.9990   56.9310 C   0  0  0  0  0  0  0  0  0  0  0  0
  129.7220  132.0720   56.6950 C   0  0  0  0  0  0  0  0  0  0  0  0
  128.4150  132.5410   56.0930 C   0  0  0  0  0  0  0  0  0  0  0  0
  128.4740  133.2970   55.1210 O   0  0  0  0  0  0  0  0  0  0  0  0
  127.2380  132.1070   56.6300 N   0  0  0  0  0  0  0  0  0  0  0  0
  126.2190  131.4300   55.8110 C   0  0  0  0  0  0  0  0  0  0  0  0
  125.1370  130.9650   56.7700 C   0  0  0  0  0  0  0  0  0  0  0  0
  125.8040  131.0800   58.1070 C   0  0  0  0  0  0  0  0  0  0  0  0
  125.3250  130.7100   59.3640 C   0  0  0  0  0  0  0  0  0  0  0  0
  126.0310  131.0480   60.5250 C   0  0  0  0  0  0  0  0  0  0  0  0
  125.5200  130.6410   61.8790 C   0  0  0  0  0  0  0  0  0  0  0  0
  126.3900  130.1960   62.7720 N   0  0  0  0  0  0  0  0  0  0  0  0
  125.8390  129.8900   63.9190 C   0  0  0  0  0  0  0  0  0  0  0  0
  126.4570  129.4050   65.0610 N   0  0  0  0  0  0  0  0  0  0  0  0
  127.5710  129.8970   65.6560 C   0  0  0  0  0  0  0  0  0  0  0  0
  128.1870  130.8860   65.2540 O   0  0  0  0  0  0  0  0  0  0  0  0
  128.0870  129.1900   66.9310 C   0  0  0  0  0  0  0  0  0  0  0  0
  128.9320  128.0170   66.6380 N   0  0  0  0  0  0  0  0  0  0  0  0
  128.6960  126.9070   67.5730 C   0  0  0  0  0  0  0  0  0  0  0  0
  129.7800  125.8200   67.3930 C   0  0  0  0  0  0  0  0  0  0  0  0
  130.0410  125.4740   65.9270 C   0  0  0  0  0  0  0  0  0  0  0  0
  130.7810  124.3390   65.5740 C   0  0  0  0  0  0  0  0  0  0  0  0
  131.0510  124.0450   64.2400 C   0  0  0  0  0  0  0  0  0  0  0  0
  130.5790  124.8860   63.2370 C   0  0  0  0  0  0  0  0  0  0  0  0
  129.8340  126.0140   63.5730 C   0  0  0  0  0  0  0  0  0  0  0  0
  129.5560  126.3210   64.9100 C   0  0  0  0  0  0  0  0  0  0  0  0
  128.6890  127.5270   65.2760 C   0  0  0  0  0  0  0  0  0  0  0  0
  124.1360  130.1290   63.9750 S   0  0  0  0  0  0  0  0  0  0  0  0
  124.1790  130.6760   62.3160 C   0  0  0  0  0  0  0  0  0  0  0  0
  122.9010  131.0590   61.6030 C   0  0  0  0  0  0  0  0  0  0  0  0
  127.2000  131.8150   60.3980 C   0  0  0  0  0  0  0  0  0  0  0  0
  127.6710  132.2040   59.1440 C   0  0  0  0  0  0  0  0  0  0  0  0
  127.0010  131.7860   57.9860 C   0  0  0  0  0  0  0  0  0  0  0  0
  129.9490  130.7160   56.9640 C   0  0  0  0  0  0  0  0  0  0  0  0
  131.1650  130.3000   57.4990 C   0  0  0  0  0  0  0  0  0  0  0  0
  1  2  1  0
  2  3  2  0
  3  4  1  0
  4  5  2  0
  5  6  1  0
  6  7  2  0
  6  8  1  0
  8  9  1  0
  9 10  1  0
 10 11  1  0
 11 12  2  0
 12 13  1  0
 13 14  1  0
 14 15  1  0
 15 16  2  0
 16 17  1  0
 17 18  1  0
 18 19  2  0
 18 20  1  0
 20 21  1  0
 21 22  1  0
 22 23  1  0
 23 24  1  0
 24 25  2  0
 25 26  1  0
 26 27  2  0
 27 28  1  0
 28 29  2  0
 29 30  1  0
 16 31  1  0
 31 32  1  0
 32 33  1  0
 13 34  2  0
 34 35  1  0
 35 36  2  0
  5 37  1  0
 37 38  2  0
 38  2  1  0
 36  8  1  0
 36 11  1  0
 32 14  2  0
 30 21  1  0
 29 24  1  0
M  END
>  <Binding energies>  (45) 
[-10.68]

>  <Ligand effiencies>  (45) 
[-0.27384615384615385]

>  <Interactions>  (45) 
["V-A:PRO:540:CD:4887, V-B:ILE:369:CG1:8209, V-A:TYR:539:CE2:4876, V-A:ILE:538:CB:4862, V-B:ILE:369:CB:8207, V-A:TYR:539:CE1:4875, V-A:LEU:363:CD1:3189, V-A:TYR:539:CZ:4877, V-A:PRO:540:CA:4883, V-B:ASP:366:CG:8184, V-A:ILE:538:CA:4860, V-B:GLY:454:CA:9020, V-A:MET:535:CE:4835, V-A:TYR:539:CD1:4873, V-A:PRO:540:N:4884, V-A:PRO:540:CB:4885, V-A:GLU:543:CD:4908, V-A:ASP:366:CB:3212, V-A:ASP:366:CG:3213, V-A:TYR:484:CZ:4347, V-B:GLU:543:CD:9880, V-B:HIS:456:CE1:9041, V-A:HIS:456:CE1:4070, V-B:GLU:543:CG:9879, V-B:GLU:543:CB:9878, V-A:TYR:484:CE2:4346, V-A:GLU:543:CB:4906, V-A:GLU:543:CG:4907, H-B:GLU:543:OE1:9881, H-B:GLU:543:OE2:9882, H-A:TYR:539:N:4870, V-B:TYR:531:CZ:9766, V-A:LEU:363:CA:3185, V-A:PRO:540:CG:4886, V-B:ARG:545:CZ:9898, H-B:TYR:484:OH:9319, V-B:TYR:484:CZ:9318, V-A:LEU:363:CB:3187"]

$$$$
RR21_Rahimova_2017
     RDKit          3D

 40 45  0  0  0  0  0  0  0  0999 V2000
  129.3320  122.8710   61.8570 C   0  0  0  0  0  0  0  0  0  0  0  0
  130.2330  123.9170   62.2070 O   0  0  0  0  0  0  0  0  0  0  0  0
  129.9230  124.7480   63.2670 C   0  0  0  0  0  0  0  0  0  0  0  0
  129.3750  126.0350   63.1280 C   0  0  0  0  0  0  0  0  0  0  0  0
  129.0890  126.8100   64.2510 C   0  0  0  0  0  0  0  0  0  0  0  0
  129.3370  126.3210   65.5380 C   0  0  0  0  0  0  0  0  0  0  0  0
  129.0240  127.1530   66.7430 C   0  0  0  0  0  0  0  0  0  0  0  0
  129.1450  126.6330   67.9490 N   0  0  0  0  0  0  0  0  0  0  0  0
  128.8040  127.5950   68.8200 N   0  0  0  0  0  0  0  0  0  0  0  0
  128.8440  127.3750   70.2210 C   0  0  0  0  0  0  0  0  0  0  0  0
  130.0140  127.6230   70.9540 C   0  0  0  0  0  0  0  0  0  0  0  0
  130.0390  127.4080   72.3290 C   0  0  0  0  0  0  0  0  0  0  0  0
  128.8960  126.9430   72.9760 C   0  0  0  0  0  0  0  0  0  0  0  0
  127.7290  126.6900   72.2600 C   0  0  0  0  0  0  0  0  0  0  0  0
  127.7010  126.9050   70.8850 C   0  0  0  0  0  0  0  0  0  0  0  0
  128.4780  128.7470   68.1490 C   0  0  0  0  0  0  0  0  0  0  0  0
  128.5940  128.4990   66.7890 C   0  0  0  0  0  0  0  0  0  0  0  0
  128.3970  129.4270   65.6860 C   0  0  0  0  0  0  0  0  0  0  0  0
  127.2390  129.7670   65.0750 C   0  0  0  0  0  0  0  0  0  0  0  0
  125.6010  129.1730   65.4300 S   0  0  0  0  0  0  0  0  0  0  0  0
  124.9640  130.2190   64.1680 C   0  0  0  0  0  0  0  0  0  0  0  0
  123.7270  130.3680   63.8090 N   0  0  0  0  0  0  0  0  0  0  0  0
  123.3410  131.2630   62.7730 C   0  0  0  0  0  0  0  0  0  0  0  0
  122.1920  131.4770   62.3880 O   0  0  0  0  0  0  0  0  0  0  0  0
  124.4950  131.9900   62.1370 C   0  0  0  0  0  0  0  0  0  0  0  0
  124.2030  132.9690   60.9930 C   0  0  0  0  0  0  0  0  0  0  0  0
  124.9670  134.2880   61.0820 C   0  0  0  0  0  0  0  0  0  0  0  0
  124.2840  135.5020   60.9650 C   0  0  0  0  0  0  0  0  0  0  0  0
  124.9790  136.7050   61.0640 C   0  0  0  0  0  0  0  0  0  0  0  0
  126.3580  136.6970   61.2830 C   0  0  0  0  0  0  0  0  0  0  0  0
  127.1080  138.0110   61.4020 C   0  0  0  0  0  0  0  0  0  0  0  0
  127.0410  135.4850   61.4120 C   0  0  0  0  0  0  0  0  0  0  0  0
  126.3460  134.2830   61.3120 C   0  0  0  0  0  0  0  0  0  0  0  0
  125.7240  131.8260   62.5030 N   0  0  0  0  0  0  0  0  0  0  0  0
  125.9610  130.9210   63.5450 N   0  0  0  0  0  0  0  0  0  0  0  0
  127.2310  130.7260   63.9790 C   0  0  0  0  0  0  0  0  0  0  0  0
  128.2290  131.2880   63.5130 O   0  0  0  0  0  0  0  0  0  0  0  0
  129.8890  125.0430   65.6770 C   0  0  0  0  0  0  0  0  0  0  0  0
  130.1770  124.2650   64.5550 C   0  0  0  0  0  0  0  0  0  0  0  0
  130.7090  123.0320   64.7240 F   0  0  0  0  0  0  0  0  0  0  0  0
  1  2  1  0
  2  3  1  0
  3  4  2  0
  4  5  1  0
  5  6  2  0
  6  7  1  0
  7  8  2  0
  8  9  1  0
  9 10  1  0
 10 11  2  0
 11 12  1  0
 12 13  2  0
 13 14  1  0
 14 15  2  0
  9 16  1  0
 16 17  2  0
 17 18  1  0
 18 19  2  0
 19 20  1  0
 20 21  1  0
 21 22  2  0
 22 23  1  0
 23 24  2  0
 23 25  1  0
 25 26  1  0
 26 27  1  0
 27 28  2  0
 28 29  1  0
 29 30  2  0
 30 31  1  0
 30 32  1  0
 32 33  2  0
 25 34  2  0
 34 35  1  0
 35 36  1  0
 36 37  2  0
  6 38  1  0
 38 39  2  0
 39 40  1  0
 39  3  1  0
 17  7  1  0
 36 19  1  0
 15 10  1  0
 35 21  1  0
 33 27  1  0
M  END
>  <Binding energies>  (46) 
[-10.08]

>  <Ligand effiencies>  (46) 
[-0.252]

>  <Interactions>  (46) 
["V-B:GLY:453:C:9013, V-B:SER:385:CA:8378, V-A:TYR:539:CE1:4875, V-B:ILE:369:CG2:8208, V-B:LEU:475:CD2:9230, V-B:GLY:454:CA:9020, V-B:SER:385:CB:8380, V-B:GLY:453:CA:9015, V-A:TYR:539:CD1:4873, V-A:TYR:539:C:4867, V-A:GLU:543:CD:4908, V-A:TYR:484:CZ:4347, V-B:GLU:543:CD:9880, V-B:HIS:456:CE1:9041, V-B:GLU:543:C:9874, V-A:HIS:456:CE1:4070, V-B:GLU:543:CG:9879, V-B:GLU:543:CB:9878, V-A:LEU:475:CD2:4259, V-A:TYR:484:CE2:4346, V-A:GLU:543:CB:4906, V-A:GLU:543:CG:4907, V-A:HIS:456:CD2:4068, V-B:GLY:544:CA:9886, V-B:LYS:547:CE:9922, V-B:GLY:544:C:9884, V-B:ARG:545:CZ:9898, H-B:GLY:454:N:9021, V-B:HIS:383:CE1:8364, V-A:TYR:539:CB:4871, H-B:ARG:545:NH2:9900"]

$$$$
RR23_Rahimova_2017
     RDKit          3D

 39 44  0  0  0  0  0  0  0  0999 V2000
  124.1740  124.0120   61.6830 C   0  0  0  0  0  0  0  0  0  0  0  0
  124.9710  123.8440   60.4030 C   0  0  0  0  0  0  0  0  0  0  0  0
  126.3280  123.5230   60.4620 C   0  0  0  0  0  0  0  0  0  0  0  0
  127.0570  123.3590   59.2870 C   0  0  0  0  0  0  0  0  0  0  0  0
  126.4370  123.5270   58.0430 C   0  0  0  0  0  0  0  0  0  0  0  0
  127.2410  123.3250   56.7780 C   0  0  0  0  0  0  0  0  0  0  0  0
  127.1010  122.2580   56.1770 O   0  0  0  0  0  0  0  0  0  0  0  0
  128.0700  124.3210   56.3440 N   0  0  0  0  0  0  0  0  0  0  0  0
  128.6270  124.3200   54.9820 C   0  0  0  0  0  0  0  0  0  0  0  0
  129.3670  125.6380   54.8220 C   0  0  0  0  0  0  0  0  0  0  0  0
  128.8550  126.4500   55.9740 C   0  0  0  0  0  0  0  0  0  0  0  0
  129.1140  127.7830   56.2920 C   0  0  0  0  0  0  0  0  0  0  0  0
  128.6660  128.3210   57.5090 C   0  0  0  0  0  0  0  0  0  0  0  0
  128.9290  129.7840   57.8990 C   0  0  2  0  0  0  0  0  0  0  0  0
  128.6680  130.0300   59.3010 N   0  0  0  0  0  0  0  0  0  0  0  0
  128.2460  131.2140   59.5030 C   0  0  0  0  0  0  0  0  0  0  0  0
  127.8780  131.7820   60.6830 N   0  0  0  0  0  0  0  0  0  0  0  0
  127.7370  131.1920   61.8940 C   0  0  0  0  0  0  0  0  0  0  0  0
  127.9670  130.0070   62.1450 O   0  0  0  0  0  0  0  0  0  0  0  0
  127.2420  132.1100   63.0250 C   0  0  0  0  0  0  0  0  0  0  0  0
  126.7510  133.3780   62.4400 N   0  0  0  0  0  0  0  0  0  0  0  0
  127.7270  134.3310   62.1770 N   0  0  0  0  0  0  0  0  0  0  0  0
  127.4270  135.4820   61.6660 N   0  0  0  0  0  0  0  0  0  0  0  0
  126.0970  135.7840   61.3670 C   0  0  0  0  0  0  0  0  0  0  0  0
  125.8080  137.0360   60.8180 C   0  0  0  0  0  0  0  0  0  0  0  0
  124.4880  137.3660   60.5090 C   0  0  0  0  0  0  0  0  0  0  0  0
  123.4590  136.4520   60.7460 C   0  0  0  0  0  0  0  0  0  0  0  0
  123.7470  135.2000   61.2950 C   0  0  0  0  0  0  0  0  0  0  0  0
  125.0710  134.8680   61.6040 C   0  0  0  0  0  0  0  0  0  0  0  0
  125.4020  133.5200   62.2010 C   0  0  0  0  0  0  0  0  0  0  0  0
  124.5580  132.6560   62.4560 O   0  0  0  0  0  0  0  0  0  0  0  0
  128.0960  132.2760   58.0740 S   0  0  0  0  0  0  0  0  0  0  0  0
  128.1940  130.8200   57.0180 C   0  0  2  0  0  0  0  0  0  0  0  0
  126.7730  130.4440   56.5470 C   0  0  0  0  0  0  0  0  0  0  0  0
  128.0010  127.4850   58.4130 C   0  0  0  0  0  0  0  0  0  0  0  0
  127.7610  126.1460   58.1040 C   0  0  0  0  0  0  0  0  0  0  0  0
  128.1390  125.6370   56.8540 C   0  0  0  0  0  0  0  0  0  0  0  0
  125.0680  123.8220   57.9910 C   0  0  0  0  0  0  0  0  0  0  0  0
  124.3400  123.9840   59.1660 C   0  0  0  0  0  0  0  0  0  0  0  0
  1  2  1  0
  2  3  2  0
  3  4  1  0
  4  5  2  0
  5  6  1  0
  6  7  2  0
  6  8  1  0
  8  9  1  0
  9 10  1  0
 10 11  1  0
 11 12  2  0
 12 13  1  0
 14 13  1  6
 14 15  1  0
 15 16  2  0
 16 17  1  0
 17 18  1  0
 18 19  2  0
 18 20  1  0
 20 21  1  0
 21 22  1  0
 22 23  2  0
 23 24  1  0
 24 25  2  0
 25 26  1  0
 26 27  2  0
 27 28  1  0
 28 29  2  0
 29 30  1  0
 30 31  2  0
 16 32  1  0
 32 33  1  0
 33 34  1  1
 13 35  2  0
 35 36  1  0
 36 37  2  0
  5 38  1  0
 38 39  2  0
 39  2  1  0
 37  8  1  0
 37 11  1  0
 33 14  1  0
 30 21  1  0
 29 24  1  0
M  END
>  <Binding energies>  (47) 
[-10.03]

>  <Ligand effiencies>  (47) 
[-0.25075]

>  <Interactions>  (47) 
["V-B:SER:385:CA:8378, V-A:TYR:539:CE1:4875, V-B:ILE:369:CG2:8208, V-B:LEU:475:CD2:9230, V-B:ASP:366:CG:8184, V-B:LEU:373:CD1:8251, V-A:MET:535:CE:4835, V-B:SER:385:CB:8380, V-A:TYR:539:CD1:4873, V-B:TYR:539:CZ:9849, V-B:PRO:540:CA:9855, V-B:PRO:540:N:9856, V-B:TYR:539:CE1:9847, V-B:PRO:540:CB:9857, V-B:MET:535:CG:9805, H-B:TYR:539:N:9842, V-A:TYR:539:CG:4872, V-B:LEU:363:CD1:8160, V-B:LEU:363:CA:8156, V-B:HIS:383:CD2:8363, V-B:ASN:362:C:8143, V-B:ASN:362:CB:8147, V-A:TYR:539:CB:4871, V-B:ASN:362:CA:8145"]

$$$$
RR26_Rahimova_2017
     RDKit          3D

 38 44  0  0  0  0  0  0  0  0999 V2000
  124.3480  123.9030   58.6390 C   0  0  0  0  0  0  0  0  0  0  0  0
  125.4740  123.3460   57.7780 C   0  0  0  0  0  0  0  0  0  0  0  0
  125.1390  122.7140   56.5750 C   0  0  0  0  0  0  0  0  0  0  0  0
  126.1300  122.2210   55.7300 C   0  0  0  0  0  0  0  0  0  0  0  0
  127.4700  122.3630   56.0760 C   0  0  0  0  0  0  0  0  0  0  0  0
  127.8170  122.9910   57.2710 C   0  0  0  0  0  0  0  0  0  0  0  0
  126.8320  123.4850   58.1390 C   0  0  0  0  0  0  0  0  0  0  0  0
  127.2910  124.1340   59.4130 C   0  0  0  0  0  0  0  0  0  0  0  0
  127.5710  123.4330   60.5080 N   0  0  0  0  0  0  0  0  0  0  0  0
  127.9320  124.3690   61.3440 C   0  0  0  0  0  0  0  0  0  0  0  0
  128.4560  124.4260   62.9860 S   0  0  0  0  0  0  0  0  0  0  0  0
  128.6070  126.2190   62.8510 C   0  0  0  0  0  0  0  0  0  0  0  0
  128.9950  127.0910   63.8080 C   0  0  0  0  0  0  0  0  0  0  0  0
  129.3930  126.8020   65.1770 C   0  0  0  0  0  0  0  0  0  0  0  0
  128.9400  127.3960   66.3440 C   0  0  0  0  0  0  0  0  0  0  0  0
  129.5580  126.7780   67.4010 N   0  0  0  0  0  0  0  0  0  0  0  0
  129.4040  127.0440   68.7860 C   0  0  0  0  0  0  0  0  0  0  0  0
  130.4370  127.6450   69.5210 C   0  0  0  0  0  0  0  0  0  0  0  0
  130.2730  127.8970   70.8810 C   0  0  0  0  0  0  0  0  0  0  0  0
  129.0790  127.5530   71.5080 C   0  0  0  0  0  0  0  0  0  0  0  0
  128.0450  126.9580   70.7890 C   0  0  0  0  0  0  0  0  0  0  0  0
  128.2060  126.7020   69.4300 C   0  0  0  0  0  0  0  0  0  0  0  0
  130.3630  125.7990   66.9600 N   0  0  0  0  0  0  0  0  0  0  0  0
  130.2790  125.8050   65.6450 C   0  0  0  0  0  0  0  0  0  0  0  0
  131.0760  124.8240   64.8420 C   0  0  0  0  0  0  0  0  0  0  0  0
  130.6790  123.4800   64.7650 C   0  0  0  0  0  0  0  0  0  0  0  0
  131.4170  122.5570   64.0220 C   0  0  0  0  0  0  0  0  0  0  0  0
  132.5640  122.9730   63.3490 C   0  0  0  0  0  0  0  0  0  0  0  0
  132.9610  124.3170   63.4030 C   0  0  0  0  0  0  0  0  0  0  0  0
  132.2250  125.2350   64.1500 C   0  0  0  0  0  0  0  0  0  0  0  0
  134.1140  124.7650   62.7880 O   0  0  0  0  0  0  0  0  0  0  0  0
  134.6060  123.8950   61.7640 C   0  0  0  0  0  0  0  0  0  0  0  0
  134.5710  122.4220   62.2380 C   0  0  0  0  0  0  0  0  0  0  0  0
  133.2370  122.0380   62.5880 O   0  0  0  0  0  0  0  0  0  0  0  0
  128.2360  126.7090   61.5270 C   0  0  0  0  0  0  0  0  0  0  0  0
  128.2210  127.8650   61.1020 O   0  0  0  0  0  0  0  0  0  0  0  0
  127.8780  125.5840   60.7680 N   0  0  0  0  0  0  0  0  0  0  0  0
  127.4650  125.4440   59.5050 N   0  0  0  0  0  0  0  0  0  0  0  0
  1  2  1  0
  2  3  2  0
  3  4  1  0
  4  5  2  0
  5  6  1  0
  6  7  2  0
  7  8  1  0
  8  9  1  0
  9 10  2  0
 10 11  1  0
 11 12  1  0
 12 13  2  0
 13 14  1  0
 14 15  2  0
 15 16  1  0
 16 17  1  0
 17 18  2  0
 18 19  1  0
 19 20  2  0
 20 21  1  0
 21 22  2  0
 16 23  1  0
 23 24  2  0
 24 25  1  0
 25 26  2  0
 26 27  1  0
 27 28  2  0
 28 29  1  0
 29 30  2  0
 29 31  1  0
 31 32  1  0
 32 33  1  0
 33 34  1  0
 12 35  1  0
 35 36  2  0
 35 37  1  0
 37 38  1  0
  7  2  1  0
 38  8  2  0
 37 10  1  0
 24 14  1  0
 30 25  1  0
 22 17  1  0
 34 28  1  0
M  END
>  <Binding energies>  (48) 
[-9.59]

>  <Ligand effiencies>  (48) 
[-0.2523684210526316]

>  <Interactions>  (48) 
["V-A:GLY:454:CA:4049, V-A:GLY:453:C:4042, V-A:GLU:543:CD:4908, V-B:TYR:539:CZ:9849, V-B:PRO:540:CA:9855, V-B:TYR:539:CE2:9848, H-A:GLY:454:N:4050, V-B:PRO:540:N:9856, V-B:TYR:539:CE1:9847, V-A:ILE:369:CD1:3239, V-B:PRO:540:CB:9857, V-B:TYR:539:CD2:9846, V-B:TYR:539:CD1:9845, V-A:ARG:545:CZ:4926, V-B:TYR:539:CG:9844, V-A:TYR:484:CZ:4347, V-B:GLU:543:CD:9880, V-B:HIS:456:CE1:9041, V-B:GLU:543:C:9874, V-A:HIS:456:CE1:4070, V-B:GLU:543:CG:9879, V-A:GLU:543:C:4902, V-B:GLU:543:CB:9878, V-A:LEU:475:CD2:4259, V-A:TYR:484:CE2:4346, V-A:GLU:543:CB:4906, V-A:GLY:544:C:4912, V-B:MET:535:CE:9807, V-B:PRO:540:CD:9859, V-B:LEU:363:CD1:8160, V-B:ILE:538:CG2:9835, V-B:LEU:363:CA:8156, H-A:ARG:545:NH2:4928, V-B:LEU:363:CB:8158, V-B:ILE:538:CA:9832, V-B:ILE:538:C:9830, V-B:TYR:539:CA:9841, H-A:ARG:545:NH1:4927, V-B:ILE:538:CB:9834"]

$$$$
RR2_Rahimova_2017
     RDKit          3D

 46 50  0  0  0  0  0  0  0  0999 V2000
  122.9760  131.7920   62.2250 C   0  0  0  0  0  0  0  0  0  0  0  0
  124.1280  131.9840   61.4120 O   0  0  0  0  0  0  0  0  0  0  0  0
  124.6610  130.9040   60.7320 C   0  0  0  0  0  0  0  0  0  0  0  0
  125.4050  129.8800   61.3340 C   0  0  0  0  0  0  0  0  0  0  0  0
  125.9070  128.8320   60.5670 C   0  0  0  0  0  0  0  0  0  0  0  0
  125.6800  128.7840   59.1840 C   0  0  0  0  0  0  0  0  0  0  0  0
  126.2430  127.6350   58.3700 C   0  0  0  0  0  0  0  0  0  0  0  0
  127.2130  127.8150   57.6270 O   0  0  0  0  0  0  0  0  0  0  0  0
  125.6100  126.4470   58.5100 N   0  0  0  0  0  0  0  0  0  0  0  0
  126.0270  125.3840   57.7170 N   0  0  0  0  0  0  0  0  0  0  0  0
  125.3070  124.2440   57.7480 C   0  0  0  0  0  0  0  0  0  0  0  0
  124.4070  124.0000   58.5570 O   0  0  0  0  0  0  0  0  0  0  0  0
  125.6530  123.2140   56.6640 C   0  0  0  0  0  0  0  0  0  0  0  0
  127.4140  122.7180   56.6010 S   0  0  0  0  0  0  0  0  0  0  0  0
  128.2010  124.2800   56.8520 C   0  0  0  0  0  0  0  0  0  0  0  0
  128.5130  125.0880   55.8700 N   0  0  0  0  0  0  0  0  0  0  0  0
  129.1770  126.1750   56.4190 N   0  0  0  0  0  0  0  0  0  0  0  0
  129.2140  125.9990   57.7190 C   0  0  0  0  0  0  0  0  0  0  0  0
  129.8380  126.9750   58.6630 C   0  0  0  0  0  0  0  0  0  0  0  0
  130.8060  127.8690   58.1990 C   0  0  0  0  0  0  0  0  0  0  0  0
  131.3980  128.7770   59.0720 C   0  0  0  0  0  0  0  0  0  0  0  0
  131.0130  128.8110   60.4170 C   0  0  0  0  0  0  0  0  0  0  0  0
  131.5830  129.6960   61.3440 N   0  0  0  0  0  0  0  0  0  0  0  0
  131.9570  131.4030   61.0160 S   0  0  0  0  0  0  0  0  0  0  0  0
  133.3390  131.4260   60.5250 O   0  0  0  0  0  0  0  0  0  0  0  0
  131.5620  132.1900   62.1910 O   0  0  0  0  0  0  0  0  0  0  0  0
  130.9100  131.8540   59.6340 C   0  0  0  0  0  0  0  0  0  0  0  0
  129.5290  131.9820   59.7990 C   0  0  0  0  0  0  0  0  0  0  0  0
  128.7320  132.3190   58.7090 C   0  0  0  0  0  0  0  0  0  0  0  0
  129.3140  132.5330   57.4570 C   0  0  0  0  0  0  0  0  0  0  0  0
  128.4410  132.8850   56.2660 C   0  0  0  0  0  0  0  0  0  0  0  0
  130.6950  132.4000   57.2950 C   0  0  0  0  0  0  0  0  0  0  0  0
  131.4930  132.0630   58.3830 C   0  0  0  0  0  0  0  0  0  0  0  0
  130.0440  127.9200   60.8790 C   0  0  0  0  0  0  0  0  0  0  0  0
  129.4560  127.0070   60.0080 C   0  0  0  0  0  0  0  0  0  0  0  0
  128.6100  124.8010   58.0650 N   0  0  0  0  0  0  0  0  0  0  0  0
  128.4810  124.2220   59.3450 C   0  0  0  0  0  0  0  0  0  0  0  0
  127.3870  124.5460   60.1490 C   0  0  0  0  0  0  0  0  0  0  0  0
  127.2630  123.9670   61.4080 C   0  0  0  0  0  0  0  0  0  0  0  0
  128.2230  123.0680   61.8750 C   0  0  0  0  0  0  0  0  0  0  0  0
  128.0150  122.5480   63.1380 O   0  0  0  0  0  0  0  0  0  0  0  0
  129.0660  122.6060   64.0970 C   0  0  0  0  0  0  0  0  0  0  0  0
  129.3210  122.7490   61.0590 C   0  0  0  0  0  0  0  0  0  0  0  0
  129.4490  123.3230   59.7980 C   0  0  0  0  0  0  0  0  0  0  0  0
  124.9290  129.8100   58.5900 C   0  0  0  0  0  0  0  0  0  0  0  0
  124.4270  130.8560   59.3590 C   0  0  0  0  0  0  0  0  0  0  0  0
  1  2  1  0
  2  3  1  0
  3  4  2  0
  4  5  1  0
  5  6  2  0
  6  7  1  0
  7  8  2  0
  7  9  1  0
  9 10  1  0
 10 11  1  0
 11 12  2  0
 11 13  1  0
 13 14  1  0
 14 15  1  0
 15 16  2  0
 16 17  1  0
 17 18  2  0
 18 19  1  0
 19 20  2  0
 20 21  1  0
 21 22  2  0
 22 23  1  0
 23 24  1  0
 24 25  2  0
 24 26  2  0
 24 27  1  0
 27 28  2  0
 28 29  1  0
 29 30  2  0
 30 31  1  0
 30 32  1  0
 32 33  2  0
 22 34  1  0
 34 35  2  0
 18 36  1  0
 36 37  1  0
 37 38  2  0
 38 39  1  0
 39 40  2  0
 40 41  1  0
 41 42  1  0
 40 43  1  0
 43 44  2  0
  6 45  1  0
 45 46  2  0
 46  3  1  0
 36 15  1  0
 44 37  1  0
 35 19  1  0
 33 27  1  0
M  END
>  <Binding energies>  (49) 
[-9.99]

>  <Ligand effiencies>  (49) 
[-0.20387755102040817]

>  <Interactions>  (49) 
["V-B:ILE:369:CG1:8209, H-A:ALA:541:N:4891, V-A:TYR:539:CE2:4876, H-A:TYR:531:OH:4795, V-B:GLY:453:C:9013, V-B:ASP:366:CB:8183, V-A:TYR:539:CE1:4875, V-A:TYR:539:CZ:4877, V-A:PRO:540:CA:4883, V-B:ASP:366:CG:8184, V-B:GLY:454:CA:9020, V-A:MET:535:CE:4835, V-B:ASP:366:CA:8181, V-A:TYR:539:CD1:4873, V-A:PRO:540:N:4884, V-A:PRO:540:CB:4885, V-A:GLU:543:CD:4908, V-B:TYR:539:CZ:9849, V-B:TYR:539:CE2:9848, V-A:ASP:366:CB:3212, V-B:TYR:539:CE1:9847, V-A:ASP:366:CG:3213, H-B:TYR:539:OH:9850, V-B:TYR:539:CD2:9846, H-B:TYR:539:N:9842, V-A:TYR:539:CG:4872, V-B:GLU:543:CD:9880, H-B:ALA:541:N:9863, V-B:GLU:543:CG:9879, V-B:ALA:541:CB:9864, V-B:MET:535:CE:9807, H-B:ASP:366:OD1:8185, H-B:TYR:531:OH:9767, V-B:LEU:363:CD1:8160, V-A:TYR:539:CD2:4874, H-A:GLU:543:OE1:4909, H-B:MET:535:SD:9806, H-A:ASP:366:OD2:3215"]

$$$$
RR33_Rahimova_2017
     RDKit          3D

 18 19  0  0  0  0  0  0  0  0999 V2000
  127.3650  139.2390   62.8790 C   0  0  0  0  0  0  0  0  0  0  0  0
  127.8030  138.3120   61.7420 C   0  0  0  0  0  0  0  0  0  0  0  0
  126.6550  137.9460   60.9810 O   0  0  0  0  0  0  0  0  0  0  0  0
  125.9860  136.7760   61.2830 C   0  0  0  0  0  0  0  0  0  0  0  0
  126.7590  135.6180   61.3520 C   0  0  0  0  0  0  0  0  0  0  0  0
  126.1720  134.3900   61.6470 C   0  0  0  0  0  0  0  0  0  0  0  0
  124.7970  134.3040   61.8790 C   0  0  0  0  0  0  0  0  0  0  0  0
  124.1670  132.9850   62.1950 C   0  0  0  0  0  0  0  0  0  0  0  0
  124.5450  132.1120   63.1020 N   0  0  0  0  0  0  0  0  0  0  0  0
  123.6820  131.1120   63.0060 C   0  0  0  0  0  0  0  0  0  0  0  0
  123.7870  129.9040   63.9120 C   0  0  0  0  0  0  0  0  0  0  0  0
  124.5100  130.2380   65.1310 N   0  0  0  0  0  0  0  0  0  0  0  0
  123.7290  129.8810   66.3040 C   0  0  0  0  0  0  0  0  0  0  0  0
  122.7550  131.3900   62.0090 C   0  0  0  0  0  0  0  0  0  0  0  0
  121.5550  130.6810   61.4320 C   0  0  0  0  0  0  0  0  0  0  0  0
  123.0730  132.5980   61.4890 O   0  0  0  0  0  0  0  0  0  0  0  0
  124.0180  135.4630   61.8160 C   0  0  0  0  0  0  0  0  0  0  0  0
  124.6050  136.6920   61.5200 C   0  0  0  0  0  0  0  0  0  0  0  0
  1  2  1  0
  2  3  1  0
  3  4  1  0
  4  5  2  0
  5  6  1  0
  6  7  2  0
  7  8  1  0
  8  9  2  0
  9 10  1  0
 10 11  1  0
 11 12  1  0
 12 13  1  0
 10 14  2  0
 14 15  1  0
 14 16  1  0
  7 17  1  0
 17 18  2  0
 18  4  1  0
 16  8  1  0
M  END
>  <Binding energies>  (50) 
[-5.93]

>  <Ligand effiencies>  (50) 
[-0.3121052631578947]

>  <Interactions>  (50) 
["V-B:ILE:369:CG1:8209, V-B:GLY:453:C:9013, V-B:SER:385:CA:8378, V-B:ILE:369:CB:8207, V-B:ILE:369:CG2:8208, V-B:LEU:475:CD2:9230, V-B:ASP:366:CG:8184, V-B:GLY:454:CA:9020, V-B:SER:385:CB:8380, V-B:ASP:366:CA:8181, V-B:GLY:453:CA:9015, V-A:TYR:539:CD1:4873, V-B:ARG:545:CZ:9898, H-B:TYR:484:OH:9319, H-B:GLY:454:N:9021, V-B:LEU:475:CG:9228, V-A:VAL:344:CG1:3001, V-B:HIS:383:CE1:8364, V-B:PRO:482:CB:9297, V-B:LEU:475:CD1:9229, V-B:TYR:484:CZ:9318, V-B:ARG:545:CD:9895, V-B:ARG:545:CG:9894, H-B:HIS:383:NE2:8365, V-B:CYS:365:C:8175, V-B:GLY:454:C:9018"]

$$$$
RR3_Rahimova_2017
     RDKit          3D

 38 44  0  0  0  0  0  0  0  0999 V2000
  129.5020  126.7830   72.2130 C   0  0  0  0  0  0  0  0  0  0  0  0
  128.2720  126.5360   71.6100 C   0  0  0  0  0  0  0  0  0  0  0  0
  128.0050  127.0590   70.3480 C   0  0  0  0  0  0  0  0  0  0  0  0
  128.9610  127.8320   69.6720 C   0  0  0  0  0  0  0  0  0  0  0  0
  128.6730  128.3920   68.3140 C   0  0  0  0  0  0  0  0  0  0  0  0
  128.5500  127.5520   67.2000 C   0  0  0  0  0  0  0  0  0  0  0  0
  128.2860  128.0740   65.9360 C   0  0  0  0  0  0  0  0  0  0  0  0
  128.1460  129.4530   65.7580 C   0  0  0  0  0  0  0  0  0  0  0  0
  127.8670  130.0210   64.4010 C   0  0  0  0  0  0  0  0  0  0  0  0
  127.5220  131.2980   64.2740 N   0  0  0  0  0  0  0  0  0  0  0  0
  127.3870  131.5220   62.9890 C   0  0  0  0  0  0  0  0  0  0  0  0
  127.0140  132.8030   62.3930 C   0  0  0  0  0  0  0  0  0  0  0  0
  127.8790  133.6960   61.7850 C   0  0  0  0  0  0  0  0  0  0  0  0
  127.1880  134.7890   61.3300 N   0  0  0  0  0  0  0  0  0  0  0  0
  125.8490  134.6520   61.6250 C   0  0  0  0  0  0  0  0  0  0  0  0
  124.7660  135.4990   61.3640 C   0  0  0  0  0  0  0  0  0  0  0  0
  123.5110  135.0720   61.7970 C   0  0  0  0  0  0  0  0  0  0  0  0
  123.3350  133.8620   62.4590 C   0  0  0  0  0  0  0  0  0  0  0  0
  124.4140  133.0180   62.7180 C   0  0  0  0  0  0  0  0  0  0  0  0
  125.7020  133.4010   62.3030 C   0  0  0  0  0  0  0  0  0  0  0  0
  127.6360  130.3890   62.2650 N   0  0  0  0  0  0  0  0  0  0  0  0
  127.9290  129.3840   63.1500 C   0  0  0  0  0  0  0  0  0  0  0  0
  128.1980  127.9790   62.7210 C   0  0  0  0  0  0  0  0  0  0  0  0
  127.3410  127.3450   61.8210 C   0  0  0  0  0  0  0  0  0  0  0  0
  127.5810  126.0320   61.4290 C   0  0  0  0  0  0  0  0  0  0  0  0
  128.6850  125.3230   61.9230 C   0  0  0  0  0  0  0  0  0  0  0  0
  128.9300  123.9040   61.5150 C   0  0  0  0  0  0  0  0  0  0  0  0
  129.6150  123.0200   62.3610 C   0  0  0  0  0  0  0  0  0  0  0  0
  129.8390  121.6980   61.9820 C   0  0  0  0  0  0  0  0  0  0  0  0
  129.3770  121.2460   60.7500 C   0  0  0  0  0  0  0  0  0  0  0  0
  128.6940  122.1050   59.8960 C   0  0  0  0  0  0  0  0  0  0  0  0
  128.4730  123.4260   60.2770 C   0  0  0  0  0  0  0  0  0  0  0  0
  129.5490  125.9770   62.8130 C   0  0  0  0  0  0  0  0  0  0  0  0
  129.3120  127.2900   63.2080 C   0  0  0  0  0  0  0  0  0  0  0  0
  128.2530  130.2970   66.8640 C   0  0  0  0  0  0  0  0  0  0  0  0
  128.5180  129.7720   68.1260 C   0  0  0  0  0  0  0  0  0  0  0  0
  130.1930  128.0680   70.2990 C   0  0  0  0  0  0  0  0  0  0  0  0
  130.4650  127.5470   71.5610 C   0  0  0  0  0  0  0  0  0  0  0  0
  1  2  2  0
  2  3  1  0
  3  4  2  0
  4  5  1  0
  5  6  2  0
  6  7  1  0
  7  8  2  0
  8  9  1  0
  9 10  1  0
 10 11  2  0
 11 12  1  0
 12 13  2  0
 13 14  1  0
 14 15  1  0
 15 16  2  0
 16 17  1  0
 17 18  2  0
 18 19  1  0
 19 20  2  0
 11 21  1  0
 21 22  1  0
 22 23  1  0
 23 24  2  0
 24 25  1  0
 25 26  2  0
 26 27  1  0
 27 28  2  0
 28 29  1  0
 29 30  2  0
 30 31  1  0
 31 32  2  0
 26 33  1  0
 33 34  2  0
  8 35  1  0
 35 36  2  0
  4 37  1  0
 37 38  2  0
 38  1  1  0
 36  5  1  0
 22  9  2  0
 34 23  1  0
 20 12  1  0
 32 27  1  0
 20 15  1  0
M  END
>  <Binding energies>  (51) 
[-9.84]

>  <Ligand effiencies>  (51) 
[-0.246]

>  <Interactions>  (51) 
["V-B:SER:385:CA:8378, V-A:TYR:539:CE1:4875, V-B:ILE:369:CG2:8208, V-B:LEU:475:CD2:9230, V-B:GLY:454:CA:9020, V-B:SER:385:CB:8380, V-A:TYR:539:CD1:4873, V-A:ALA:541:CB:4892, V-A:TYR:539:C:4867, V-B:TYR:539:C:9839, V-B:PRO:540:C:9853, V-A:GLU:543:CD:4908, V-B:PRO:540:CA:9855, V-B:TYR:539:CE2:9848, V-B:PRO:540:N:9856, V-B:TYR:539:CD2:9846, V-B:GLU:543:CD:9880, V-B:HIS:456:CE1:9041, V-B:GLU:543:C:9874, V-A:HIS:456:CE1:4070, V-B:ALA:541:CB:9864, V-A:GLU:543:C:4902, V-B:GLU:543:CB:9878, V-A:LEU:475:CD2:4259, V-A:GLU:543:CB:4906, V-A:GLY:544:C:4912, V-A:GLU:543:CA:4904, V-A:GLU:543:CG:4907, V-A:HIS:456:CD2:4068, V-B:SER:385:C:8376, H-B:TYR:484:OH:9319, H-A:TYR:539:O:4868, V-B:TYR:484:CZ:9318, V-B:TYR:484:CE2:9317"]

$$$$
RR4_Rahimova_2017
     RDKit          3D

 40 44  0  0  0  0  0  0  0  0999 V2000
  128.0650  128.5240   74.3100 C   0  0  0  0  0  0  0  0  0  0  0  0
  128.6170  127.3790   73.6710 O   0  0  0  0  0  0  0  0  0  0  0  0
  128.6110  127.3080   72.2910 C   0  0  0  0  0  0  0  0  0  0  0  0
  129.8140  127.5870   71.6460 C   0  0  0  0  0  0  0  0  0  0  0  0
  129.9020  127.5390   70.2580 C   0  0  0  0  0  0  0  0  0  0  0  0
  128.7870  127.2130   69.4720 C   0  0  0  0  0  0  0  0  0  0  0  0
  128.8850  127.1630   67.9740 C   0  0  0  0  0  0  0  0  0  0  0  0
  129.6670  126.2210   67.2970 C   0  0  0  0  0  0  0  0  0  0  0  0
  129.7230  126.2120   65.8980 C   0  0  0  0  0  0  0  0  0  0  0  0
  130.5560  125.1590   65.2440 C   0  0  0  0  0  0  0  0  0  0  0  0
  131.9000  125.4080   64.9500 C   0  0  0  0  0  0  0  0  0  0  0  0
  132.6870  124.4280   64.3520 C   0  0  0  0  0  0  0  0  0  0  0  0
  132.1490  123.1800   64.0410 C   0  0  0  0  0  0  0  0  0  0  0  0
  133.0040  122.2700   63.4490 O   0  0  0  0  0  0  0  0  0  0  0  0
  133.7240  122.6510   62.2810 C   0  0  0  0  0  0  0  0  0  0  0  0
  130.8020  122.9230   64.3380 C   0  0  0  0  0  0  0  0  0  0  0  0
  130.0170  123.9050   64.9370 C   0  0  0  0  0  0  0  0  0  0  0  0
  128.9930  127.1970   65.1870 C   0  0  0  0  0  0  0  0  0  0  0  0
  129.0160  127.2330   63.7220 C   0  0  0  0  0  0  0  0  0  0  0  0
  129.0340  127.2620   62.5650 N   0  0  0  0  0  0  0  0  0  0  0  0
  128.2480  128.1370   65.9360 C   0  0  0  0  0  0  0  0  0  0  0  0
  127.2850  129.4480   65.2130 S   0  0  0  0  0  0  0  0  0  0  0  0
  128.4330  130.7810   64.7310 C   0  0  0  0  0  0  0  0  0  0  0  0
  128.3370  131.2030   63.2580 C   0  0  0  0  0  0  0  0  0  0  0  0
  127.2550  131.5460   62.7740 O   0  0  0  0  0  0  0  0  0  0  0  0
  129.5040  131.1460   62.5760 N   0  0  0  0  0  0  0  0  0  0  0  0
  129.7430  131.4650   61.2370 C   0  0  0  0  0  0  0  0  0  0  0  0
  128.4650  131.7760   60.0920 S   0  0  0  0  0  0  0  0  0  0  0  0
  129.6040  132.0490   58.8100 C   0  0  0  0  0  0  0  0  0  0  0  0
  130.9270  131.8990   59.2540 C   0  0  0  0  0  0  0  0  0  0  0  0
  131.0040  131.5840   60.6320 C   0  0  0  0  0  0  0  0  0  0  0  0
  132.2640  131.3950   61.3440 C   0  0  0  0  0  0  0  0  0  0  0  0
  133.2640  131.2440   61.9080 N   0  0  0  0  0  0  0  0  0  0  0  0
  132.1190  132.1270   58.3160 C   0  0  0  0  0  0  0  0  0  0  0  0
  131.6770  132.8920   57.0490 C   0  0  0  0  0  0  0  0  0  0  0  0
  130.3810  132.3200   56.4470 C   0  0  0  0  0  0  0  0  0  0  0  0
  129.1820  132.4680   57.4070 C   0  0  0  0  0  0  0  0  0  0  0  0
  128.1860  128.1020   67.2880 N   0  0  0  0  0  0  0  0  0  0  0  0
  127.5800  126.9300   70.1320 C   0  0  0  0  0  0  0  0  0  0  0  0
  127.4880  126.9770   71.5200 C   0  0  0  0  0  0  0  0  0  0  0  0
  1  2  1  0
  2  3  1  0
  3  4  2  0
  4  5  1  0
  5  6  2  0
  6  7  1  0
  7  8  2  0
  8  9  1  0
  9 10  1  0
 10 11  2  0
 11 12  1  0
 12 13  2  0
 13 14  1  0
 14 15  1  0
 13 16  1  0
 16 17  2  0
  9 18  2  0
 18 19  1  0
 19 20  3  0
 18 21  1  0
 21 22  1  0
 22 23  1  0
 23 24  1  0
 24 25  2  0
 24 26  1  0
 26 27  1  0
 27 28  1  0
 28 29  1  0
 29 30  2  0
 30 31  1  0
 31 32  1  0
 32 33  3  0
 30 34  1  0
 34 35  1  0
 35 36  1  0
 36 37  1  0
 21 38  2  0
  6 39  1  0
 39 40  2  0
 40  3  1  0
 38  7  1  0
 17 10  1  0
 31 27  2  0
 37 29  1  0
M  END
>  <Binding energies>  (52) 
[-10.96]

>  <Ligand effiencies>  (52) 
[-0.2673170731707317]

>  <Interactions>  (52) 
["V-A:PRO:540:CD:4887, V-A:ILE:538:CB:4862, V-A:LEU:363:CD1:3189, V-A:PRO:540:CA:4883, V-A:MET:535:CE:4835, V-A:PRO:540:N:4884, V-A:PRO:540:CB:4885, V-A:GLY:454:CA:4049, V-A:GLU:543:CD:4908, H-A:GLY:454:N:4050, H-A:TYR:484:OH:4348, V-A:ILE:369:CD1:3239, V-A:ARG:545:CZ:4926, V-A:TYR:484:CZ:4347, V-B:GLU:543:CD:9880, V-B:HIS:456:CE1:9041, V-B:GLU:543:C:9874, V-A:HIS:456:CE1:4070, V-B:GLU:543:CG:9879, V-B:GLU:543:CB:9878, V-A:LEU:475:CD2:4259, V-A:TYR:484:CE2:4346, V-B:HIS:456:CD2:9039, V-A:GLU:543:CG:4907, H-B:LYS:547:NZ:9923, V-B:GLY:544:CA:9886, V-B:GLY:544:C:9884, H-A:GLU:543:OE1:4909, H-B:TYR:484:OH:9319, H-A:ARG:545:NH2:4928"]

$$$$
RR6_Rahimova_2017
     RDKit          3D

 38 41  0  0  0  0  0  0  0  0999 V2000
  128.3840  132.9210   55.7240 C   0  0  0  0  0  0  0  0  0  0  0  0
  128.8680  133.5600   56.8970 O   0  0  0  0  0  0  0  0  0  0  0  0
  130.0540  133.1990   57.4500 C   0  0  0  0  0  0  0  0  0  0  0  0
  131.1380  133.3080   56.8680 O   0  0  0  0  0  0  0  0  0  0  0  0
  129.9180  132.6530   58.8430 C   0  0  0  0  0  0  0  0  0  0  0  0
  130.7680  131.6520   59.3350 C   0  0  0  0  0  0  0  0  0  0  0  0
  130.6120  131.1600   60.6290 C   0  0  0  0  0  0  0  0  0  0  0  0
  129.5940  131.6630   61.4540 C   0  0  0  0  0  0  0  0  0  0  0  0
  129.3300  131.2190   62.7630 N   0  0  0  0  0  0  0  0  0  0  0  0
  128.1730  131.2480   63.4600 C   0  0  0  0  0  0  0  0  0  0  0  0
  127.0980  131.6780   63.0410 O   0  0  0  0  0  0  0  0  0  0  0  0
  128.2590  130.7510   64.9070 C   0  0  0  0  0  0  0  0  0  0  0  0
  127.2300  129.2820   65.2400 S   0  0  0  0  0  0  0  0  0  0  0  0
  128.2970  128.0650   65.9820 C   0  0  0  0  0  0  0  0  0  0  0  0
  128.3550  128.1250   67.3340 N   0  0  0  0  0  0  0  0  0  0  0  0
  129.1130  127.2300   68.0160 C   0  0  0  0  0  0  0  0  0  0  0  0
  129.0750  127.3260   69.5130 C   0  0  0  0  0  0  0  0  0  0  0  0
  130.1830  127.7960   70.2350 C   0  0  0  0  0  0  0  0  0  0  0  0
  130.1520  127.8730   71.6250 C   0  0  0  0  0  0  0  0  0  0  0  0
  129.0070  127.4850   72.3200 C   0  0  0  0  0  0  0  0  0  0  0  0
  128.9820  127.5610   73.8360 C   0  0  0  0  0  0  0  0  0  0  0  0
  127.8970  127.0170   71.6220 C   0  0  0  0  0  0  0  0  0  0  0  0
  127.9320  126.9430   70.2330 C   0  0  0  0  0  0  0  0  0  0  0  0
  129.8470  126.2510   67.3380 C   0  0  0  0  0  0  0  0  0  0  0  0
  129.8060  126.1710   65.9380 C   0  0  0  0  0  0  0  0  0  0  0  0
  130.5990  125.0900   65.2800 C   0  0  0  0  0  0  0  0  0  0  0  0
  131.9060  125.3400   64.8500 C   0  0  0  0  0  0  0  0  0  0  0  0
  132.6580  124.3330   64.2490 C   0  0  0  0  0  0  0  0  0  0  0  0
  132.1210  123.0590   64.0720 C   0  0  0  0  0  0  0  0  0  0  0  0
  132.9400  122.1230   63.4700 O   0  0  0  0  0  0  0  0  0  0  0  0
  133.7830  122.5280   62.3960 C   0  0  0  0  0  0  0  0  0  0  0  0
  130.8120  122.8010   64.5080 C   0  0  0  0  0  0  0  0  0  0  0  0
  130.0640  123.8100   65.1080 C   0  0  0  0  0  0  0  0  0  0  0  0
  129.0120  127.1090   65.2340 C   0  0  0  0  0  0  0  0  0  0  0  0
  128.9480  127.1000   63.7680 C   0  0  0  0  0  0  0  0  0  0  0  0
  128.8960  127.0910   62.6120 N   0  0  0  0  0  0  0  0  0  0  0  0
  128.7580  132.6710   60.9740 C   0  0  0  0  0  0  0  0  0  0  0  0
  128.9140  133.1580   59.6790 C   0  0  0  0  0  0  0  0  0  0  0  0
  1  2  1  0
  2  3  1  0
  3  4  2  0
  3  5  1  0
  5  6  2  0
  6  7  1  0
  7  8  2  0
  8  9  1  0
  9 10  1  0
 10 11  2  0
 10 12  1  0
 12 13  1  0
 13 14  1  0
 14 15  2  0
 15 16  1  0
 16 17  1  0
 17 18  2  0
 18 19  1  0
 19 20  2  0
 20 21  1  0
 20 22  1  0
 22 23  2  0
 16 24  2  0
 24 25  1  0
 25 26  1  0
 26 27  2  0
 27 28  1  0
 28 29  2  0
 29 30  1  0
 30 31  1  0
 29 32  1  0
 32 33  2  0
 25 34  2  0
 34 35  1  0
 35 36  3  0
  8 37  1  0
 37 38  2  0
 38  5  1  0
 34 14  1  0
 23 17  1  0
 33 26  1  0
M  END
>  <Binding energies>  (53) 
[-10.24]

>  <Ligand effiencies>  (53) 
[-0.26256410256410256]

>  <Interactions>  (53) 
["V-A:TYR:539:CA:4869, V-A:PRO:540:CD:4887, V-A:TYR:539:CE2:4876, V-A:TYR:539:CE1:4875, V-A:TYR:539:CZ:4877, V-A:PRO:540:CA:4883, V-A:ILE:538:CA:4860, V-A:MET:535:CE:4835, V-A:TYR:539:CD1:4873, V-A:PRO:540:N:4884, V-A:PRO:540:CB:4885, V-A:TYR:539:C:4867, V-A:GLY:454:CA:4049, V-A:GLU:543:CD:4908, H-A:GLY:454:N:4050, H-A:TYR:484:OH:4348, V-A:ILE:369:CD1:3239, V-A:ARG:545:CZ:4926, V-A:TYR:539:CG:4872, V-A:TYR:484:CZ:4347, V-B:GLU:543:CD:9880, V-B:HIS:456:CE1:9041, V-B:GLU:543:C:9874, V-A:HIS:456:CE1:4070, V-B:GLU:543:CG:9879, V-A:GLU:543:C:4902, V-B:GLU:543:CB:9878, V-A:LEU:475:CD2:4259, V-A:TYR:484:CE2:4346, V-A:GLU:543:CB:4906, V-B:HIS:456:CD2:9039, V-A:GLU:543:CG:4907, V-B:GLY:544:C:9884, H-A:TYR:539:N:4870, V-A:TYR:539:CD2:4874, H-A:GLU:543:OE1:4909, H-B:TYR:484:OH:9319, V-B:TYR:484:CZ:9318, V-B:TYR:484:CE2:9317"]

$$$$
RR7_Rahimova_2017
     RDKit          3D

 47 53  0  0  0  0  0  0  0  0999 V2000
  124.8500  129.8870   62.2330 C   0  0  0  0  0  0  0  0  0  0  0  0
  125.6560  129.9210   61.0590 O   0  0  0  0  0  0  0  0  0  0  0  0
  126.1480  128.7360   60.5470 C   0  0  0  0  0  0  0  0  0  0  0  0
  126.8560  127.9220   61.4300 C   0  0  0  0  0  0  0  0  0  0  0  0
  127.3850  126.7070   61.0060 C   0  0  0  0  0  0  0  0  0  0  0  0
  127.2280  126.2810   59.6790 C   0  0  0  0  0  0  0  0  0  0  0  0
  127.7820  124.9080   59.1850 C   0  0  0  0  0  0  0  0  0  0  0  0
  128.9980  125.1980   58.4590 O   0  0  0  0  0  0  0  0  0  0  0  0
  128.9720  126.1020   57.3490 C   0  0  0  0  0  0  0  0  0  0  0  0
  130.3420  126.7900   57.2320 C   0  0  1  0  0  0  0  0  0  0  0  0
  130.1020  128.1950   57.2690 O   0  0  0  0  0  0  0  0  0  0  0  0
  130.7740  128.8120   58.3290 C   0  0  1  0  0  0  0  0  0  0  0  0
  129.9980  129.9310   58.8280 N   0  0  0  0  0  0  0  0  0  0  0  0
  128.8940  130.5300   58.2460 C   0  0  0  0  0  0  0  0  0  0  0  0
  128.4100  131.5610   58.8920 N   0  0  0  0  0  0  0  0  0  0  0  0
  129.2570  131.7070   59.9570 C   0  0  0  0  0  0  0  0  0  0  0  0
  129.2910  132.6370   61.0150 C   0  0  0  0  0  0  0  0  0  0  0  0
  128.2950  133.6300   61.0730 N   0  0  0  0  0  0  0  0  0  0  0  0
  126.9640  133.4910   61.2760 C   0  0  0  0  0  0  0  0  0  0  0  0
  126.3940  132.4080   61.4310 O   0  0  0  0  0  0  0  0  0  0  0  0
  126.1630  134.7760   61.2730 C   0  0  0  0  0  0  0  0  0  0  0  0
  124.7640  134.7220   61.1700 C   0  0  0  0  0  0  0  0  0  0  0  0
  124.0090  135.8910   61.1710 C   0  0  0  0  0  0  0  0  0  0  0  0
  124.6440  137.1240   61.2790 C   0  0  0  0  0  0  0  0  0  0  0  0
  126.0300  137.1990   61.3870 C   0  0  0  0  0  0  0  0  0  0  0  0
  126.7880  136.0300   61.3850 C   0  0  0  0  0  0  0  0  0  0  0  0
  130.2860  132.5510   61.9480 N   0  0  0  0  0  0  0  0  0  0  0  0
  131.2050  131.5600   61.8050 C   0  0  0  0  0  0  0  0  0  0  0  0
  131.2650  130.6130   60.8300 N   0  0  0  0  0  0  0  0  0  0  0  0
  130.2740  130.7180   59.9350 C   0  0  0  0  0  0  0  0  0  0  0  0
  131.0290  127.7030   59.3430 C   0  0  0  0  0  0  0  0  0  0  0  0
  131.2980  126.5380   58.4060 C   0  0  2  0  0  0  0  0  0  0  0  0
  132.6540  126.4850   57.9980 O   0  0  0  0  0  0  0  0  0  0  0  0
  128.1690  123.9700   60.3590 C   0  0  0  0  0  0  0  0  0  0  0  0
  127.2450  123.6950   61.3800 C   0  0  0  0  0  0  0  0  0  0  0  0
  127.5850  122.8670   62.4440 C   0  0  0  0  0  0  0  0  0  0  0  0
  128.8560  122.3040   62.5000 C   0  0  0  0  0  0  0  0  0  0  0  0
  129.7890  122.5630   61.5000 C   0  0  0  0  0  0  0  0  0  0  0  0
  129.4480  123.3930   60.4360 C   0  0  0  0  0  0  0  0  0  0  0  0
  126.8250  124.0770   58.2840 C   0  0  0  0  0  0  0  0  0  0  0  0
  125.4340  124.1750   58.4450 C   0  0  0  0  0  0  0  0  0  0  0  0
  124.5700  123.4280   57.6500 C   0  0  0  0  0  0  0  0  0  0  0  0
  125.0900  122.5660   56.6890 C   0  0  0  0  0  0  0  0  0  0  0  0
  126.4660  122.4440   56.5210 C   0  0  0  0  0  0  0  0  0  0  0  0
  127.3280  123.1920   57.3160 C   0  0  0  0  0  0  0  0  0  0  0  0
  126.5030  127.0970   58.7990 C   0  0  0  0  0  0  0  0  0  0  0  0
  125.9730  128.3120   59.2230 C   0  0  0  0  0  0  0  0  0  0  0  0
  1  2  1  0
  2  3  1  0
  3  4  2  0
  4  5  1  0
  5  6  2  0
  6  7  1  0
  7  8  1  0
  8  9  1  0
 10  9  1  1
 10 11  1  0
 11 12  1  0
 12 13  1  1
 13 14  1  0
 14 15  2  0
 15 16  1  0
 16 17  2  0
 17 18  1  0
 18 19  1  0
 19 20  2  0
 19 21  1  0
 21 22  2  0
 22 23  1  0
 23 24  2  0
 24 25  1  0
 25 26  2  0
 17 27  1  0
 27 28  2  0
 28 29  1  0
 29 30  2  0
 12 31  1  0
 31 32  1  0
 32 33  1  6
  7 34  1  0
 34 35  2  0
 35 36  1  0
 36 37  2  0
 37 38  1  0
 38 39  2  0
  7 40  1  0
 40 41  2  0
 41 42  1  0
 42 43  2  0
 43 44  1  0
 44 45  2  0
  6 46  1  0
 46 47  2  0
 47  3  1  0
 32 10  1  0
 39 34  1  0
 45 40  1  0
 30 13  1  0
 30 16  1  0
 26 21  1  0
M  END
>  <Binding energies>  (54) 
[-10.14]

>  <Ligand effiencies>  (54) 
[-0.2069387755102041]

>  <Interactions>  (54) 
["H-A:ALA:541:N:4891, H-A:TYR:531:OH:4795, V-B:ASP:366:CB:8183, V-B:SER:385:CA:8378, V-A:TYR:539:CE1:4875, V-B:ILE:369:CG2:8208, V-A:PRO:540:CA:4883, V-B:LEU:475:CD2:9230, V-B:ASP:366:CG:8184, V-B:SER:385:CB:8380, V-A:TYR:539:CD1:4873, V-A:TYR:539:C:4867, V-B:TYR:539:C:9839, V-B:PRO:540:CA:9855, V-B:TYR:539:CE2:9848, V-B:PRO:540:N:9856, V-A:ASP:366:CB:3212, V-A:ASP:366:CG:3213, V-B:PRO:540:CB:9857, H-B:TYR:539:OH:9850, V-B:GLU:543:CD:9880, V-B:GLU:543:CG:9879, V-B:ALA:541:CB:9864, V-B:MET:535:CE:9807, V-B:PRO:540:CD:9859, V-B:LEU:363:CD1:8160, V-B:PRO:540:CG:9858, V-B:ILE:538:CG2:9835, H-A:TYR:539:O:4868, V-B:HIS:383:CD2:8363, V-B:ALA:541:CA:9862, H-A:ASP:366:O:3209"]

$$$$
RR8_A_Rahimova_2017
     RDKit          3D

 42 46  0  0  0  0  0  0  0  0999 V2000
  130.1180  133.3000   57.3440 O   0  0  0  0  0  0  0  0  0  0  0  0
  129.0680  133.0120   57.9280 C   0  0  0  0  0  0  0  0  0  0  0  0
  127.8640  132.8190   57.3050 O   0  0  0  0  0  0  0  0  0  0  0  0
  127.4530  131.4980   57.0850 C   0  0  1  0  0  0  0  0  0  0  0  0
  128.5180  130.5990   57.2060 O   0  0  0  0  0  0  0  0  0  0  0  0
  128.1180  129.3860   57.8360 C   0  0  2  0  0  0  0  0  0  0  0  0
  128.4740  128.2110   56.9090 C   0  0  0  0  0  0  0  0  0  0  0  0
  127.6420  127.1050   57.2310 O   0  0  0  0  0  0  0  0  0  0  0  0
  128.2460  125.8400   56.9960 C   0  0  0  0  0  0  0  0  0  0  0  0
  127.1780  124.7560   56.9660 C   0  0  0  0  0  0  0  0  0  0  0  0
  127.5160  123.4550   56.5860 C   0  0  0  0  0  0  0  0  0  0  0  0
  126.5410  122.4600   56.5640 C   0  0  0  0  0  0  0  0  0  0  0  0
  125.2320  122.7680   56.9260 C   0  0  0  0  0  0  0  0  0  0  0  0
  124.8870  124.0610   57.3130 C   0  0  0  0  0  0  0  0  0  0  0  0
  125.8620  125.0560   57.3360 C   0  0  0  0  0  0  0  0  0  0  0  0
  126.6200  129.5880   58.1010 C   0  0  1  0  0  0  0  0  0  0  0  0
  126.1950  129.0520   59.3520 O   0  0  0  0  0  0  0  0  0  0  0  0
  127.2340  128.6450   60.2350 C   0  0  0  0  0  0  0  0  0  0  0  0
  126.8620  128.9910   61.6700 C   0  0  0  0  0  0  0  0  0  0  0  0
  127.8290  128.9080   62.6760 C   0  0  0  0  0  0  0  0  0  0  0  0
  127.4940  129.2140   63.9920 C   0  0  0  0  0  0  0  0  0  0  0  0
  126.1900  129.5990   64.3010 C   0  0  0  0  0  0  0  0  0  0  0  0
  125.2190  129.6770   63.3060 C   0  0  0  0  0  0  0  0  0  0  0  0
  125.5540  129.3700   61.9890 C   0  0  0  0  0  0  0  0  0  0  0  0
  126.4810  131.0970   58.1860 C   0  0  2  0  0  0  0  0  0  0  0  0
  125.1350  131.4910   57.9320 O   0  0  0  0  0  0  0  0  0  0  0  0
  124.1380  130.7950   58.6730 C   0  0  0  0  0  0  0  0  0  0  0  0
  123.9110  131.4830   60.0110 C   0  0  0  0  0  0  0  0  0  0  0  0
  124.7120  132.5650   60.3900 C   0  0  0  0  0  0  0  0  0  0  0  0
  124.4940  133.1980   61.6110 C   0  0  0  0  0  0  0  0  0  0  0  0
  123.4740  132.7510   62.4480 C   0  0  0  0  0  0  0  0  0  0  0  0
  122.6690  131.6780   62.0750 C   0  0  0  0  0  0  0  0  0  0  0  0
  122.8860  131.0440   60.8540 C   0  0  0  0  0  0  0  0  0  0  0  0
  128.9860  132.8260   59.4160 C   0  0  0  0  0  0  0  0  0  0  0  0
  129.9000  132.0220   60.1140 C   0  0  0  0  0  0  0  0  0  0  0  0
  129.7970  131.8680   61.4940 C   0  0  0  0  0  0  0  0  0  0  0  0
  128.7790  132.5100   62.2100 C   0  0  0  0  0  0  0  0  0  0  0  0
  128.6710  132.3470   63.6800 N   0  0  0  0  0  0  0  0  0  0  0  0
  129.6990  132.1850   64.3310 O   0  0  0  0  0  0  0  0  0  0  0  0
  127.5570  132.3790   64.1960 O   0  0  0  0  0  0  0  0  0  0  0  0
  127.8650  133.3100   61.5120 C   0  0  0  0  0  0  0  0  0  0  0  0
  127.9670  133.4650   60.1330 C   0  0  0  0  0  0  0  0  0  0  0  0
  1  2  2  0
  2  3  1  0
  4  3  1  1
  4  5  1  0
  5  6  1  0
  6  7  1  6
  7  8  1  0
  8  9  1  0
  9 10  1  0
 10 11  2  0
 11 12  1  0
 12 13  2  0
 13 14  1  0
 14 15  2  0
  6 16  1  0
 16 17  1  1
 17 18  1  0
 18 19  1  0
 19 20  2  0
 20 21  1  0
 21 22  2  0
 22 23  1  0
 23 24  2  0
 16 25  1  0
 25 26  1  6
 26 27  1  0
 27 28  1  0
 28 29  2  0
 29 30  1  0
 30 31  2  0
 31 32  1  0
 32 33  2  0
  2 34  1  0
 34 35  2  0
 35 36  1  0
 36 37  2  0
 37 38  1  0
 38 39  2  0
 38 40  1  0
 37 41  1  0
 41 42  2  0
 25  4  1  0
 33 28  1  0
 42 34  1  0
 15 10  1  0
 24 19  1  0
M  CHG  2  38   1  40  -1
M  END
>  <Binding energies>  (55) 
[-9.39]

>  <Ligand effiencies>  (55) 
[-0.2235714285714286]

>  <Interactions>  (55) 
["V-B:ILE:369:CG1:8209, V-B:GLY:453:C:9013, V-B:ASP:366:CB:8183, V-B:ILE:369:CB:8207, V-A:TYR:539:CE1:4875, V-A:TYR:539:CZ:4877, V-B:ILE:369:CG2:8208, V-A:PRO:540:CA:4883, V-B:ASP:366:CG:8184, V-B:GLY:454:CA:9020, V-A:MET:535:CE:4835, V-B:ASP:366:CA:8181, V-B:GLY:453:CA:9015, V-A:TYR:539:CD1:4873, V-A:ALA:541:CB:4892, V-A:PRO:540:N:4884, V-A:TYR:539:C:4867, V-B:TYR:539:C:9839, V-B:TYR:539:CZ:9849, V-B:PRO:540:CA:9855, V-B:PRO:540:N:9856, V-B:TYR:539:CE1:9847, V-B:PRO:540:CB:9857, V-A:TYR:539:CG:4872, V-A:GLU:543:CG:4907, V-B:MET:535:CE:9807, V-B:PRO:540:CD:9859, H-A:TYR:539:OH:4878, H-B:TYR:531:OH:9767, V-B:LEU:363:CD1:8160, V-B:PRO:540:CG:9858, V-B:TYR:531:CE2:9765, H-A:TYR:539:N:4870, V-B:TYR:531:CZ:9766, V-B:ARG:545:CZ:9898, H-B:TYR:484:OH:9319"]

$$$$
RR8_B_Rahimova_2017
     RDKit          3D

 42 46  0  0  0  0  0  0  0  0999 V2000
  126.0490  128.2250   59.0910 O   0  0  0  0  0  0  0  0  0  0  0  0
  127.0310  127.6370   58.6260 C   0  0  0  0  0  0  0  0  0  0  0  0
  128.2950  128.1560   58.5870 O   0  0  0  0  0  0  0  0  0  0  0  0
  128.9190  128.4790   59.8050 C   0  0  2  0  0  0  0  0  0  0  0  0
  129.9470  129.4140   59.6330 O   0  0  0  0  0  0  0  0  0  0  0  0
  131.2050  128.7740   59.4230 C   0  0  2  0  0  0  0  0  0  0  0  0
  131.7930  129.2280   58.0750 C   0  0  0  0  0  0  0  0  0  0  0  0
  132.8500  130.1490   58.3130 O   0  0  0  0  0  0  0  0  0  0  0  0
  132.4380  131.4250   58.7790 C   0  0  0  0  0  0  0  0  0  0  0  0
  131.3170  131.9450   57.8920 C   0  0  0  0  0  0  0  0  0  0  0  0
  131.5140  132.0460   56.5120 C   0  0  0  0  0  0  0  0  0  0  0  0
  130.5010  132.5440   55.6970 C   0  0  0  0  0  0  0  0  0  0  0  0
  129.2910  132.9380   56.2660 C   0  0  0  0  0  0  0  0  0  0  0  0
  129.0850  132.8340   57.6400 C   0  0  0  0  0  0  0  0  0  0  0  0
  130.0990  132.3390   58.4550 C   0  0  0  0  0  0  0  0  0  0  0  0
  130.8920  127.2770   59.5340 C   0  0  1  0  0  0  0  0  0  0  0  0
  131.9900  126.5970   60.1500 O   0  0  0  0  0  0  0  0  0  0  0  0
  132.4080  125.3660   59.5540 C   0  0  0  0  0  0  0  0  0  0  0  0
  132.8560  124.3430   60.5940 C   0  0  0  0  0  0  0  0  0  0  0  0
  133.0700  123.0130   60.2210 C   0  0  0  0  0  0  0  0  0  0  0  0
  133.5090  122.0890   61.1660 C   0  0  0  0  0  0  0  0  0  0  0  0
  133.7290  122.4980   62.4800 C   0  0  0  0  0  0  0  0  0  0  0  0
  133.5140  123.8210   62.8590 C   0  0  0  0  0  0  0  0  0  0  0  0
  133.0770  124.7460   61.9130 C   0  0  0  0  0  0  0  0  0  0  0  0
  129.6150  127.2400   60.3660 C   0  0  2  0  0  0  0  0  0  0  0  0
  128.9050  126.0260   60.1320 O   0  0  0  0  0  0  0  0  0  0  0  0
  128.2820  125.4500   61.2700 C   0  0  0  0  0  0  0  0  0  0  0  0
  128.7140  123.9970   61.3640 C   0  0  0  0  0  0  0  0  0  0  0  0
  129.2350  123.4910   62.5580 C   0  0  0  0  0  0  0  0  0  0  0  0
  129.6460  122.1630   62.6270 C   0  0  0  0  0  0  0  0  0  0  0  0
  129.5360  121.3460   61.5040 C   0  0  0  0  0  0  0  0  0  0  0  0
  129.0160  121.8440   60.3100 C   0  0  0  0  0  0  0  0  0  0  0  0
  128.6050  123.1720   60.2410 C   0  0  0  0  0  0  0  0  0  0  0  0
  126.9520  126.2730   58.0040 C   0  0  0  0  0  0  0  0  0  0  0  0
  127.9830  125.7670   57.1980 C   0  0  0  0  0  0  0  0  0  0  0  0
  127.8790  124.5030   56.6280 C   0  0  0  0  0  0  0  0  0  0  0  0
  126.7400  123.7170   56.8390 C   0  0  0  0  0  0  0  0  0  0  0  0
  126.6190  122.3790   56.2070 N   0  0  0  0  0  0  0  0  0  0  0  0
  127.4970  122.0140   55.4300 O   0  0  0  0  0  0  0  0  0  0  0  0
  125.6480  121.6820   56.4880 O   0  0  0  0  0  0  0  0  0  0  0  0
  125.7130  124.2200   57.6480 C   0  0  0  0  0  0  0  0  0  0  0  0
  125.8190  125.4810   58.2250 C   0  0  0  0  0  0  0  0  0  0  0  0
  1  2  2  0
  2  3  1  0
  4  3  1  6
  4  5  1  0
  5  6  1  0
  6  7  1  6
  7  8  1  0
  8  9  1  0
  9 10  1  0
 10 11  2  0
 11 12  1  0
 12 13  2  0
 13 14  1  0
 14 15  2  0
  6 16  1  0
 16 17  1  1
 17 18  1  0
 18 19  1  0
 19 20  2  0
 20 21  1  0
 21 22  2  0
 22 23  1  0
 23 24  2  0
 16 25  1  0
 25 26  1  6
 26 27  1  0
 27 28  1  0
 28 29  2  0
 29 30  1  0
 30 31  2  0
 31 32  1  0
 32 33  2  0
  2 34  1  0
 34 35  2  0
 35 36  1  0
 36 37  2  0
 37 38  1  0
 38 39  2  0
 38 40  1  0
 37 41  1  0
 41 42  2  0
 25  4  1  0
 33 28  1  0
 42 34  1  0
 15 10  1  0
 24 19  1  0
M  CHG  2  38   1  40  -1
M  END
>  <Binding energies>  (56) 
[-9.07]

>  <Ligand effiencies>  (56) 
[-0.21595238095238095]

>  <Interactions>  (56) 
["V-A:ILE:538:CG2:4863, H-A:TYR:531:OH:4795, V-A:ILE:538:CB:4862, V-A:LEU:363:CD1:3189, V-A:TYR:531:CZ:4794, V-A:PRO:540:CA:4883, V-A:ILE:538:CA:4860, V-A:MET:535:CE:4835, V-A:TYR:539:CD1:4873, V-A:PRO:540:N:4884, V-A:PRO:540:CB:4885, V-A:TYR:539:C:4867, V-A:GLY:454:CA:4049, V-B:TYR:539:C:9839, V-B:TYR:539:CZ:9849, V-B:PRO:540:CA:9855, V-B:TYR:539:CE2:9848, V-A:ILE:369:CG2:3237, V-B:PRO:540:N:9856, V-A:ASP:366:CB:3212, V-A:ILE:369:CD1:3239, V-A:ASP:366:CG:3213, V-B:TYR:539:CD2:9846, V-B:TYR:539:CD1:9845, H-B:TYR:539:N:9842, V-B:ALA:541:CB:9864, V-A:LEU:475:CD2:4259, V-B:MET:535:CE:9807, V-B:PRO:540:CD:9859, H-B:TYR:531:OH:9767"]

$$$$
RR9_Rahimova_2017
     RDKit          3D

 36 40  0  0  0  0  0  0  0  0999 V2000
  126.4340  128.5500   74.8400 C   0  0  0  0  0  0  0  0  0  0  0  0
  127.9430  128.8150   74.8380 C   0  0  0  0  0  0  0  0  0  0  0  0
  128.6000  127.7140   74.2190 O   0  0  0  0  0  0  0  0  0  0  0  0
  128.5840  127.6020   72.8420 C   0  0  0  0  0  0  0  0  0  0  0  0
  129.6990  128.0910   72.1630 C   0  0  0  0  0  0  0  0  0  0  0  0
  129.7700  128.0230   70.7750 C   0  0  0  0  0  0  0  0  0  0  0  0
  128.7250  127.4620   70.0250 C   0  0  0  0  0  0  0  0  0  0  0  0
  128.7940  127.3910   68.5290 C   0  0  0  0  0  0  0  0  0  0  0  0
  129.5350  126.3950   67.8730 C   0  0  0  0  0  0  0  0  0  0  0  0
  129.5860  126.3250   66.4690 C   0  0  0  0  0  0  0  0  0  0  0  0
  130.3140  125.1750   65.8270 C   0  0  0  0  0  0  0  0  0  0  0  0
  129.8200  124.0480   65.8260 O   0  0  0  0  0  0  0  0  0  0  0  0
  131.5170  125.4680   65.2940 N   0  0  0  0  0  0  0  0  0  0  0  0
  132.4670  124.5010   64.7330 C   0  0  0  0  0  0  0  0  0  0  0  0
  133.1600  125.0090   63.4480 C   0  0  0  0  0  0  0  0  0  0  0  0
  133.1580  124.0180   62.2890 C   0  0  0  0  0  0  0  0  0  0  0  0
  132.7490  122.6970   62.4970 C   0  0  0  0  0  0  0  0  0  0  0  0
  132.7160  121.8040   61.4290 C   0  0  0  0  0  0  0  0  0  0  0  0
  133.0950  122.2320   60.1590 C   0  0  0  0  0  0  0  0  0  0  0  0
  133.5080  123.5460   59.9460 C   0  0  0  0  0  0  0  0  0  0  0  0
  133.5410  124.4400   61.0130 C   0  0  0  0  0  0  0  0  0  0  0  0
  128.8800  127.3300   65.7640 C   0  0  0  0  0  0  0  0  0  0  0  0
  128.6380  127.7350   64.3990 C   0  0  0  0  0  0  0  0  0  0  0  0
  129.1970  127.1790   63.1320 C   0  0  0  0  0  0  0  0  0  0  0  0
  129.6410  128.0380   62.1220 C   0  0  0  0  0  0  0  0  0  0  0  0
  130.1480  127.5170   60.9340 C   0  0  0  0  0  0  0  0  0  0  0  0
  130.2160  126.1340   60.7530 C   0  0  0  0  0  0  0  0  0  0  0  0
  130.7510  125.5660   59.4510 C   0  0  0  0  0  0  0  0  0  0  0  0
  129.7720  125.2740   61.7580 C   0  0  0  0  0  0  0  0  0  0  0  0
  129.2680  125.7960   62.9460 C   0  0  0  0  0  0  0  0  0  0  0  0
  127.8150  128.7590   64.3610 N   0  0  0  0  0  0  0  0  0  0  0  0
  127.5300  129.1080   65.6260 N   0  0  0  0  0  0  0  0  0  0  0  0
  128.1590  128.2810   66.5260 C   0  0  0  0  0  0  0  0  0  0  0  0
  128.0970  128.3490   67.8550 N   0  0  0  0  0  0  0  0  0  0  0  0
  127.6060  126.9750   70.7150 C   0  0  0  0  0  0  0  0  0  0  0  0
  127.5330  127.0400   72.1040 C   0  0  0  0  0  0  0  0  0  0  0  0
  1  2  1  0
  2  3  1  0
  3  4  1  0
  4  5  2  0
  5  6  1  0
  6  7  2  0
  7  8  1  0
  8  9  2  0
  9 10  1  0
 10 11  1  0
 11 12  2  0
 11 13  1  0
 13 14  1  0
 14 15  1  0
 15 16  1  0
 16 17  2  0
 17 18  1  0
 18 19  2  0
 19 20  1  0
 20 21  2  0
 10 22  2  0
 22 23  1  0
 23 24  1  0
 24 25  2  0
 25 26  1  0
 26 27  2  0
 27 28  1  0
 27 29  1  0
 29 30  2  0
 23 31  2  0
 31 32  1  0
 32 33  1  0
 33 34  2  0
  7 35  1  0
 35 36  2  0
 36  4  1  0
 34  8  1  0
 21 16  1  0
 33 22  1  0
 30 24  1  0
M  END
>  <Binding energies>  (57) 
[-8.57]

>  <Ligand effiencies>  (57) 
[-0.22552631578947369]

>  <Interactions>  (57) 
["V-A:GLU:543:CD:4908, V-B:TYR:539:CE2:9848, V-A:ILE:369:CG2:3237, V-A:ILE:369:CB:3236, H-A:TYR:484:OH:4348, V-A:ILE:369:CD1:3239, V-A:ASP:366:CG:3213, V-B:TYR:539:CD2:9846, V-A:ARG:545:CZ:4926, V-B:GLU:543:CD:9880, V-B:HIS:456:CE1:9041, V-B:GLU:543:C:9874, V-A:HIS:456:CE1:4070, V-B:GLU:543:CG:9879, V-B:GLU:543:CB:9878, V-A:LEU:475:CD2:4259, V-B:HIS:456:CD2:9039, V-A:GLU:543:CG:4907, H-B:LYS:547:NZ:9923, V-B:HIS:456:CG:9037, V-B:HIS:456:CB:9036, V-B:GLY:544:C:9884, H-B:GLU:543:OE2:9882, H-A:GLU:543:OE1:4909, H-B:TYR:484:OH:9319, H-A:GLU:543:OE2:4910"]

$$$$
