1a_Grossjean_2025
     RDKit          3D

 26 27  0  0  0  0  0  0  0  0999 V2000
  124.6830  124.0890   58.9180 C   0  0  0  0  0  0  0  0  0  0  0  0
  124.5620  124.1210   57.3920 C   0  0  0  0  0  0  0  0  0  0  0  0
  125.8610  124.1020   56.8130 O   0  0  0  0  0  0  0  0  0  0  0  0
  126.6440  122.9950   56.8850 C   0  0  0  0  0  0  0  0  0  0  0  0
  126.4040  121.9510   56.2720 O   0  0  0  0  0  0  0  0  0  0  0  0
  127.8230  123.1610   57.8000 C   0  0  0  0  0  0  0  0  0  0  0  0
  128.7790  124.1440   57.5110 C   0  0  0  0  0  0  0  0  0  0  0  0
  129.8860  124.3190   58.3370 C   0  0  0  0  0  0  0  0  0  0  0  0
  130.0620  123.5180   59.4650 C   0  0  0  0  0  0  0  0  0  0  0  0
  131.2170  123.7810   60.2270 N   0  0  0  0  0  0  0  0  0  0  0  0
  132.4840  124.0230   59.8270 C   0  0  0  0  0  0  0  0  0  0  0  0
  132.8700  124.0610   58.6590 O   0  0  0  0  0  0  0  0  0  0  0  0
  133.4910  124.2670   60.9530 C   0  0  0  0  0  0  0  0  0  0  0  0
  133.8830  122.7430   61.8630 S   0  0  0  0  0  0  0  0  0  0  0  0
  132.4070  121.7520   61.9070 C   0  0  0  0  0  0  0  0  0  0  0  0
  131.3620  122.3530   62.5290 N   0  0  0  0  0  0  0  0  0  0  0  0
  130.1880  121.6840   62.6240 C   0  0  0  0  0  0  0  0  0  0  0  0
  129.0700  122.4140   63.3440 C   0  0  0  0  0  0  0  0  0  0  0  0
  130.0060  120.4070   62.0990 C   0  0  0  0  0  0  0  0  0  0  0  0
  131.0710  119.7860   61.4370 C   0  0  0  0  0  0  0  0  0  0  0  0
  130.8440  118.3920   60.8560 C   0  0  0  0  0  0  0  0  0  0  0  0
  132.3050  120.4670   61.3230 C   0  0  0  0  0  0  0  0  0  0  0  0
  133.4190  119.8570   60.5910 C   0  0  0  0  0  0  0  0  0  0  0  0
  134.2970  119.3740   60.0130 N   0  0  0  0  0  0  0  0  0  0  0  0
  129.1050  122.5370   59.7670 C   0  0  0  0  0  0  0  0  0  0  0  0
  127.9990  122.3610   58.9400 C   0  0  0  0  0  0  0  0  0  0  0  0
  1  2  1  0
  2  3  1  0
  3  4  1  0
  4  5  2  0
  4  6  1  0
  6  7  2  0
  7  8  1  0
  8  9  2  0
  9 10  1  0
 10 11  1  0
 11 12  2  0
 11 13  1  0
 13 14  1  0
 14 15  1  0
 15 16  2  0
 16 17  1  0
 17 18  1  0
 17 19  2  0
 19 20  1  0
 20 21  1  0
 20 22  2  0
 22 23  1  0
 23 24  3  0
  9 25  1  0
 25 26  2  0
 26  6  1  0
 22 15  1  0
M  END
>  <Binding energies>  (1) 
[-7.65]

>  <Ligand effiencies>  (1) 
[-0.2833333333333333]

>  <Interactions>  (1) 
["V-B:PRO:540:N:9855, V-B:TYR:531:CE2:9764, H-B:TYR:539:N:9841, V-B:LEU:363:CD1:8159, V-B:MET:535:CE:9806, V-B:TYR:539:CD2:9845, V-B:TYR:539:CZ:9848, V-B:TYR:539:C:9838, V-B:PRO:540:CB:9856, V-B:TYR:539:CE2:9847, V-B:TYR:539:CG:9843, V-A:ASP:366:CG:3212, H-B:TYR:531:OH:9766, V-A:ILE:369:CG2:3236, V-A:SER:385:CA:3406, V-A:SER:385:CB:3408, V-B:ALA:541:CB:9863, V-A:ILE:369:CD1:3238, V-A:LEU:475:CD2:4258, V-B:ALA:541:CA:9861, H-B:TYR:539:OH:9849, V-B:PRO:540:CA:9854, V-B:TYR:531:CZ:9765"]

$$$$
1aa_Ghoteimi_2023
     RDKit          3D

 40 43  0  0  0  0  0  0  0  0999 V2000
  130.1650  129.0410   71.9370 C   0  0  0  0  0  0  0  0  0  0  0  0
  129.7190  128.0840   73.0460 C   0  0  0  0  0  0  0  0  0  0  0  0
  128.4480  127.5360   72.7170 O   0  0  0  0  0  0  0  0  0  0  0  0
  128.3350  126.5110   71.8340 C   0  0  0  0  0  0  0  0  0  0  0  0
  128.7370  125.3660   72.0640 O   0  0  0  0  0  0  0  0  0  0  0  0
  127.6700  126.9070   70.5470 C   0  0  0  0  0  0  0  0  0  0  0  0
  126.2760  126.8740   70.3910 C   0  0  0  0  0  0  0  0  0  0  0  0
  125.6870  127.2480   69.1850 C   0  0  0  0  0  0  0  0  0  0  0  0
  126.4870  127.6640   68.1110 C   0  0  0  0  0  0  0  0  0  0  0  0
  126.0050  128.0620   66.8500 N   0  0  0  0  0  0  0  0  0  0  0  0
  125.0300  128.9410   66.5210 C   0  0  0  0  0  0  0  0  0  0  0  0
  124.3620  129.5850   67.3290 O   0  0  0  0  0  0  0  0  0  0  0  0
  124.7420  129.1460   65.0250 C   0  0  0  0  0  0  0  0  0  0  0  0
  125.9580  129.4050   64.3110 O   0  0  0  0  0  0  0  0  0  0  0  0
  126.7170  128.3550   63.8140 C   0  0  0  0  0  0  0  0  0  0  0  0
  126.1770  127.5840   62.8310 N   0  0  0  0  0  0  0  0  0  0  0  0
  126.8840  126.5370   62.3280 C   0  0  0  0  0  0  0  0  0  0  0  0
  126.2200  125.7370   61.2450 C   0  0  0  0  0  0  0  0  0  0  0  0
  126.3430  126.1050   59.8970 C   0  0  0  0  0  0  0  0  0  0  0  0
  125.7260  125.3660   58.8910 C   0  0  0  0  0  0  0  0  0  0  0  0
  124.9700  124.2370   59.2000 C   0  0  0  0  0  0  0  0  0  0  0  0
  124.3950  123.5670   58.1380 O   0  0  0  0  0  0  0  0  0  0  0  0
  125.2330  123.0340   57.1170 C   0  0  0  0  0  0  0  0  0  0  0  0
  124.8430  123.8540   60.5420 C   0  0  0  0  0  0  0  0  0  0  0  0
  125.4610  124.5940   61.5450 C   0  0  0  0  0  0  0  0  0  0  0  0
  128.1730  126.2550   62.7980 C   0  0  0  0  0  0  0  0  0  0  0  0
  128.7560  127.0410   63.8020 C   0  0  0  0  0  0  0  0  0  0  0  0
  130.1370  126.6950   64.2520 C   0  0  0  0  0  0  0  0  0  0  0  0
  131.1300  126.4000   63.3120 C   0  0  0  0  0  0  0  0  0  0  0  0
  132.4220  126.0860   63.7230 C   0  0  0  0  0  0  0  0  0  0  0  0
  132.7510  126.0670   65.0780 C   0  0  0  0  0  0  0  0  0  0  0  0
  134.0570  125.7450   65.3930 O   0  0  0  0  0  0  0  0  0  0  0  0
  134.4610  125.7360   66.7570 C   0  0  0  0  0  0  0  0  0  0  0  0
  131.7600  126.3710   66.0240 C   0  0  0  0  0  0  0  0  0  0  0  0
  130.4680  126.6830   65.6110 C   0  0  0  0  0  0  0  0  0  0  0  0
  128.0020  128.1150   64.3300 C   0  0  0  0  0  0  0  0  0  0  0  0
  128.5100  128.9620   65.4100 C   0  0  0  0  0  0  0  0  0  0  0  0
  128.9100  129.6340   66.2630 N   0  0  0  0  0  0  0  0  0  0  0  0
  127.8740  127.6960   68.2620 C   0  0  0  0  0  0  0  0  0  0  0  0
  128.4600  127.3220   69.4670 C   0  0  0  0  0  0  0  0  0  0  0  0
  1  2  1  0
  2  3  1  0
  3  4  1  0
  4  5  2  0
  4  6  1  0
  6  7  2  0
  7  8  1  0
  8  9  2  0
  9 10  1  0
 10 11  1  0
 11 12  2  0
 11 13  1  0
 13 14  1  0
 14 15  1  0
 15 16  2  0
 16 17  1  0
 17 18  1  0
 18 19  2  0
 19 20  1  0
 20 21  2  0
 21 22  1  0
 22 23  1  0
 21 24  1  0
 24 25  2  0
 17 26  2  0
 26 27  1  0
 27 28  1  0
 28 29  2  0
 29 30  1  0
 30 31  2  0
 31 32  1  0
 32 33  1  0
 31 34  1  0
 34 35  2  0
 27 36  2  0
 36 37  1  0
 37 38  3  0
  9 39  1  0
 39 40  2  0
 40  6  1  0
 36 15  1  0
 25 18  1  0
 35 28  1  0
M  END
>  <Binding energies>  (2) 
[-7.64]

>  <Ligand effiencies>  (2) 
[-0.18634146341463415]

>  <Interactions>  (2) 
["V-B:PRO:540:CD:9858, V-B:GLU:543:CB:9877, V-B:PRO:540:N:9855, H-B:TYR:484:OH:9318, V-B:LEU:363:CD1:8159, V-B:HIS:456:CE1:9040, V-A:HIS:456:CE1:4069, V-A:GLU:543:CD:4907, V-A:GLU:543:CG:4906, V-B:PRO:540:CB:9856, V-B:GLU:543:CD:9879, V-B:GLU:543:C:9873, V-B:GLY:544:C:9883, V-B:GLU:543:CG:9878, V-B:ARG:545:CZ:9897, H-B:ARG:545:NH2:9899, V-B:ARG:545:CG:9893, V-B:ARG:545:CD:9894, H-A:ARG:545:NE:4923, V-A:ARG:545:CZ:4925, H-A:ARG:545:NH1:4926, V-A:ARG:545:CD:4922, H-A:GLY:454:N:4049, H-A:ARG:545:NH2:4927, V-A:ARG:545:CG:4921, V-B:PRO:540:CA:9854, H-A:TYR:484:OH:4347, V-A:GLY:453:C:4041, V-A:GLY:453:CA:4043, V-A:GLY:454:CA:4048, H-B:GLU:543:OE2:9881, V-A:GLU:543:C:4901, V-B:ARG:545:CB:9892, V-B:ARG:545:CA:9890, H-B:GLU:543:OE1:9880"]

$$$$
1b_Grossjean_2025
     RDKit          3D

 25 26  0  0  0  0  0  0  0  0999 V2000
  124.5380  123.7810   57.2120 C   0  0  0  0  0  0  0  0  0  0  0  0
  125.8790  123.8700   56.7510 O   0  0  0  0  0  0  0  0  0  0  0  0
  126.7800  122.8940   57.0310 C   0  0  0  0  0  0  0  0  0  0  0  0
  127.0430  121.9680   56.2580 O   0  0  0  0  0  0  0  0  0  0  0  0
  127.4330  123.0580   58.3740 C   0  0  0  0  0  0  0  0  0  0  0  0
  128.8260  123.1420   58.5170 C   0  0  0  0  0  0  0  0  0  0  0  0
  129.4000  123.2920   59.7760 C   0  0  0  0  0  0  0  0  0  0  0  0
  128.5980  123.3610   60.9160 C   0  0  0  0  0  0  0  0  0  0  0  0
  129.2860  123.5110   62.1350 N   0  0  0  0  0  0  0  0  0  0  0  0
  128.8480  123.3650   63.4050 C   0  0  0  0  0  0  0  0  0  0  0  0
  127.7060  123.0510   63.7360 O   0  0  0  0  0  0  0  0  0  0  0  0
  129.8970  123.6100   64.4910 C   0  0  0  0  0  0  0  0  0  0  0  0
  131.1450  122.2880   64.5490 S   0  0  0  0  0  0  0  0  0  0  0  0
  131.8610  122.1630   62.9250 C   0  0  0  0  0  0  0  0  0  0  0  0
  131.7870  120.9190   62.3900 N   0  0  0  0  0  0  0  0  0  0  0  0
  132.3010  120.7110   61.1550 C   0  0  0  0  0  0  0  0  0  0  0  0
  132.1690  119.2990   60.6140 C   0  0  0  0  0  0  0  0  0  0  0  0
  132.9130  121.7210   60.4150 C   0  0  0  0  0  0  0  0  0  0  0  0
  133.0140  123.0010   60.9680 C   0  0  0  0  0  0  0  0  0  0  0  0
  133.7040  124.0880   60.1460 C   0  0  0  0  0  0  0  0  0  0  0  0
  132.4850  123.2420   62.2560 C   0  0  0  0  0  0  0  0  0  0  0  0
  132.6180  124.5640   62.8740 C   0  0  0  0  0  0  0  0  0  0  0  0
  132.7250  125.6090   63.3580 N   0  0  0  0  0  0  0  0  0  0  0  0
  127.2040  123.2770   60.7810 C   0  0  0  0  0  0  0  0  0  0  0  0
  126.6320  123.1280   59.5220 C   0  0  0  0  0  0  0  0  0  0  0  0
  1  2  1  0
  2  3  1  0
  3  4  2  0
  3  5  1  0
  5  6  2  0
  6  7  1  0
  7  8  2  0
  8  9  1  0
  9 10  1  0
 10 11  2  0
 10 12  1  0
 12 13  1  0
 13 14  1  0
 14 15  2  0
 15 16  1  0
 16 17  1  0
 16 18  2  0
 18 19  1  0
 19 20  1  0
 19 21  2  0
 21 22  1  0
 22 23  3  0
  8 24  1  0
 24 25  2  0
 25  5  1  0
 21 14  1  0
M  END
>  <Binding energies>  (3) 
[-6.57]

>  <Ligand effiencies>  (3) 
[-0.2526923076923077]

>  <Interactions>  (3) 
["V-B:PRO:540:N:9855, V-B:TYR:531:CE2:9764, H-B:TYR:539:N:9841, V-B:LEU:363:CD1:8159, V-B:MET:535:CE:9806, V-B:TYR:539:CD2:9845, V-B:TYR:539:CZ:9848, V-B:TYR:539:C:9838, V-B:PRO:540:CB:9856, V-B:TYR:539:CE2:9847, V-B:GLU:543:CD:9879, V-A:ASP:366:CG:3212, V-A:ASP:366:CB:3211, H-B:TYR:531:OH:9766, V-A:ILE:369:CG2:3236, V-B:ALA:541:CB:9863, H-A:ARG:545:NH2:4927, V-A:ILE:369:CD1:3238, V-A:LEU:475:CD2:4258, V-B:PRO:540:CA:9854, V-A:ILE:369:CB:3235, H-A:TYR:484:OH:4347, H-B:ALA:541:N:9862, V-A:ILE:369:CG1:3237, V-B:TYR:531:CZ:9765"]

$$$$
1c_Grossjean_2025
     RDKit          3D

 23 24  0  0  0  0  0  0  0  0999 V2000
  125.0670  122.6690   57.0180 C   0  0  0  0  0  0  0  0  0  0  0  0
  126.1500  123.4870   56.5900 O   0  0  0  0  0  0  0  0  0  0  0  0
  127.2740  123.5880   57.3870 C   0  0  0  0  0  0  0  0  0  0  0  0
  128.0390  124.7450   57.2420 C   0  0  0  0  0  0  0  0  0  0  0  0
  129.1890  124.9390   58.0020 C   0  0  0  0  0  0  0  0  0  0  0  0
  129.5870  123.9670   58.9310 C   0  0  0  0  0  0  0  0  0  0  0  0
  130.7350  124.0560   59.7420 N   0  0  0  0  0  0  0  0  0  0  0  0
  132.0010  124.3800   59.4020 C   0  0  0  0  0  0  0  0  0  0  0  0
  132.3820  124.6840   58.2720 O   0  0  0  0  0  0  0  0  0  0  0  0
  133.0130  124.3610   60.5490 C   0  0  0  0  0  0  0  0  0  0  0  0
  133.6110  122.6810   60.8980 S   0  0  0  0  0  0  0  0  0  0  0  0
  132.2040  121.6400   61.2270 C   0  0  0  0  0  0  0  0  0  0  0  0
  131.2120  122.2720   61.9040 N   0  0  0  0  0  0  0  0  0  0  0  0
  130.0900  121.5810   62.2120 C   0  0  0  0  0  0  0  0  0  0  0  0
  129.0220  122.3570   62.9600 C   0  0  0  0  0  0  0  0  0  0  0  0
  129.9150  120.2420   61.8710 C   0  0  0  0  0  0  0  0  0  0  0  0
  130.9400  119.5730   61.1950 C   0  0  0  0  0  0  0  0  0  0  0  0
  130.7320  118.1000   60.8480 C   0  0  0  0  0  0  0  0  0  0  0  0
  132.1230  120.2750   60.8650 C   0  0  0  0  0  0  0  0  0  0  0  0
  133.2300  119.5770   60.2060 C   0  0  0  0  0  0  0  0  0  0  0  0
  134.1030  119.0250   59.6850 N   0  0  0  0  0  0  0  0  0  0  0  0
  128.8310  122.8020   59.0720 C   0  0  0  0  0  0  0  0  0  0  0  0
  127.6820  122.6120   58.3100 C   0  0  0  0  0  0  0  0  0  0  0  0
  1  2  1  0
  2  3  1  0
  3  4  2  0
  4  5  1  0
  5  6  2  0
  6  7  1  0
  7  8  1  0
  8  9  2  0
  8 10  1  0
 10 11  1  0
 11 12  1  0
 12 13  2  0
 13 14  1  0
 14 15  1  0
 14 16  2  0
 16 17  1  0
 17 18  1  0
 17 19  2  0
 19 20  1  0
 20 21  3  0
  6 22  1  0
 22 23  2  0
 23  3  1  0
 19 12  1  0
M  END
>  <Binding energies>  (4) 
[-6.7]

>  <Ligand effiencies>  (4) 
[-0.2791666666666667]

>  <Interactions>  (4) 
["V-B:PRO:540:CD:9858, V-B:PRO:540:N:9855, V-B:LEU:363:CD1:8159, V-B:MET:535:CE:9806, V-B:TYR:539:CD2:9845, V-B:TYR:539:CZ:9848, V-B:TYR:539:C:9838, V-B:PRO:540:CB:9856, V-B:TYR:539:CE2:9847, V-A:ASP:366:CG:3212, H-B:TYR:531:OH:9766, V-A:ILE:369:CG2:3236, V-A:SER:385:CA:3406, V-B:ALA:541:CB:9863, V-A:ILE:369:CD1:3238, V-A:LEU:475:CD2:4258, V-B:ALA:541:CA:9861, H-B:TYR:539:OH:9849, V-B:PRO:540:CA:9854, V-B:TYR:539:CB:9842, V-B:PRO:540:CG:9857"]

$$$$
1d_Grossjean_2025
     RDKit          3D

 21 22  0  0  0  0  0  0  0  0999 V2000
  134.3060  125.7400   67.2410 C   0  0  0  0  0  0  0  0  0  0  0  0
  133.4680  125.7570   65.9780 C   0  0  0  0  0  0  0  0  0  0  0  0
  132.2370  126.4080   65.9270 C   0  0  0  0  0  0  0  0  0  0  0  0
  131.5120  126.3990   64.7310 C   0  0  0  0  0  0  0  0  0  0  0  0
  130.1730  127.1330   64.6960 C   0  0  0  0  0  0  0  0  0  0  0  0
  132.0400  125.7240   63.6070 C   0  0  0  0  0  0  0  0  0  0  0  0
  131.3220  125.7430   62.3310 C   0  0  0  0  0  0  0  0  0  0  0  0
  130.7510  125.7600   61.3240 N   0  0  0  0  0  0  0  0  0  0  0  0
  133.2860  125.0690   63.7560 C   0  0  0  0  0  0  0  0  0  0  0  0
  134.0950  124.1740   62.4500 S   0  0  0  0  0  0  0  0  0  0  0  0
  134.1980  122.4330   62.9680 C   0  0  0  0  0  0  0  0  0  0  0  0
  133.2030  121.5480   62.2160 C   0  0  0  0  0  0  0  0  0  0  0  0
  132.0110  121.8550   62.2110 O   0  0  0  0  0  0  0  0  0  0  0  0
  133.7400  120.4840   61.5810 N   0  0  0  0  0  0  0  0  0  0  0  0
  133.1150  119.4750   60.8250 C   0  0  0  0  0  0  0  0  0  0  0  0
  131.9750  118.9060   61.3990 C   0  0  0  0  0  0  0  0  0  0  0  0
  131.2780  117.9030   60.7320 C   0  0  0  0  0  0  0  0  0  0  0  0
  131.7170  117.4710   59.4830 C   0  0  0  0  0  0  0  0  0  0  0  0
  132.8460  118.0360   58.8950 C   0  0  0  0  0  0  0  0  0  0  0  0
  133.5460  119.0390   59.5610 C   0  0  0  0  0  0  0  0  0  0  0  0
  133.9910  125.1020   64.9150 N   0  0  0  0  0  0  0  0  0  0  0  0
  1  2  1  0
  2  3  2  0
  3  4  1  0
  4  5  1  0
  4  6  2  0
  6  7  1  0
  7  8  3  0
  6  9  1  0
  9 10  1  0
 10 11  1  0
 11 12  1  0
 12 13  2  0
 12 14  1  0
 14 15  1  0
 15 16  2  0
 16 17  1  0
 17 18  2  0
 18 19  1  0
 19 20  2  0
  9 21  2  0
 21  2  1  0
 20 15  1  0
M  END
>  <Binding energies>  (5) 
[-7.68]

>  <Ligand effiencies>  (5) 
[-0.34909090909090906]

>  <Interactions>  (5) 
["V-B:TYR:539:CD2:9845, V-A:GLU:543:CD:4907, V-B:TYR:539:CE2:9847, V-B:TYR:539:CG:9843, V-A:VAL:384:C:3396, V-A:ILE:369:CG2:3236, V-A:ARG:545:CZ:4925, V-A:SER:385:CA:3406, V-A:SER:385:CB:3408, V-A:ARG:545:CD:4922, H-A:GLY:454:N:4049, V-A:ARG:545:CG:4921, V-A:ILE:369:CD1:3238, V-A:LEU:475:CD2:4258, V-A:HIS:383:CE1:3393, V-B:TYR:539:CB:9842, H-A:TYR:484:OH:4347, V-A:LEU:373:CD2:3280, V-A:GLY:453:C:4041, V-A:GLY:454:CA:4048, V-A:LEU:373:CG:3278, V-A:SER:385:C:3404, H-A:SER:385:O:3405, V-A:LEU:373:CD1:3279"]

$$$$
1e_Grossjean_2025
     RDKit          3D

 22 23  0  0  0  0  0  0  0  0999 V2000
  133.9890  119.0060   59.6140 C   0  0  0  0  0  0  0  0  0  0  0  0
  132.6900  118.7420   60.3520 C   0  0  0  0  0  0  0  0  0  0  0  0
  132.3380  117.4580   60.7770 C   0  0  0  0  0  0  0  0  0  0  0  0
  131.1260  117.2910   61.4480 C   0  0  0  0  0  0  0  0  0  0  0  0
  130.3030  118.3960   61.6740 C   0  0  0  0  0  0  0  0  0  0  0  0
  130.7190  119.6560   61.2260 C   0  0  0  0  0  0  0  0  0  0  0  0
  129.8430  120.7280   61.4720 N   0  0  0  0  0  0  0  0  0  0  0  0
  129.8730  121.6220   62.4850 C   0  0  0  0  0  0  0  0  0  0  0  0
  130.7030  121.6310   63.3960 O   0  0  0  0  0  0  0  0  0  0  0  0
  128.7580  122.6710   62.4800 C   0  0  0  0  0  0  0  0  0  0  0  0
  128.4250  123.3010   60.8070 S   0  0  0  0  0  0  0  0  0  0  0  0
  126.6630  123.4800   60.6060 C   0  0  0  0  0  0  0  0  0  0  0  0
  125.9650  123.2640   61.7500 N   0  0  0  0  0  0  0  0  0  0  0  0
  124.6160  123.3690   61.7210 C   0  0  0  0  0  0  0  0  0  0  0  0
  123.9050  123.1210   63.0370 C   0  0  0  0  0  0  0  0  0  0  0  0
  123.9110  123.6780   60.5590 C   0  0  0  0  0  0  0  0  0  0  0  0
  124.6180  123.8790   59.3690 C   0  0  0  0  0  0  0  0  0  0  0  0
  123.8210  124.1990   58.1060 C   0  0  0  0  0  0  0  0  0  0  0  0
  126.0280  123.7710   59.3750 C   0  0  0  0  0  0  0  0  0  0  0  0
  126.7780  123.9200   58.1260 C   0  0  0  0  0  0  0  0  0  0  0  0
  127.3690  124.0390   57.1380 N   0  0  0  0  0  0  0  0  0  0  0  0
  131.9020  119.8260   60.5650 N   0  0  0  0  0  0  0  0  0  0  0  0
  1  2  1  0
  2  3  2  0
  3  4  1  0
  4  5  2  0
  5  6  1  0
  6  7  1  0
  7  8  1  0
  8  9  2  0
  8 10  1  0
 10 11  1  0
 11 12  1  0
 12 13  2  0
 13 14  1  0
 14 15  1  0
 14 16  2  0
 16 17  1  0
 17 18  1  0
 17 19  2  0
 19 20  1  0
 20 21  3  0
  6 22  2  0
 22  2  1  0
 19 12  1  0
M  END
>  <Binding energies>  (6) 
[-7.7]

>  <Ligand effiencies>  (6) 
[-0.3347826086956522]

>  <Interactions>  (6) 
["V-B:LEU:363:CD1:8159, V-B:TYR:539:CD2:9845, V-B:ASP:366:CG:8183, V-B:TYR:539:C:9838, V-B:PRO:540:CB:9856, V-B:ASP:366:CB:8182, H-B:TYR:531:OH:9766, V-B:ARG:545:CZ:9897, V-A:VAL:384:C:3396, V-A:ILE:369:CG2:3236, V-A:SER:385:CA:3406, V-B:ALA:541:C:9859, V-A:SER:385:CB:3408, V-B:ALA:541:CB:9863, V-A:LEU:475:CD2:4258, V-A:HIS:383:CE1:3393, V-A:PRO:482:CG:4326, V-B:PRO:540:CA:9854, H-B:ALA:541:N:9862, V-B:LEU:363:CA:8155, V-B:ASN:362:CB:8146, V-A:PRO:482:CB:4325, V-B:ASN:362:CG:8147, V-A:LEU:373:CD2:3280, H-B:TYR:539:O:9839"]

$$$$
1f_Grossjean_2025
     RDKit          3D

 21 22  0  0  0  0  0  0  0  0999 V2000
  129.7030  116.6500   60.6750 C   0  0  0  0  0  0  0  0  0  0  0  0
  130.6180  117.8600   60.7010 C   0  0  0  0  0  0  0  0  0  0  0  0
  131.8210  117.8810   60.0000 C   0  0  0  0  0  0  0  0  0  0  0  0
  132.6290  119.0200   60.0720 C   0  0  0  0  0  0  0  0  0  0  0  0
  133.9530  119.0120   59.3090 C   0  0  0  0  0  0  0  0  0  0  0  0
  132.2020  120.1240   60.8450 C   0  0  0  0  0  0  0  0  0  0  0  0
  133.0600  121.3040   60.9770 C   0  0  0  0  0  0  0  0  0  0  0  0
  133.7390  122.2350   61.0800 N   0  0  0  0  0  0  0  0  0  0  0  0
  130.9520  120.0260   61.5010 C   0  0  0  0  0  0  0  0  0  0  0  0
  130.2510  121.3120   62.5170 S   0  0  0  0  0  0  0  0  0  0  0  0
  129.8900  122.7520   61.4550 C   0  0  0  0  0  0  0  0  0  0  0  0
  128.5280  122.7060   60.7460 C   0  0  0  0  0  0  0  0  0  0  0  0
  127.4910  122.5600   61.3940 O   0  0  0  0  0  0  0  0  0  0  0  0
  128.5910  122.8120   59.4020 N   0  0  0  0  0  0  0  0  0  0  0  0
  127.5540  122.8160   58.4500 C   0  0  0  0  0  0  0  0  0  0  0  0
  126.3200  123.4810   58.5860 C   0  0  0  0  0  0  0  0  0  0  0  0
  125.3770  123.4040   57.5570 C   0  0  0  0  0  0  0  0  0  0  0  0
  125.6920  122.6670   56.4160 C   0  0  0  0  0  0  0  0  0  0  0  0
  126.8740  122.0220   56.2580 N   0  0  0  0  0  0  0  0  0  0  0  0
  127.7810  122.1060   57.2670 C   0  0  0  0  0  0  0  0  0  0  0  0
  130.1880  118.9070   61.4450 N   0  0  0  0  0  0  0  0  0  0  0  0
  1  2  1  0
  2  3  2  0
  3  4  1  0
  4  5  1  0
  4  6  2  0
  6  7  1  0
  7  8  3  0
  6  9  1  0
  9 10  1  0
 10 11  1  0
 11 12  1  0
 12 13  2  0
 12 14  1  0
 14 15  1  0
 15 16  2  0
 16 17  1  0
 17 18  2  0
 18 19  1  0
 19 20  2  0
  9 21  2  0
 21  2  1  0
 20 15  1  0
M  END
>  <Binding energies>  (7) 
[-7.98]

>  <Ligand effiencies>  (7) 
[-0.36272727272727273]

>  <Interactions>  (7) 
["V-B:PRO:540:CD:9858, V-B:PRO:540:N:9855, H-B:TYR:539:N:9841, V-B:LEU:363:CD1:8159, V-B:MET:535:CE:9806, V-B:TYR:539:CD2:9845, V-B:TYR:539:CZ:9848, V-B:TYR:539:C:9838, V-B:TYR:539:CE1:9846, V-B:TYR:539:CD1:9844, V-B:PRO:540:CB:9856, V-B:TYR:539:CE2:9847, V-B:TYR:539:CG:9843, V-A:VAL:384:C:3396, V-A:ILE:369:CG2:3236, V-A:SER:385:CA:3406, V-B:ALA:541:CB:9863, V-A:LEU:475:CD2:4258, V-A:HIS:383:CE1:3393, V-A:PRO:482:CG:4326, V-B:PRO:540:CA:9854, V-B:TYR:539:CB:9842, H-B:ALA:541:N:9862, V-A:PRO:482:CB:4325, V-A:LEU:373:CD2:3280, H-B:TYR:539:O:9839, V-A:LEU:373:CG:3278, V-B:VAL:344:CG1:7971, V-B:TYR:539:CA:9840"]

$$$$
1g_Grossjean_2025
     RDKit          3D

 22 23  0  0  0  0  0  0  0  0999 V2000
  135.0710  125.7300   67.4250 C   0  0  0  0  0  0  0  0  0  0  0  0
  133.8110  125.7820   66.5820 C   0  0  0  0  0  0  0  0  0  0  0  0
  132.6580  126.4240   67.0310 C   0  0  0  0  0  0  0  0  0  0  0  0
  131.5210  126.4260   66.2170 C   0  0  0  0  0  0  0  0  0  0  0  0
  130.2640  127.1240   66.7380 C   0  0  0  0  0  0  0  0  0  0  0  0
  131.5700  125.7870   64.9580 C   0  0  0  0  0  0  0  0  0  0  0  0
  130.3760  125.7310   64.1110 C   0  0  0  0  0  0  0  0  0  0  0  0
  129.4300  125.6880   63.4450 N   0  0  0  0  0  0  0  0  0  0  0  0
  132.7900  125.1820   64.5730 C   0  0  0  0  0  0  0  0  0  0  0  0
  133.0300  124.3440   63.0220 S   0  0  0  0  0  0  0  0  0  0  0  0
  132.9160  122.5600   63.3490 C   0  0  0  0  0  0  0  0  0  0  0  0
  132.8500  121.7440   62.0580 C   0  0  0  0  0  0  0  0  0  0  0  0
  131.9250  121.9190   61.2640 O   0  0  0  0  0  0  0  0  0  0  0  0
  133.8370  120.8510   61.8670 N   0  0  0  0  0  0  0  0  0  0  0  0
  134.0030  120.0100   60.6810 C   0  0  0  0  0  0  0  0  0  0  0  0
  132.8860  118.9920   60.4720 C   0  0  0  0  0  0  0  0  0  0  0  0
  132.8080  118.2770   59.2730 C   0  0  0  0  0  0  0  0  0  0  0  0
  131.7890  117.3480   59.0820 C   0  0  0  0  0  0  0  0  0  0  0  0
  130.8540  117.1330   60.0930 C   0  0  0  0  0  0  0  0  0  0  0  0
  130.9290  117.8380   61.2920 C   0  0  0  0  0  0  0  0  0  0  0  0
  131.9460  118.7690   61.4830 C   0  0  0  0  0  0  0  0  0  0  0  0
  133.8820  125.1660   65.3790 N   0  0  0  0  0  0  0  0  0  0  0  0
  1  2  1  0
  2  3  2  0
  3  4  1  0
  4  5  1  0
  4  6  2  0
  6  7  1  0
  7  8  3  0
  6  9  1  0
  9 10  1  0
 10 11  1  0
 11 12  1  0
 12 13  2  0
 12 14  1  0
 14 15  1  0
 15 16  1  0
 16 17  2  0
 17 18  1  0
 18 19  2  0
 19 20  1  0
 20 21  2  0
  9 22  2  0
 22  2  1  0
 21 16  1  0
M  END
>  <Binding energies>  (8) 
[-7.8]

>  <Ligand effiencies>  (8) 
[-0.3391304347826087]

>  <Interactions>  (8) 
["V-B:TYR:539:CD2:9845, V-A:HIS:456:CE1:4069, V-A:GLU:543:CD:4907, V-B:TYR:539:CG:9843, V-A:ILE:369:CG2:3236, V-A:ARG:545:CZ:4925, V-A:SER:385:CA:3406, V-A:SER:385:CB:3408, V-A:ARG:545:CD:4922, H-A:GLY:454:N:4049, V-A:ARG:545:CG:4921, V-A:ILE:369:CD1:3238, V-A:LEU:475:CD2:4258, V-A:HIS:383:CE1:3393, V-A:PRO:482:CG:4326, V-B:TYR:539:CB:9842, H-A:TYR:484:OH:4347, V-A:PRO:482:CB:4325, V-A:LEU:373:CD2:3280, V-A:GLY:453:C:4041, V-A:GLY:453:CA:4043, V-A:GLY:454:CA:4048, V-A:LEU:373:CG:3278, V-B:VAL:344:CG1:7971, V-A:ARG:545:CB:4920, V-A:SER:385:C:3404, H-A:SER:385:O:3405, V-A:ILE:455:C:4051, V-A:LEU:373:CD1:3279"]

$$$$
1h_Grossjean_2025
     RDKit          3D

 28 29  0  0  0  0  0  0  0  0999 V2000
  133.7710  125.8210   66.4980 C   0  0  0  0  0  0  0  0  0  0  0  0
  133.9970  125.2340   65.2210 O   0  0  0  0  0  0  0  0  0  0  0  0
  133.0440  125.3770   64.2300 C   0  0  0  0  0  0  0  0  0  0  0  0
  131.9370  126.2350   64.3250 C   0  0  0  0  0  0  0  0  0  0  0  0
  131.0050  126.3180   63.2890 C   0  0  0  0  0  0  0  0  0  0  0  0
  129.8190  127.2720   63.3960 C   0  0  0  0  0  0  0  0  0  0  0  0
  128.5170  126.6080   63.3520 N   0  0  0  0  0  0  0  0  0  0  0  0
  127.8840  126.2090   62.2340 C   0  0  0  0  0  0  0  0  0  0  0  0
  128.3510  126.3380   61.1030 O   0  0  0  0  0  0  0  0  0  0  0  0
  126.5070  125.5710   62.4200 C   0  0  0  0  0  0  0  0  0  0  0  0
  126.4960  123.8210   61.9260 S   0  0  0  0  0  0  0  0  0  0  0  0
  128.0420  123.0910   62.4380 C   0  0  0  0  0  0  0  0  0  0  0  0
  128.3140  123.1560   63.7680 N   0  0  0  0  0  0  0  0  0  0  0  0
  129.4690  122.6170   64.2250 C   0  0  0  0  0  0  0  0  0  0  0  0
  129.6980  122.7250   65.7210 C   0  0  0  0  0  0  0  0  0  0  0  0
  130.3940  122.0000   63.3870 C   0  0  0  0  0  0  0  0  0  0  0  0
  130.1270  121.9280   62.0150 C   0  0  0  0  0  0  0  0  0  0  0  0
  131.1540  121.2450   61.1140 C   0  0  0  0  0  0  0  0  0  0  0  0
  128.9270  122.4840   61.5160 C   0  0  0  0  0  0  0  0  0  0  0  0
  128.6220  122.4260   60.0840 C   0  0  0  0  0  0  0  0  0  0  0  0
  128.3820  122.3800   58.9530 N   0  0  0  0  0  0  0  0  0  0  0  0
  131.1970  125.5660   62.1290 C   0  0  0  0  0  0  0  0  0  0  0  0
  132.2980  124.7040   62.0040 C   0  0  0  0  0  0  0  0  0  0  0  0
  132.5480  123.9290   60.8870 O   0  0  0  0  0  0  0  0  0  0  0  0
  132.5130  124.5300   59.5960 C   0  0  0  0  0  0  0  0  0  0  0  0
  133.2080  124.6110   63.0670 C   0  0  0  0  0  0  0  0  0  0  0  0
  134.2940  123.7760   62.9560 O   0  0  0  0  0  0  0  0  0  0  0  0
  133.9620  122.3940   62.9390 C   0  0  0  0  0  0  0  0  0  0  0  0
  1  2  1  0
  2  3  1  0
  3  4  2  0
  4  5  1  0
  5  6  1  0
  6  7  1  0
  7  8  1  0
  8  9  2  0
  8 10  1  0
 10 11  1  0
 11 12  1  0
 12 13  2  0
 13 14  1  0
 14 15  1  0
 14 16  2  0
 16 17  1  0
 17 18  1  0
 17 19  2  0
 19 20  1  0
 20 21  3  0
  5 22  2  0
 22 23  1  0
 23 24  1  0
 24 25  1  0
 23 26  2  0
 26 27  1  0
 27 28  1  0
 26  3  1  0
 19 12  1  0
M  END
>  <Binding energies>  (9) 
[-6.05]

>  <Ligand effiencies>  (9) 
[-0.20862068965517241]

>  <Interactions>  (9) 
["V-B:PRO:540:N:9855, V-B:TYR:539:CD2:9845, V-B:TYR:539:C:9838, V-B:TYR:539:CE2:9847, V-B:GLU:543:CD:9879, V-A:ASP:366:CG:3212, V-A:ASP:366:CB:3211, V-B:GLU:543:CG:9878, V-A:TYR:484:CZ:4346, V-A:ARG:545:CZ:4925, V-A:ARG:545:CD:4922, V-A:TYR:484:CE2:4345, H-A:GLY:454:N:4049, V-B:ALA:541:CB:9863, V-A:ARG:545:CG:4921, V-A:ILE:369:CD1:3238, V-A:LEU:475:CD2:4258, V-A:LEU:475:CD1:4257, V-B:PRO:540:CA:9854, H-A:TYR:484:OH:4347, H-B:ALA:541:N:9862, V-A:GLY:454:CA:4048, H-B:GLU:543:OE2:9881, H-B:GLU:543:OE1:9880"]

$$$$
1i_Grossjean_2025
     RDKit          3D

 20 21  0  0  0  0  0  0  0  0999 V2000
  130.4240  117.1040   60.8760 C   0  0  0  0  0  0  0  0  0  0  0  0
  131.0200  118.4800   61.1030 C   0  0  0  0  0  0  0  0  0  0  0  0
  132.3610  118.7470   60.8380 C   0  0  0  0  0  0  0  0  0  0  0  0
  132.8540  120.0390   61.0580 C   0  0  0  0  0  0  0  0  0  0  0  0
  134.3240  120.3110   60.7440 C   0  0  0  0  0  0  0  0  0  0  0  0
  131.9810  121.0370   61.5490 C   0  0  0  0  0  0  0  0  0  0  0  0
  132.4630  122.4080   61.7380 C   0  0  0  0  0  0  0  0  0  0  0  0
  132.8460  123.4900   61.8850 N   0  0  0  0  0  0  0  0  0  0  0  0
  130.6410  120.6700   61.8130 C   0  0  0  0  0  0  0  0  0  0  0  0
  129.4100  121.7960   62.4320 S   0  0  0  0  0  0  0  0  0  0  0  0
  129.2220  123.1310   61.2130 C   0  0  0  0  0  0  0  0  0  0  0  0
  127.9820  122.9400   60.3370 C   0  0  0  0  0  0  0  0  0  0  0  0
  126.8750  122.8540   60.8690 O   0  0  0  0  0  0  0  0  0  0  0  0
  128.2120  122.8830   59.0060 N   0  0  0  0  0  0  0  0  0  0  0  0
  127.2750  122.7120   57.9980 C   0  0  0  0  0  0  0  0  0  0  0  0
  126.1660  123.5420   57.8410 C   0  0  0  0  0  0  0  0  0  0  0  0
  125.4990  123.0450   56.7450 C   0  0  0  0  0  0  0  0  0  0  0  0
  126.1700  121.9700   56.2680 O   0  0  0  0  0  0  0  0  0  0  0  0
  127.2930  121.7680   57.0710 N   0  0  0  0  0  0  0  0  0  0  0  0
  130.1680  119.4200   61.5770 N   0  0  0  0  0  0  0  0  0  0  0  0
  1  2  1  0
  2  3  2  0
  3  4  1  0
  4  5  1  0
  4  6  2  0
  6  7  1  0
  7  8  3  0
  6  9  1  0
  9 10  1  0
 10 11  1  0
 11 12  1  0
 12 13  2  0
 12 14  1  0
 14 15  1  0
 15 16  1  0
 16 17  2  0
 17 18  1  0
 18 19  1  0
  9 20  2  0
 20  2  1  0
 19 15  2  0
M  END
>  <Binding energies>  (10) 
[-7.23]

>  <Ligand effiencies>  (10) 
[-0.3442857142857143]

>  <Interactions>  (10) 
["V-B:PRO:540:N:9855, V-B:TYR:531:CE2:9764, H-B:TYR:539:N:9841, V-B:LEU:363:CD1:8159, V-B:TYR:539:CD2:9845, V-B:TYR:539:C:9838, V-B:PRO:540:CB:9856, V-B:TYR:539:CE2:9847, V-A:ILE:369:CG2:3236, V-A:SER:385:CA:3406, V-A:SER:385:CB:3408, V-B:ALA:541:CB:9863, V-A:ILE:369:CD1:3238, V-A:LEU:475:CD2:4258, V-A:HIS:383:CE1:3393, V-A:PRO:482:CG:4326, V-B:PRO:540:CA:9854, H-B:ALA:541:N:9862, V-A:PRO:482:CB:4325, H-B:TYR:539:O:9839, V-B:VAL:344:CG1:7971, V-A:SER:385:C:3404"]

$$$$
1k_Grossjean_2025
     RDKit          3D

 25 25  0  0  0  0  0  0  0  0999 V2000
  131.3450  117.4440   59.9090 C   0  0  0  0  0  0  0  0  0  0  0  0
  132.6940  117.5060   59.4750 O   0  0  0  0  0  0  0  0  0  0  0  0
  133.2610  118.8060   59.5720 C   0  0  0  0  0  0  0  0  0  0  0  0
  132.6410  119.5480   60.7630 C   0  0  0  0  0  0  0  0  0  0  0  0
  133.5040  120.6050   61.1640 O   0  0  0  0  0  0  0  0  0  0  0  0
  132.8720  121.8770   61.2000 C   0  0  0  0  0  0  0  0  0  0  0  0
  133.7960  122.8860   61.8930 C   0  0  0  0  0  0  0  0  0  0  0  0
  133.0670  124.0700   62.1920 O   0  0  0  0  0  0  0  0  0  0  0  0
  133.5410  124.7570   63.3430 C   0  0  0  0  0  0  0  0  0  0  0  0
  132.5110  124.6290   64.4810 C   0  0  0  0  0  0  0  0  0  0  0  0
  131.2410  124.0270   64.0700 N   0  0  0  0  0  0  0  0  0  0  0  0
  130.2170  123.7420   64.8930 C   0  0  0  0  0  0  0  0  0  0  0  0
  130.2430  123.9710   66.1040 O   0  0  0  0  0  0  0  0  0  0  0  0
  128.9910  123.0990   64.2260 C   0  0  0  0  0  0  0  0  0  0  0  0
  129.1090  122.8590   62.4190 S   0  0  0  0  0  0  0  0  0  0  0  0
  127.5350  123.2540   61.6710 C   0  0  0  0  0  0  0  0  0  0  0  0
  126.4580  123.2170   62.4990 N   0  0  0  0  0  0  0  0  0  0  0  0
  125.2350  123.4960   61.9940 C   0  0  0  0  0  0  0  0  0  0  0  0
  124.0840  123.4260   62.9780 C   0  0  0  0  0  0  0  0  0  0  0  0
  125.0320  123.8290   60.6560 C   0  0  0  0  0  0  0  0  0  0  0  0
  126.1330  123.8770   59.7940 C   0  0  0  0  0  0  0  0  0  0  0  0
  125.8890  124.2440   58.3320 C   0  0  0  0  0  0  0  0  0  0  0  0
  127.4190  123.5850   60.3010 C   0  0  0  0  0  0  0  0  0  0  0  0
  128.5900  123.6240   59.4200 C   0  0  0  0  0  0  0  0  0  0  0  0
  129.5140  123.6550   58.7240 N   0  0  0  0  0  0  0  0  0  0  0  0
  1  2  1  0
  2  3  1  0
  3  4  1  0
  4  5  1  0
  5  6  1  0
  6  7  1  0
  7  8  1  0
  8  9  1  0
  9 10  1  0
 10 11  1  0
 11 12  1  0
 12 13  2  0
 12 14  1  0
 14 15  1  0
 15 16  1  0
 16 17  2  0
 17 18  1  0
 18 19  1  0
 18 20  2  0
 20 21  1  0
 21 22  1  0
 21 23  2  0
 23 24  1  0
 24 25  3  0
 23 16  1  0
M  END
>  <Binding energies>  (11) 
[-5.58]

>  <Ligand effiencies>  (11) 
[-0.21461538461538462]

>  <Interactions>  (11) 
["V-B:TYR:539:CD2:9845, V-B:PRO:540:CB:9856, V-B:TYR:539:CE2:9847, V-B:GLU:543:CD:9879, V-A:ASP:366:CG:3212, V-B:GLU:543:CG:9878, V-B:ARG:545:CZ:9897, V-A:VAL:384:C:3396, V-A:ILE:369:CG2:3236, V-A:SER:385:CA:3406, V-B:ALA:541:CB:9863, V-A:ILE:369:CD1:3238, V-A:HIS:383:CE1:3393, V-B:PRO:540:CA:9854, V-B:TYR:539:CB:9842, H-A:TYR:484:OH:4347, H-B:ALA:541:N:9862, V-B:ASN:362:CB:8146, V-B:ASN:362:CG:8147, V-A:LEU:373:CD2:3280, H-A:HIS:383:ND1:3390"]

$$$$
1l_Grossjean_2025
     RDKit          3D

 17 17  0  0  0  0  0  0  0  0999 V2000
  131.8070  117.9080   59.9260 C   0  0  0  0  0  0  0  0  0  0  0  0
  131.4920  118.4660   61.1940 O   0  0  0  0  0  0  0  0  0  0  0  0
  130.6220  119.5430   61.0360 N   0  0  0  0  0  0  0  0  0  0  0  0
  130.8790  120.6920   61.6900 C   0  0  0  0  0  0  0  0  0  0  0  0
  131.9530  120.9370   62.2450 O   0  0  0  0  0  0  0  0  0  0  0  0
  129.7310  121.7120   61.6920 C   0  0  0  0  0  0  0  0  0  0  0  0
  129.2340  122.3170   60.0440 S   0  0  0  0  0  0  0  0  0  0  0  0
  127.5600  122.9250   60.1570 C   0  0  0  0  0  0  0  0  0  0  0  0
  127.1120  123.1920   61.4120 N   0  0  0  0  0  0  0  0  0  0  0  0
  125.8500  123.6550   61.5700 C   0  0  0  0  0  0  0  0  0  0  0  0
  125.4240  123.9290   63.0000 C   0  0  0  0  0  0  0  0  0  0  0  0
  124.9880  123.8720   60.4980 C   0  0  0  0  0  0  0  0  0  0  0  0
  125.4380  123.6030   59.2010 C   0  0  0  0  0  0  0  0  0  0  0  0
  124.4760  123.8500   58.0390 C   0  0  0  0  0  0  0  0  0  0  0  0
  126.7510  123.1180   59.0130 C   0  0  0  0  0  0  0  0  0  0  0  0
  127.2490  122.8270   57.6640 C   0  0  0  0  0  0  0  0  0  0  0  0
  127.6400  122.5980   56.6000 N   0  0  0  0  0  0  0  0  0  0  0  0
  1  2  1  0
  2  3  1  0
  3  4  1  0
  4  5  2  0
  4  6  1  0
  6  7  1  0
  7  8  1  0
  8  9  2  0
  9 10  1  0
 10 11  1  0
 10 12  2  0
 12 13  1  0
 13 14  1  0
 13 15  2  0
 15 16  1  0
 16 17  3  0
 15  8  1  0
M  END
>  <Binding energies>  (12) 
[-5.92]

>  <Ligand effiencies>  (12) 
[-0.3288888888888889]

>  <Interactions>  (12) 
["V-B:PRO:540:N:9855, H-B:TYR:539:N:9841, V-B:LEU:363:CD1:8159, V-B:MET:535:CE:9806, V-B:TYR:539:CD2:9845, V-B:TYR:539:C:9838, V-B:PRO:540:CB:9856, V-B:GLU:543:CD:9879, V-B:TYR:539:CG:9843, V-B:GLU:543:CG:9878, V-B:ALA:541:CB:9863, V-A:LEU:475:CD2:4258, V-A:HIS:383:CE1:3393, V-B:PRO:540:CA:9854, V-B:TYR:539:CB:9842, H-B:ALA:541:N:9862, H-B:TYR:539:O:9839"]

$$$$
1m_Grossjean_2025
     RDKit          3D

 20 20  0  0  0  0  0  0  0  0999 V2000
  124.6150  123.6300   56.9110 C   0  0  0  0  0  0  0  0  0  0  0  0
  125.7770  123.1240   56.2700 O   0  0  0  0  0  0  0  0  0  0  0  0
  126.8170  122.6670   56.9980 C   0  0  0  0  0  0  0  0  0  0  0  0
  127.7890  122.0490   56.5510 O   0  0  0  0  0  0  0  0  0  0  0  0
  126.6620  123.0210   58.4910 C   0  0  0  0  0  0  0  0  0  0  0  0
  127.9390  122.9930   59.2200 N   0  0  0  0  0  0  0  0  0  0  0  0
  128.0810  122.8590   60.5520 C   0  0  0  0  0  0  0  0  0  0  0  0
  127.1240  122.7590   61.3230 O   0  0  0  0  0  0  0  0  0  0  0  0
  129.5270  122.8470   61.0650 C   0  0  0  0  0  0  0  0  0  0  0  0
  129.8850  121.5560   62.3060 S   0  0  0  0  0  0  0  0  0  0  0  0
  130.8260  120.2730   61.5090 C   0  0  0  0  0  0  0  0  0  0  0  0
  130.1570  119.0970   61.4010 N   0  0  0  0  0  0  0  0  0  0  0  0
  130.7720  118.0490   60.8050 C   0  0  0  0  0  0  0  0  0  0  0  0
  129.9560  116.7750   60.7040 C   0  0  0  0  0  0  0  0  0  0  0  0
  132.0720  118.1240   60.3080 C   0  0  0  0  0  0  0  0  0  0  0  0
  132.7810  119.3230   60.4380 C   0  0  0  0  0  0  0  0  0  0  0  0
  134.2090  119.3770   59.9000 C   0  0  0  0  0  0  0  0  0  0  0  0
  132.1580  120.4310   61.0570 C   0  0  0  0  0  0  0  0  0  0  0  0
  132.9000  121.6800   61.2480 C   0  0  0  0  0  0  0  0  0  0  0  0
  133.4850  122.6670   61.3970 N   0  0  0  0  0  0  0  0  0  0  0  0
  1  2  1  0
  2  3  1  0
  3  4  2  0
  3  5  1  0
  5  6  1  0
  6  7  1  0
  7  8  2  0
  7  9  1  0
  9 10  1  0
 10 11  1  0
 11 12  2  0
 12 13  1  0
 13 14  1  0
 13 15  2  0
 15 16  1  0
 16 17  1  0
 16 18  2  0
 18 19  1  0
 19 20  3  0
 18 11  1  0
M  END
>  <Binding energies>  (13) 
[-6.94]

>  <Ligand effiencies>  (13) 
[-0.3304761904761905]

>  <Interactions>  (13) 
["V-B:PRO:540:N:9855, V-B:TYR:531:CE2:9764, H-B:TYR:539:N:9841, V-B:LEU:363:CD1:8159, V-B:MET:535:CE:9806, V-B:TYR:539:CD2:9845, V-B:TYR:539:C:9838, V-B:PRO:540:CB:9856, V-B:TYR:539:CE2:9847, H-B:TYR:531:OH:9766, V-A:VAL:384:C:3396, V-A:ILE:369:CG2:3236, V-A:SER:385:CA:3406, V-B:ALA:541:CB:9863, V-A:LEU:475:CD2:4258, V-A:HIS:383:CE1:3393, V-A:PRO:482:CG:4326, V-B:PRO:540:CA:9854, V-B:TYR:539:CB:9842, H-B:ALA:541:N:9862, V-A:PRO:482:CB:4325, V-B:VAL:344:CG1:7971, V-A:SER:385:C:3404, V-B:TYR:531:CZ:9765"]

$$$$
1n_Grossjean_2025
     RDKit          3D

 27 28  0  0  0  0  0  0  0  0999 V2000
  124.6600  125.9250   58.1440 C   0  0  0  0  0  0  0  0  0  0  0  0
  124.7730  124.4090   57.9580 C   0  0  0  0  0  0  0  0  0  0  0  0
  125.6710  124.1290   56.8910 O   0  0  0  0  0  0  0  0  0  0  0  0
  126.4650  123.0280   56.9140 C   0  0  0  0  0  0  0  0  0  0  0  0
  126.2080  121.9910   56.2960 O   0  0  0  0  0  0  0  0  0  0  0  0
  127.6970  123.2030   57.7550 C   0  0  0  0  0  0  0  0  0  0  0  0
  127.9680  122.3750   58.8560 C   0  0  0  0  0  0  0  0  0  0  0  0
  129.1170  122.5660   59.6170 C   0  0  0  0  0  0  0  0  0  0  0  0
  130.0130  123.5880   59.3020 C   0  0  0  0  0  0  0  0  0  0  0  0
  131.1390  123.6950   60.1420 N   0  0  0  0  0  0  0  0  0  0  0  0
  132.4180  124.0020   59.8360 C   0  0  0  0  0  0  0  0  0  0  0  0
  132.8400  124.2620   58.7080 O   0  0  0  0  0  0  0  0  0  0  0  0
  133.3970  124.0200   61.0170 C   0  0  0  0  0  0  0  0  0  0  0  0
  133.7150  122.6110   61.5630 C   0  0  0  0  0  0  0  0  0  0  0  0
  132.9900  122.2520   63.1910 S   0  0  0  0  0  0  0  0  0  0  0  0
  131.6130  123.3560   63.4240 C   0  0  0  0  0  0  0  0  0  0  0  0
  130.4310  122.8470   62.9960 N   0  0  0  0  0  0  0  0  0  0  0  0
  129.3110  123.5940   63.1390 C   0  0  0  0  0  0  0  0  0  0  0  0
  128.0260  122.9560   62.6480 C   0  0  0  0  0  0  0  0  0  0  0  0
  129.3240  124.8680   63.7030 C   0  0  0  0  0  0  0  0  0  0  0  0
  130.5420  125.4100   64.1280 C   0  0  0  0  0  0  0  0  0  0  0  0
  130.5340  126.8140   64.7300 C   0  0  0  0  0  0  0  0  0  0  0  0
  131.7250  124.6500   63.9840 C   0  0  0  0  0  0  0  0  0  0  0  0
  133.0170  125.2180   64.3750 C   0  0  0  0  0  0  0  0  0  0  0  0
  134.0370  125.6690   64.6840 N   0  0  0  0  0  0  0  0  0  0  0  0
  129.7540  124.4130   58.1980 C   0  0  0  0  0  0  0  0  0  0  0  0
  128.6060  124.2190   57.4360 C   0  0  0  0  0  0  0  0  0  0  0  0
  1  2  1  0
  2  3  1  0
  3  4  1  0
  4  5  2  0
  4  6  1  0
  6  7  2  0
  7  8  1  0
  8  9  2  0
  9 10  1  0
 10 11  1  0
 11 12  2  0
 11 13  1  0
 13 14  1  0
 14 15  1  0
 15 16  1  0
 16 17  2  0
 17 18  1  0
 18 19  1  0
 18 20  2  0
 20 21  1  0
 21 22  1  0
 21 23  2  0
 23 24  1  0
 24 25  3  0
  9 26  1  0
 26 27  2  0
 27  6  1  0
 23 16  1  0
M  END
>  <Binding energies>  (14) 
[-7.3]

>  <Ligand effiencies>  (14) 
[-0.26071428571428573]

>  <Interactions>  (14) 
["V-B:PRO:540:N:9855, H-B:TYR:539:N:9841, V-B:MET:535:CE:9806, V-B:TYR:539:CD2:9845, V-B:ASP:366:CG:8183, V-B:TYR:539:CZ:9848, V-B:TYR:539:C:9838, V-A:GLU:543:CD:4907, V-B:TYR:539:CE2:9847, V-B:ASP:366:CB:8182, V-B:GLU:543:CD:9879, V-B:TYR:539:CG:9843, V-A:ASP:366:CG:3212, H-B:TYR:531:OH:9766, H-A:ARG:545:NE:4923, V-A:ILE:369:CG2:3236, V-A:ARG:545:CZ:4925, H-A:ARG:545:NH1:4926, H-A:GLY:454:N:4049, V-B:ALA:541:CB:9863, H-A:ARG:545:NH2:4927, V-A:ILE:369:CD1:3238, V-B:ALA:541:CA:9861, H-B:TYR:539:OH:9849, V-B:PRO:540:CA:9854, V-B:TYR:531:CZ:9765"]

$$$$
1q_Grossjean_2025
     RDKit          3D

 21 21  0  0  0  0  0  0  0  0999 V2000
  134.2810  125.7360   67.7140 C   0  0  0  0  0  0  0  0  0  0  0  0
  133.0930  126.0540   67.0020 O   0  0  0  0  0  0  0  0  0  0  0  0
  132.9940  125.7920   65.6760 C   0  0  0  0  0  0  0  0  0  0  0  0
  133.9140  125.4070   64.9520 O   0  0  0  0  0  0  0  0  0  0  0  0
  131.5900  126.0470   65.0880 C   0  0  0  0  0  0  0  0  0  0  0  0
  130.7570  124.8350   65.0430 N   0  0  0  0  0  0  0  0  0  0  0  0
  131.1850  123.5930   64.7480 C   0  0  0  0  0  0  0  0  0  0  0  0
  132.3590  123.3320   64.4770 O   0  0  0  0  0  0  0  0  0  0  0  0
  130.1190  122.4890   64.7810 C   0  0  0  0  0  0  0  0  0  0  0  0
  128.8130  122.8460   64.0450 C   0  0  0  0  0  0  0  0  0  0  0  0
  128.9070  122.6210   62.2440 S   0  0  0  0  0  0  0  0  0  0  0  0
  130.2280  121.4820   61.8830 C   0  0  0  0  0  0  0  0  0  0  0  0
  129.8200  120.1890   61.8110 N   0  0  0  0  0  0  0  0  0  0  0  0
  130.7360  119.2300   61.5440 C   0  0  0  0  0  0  0  0  0  0  0  0
  130.2070  117.8080   61.4960 C   0  0  0  0  0  0  0  0  0  0  0  0
  132.0820  119.5150   61.3290 C   0  0  0  0  0  0  0  0  0  0  0  0
  132.5100  120.8450   61.3760 C   0  0  0  0  0  0  0  0  0  0  0  0
  133.9890  121.1340   61.1190 C   0  0  0  0  0  0  0  0  0  0  0  0
  131.5710  121.8650   61.6500 C   0  0  0  0  0  0  0  0  0  0  0  0
  131.9910  123.2680   61.6470 C   0  0  0  0  0  0  0  0  0  0  0  0
  132.3260  124.3760   61.6430 N   0  0  0  0  0  0  0  0  0  0  0  0
  1  2  1  0
  2  3  1  0
  3  4  2  0
  3  5  1  0
  5  6  1  0
  6  7  1  0
  7  8  2  0
  7  9  1  0
  9 10  1  0
 10 11  1  0
 11 12  1  0
 12 13  2  0
 13 14  1  0
 14 15  1  0
 14 16  2  0
 16 17  1  0
 17 18  1  0
 17 19  2  0
 19 20  1  0
 20 21  3  0
 19 12  1  0
M  END
>  <Binding energies>  (15) 
[-5.79]

>  <Ligand effiencies>  (15) 
[-0.2631818181818182]

>  <Interactions>  (15) 
["V-B:TYR:539:CD2:9845, V-A:HIS:456:CE1:4069, V-B:GLU:543:CD:9879, V-B:GLU:543:CG:9878, V-A:TYR:484:CZ:4346, H-A:ARG:545:NE:4923, V-A:ILE:369:CG2:3236, V-A:ARG:545:CZ:4925, V-A:SER:385:CA:3406, H-A:ARG:545:NH1:4926, V-A:ARG:545:CD:4922, H-A:GLY:454:N:4049, V-B:ALA:541:CB:9863, H-A:ARG:545:NH2:4927, V-A:ARG:545:CG:4921, V-A:ILE:369:CD1:3238, V-A:LEU:475:CD2:4258, V-A:LEU:475:CD1:4257, V-A:PRO:482:CG:4326, H-A:TYR:484:OH:4347, H-B:ALA:541:N:9862, V-A:PRO:482:CB:4325, V-A:ARG:545:CB:4920, V-A:SER:385:C:3404, V-A:ILE:455:C:4051, H-B:GLU:543:OE2:9881"]

$$$$
2a_Grossjean_2025
     RDKit          3D

 29 30  0  0  0  0  0  0  0  0999 V2000
  124.7100  123.9970   59.2110 C   0  0  0  0  0  0  0  0  0  0  0  0
  124.4520  124.0250   57.7010 C   0  0  0  0  0  0  0  0  0  0  0  0
  125.6960  124.0890   57.0130 O   0  0  0  0  0  0  0  0  0  0  0  0
  126.5350  123.0220   56.9820 C   0  0  0  0  0  0  0  0  0  0  0  0
  126.3160  122.0030   56.3210 O   0  0  0  0  0  0  0  0  0  0  0  0
  127.7690  123.2170   57.8170 C   0  0  0  0  0  0  0  0  0  0  0  0
  128.7410  124.1750   57.4920 C   0  0  0  0  0  0  0  0  0  0  0  0
  129.8740  124.3280   58.2850 C   0  0  0  0  0  0  0  0  0  0  0  0
  130.0640  123.5270   59.4120 C   0  0  0  0  0  0  0  0  0  0  0  0
  131.2500  123.7590   60.1310 N   0  0  0  0  0  0  0  0  0  0  0  0
  132.4990  124.0180   59.6860 C   0  0  0  0  0  0  0  0  0  0  0  0
  132.8390  124.0730   58.5040 O   0  0  0  0  0  0  0  0  0  0  0  0
  133.5520  124.2530   60.7740 C   0  0  0  0  0  0  0  0  0  0  0  0
  133.8410  122.7920   61.8260 S   0  0  0  0  0  0  0  0  0  0  0  0
  132.3540  121.7990   61.9030 C   0  0  0  0  0  0  0  0  0  0  0  0
  131.2910  122.3780   62.5160 N   0  0  0  0  0  0  0  0  0  0  0  0
  130.1370  121.6810   62.6200 C   0  0  0  0  0  0  0  0  0  0  0  0
  129.0030  122.3840   63.3420 C   0  0  0  0  0  0  0  0  0  0  0  0
  129.9910  120.3910   62.1170 C   0  0  0  0  0  0  0  0  0  0  0  0
  131.0750  119.7760   61.4710 C   0  0  0  0  0  0  0  0  0  0  0  0
  130.8960  118.3490   60.9180 C   0  0  0  0  0  0  0  0  0  0  0  0
  131.7440  117.5150   61.5210 F   0  0  0  0  0  0  0  0  0  0  0  0
  129.6480  117.9300   61.1340 F   0  0  0  0  0  0  0  0  0  0  0  0
  131.1240  118.2740   59.6050 F   0  0  0  0  0  0  0  0  0  0  0  0
  132.2910  120.4960   61.3580 C   0  0  0  0  0  0  0  0  0  0  0  0
  133.4570  119.8990   60.6960 C   0  0  0  0  0  0  0  0  0  0  0  0
  134.3760  119.4290   60.1730 N   0  0  0  0  0  0  0  0  0  0  0  0
  129.0930  122.5720   59.7470 C   0  0  0  0  0  0  0  0  0  0  0  0
  127.9580  122.4230   58.9550 C   0  0  0  0  0  0  0  0  0  0  0  0
  1  2  1  0
  2  3  1  0
  3  4  1  0
  4  5  2  0
  4  6  1  0
  6  7  2  0
  7  8  1  0
  8  9  2  0
  9 10  1  0
 10 11  1  0
 11 12  2  0
 11 13  1  0
 13 14  1  0
 14 15  1  0
 15 16  2  0
 16 17  1  0
 17 18  1  0
 17 19  2  0
 19 20  1  0
 20 21  1  0
 21 22  1  0
 21 23  1  0
 21 24  1  0
 20 25  2  0
 25 26  1  0
 26 27  3  0
  9 28  1  0
 28 29  2  0
 29  6  1  0
 25 15  1  0
M  END
>  <Binding energies>  (16) 
[-7.43]

>  <Ligand effiencies>  (16) 
[-0.24766666666666665]

>  <Interactions>  (16) 
["V-B:PRO:540:N:9855, V-B:TYR:531:CE2:9764, H-B:TYR:539:N:9841, V-B:LEU:363:CD1:8159, V-B:MET:535:CE:9806, V-B:TYR:539:CD2:9845, V-B:TYR:539:CZ:9848, V-B:TYR:539:C:9838, V-B:PRO:540:CB:9856, V-B:TYR:539:CE2:9847, V-B:TYR:539:CG:9843, V-A:ASP:366:CG:3212, H-B:TYR:531:OH:9766, V-A:ILE:369:CG2:3236, V-A:SER:385:CA:3406, V-A:SER:385:CB:3408, V-B:ALA:541:CB:9863, V-A:ILE:369:CD1:3238, V-A:LEU:475:CD2:4258, V-B:ALA:541:CA:9861, V-A:HIS:383:CE1:3393, H-B:TYR:539:OH:9849, V-A:PRO:482:CG:4326, V-B:PRO:540:CA:9854, V-B:TYR:539:CB:9842, V-A:PRO:482:CB:4325, V-B:TYR:539:CA:9840, V-B:TYR:531:CZ:9765, H-A:SER:385:N:3407"]

$$$$
2b_Grossjean_2025
     RDKit          3D

 28 29  0  0  0  0  0  0  0  0999 V2000
  124.5250  124.2140   57.7090 C   0  0  0  0  0  0  0  0  0  0  0  0
  125.4620  123.8950   56.6900 O   0  0  0  0  0  0  0  0  0  0  0  0
  126.3230  122.8560   56.8320 C   0  0  0  0  0  0  0  0  0  0  0  0
  126.1320  121.7400   56.3370 O   0  0  0  0  0  0  0  0  0  0  0  0
  127.5320  123.1960   57.6560 C   0  0  0  0  0  0  0  0  0  0  0  0
  127.9770  122.3700   58.6980 C   0  0  0  0  0  0  0  0  0  0  0  0
  129.1000  122.7160   59.4440 C   0  0  0  0  0  0  0  0  0  0  0  0
  129.8040  123.8860   59.1610 C   0  0  0  0  0  0  0  0  0  0  0  0
  130.9210  124.1420   59.9800 N   0  0  0  0  0  0  0  0  0  0  0  0
  132.2210  124.2840   59.6450 C   0  0  0  0  0  0  0  0  0  0  0  0
  132.6790  124.1830   58.5060 O   0  0  0  0  0  0  0  0  0  0  0  0
  133.1680  124.5770   60.8130 C   0  0  0  0  0  0  0  0  0  0  0  0
  133.5260  123.1080   61.8310 S   0  0  0  0  0  0  0  0  0  0  0  0
  132.1160  122.0080   61.8320 C   0  0  0  0  0  0  0  0  0  0  0  0
  130.9650  122.5260   62.3310 N   0  0  0  0  0  0  0  0  0  0  0  0
  129.8600  121.7480   62.3670 C   0  0  0  0  0  0  0  0  0  0  0  0
  128.6190  122.3970   62.9500 C   0  0  0  0  0  0  0  0  0  0  0  0
  129.8510  120.4350   61.9050 C   0  0  0  0  0  0  0  0  0  0  0  0
  131.0270  119.8810   61.3790 C   0  0  0  0  0  0  0  0  0  0  0  0
  130.9980  118.4280   60.8670 C   0  0  0  0  0  0  0  0  0  0  0  0
  131.8490  117.6800   61.5720 F   0  0  0  0  0  0  0  0  0  0  0  0
  129.7700  117.9220   60.9930 F   0  0  0  0  0  0  0  0  0  0  0  0
  131.3440  118.3260   59.5820 F   0  0  0  0  0  0  0  0  0  0  0  0
  132.1960  120.6840   61.3410 C   0  0  0  0  0  0  0  0  0  0  0  0
  133.4550  120.1540   60.8070 C   0  0  0  0  0  0  0  0  0  0  0  0
  134.4480  119.7360   60.3850 N   0  0  0  0  0  0  0  0  0  0  0  0
  129.3620  124.7220   58.1250 C   0  0  0  0  0  0  0  0  0  0  0  0
  128.2380  124.3760   57.3820 C   0  0  0  0  0  0  0  0  0  0  0  0
  1  2  1  0
  2  3  1  0
  3  4  2  0
  3  5  1  0
  5  6  2  0
  6  7  1  0
  7  8  2  0
  8  9  1  0
  9 10  1  0
 10 11  2  0
 10 12  1  0
 12 13  1  0
 13 14  1  0
 14 15  2  0
 15 16  1  0
 16 17  1  0
 16 18  2  0
 18 19  1  0
 19 20  1  0
 20 21  1  0
 20 22  1  0
 20 23  1  0
 19 24  2  0
 24 25  1  0
 25 26  3  0
  8 27  1  0
 27 28  2  0
 28  5  1  0
 24 14  1  0
M  END
>  <Binding energies>  (17) 
[-7.53]

>  <Ligand effiencies>  (17) 
[-0.2596551724137931]

>  <Interactions>  (17) 
["V-B:PRO:540:N:9855, V-B:TYR:531:CE2:9764, H-B:TYR:539:N:9841, V-B:LEU:363:CD1:8159, V-B:MET:535:CE:9806, V-B:TYR:539:CD2:9845, V-B:TYR:539:CZ:9848, V-B:TYR:539:C:9838, V-B:TYR:539:CE2:9847, V-B:TYR:539:CG:9843, V-A:ASP:366:CG:3212, V-A:ASP:366:CB:3211, H-B:TYR:531:OH:9766, V-A:ILE:369:CG2:3236, V-A:SER:385:CA:3406, V-A:SER:385:CB:3408, V-B:ALA:541:CB:9863, V-A:ILE:369:CD1:3238, V-A:LEU:475:CD2:4258, V-B:ALA:541:CA:9861, V-A:HIS:383:CE1:3393, H-B:TYR:539:OH:9849, V-A:PRO:482:CG:4326, V-B:PRO:540:CA:9854, V-B:TYR:539:CB:9842, V-A:PRO:482:CB:4325, V-B:TYR:531:CZ:9765"]

$$$$
2c_Grossjean_2025
     RDKit          3D

 26 27  0  0  0  0  0  0  0  0999 V2000
  125.3710  122.3420   56.6360 C   0  0  0  0  0  0  0  0  0  0  0  0
  126.1370  123.5420   56.6100 O   0  0  0  0  0  0  0  0  0  0  0  0
  127.2650  123.6390   57.4020 C   0  0  0  0  0  0  0  0  0  0  0  0
  128.0380  124.7890   57.2470 C   0  0  0  0  0  0  0  0  0  0  0  0
  129.1940  124.9770   58.0000 C   0  0  0  0  0  0  0  0  0  0  0  0
  129.5960  123.9970   58.9200 C   0  0  0  0  0  0  0  0  0  0  0  0
  130.7360  124.1060   59.7370 N   0  0  0  0  0  0  0  0  0  0  0  0
  132.0000  124.4240   59.3820 C   0  0  0  0  0  0  0  0  0  0  0  0
  132.3740  124.6250   58.2250 O   0  0  0  0  0  0  0  0  0  0  0  0
  133.0020  124.4870   60.5450 C   0  0  0  0  0  0  0  0  0  0  0  0
  133.5540  122.8710   61.1940 S   0  0  0  0  0  0  0  0  0  0  0  0
  132.1360  121.8060   61.4240 C   0  0  0  0  0  0  0  0  0  0  0  0
  131.0390  122.3980   61.9630 N   0  0  0  0  0  0  0  0  0  0  0  0
  129.9320  121.6520   62.1750 C   0  0  0  0  0  0  0  0  0  0  0  0
  128.7560  122.3810   62.7950 C   0  0  0  0  0  0  0  0  0  0  0  0
  129.8660  120.2980   61.8540 C   0  0  0  0  0  0  0  0  0  0  0  0
  130.9840  119.6680   61.2890 C   0  0  0  0  0  0  0  0  0  0  0  0
  130.8950  118.1700   60.9380 C   0  0  0  0  0  0  0  0  0  0  0  0
  131.7470  117.4730   61.6910 F   0  0  0  0  0  0  0  0  0  0  0  0
  129.6580  117.7220   61.1550 F   0  0  0  0  0  0  0  0  0  0  0  0
  131.1930  117.9220   59.6600 F   0  0  0  0  0  0  0  0  0  0  0  0
  132.1540  120.4370   61.0660 C   0  0  0  0  0  0  0  0  0  0  0  0
  133.3540  119.8300   60.4800 C   0  0  0  0  0  0  0  0  0  0  0  0
  134.3000  119.3500   60.0180 N   0  0  0  0  0  0  0  0  0  0  0  0
  128.8170  122.8520   59.0910 C   0  0  0  0  0  0  0  0  0  0  0  0
  127.6620  122.6690   58.3360 C   0  0  0  0  0  0  0  0  0  0  0  0
  1  2  1  0
  2  3  1  0
  3  4  2  0
  4  5  1  0
  5  6  2  0
  6  7  1  0
  7  8  1  0
  8  9  2  0
  8 10  1  0
 10 11  1  0
 11 12  1  0
 12 13  2  0
 13 14  1  0
 14 15  1  0
 14 16  2  0
 16 17  1  0
 17 18  1  0
 18 19  1  0
 18 20  1  0
 18 21  1  0
 17 22  2  0
 22 23  1  0
 23 24  3  0
  6 25  1  0
 25 26  2  0
 26  3  1  0
 22 12  1  0
M  END
>  <Binding energies>  (18) 
[-6.67]

>  <Ligand effiencies>  (18) 
[-0.24703703703703703]

>  <Interactions>  (18) 
["V-B:PRO:540:CD:9858, V-B:PRO:540:N:9855, V-B:LEU:363:CD1:8159, V-B:MET:535:CE:9806, V-B:TYR:539:CD2:9845, V-B:TYR:539:CZ:9848, V-B:TYR:539:C:9838, V-B:PRO:540:CB:9856, V-B:TYR:539:CE2:9847, V-B:TYR:539:CG:9843, V-A:ASP:366:CG:3212, V-A:ASP:366:CB:3211, H-B:TYR:531:OH:9766, V-A:ILE:369:CG2:3236, V-A:SER:385:CA:3406, V-A:SER:385:CB:3408, V-B:ALA:541:CB:9863, V-A:ILE:369:CD1:3238, V-A:LEU:475:CD2:4258, V-B:ALA:541:CA:9861, V-A:HIS:383:CE1:3393, H-B:TYR:539:OH:9849, V-A:PRO:482:CG:4326, V-B:PRO:540:CA:9854, V-B:TYR:539:CB:9842, V-A:PRO:482:CB:4325, V-B:ILE:538:CG2:9834, V-B:PRO:540:CG:9857, H-A:SER:385:N:3407"]

$$$$
2d_Ghoteimi_2023
     RDKit          3D

 38 42  0  0  0  0  0  0  0  0999 V2000
  123.8470  132.0140   56.8590 C   0  0  0  0  0  0  0  0  0  0  0  0
  124.4570  131.2280   57.8730 O   0  0  0  0  0  0  0  0  0  0  0  0
  124.7240  131.7590   59.0840 C   0  0  0  0  0  0  0  0  0  0  0  0
  125.7310  132.4110   59.3740 O   0  0  0  0  0  0  0  0  0  0  0  0
  123.6000  131.4570   60.0860 C   0  0  0  0  0  0  0  0  0  0  0  0
  124.1090  131.8580   61.7920 S   0  0  0  0  0  0  0  0  0  0  0  0
  124.9350  130.4370   62.4780 C   0  0  0  0  0  0  0  0  0  0  0  0
  125.0920  129.4270   61.5880 N   0  0  0  0  0  0  0  0  0  0  0  0
  125.7000  128.2780   61.9760 C   0  0  0  0  0  0  0  0  0  0  0  0
  125.8210  127.2030   60.9450 C   0  0  0  0  0  0  0  0  0  0  0  0
  125.6520  127.4960   59.5870 C   0  0  0  0  0  0  0  0  0  0  0  0
  125.7630  126.4990   58.6210 C   0  0  0  0  0  0  0  0  0  0  0  0
  126.0580  125.1750   58.9770 C   0  0  0  0  0  0  0  0  0  0  0  0
  126.1550  124.1580   58.0200 N   0  0  0  0  0  0  0  0  0  0  0  0
  127.3140  123.2440   57.9790 C   0  0  0  0  0  0  0  0  0  0  0  0
  127.4300  122.4520   56.6600 C   0  0  0  0  0  0  0  0  0  0  0  0
  126.2240  121.7490   56.4100 O   0  0  0  0  0  0  0  0  0  0  0  0
  125.1210  122.6320   56.2900 C   0  0  0  0  0  0  0  0  0  0  0  0
  124.9390  123.4350   57.5960 C   0  0  0  0  0  0  0  0  0  0  0  0
  126.2130  124.8830   60.3400 C   0  0  0  0  0  0  0  0  0  0  0  0
  126.0990  125.8780   61.3060 C   0  0  0  0  0  0  0  0  0  0  0  0
  126.1730  128.1180   63.2810 C   0  0  0  0  0  0  0  0  0  0  0  0
  126.0540  129.1580   64.2110 C   0  0  0  0  0  0  0  0  0  0  0  0
  126.6080  128.9270   65.5790 C   0  0  0  0  0  0  0  0  0  0  0  0
  125.7620  128.5530   66.6250 C   0  0  0  0  0  0  0  0  0  0  0  0
  126.2700  128.3230   67.9000 C   0  0  0  0  0  0  0  0  0  0  0  0
  127.6410  128.4650   68.1670 C   0  0  0  0  0  0  0  0  0  0  0  0
  128.1750  128.2270   69.4370 N   0  0  0  0  0  0  0  0  0  0  0  0
  129.4900  128.7670   69.8330 C   0  0  0  0  0  0  0  0  0  0  0  0
  129.7460  128.7120   71.3540 C   0  0  0  0  0  0  0  0  0  0  0  0
  129.5790  127.3850   71.8270 O   0  0  0  0  0  0  0  0  0  0  0  0
  128.2670  126.9020   71.5830 C   0  0  0  0  0  0  0  0  0  0  0  0
  127.9750  126.9070   70.0660 C   0  0  0  0  0  0  0  0  0  0  0  0
  128.4850  128.8240   67.1080 C   0  0  0  0  0  0  0  0  0  0  0  0
  127.9770  129.0530   65.8320 C   0  0  0  0  0  0  0  0  0  0  0  0
  125.4220  130.3590   63.8040 C   0  0  0  0  0  0  0  0  0  0  0  0
  125.2910  131.4840   64.7350 C   0  0  0  0  0  0  0  0  0  0  0  0
  125.1900  132.3700   65.4740 N   0  0  0  0  0  0  0  0  0  0  0  0
  1  2  1  0
  2  3  1  0
  3  4  2  0
  3  5  1  0
  5  6  1  0
  6  7  1  0
  7  8  2  0
  8  9  1  0
  9 10  1  0
 10 11  2  0
 11 12  1  0
 12 13  2  0
 13 14  1  0
 14 15  1  0
 15 16  1  0
 16 17  1  0
 17 18  1  0
 18 19  1  0
 13 20  1  0
 20 21  2  0
  9 22  2  0
 22 23  1  0
 23 24  1  0
 24 25  2  0
 25 26  1  0
 26 27  2  0
 27 28  1  0
 28 29  1  0
 29 30  1  0
 30 31  1  0
 31 32  1  0
 32 33  1  0
 27 34  1  0
 34 35  2  0
 23 36  2  0
 36 37  1  0
 37 38  3  0
 36  7  1  0
 21 10  1  0
 35 24  1  0
 19 14  1  0
 33 28  1  0
M  END
>  <Binding energies>  (19) 
[-8.42]

>  <Ligand effiencies>  (19) 
[-0.22157894736842104]

>  <Interactions>  (19) 
["V-B:PRO:540:CD:9858, V-B:GLU:543:CB:9877, V-B:PRO:540:N:9855, H-B:TYR:484:OH:9318, V-A:GLU:543:CB:4905, V-B:TYR:531:CE2:9764, H-B:TYR:539:N:9841, H-B:GLY:454:N:9020, V-B:LEU:363:CD1:8159, V-B:ILE:369:CG2:8207, V-B:MET:535:CE:9806, V-B:GLY:454:CA:9019, V-B:ASP:366:CG:8183, V-B:HIS:456:CE1:9040, V-A:HIS:456:CE1:4069, V-B:TYR:539:C:9838, V-B:TYR:539:CE1:9846, V-B:TYR:539:CD1:9844, V-A:GLU:543:CD:4907, V-A:GLU:543:CG:4906, V-B:PRO:540:CB:9856, V-A:TYR:539:CE1:4874, V-B:LEU:475:CD1:9228, V-B:ASP:366:CB:8182, V-B:GLU:543:CD:9879, V-B:TYR:539:CG:9843, V-B:ARG:545:CZ:9897, V-B:ARG:545:CG:9893, V-B:PRO:540:CA:9854, V-B:TYR:539:CA:9840, V-B:ILE:538:CG2:9834, V-B:ILE:538:CD1:9836, V-B:ILE:369:CB:8206, V-A:TYR:539:CZ:4876"]

$$$$
2d_Grossjean_2025
     RDKit          3D

 24 25  0  0  0  0  0  0  0  0999 V2000
  134.2350  125.7520   67.1330 C   0  0  0  0  0  0  0  0  0  0  0  0
  133.4220  125.8000   65.8530 C   0  0  0  0  0  0  0  0  0  0  0  0
  132.1970  126.4600   65.7920 C   0  0  0  0  0  0  0  0  0  0  0  0
  131.4850  126.4810   64.5840 C   0  0  0  0  0  0  0  0  0  0  0  0
  130.1360  127.2240   64.5330 C   0  0  0  0  0  0  0  0  0  0  0  0
  130.2450  128.3160   63.7750 F   0  0  0  0  0  0  0  0  0  0  0  0
  129.1960  126.4310   64.0150 F   0  0  0  0  0  0  0  0  0  0  0  0
  129.7130  127.6120   65.7380 F   0  0  0  0  0  0  0  0  0  0  0  0
  132.0380  125.8180   63.4590 C   0  0  0  0  0  0  0  0  0  0  0  0
  131.3560  125.8500   62.1630 C   0  0  0  0  0  0  0  0  0  0  0  0
  130.8170  125.8770   61.1390 N   0  0  0  0  0  0  0  0  0  0  0  0
  133.2770  125.1530   63.6210 C   0  0  0  0  0  0  0  0  0  0  0  0
  134.0970  124.2460   62.3240 S   0  0  0  0  0  0  0  0  0  0  0  0
  134.2540  122.5030   62.8360 C   0  0  0  0  0  0  0  0  0  0  0  0
  133.2200  121.5890   62.1720 C   0  0  0  0  0  0  0  0  0  0  0  0
  132.0290  121.9030   62.2140 O   0  0  0  0  0  0  0  0  0  0  0  0
  133.7110  120.4670   61.6060 N   0  0  0  0  0  0  0  0  0  0  0  0
  133.0270  119.4430   60.9240 C   0  0  0  0  0  0  0  0  0  0  0  0
  133.4910  119.1460   59.6410 C   0  0  0  0  0  0  0  0  0  0  0  0
  132.8750  118.1520   58.8840 C   0  0  0  0  0  0  0  0  0  0  0  0
  131.7860  117.4600   59.4110 C   0  0  0  0  0  0  0  0  0  0  0  0
  131.3070  117.7560   60.6840 C   0  0  0  0  0  0  0  0  0  0  0  0
  131.9210  118.7480   61.4420 C   0  0  0  0  0  0  0  0  0  0  0  0
  133.9620  125.1610   64.7910 N   0  0  0  0  0  0  0  0  0  0  0  0
  1  2  1  0
  2  3  2  0
  3  4  1  0
  4  5  1  0
  5  6  1  0
  5  7  1  0
  5  8  1  0
  4  9  2  0
  9 10  1  0
 10 11  3  0
  9 12  1  0
 12 13  1  0
 13 14  1  0
 14 15  1  0
 15 16  2  0
 15 17  1  0
 17 18  1  0
 18 19  2  0
 19 20  1  0
 20 21  2  0
 21 22  1  0
 22 23  2  0
 12 24  2  0
 24  2  1  0
 23 18  1  0
M  END
>  <Binding energies>  (20) 
[-7.12]

>  <Ligand effiencies>  (20) 
[-0.2848]

>  <Interactions>  (20) 
["V-B:TYR:539:CD2:9845, V-A:GLU:543:CD:4907, V-B:TYR:539:CE2:9847, V-B:GLU:543:CD:9879, V-B:TYR:539:CG:9843, V-A:ASP:366:CG:3212, V-A:ILE:369:CG2:3236, V-A:ARG:545:CZ:4925, V-A:SER:385:CA:3406, V-A:SER:385:CB:3408, V-A:ARG:545:CD:4922, H-A:GLY:454:N:4049, V-A:ARG:545:CG:4921, V-A:ILE:369:CD1:3238, V-A:LEU:475:CD2:4258, V-A:HIS:383:CE1:3393, V-B:TYR:539:CB:9842, H-A:TYR:484:OH:4347, V-A:LEU:373:CD2:3280, V-A:GLY:453:C:4041, V-A:GLY:454:CA:4048, V-A:LEU:373:CG:3278, V-A:SER:385:C:3404, H-A:SER:385:O:3405, V-A:LEU:373:CD1:3279"]

$$$$
2e_Grossjean_2025
     RDKit          3D

 25 26  0  0  0  0  0  0  0  0999 V2000
  130.5130  117.1590   61.2890 C   0  0  0  0  0  0  0  0  0  0  0  0
  131.6550  118.0080   60.7640 C   0  0  0  0  0  0  0  0  0  0  0  0
  132.2140  117.7840   59.5030 C   0  0  0  0  0  0  0  0  0  0  0  0
  133.2550  118.6130   59.0820 C   0  0  0  0  0  0  0  0  0  0  0  0
  133.7070  119.6340   59.9210 C   0  0  0  0  0  0  0  0  0  0  0  0
  133.1090  119.7970   61.1760 C   0  0  0  0  0  0  0  0  0  0  0  0
  133.5730  120.8660   61.9620 N   0  0  0  0  0  0  0  0  0  0  0  0
  133.0620  122.1130   62.0580 C   0  0  0  0  0  0  0  0  0  0  0  0
  132.0300  122.4980   61.5060 O   0  0  0  0  0  0  0  0  0  0  0  0
  133.8800  123.1070   62.8890 C   0  0  0  0  0  0  0  0  0  0  0  0
  133.2260  124.8020   62.7670 S   0  0  0  0  0  0  0  0  0  0  0  0
  133.1160  125.3910   64.4420 C   0  0  0  0  0  0  0  0  0  0  0  0
  134.2900  125.3870   65.1210 N   0  0  0  0  0  0  0  0  0  0  0  0
  134.2880  125.7770   66.4150 C   0  0  0  0  0  0  0  0  0  0  0  0
  135.6330  125.7500   67.1140 C   0  0  0  0  0  0  0  0  0  0  0  0
  133.1290  126.1760   67.0800 C   0  0  0  0  0  0  0  0  0  0  0  0
  131.9050  126.1770   66.3940 C   0  0  0  0  0  0  0  0  0  0  0  0
  130.6300  126.6000   67.1470 C   0  0  0  0  0  0  0  0  0  0  0  0
  130.9520  127.2980   68.2370 F   0  0  0  0  0  0  0  0  0  0  0  0
  129.8650  127.3560   66.3600 F   0  0  0  0  0  0  0  0  0  0  0  0
  129.8950  125.5570   67.5420 F   0  0  0  0  0  0  0  0  0  0  0  0
  131.8910  125.7760   65.0350 C   0  0  0  0  0  0  0  0  0  0  0  0
  130.6400  125.7260   64.2720 C   0  0  0  0  0  0  0  0  0  0  0  0
  129.6520  125.6870   63.6700 N   0  0  0  0  0  0  0  0  0  0  0  0
  132.0850  118.9950   61.5920 N   0  0  0  0  0  0  0  0  0  0  0  0
  1  2  1  0
  2  3  2  0
  3  4  1  0
  4  5  2  0
  5  6  1  0
  6  7  1  0
  7  8  1  0
  8  9  2  0
  8 10  1  0
 10 11  1  0
 11 12  1  0
 12 13  2  0
 13 14  1  0
 14 15  1  0
 14 16  2  0
 16 17  1  0
 17 18  1  0
 18 19  1  0
 18 20  1  0
 18 21  1  0
 17 22  2  0
 22 23  1  0
 23 24  3  0
  6 25  2  0
 25  2  1  0
 22 12  1  0
M  END
>  <Binding energies>  (21) 
[-7.45]

>  <Ligand effiencies>  (21) 
[-0.2865384615384615]

>  <Interactions>  (21) 
["V-B:GLU:543:CB:9877, V-B:TYR:539:CD2:9845, V-A:HIS:456:CE1:4069, V-A:GLU:543:CD:4907, V-B:TYR:539:CE2:9847, V-B:GLU:543:CD:9879, V-B:TYR:539:CG:9843, V-B:GLU:543:CG:9878, V-A:TYR:484:CZ:4346, H-A:ARG:545:NE:4923, V-A:ILE:369:CG2:3236, V-A:ARG:545:CZ:4925, V-A:SER:385:CA:3406, H-A:ARG:545:NH1:4926, V-A:SER:385:CB:3408, V-A:ARG:545:CD:4922, V-A:TYR:484:CE2:4345, H-A:GLY:454:N:4049, V-A:ARG:545:CG:4921, V-A:ILE:369:CD1:3238, V-A:LEU:475:CD2:4258, V-A:HIS:383:CE1:3393, V-A:PRO:482:CG:4326, V-B:TYR:539:CB:9842, H-A:TYR:484:OH:4347, V-A:PRO:482:CB:4325, V-A:LEU:373:CD2:3280, V-A:GLY:453:C:4041, V-A:GLY:453:CA:4043, V-A:GLY:454:CA:4048, V-A:LEU:373:CG:3278, V-A:ARG:545:CB:4920, V-A:SER:385:C:3404, H-A:SER:385:O:3405, V-A:ILE:455:C:4051"]

$$$$
2f_Grossjean_2025
     RDKit          3D

 24 25  0  0  0  0  0  0  0  0999 V2000
  133.9670  124.1900   61.8440 C   0  0  0  0  0  0  0  0  0  0  0  0
  133.1280  122.9290   61.7560 C   0  0  0  0  0  0  0  0  0  0  0  0
  133.6210  121.7630   61.1750 C   0  0  0  0  0  0  0  0  0  0  0  0
  132.8040  120.6250   61.1110 C   0  0  0  0  0  0  0  0  0  0  0  0
  133.3630  119.3490   60.4530 C   0  0  0  0  0  0  0  0  0  0  0  0
  134.6760  119.4760   60.2500 F   0  0  0  0  0  0  0  0  0  0  0  0
  133.1490  118.2980   61.2450 F   0  0  0  0  0  0  0  0  0  0  0  0
  132.8000  119.0850   59.2720 F   0  0  0  0  0  0  0  0  0  0  0  0
  131.4940  120.6990   61.6500 C   0  0  0  0  0  0  0  0  0  0  0  0
  130.5830  119.5550   61.5560 C   0  0  0  0  0  0  0  0  0  0  0  0
  129.8640  118.6510   61.4820 N   0  0  0  0  0  0  0  0  0  0  0  0
  131.0870  121.9170   62.2450 C   0  0  0  0  0  0  0  0  0  0  0  0
  129.4860  122.1850   62.9800 S   0  0  0  0  0  0  0  0  0  0  0  0
  128.6880  123.5760   62.1080 C   0  0  0  0  0  0  0  0  0  0  0  0
  127.5840  123.1760   61.1190 C   0  0  0  0  0  0  0  0  0  0  0  0
  126.5020  122.7480   61.5250 O   0  0  0  0  0  0  0  0  0  0  0  0
  127.9180  123.3190   59.8190 N   0  0  0  0  0  0  0  0  0  0  0  0
  127.1540  123.0600   58.6650 C   0  0  0  0  0  0  0  0  0  0  0  0
  125.8220  123.4650   58.4600 C   0  0  0  0  0  0  0  0  0  0  0  0
  125.1790  123.1460   57.2620 C   0  0  0  0  0  0  0  0  0  0  0  0
  125.8870  122.4320   56.2940 C   0  0  0  0  0  0  0  0  0  0  0  0
  127.1740  122.0370   56.4640 N   0  0  0  0  0  0  0  0  0  0  0  0
  127.7850  122.3560   57.6330 C   0  0  0  0  0  0  0  0  0  0  0  0
  131.8830  123.0140   62.2780 N   0  0  0  0  0  0  0  0  0  0  0  0
  1  2  1  0
  2  3  2  0
  3  4  1  0
  4  5  1  0
  5  6  1  0
  5  7  1  0
  5  8  1  0
  4  9  2  0
  9 10  1  0
 10 11  3  0
  9 12  1  0
 12 13  1  0
 13 14  1  0
 14 15  1  0
 15 16  2  0
 15 17  1  0
 17 18  1  0
 18 19  2  0
 19 20  1  0
 20 21  2  0
 21 22  1  0
 22 23  2  0
 12 24  2  0
 24  2  1  0
 23 18  1  0
M  END
>  <Binding energies>  (22) 
[-7.18]

>  <Ligand effiencies>  (22) 
[-0.2872]

>  <Interactions>  (22) 
["V-B:PRO:540:CD:9858, V-B:PRO:540:N:9855, H-B:TYR:539:N:9841, V-B:LEU:363:CD1:8159, V-B:MET:535:CE:9806, V-B:TYR:539:CD2:9845, V-B:TYR:539:CZ:9848, V-B:TYR:539:C:9838, V-B:TYR:539:CD1:9844, V-B:PRO:540:CB:9856, V-B:TYR:539:CE2:9847, V-B:TYR:539:CG:9843, V-A:ASP:366:CG:3212, V-A:VAL:384:C:3396, V-A:ILE:369:CG2:3236, V-A:SER:385:CA:3406, V-A:SER:385:CB:3408, V-B:ALA:541:CB:9863, V-A:ILE:369:CD1:3238, V-A:LEU:475:CD2:4258, V-B:PRO:540:CA:9854, H-B:ALA:541:N:9862, V-A:LEU:373:CD2:3280, V-A:LEU:373:CG:3278, V-B:TYR:539:CA:9840, V-A:SER:385:C:3404, V-B:ILE:538:CA:9831"]

$$$$
2g_Grossjean_2025
     RDKit          3D

 25 26  0  0  0  0  0  0  0  0999 V2000
  135.3530  125.7460   67.1280 C   0  0  0  0  0  0  0  0  0  0  0  0
  134.0120  125.7990   66.4200 C   0  0  0  0  0  0  0  0  0  0  0  0
  132.8870  126.3490   67.0300 C   0  0  0  0  0  0  0  0  0  0  0  0
  131.6670  126.3680   66.3370 C   0  0  0  0  0  0  0  0  0  0  0  0
  130.4310  126.9730   67.0310 C   0  0  0  0  0  0  0  0  0  0  0  0
  129.6960  126.0090   67.5880 F   0  0  0  0  0  0  0  0  0  0  0  0
  130.8180  127.8250   67.9800 F   0  0  0  0  0  0  0  0  0  0  0  0
  129.6410  127.6410   66.1880 F   0  0  0  0  0  0  0  0  0  0  0  0
  131.6230  125.8290   65.0250 C   0  0  0  0  0  0  0  0  0  0  0  0
  130.3630  125.7730   64.2800 C   0  0  0  0  0  0  0  0  0  0  0  0
  129.3670  125.7290   63.6930 N   0  0  0  0  0  0  0  0  0  0  0  0
  132.8240  125.3190   64.4750 C   0  0  0  0  0  0  0  0  0  0  0  0
  132.9530  124.6300   62.8390 S   0  0  0  0  0  0  0  0  0  0  0  0
  133.2990  122.8480   63.0200 C   0  0  0  0  0  0  0  0  0  0  0  0
  133.1160  122.0250   61.7370 C   0  0  0  0  0  0  0  0  0  0  0  0
  132.3460  122.3880   60.8460 O   0  0  0  0  0  0  0  0  0  0  0  0
  133.8440  120.8950   61.6660 N   0  0  0  0  0  0  0  0  0  0  0  0
  133.8460  119.9550   60.5440 C   0  0  0  0  0  0  0  0  0  0  0  0
  132.6270  119.0400   60.4890 C   0  0  0  0  0  0  0  0  0  0  0  0
  132.5160  118.0900   59.4690 C   0  0  0  0  0  0  0  0  0  0  0  0
  131.4230  117.2270   59.4380 C   0  0  0  0  0  0  0  0  0  0  0  0
  130.4510  117.3100   60.4320 C   0  0  0  0  0  0  0  0  0  0  0  0
  130.5630  118.2460   61.4590 C   0  0  0  0  0  0  0  0  0  0  0  0
  131.6560  119.1080   61.4910 C   0  0  0  0  0  0  0  0  0  0  0  0
  133.9890  125.2880   65.1690 N   0  0  0  0  0  0  0  0  0  0  0  0
  1  2  1  0
  2  3  2  0
  3  4  1  0
  4  5  1  0
  5  6  1  0
  5  7  1  0
  5  8  1  0
  4  9  2  0
  9 10  1  0
 10 11  3  0
  9 12  1  0
 12 13  1  0
 13 14  1  0
 14 15  1  0
 15 16  2  0
 15 17  1  0
 17 18  1  0
 18 19  1  0
 19 20  2  0
 20 21  1  0
 21 22  2  0
 22 23  1  0
 23 24  2  0
 12 25  2  0
 25  2  1  0
 24 19  1  0
M  END
>  <Binding energies>  (23) 
[-7.5]

>  <Ligand effiencies>  (23) 
[-0.28846153846153844]

>  <Interactions>  (23) 
["V-B:GLU:543:CB:9877, V-A:GLU:543:CB:4905, V-B:TYR:539:CD2:9845, V-A:HIS:456:CE1:4069, V-B:TYR:539:C:9838, V-A:GLU:543:CD:4907, V-B:GLU:543:CD:9879, V-B:TYR:539:CG:9843, V-B:GLU:543:CG:9878, V-A:ILE:369:CG2:3236, V-A:ARG:545:CZ:4925, V-A:SER:385:CA:3406, V-A:SER:385:CB:3408, V-A:ARG:545:CD:4922, V-A:TYR:484:CE2:4345, H-A:GLY:454:N:4049, V-B:ALA:541:CB:9863, V-A:ARG:545:CG:4921, V-A:ILE:369:CD1:3238, V-A:LEU:475:CD2:4258, V-A:HIS:383:CE1:3393, V-A:PRO:482:CG:4326, V-B:TYR:539:CB:9842, H-A:TYR:484:OH:4347, V-A:PRO:482:CB:4325, V-A:GLY:453:C:4041, V-A:GLY:453:CA:4043, V-A:GLY:454:CA:4048, V-B:VAL:344:CG1:7971, V-A:ARG:545:CB:4920, V-A:SER:385:C:3404, H-A:SER:385:O:3405, V-A:ILE:455:C:4051"]

$$$$
2h_Grossjean_2025
     RDKit          3D

 31 32  0  0  0  0  0  0  0  0999 V2000
  127.9470  122.7640   59.0960 C   0  0  0  0  0  0  0  0  0  0  0  0
  127.9900  122.3010   60.4410 O   0  0  0  0  0  0  0  0  0  0  0  0
  129.1170  122.5410   61.2060 C   0  0  0  0  0  0  0  0  0  0  0  0
  130.4220  122.5740   60.6900 C   0  0  0  0  0  0  0  0  0  0  0  0
  131.5090  122.8310   61.5220 C   0  0  0  0  0  0  0  0  0  0  0  0
  131.3190  123.0600   62.8860 C   0  0  0  0  0  0  0  0  0  0  0  0
  132.5240  123.3600   63.7750 C   0  0  0  0  0  0  0  0  0  0  0  0
  132.2250  124.2650   64.8840 N   0  0  0  0  0  0  0  0  0  0  0  0
  132.9600  125.3390   65.2230 C   0  0  0  0  0  0  0  0  0  0  0  0
  134.0250  125.6280   64.6740 O   0  0  0  0  0  0  0  0  0  0  0  0
  132.3840  126.2090   66.3480 C   0  0  0  0  0  0  0  0  0  0  0  0
  130.6890  125.7760   66.8660 S   0  0  0  0  0  0  0  0  0  0  0  0
  129.9090  127.2890   67.3870 C   0  0  0  0  0  0  0  0  0  0  0  0
  129.9940  127.5150   68.7210 N   0  0  0  0  0  0  0  0  0  0  0  0
  129.4180  128.6270   69.2280 C   0  0  0  0  0  0  0  0  0  0  0  0
  129.5450  128.8110   70.7280 C   0  0  0  0  0  0  0  0  0  0  0  0
  128.7450  129.5550   68.4340 C   0  0  0  0  0  0  0  0  0  0  0  0
  128.6650  129.3480   67.0480 C   0  0  0  0  0  0  0  0  0  0  0  0
  127.9250  130.3890   66.1860 C   0  0  0  0  0  0  0  0  0  0  0  0
  127.9010  131.5650   66.8130 F   0  0  0  0  0  0  0  0  0  0  0  0
  128.5040  130.5800   64.9980 F   0  0  0  0  0  0  0  0  0  0  0  0
  126.6720  129.9920   65.9630 F   0  0  0  0  0  0  0  0  0  0  0  0
  129.2710  128.1890   66.5000 C   0  0  0  0  0  0  0  0  0  0  0  0
  129.2660  127.9570   65.0530 C   0  0  0  0  0  0  0  0  0  0  0  0
  129.2640  127.7780   63.9100 N   0  0  0  0  0  0  0  0  0  0  0  0
  130.0220  123.0070   63.4200 C   0  0  0  0  0  0  0  0  0  0  0  0
  129.8270  123.2290   64.7630 O   0  0  0  0  0  0  0  0  0  0  0  0
  129.3350  122.1020   65.4780 C   0  0  0  0  0  0  0  0  0  0  0  0
  128.9250  122.7670   62.5760 C   0  0  0  0  0  0  0  0  0  0  0  0
  127.6520  122.7330   63.0930 O   0  0  0  0  0  0  0  0  0  0  0  0
  126.9370  123.9540   62.9580 C   0  0  0  0  0  0  0  0  0  0  0  0
  1  2  1  0
  2  3  1  0
  3  4  2  0
  4  5  1  0
  5  6  2  0
  6  7  1  0
  7  8  1  0
  8  9  1  0
  9 10  2  0
  9 11  1  0
 11 12  1  0
 12 13  1  0
 13 14  2  0
 14 15  1  0
 15 16  1  0
 15 17  2  0
 17 18  1  0
 18 19  1  0
 19 20  1  0
 19 21  1  0
 19 22  1  0
 18 23  2  0
 23 24  1  0
 24 25  3  0
  6 26  1  0
 26 27  1  0
 27 28  1  0
 26 29  2  0
 29 30  1  0
 30 31  1  0
 29  3  1  0
 23 13  1  0
M  END
>  <Binding energies>  (24) 
[-5.55]

>  <Ligand effiencies>  (24) 
[-0.1734375]

>  <Interactions>  (24) 
["V-B:PRO:540:N:9855, V-A:GLU:543:CB:4905, V-B:TYR:539:CD2:9845, V-B:HIS:456:CE1:9040, V-A:HIS:456:CE1:4069, V-B:TYR:539:C:9838, V-A:GLU:543:CD:4907, V-A:GLU:543:CG:4906, V-B:TYR:539:CE2:9847, V-B:GLU:543:CD:9879, V-B:GLU:543:CG:9878, V-A:TYR:484:CZ:4346, H-A:ARG:545:NE:4923, V-A:ARG:545:CZ:4925, H-A:ARG:545:NH1:4926, V-A:TYR:484:CE2:4345, H-A:GLY:454:N:4049, V-B:ALA:541:CB:9863, H-A:ARG:545:NH2:4927, V-A:LEU:475:CD2:4258, V-A:LEU:475:CD1:4257, V-B:PRO:540:CA:9854, H-A:TYR:484:OH:4347, H-B:ALA:541:N:9862, V-A:GLY:454:CA:4048, V-B:TYR:484:CZ:9317, V-B:TYR:484:CE2:9316"]

$$$$
2i_Grossjean_2025
     RDKit          3D

 23 24  0  0  0  0  0  0  0  0999 V2000
  128.9900  122.4120   62.7100 C   0  0  0  0  0  0  0  0  0  0  0  0
  130.0720  121.5980   62.0260 C   0  0  0  0  0  0  0  0  0  0  0  0
  129.9580  120.2190   61.8700 C   0  0  0  0  0  0  0  0  0  0  0  0
  130.9850  119.5110   61.2280 C   0  0  0  0  0  0  0  0  0  0  0  0
  130.8440  117.9860   61.0640 C   0  0  0  0  0  0  0  0  0  0  0  0
  129.6380  117.5920   61.4770 F   0  0  0  0  0  0  0  0  0  0  0  0
  130.9950  117.6460   59.7840 F   0  0  0  0  0  0  0  0  0  0  0  0
  131.7510  117.3050   61.7690 F   0  0  0  0  0  0  0  0  0  0  0  0
  132.1120  120.2310   60.7560 C   0  0  0  0  0  0  0  0  0  0  0  0
  133.2140  119.5420   60.0770 C   0  0  0  0  0  0  0  0  0  0  0  0
  134.0840  118.9980   59.5410 N   0  0  0  0  0  0  0  0  0  0  0  0
  132.1460  121.6300   60.9590 C   0  0  0  0  0  0  0  0  0  0  0  0
  133.5160  122.6390   60.4160 S   0  0  0  0  0  0  0  0  0  0  0  0
  133.3020  124.3050   61.1120 C   0  0  0  0  0  0  0  0  0  0  0  0
  133.3910  124.3120   62.6390 C   0  0  0  0  0  0  0  0  0  0  0  0
  133.6200  123.2550   63.2300 O   0  0  0  0  0  0  0  0  0  0  0  0
  133.1810  125.5050   63.2350 N   0  0  0  0  0  0  0  0  0  0  0  0
  133.1910  125.7630   64.5960 C   0  0  0  0  0  0  0  0  0  0  0  0
  132.1360  126.0810   65.4630 C   0  0  0  0  0  0  0  0  0  0  0  0
  132.7280  126.2270   66.6960 C   0  0  0  0  0  0  0  0  0  0  0  0
  134.0590  126.0030   66.5780 O   0  0  0  0  0  0  0  0  0  0  0  0
  134.3350  125.7040   65.2420 N   0  0  0  0  0  0  0  0  0  0  0  0
  131.1400  122.2970   61.5820 N   0  0  0  0  0  0  0  0  0  0  0  0
  1  2  1  0
  2  3  2  0
  3  4  1  0
  4  5  1  0
  5  6  1  0
  5  7  1  0
  5  8  1  0
  4  9  2  0
  9 10  1  0
 10 11  3  0
  9 12  1  0
 12 13  1  0
 13 14  1  0
 14 15  1  0
 15 16  2  0
 15 17  1  0
 17 18  1  0
 18 19  1  0
 19 20  2  0
 20 21  1  0
 21 22  1  0
 12 23  2  0
 23  2  1  0
 22 18  2  0
M  END
>  <Binding energies>  (25) 
[-6.81]

>  <Ligand effiencies>  (25) 
[-0.28375]

>  <Interactions>  (25) 
["V-B:TYR:539:CD2:9845, V-B:TYR:539:C:9838, V-B:TYR:539:CE2:9847, V-B:TYR:539:CG:9843, V-A:ASP:366:CG:3212, H-A:ARG:545:NE:4923, V-A:ILE:369:CG2:3236, V-A:ARG:545:CZ:4925, V-A:SER:385:CA:3406, H-A:ARG:545:NH1:4926, V-A:SER:385:CB:3408, V-A:ARG:545:CD:4922, H-A:GLY:454:N:4049, V-B:ALA:541:CB:9863, H-A:ARG:545:NH2:4927, V-A:ARG:545:CG:4921, V-A:ILE:369:CD1:3238, V-A:LEU:475:CD2:4258, V-B:ALA:541:CA:9861, V-A:HIS:383:CE1:3393, V-A:PRO:482:CG:4326, V-B:TYR:539:CB:9842, H-A:TYR:484:OH:4347, V-A:PRO:482:CB:4325, H-A:ASP:366:OD1:3213, H-A:ASP:366:OD2:3214, V-A:THR:477:CG2:4272"]

$$$$
2k_Grossjean_2025
     RDKit          3D

 28 28  0  0  0  0  0  0  0  0999 V2000
  129.0040  122.7320   64.3200 C   0  0  0  0  0  0  0  0  0  0  0  0
  128.0640  122.8460   63.2630 O   0  0  0  0  0  0  0  0  0  0  0  0
  127.6580  124.1840   63.0070 C   0  0  0  0  0  0  0  0  0  0  0  0
  126.1660  124.2140   62.6510 C   0  0  0  0  0  0  0  0  0  0  0  0
  125.6790  122.8820   62.5880 O   0  0  0  0  0  0  0  0  0  0  0  0
  124.2600  122.7780   62.5800 C   0  0  0  0  0  0  0  0  0  0  0  0
  123.7100  123.7420   61.5200 C   0  0  0  0  0  0  0  0  0  0  0  0
  124.4580  123.5530   60.3300 O   0  0  0  0  0  0  0  0  0  0  0  0
  123.7740  123.8740   59.1280 C   0  0  0  0  0  0  0  0  0  0  0  0
  124.7610  123.7780   57.9500 C   0  0  0  0  0  0  0  0  0  0  0  0
  126.1170  123.4160   58.3680 N   0  0  0  0  0  0  0  0  0  0  0  0
  127.0120  122.7380   57.6240 C   0  0  0  0  0  0  0  0  0  0  0  0
  126.7900  122.3640   56.4710 O   0  0  0  0  0  0  0  0  0  0  0  0
  128.3500  122.4260   58.3110 C   0  0  0  0  0  0  0  0  0  0  0  0
  128.4060  122.7640   60.1050 S   0  0  0  0  0  0  0  0  0  0  0  0
  129.9860  122.2400   60.7580 C   0  0  0  0  0  0  0  0  0  0  0  0
  130.1650  120.8980   60.8600 N   0  0  0  0  0  0  0  0  0  0  0  0
  131.3350  120.4300   61.3500 C   0  0  0  0  0  0  0  0  0  0  0  0
  131.4530  118.9220   61.4430 C   0  0  0  0  0  0  0  0  0  0  0  0
  132.3720  121.2700   61.7460 C   0  0  0  0  0  0  0  0  0  0  0  0
  132.2120  122.6600   61.6420 C   0  0  0  0  0  0  0  0  0  0  0  0
  133.3730  123.5750   62.0800 C   0  0  0  0  0  0  0  0  0  0  0  0
  134.3800  122.9000   62.6370 F   0  0  0  0  0  0  0  0  0  0  0  0
  133.8620  124.2280   61.0250 F   0  0  0  0  0  0  0  0  0  0  0  0
  132.9410  124.4630   62.9760 F   0  0  0  0  0  0  0  0  0  0  0  0
  130.9870  123.1650   61.1370 C   0  0  0  0  0  0  0  0  0  0  0  0
  130.7640  124.6090   61.0110 C   0  0  0  0  0  0  0  0  0  0  0  0
  130.5890  125.7490   60.9100 N   0  0  0  0  0  0  0  0  0  0  0  0
  1  2  1  0
  2  3  1  0
  3  4  1  0
  4  5  1  0
  5  6  1  0
  6  7  1  0
  7  8  1  0
  8  9  1  0
  9 10  1  0
 10 11  1  0
 11 12  1  0
 12 13  2  0
 12 14  1  0
 14 15  1  0
 15 16  1  0
 16 17  2  0
 17 18  1  0
 18 19  1  0
 18 20  2  0
 20 21  1  0
 21 22  1  0
 22 23  1  0
 22 24  1  0
 22 25  1  0
 21 26  2  0
 26 27  1  0
 27 28  3  0
 26 16  1  0
M  END
>  <Binding energies>  (26) 
[-5.1]

>  <Ligand effiencies>  (26) 
[-0.17586206896551723]

>  <Interactions>  (26) 
["V-B:PRO:540:N:9855, H-B:TYR:539:N:9841, V-B:LEU:363:CD1:8159, V-B:TYR:539:CD2:9845, V-B:ASP:366:CG:8183, V-B:TYR:539:CZ:9848, V-B:TYR:539:C:9838, V-B:PRO:540:CB:9856, V-B:TYR:539:CE2:9847, V-B:GLU:543:CD:9879, V-B:TYR:539:CG:9843, V-A:ASP:366:CG:3212, V-B:GLU:543:CG:9878, V-B:ALA:541:C:9859, V-B:ALA:541:CB:9863, V-A:ILE:369:CD1:3238, V-A:LEU:475:CD2:4258, V-B:PRO:540:CA:9854, H-B:ALA:541:N:9862, V-B:LEU:363:CA:8155, V-B:ASN:362:CB:8146, V-A:GLY:453:C:4041, V-A:GLY:454:CA:4048, V-B:PRO:540:C:9852, V-B:LEU:363:CB:8157, V-B:ASN:362:C:8142"]

$$$$
3aa_Grossjean_2025
     RDKit          3D

 34 36  0  0  0  0  0  0  0  0999 V2000
  131.0200  128.1680   73.5180 C   0  0  0  0  0  0  0  0  0  0  0  0
  129.5980  128.3420   72.9770 C   0  0  0  0  0  0  0  0  0  0  0  0
  129.0160  127.0640   72.7530 O   0  0  0  0  0  0  0  0  0  0  0  0
  128.1340  126.8660   71.7400 C   0  0  0  0  0  0  0  0  0  0  0  0
  126.9230  126.6980   71.9150 O   0  0  0  0  0  0  0  0  0  0  0  0
  128.7790  126.8570   70.3840 C   0  0  0  0  0  0  0  0  0  0  0  0
  129.2050  128.0360   69.7550 C   0  0  0  0  0  0  0  0  0  0  0  0
  129.8050  127.9910   68.4990 C   0  0  0  0  0  0  0  0  0  0  0  0
  129.9960  126.7700   67.8500 C   0  0  0  0  0  0  0  0  0  0  0  0
  130.6150  126.8350   66.5860 N   0  0  0  0  0  0  0  0  0  0  0  0
  130.8730  125.8460   65.7010 C   0  0  0  0  0  0  0  0  0  0  0  0
  130.6180  124.6530   65.8690 O   0  0  0  0  0  0  0  0  0  0  0  0
  131.5500  126.2840   64.4020 C   0  0  0  0  0  0  0  0  0  0  0  0
  133.0510  125.3160   64.0630 S   0  0  0  0  0  0  0  0  0  0  0  0
  132.6810  124.2430   62.6930 C   0  0  0  0  0  0  0  0  0  0  0  0
  132.4680  124.9020   61.5290 N   0  0  0  0  0  0  0  0  0  0  0  0
  132.1730  124.2010   60.4040 C   0  0  0  0  0  0  0  0  0  0  0  0
  131.9660  125.0010   59.1530 C   0  0  0  0  0  0  0  0  0  0  0  0
  130.6800  125.4220   58.7780 C   0  0  0  0  0  0  0  0  0  0  0  0
  130.4800  126.1660   57.6180 C   0  0  0  0  0  0  0  0  0  0  0  0
  131.5660  126.5000   56.8160 C   0  0  0  0  0  0  0  0  0  0  0  0
  132.8500  126.0980   57.1670 C   0  0  0  0  0  0  0  0  0  0  0  0
  133.0480  125.3560   58.3280 C   0  0  0  0  0  0  0  0  0  0  0  0
  132.0940  122.8060   60.4260 C   0  0  0  0  0  0  0  0  0  0  0  0
  132.2930  122.1020   61.6240 C   0  0  0  0  0  0  0  0  0  0  0  0
  132.1860  120.5660   61.6100 C   0  0  0  0  0  0  0  0  0  0  0  0
  132.2160  120.0550   60.3770 F   0  0  0  0  0  0  0  0  0  0  0  0
  133.2000  120.0270   62.2880 F   0  0  0  0  0  0  0  0  0  0  0  0
  131.0390  120.1850   62.1740 F   0  0  0  0  0  0  0  0  0  0  0  0
  132.5840  122.8380   62.7990 C   0  0  0  0  0  0  0  0  0  0  0  0
  132.7440  122.1610   64.0890 C   0  0  0  0  0  0  0  0  0  0  0  0
  132.8700  121.6260   65.1080 N   0  0  0  0  0  0  0  0  0  0  0  0
  129.5600  125.5870   68.4670 C   0  0  0  0  0  0  0  0  0  0  0  0
  128.9600  125.6350   69.7210 C   0  0  0  0  0  0  0  0  0  0  0  0
  1  2  1  0
  2  3  1  0
  3  4  1  0
  4  5  2  0
  4  6  1  0
  6  7  2  0
  7  8  1  0
  8  9  2  0
  9 10  1  0
 10 11  1  0
 11 12  2  0
 11 13  1  0
 13 14  1  0
 14 15  1  0
 15 16  2  0
 16 17  1  0
 17 18  1  0
 18 19  2  0
 19 20  1  0
 20 21  2  0
 21 22  1  0
 22 23  2  0
 17 24  2  0
 24 25  1  0
 25 26  1  0
 26 27  1  0
 26 28  1  0
 26 29  1  0
 25 30  2  0
 30 31  1  0
 31 32  3  0
  9 33  1  0
 33 34  2  0
 34  6  1  0
 30 15  1  0
 23 18  1  0
M  END
>  <Binding energies>  (27) 
[-7.33]

>  <Ligand effiencies>  (27) 
[-0.20942857142857144]

>  <Interactions>  (27) 
["V-B:GLU:543:CB:9877, V-A:GLU:543:CB:4905, V-B:TYR:539:CD2:9845, V-B:HIS:456:CE1:9040, V-A:HIS:456:CE1:4069, V-A:GLU:543:CD:4907, V-B:TYR:539:CE2:9847, V-B:GLU:543:CD:9879, V-A:ASP:366:CG:3212, V-B:GLU:543:C:9873, V-A:ASP:366:CA:3209, V-A:ASP:366:CB:3211, V-A:TYR:531:CZ:4793, V-B:GLU:543:CG:9878, V-A:TYR:484:CZ:4346, V-A:SER:385:CA:3406, V-A:SER:385:CB:3408, V-A:TYR:484:CE2:4345, H-A:GLY:454:N:4049, V-B:ALA:541:CB:9863, H-A:ARG:545:NH2:4927, V-A:LEU:475:CD2:4258, V-A:ASP:366:C:3207, V-A:ASN:370:CB:3244, H-A:TYR:484:OH:4347, V-A:TYR:531:CE1:4791, V-A:GLY:454:CA:4048, V-A:SER:385:C:3404, V-B:GLU:543:CA:9875, H-A:GLU:543:OE1:4908, H-A:GLU:543:OE2:4909"]

$$$$
3ad_Grossjean_2025
     RDKit          3D

 29 31  0  0  0  0  0  0  0  0999 V2000
  132.7570  123.0350   64.3150 N   0  0  0  0  0  0  0  0  0  0  0  0
  131.9300  123.0490   63.5060 C   0  0  0  0  0  0  0  0  0  0  0  0
  130.8790  123.0660   62.4840 C   0  0  0  0  0  0  0  0  0  0  0  0
  129.5170  122.9180   62.8430 C   0  0  0  0  0  0  0  0  0  0  0  0
  129.0530  122.7770   64.3060 C   0  0  0  0  0  0  0  0  0  0  0  0
  127.7240  122.7320   64.4250 F   0  0  0  0  0  0  0  0  0  0  0  0
  129.5420  121.6530   64.8320 F   0  0  0  0  0  0  0  0  0  0  0  0
  129.4830  123.8140   65.0250 F   0  0  0  0  0  0  0  0  0  0  0  0
  128.5540  122.8940   61.8230 C   0  0  0  0  0  0  0  0  0  0  0  0
  128.9390  123.0120   60.4830 C   0  0  0  0  0  0  0  0  0  0  0  0
  127.9540  122.9780   59.3530 C   0  0  0  0  0  0  0  0  0  0  0  0
  126.6620  123.5040   59.5120 C   0  0  0  0  0  0  0  0  0  0  0  0
  125.7430  123.4760   58.4670 C   0  0  0  0  0  0  0  0  0  0  0  0
  126.1050  122.9200   57.2440 C   0  0  0  0  0  0  0  0  0  0  0  0
  127.3790  122.3950   57.0600 C   0  0  0  0  0  0  0  0  0  0  0  0
  128.2960  122.4260   58.1080 C   0  0  0  0  0  0  0  0  0  0  0  0
  130.2460  123.1470   60.1440 N   0  0  0  0  0  0  0  0  0  0  0  0
  131.1920  123.1940   61.1120 C   0  0  0  0  0  0  0  0  0  0  0  0
  132.8460  123.3870   60.4860 S   0  0  0  0  0  0  0  0  0  0  0  0
  133.9400  122.3780   61.5290 C   0  0  0  0  0  0  0  0  0  0  0  0
  133.4420  120.9370   61.6640 C   0  0  0  0  0  0  0  0  0  0  0  0
  133.9730  120.1950   62.4910 O   0  0  0  0  0  0  0  0  0  0  0  0
  132.4320  120.5930   60.8360 N   0  0  0  0  0  0  0  0  0  0  0  0
  131.7440  119.3720   60.7130 C   0  0  0  0  0  0  0  0  0  0  0  0
  130.6170  119.2260   61.5280 C   0  0  0  0  0  0  0  0  0  0  0  0
  129.8670  118.0550   61.4880 C   0  0  0  0  0  0  0  0  0  0  0  0
  130.2450  117.0220   60.6350 C   0  0  0  0  0  0  0  0  0  0  0  0
  131.3680  117.1500   59.8230 C   0  0  0  0  0  0  0  0  0  0  0  0
  132.1220  118.3210   59.8600 C   0  0  0  0  0  0  0  0  0  0  0  0
  1  2  3  0
  2  3  1  0
  3  4  2  0
  4  5  1  0
  5  6  1  0
  5  7  1  0
  5  8  1  0
  4  9  1  0
  9 10  2  0
 10 11  1  0
 11 12  2  0
 12 13  1  0
 13 14  2  0
 14 15  1  0
 15 16  2  0
 10 17  1  0
 17 18  2  0
 18 19  1  0
 19 20  1  0
 20 21  1  0
 21 22  2  0
 21 23  1  0
 23 24  1  0
 24 25  2  0
 25 26  1  0
 26 27  2  0
 27 28  1  0
 28 29  2  0
 18  3  1  0
 29 24  1  0
 16 11  1  0
M  END
>  <Binding energies>  (28) 
[-7.75]

>  <Ligand effiencies>  (28) 
[-0.25833333333333336]

>  <Interactions>  (28) 
["V-B:PRO:540:CD:9858, V-B:PRO:540:N:9855, V-B:MET:535:CE:9806, V-B:TYR:539:CD2:9845, V-B:TYR:539:CZ:9848, V-B:TYR:539:C:9838, V-B:TYR:539:CD1:9844, V-B:PRO:540:CB:9856, V-B:TYR:539:CE2:9847, V-B:GLU:543:CD:9879, V-B:TYR:539:CG:9843, V-B:GLU:543:CG:9878, V-A:LEU:475:CG:4256, V-A:ILE:369:CG2:3236, V-A:SER:385:CA:3406, V-B:ALA:541:C:9859, H-A:GLY:454:N:4049, V-B:ALA:541:CB:9863, V-A:ILE:369:CD1:3238, V-A:LEU:475:CD2:4258, V-A:LEU:475:CD1:4257, V-B:ALA:541:CA:9861, V-A:HIS:383:CE1:3393, V-A:PRO:482:CG:4326, V-B:PRO:540:CA:9854, V-B:TYR:539:CB:9842, H-A:TYR:484:OH:4347, V-A:PRO:482:CB:4325, V-B:VAL:344:CG1:7971, V-B:TYR:539:CA:9840"]

$$$$
3ai_Grossjean_2025
     RDKit          3D

 28 30  0  0  0  0  0  0  0  0999 V2000
  130.6040  125.6430   64.4570 N   0  0  0  0  0  0  0  0  0  0  0  0
  130.8060  124.6400   63.9160 C   0  0  0  0  0  0  0  0  0  0  0  0
  131.0640  123.3690   63.2320 C   0  0  0  0  0  0  0  0  0  0  0  0
  132.3710  123.0290   62.8060 C   0  0  0  0  0  0  0  0  0  0  0  0
  133.5930  123.9310   63.0680 C   0  0  0  0  0  0  0  0  0  0  0  0
  134.7510  123.3280   62.7900 F   0  0  0  0  0  0  0  0  0  0  0  0
  133.5190  125.0270   62.3120 F   0  0  0  0  0  0  0  0  0  0  0  0
  133.6300  124.2920   64.3510 F   0  0  0  0  0  0  0  0  0  0  0  0
  132.5580  121.8230   62.1140 C   0  0  0  0  0  0  0  0  0  0  0  0
  131.4710  120.9820   61.8510 C   0  0  0  0  0  0  0  0  0  0  0  0
  131.6110  119.6890   61.1060 C   0  0  0  0  0  0  0  0  0  0  0  0
  132.7240  119.4520   60.2830 C   0  0  0  0  0  0  0  0  0  0  0  0
  132.8630  118.2520   59.5920 C   0  0  0  0  0  0  0  0  0  0  0  0
  131.8870  117.2680   59.7170 C   0  0  0  0  0  0  0  0  0  0  0  0
  130.7760  117.4760   60.5270 C   0  0  0  0  0  0  0  0  0  0  0  0
  130.6410  118.6770   61.2170 C   0  0  0  0  0  0  0  0  0  0  0  0
  130.2190  121.3170   62.2530 N   0  0  0  0  0  0  0  0  0  0  0  0
  130.0170  122.4640   62.9450 C   0  0  0  0  0  0  0  0  0  0  0  0
  128.3170  122.7240   63.4080 S   0  0  0  0  0  0  0  0  0  0  0  0
  127.6270  124.0070   62.3090 C   0  0  0  0  0  0  0  0  0  0  0  0
  126.8930  123.4740   61.0700 C   0  0  0  0  0  0  0  0  0  0  0  0
  125.7020  123.1600   61.1290 O   0  0  0  0  0  0  0  0  0  0  0  0
  127.6560  123.3860   59.9570 N   0  0  0  0  0  0  0  0  0  0  0  0
  127.2610  122.9480   58.7000 C   0  0  0  0  0  0  0  0  0  0  0  0
  126.0230  123.2570   58.1380 C   0  0  0  0  0  0  0  0  0  0  0  0
  126.0220  122.6420   56.9080 C   0  0  0  0  0  0  0  0  0  0  0  0
  127.2000  121.9950   56.7360 O   0  0  0  0  0  0  0  0  0  0  0  0
  127.9770  122.1970   57.8780 N   0  0  0  0  0  0  0  0  0  0  0  0
  1  2  3  0
  2  3  1  0
  3  4  2  0
  4  5  1  0
  5  6  1  0
  5  7  1  0
  5  8  1  0
  4  9  1  0
  9 10  2  0
 10 11  1  0
 11 12  2  0
 12 13  1  0
 13 14  2  0
 14 15  1  0
 15 16  2  0
 10 17  1  0
 17 18  2  0
 18 19  1  0
 19 20  1  0
 20 21  1  0
 21 22  2  0
 21 23  1  0
 23 24  1  0
 24 25  1  0
 25 26  2  0
 26 27  1  0
 27 28  1  0
 18  3  1  0
 28 24  2  0
 16 11  1  0
M  END
>  <Binding energies>  (29) 
[-7.92]

>  <Ligand effiencies>  (29) 
[-0.2731034482758621]

>  <Interactions>  (29) 
["V-B:PRO:540:CD:9858, V-B:PRO:540:N:9855, H-B:TYR:539:N:9841, V-B:TYR:539:CD2:9845, V-B:TYR:539:C:9838, V-B:PRO:540:CB:9856, V-B:TYR:539:CE2:9847, V-A:ASP:366:CG:3212, V-A:ILE:369:CG2:3236, V-B:ALA:541:CB:9863, V-A:ILE:369:CD1:3238, V-A:LEU:475:CD2:4258, V-A:HIS:383:CE1:3393, V-B:PRO:540:CA:9854, V-B:TYR:539:CB:9842, H-B:ALA:541:N:9862, V-A:LEU:373:CD2:3280, V-A:GLY:453:C:4041, V-A:GLY:453:CA:4043, V-A:GLY:454:CA:4048"]

$$$$
3aj_Grossjean_2025
     RDKit          3D

 28 30  0  0  0  0  0  0  0  0999 V2000
  131.2870  125.5930   64.5980 N   0  0  0  0  0  0  0  0  0  0  0  0
  131.3610  124.5800   64.0440 C   0  0  0  0  0  0  0  0  0  0  0  0
  131.4570  123.2960   63.3430 C   0  0  0  0  0  0  0  0  0  0  0  0
  132.6560  122.9150   62.6930 C   0  0  0  0  0  0  0  0  0  0  0  0
  133.9280  123.7850   62.7160 C   0  0  0  0  0  0  0  0  0  0  0  0
  133.9540  124.6360   63.7450 F   0  0  0  0  0  0  0  0  0  0  0  0
  135.0090  123.0110   62.8060 F   0  0  0  0  0  0  0  0  0  0  0  0
  134.0060  124.5090   61.5990 F   0  0  0  0  0  0  0  0  0  0  0  0
  132.6820  121.6980   61.9950 C   0  0  0  0  0  0  0  0  0  0  0  0
  131.5430  120.8870   61.9430 C   0  0  0  0  0  0  0  0  0  0  0  0
  131.5130  119.5840   61.2050 C   0  0  0  0  0  0  0  0  0  0  0  0
  130.4610  118.6760   61.3970 C   0  0  0  0  0  0  0  0  0  0  0  0
  130.4250  117.4640   60.7100 C   0  0  0  0  0  0  0  0  0  0  0  0
  131.4460  117.1450   59.8210 C   0  0  0  0  0  0  0  0  0  0  0  0
  132.4990  118.0290   59.6120 C   0  0  0  0  0  0  0  0  0  0  0  0
  132.5300  119.2390   60.2990 C   0  0  0  0  0  0  0  0  0  0  0  0
  130.3940  121.2610   62.5620 N   0  0  0  0  0  0  0  0  0  0  0  0
  130.3510  122.4190   63.2620 C   0  0  0  0  0  0  0  0  0  0  0  0
  128.7720  122.7310   64.0220 S   0  0  0  0  0  0  0  0  0  0  0  0
  127.9140  123.9990   63.0290 C   0  0  0  0  0  0  0  0  0  0  0  0
  127.2120  123.4710   61.7680 C   0  0  0  0  0  0  0  0  0  0  0  0
  126.0870  122.9700   61.8350 O   0  0  0  0  0  0  0  0  0  0  0  0
  127.9240  123.6080   60.6280 N   0  0  0  0  0  0  0  0  0  0  0  0
  127.5290  123.2240   59.3530 C   0  0  0  0  0  0  0  0  0  0  0  0
  128.2240  122.5540   58.4590 N   0  0  0  0  0  0  0  0  0  0  0  0
  127.5330  122.3600   57.3530 C   0  0  0  0  0  0  0  0  0  0  0  0
  126.2420  122.8830   57.3340 C   0  0  0  0  0  0  0  0  0  0  0  0
  125.9290  123.6680   58.8520 S   0  0  0  0  0  0  0  0  0  0  0  0
  1  2  3  0
  2  3  1  0
  3  4  2  0
  4  5  1  0
  5  6  1  0
  5  7  1  0
  5  8  1  0
  4  9  1  0
  9 10  2  0
 10 11  1  0
 11 12  2  0
 12 13  1  0
 13 14  2  0
 14 15  1  0
 15 16  2  0
 10 17  1  0
 17 18  2  0
 18 19  1  0
 19 20  1  0
 20 21  1  0
 21 22  2  0
 21 23  1  0
 23 24  1  0
 24 25  2  0
 25 26  1  0
 26 27  2  0
 27 28  1  0
 18  3  1  0
 28 24  1  0
 16 11  1  0
M  END
>  <Binding energies>  (30) 
[-7.74]

>  <Ligand effiencies>  (30) 
[-0.26689655172413795]

>  <Interactions>  (30) 
["V-B:PRO:540:CD:9858, V-B:PRO:540:N:9855, V-B:MET:535:CE:9806, V-B:TYR:539:CD2:9845, V-B:TYR:539:C:9838, V-B:TYR:539:CD1:9844, V-B:PRO:540:CB:9856, V-B:TYR:539:CE2:9847, V-B:GLU:543:CD:9879, V-B:TYR:539:CG:9843, V-A:ASP:366:CG:3212, V-B:ALA:541:CB:9863, V-A:ILE:369:CD1:3238, V-A:LEU:475:CD2:4258, V-A:HIS:383:CE1:3393, V-A:PRO:482:CG:4326, V-B:PRO:540:CA:9854, V-B:TYR:539:CB:9842, H-B:ALA:541:N:9862, V-A:PRO:482:CB:4325, V-A:GLY:453:C:4041, V-A:GLY:453:CA:4043, V-A:GLY:454:CA:4048, V-B:TYR:539:CA:9840"]

$$$$
3ak_Grossjean_2025
     RDKit          3D

 33 34  0  0  0  0  0  0  0  0999 V2000
  129.6410  126.8120   56.5050 C   0  0  0  0  0  0  0  0  0  0  0  0
  131.0520  126.8730   56.3670 O   0  0  0  0  0  0  0  0  0  0  0  0
  131.7510  126.5870   57.5710 C   0  0  0  0  0  0  0  0  0  0  0  0
  131.2190  125.2740   58.1570 C   0  0  0  0  0  0  0  0  0  0  0  0
  130.7160  125.5210   59.4660 O   0  0  0  0  0  0  0  0  0  0  0  0
  131.5330  125.0580   60.5370 C   0  0  0  0  0  0  0  0  0  0  0  0
  132.7130  124.1790   60.0810 C   0  0  0  0  0  0  0  0  0  0  0  0
  132.5860  122.8890   60.6630 O   0  0  0  0  0  0  0  0  0  0  0  0
  133.7690  122.4250   61.3000 C   0  0  0  0  0  0  0  0  0  0  0  0
  133.9770  123.1620   62.6350 C   0  0  0  0  0  0  0  0  0  0  0  0
  132.7290  123.6050   63.2610 N   0  0  0  0  0  0  0  0  0  0  0  0
  132.6240  124.4650   64.2920 C   0  0  0  0  0  0  0  0  0  0  0  0
  133.6020  124.9960   64.8190 O   0  0  0  0  0  0  0  0  0  0  0  0
  131.2250  124.7990   64.8380 C   0  0  0  0  0  0  0  0  0  0  0  0
  130.0270  123.4170   64.9200 S   0  0  0  0  0  0  0  0  0  0  0  0
  129.7460  122.8040   63.2660 C   0  0  0  0  0  0  0  0  0  0  0  0
  130.3560  121.6310   62.9640 N   0  0  0  0  0  0  0  0  0  0  0  0
  130.2070  121.0880   61.7290 C   0  0  0  0  0  0  0  0  0  0  0  0
  130.9150  119.7890   61.4820 C   0  0  0  0  0  0  0  0  0  0  0  0
  132.2130  119.7700   60.9470 C   0  0  0  0  0  0  0  0  0  0  0  0
  132.8770  118.5680   60.7180 C   0  0  0  0  0  0  0  0  0  0  0  0
  132.2510  117.3640   61.0250 C   0  0  0  0  0  0  0  0  0  0  0  0
  130.9670  117.3550   61.5590 C   0  0  0  0  0  0  0  0  0  0  0  0
  130.3060  118.5590   61.7870 C   0  0  0  0  0  0  0  0  0  0  0  0
  129.4150  121.7140   60.7610 C   0  0  0  0  0  0  0  0  0  0  0  0
  128.7720  122.9270   61.0480 C   0  0  0  0  0  0  0  0  0  0  0  0
  127.9100  123.5880   59.9540 C   0  0  0  0  0  0  0  0  0  0  0  0
  128.1290  122.9960   58.7800 F   0  0  0  0  0  0  0  0  0  0  0  0
  126.6170  123.4740   60.2610 F   0  0  0  0  0  0  0  0  0  0  0  0
  128.1720  124.8880   59.8040 F   0  0  0  0  0  0  0  0  0  0  0  0
  128.9400  123.4930   62.3340 C   0  0  0  0  0  0  0  0  0  0  0  0
  128.2910  124.7600   62.6900 C   0  0  0  0  0  0  0  0  0  0  0  0
  127.7810  125.7600   62.9710 N   0  0  0  0  0  0  0  0  0  0  0  0
  1  2  1  0
  2  3  1  0
  3  4  1  0
  4  5  1  0
  5  6  1  0
  6  7  1  0
  7  8  1  0
  8  9  1  0
  9 10  1  0
 10 11  1  0
 11 12  1  0
 12 13  2  0
 12 14  1  0
 14 15  1  0
 15 16  1  0
 16 17  2  0
 17 18  1  0
 18 19  1  0
 19 20  2  0
 20 21  1  0
 21 22  2  0
 22 23  1  0
 23 24  2  0
 18 25  2  0
 25 26  1  0
 26 27  1  0
 27 28  1  0
 27 29  1  0
 27 30  1  0
 26 31  2  0
 31 32  1  0
 32 33  3  0
 31 16  1  0
 24 19  1  0
M  END
>  <Binding energies>  (31) 
[-6.01]

>  <Ligand effiencies>  (31) 
[-0.17676470588235293]

>  <Interactions>  (31) 
["V-B:PRO:540:N:9855, V-B:MET:535:CE:9806, V-B:TYR:539:CD2:9845, V-B:TYR:539:CZ:9848, H-A:TYR:531:OH:4794, V-B:TYR:539:C:9838, V-B:PRO:540:CB:9856, V-B:TYR:539:CE2:9847, V-B:GLU:543:CD:9879, V-A:ASP:366:CG:3212, V-A:ASP:366:CB:3211, V-A:ILE:369:CG2:3236, V-A:SER:385:CA:3406, V-A:SER:385:CB:3408, H-A:GLY:454:N:4049, V-B:ALA:541:CB:9863, V-A:ILE:369:CD1:3238, V-A:LEU:475:CD2:4258, V-A:HIS:383:CE1:3393, V-A:PRO:482:CG:4326, V-B:PRO:540:CA:9854, H-A:TYR:484:OH:4347, V-A:PRO:482:CB:4325, V-A:GLY:454:CA:4048"]

$$$$
3bk_Grossjean_2025
     RDKit          3D

 30 31  0  0  0  0  0  0  0  0999 V2000
  127.6730  122.3750   56.9700 C   0  0  0  0  0  0  0  0  0  0  0  0
  126.5100  121.6370   56.6270 O   0  0  0  0  0  0  0  0  0  0  0  0
  125.3860  122.4560   56.3360 C   0  0  0  0  0  0  0  0  0  0  0  0
  125.4640  123.7500   57.1580 C   0  0  0  0  0  0  0  0  0  0  0  0
  124.2420  124.4640   57.0300 O   0  0  0  0  0  0  0  0  0  0  0  0
  123.9060  125.2370   58.1750 C   0  0  0  0  0  0  0  0  0  0  0  0
  125.1470  125.3920   59.0640 C   0  0  0  0  0  0  0  0  0  0  0  0
  126.1220  126.1690   58.3820 O   0  0  0  0  0  0  0  0  0  0  0  0
  127.4500  125.9640   58.8470 C   0  0  0  0  0  0  0  0  0  0  0  0
  127.5390  124.6030   59.5520 C   0  0  0  0  0  0  0  0  0  0  0  0
  127.9280  124.7280   60.9580 N   0  0  0  0  0  0  0  0  0  0  0  0
  127.6920  123.8160   61.9160 C   0  0  0  0  0  0  0  0  0  0  0  0
  127.1270  122.7400   61.7130 O   0  0  0  0  0  0  0  0  0  0  0  0
  128.1940  124.1580   63.3210 C   0  0  0  0  0  0  0  0  0  0  0  0
  128.9960  122.7340   64.1240 S   0  0  0  0  0  0  0  0  0  0  0  0
  130.5260  122.3760   63.2780 C   0  0  0  0  0  0  0  0  0  0  0  0
  130.5520  121.2240   62.5610 N   0  0  0  0  0  0  0  0  0  0  0  0
  131.6770  120.8680   61.8860 C   0  0  0  0  0  0  0  0  0  0  0  0
  131.6140  119.5920   61.1020 C   0  0  0  0  0  0  0  0  0  0  0  0
  130.5470  118.6960   61.2750 C   0  0  0  0  0  0  0  0  0  0  0  0
  130.4860  117.5060   60.5540 C   0  0  0  0  0  0  0  0  0  0  0  0
  131.4930  117.1960   59.6470 C   0  0  0  0  0  0  0  0  0  0  0  0
  132.5590  118.0690   59.4530 C   0  0  0  0  0  0  0  0  0  0  0  0
  132.6160  119.2580   60.1750 C   0  0  0  0  0  0  0  0  0  0  0  0
  132.8170  121.6800   61.9130 C   0  0  0  0  0  0  0  0  0  0  0  0
  132.8080  122.8710   62.6480 C   0  0  0  0  0  0  0  0  0  0  0  0
  134.0740  123.7270   62.6510 C   0  0  0  0  0  0  0  0  0  0  0  0
  131.6420  123.2380   63.3510 C   0  0  0  0  0  0  0  0  0  0  0  0
  131.6030  124.4810   64.1280 C   0  0  0  0  0  0  0  0  0  0  0  0
  131.5720  125.4620   64.7420 N   0  0  0  0  0  0  0  0  0  0  0  0
  1  2  1  0
  2  3  1  0
  3  4  1  0
  4  5  1  0
  5  6  1  0
  6  7  1  0
  7  8  1  0
  8  9  1  0
  9 10  1  0
 10 11  1  0
 11 12  1  0
 12 13  2  0
 12 14  1  0
 14 15  1  0
 15 16  1  0
 16 17  2  0
 17 18  1  0
 18 19  1  0
 19 20  2  0
 20 21  1  0
 21 22  2  0
 22 23  1  0
 23 24  2  0
 18 25  2  0
 25 26  1  0
 26 27  1  0
 26 28  2  0
 28 29  1  0
 29 30  3  0
 28 16  1  0
 24 19  1  0
M  END
>  <Binding energies>  (32) 
[-7.12]

>  <Ligand effiencies>  (32) 
[-0.2296774193548387]

>  <Interactions>  (32) 
["V-B:PRO:540:CD:9858, V-B:PRO:540:N:9855, V-B:TYR:531:CE2:9764, H-B:TYR:539:N:9841, V-B:LEU:363:CD1:8159, V-B:MET:535:CE:9806, V-B:TYR:539:CD2:9845, V-B:ASP:366:CG:8183, V-B:TYR:539:CZ:9848, V-B:TYR:539:C:9838, V-B:TYR:539:CE1:9846, V-B:TYR:539:CD1:9844, V-B:TYR:539:CE2:9847, V-B:ASP:366:CB:8182, V-B:GLU:543:CD:9879, V-B:TYR:539:CG:9843, H-B:TYR:531:OH:9766, V-B:GLU:543:CG:9878, V-B:ALA:541:CB:9863, V-A:ILE:369:CD1:3238, V-A:LEU:475:CD2:4258, V-A:HIS:383:CE1:3393, V-A:PRO:482:CG:4326, V-B:TYR:539:CB:9842, H-A:TYR:484:OH:4347, H-B:ALA:541:N:9862, V-A:LEU:373:CD2:3280, V-A:GLY:454:CA:4048, V-B:TYR:539:CA:9840, V-B:TYR:531:CZ:9765, V-B:ILE:538:CG2:9834"]

$$$$
3cb_Grossjean_2025
     RDKit          3D

 30 32  0  0  0  0  0  0  0  0999 V2000
  129.3230  125.3630   72.8100 C   0  0  0  0  0  0  0  0  0  0  0  0
  128.8170  126.6220   72.3900 O   0  0  0  0  0  0  0  0  0  0  0  0
  128.0480  126.7300   71.2760 C   0  0  0  0  0  0  0  0  0  0  0  0
  126.8190  126.8400   71.3050 O   0  0  0  0  0  0  0  0  0  0  0  0
  128.8430  126.6990   70.0020 C   0  0  0  0  0  0  0  0  0  0  0  0
  129.3020  127.8720   69.3830 C   0  0  0  0  0  0  0  0  0  0  0  0
  130.0390  127.8080   68.2040 C   0  0  0  0  0  0  0  0  0  0  0  0
  130.3280  126.5770   67.6150 C   0  0  0  0  0  0  0  0  0  0  0  0
  131.0830  126.6290   66.4260 N   0  0  0  0  0  0  0  0  0  0  0  0
  131.2250  125.7090   65.4470 C   0  0  0  0  0  0  0  0  0  0  0  0
  130.6690  124.6100   65.4260 O   0  0  0  0  0  0  0  0  0  0  0  0
  132.1510  126.1390   64.2990 C   0  0  0  0  0  0  0  0  0  0  0  0
  133.6160  125.0780   64.0530 S   0  0  0  0  0  0  0  0  0  0  0  0
  133.2870  124.0060   62.6700 C   0  0  0  0  0  0  0  0  0  0  0  0
  133.5290  124.5860   61.4690 N   0  0  0  0  0  0  0  0  0  0  0  0
  133.3150  123.8650   60.3460 C   0  0  0  0  0  0  0  0  0  0  0  0
  133.6190  124.5730   59.0390 C   0  0  0  0  0  0  0  0  0  0  0  0
  132.8500  122.5540   60.3740 C   0  0  0  0  0  0  0  0  0  0  0  0
  132.5770  121.9390   61.6030 C   0  0  0  0  0  0  0  0  0  0  0  0
  132.0740  120.5320   61.5810 C   0  0  0  0  0  0  0  0  0  0  0  0
  132.9620  119.4700   61.3640 C   0  0  0  0  0  0  0  0  0  0  0  0
  132.5050  118.1550   61.3520 C   0  0  0  0  0  0  0  0  0  0  0  0
  131.1530  117.8940   61.5610 C   0  0  0  0  0  0  0  0  0  0  0  0
  130.2580  118.9360   61.7850 C   0  0  0  0  0  0  0  0  0  0  0  0
  130.7190  120.2500   61.7990 C   0  0  0  0  0  0  0  0  0  0  0  0
  132.7850  122.6870   62.7910 C   0  0  0  0  0  0  0  0  0  0  0  0
  132.4280  122.1280   64.0990 C   0  0  0  0  0  0  0  0  0  0  0  0
  132.1470  121.6860   65.1310 N   0  0  0  0  0  0  0  0  0  0  0  0
  129.8770  125.3990   68.2290 C   0  0  0  0  0  0  0  0  0  0  0  0
  129.1400  125.4640   69.4100 C   0  0  0  0  0  0  0  0  0  0  0  0
  1  2  1  0
  2  3  1  0
  3  4  2  0
  3  5  1  0
  5  6  2  0
  6  7  1  0
  7  8  2  0
  8  9  1  0
  9 10  1  0
 10 11  2  0
 10 12  1  0
 12 13  1  0
 13 14  1  0
 14 15  2  0
 15 16  1  0
 16 17  1  0
 16 18  2  0
 18 19  1  0
 19 20  1  0
 20 21  2  0
 21 22  1  0
 22 23  2  0
 23 24  1  0
 24 25  2  0
 19 26  2  0
 26 27  1  0
 27 28  3  0
  8 29  1  0
 29 30  2  0
 30  5  1  0
 26 14  1  0
 25 20  1  0
M  END
>  <Binding energies>  (33) 
[-8.58]

>  <Ligand effiencies>  (33) 
[-0.2767741935483871]

>  <Interactions>  (33) 
["V-B:GLU:543:CB:9877, V-A:GLU:543:CB:4905, V-B:TYR:539:CD2:9845, V-B:HIS:456:CE1:9040, V-A:HIS:456:CE1:4069, V-A:GLU:543:CD:4907, V-B:TYR:539:CE2:9847, V-B:GLU:543:CD:9879, V-A:ASP:366:CG:3212, V-B:GLU:543:C:9873, V-A:ASP:366:CA:3209, V-A:ASP:366:CB:3211, V-A:HIS:456:CD2:4067, V-A:TYR:484:CZ:4346, V-A:ILE:369:CG2:3236, V-A:ARG:545:CZ:4925, V-A:SER:385:CA:3406, V-A:SER:385:CB:3408, V-A:TYR:484:CE2:4345, H-A:GLY:454:N:4049, V-B:ALA:541:CB:9863, H-A:ARG:545:NH2:4927, V-A:ILE:369:CD1:3238, V-A:LEU:475:CD2:4258, V-A:ILE:369:CB:3235, V-A:ASP:366:C:3207, H-A:TYR:484:OH:4347, V-A:PRO:482:CB:4325, V-A:GLY:454:CA:4048, V-B:GLU:543:CA:9875, H-A:GLU:543:OE1:4908, H-A:GLU:543:OE2:4909, H-B:HIS:456:ND1:9037"]

$$$$
3ch_Grossjean_2025
     RDKit          3D

 32 34  0  0  0  0  0  0  0  0999 V2000
  134.2090  124.1470   62.5450 C   0  0  0  0  0  0  0  0  0  0  0  0
  134.2740  124.9880   63.6920 O   0  0  0  0  0  0  0  0  0  0  0  0
  133.1040  125.4550   64.2630 C   0  0  0  0  0  0  0  0  0  0  0  0
  131.8560  125.4440   63.6180 C   0  0  0  0  0  0  0  0  0  0  0  0
  130.7080  125.9270   64.2640 C   0  0  0  0  0  0  0  0  0  0  0  0
  129.4180  125.9520   63.7020 N   0  0  0  0  0  0  0  0  0  0  0  0
  129.0320  126.2330   62.4380 C   0  0  0  0  0  0  0  0  0  0  0  0
  129.7860  126.5190   61.5090 O   0  0  0  0  0  0  0  0  0  0  0  0
  127.5300  126.1380   62.1710 C   0  0  0  0  0  0  0  0  0  0  0  0
  126.9850  124.4220   61.9230 S   0  0  0  0  0  0  0  0  0  0  0  0
  128.2850  123.3920   62.5670 C   0  0  0  0  0  0  0  0  0  0  0  0
  128.4220  123.4580   63.9150 N   0  0  0  0  0  0  0  0  0  0  0  0
  129.3880  122.7170   64.5030 C   0  0  0  0  0  0  0  0  0  0  0  0
  129.4900  122.8410   66.0110 C   0  0  0  0  0  0  0  0  0  0  0  0
  130.2470  121.8930   63.7800 C   0  0  0  0  0  0  0  0  0  0  0  0
  130.1170  121.8060   62.3860 C   0  0  0  0  0  0  0  0  0  0  0  0
  131.0670  120.9170   61.6510 C   0  0  0  0  0  0  0  0  0  0  0  0
  130.7410  119.5760   61.4210 C   0  0  0  0  0  0  0  0  0  0  0  0
  131.6250  118.7400   60.7440 C   0  0  0  0  0  0  0  0  0  0  0  0
  132.8440  119.2430   60.2970 C   0  0  0  0  0  0  0  0  0  0  0  0
  133.1870  120.5730   60.5240 C   0  0  0  0  0  0  0  0  0  0  0  0
  132.3010  121.4060   61.2020 C   0  0  0  0  0  0  0  0  0  0  0  0
  129.0950  122.5620   61.7570 C   0  0  0  0  0  0  0  0  0  0  0  0
  128.8520  122.4380   60.3170 C   0  0  0  0  0  0  0  0  0  0  0  0
  128.6610  122.3410   59.1790 N   0  0  0  0  0  0  0  0  0  0  0  0
  130.8220  126.4400   65.5570 C   0  0  0  0  0  0  0  0  0  0  0  0
  132.0580  126.4640   66.2220 C   0  0  0  0  0  0  0  0  0  0  0  0
  132.2360  126.9520   67.5050 O   0  0  0  0  0  0  0  0  0  0  0  0
  131.1310  127.5240   68.1970 C   0  0  0  0  0  0  0  0  0  0  0  0
  133.1910  125.9710   65.5630 C   0  0  0  0  0  0  0  0  0  0  0  0
  134.4040  125.9720   66.2090 O   0  0  0  0  0  0  0  0  0  0  0  0
  134.3750  125.3710   67.4970 C   0  0  0  0  0  0  0  0  0  0  0  0
  1  2  1  0
  2  3  1  0
  3  4  2  0
  4  5  1  0
  5  6  1  0
  6  7  1  0
  7  8  2  0
  7  9  1  0
  9 10  1  0
 10 11  1  0
 11 12  2  0
 12 13  1  0
 13 14  1  0
 13 15  2  0
 15 16  1  0
 16 17  1  0
 17 18  2  0
 18 19  1  0
 19 20  2  0
 20 21  1  0
 21 22  2  0
 16 23  2  0
 23 24  1  0
 24 25  3  0
  5 26  2  0
 26 27  1  0
 27 28  1  0
 28 29  1  0
 27 30  2  0
 30 31  1  0
 31 32  1  0
 30  3  1  0
 23 11  1  0
 22 17  1  0
M  END
>  <Binding energies>  (34) 
[-7.87]

>  <Ligand effiencies>  (34) 
[-0.2384848484848485]

>  <Interactions>  (34) 
["V-B:GLU:543:CB:9877, V-A:GLU:543:CB:4905, V-B:TYR:539:CD2:9845, V-A:HIS:456:CE1:4069, V-B:TYR:539:C:9838, V-A:GLU:543:CD:4907, V-B:TYR:539:CE2:9847, V-B:GLU:543:CD:9879, V-A:ASP:366:CG:3212, V-B:GLU:543:CG:9878, V-A:TYR:484:CZ:4346, H-A:ARG:545:NE:4923, V-A:ILE:369:CG2:3236, V-A:ARG:545:CZ:4925, V-A:SER:385:CA:3406, H-A:ARG:545:NH1:4926, V-A:ARG:545:CD:4922, V-A:TYR:484:CE2:4345, H-A:GLY:454:N:4049, V-B:ALA:541:CB:9863, V-A:ARG:545:CG:4921, V-A:ILE:369:CD1:3238, V-A:LEU:475:CD2:4258, V-A:LEU:475:CD1:4257, V-B:PRO:540:CA:9854, H-A:TYR:484:OH:4347, V-A:GLY:453:C:4041, V-A:GLY:454:CA:4048, V-A:ILE:455:C:4051, H-B:GLU:543:OE2:9881, H-B:GLU:543:OE1:9880"]

$$$$
3ci_Grossjean_2025
     RDKit          3D

 25 27  0  0  0  0  0  0  0  0999 V2000
  134.7340  124.6040   62.9370 C   0  0  0  0  0  0  0  0  0  0  0  0
  133.4400  123.8990   62.5780 C   0  0  0  0  0  0  0  0  0  0  0  0
  133.4320  122.6210   62.0260 C   0  0  0  0  0  0  0  0  0  0  0  0
  132.2090  122.0050   61.7260 C   0  0  0  0  0  0  0  0  0  0  0  0
  132.2490  120.6270   61.1500 C   0  0  0  0  0  0  0  0  0  0  0  0
  133.2410  120.2630   60.2300 C   0  0  0  0  0  0  0  0  0  0  0  0
  133.2680  118.9800   59.6890 C   0  0  0  0  0  0  0  0  0  0  0  0
  132.2960  118.0560   60.0620 C   0  0  0  0  0  0  0  0  0  0  0  0
  131.2980  118.4040   60.9680 C   0  0  0  0  0  0  0  0  0  0  0  0
  131.2740  119.6870   61.5070 C   0  0  0  0  0  0  0  0  0  0  0  0
  131.0120  122.7190   61.9870 C   0  0  0  0  0  0  0  0  0  0  0  0
  129.7050  122.1420   61.6540 C   0  0  0  0  0  0  0  0  0  0  0  0
  128.6740  121.6850   61.3910 N   0  0  0  0  0  0  0  0  0  0  0  0
  131.1110  124.0120   62.5540 C   0  0  0  0  0  0  0  0  0  0  0  0
  129.6660  124.9920   62.9450 S   0  0  0  0  0  0  0  0  0  0  0  0
  130.1210  126.3000   64.1290 C   0  0  0  0  0  0  0  0  0  0  0  0
  131.0340  125.8080   65.2580 C   0  0  0  0  0  0  0  0  0  0  0  0
  130.6150  124.9550   66.0430 O   0  0  0  0  0  0  0  0  0  0  0  0
  132.2580  126.3790   65.3140 N   0  0  0  0  0  0  0  0  0  0  0  0
  133.2770  126.0960   66.2130 C   0  0  0  0  0  0  0  0  0  0  0  0
  133.1080  126.1470   67.5960 C   0  0  0  0  0  0  0  0  0  0  0  0
  134.3350  125.8080   68.1200 C   0  0  0  0  0  0  0  0  0  0  0  0
  135.1970  125.5650   67.1040 O   0  0  0  0  0  0  0  0  0  0  0  0
  134.5160  125.7520   65.9000 N   0  0  0  0  0  0  0  0  0  0  0  0
  132.3070  124.5890   62.8360 N   0  0  0  0  0  0  0  0  0  0  0  0
  1  2  1  0
  2  3  2  0
  3  4  1  0
  4  5  1  0
  5  6  2  0
  6  7  1  0
  7  8  2  0
  8  9  1  0
  9 10  2  0
  4 11  2  0
 11 12  1  0
 12 13  3  0
 11 14  1  0
 14 15  1  0
 15 16  1  0
 16 17  1  0
 17 18  2  0
 17 19  1  0
 19 20  1  0
 20 21  1  0
 21 22  2  0
 22 23  1  0
 23 24  1  0
 14 25  2  0
 25  2  1  0
 10  5  1  0
 24 20  2  0
M  END
>  <Binding energies>  (35) 
[-8.36]

>  <Ligand effiencies>  (35) 
[-0.3215384615384615]

>  <Interactions>  (35) 
["V-B:TYR:539:CD2:9845, V-A:HIS:456:CE1:4069, V-A:GLU:543:CD:4907, V-B:TYR:539:CE2:9847, V-A:ASP:366:CG:3212, V-A:HIS:456:CD2:4067, V-A:TYR:484:CZ:4346, H-A:ARG:545:NE:4923, V-A:ILE:369:CG2:3236, V-A:ARG:545:CZ:4925, V-A:SER:385:CA:3406, H-A:ARG:545:NH1:4926, V-A:ARG:545:CD:4922, H-A:GLY:454:N:4049, V-B:ALA:541:CB:9863, V-A:ARG:545:CG:4921, V-A:ILE:369:CD1:3238, V-A:LEU:475:CD2:4258, H-A:TYR:484:OH:4347, H-B:ALA:541:N:9862, V-A:LEU:373:CD2:3280, V-A:GLY:453:C:4041, V-A:GLY:453:CA:4043, V-A:GLY:454:CA:4048, V-A:ARG:545:CB:4920, V-A:ILE:455:C:4051, H-A:GLU:543:OE1:4908, H-A:GLU:543:OE2:4909, V-A:HIS:456:CG:4065, H-A:ILE:455:N:4054"]

$$$$
3ck_Grossjean_2025
     RDKit          3D

 30 31  0  0  0  0  0  0  0  0999 V2000
  124.3960  123.8680   57.3240 C   0  0  0  0  0  0  0  0  0  0  0  0
  125.3610  123.4700   56.3620 O   0  0  0  0  0  0  0  0  0  0  0  0
  126.7010  123.6850   56.7830 C   0  0  0  0  0  0  0  0  0  0  0  0
  127.3000  122.3630   57.2820 C   0  0  0  0  0  0  0  0  0  0  0  0
  128.5190  122.6280   57.9650 O   0  0  0  0  0  0  0  0  0  0  0  0
  128.3990  122.6200   59.3820 C   0  0  0  0  0  0  0  0  0  0  0  0
  129.7470  123.0100   60.0010 C   0  0  0  0  0  0  0  0  0  0  0  0
  129.8330  124.4270   60.0300 O   0  0  0  0  0  0  0  0  0  0  0  0
  129.3780  125.0260   61.2330 C   0  0  0  0  0  0  0  0  0  0  0  0
  130.1270  126.3520   61.4640 C   0  0  0  0  0  0  0  0  0  0  0  0
  131.2170  126.2520   62.4390 N   0  0  0  0  0  0  0  0  0  0  0  0
  131.1600  125.6010   63.6150 C   0  0  0  0  0  0  0  0  0  0  0  0
  130.1650  124.9800   63.9960 O   0  0  0  0  0  0  0  0  0  0  0  0
  132.4330  125.6710   64.4730 C   0  0  0  0  0  0  0  0  0  0  0  0
  133.9580  125.0770   63.6610 S   0  0  0  0  0  0  0  0  0  0  0  0
  133.5170  124.0520   62.2660 C   0  0  0  0  0  0  0  0  0  0  0  0
  133.6890  124.6190   61.0450 N   0  0  0  0  0  0  0  0  0  0  0  0
  133.3710  123.9010   59.9450 C   0  0  0  0  0  0  0  0  0  0  0  0
  133.5870  124.6010   58.6170 C   0  0  0  0  0  0  0  0  0  0  0  0
  132.8720  122.6030   60.0140 C   0  0  0  0  0  0  0  0  0  0  0  0
  132.6810  122.0000   61.2640 C   0  0  0  0  0  0  0  0  0  0  0  0
  132.1220  120.6150   61.2900 C   0  0  0  0  0  0  0  0  0  0  0  0
  132.9240  119.5260   60.9240 C   0  0  0  0  0  0  0  0  0  0  0  0
  132.4060  118.2330   60.9370 C   0  0  0  0  0  0  0  0  0  0  0  0
  131.0820  118.0240   61.3100 C   0  0  0  0  0  0  0  0  0  0  0  0
  130.2700  119.0970   61.6690 C   0  0  0  0  0  0  0  0  0  0  0  0
  130.7890  120.3890   61.6550 C   0  0  0  0  0  0  0  0  0  0  0  0
  133.0220  122.7370   62.4270 C   0  0  0  0  0  0  0  0  0  0  0  0
  132.8820  122.1410   63.7600 C   0  0  0  0  0  0  0  0  0  0  0  0
  132.7720  121.6710   64.8120 N   0  0  0  0  0  0  0  0  0  0  0  0
  1  2  1  0
  2  3  1  0
  3  4  1  0
  4  5  1  0
  5  6  1  0
  6  7  1  0
  7  8  1  0
  8  9  1  0
  9 10  1  0
 10 11  1  0
 11 12  1  0
 12 13  2  0
 12 14  1  0
 14 15  1  0
 15 16  1  0
 16 17  2  0
 17 18  1  0
 18 19  1  0
 18 20  2  0
 20 21  1  0
 21 22  1  0
 22 23  2  0
 23 24  1  0
 24 25  2  0
 25 26  1  0
 26 27  2  0
 21 28  2  0
 28 29  1  0
 29 30  3  0
 28 16  1  0
 27 22  1  0
M  END
>  <Binding energies>  (36) 
[-6.37]

>  <Ligand effiencies>  (36) 
[-0.20548387096774193]

>  <Interactions>  (36) 
["V-B:PRO:540:CD:9858, V-B:PRO:540:N:9855, V-B:TYR:531:CE2:9764, V-B:LEU:363:CD1:8159, V-B:MET:535:CE:9806, V-B:TYR:539:CD2:9845, V-B:TYR:539:C:9838, V-B:PRO:540:CB:9856, V-B:TYR:539:CE2:9847, V-B:TYR:539:CG:9843, V-A:ASP:366:CG:3212, V-A:ASP:366:CA:3209, V-A:ASP:366:CB:3211, H-B:TYR:531:OH:9766, V-A:ILE:369:CG2:3236, V-A:ARG:545:CZ:4925, V-A:SER:385:CA:3406, H-A:ARG:545:NH1:4926, V-A:SER:385:CB:3408, H-A:GLY:454:N:4049, V-B:ALA:541:CB:9863, H-A:ARG:545:NH2:4927, V-A:ILE:369:CD1:3238, V-A:LEU:475:CD2:4258, V-B:PRO:540:CA:9854, V-A:ILE:369:CB:3235, V-A:ASP:366:C:3207, H-A:TYR:484:OH:4347, H-A:ASP:366:OD1:3213, H-A:ASP:366:OD2:3214, V-A:GLY:454:CA:4048, V-B:TYR:539:CA:9840, V-B:TYR:531:CZ:9765"]

$$$$
4aa_Grossjean_2025
     RDKit          3D

 26 28  0  0  0  0  0  0  0  0999 V2000
  131.1920  122.7030   73.9590 C   0  0  0  0  0  0  0  0  0  0  0  0
  129.8780  122.6620   73.1720 C   0  0  0  0  0  0  0  0  0  0  0  0
  128.9370  123.5380   73.7780 O   0  0  0  0  0  0  0  0  0  0  0  0
  129.1320  124.8820   73.7820 C   0  0  0  0  0  0  0  0  0  0  0  0
  129.7740  125.4740   74.6570 O   0  0  0  0  0  0  0  0  0  0  0  0
  128.4870  125.5790   72.6200 C   0  0  0  0  0  0  0  0  0  0  0  0
  129.1170  125.5500   71.3690 C   0  0  0  0  0  0  0  0  0  0  0  0
  128.5460  126.1910   70.2730 C   0  0  0  0  0  0  0  0  0  0  0  0
  127.3320  126.8660   70.4020 C   0  0  0  0  0  0  0  0  0  0  0  0
  126.8500  127.4860   69.2330 N   0  0  0  0  0  0  0  0  0  0  0  0
  125.6400  128.0390   68.9730 C   0  0  0  0  0  0  0  0  0  0  0  0
  124.6970  128.0450   69.7650 O   0  0  0  0  0  0  0  0  0  0  0  0
  125.4970  128.6300   67.6410 C   0  0  0  0  0  0  0  0  0  0  0  0
  123.9240  129.2110   67.0890 S   0  0  0  0  0  0  0  0  0  0  0  0
  124.5850  129.6660   65.5350 C   0  0  0  0  0  0  0  0  0  0  0  0
  123.8310  130.2160   64.5820 N   0  0  0  0  0  0  0  0  0  0  0  0
  124.4660  130.5180   63.4220 C   0  0  0  0  0  0  0  0  0  0  0  0
  123.5900  131.1370   62.3490 C   0  0  0  0  0  0  0  0  0  0  0  0
  125.8220  130.2890   63.1980 C   0  0  0  0  0  0  0  0  0  0  0  0
  126.6100  129.7130   64.2020 C   0  0  0  0  0  0  0  0  0  0  0  0
  128.0850  129.4830   63.9100 C   0  0  0  0  0  0  0  0  0  0  0  0
  125.9790  129.3790   65.4300 C   0  0  0  0  0  0  0  0  0  0  0  0
  126.4730  128.7840   66.6440 C   0  0  0  0  0  0  0  0  0  0  0  0
  127.7850  128.4110   66.7940 N   0  0  0  0  0  0  0  0  0  0  0  0
  126.6960  126.9060   71.6510 C   0  0  0  0  0  0  0  0  0  0  0  0
  127.2700  126.2670   72.7480 C   0  0  0  0  0  0  0  0  0  0  0  0
  1  2  1  0
  2  3  1  0
  3  4  1  0
  4  5  2  0
  4  6  1  0
  6  7  2  0
  7  8  1  0
  8  9  2  0
  9 10  1  0
 10 11  1  0
 11 12  2  0
 11 13  1  0
 13 14  1  0
 14 15  1  0
 15 16  2  0
 16 17  1  0
 17 18  1  0
 17 19  2  0
 19 20  1  0
 20 21  1  0
 20 22  2  0
 22 23  1  0
 23 24  1  0
  9 25  1  0
 25 26  2  0
 26  6  1  0
 23 13  2  0
 22 15  1  0
M  END
>  <Binding energies>  (37) 
[-7.35]

>  <Ligand effiencies>  (37) 
[-0.253448275862069]

>  <Interactions>  (37) 
["V-B:GLU:543:CB:9877, H-B:GLY:454:N:9020, V-B:HIS:456:CE1:9040, V-A:HIS:456:CE1:4069, V-B:GLU:543:CD:9879, V-B:LYS:547:CE:9921, V-B:GLU:543:C:9873, V-B:GLY:544:CA:9885, V-B:GLY:544:C:9883, V-B:ARG:545:CZ:9897, V-A:HIS:456:CD2:4067, V-B:ARG:545:CG:9893, H-B:LYS:547:NZ:9922, V-B:ARG:545:CD:9894, H-B:GLU:543:OE2:9881, V-A:HIS:456:CG:4065, V-A:HIS:456:CB:4064, H-B:ARG:545:N:9891, V-B:ARG:545:CA:9890, H-B:GLU:543:OE1:9880, H-B:HIS:456:ND1:9037, V-A:TYR:484:CD2:4343, V-A:ASP:473:CG:4239, V-A:TYR:484:CB:4340, V-A:TYR:484:CG:4341"]

$$$$
4ab_Grossjean_2025
     RDKit          3D

 25 27  0  0  0  0  0  0  0  0999 V2000
  130.9310  126.3080   74.2520 C   0  0  0  0  0  0  0  0  0  0  0  0
  129.7420  125.6050   74.5860 O   0  0  0  0  0  0  0  0  0  0  0  0
  129.1520  124.7680   73.6950 C   0  0  0  0  0  0  0  0  0  0  0  0
  129.1530  123.5380   73.8130 O   0  0  0  0  0  0  0  0  0  0  0  0
  128.5040  125.4850   72.5460 C   0  0  0  0  0  0  0  0  0  0  0  0
  129.1060  125.4350   71.2820 C   0  0  0  0  0  0  0  0  0  0  0  0
  128.5300  126.0920   70.1970 C   0  0  0  0  0  0  0  0  0  0  0  0
  127.3400  126.8030   70.3520 C   0  0  0  0  0  0  0  0  0  0  0  0
  126.8510  127.4340   69.1920 N   0  0  0  0  0  0  0  0  0  0  0  0
  125.6410  127.9910   68.9440 C   0  0  0  0  0  0  0  0  0  0  0  0
  124.7030  127.9940   69.7430 O   0  0  0  0  0  0  0  0  0  0  0  0
  125.4900  128.5910   67.6170 C   0  0  0  0  0  0  0  0  0  0  0  0
  123.9150  129.1850   67.0830 S   0  0  0  0  0  0  0  0  0  0  0  0
  124.5650  129.6480   65.5270 C   0  0  0  0  0  0  0  0  0  0  0  0
  123.8070  130.2060   64.5820 N   0  0  0  0  0  0  0  0  0  0  0  0
  124.4330  130.5150   63.4210 C   0  0  0  0  0  0  0  0  0  0  0  0
  123.5510  131.1440   62.3580 C   0  0  0  0  0  0  0  0  0  0  0  0
  125.7860  130.2850   63.1850 C   0  0  0  0  0  0  0  0  0  0  0  0
  126.5790  129.6980   64.1780 C   0  0  0  0  0  0  0  0  0  0  0  0
  128.0510  129.4650   63.8720 C   0  0  0  0  0  0  0  0  0  0  0  0
  125.9570  129.3560   65.4090 C   0  0  0  0  0  0  0  0  0  0  0  0
  126.4570  128.7480   66.6130 C   0  0  0  0  0  0  0  0  0  0  0  0
  127.7680  128.3670   66.7490 N   0  0  0  0  0  0  0  0  0  0  0  0
  126.7330  126.8640   71.6150 C   0  0  0  0  0  0  0  0  0  0  0  0
  127.3110  126.2090   72.6990 C   0  0  0  0  0  0  0  0  0  0  0  0
  1  2  1  0
  2  3  1  0
  3  4  2  0
  3  5  1  0
  5  6  2  0
  6  7  1  0
  7  8  2  0
  8  9  1  0
  9 10  1  0
 10 11  2  0
 10 12  1  0
 12 13  1  0
 13 14  1  0
 14 15  2  0
 15 16  1  0
 16 17  1  0
 16 18  2  0
 18 19  1  0
 19 20  1  0
 19 21  2  0
 21 22  1  0
 22 23  1  0
  8 24  1  0
 24 25  2  0
 25  5  1  0
 22 12  2  0
 21 14  1  0
M  END
>  <Binding energies>  (38) 
[-7.18]

>  <Ligand effiencies>  (38) 
[-0.2564285714285714]

>  <Interactions>  (38) 
["V-B:GLU:543:CB:9877, H-B:GLY:454:N:9020, V-B:HIS:456:CE1:9040, V-A:HIS:456:CE1:4069, V-B:GLU:543:CD:9879, V-B:LYS:547:CE:9921, V-B:GLU:543:C:9873, V-B:GLY:544:CA:9885, V-B:GLY:544:C:9883, V-B:ARG:545:CZ:9897, V-A:HIS:456:CD2:4067, V-B:ARG:545:CG:9893, H-B:LYS:547:NZ:9922, V-B:ARG:545:CD:9894, H-B:GLU:543:OE2:9881, V-A:HIS:456:CG:4065, H-B:ARG:545:N:9891, V-B:ARG:545:CA:9890, H-B:GLU:543:OE1:9880, H-B:HIS:456:ND1:9037"]

$$$$
4ac_Grossjean_2025
     RDKit          3D

 23 25  0  0  0  0  0  0  0  0999 V2000
  129.7190  123.8790   73.9950 C   0  0  0  0  0  0  0  0  0  0  0  0
  128.7690  124.9380   73.9610 O   0  0  0  0  0  0  0  0  0  0  0  0
  128.4270  125.4990   72.7460 C   0  0  0  0  0  0  0  0  0  0  0  0
  127.2690  126.2760   72.7230 C   0  0  0  0  0  0  0  0  0  0  0  0
  126.8450  126.8820   71.5440 C   0  0  0  0  0  0  0  0  0  0  0  0
  127.5830  126.7260   70.3700 C   0  0  0  0  0  0  0  0  0  0  0  0
  127.0720  127.3640   69.2250 N   0  0  0  0  0  0  0  0  0  0  0  0
  125.8310  127.8600   69.0020 C   0  0  0  0  0  0  0  0  0  0  0  0
  124.9040  127.7880   69.8120 O   0  0  0  0  0  0  0  0  0  0  0  0
  125.6360  128.5030   67.7000 C   0  0  0  0  0  0  0  0  0  0  0  0
  124.0490  129.1180   67.2380 S   0  0  0  0  0  0  0  0  0  0  0  0
  124.6570  129.6610   65.6900 C   0  0  0  0  0  0  0  0  0  0  0  0
  123.8730  130.2660   64.7960 N   0  0  0  0  0  0  0  0  0  0  0  0
  124.4690  130.6360   63.6370 C   0  0  0  0  0  0  0  0  0  0  0  0
  123.5610  131.3240   62.6340 C   0  0  0  0  0  0  0  0  0  0  0  0
  125.8150  130.4150   63.3520 C   0  0  0  0  0  0  0  0  0  0  0  0
  126.6340  129.7790   64.2920 C   0  0  0  0  0  0  0  0  0  0  0  0
  128.0960  129.5610   63.9340 C   0  0  0  0  0  0  0  0  0  0  0  0
  126.0450  129.3790   65.5210 C   0  0  0  0  0  0  0  0  0  0  0  0
  126.5790  128.7200   66.6830 C   0  0  0  0  0  0  0  0  0  0  0  0
  127.8960  128.3430   66.7690 N   0  0  0  0  0  0  0  0  0  0  0  0
  128.7420  125.9360   70.3810 C   0  0  0  0  0  0  0  0  0  0  0  0
  129.1620  125.3310   71.5630 C   0  0  0  0  0  0  0  0  0  0  0  0
  1  2  1  0
  2  3  1  0
  3  4  2  0
  4  5  1  0
  5  6  2  0
  6  7  1  0
  7  8  1  0
  8  9  2  0
  8 10  1  0
 10 11  1  0
 11 12  1  0
 12 13  2  0
 13 14  1  0
 14 15  1  0
 14 16  2  0
 16 17  1  0
 17 18  1  0
 17 19  2  0
 19 20  1  0
 20 21  1  0
  6 22  1  0
 22 23  2  0
 23  3  1  0
 20 10  2  0
 19 12  1  0
M  END
>  <Binding energies>  (39) 
[-6.92]

>  <Ligand effiencies>  (39) 
[-0.26615384615384613]

>  <Interactions>  (39) 
["V-B:GLU:543:CB:9877, H-B:GLY:454:N:9020, V-B:HIS:456:CE1:9040, V-A:HIS:456:CE1:4069, V-B:GLU:543:CD:9879, V-B:LYS:547:CE:9921, V-B:GLU:543:C:9873, V-B:GLY:544:CA:9885, V-B:GLY:544:C:9883, V-B:ARG:545:CZ:9897, V-A:HIS:456:CD2:4067, V-B:ARG:545:CG:9893, H-B:LYS:547:NZ:9922, V-B:ARG:545:CD:9894, H-B:GLU:543:OE2:9881, H-B:ARG:545:N:9891, H-B:GLU:543:OE1:9880, H-B:HIS:456:ND1:9037"]

$$$$
4ad_Grossjean_2025
     RDKit          3D

 21 23  0  0  0  0  0  0  0  0999 V2000
  133.2770  125.3810   65.4490 C   0  0  0  0  0  0  0  0  0  0  0  0
  132.4870  124.5330   64.4700 C   0  0  0  0  0  0  0  0  0  0  0  0
  133.0030  123.3370   63.9760 C   0  0  0  0  0  0  0  0  0  0  0  0
  132.2570  122.5720   63.0720 C   0  0  0  0  0  0  0  0  0  0  0  0
  132.8640  121.2760   62.5580 C   0  0  0  0  0  0  0  0  0  0  0  0
  130.9780  123.0600   62.6900 C   0  0  0  0  0  0  0  0  0  0  0  0
  129.9680  122.5440   61.8040 C   0  0  0  0  0  0  0  0  0  0  0  0
  130.1240  121.3590   61.1290 N   0  0  0  0  0  0  0  0  0  0  0  0
  128.8280  123.3570   61.7030 C   0  0  0  0  0  0  0  0  0  0  0  0
  127.6290  123.1480   60.8890 C   0  0  0  0  0  0  0  0  0  0  0  0
  126.5740  122.7810   61.4090 O   0  0  0  0  0  0  0  0  0  0  0  0
  127.7750  123.3970   59.5640 N   0  0  0  0  0  0  0  0  0  0  0  0
  126.8430  123.2550   58.5190 C   0  0  0  0  0  0  0  0  0  0  0  0
  127.2920  122.5640   57.3890 C   0  0  0  0  0  0  0  0  0  0  0  0
  126.4410  122.3630   56.3060 C   0  0  0  0  0  0  0  0  0  0  0  0
  125.1360  122.8450   56.3540 C   0  0  0  0  0  0  0  0  0  0  0  0
  124.6720  123.5230   57.4790 C   0  0  0  0  0  0  0  0  0  0  0  0
  125.5210  123.7270   58.5630 C   0  0  0  0  0  0  0  0  0  0  0  0
  128.9790  124.7940   62.7160 S   0  0  0  0  0  0  0  0  0  0  0  0
  130.5630  124.2980   63.2660 C   0  0  0  0  0  0  0  0  0  0  0  0
  131.2730  125.0280   64.1290 N   0  0  0  0  0  0  0  0  0  0  0  0
  1  2  1  0
  2  3  2  0
  3  4  1  0
  4  5  1  0
  4  6  2  0
  6  7  1  0
  7  8  1  0
  7  9  2  0
  9 10  1  0
 10 11  2  0
 10 12  1  0
 12 13  1  0
 13 14  2  0
 14 15  1  0
 15 16  2  0
 16 17  1  0
 17 18  2  0
  9 19  1  0
 19 20  1  0
 20 21  2  0
 21  2  1  0
 20  6  1  0
 18 13  1  0
M  END
>  <Binding energies>  (40) 
[-6.63]

>  <Ligand effiencies>  (40) 
[-0.27625]

>  <Interactions>  (40) 
["V-B:PRO:540:CD:9858, V-B:PRO:540:N:9855, V-B:TYR:531:CE2:9764, V-B:LEU:363:CD1:8159, V-B:MET:535:CE:9806, V-B:TYR:539:CD2:9845, V-B:TYR:539:C:9838, V-B:PRO:540:CB:9856, V-B:TYR:539:CE2:9847, V-A:ARG:545:CZ:4925, V-A:LEU:475:CD2:4258, V-B:PRO:540:CA:9854, H-B:ALA:541:N:9862, H-B:TYR:539:O:9839, V-A:GLY:454:CA:4048, V-B:TYR:531:CZ:9765, V-B:ILE:538:CA:9831"]

$$$$
4ae_Grossjean_2025
     RDKit          3D

 22 24  0  0  0  0  0  0  0  0999 V2000
  132.8130  117.4990   58.5100 C   0  0  0  0  0  0  0  0  0  0  0  0
  131.7520  117.7470   59.5650 C   0  0  0  0  0  0  0  0  0  0  0  0
  130.6780  116.8710   59.7420 C   0  0  0  0  0  0  0  0  0  0  0  0
  129.7360  117.1680   60.7270 C   0  0  0  0  0  0  0  0  0  0  0  0
  129.8860  118.3200   61.5010 C   0  0  0  0  0  0  0  0  0  0  0  0
  130.9900  119.1510   61.2760 C   0  0  0  0  0  0  0  0  0  0  0  0
  131.0760  120.3060   62.0720 N   0  0  0  0  0  0  0  0  0  0  0  0
  130.1350  121.2590   62.2890 C   0  0  0  0  0  0  0  0  0  0  0  0
  129.0120  121.2430   61.7800 O   0  0  0  0  0  0  0  0  0  0  0  0
  130.5370  122.3460   63.1830 C   0  0  0  0  0  0  0  0  0  0  0  0
  129.5020  122.8200   64.5320 S   0  0  0  0  0  0  0  0  0  0  0  0
  130.6110  124.0880   65.0000 C   0  0  0  0  0  0  0  0  0  0  0  0
  130.3730  124.8840   66.0430 N   0  0  0  0  0  0  0  0  0  0  0  0
  131.3080  125.8300   66.2960 C   0  0  0  0  0  0  0  0  0  0  0  0
  131.0140  126.7290   67.4830 C   0  0  0  0  0  0  0  0  0  0  0  0
  132.4680  125.9960   65.5390 C   0  0  0  0  0  0  0  0  0  0  0  0
  132.7150  125.1580   64.4460 C   0  0  0  0  0  0  0  0  0  0  0  0
  133.9910  125.3800   63.6490 C   0  0  0  0  0  0  0  0  0  0  0  0
  131.7540  124.1540   64.1480 C   0  0  0  0  0  0  0  0  0  0  0  0
  131.6880  123.1480   63.1210 C   0  0  0  0  0  0  0  0  0  0  0  0
  132.6700  123.0020   62.1750 N   0  0  0  0  0  0  0  0  0  0  0  0
  131.9130  118.8700   60.3100 N   0  0  0  0  0  0  0  0  0  0  0  0
  1  2  1  0
  2  3  2  0
  3  4  1  0
  4  5  2  0
  5  6  1  0
  6  7  1  0
  7  8  1  0
  8  9  2  0
  8 10  1  0
 10 11  1  0
 11 12  1  0
 12 13  2  0
 13 14  1  0
 14 15  1  0
 14 16  2  0
 16 17  1  0
 17 18  1  0
 17 19  2  0
 19 20  1  0
 20 21  1  0
  6 22  2  0
 22  2  1  0
 20 10  2  0
 19 12  1  0
M  END
>  <Binding energies>  (41) 
[-6.49]

>  <Ligand effiencies>  (41) 
[-0.2596]

>  <Interactions>  (41) 
["V-B:TYR:539:CD2:9845, V-A:HIS:456:CE1:4069, V-B:TYR:539:C:9838, V-B:GLU:543:CD:9879, V-B:TYR:539:CG:9843, V-A:ASP:366:CG:3212, V-B:GLU:543:CG:9878, V-A:ARG:545:CZ:4925, V-B:ALA:541:CB:9863, V-A:LEU:475:CD2:4258, V-A:HIS:383:CE1:3393, V-A:PRO:482:CG:4326, V-B:TYR:539:CB:9842, H-A:TYR:484:OH:4347, H-B:ALA:541:N:9862, V-A:PRO:482:CB:4325, V-A:LEU:373:CD2:3280, V-A:GLY:453:C:4041, V-A:GLY:453:CA:4043, V-A:LEU:373:CG:3278, V-B:VAL:344:CG1:7971, V-A:LEU:373:CD1:3279"]

$$$$
4af_Grossjean_2025
     RDKit          3D

 21 23  0  0  0  0  0  0  0  0999 V2000
  133.2110  125.3810   65.4530 C   0  0  0  0  0  0  0  0  0  0  0  0
  132.4170  124.5300   64.4790 C   0  0  0  0  0  0  0  0  0  0  0  0
  132.9190  123.3170   64.0120 C   0  0  0  0  0  0  0  0  0  0  0  0
  132.1700  122.5490   63.1120 C   0  0  0  0  0  0  0  0  0  0  0  0
  132.7610  121.2340   62.6300 C   0  0  0  0  0  0  0  0  0  0  0  0
  130.9050  123.0520   62.7050 C   0  0  0  0  0  0  0  0  0  0  0  0
  129.8990  122.5380   61.8140 C   0  0  0  0  0  0  0  0  0  0  0  0
  130.0450  121.3430   61.1560 N   0  0  0  0  0  0  0  0  0  0  0  0
  128.7730  123.3670   61.6870 C   0  0  0  0  0  0  0  0  0  0  0  0
  127.5870  123.1710   60.8500 C   0  0  0  0  0  0  0  0  0  0  0  0
  126.4930  122.9260   61.3610 O   0  0  0  0  0  0  0  0  0  0  0  0
  127.7920  123.2950   59.5160 N   0  0  0  0  0  0  0  0  0  0  0  0
  126.8870  123.1230   58.4520 C   0  0  0  0  0  0  0  0  0  0  0  0
  125.6050  123.6970   58.3700 C   0  0  0  0  0  0  0  0  0  0  0  0
  124.7980  123.4310   57.2620 C   0  0  0  0  0  0  0  0  0  0  0  0
  125.2910  122.5900   56.2630 C   0  0  0  0  0  0  0  0  0  0  0  0
  126.5190  122.0170   56.3220 N   0  0  0  0  0  0  0  0  0  0  0  0
  127.2910  122.2860   57.4050 C   0  0  0  0  0  0  0  0  0  0  0  0
  128.9360  124.8190   62.6770 S   0  0  0  0  0  0  0  0  0  0  0  0
  130.5050  124.3060   63.2560 C   0  0  0  0  0  0  0  0  0  0  0  0
  131.2150  125.0390   64.1140 N   0  0  0  0  0  0  0  0  0  0  0  0
  1  2  1  0
  2  3  2  0
  3  4  1  0
  4  5  1  0
  4  6  2  0
  6  7  1  0
  7  8  1  0
  7  9  2  0
  9 10  1  0
 10 11  2  0
 10 12  1  0
 12 13  1  0
 13 14  2  0
 14 15  1  0
 15 16  2  0
 16 17  1  0
 17 18  2  0
  9 19  1  0
 19 20  1  0
 20 21  2  0
 21  2  1  0
 20  6  1  0
 18 13  1  0
M  END
>  <Binding energies>  (42) 
[-6.81]

>  <Ligand effiencies>  (42) 
[-0.28375]

>  <Interactions>  (42) 
["V-B:PRO:540:CD:9858, V-B:PRO:540:N:9855, V-B:TYR:531:CE2:9764, H-B:TYR:539:N:9841, V-B:LEU:363:CD1:8159, V-B:MET:535:CE:9806, V-B:TYR:539:CD2:9845, V-B:TYR:539:C:9838, V-B:PRO:540:CB:9856, V-B:TYR:539:CE2:9847, V-B:TYR:539:CG:9843, V-A:ARG:545:CZ:4925, V-B:ALA:541:CB:9863, V-A:LEU:475:CD2:4258, V-B:PRO:540:CA:9854, H-B:ALA:541:N:9862, H-B:TYR:539:O:9839, V-A:GLY:454:CA:4048, V-B:TYR:539:CA:9840, V-B:ILE:538:CG2:9834, V-B:ILE:538:CD1:9836"]

$$$$
4ag_Grossjean_2025
     RDKit          3D

 22 24  0  0  0  0  0  0  0  0999 V2000
  129.4920  117.1120   60.7660 C   0  0  0  0  0  0  0  0  0  0  0  0
  130.5230  118.2160   60.9170 C   0  0  0  0  0  0  0  0  0  0  0  0
  131.7500  118.1460   60.2590 C   0  0  0  0  0  0  0  0  0  0  0  0
  132.6860  119.1750   60.4110 C   0  0  0  0  0  0  0  0  0  0  0  0
  134.0100  119.0530   59.6730 C   0  0  0  0  0  0  0  0  0  0  0  0
  132.3370  120.2700   61.2470 C   0  0  0  0  0  0  0  0  0  0  0  0
  133.0400  121.4680   61.6170 C   0  0  0  0  0  0  0  0  0  0  0  0
  134.3010  121.7520   61.1550 N   0  0  0  0  0  0  0  0  0  0  0  0
  132.3220  122.3030   62.4860 C   0  0  0  0  0  0  0  0  0  0  0  0
  132.7260  123.5910   63.0490 C   0  0  0  0  0  0  0  0  0  0  0  0
  133.8850  123.7960   63.4190 O   0  0  0  0  0  0  0  0  0  0  0  0
  131.7570  124.5250   63.1530 N   0  0  0  0  0  0  0  0  0  0  0  0
  131.9400  125.8840   63.6600 C   0  0  0  0  0  0  0  0  0  0  0  0
  132.3890  125.9470   65.1150 C   0  0  0  0  0  0  0  0  0  0  0  0
  133.7260  125.7020   65.4410 C   0  0  0  0  0  0  0  0  0  0  0  0
  134.1450  125.7840   66.7670 C   0  0  0  0  0  0  0  0  0  0  0  0
  133.2280  126.1210   67.7600 C   0  0  0  0  0  0  0  0  0  0  0  0
  131.8980  126.3820   67.4400 C   0  0  0  0  0  0  0  0  0  0  0  0
  131.4790  126.3010   66.1150 C   0  0  0  0  0  0  0  0  0  0  0  0
  130.7380  121.6250   62.8630 S   0  0  0  0  0  0  0  0  0  0  0  0
  131.0500  120.2240   61.8630 C   0  0  0  0  0  0  0  0  0  0  0  0
  130.1560  119.2450   61.7190 N   0  0  0  0  0  0  0  0  0  0  0  0
  1  2  1  0
  2  3  2  0
  3  4  1  0
  4  5  1  0
  4  6  2  0
  6  7  1  0
  7  8  1  0
  7  9  2  0
  9 10  1  0
 10 11  2  0
 10 12  1  0
 12 13  1  0
 13 14  1  0
 14 15  2  0
 15 16  1  0
 16 17  2  0
 17 18  1  0
 18 19  2  0
  9 20  1  0
 20 21  1  0
 21 22  2  0
 22  2  1  0
 21  6  1  0
 19 14  1  0
M  END
>  <Binding energies>  (43) 
[-7.0]

>  <Ligand effiencies>  (43) 
[-0.28]

>  <Interactions>  (43) 
["V-B:TYR:539:CD2:9845, V-A:HIS:456:CE1:4069, V-B:TYR:539:C:9838, V-A:HIS:456:CD2:4067, V-A:VAL:384:C:3396, V-A:TYR:484:CZ:4346, V-A:ILE:369:CG2:3236, V-A:ARG:545:CZ:4925, V-A:SER:385:CA:3406, V-A:ARG:545:CD:4922, H-A:GLY:454:N:4049, V-B:ALA:541:CB:9863, V-A:ARG:545:CG:4921, V-A:ILE:369:CD1:3238, V-A:LEU:475:CD2:4258, V-A:HIS:383:CE1:3393, V-A:PRO:482:CG:4326, V-B:TYR:539:CB:9842, V-A:ILE:369:CB:3235, V-A:PRO:482:CB:4325, V-A:LEU:373:CD2:3280, V-B:VAL:344:CG1:7971, V-A:SER:385:C:3404, H-A:SER:385:O:3405, V-A:ILE:369:CG1:3237"]

$$$$
4ah_Grossjean_2025
     RDKit          3D

 28 30  0  0  0  0  0  0  0  0999 V2000
  129.1710  124.0140   73.1320 C   0  0  0  0  0  0  0  0  0  0  0  0
  128.5460  125.2690   73.3680 O   0  0  0  0  0  0  0  0  0  0  0  0
  129.2510  126.4360   73.1260 C   0  0  0  0  0  0  0  0  0  0  0  0
  129.1150  127.2050   71.9600 C   0  0  0  0  0  0  0  0  0  0  0  0
  129.8600  128.3710   71.7820 C   0  0  0  0  0  0  0  0  0  0  0  0
  129.6650  129.2190   70.5290 C   0  0  0  0  0  0  0  0  0  0  0  0
  130.2040  128.6040   69.3170 N   0  0  0  0  0  0  0  0  0  0  0  0
  129.7130  127.5010   68.7140 C   0  0  0  0  0  0  0  0  0  0  0  0
  128.7570  126.8670   69.1650 O   0  0  0  0  0  0  0  0  0  0  0  0
  130.4110  127.0660   67.5050 C   0  0  0  0  0  0  0  0  0  0  0  0
  131.9240  126.1670   67.6290 S   0  0  0  0  0  0  0  0  0  0  0  0
  132.0780  126.1000   65.8870 C   0  0  0  0  0  0  0  0  0  0  0  0
  133.1050  125.4930   65.2930 N   0  0  0  0  0  0  0  0  0  0  0  0
  133.1050  125.5110   63.9380 C   0  0  0  0  0  0  0  0  0  0  0  0
  134.2840  124.8170   63.2810 C   0  0  0  0  0  0  0  0  0  0  0  0
  132.1100  126.1150   63.1720 C   0  0  0  0  0  0  0  0  0  0  0  0
  131.0340  126.7530   63.7980 C   0  0  0  0  0  0  0  0  0  0  0  0
  129.9730  127.3990   62.9190 C   0  0  0  0  0  0  0  0  0  0  0  0
  131.0010  126.7570   65.2190 C   0  0  0  0  0  0  0  0  0  0  0  0
  130.0700  127.3100   66.1660 C   0  0  0  0  0  0  0  0  0  0  0  0
  128.9510  128.0020   65.7780 N   0  0  0  0  0  0  0  0  0  0  0  0
  130.7310  128.7910   72.7880 C   0  0  0  0  0  0  0  0  0  0  0  0
  130.8920  128.0390   73.9620 C   0  0  0  0  0  0  0  0  0  0  0  0
  131.7470  128.3880   74.9920 O   0  0  0  0  0  0  0  0  0  0  0  0
  133.0880  127.9110   74.9760 C   0  0  0  0  0  0  0  0  0  0  0  0
  130.1500  126.8590   74.1150 C   0  0  0  0  0  0  0  0  0  0  0  0
  130.2830  126.1220   75.2680 O   0  0  0  0  0  0  0  0  0  0  0  0
  131.3430  125.1770   75.2310 C   0  0  0  0  0  0  0  0  0  0  0  0
  1  2  1  0
  2  3  1  0
  3  4  2  0
  4  5  1  0
  5  6  1  0
  6  7  1  0
  7  8  1  0
  8  9  2  0
  8 10  1  0
 10 11  1  0
 11 12  1  0
 12 13  2  0
 13 14  1  0
 14 15  1  0
 14 16  2  0
 16 17  1  0
 17 18  1  0
 17 19  2  0
 19 20  1  0
 20 21  1  0
  5 22  2  0
 22 23  1  0
 23 24  1  0
 24 25  1  0
 23 26  2  0
 26 27  1  0
 27 28  1  0
 26  3  1  0
 20 10  2  0
 19 12  1  0
M  END
>  <Binding energies>  (44) 
[-6.61]

>  <Ligand effiencies>  (44) 
[-0.2132258064516129]

>  <Interactions>  (44) 
["V-A:GLU:543:CB:4905, V-B:HIS:456:CE1:9040, V-A:HIS:456:CE1:4069, V-A:GLU:543:CD:4907, V-B:GLU:543:CD:9879, V-A:ASP:366:CG:3212, V-B:GLU:543:C:9873, V-A:HIS:456:CD2:4067, H-B:LYS:547:NZ:9922, V-A:TYR:484:CZ:4346, V-A:ARG:545:CZ:4925, H-A:GLY:454:N:4049, V-A:ILE:369:CD1:3238, H-A:TYR:484:OH:4347, V-A:GLY:453:C:4041, V-A:GLY:453:CA:4043, V-A:GLY:454:CA:4048, H-A:GLU:543:OE1:4908, H-A:GLU:543:OE2:4909, H-B:GLU:543:OE2:9881, V-A:GLU:543:C:4901, H-A:LYS:547:NZ:4950, V-A:HIS:456:CG:4065, H-B:GLU:543:OE1:9880, V-A:GLY:544:C:4911, V-A:GLY:544:CA:4913, H-A:GLU:543:O:4902"]

$$$$
4ai_Grossjean_2025
     RDKit          3D

 20 22  0  0  0  0  0  0  0  0999 V2000
  133.4230  125.5100   65.1330 C   0  0  0  0  0  0  0  0  0  0  0  0
  132.6910  124.6240   64.1410 C   0  0  0  0  0  0  0  0  0  0  0  0
  133.2650  123.4410   63.6770 C   0  0  0  0  0  0  0  0  0  0  0  0
  132.5700  122.6360   62.7680 C   0  0  0  0  0  0  0  0  0  0  0  0
  133.2370  121.3540   62.2930 C   0  0  0  0  0  0  0  0  0  0  0  0
  131.2820  123.0680   62.3490 C   0  0  0  0  0  0  0  0  0  0  0  0
  130.3150  122.5010   61.4480 C   0  0  0  0  0  0  0  0  0  0  0  0
  130.5370  121.3210   60.7840 N   0  0  0  0  0  0  0  0  0  0  0  0
  129.1400  123.2580   61.3220 C   0  0  0  0  0  0  0  0  0  0  0  0
  127.9650  122.9850   60.4920 C   0  0  0  0  0  0  0  0  0  0  0  0
  126.8530  122.8400   61.0030 O   0  0  0  0  0  0  0  0  0  0  0  0
  128.1980  122.9260   59.1560 N   0  0  0  0  0  0  0  0  0  0  0  0
  127.2720  122.6940   58.1470 C   0  0  0  0  0  0  0  0  0  0  0  0
  125.9700  123.1920   58.1790 C   0  0  0  0  0  0  0  0  0  0  0  0
  125.3860  122.7430   57.0170 C   0  0  0  0  0  0  0  0  0  0  0  0
  126.2890  122.0140   56.3210 O   0  0  0  0  0  0  0  0  0  0  0  0
  127.4820  121.9910   57.0460 N   0  0  0  0  0  0  0  0  0  0  0  0
  129.2160  124.7200   62.3080 S   0  0  0  0  0  0  0  0  0  0  0  0
  130.8080  124.2980   62.8970 C   0  0  0  0  0  0  0  0  0  0  0  0
  131.4680  125.0680   63.7630 N   0  0  0  0  0  0  0  0  0  0  0  0
  1  2  1  0
  2  3  2  0
  3  4  1  0
  4  5  1  0
  4  6  2  0
  6  7  1  0
  7  8  1  0
  7  9  2  0
  9 10  1  0
 10 11  2  0
 10 12  1  0
 12 13  1  0
 13 14  1  0
 14 15  2  0
 15 16  1  0
 16 17  1  0
  9 18  1  0
 18 19  1  0
 19 20  2  0
 20  2  1  0
 19  6  1  0
 17 13  2  0
M  END
>  <Binding energies>  (45) 
[-6.6]

>  <Ligand effiencies>  (45) 
[-0.28695652173913044]

>  <Interactions>  (45) 
["V-B:PRO:540:CD:9858, V-B:PRO:540:N:9855, H-B:TYR:539:N:9841, V-B:LEU:363:CD1:8159, V-B:TYR:539:CD2:9845, V-B:TYR:539:C:9838, V-B:PRO:540:CB:9856, V-B:TYR:539:CE2:9847, V-A:ARG:545:CZ:4925, V-A:LEU:475:CD2:4258, V-B:PRO:540:CA:9854, H-B:ALA:541:N:9862, H-B:TYR:539:O:9839, V-A:GLY:454:CA:4048"]

$$$$
4aj_Grossjean_2025
     RDKit          3D

 20 22  0  0  0  0  0  0  0  0999 V2000
  127.8240  125.7530   72.7380 C   0  0  0  0  0  0  0  0  0  0  0  0
  127.7740  126.3540   71.3450 C   0  0  0  0  0  0  0  0  0  0  0  0
  128.9070  126.3840   70.5350 C   0  0  0  0  0  0  0  0  0  0  0  0
  128.8390  126.9480   69.2560 C   0  0  0  0  0  0  0  0  0  0  0  0
  130.1030  126.9570   68.4110 C   0  0  0  0  0  0  0  0  0  0  0  0
  127.5910  127.4760   68.8290 C   0  0  0  0  0  0  0  0  0  0  0  0
  127.1740  128.1130   67.6090 C   0  0  0  0  0  0  0  0  0  0  0  0
  128.0350  128.3270   66.5630 N   0  0  0  0  0  0  0  0  0  0  0  0
  125.8200  128.4840   67.5940 C   0  0  0  0  0  0  0  0  0  0  0  0
  125.0720  129.1550   66.5290 C   0  0  0  0  0  0  0  0  0  0  0  0
  124.2410  130.0260   66.7960 O   0  0  0  0  0  0  0  0  0  0  0  0
  125.3720  128.7590   65.2680 N   0  0  0  0  0  0  0  0  0  0  0  0
  124.8200  129.2410   64.0890 C   0  0  0  0  0  0  0  0  0  0  0  0
  123.7580  130.0060   63.9480 N   0  0  0  0  0  0  0  0  0  0  0  0
  123.5210  130.2770   62.6790 C   0  0  0  0  0  0  0  0  0  0  0  0
  124.4040  129.7240   61.7560 C   0  0  0  0  0  0  0  0  0  0  0  0
  125.6060  128.8010   62.6080 S   0  0  0  0  0  0  0  0  0  0  0  0
  125.0260  128.0620   69.1120 S   0  0  0  0  0  0  0  0  0  0  0  0
  126.5050  127.3820   69.7520 C   0  0  0  0  0  0  0  0  0  0  0  0
  126.5670  126.8460   70.9720 N   0  0  0  0  0  0  0  0  0  0  0  0
  1  2  1  0
  2  3  2  0
  3  4  1  0
  4  5  1  0
  4  6  2  0
  6  7  1  0
  7  8  1  0
  7  9  2  0
  9 10  1  0
 10 11  2  0
 10 12  1  0
 12 13  1  0
 13 14  2  0
 14 15  1  0
 15 16  2  0
 16 17  1  0
  9 18  1  0
 18 19  1  0
 19 20  2  0
 20  2  1  0
 19  6  1  0
 17 13  1  0
M  END
>  <Binding energies>  (46) 
[-6.32]

>  <Ligand effiencies>  (46) 
[-0.2747826086956522]

>  <Interactions>  (46) 
["V-B:GLU:543:CB:9877, H-B:TYR:484:OH:9318, H-B:GLY:454:N:9020, V-B:ASP:366:CG:8183, V-B:HIS:456:CE1:9040, V-A:HIS:456:CE1:4069, V-B:GLU:543:CD:9879, V-B:LYS:547:CE:9921, V-B:GLU:543:C:9873, V-B:GLY:544:CA:9885, V-B:GLY:544:C:9883, V-B:ARG:545:CZ:9897, H-B:ARG:545:NH2:9899, V-B:ARG:545:CG:9893, H-B:GLU:543:OE2:9881, H-B:ARG:545:N:9891, V-B:ARG:545:CB:9892, V-B:ARG:545:CA:9890, H-B:GLU:543:OE1:9880, H-B:HIS:456:ND1:9037"]

$$$$
4ak_Grossjean_2025
     RDKit          3D

 25 26  0  0  0  0  0  0  0  0999 V2000
  131.6650  125.3920   58.7380 C   0  0  0  0  0  0  0  0  0  0  0  0
  132.7180  124.6400   58.1560 O   0  0  0  0  0  0  0  0  0  0  0  0
  133.6210  124.0970   59.1110 C   0  0  0  0  0  0  0  0  0  0  0  0
  132.9560  124.0840   60.4930 C   0  0  0  0  0  0  0  0  0  0  0  0
  132.1550  122.9170   60.6200 O   0  0  0  0  0  0  0  0  0  0  0  0
  132.9040  121.7130   60.7110 C   0  0  0  0  0  0  0  0  0  0  0  0
  132.9840  121.2760   62.1790 C   0  0  0  0  0  0  0  0  0  0  0  0
  133.0700  122.4270   63.0080 O   0  0  0  0  0  0  0  0  0  0  0  0
  132.8470  122.1600   64.3860 C   0  0  0  0  0  0  0  0  0  0  0  0
  131.3600  122.3860   64.7140 C   0  0  0  0  0  0  0  0  0  0  0  0
  130.5140  122.5300   63.5290 N   0  0  0  0  0  0  0  0  0  0  0  0
  129.1730  122.6680   63.5400 C   0  0  0  0  0  0  0  0  0  0  0  0
  128.5210  122.7080   64.5860 O   0  0  0  0  0  0  0  0  0  0  0  0
  128.5260  122.7780   62.2340 C   0  0  0  0  0  0  0  0  0  0  0  0
  129.4230  122.4020   60.7630 S   0  0  0  0  0  0  0  0  0  0  0  0
  128.0270  122.7490   59.7680 C   0  0  0  0  0  0  0  0  0  0  0  0
  128.0650  122.6470   58.4380 N   0  0  0  0  0  0  0  0  0  0  0  0
  126.9150  122.9460   57.7860 C   0  0  0  0  0  0  0  0  0  0  0  0
  126.9790  122.8230   56.2740 C   0  0  0  0  0  0  0  0  0  0  0  0
  125.7420  123.3400   58.4250 C   0  0  0  0  0  0  0  0  0  0  0  0
  125.7050  123.4450   59.8200 C   0  0  0  0  0  0  0  0  0  0  0  0
  124.4020  123.8820   60.4710 C   0  0  0  0  0  0  0  0  0  0  0  0
  126.8920  123.1400   60.5390 C   0  0  0  0  0  0  0  0  0  0  0  0
  127.2020  123.1430   61.9430 C   0  0  0  0  0  0  0  0  0  0  0  0
  126.2770  123.4780   62.8990 N   0  0  0  0  0  0  0  0  0  0  0  0
  1  2  1  0
  2  3  1  0
  3  4  1  0
  4  5  1  0
  5  6  1  0
  6  7  1  0
  7  8  1  0
  8  9  1  0
  9 10  1  0
 10 11  1  0
 11 12  1  0
 12 13  2  0
 12 14  1  0
 14 15  1  0
 15 16  1  0
 16 17  2  0
 17 18  1  0
 18 19  1  0
 18 20  2  0
 20 21  1  0
 21 22  1  0
 21 23  2  0
 23 24  1  0
 24 25  1  0
 24 14  2  0
 23 16  1  0
M  END
>  <Binding energies>  (47) 
[-4.92]

>  <Ligand effiencies>  (47) 
[-0.1757142857142857]

>  <Interactions>  (47) 
["V-B:PRO:540:N:9855, V-B:MET:535:CE:9806, V-B:TYR:539:CD2:9845, V-B:ASP:366:CG:8183, V-B:TYR:539:C:9838, V-B:PRO:540:CB:9856, V-B:TYR:539:CE2:9847, V-B:GLU:543:CD:9879, V-A:ASP:366:CG:3212, V-A:ASP:366:CA:3209, V-A:ASP:366:CB:3211, V-B:GLU:543:CG:9878, V-A:TYR:484:CZ:4346, V-A:ILE:369:CG2:3236, V-B:ALA:541:C:9859, V-B:ALA:541:CB:9863, V-A:ILE:369:CD1:3238, V-A:LEU:475:CD2:4258, V-A:LEU:475:CD1:4257, H-B:TYR:539:OH:9849, V-B:PRO:540:CA:9854, V-A:ILE:369:CB:3235, V-A:GLY:454:CA:4048, H-B:GLU:543:OE2:9881, V-B:PRO:540:C:9852, V-A:ILE:369:CG1:3237, H-B:GLU:543:OE1:9880, H-B:ALA:541:O:9860"]

$$$$
4al_Grossjean_2025
     RDKit          3D

 16 17  0  0  0  0  0  0  0  0999 V2000
  129.8950  116.7850   59.9580 C   0  0  0  0  0  0  0  0  0  0  0  0
  131.0790  117.0480   60.6960 O   0  0  0  0  0  0  0  0  0  0  0  0
  132.0850  117.7860   60.1590 C   0  0  0  0  0  0  0  0  0  0  0  0
  132.8330  117.3850   59.2650 O   0  0  0  0  0  0  0  0  0  0  0  0
  132.1950  119.1330   60.7600 C   0  0  0  0  0  0  0  0  0  0  0  0
  133.7480  119.9730   60.7630 S   0  0  0  0  0  0  0  0  0  0  0  0
  133.0480  121.3500   61.5820 C   0  0  0  0  0  0  0  0  0  0  0  0
  133.7720  122.4230   61.9010 N   0  0  0  0  0  0  0  0  0  0  0  0
  133.1090  123.4230   62.5340 C   0  0  0  0  0  0  0  0  0  0  0  0
  133.9520  124.6340   62.8880 C   0  0  0  0  0  0  0  0  0  0  0  0
  131.7530  123.3740   62.8510 C   0  0  0  0  0  0  0  0  0  0  0  0
  130.9960  122.2470   62.5140 C   0  0  0  0  0  0  0  0  0  0  0  0
  129.5200  122.2400   62.8800 C   0  0  0  0  0  0  0  0  0  0  0  0
  131.6570  121.1790   61.8500 C   0  0  0  0  0  0  0  0  0  0  0  0
  131.1990  119.9050   61.3700 C   0  0  0  0  0  0  0  0  0  0  0  0
  129.8980  119.4900   61.5020 N   0  0  0  0  0  0  0  0  0  0  0  0
  1  2  1  0
  2  3  1  0
  3  4  2  0
  3  5  1  0
  5  6  1  0
  6  7  1  0
  7  8  2  0
  8  9  1  0
  9 10  1  0
  9 11  2  0
 11 12  1  0
 12 13  1  0
 12 14  2  0
 14 15  1  0
 15 16  1  0
 15  5  2  0
 14  7  1  0
M  END
>  <Binding energies>  (48) 
[-5.15]

>  <Ligand effiencies>  (48) 
[-0.28611111111111115]

>  <Interactions>  (48) 
["V-B:TYR:539:CD2:9845, V-B:TYR:539:C:9838, V-A:ASP:366:CG:3212, V-A:ILE:369:CG2:3236, V-A:SER:385:CA:3406, V-A:SER:385:CB:3408, V-B:ALA:541:CB:9863, V-A:ILE:369:CD1:3238, V-A:LEU:475:CD2:4258, V-A:HIS:383:CE1:3393, V-A:PRO:482:CG:4326, V-B:TYR:539:CB:9842, H-B:TYR:539:O:9839, V-B:VAL:344:CG1:7971, V-B:TYR:539:CA:9840, V-A:SER:385:C:3404, H-A:HIS:383:ND1:3390"]

$$$$
4bc_Grossjean_2025
     RDKit          3D

 26 28  0  0  0  0  0  0  0  0999 V2000
  130.1750  124.1030   73.5400 C   0  0  0  0  0  0  0  0  0  0  0  0
  129.0860  124.9840   73.7930 O   0  0  0  0  0  0  0  0  0  0  0  0
  128.4650  125.6100   72.7300 C   0  0  0  0  0  0  0  0  0  0  0  0
  129.1240  125.5540   71.5030 C   0  0  0  0  0  0  0  0  0  0  0  0
  128.5760  126.1560   70.3740 C   0  0  0  0  0  0  0  0  0  0  0  0
  127.3500  126.8190   70.4570 C   0  0  0  0  0  0  0  0  0  0  0  0
  126.8810  127.4100   69.2690 N   0  0  0  0  0  0  0  0  0  0  0  0
  125.6640  127.9410   68.9980 C   0  0  0  0  0  0  0  0  0  0  0  0
  124.7250  127.9500   69.7950 O   0  0  0  0  0  0  0  0  0  0  0  0
  125.5120  128.5180   67.6590 C   0  0  0  0  0  0  0  0  0  0  0  0
  123.9420  129.1070   67.1190 S   0  0  0  0  0  0  0  0  0  0  0  0
  124.5990  129.5750   65.5690 C   0  0  0  0  0  0  0  0  0  0  0  0
  123.8360  130.1360   64.6310 N   0  0  0  0  0  0  0  0  0  0  0  0
  124.4570  130.4520   63.4710 C   0  0  0  0  0  0  0  0  0  0  0  0
  123.5720  131.0950   62.4190 C   0  0  0  0  0  0  0  0  0  0  0  0
  125.8090  130.2230   63.2290 C   0  0  0  0  0  0  0  0  0  0  0  0
  126.6170  129.6320   64.2130 C   0  0  0  0  0  0  0  0  0  0  0  0
  128.0990  129.3980   63.8980 C   0  0  0  0  0  0  0  0  0  0  0  0
  128.4630  128.1200   64.0240 F   0  0  0  0  0  0  0  0  0  0  0  0
  128.3560  129.7650   62.6430 F   0  0  0  0  0  0  0  0  0  0  0  0
  128.8560  130.1120   64.7310 F   0  0  0  0  0  0  0  0  0  0  0  0
  125.9940  129.2870   65.4490 C   0  0  0  0  0  0  0  0  0  0  0  0
  126.4880  128.6850   66.6640 C   0  0  0  0  0  0  0  0  0  0  0  0
  127.7980  128.3120   66.8240 N   0  0  0  0  0  0  0  0  0  0  0  0
  126.6860  126.8920   71.6910 C   0  0  0  0  0  0  0  0  0  0  0  0
  127.2380  126.2890   72.8170 C   0  0  0  0  0  0  0  0  0  0  0  0
  1  2  1  0
  2  3  1  0
  3  4  2  0
  4  5  1  0
  5  6  2  0
  6  7  1  0
  7  8  1  0
  8  9  2  0
  8 10  1  0
 10 11  1  0
 11 12  1  0
 12 13  2  0
 13 14  1  0
 14 15  1  0
 14 16  2  0
 16 17  1  0
 17 18  1  0
 18 19  1  0
 18 20  1  0
 18 21  1  0
 17 22  2  0
 22 23  1  0
 23 24  1  0
  6 25  1  0
 25 26  2  0
 26  3  1  0
 23 10  2  0
 22 12  1  0
M  END
>  <Binding energies>  (49) 
[-6.39]

>  <Ligand effiencies>  (49) 
[-0.22034482758620688]

>  <Interactions>  (49) 
["V-B:GLU:543:CB:9877, H-B:GLY:454:N:9020, V-B:HIS:456:CE1:9040, V-A:HIS:456:CE1:4069, V-A:GLU:543:CD:4907, V-A:GLU:543:CG:4906, V-B:GLU:543:CD:9879, V-B:LYS:547:CE:9921, V-B:GLU:543:C:9873, V-B:GLY:544:CA:9885, V-B:GLY:544:C:9883, V-B:ARG:545:CZ:9897, V-A:HIS:456:CD2:4067, V-B:ARG:545:CG:9893, H-B:LYS:547:NZ:9922, V-B:ARG:545:CD:9894, H-B:GLU:543:OE2:9881, V-A:HIS:456:CG:4065, H-B:ARG:545:N:9891, V-B:ARG:545:CA:9890, H-B:GLU:543:OE1:9880, H-B:HIS:456:ND1:9037"]

$$$$
4bf_Grossjean_2025
     RDKit          3D

 24 26  0  0  0  0  0  0  0  0999 V2000
  133.2750  125.6830   65.2690 C   0  0  0  0  0  0  0  0  0  0  0  0
  132.5100  124.7760   64.3210 C   0  0  0  0  0  0  0  0  0  0  0  0
  133.0700  123.5890   63.8570 C   0  0  0  0  0  0  0  0  0  0  0  0
  132.3540  122.7620   62.9790 C   0  0  0  0  0  0  0  0  0  0  0  0
  133.0110  121.4660   62.4930 C   0  0  0  0  0  0  0  0  0  0  0  0
  133.5540  121.5790   61.2770 F   0  0  0  0  0  0  0  0  0  0  0  0
  133.9830  121.1090   63.3320 F   0  0  0  0  0  0  0  0  0  0  0  0
  132.1020  120.4930   62.4330 F   0  0  0  0  0  0  0  0  0  0  0  0
  131.0490  123.1930   62.5930 C   0  0  0  0  0  0  0  0  0  0  0  0
  130.0430  122.6260   61.7300 C   0  0  0  0  0  0  0  0  0  0  0  0
  130.2190  121.4330   61.0740 N   0  0  0  0  0  0  0  0  0  0  0  0
  128.8740  123.3970   61.6250 C   0  0  0  0  0  0  0  0  0  0  0  0
  127.6770  123.1370   60.8180 C   0  0  0  0  0  0  0  0  0  0  0  0
  126.6230  122.7930   61.3530 O   0  0  0  0  0  0  0  0  0  0  0  0
  127.8270  123.3200   59.4830 N   0  0  0  0  0  0  0  0  0  0  0  0
  126.9030  123.1120   58.4410 C   0  0  0  0  0  0  0  0  0  0  0  0
  125.5660  123.5490   58.4390 C   0  0  0  0  0  0  0  0  0  0  0  0
  124.7470  123.2620   57.3440 C   0  0  0  0  0  0  0  0  0  0  0  0
  125.2860  122.5400   56.2780 C   0  0  0  0  0  0  0  0  0  0  0  0
  126.5700  122.1020   56.2590 N   0  0  0  0  0  0  0  0  0  0  0  0
  127.3530  122.3880   57.3310 C   0  0  0  0  0  0  0  0  0  0  0  0
  128.9890  124.8620   62.5970 S   0  0  0  0  0  0  0  0  0  0  0  0
  130.5930  124.4310   63.1410 C   0  0  0  0  0  0  0  0  0  0  0  0
  131.2770  125.2130   63.9760 N   0  0  0  0  0  0  0  0  0  0  0  0
  1  2  1  0
  2  3  2  0
  3  4  1  0
  4  5  1  0
  5  6  1  0
  5  7  1  0
  5  8  1  0
  4  9  2  0
  9 10  1  0
 10 11  1  0
 10 12  2  0
 12 13  1  0
 13 14  2  0
 13 15  1  0
 15 16  1  0
 16 17  2  0
 17 18  1  0
 18 19  2  0
 19 20  1  0
 20 21  2  0
 12 22  1  0
 22 23  1  0
 23 24  2  0
 24  2  1  0
 23  9  1  0
 21 16  1  0
M  END
>  <Binding energies>  (50) 
[-6.57]

>  <Ligand effiencies>  (50) 
[-0.24333333333333335]

>  <Interactions>  (50) 
["V-B:PRO:540:CD:9858, V-B:PRO:540:N:9855, V-B:TYR:531:CE2:9764, H-B:TYR:539:N:9841, V-B:LEU:363:CD1:8159, V-B:MET:535:CE:9806, V-B:TYR:539:CD2:9845, V-B:TYR:539:C:9838, V-B:PRO:540:CB:9856, V-B:TYR:539:CE2:9847, V-B:TYR:539:CG:9843, V-A:ILE:369:CG2:3236, V-A:ARG:545:CZ:4925, V-A:SER:385:CA:3406, V-A:SER:385:CB:3408, V-A:ILE:369:CD1:3238, V-A:LEU:475:CD2:4258, V-B:PRO:540:CA:9854, H-B:ALA:541:N:9862, H-B:TYR:539:O:9839, V-A:GLY:454:CA:4048, V-B:TYR:539:CA:9840, V-A:SER:385:C:3404, V-B:ILE:538:CG2:9834, V-B:ILE:538:CD1:9836"]

$$$$
4bh_Grossjean_2025
     RDKit          3D

 31 33  0  0  0  0  0  0  0  0999 V2000
  129.4880  123.4170   73.5680 C   0  0  0  0  0  0  0  0  0  0  0  0
  128.7530  124.6080   73.8280 O   0  0  0  0  0  0  0  0  0  0  0  0
  128.9400  125.7120   73.0170 C   0  0  0  0  0  0  0  0  0  0  0  0
  128.3570  125.8610   71.7490 C   0  0  0  0  0  0  0  0  0  0  0  0
  128.5900  127.0030   70.9820 C   0  0  0  0  0  0  0  0  0  0  0  0
  127.9120  127.1670   69.6270 C   0  0  0  0  0  0  0  0  0  0  0  0
  128.7790  126.8350   68.4960 N   0  0  0  0  0  0  0  0  0  0  0  0
  129.9110  127.4880   68.1610 C   0  0  0  0  0  0  0  0  0  0  0  0
  130.3100  128.4800   68.7740 O   0  0  0  0  0  0  0  0  0  0  0  0
  130.6250  126.9770   66.9900 C   0  0  0  0  0  0  0  0  0  0  0  0
  132.1670  126.1500   67.1890 S   0  0  0  0  0  0  0  0  0  0  0  0
  132.3260  125.9410   65.4600 C   0  0  0  0  0  0  0  0  0  0  0  0
  133.3800  125.3230   64.9290 N   0  0  0  0  0  0  0  0  0  0  0  0
  133.3900  125.2200   63.5800 C   0  0  0  0  0  0  0  0  0  0  0  0
  134.6010  124.5150   62.9960 C   0  0  0  0  0  0  0  0  0  0  0  0
  132.3820  125.7140   62.7570 C   0  0  0  0  0  0  0  0  0  0  0  0
  131.2690  126.3670   63.3110 C   0  0  0  0  0  0  0  0  0  0  0  0
  130.1830  126.8910   62.3660 C   0  0  0  0  0  0  0  0  0  0  0  0
  130.0530  128.2190   62.4020 F   0  0  0  0  0  0  0  0  0  0  0  0
  130.4750  126.5540   61.1110 F   0  0  0  0  0  0  0  0  0  0  0  0
  129.0040  126.3660   62.7000 F   0  0  0  0  0  0  0  0  0  0  0  0
  131.2280  126.4950   64.7310 C   0  0  0  0  0  0  0  0  0  0  0  0
  130.2770  127.0940   65.6350 C   0  0  0  0  0  0  0  0  0  0  0  0
  129.1320  127.7130   65.2060 N   0  0  0  0  0  0  0  0  0  0  0  0
  129.3920  128.0240   71.4970 C   0  0  0  0  0  0  0  0  0  0  0  0
  129.9950  127.8990   72.7580 C   0  0  0  0  0  0  0  0  0  0  0  0
  130.8110  128.8630   73.3230 O   0  0  0  0  0  0  0  0  0  0  0  0
  130.5110  130.2390   73.1150 C   0  0  0  0  0  0  0  0  0  0  0  0
  129.7650  126.7350   73.5060 C   0  0  0  0  0  0  0  0  0  0  0  0
  130.3340  126.6080   74.7510 O   0  0  0  0  0  0  0  0  0  0  0  0
  131.7060  126.2390   74.7240 C   0  0  0  0  0  0  0  0  0  0  0  0
  1  2  1  0
  2  3  1  0
  3  4  2  0
  4  5  1  0
  5  6  1  0
  6  7  1  0
  7  8  1  0
  8  9  2  0
  8 10  1  0
 10 11  1  0
 11 12  1  0
 12 13  2  0
 13 14  1  0
 14 15  1  0
 14 16  2  0
 16 17  1  0
 17 18  1  0
 18 19  1  0
 18 20  1  0
 18 21  1  0
 17 22  2  0
 22 23  1  0
 23 24  1  0
  5 25  2  0
 25 26  1  0
 26 27  1  0
 27 28  1  0
 26 29  2  0
 29 30  1  0
 30 31  1  0
 29  3  1  0
 23 10  2  0
 22 12  1  0
M  END
>  <Binding energies>  (51) 
[-6.11]

>  <Ligand effiencies>  (51) 
[-0.1797058823529412]

>  <Interactions>  (51) 
["V-B:GLU:543:CB:9877, V-B:HIS:456:CE1:9040, V-A:HIS:456:CE1:4069, V-A:GLU:543:CD:4907, V-B:GLU:543:CD:9879, V-A:ASP:366:CG:3212, V-B:GLU:543:C:9873, V-A:HIS:456:CD2:4067, H-B:LYS:547:NZ:9922, V-A:TYR:484:CZ:4346, V-A:ARG:545:CZ:4925, H-A:GLY:454:N:4049, H-A:ARG:545:NH2:4927, V-A:ILE:369:CD1:3238, H-A:TYR:484:OH:4347, V-A:GLY:453:C:4041, V-A:GLY:453:CA:4043, V-A:GLY:454:CA:4048, H-A:GLU:543:OE1:4908, H-A:GLU:543:OE2:4909, H-B:GLU:543:OE2:9881, V-A:GLU:543:C:4901, H-A:LYS:547:NZ:4950, V-A:HIS:456:CG:4065, V-A:HIS:456:CB:4064, H-B:GLU:543:OE1:9880, V-A:GLY:544:C:4911, V-A:GLY:544:CA:4913, V-A:LYS:547:CE:4949"]

$$$$
4bi_Grossjean_2025
     RDKit          3D

 23 25  0  0  0  0  0  0  0  0999 V2000
  133.1950  125.3870   65.2330 C   0  0  0  0  0  0  0  0  0  0  0  0
  132.4820  124.5020   64.2270 C   0  0  0  0  0  0  0  0  0  0  0  0
  133.0610  123.3200   63.7730 C   0  0  0  0  0  0  0  0  0  0  0  0
  132.3880  122.5090   62.8450 C   0  0  0  0  0  0  0  0  0  0  0  0
  133.0620  121.2130   62.3810 C   0  0  0  0  0  0  0  0  0  0  0  0
  133.6790  121.3380   61.2030 F   0  0  0  0  0  0  0  0  0  0  0  0
  133.9790  120.8370   63.2720 F   0  0  0  0  0  0  0  0  0  0  0  0
  132.1500  120.2490   62.2540 F   0  0  0  0  0  0  0  0  0  0  0  0
  131.1080  122.9530   62.3980 C   0  0  0  0  0  0  0  0  0  0  0  0
  130.1480  122.4050   61.4720 C   0  0  0  0  0  0  0  0  0  0  0  0
  130.3560  121.2300   60.7960 N   0  0  0  0  0  0  0  0  0  0  0  0
  128.9810  123.1750   61.3310 C   0  0  0  0  0  0  0  0  0  0  0  0
  127.8190  122.9240   60.4740 C   0  0  0  0  0  0  0  0  0  0  0  0
  126.7050  122.7310   60.9660 O   0  0  0  0  0  0  0  0  0  0  0  0
  128.0630  122.9420   59.1400 N   0  0  0  0  0  0  0  0  0  0  0  0
  127.1520  122.7490   58.1110 C   0  0  0  0  0  0  0  0  0  0  0  0
  125.9970  123.5150   57.9630 C   0  0  0  0  0  0  0  0  0  0  0  0
  125.3760  123.0150   56.8410 C   0  0  0  0  0  0  0  0  0  0  0  0
  126.1190  122.0000   56.3390 O   0  0  0  0  0  0  0  0  0  0  0  0
  127.2420  121.8400   57.1540 N   0  0  0  0  0  0  0  0  0  0  0  0
  129.0510  124.6260   62.3290 S   0  0  0  0  0  0  0  0  0  0  0  0
  130.6280  124.1840   62.9410 C   0  0  0  0  0  0  0  0  0  0  0  0
  131.2700  124.9490   63.8240 N   0  0  0  0  0  0  0  0  0  0  0  0
  1  2  1  0
  2  3  2  0
  3  4  1  0
  4  5  1  0
  5  6  1  0
  5  7  1  0
  5  8  1  0
  4  9  2  0
  9 10  1  0
 10 11  1  0
 10 12  2  0
 12 13  1  0
 13 14  2  0
 13 15  1  0
 15 16  1  0
 16 17  1  0
 17 18  2  0
 18 19  1  0
 19 20  1  0
 12 21  1  0
 21 22  1  0
 22 23  2  0
 23  2  1  0
 22  9  1  0
 20 16  2  0
M  END
>  <Binding energies>  (52) 
[-6.26]

>  <Ligand effiencies>  (52) 
[-0.24076923076923076]

>  <Interactions>  (52) 
["V-B:PRO:540:CD:9858, V-B:PRO:540:N:9855, V-B:TYR:531:CE2:9764, H-B:TYR:539:N:9841, V-B:LEU:363:CD1:8159, V-B:TYR:539:CD2:9845, V-B:TYR:539:C:9838, V-B:PRO:540:CB:9856, V-B:TYR:539:CE2:9847, V-A:ILE:369:CG2:3236, V-A:ARG:545:CZ:4925, V-A:SER:385:CA:3406, V-A:SER:385:CB:3408, V-A:ILE:369:CD1:3238, V-A:LEU:475:CD2:4258, V-B:PRO:540:CA:9854, H-B:ALA:541:N:9862, H-B:TYR:539:O:9839, V-A:GLY:454:CA:4048, V-A:SER:385:C:3404"]

$$$$
4bj_Grossjean_2025
     RDKit          3D

 23 25  0  0  0  0  0  0  0  0999 V2000
  133.2460  125.3710   65.1540 C   0  0  0  0  0  0  0  0  0  0  0  0
  132.5040  124.4890   64.1670 C   0  0  0  0  0  0  0  0  0  0  0  0
  133.0660  123.3040   63.6990 C   0  0  0  0  0  0  0  0  0  0  0  0
  132.3710  122.5020   62.7810 C   0  0  0  0  0  0  0  0  0  0  0  0
  133.0320  121.2080   62.2920 C   0  0  0  0  0  0  0  0  0  0  0  0
  133.5780  121.3260   61.0800 F   0  0  0  0  0  0  0  0  0  0  0  0
  134.0000  120.8500   63.1350 F   0  0  0  0  0  0  0  0  0  0  0  0
  132.1220  120.2350   62.2270 F   0  0  0  0  0  0  0  0  0  0  0  0
  131.0840  122.9540   62.3630 C   0  0  0  0  0  0  0  0  0  0  0  0
  130.1020  122.4150   61.4530 C   0  0  0  0  0  0  0  0  0  0  0  0
  130.2910  121.2420   60.7690 N   0  0  0  0  0  0  0  0  0  0  0  0
  128.9380  123.1930   61.3390 C   0  0  0  0  0  0  0  0  0  0  0  0
  127.7570  122.9510   60.5080 C   0  0  0  0  0  0  0  0  0  0  0  0
  126.6520  122.7600   61.0210 O   0  0  0  0  0  0  0  0  0  0  0  0
  127.9720  122.9700   59.1690 N   0  0  0  0  0  0  0  0  0  0  0  0
  127.0280  122.7820   58.1700 C   0  0  0  0  0  0  0  0  0  0  0  0
  127.1130  122.0060   57.1120 N   0  0  0  0  0  0  0  0  0  0  0  0
  126.0230  122.0680   56.3740 C   0  0  0  0  0  0  0  0  0  0  0  0
  125.0180  122.9140   56.8320 C   0  0  0  0  0  0  0  0  0  0  0  0
  125.5410  123.6660   58.3090 S   0  0  0  0  0  0  0  0  0  0  0  0
  129.0350  124.6370   62.3440 S   0  0  0  0  0  0  0  0  0  0  0  0
  130.6210  124.1850   62.9220 C   0  0  0  0  0  0  0  0  0  0  0  0
  131.2860  124.9440   63.7910 N   0  0  0  0  0  0  0  0  0  0  0  0
  1  2  1  0
  2  3  2  0
  3  4  1  0
  4  5  1  0
  5  6  1  0
  5  7  1  0
  5  8  1  0
  4  9  2  0
  9 10  1  0
 10 11  1  0
 10 12  2  0
 12 13  1  0
 13 14  2  0
 13 15  1  0
 15 16  1  0
 16 17  2  0
 17 18  1  0
 18 19  2  0
 19 20  1  0
 12 21  1  0
 21 22  1  0
 22 23  2  0
 23  2  1  0
 22  9  1  0
 20 16  1  0
M  END
>  <Binding energies>  (53) 
[-5.96]

>  <Ligand effiencies>  (53) 
[-0.22923076923076924]

>  <Interactions>  (53) 
["V-B:PRO:540:CD:9858, V-B:PRO:540:N:9855, V-B:TYR:531:CE2:9764, H-B:TYR:539:N:9841, V-B:LEU:363:CD1:8159, V-B:TYR:539:CD2:9845, V-B:TYR:539:C:9838, V-B:PRO:540:CB:9856, V-B:TYR:539:CE2:9847, V-A:ILE:369:CG2:3236, V-A:ARG:545:CZ:4925, V-A:SER:385:CA:3406, V-A:SER:385:CB:3408, V-A:ILE:369:CD1:3238, V-A:LEU:475:CD2:4258, V-B:PRO:540:CA:9854, H-B:ALA:541:N:9862, H-B:TYR:539:O:9839, V-A:GLY:454:CA:4048, V-A:SER:385:C:3404, V-B:ILE:538:CA:9831, V-B:ILE:538:C:9829, V-B:ILE:538:CG2:9834"]

$$$$
4bk_Grossjean_2025
     RDKit          3D

 28 29  0  0  0  0  0  0  0  0999 V2000
  131.6570  125.0270   59.2000 C   0  0  0  0  0  0  0  0  0  0  0  0
  130.5500  124.4640   58.5130 O   0  0  0  0  0  0  0  0  0  0  0  0
  129.9590  125.3500   57.5710 C   0  0  0  0  0  0  0  0  0  0  0  0
  128.4860  124.9740   57.3690 C   0  0  0  0  0  0  0  0  0  0  0  0
  128.2500  123.6810   57.9080 O   0  0  0  0  0  0  0  0  0  0  0  0
  127.7390  122.7500   56.9640 C   0  0  0  0  0  0  0  0  0  0  0  0
  126.2250  122.5990   57.1630 C   0  0  0  0  0  0  0  0  0  0  0  0
  125.6590  123.8730   57.4370 O   0  0  0  0  0  0  0  0  0  0  0  0
  124.3990  123.8130   58.0950 C   0  0  0  0  0  0  0  0  0  0  0  0
  124.6110  123.9230   59.6140 C   0  0  0  0  0  0  0  0  0  0  0  0
  125.9440  123.5070   60.0530 N   0  0  0  0  0  0  0  0  0  0  0  0
  126.2750  123.1550   61.3130 C   0  0  0  0  0  0  0  0  0  0  0  0
  125.4530  123.1330   62.2300 O   0  0  0  0  0  0  0  0  0  0  0  0
  127.6750  122.7870   61.5320 C   0  0  0  0  0  0  0  0  0  0  0  0
  128.7050  122.3750   60.1630 S   0  0  0  0  0  0  0  0  0  0  0  0
  130.0770  122.1220   61.2150 C   0  0  0  0  0  0  0  0  0  0  0  0
  131.2650  121.7580   60.7340 N   0  0  0  0  0  0  0  0  0  0  0  0
  132.2510  121.5940   61.6460 C   0  0  0  0  0  0  0  0  0  0  0  0
  133.5960  121.1810   61.0750 C   0  0  0  0  0  0  0  0  0  0  0  0
  132.0790  121.7830   63.0150 C   0  0  0  0  0  0  0  0  0  0  0  0
  130.8300  122.1650   63.5290 C   0  0  0  0  0  0  0  0  0  0  0  0
  130.6880  122.3580   65.0420 C   0  0  0  0  0  0  0  0  0  0  0  0
  130.5750  123.6390   65.3970 F   0  0  0  0  0  0  0  0  0  0  0  0
  129.5990  121.7250   65.4770 F   0  0  0  0  0  0  0  0  0  0  0  0
  131.7600  121.8660   65.6620 F   0  0  0  0  0  0  0  0  0  0  0  0
  129.7680  122.3480   62.5930 C   0  0  0  0  0  0  0  0  0  0  0  0
  128.3860  122.7320   62.7400 C   0  0  0  0  0  0  0  0  0  0  0  0
  127.8190  123.0140   63.9570 N   0  0  0  0  0  0  0  0  0  0  0  0
  1  2  1  0
  2  3  1  0
  3  4  1  0
  4  5  1  0
  5  6  1  0
  6  7  1  0
  7  8  1  0
  8  9  1  0
  9 10  1  0
 10 11  1  0
 11 12  1  0
 12 13  2  0
 12 14  1  0
 14 15  1  0
 15 16  1  0
 16 17  2  0
 17 18  1  0
 18 19  1  0
 18 20  2  0
 20 21  1  0
 21 22  1  0
 22 23  1  0
 22 24  1  0
 22 25  1  0
 21 26  2  0
 26 27  1  0
 27 28  1  0
 27 14  2  0
 26 16  1  0
M  END
>  <Binding energies>  (54) 
[-4.46]

>  <Ligand effiencies>  (54) 
[-0.14387096774193547]

>  <Interactions>  (54) 
["V-B:PRO:540:CD:9858, V-B:PRO:540:N:9855, V-B:LEU:363:CD1:8159, V-B:MET:535:CE:9806, V-B:TYR:539:CD2:9845, V-B:TYR:539:CZ:9848, V-B:TYR:539:C:9838, V-B:TYR:539:CE1:9846, V-B:TYR:539:CD1:9844, V-B:PRO:540:CB:9856, V-B:TYR:539:CE2:9847, V-B:GLU:543:CD:9879, V-B:TYR:539:CG:9843, V-A:ASP:366:CG:3212, H-B:TYR:531:OH:9766, V-B:GLU:543:CG:9878, V-A:TYR:484:CZ:4346, V-A:LEU:475:CG:4256, V-A:ILE:369:CG2:3236, V-B:ALA:541:C:9859, V-A:TYR:484:CE2:4345, V-B:ALA:541:CB:9863, V-A:ILE:369:CD1:3238, V-A:LEU:475:CD2:4258, V-A:LEU:475:CD1:4257, V-B:ALA:541:CA:9861, H-B:TYR:539:OH:9849, V-B:PRO:540:CA:9854, H-B:ALA:541:N:9862, V-A:GLY:454:CA:4048, H-B:GLU:543:OE2:9881, V-B:PRO:540:C:9852, H-B:GLU:543:OE1:9880, H-B:ALA:541:O:9860, V-A:TYR:484:CE1:4344, V-A:LEU:475:CB:4255"]

$$$$
4cd_Grossjean_2025
     RDKit          3D

 29 32  0  0  0  0  0  0  0  0999 V2000
  132.8090  125.9920   62.6630 N   0  0  0  0  0  0  0  0  0  0  0  0
  132.2870  124.8340   63.1830 C   0  0  0  0  0  0  0  0  0  0  0  0
  131.8090  124.7300   64.4990 C   0  0  0  0  0  0  0  0  0  0  0  0
  131.7810  125.7570   65.5450 C   0  0  0  0  0  0  0  0  0  0  0  0
  132.8210  126.1280   66.0890 O   0  0  0  0  0  0  0  0  0  0  0  0
  130.5530  126.2480   65.8430 N   0  0  0  0  0  0  0  0  0  0  0  0
  130.1770  127.1910   66.8180 C   0  0  0  0  0  0  0  0  0  0  0  0
  129.1980  128.1110   66.4350 C   0  0  0  0  0  0  0  0  0  0  0  0
  128.7490  129.0750   67.3330 C   0  0  0  0  0  0  0  0  0  0  0  0
  129.2760  129.1150   68.6220 C   0  0  0  0  0  0  0  0  0  0  0  0
  130.2430  128.1960   69.0210 C   0  0  0  0  0  0  0  0  0  0  0  0
  130.6940  127.2300   68.1250 C   0  0  0  0  0  0  0  0  0  0  0  0
  131.2020  123.1080   64.8280 S   0  0  0  0  0  0  0  0  0  0  0  0
  131.6000  122.5820   63.2100 C   0  0  0  0  0  0  0  0  0  0  0  0
  131.3640  121.3360   62.8080 N   0  0  0  0  0  0  0  0  0  0  0  0
  131.7200  121.0160   61.5360 C   0  0  0  0  0  0  0  0  0  0  0  0
  131.4440  119.6030   61.1110 C   0  0  0  0  0  0  0  0  0  0  0  0
  132.3470  118.9110   60.2880 C   0  0  0  0  0  0  0  0  0  0  0  0
  132.0980  117.6000   59.8910 C   0  0  0  0  0  0  0  0  0  0  0  0
  130.9380  116.9600   60.3130 C   0  0  0  0  0  0  0  0  0  0  0  0
  130.0280  117.6210   61.1310 C   0  0  0  0  0  0  0  0  0  0  0  0
  130.2820  118.9310   61.5270 C   0  0  0  0  0  0  0  0  0  0  0  0
  132.2920  121.9530   60.6700 C   0  0  0  0  0  0  0  0  0  0  0  0
  132.5410  123.2720   61.0840 C   0  0  0  0  0  0  0  0  0  0  0  0
  133.1750  124.2470   60.0850 C   0  0  0  0  0  0  0  0  0  0  0  0
  133.3430  123.7180   58.8710 F   0  0  0  0  0  0  0  0  0  0  0  0
  132.3970  125.3220   59.9480 F   0  0  0  0  0  0  0  0  0  0  0  0
  134.3750  124.6260   60.5240 F   0  0  0  0  0  0  0  0  0  0  0  0
  132.1840  123.6150   62.4190 C   0  0  0  0  0  0  0  0  0  0  0  0
  1  2  1  0
  2  3  2  0
  3  4  1  0
  4  5  2  0
  4  6  1  0
  6  7  1  0
  7  8  2  0
  8  9  1  0
  9 10  2  0
 10 11  1  0
 11 12  2  0
  3 13  1  0
 13 14  1  0
 14 15  2  0
 15 16  1  0
 16 17  1  0
 17 18  2  0
 18 19  1  0
 19 20  2  0
 20 21  1  0
 21 22  2  0
 16 23  2  0
 23 24  1  0
 24 25  1  0
 25 26  1  0
 25 27  1  0
 25 28  1  0
 24 29  2  0
 29  2  1  0
 12  7  1  0
 29 14  1  0
 22 17  1  0
M  END
>  <Binding energies>  (55) 
[-7.96]

>  <Ligand effiencies>  (55) 
[-0.24875]

>  <Interactions>  (55) 
["V-A:GLU:543:CB:4905, V-B:TYR:539:CD2:9845, V-B:TYR:539:CZ:9848, V-A:HIS:456:CE1:4069, V-B:TYR:539:C:9838, V-A:GLU:543:CD:4907, V-A:GLU:543:CG:4906, V-B:TYR:539:CE2:9847, V-B:GLU:543:CD:9879, V-A:ASP:366:CG:3212, V-A:ASP:366:CA:3209, V-A:ASP:366:CB:3211, V-A:TYR:484:CZ:4346, H-A:ARG:545:NE:4923, V-A:ILE:369:CG2:3236, V-A:ARG:545:CZ:4925, V-B:ALA:541:CB:9863, V-A:ILE:369:CD1:3238, V-A:LEU:475:CD2:4258, V-A:HIS:383:CE1:3393, V-A:PRO:482:CG:4326, V-B:TYR:539:CB:9842, V-A:ILE:369:CB:3235, H-A:TYR:484:OH:4347, V-A:PRO:482:CB:4325, H-A:ASP:366:OD1:3213, H-A:ASP:366:OD2:3214, V-B:VAL:344:CG1:7971, H-B:GLU:543:OE2:9881, V-A:ILE:369:CG1:3237"]

$$$$
4cg_Grossjean_2025
     RDKit          3D

 30 33  0  0  0  0  0  0  0  0999 V2000
  129.3420  125.6130   63.6870 N   0  0  0  0  0  0  0  0  0  0  0  0
  130.3820  124.7220   63.7550 C   0  0  0  0  0  0  0  0  0  0  0  0
  131.4620  124.8690   64.6370 C   0  0  0  0  0  0  0  0  0  0  0  0
  131.6810  125.9040   65.6470 C   0  0  0  0  0  0  0  0  0  0  0  0
  132.7760  126.4570   65.7740 O   0  0  0  0  0  0  0  0  0  0  0  0
  130.6300  126.1830   66.4460 N   0  0  0  0  0  0  0  0  0  0  0  0
  130.6140  127.1920   67.5040 C   0  0  0  0  0  0  0  0  0  0  0  0
  129.3070  127.2260   68.2890 C   0  0  0  0  0  0  0  0  0  0  0  0
  128.2480  128.0190   67.8390 C   0  0  0  0  0  0  0  0  0  0  0  0
  127.0420  128.0290   68.5350 C   0  0  0  0  0  0  0  0  0  0  0  0
  126.8970  127.2400   69.6740 C   0  0  0  0  0  0  0  0  0  0  0  0
  127.9440  126.4350   70.1180 C   0  0  0  0  0  0  0  0  0  0  0  0
  129.1490  126.4230   69.4210 C   0  0  0  0  0  0  0  0  0  0  0  0
  132.6070  123.5400   64.4780 S   0  0  0  0  0  0  0  0  0  0  0  0
  131.6440  122.8080   63.2160 C   0  0  0  0  0  0  0  0  0  0  0  0
  132.0160  121.6740   62.6290 N   0  0  0  0  0  0  0  0  0  0  0  0
  131.2020  121.1770   61.6610 C   0  0  0  0  0  0  0  0  0  0  0  0
  131.6500  119.8960   61.0170 C   0  0  0  0  0  0  0  0  0  0  0  0
  130.8850  118.7230   61.1350 C   0  0  0  0  0  0  0  0  0  0  0  0
  131.2960  117.5340   60.5420 C   0  0  0  0  0  0  0  0  0  0  0  0
  132.4850  117.4980   59.8190 C   0  0  0  0  0  0  0  0  0  0  0  0
  133.2630  118.6420   59.6890 C   0  0  0  0  0  0  0  0  0  0  0  0
  132.8480  119.8300   60.2840 C   0  0  0  0  0  0  0  0  0  0  0  0
  130.0280  121.8340   61.2750 C   0  0  0  0  0  0  0  0  0  0  0  0
  129.6270  123.0320   61.8860 C   0  0  0  0  0  0  0  0  0  0  0  0
  128.3300  123.7000   61.4140 C   0  0  0  0  0  0  0  0  0  0  0  0
  128.5100  124.9550   60.9960 F   0  0  0  0  0  0  0  0  0  0  0  0
  127.8130  123.0100   60.3970 F   0  0  0  0  0  0  0  0  0  0  0  0
  127.4510  123.7350   62.4140 F   0  0  0  0  0  0  0  0  0  0  0  0
  130.4660  123.5540   62.9130 C   0  0  0  0  0  0  0  0  0  0  0  0
  1  2  1  0
  2  3  2  0
  3  4  1  0
  4  5  2  0
  4  6  1  0
  6  7  1  0
  7  8  1  0
  8  9  2  0
  9 10  1  0
 10 11  2  0
 11 12  1  0
 12 13  2  0
  3 14  1  0
 14 15  1  0
 15 16  2  0
 16 17  1  0
 17 18  1  0
 18 19  2  0
 19 20  1  0
 20 21  2  0
 21 22  1  0
 22 23  2  0
 17 24  2  0
 24 25  1  0
 25 26  1  0
 26 27  1  0
 26 28  1  0
 26 29  1  0
 25 30  2  0
 30  2  1  0
 13  8  1  0
 30 15  1  0
 23 18  1  0
M  END
>  <Binding energies>  (56) 
[-8.29]

>  <Ligand effiencies>  (56) 
[-0.25121212121212116]

>  <Interactions>  (56) 
["V-B:GLU:543:CB:9877, V-B:TYR:539:CD2:9845, V-B:HIS:456:CE1:9040, V-A:HIS:456:CE1:4069, V-A:GLU:543:CD:4907, V-B:TYR:539:CE2:9847, V-B:GLU:543:CD:9879, V-B:GLU:543:C:9873, V-A:VAL:384:C:3396, H-A:ARG:545:NE:4923, V-A:ILE:369:CG2:3236, V-A:SER:385:CA:3406, H-A:ARG:545:NH2:4927, V-A:LEU:475:CD2:4258, V-A:HIS:383:CE1:3393, V-B:PRO:540:CA:9854, H-A:TYR:484:OH:4347, V-A:LEU:373:CD2:3280, V-A:GLY:454:CA:4048, H-B:GLU:543:OE2:9881, H-B:GLU:543:OE1:9880"]

$$$$
4ch_Grossjean_2025
     RDKit          3D

 36 39  0  0  0  0  0  0  0  0999 V2000
  127.3450  126.4450   71.0350 C   0  0  0  0  0  0  0  0  0  0  0  0
  126.8830  126.6850   69.7090 O   0  0  0  0  0  0  0  0  0  0  0  0
  127.7590  127.1940   68.7680 C   0  0  0  0  0  0  0  0  0  0  0  0
  129.0520  126.6910   68.5470 C   0  0  0  0  0  0  0  0  0  0  0  0
  129.8830  127.2540   67.5770 C   0  0  0  0  0  0  0  0  0  0  0  0
  131.2930  126.7120   67.3710 C   0  0  0  0  0  0  0  0  0  0  0  0
  131.4140  125.7580   66.2680 N   0  0  0  0  0  0  0  0  0  0  0  0
  132.5550  125.4550   65.6150 C   0  0  0  0  0  0  0  0  0  0  0  0
  133.6430  125.9520   65.9160 O   0  0  0  0  0  0  0  0  0  0  0  0
  132.4370  124.4670   64.5420 C   0  0  0  0  0  0  0  0  0  0  0  0
  131.7770  122.8710   64.8810 S   0  0  0  0  0  0  0  0  0  0  0  0
  131.9500  122.3960   63.2090 C   0  0  0  0  0  0  0  0  0  0  0  0
  131.5980  121.1830   62.7910 N   0  0  0  0  0  0  0  0  0  0  0  0
  131.7640  120.9060   61.4710 C   0  0  0  0  0  0  0  0  0  0  0  0
  131.3630  119.5270   61.0330 C   0  0  0  0  0  0  0  0  0  0  0  0
  130.2480  118.8880   61.6010 C   0  0  0  0  0  0  0  0  0  0  0  0
  129.8710  117.6090   61.2000 C   0  0  0  0  0  0  0  0  0  0  0  0
  130.6060  116.9470   60.2230 C   0  0  0  0  0  0  0  0  0  0  0  0
  131.7180  117.5550   59.6470 C   0  0  0  0  0  0  0  0  0  0  0  0
  132.0920  118.8330   60.0530 C   0  0  0  0  0  0  0  0  0  0  0  0
  132.2990  121.8430   60.5820 C   0  0  0  0  0  0  0  0  0  0  0  0
  132.6760  123.1260   61.0120 C   0  0  0  0  0  0  0  0  0  0  0  0
  133.2560  124.1040   59.9840 C   0  0  0  0  0  0  0  0  0  0  0  0
  133.5080  123.5350   58.8030 F   0  0  0  0  0  0  0  0  0  0  0  0
  132.3960  125.0990   59.7720 F   0  0  0  0  0  0  0  0  0  0  0  0
  134.4050  124.6060   60.4380 F   0  0  0  0  0  0  0  0  0  0  0  0
  132.4940  123.4310   62.3910 C   0  0  0  0  0  0  0  0  0  0  0  0
  132.7520  124.6100   63.1810 C   0  0  0  0  0  0  0  0  0  0  0  0
  133.2690  125.7640   62.6480 N   0  0  0  0  0  0  0  0  0  0  0  0
  129.4300  128.3420   66.8300 C   0  0  0  0  0  0  0  0  0  0  0  0
  128.1430  128.8660   67.0310 C   0  0  0  0  0  0  0  0  0  0  0  0
  127.6280  129.9390   66.3260 O   0  0  0  0  0  0  0  0  0  0  0  0
  127.5140  129.8550   64.9090 C   0  0  0  0  0  0  0  0  0  0  0  0
  127.3150  128.2790   67.9990 C   0  0  0  0  0  0  0  0  0  0  0  0
  126.0590  128.7920   68.2160 O   0  0  0  0  0  0  0  0  0  0  0  0
  125.1070  128.4300   67.2250 C   0  0  0  0  0  0  0  0  0  0  0  0
  1  2  1  0
  2  3  1  0
  3  4  2  0
  4  5  1  0
  5  6  1  0
  6  7  1  0
  7  8  1  0
  8  9  2  0
  8 10  1  0
 10 11  1  0
 11 12  1  0
 12 13  2  0
 13 14  1  0
 14 15  1  0
 15 16  2  0
 16 17  1  0
 17 18  2  0
 18 19  1  0
 19 20  2  0
 14 21  2  0
 21 22  1  0
 22 23  1  0
 23 24  1  0
 23 25  1  0
 23 26  1  0
 22 27  2  0
 27 28  1  0
 28 29  1  0
  5 30  2  0
 30 31  1  0
 31 32  1  0
 32 33  1  0
 31 34  2  0
 34 35  1  0
 35 36  1  0
 34  3  1  0
 28 10  2  0
 27 12  1  0
 20 15  1  0
M  END
>  <Binding energies>  (57) 
[-7.95]

>  <Ligand effiencies>  (57) 
[-0.20384615384615384]

>  <Interactions>  (57) 
["V-B:GLU:543:CB:9877, H-B:TYR:484:OH:9318, V-A:GLU:543:CB:4905, V-B:TYR:539:CD2:9845, V-B:TYR:539:CZ:9848, V-B:HIS:456:CE1:9040, V-A:HIS:456:CE1:4069, V-B:TYR:539:C:9838, V-A:GLU:543:CD:4907, V-A:GLU:543:CG:4906, V-B:TYR:539:CE2:9847, V-B:GLU:543:CD:9879, V-B:TYR:539:CG:9843, V-A:ASP:366:CG:3212, V-B:GLU:543:C:9873, V-A:ASP:366:CA:3209, V-A:ASP:366:CB:3211, V-B:GLY:544:C:9883, V-B:ARG:545:CG:9893, V-B:ARG:545:CD:9894, V-A:TYR:484:CZ:4346, H-A:ARG:545:NE:4923, V-A:ILE:369:CG2:3236, V-A:ARG:545:CZ:4925, H-A:GLY:454:N:4049, V-B:ALA:541:CB:9863, H-A:ARG:545:NH2:4927, V-A:ILE:369:CD1:3238, V-A:LEU:475:CD2:4258, V-A:HIS:383:CE1:3393, V-A:PRO:482:CG:4326, V-B:TYR:539:CB:9842, V-A:ILE:369:CB:3235, H-A:TYR:484:OH:4347, V-A:PRO:482:CB:4325, H-A:ASP:366:OD1:3213, H-A:ASP:366:OD2:3214, V-A:GLY:454:CA:4048, V-B:VAL:344:CG1:7971, H-B:GLU:543:OE2:9881, V-A:ILE:369:CG1:3237"]

$$$$
4cj_Grossjean_2025
     RDKit          3D

 28 31  0  0  0  0  0  0  0  0999 V2000
  132.8060  125.9160   62.6830 N   0  0  0  0  0  0  0  0  0  0  0  0
  132.3050  124.7530   63.2090 C   0  0  0  0  0  0  0  0  0  0  0  0
  131.8520  124.6410   64.5330 C   0  0  0  0  0  0  0  0  0  0  0  0
  131.8080  125.6710   65.5740 C   0  0  0  0  0  0  0  0  0  0  0  0
  132.8440  126.2020   65.9810 O   0  0  0  0  0  0  0  0  0  0  0  0
  130.5710  125.9720   66.0430 N   0  0  0  0  0  0  0  0  0  0  0  0
  130.2550  126.9050   67.0220 C   0  0  0  0  0  0  0  0  0  0  0  0
  130.7200  126.9730   68.2510 N   0  0  0  0  0  0  0  0  0  0  0  0
  130.2040  127.9930   68.9080 C   0  0  0  0  0  0  0  0  0  0  0  0
  129.2980  128.7820   68.2060 C   0  0  0  0  0  0  0  0  0  0  0  0
  129.1180  128.1450   66.5990 S   0  0  0  0  0  0  0  0  0  0  0  0
  131.2640  123.0140   64.8700 S   0  0  0  0  0  0  0  0  0  0  0  0
  131.6310  122.4970   63.2410 C   0  0  0  0  0  0  0  0  0  0  0  0
  131.3870  121.2540   62.8350 N   0  0  0  0  0  0  0  0  0  0  0  0
  131.6970  120.9460   61.5500 C   0  0  0  0  0  0  0  0  0  0  0  0
  131.3970  119.5380   61.1210 C   0  0  0  0  0  0  0  0  0  0  0  0
  130.2110  118.9020   61.5230 C   0  0  0  0  0  0  0  0  0  0  0  0
  129.9300  117.5950   61.1330 C   0  0  0  0  0  0  0  0  0  0  0  0
  130.8350  116.9020   60.3360 C   0  0  0  0  0  0  0  0  0  0  0  0
  132.0180  117.5070   59.9270 C   0  0  0  0  0  0  0  0  0  0  0  0
  132.2950  118.8150   60.3170 C   0  0  0  0  0  0  0  0  0  0  0  0
  132.2740  121.8820   60.6850 C   0  0  0  0  0  0  0  0  0  0  0  0
  132.5380  123.1960   61.1030 C   0  0  0  0  0  0  0  0  0  0  0  0
  133.1690  124.1720   60.1020 C   0  0  0  0  0  0  0  0  0  0  0  0
  132.4310  125.2650   59.9000 F   0  0  0  0  0  0  0  0  0  0  0  0
  134.3590  124.5700   60.5520 F   0  0  0  0  0  0  0  0  0  0  0  0
  133.3240  123.5710   58.9220 F   0  0  0  0  0  0  0  0  0  0  0  0
  132.1980  123.5350   62.4440 C   0  0  0  0  0  0  0  0  0  0  0  0
  1  2  1  0
  2  3  2  0
  3  4  1  0
  4  5  2  0
  4  6  1  0
  6  7  1  0
  7  8  2  0
  8  9  1  0
  9 10  2  0
 10 11  1  0
  3 12  1  0
 12 13  1  0
 13 14  2  0
 14 15  1  0
 15 16  1  0
 16 17  2  0
 17 18  1  0
 18 19  2  0
 19 20  1  0
 20 21  2  0
 15 22  2  0
 22 23  1  0
 23 24  1  0
 24 25  1  0
 24 26  1  0
 24 27  1  0
 23 28  2  0
 28  2  1  0
 11  7  1  0
 28 13  1  0
 21 16  1  0
M  END
>  <Binding energies>  (58) 
[-7.48]

>  <Ligand effiencies>  (58) 
[-0.24129032258064517]

>  <Interactions>  (58) 
["V-A:GLU:543:CB:4905, V-B:TYR:539:CD2:9845, V-B:TYR:539:CZ:9848, V-A:HIS:456:CE1:4069, V-B:TYR:539:C:9838, V-A:GLU:543:CD:4907, V-A:GLU:543:CG:4906, V-B:TYR:539:CE2:9847, V-B:GLU:543:CD:9879, V-A:ASP:366:CG:3212, V-A:ASP:366:CA:3209, V-A:ASP:366:CB:3211, V-A:TYR:484:CZ:4346, H-A:ARG:545:NE:4923, V-A:ILE:369:CG2:3236, V-A:ARG:545:CZ:4925, V-B:ALA:541:CB:9863, H-A:ARG:545:NH2:4927, V-A:ILE:369:CD1:3238, V-A:LEU:475:CD2:4258, V-A:HIS:383:CE1:3393, V-A:PRO:482:CG:4326, V-B:TYR:539:CB:9842, V-A:ILE:369:CB:3235, H-A:TYR:484:OH:4347, V-A:PRO:482:CB:4325, H-A:ASP:366:OD1:3213, H-A:ASP:366:OD2:3214, V-B:VAL:344:CG1:7971, H-B:GLU:543:OE2:9881, V-A:ILE:369:CG1:3237"]

$$$$
4ck_Grossjean_2025
     RDKit          3D

 33 35  0  0  0  0  0  0  0  0999 V2000
  130.6760  124.3090   74.3440 C   0  0  0  0  0  0  0  0  0  0  0  0
  129.4620  125.0060   74.5780 O   0  0  0  0  0  0  0  0  0  0  0  0
  128.6160  125.0660   73.4390 C   0  0  0  0  0  0  0  0  0  0  0  0
  128.5250  126.5190   72.9580 C   0  0  0  0  0  0  0  0  0  0  0  0
  127.5340  126.6110   71.9440 O   0  0  0  0  0  0  0  0  0  0  0  0
  127.9660  126.1190   70.6820 C   0  0  0  0  0  0  0  0  0  0  0  0
  129.1290  126.9830   70.1770 C   0  0  0  0  0  0  0  0  0  0  0  0
  129.0580  127.0630   68.7600 O   0  0  0  0  0  0  0  0  0  0  0  0
  130.2930  126.7990   68.1070 C   0  0  0  0  0  0  0  0  0  0  0  0
  130.2180  127.2800   66.6490 C   0  0  0  0  0  0  0  0  0  0  0  0
  130.5400  126.2130   65.7010 N   0  0  0  0  0  0  0  0  0  0  0  0
  131.7360  125.6010   65.5760 C   0  0  0  0  0  0  0  0  0  0  0  0
  132.7000  125.8720   66.2940 O   0  0  0  0  0  0  0  0  0  0  0  0
  131.8240  124.5760   64.5350 C   0  0  0  0  0  0  0  0  0  0  0  0
  131.2060  122.9550   64.8380 S   0  0  0  0  0  0  0  0  0  0  0  0
  131.6150  122.4500   63.2150 C   0  0  0  0  0  0  0  0  0  0  0  0
  131.3720  121.2130   62.7900 N   0  0  0  0  0  0  0  0  0  0  0  0
  131.7260  120.9120   61.5130 C   0  0  0  0  0  0  0  0  0  0  0  0
  131.4220  119.5140   61.0590 C   0  0  0  0  0  0  0  0  0  0  0  0
  132.2610  118.8550   60.1460 C   0  0  0  0  0  0  0  0  0  0  0  0
  131.9830  117.5590   59.7180 C   0  0  0  0  0  0  0  0  0  0  0  0
  130.8570  116.9000   60.2010 C   0  0  0  0  0  0  0  0  0  0  0  0
  130.0120  117.5270   61.1100 C   0  0  0  0  0  0  0  0  0  0  0  0
  130.2940  118.8230   61.5350 C   0  0  0  0  0  0  0  0  0  0  0  0
  132.3140  121.8580   60.6670 C   0  0  0  0  0  0  0  0  0  0  0  0
  132.5760  123.1660   61.1060 C   0  0  0  0  0  0  0  0  0  0  0  0
  133.2270  124.1510   60.1270 C   0  0  0  0  0  0  0  0  0  0  0  0
  134.4040  124.6110   60.5530 F   0  0  0  0  0  0  0  0  0  0  0  0
  133.4330  123.5520   58.9550 F   0  0  0  0  0  0  0  0  0  0  0  0
  132.4270  125.2030   59.9500 F   0  0  0  0  0  0  0  0  0  0  0  0
  132.2110  123.4910   62.4440 C   0  0  0  0  0  0  0  0  0  0  0  0
  132.3110  124.7000   63.2250 C   0  0  0  0  0  0  0  0  0  0  0  0
  132.8390  125.8640   62.7280 N   0  0  0  0  0  0  0  0  0  0  0  0
  1  2  1  0
  2  3  1  0
  3  4  1  0
  4  5  1  0
  5  6  1  0
  6  7  1  0
  7  8  1  0
  8  9  1  0
  9 10  1  0
 10 11  1  0
 11 12  1  0
 12 13  2  0
 12 14  1  0
 14 15  1  0
 15 16  1  0
 16 17  2  0
 17 18  1  0
 18 19  1  0
 19 20  2  0
 20 21  1  0
 21 22  2  0
 22 23  1  0
 23 24  2  0
 18 25  2  0
 25 26  1  0
 26 27  1  0
 27 28  1  0
 27 29  1  0
 27 30  1  0
 26 31  2  0
 31 32  1  0
 32 33  1  0
 32 14  2  0
 31 16  1  0
 24 19  1  0
M  END
>  <Binding energies>  (59) 
[-6.92]

>  <Ligand effiencies>  (59) 
[-0.1922222222222222]

>  <Interactions>  (59) 
["V-B:GLU:543:CB:9877, V-B:TYR:539:CD2:9845, V-B:TYR:539:CZ:9848, V-A:HIS:456:CE1:4069, V-B:TYR:539:C:9838, V-A:GLU:543:CD:4907, V-B:TYR:539:CE2:9847, V-A:ASP:366:CG:3212, V-B:LYS:547:CE:9921, V-B:GLU:543:C:9873, V-A:ASP:366:CA:3209, V-A:ASP:366:CB:3211, V-A:HIS:456:CD2:4067, H-B:LYS:547:NZ:9922, V-A:TYR:484:CZ:4346, V-A:ILE:369:CG2:3236, V-A:ARG:545:CZ:4925, V-B:ALA:541:CB:9863, V-A:ILE:369:CD1:3238, V-A:LEU:475:CD2:4258, V-A:HIS:383:CE1:3393, V-A:PRO:482:CG:4326, V-B:TYR:539:CB:9842, V-A:ILE:369:CB:3235, H-A:TYR:484:OH:4347, V-A:PRO:482:CB:4325, H-A:ASP:366:OD1:3213, H-A:ASP:366:OD2:3214, V-B:VAL:344:CG1:7971, H-B:GLU:543:OE2:9881, V-A:ILE:369:CG1:3237, V-A:HIS:456:CG:4065"]

$$$$
4dd_Grossjean_2025
     RDKit          3D

 26 29  0  0  0  0  0  0  0  0999 V2000
  133.7040  124.2190   60.5230 C   0  0  0  0  0  0  0  0  0  0  0  0
  132.8810  123.2730   61.3840 C   0  0  0  0  0  0  0  0  0  0  0  0
  132.6260  121.9860   60.8940 C   0  0  0  0  0  0  0  0  0  0  0  0
  131.8750  121.0680   61.6380 C   0  0  0  0  0  0  0  0  0  0  0  0
  131.5820  119.6850   61.1360 C   0  0  0  0  0  0  0  0  0  0  0  0
  132.4590  119.0420   60.2460 C   0  0  0  0  0  0  0  0  0  0  0  0
  132.1940  117.7580   59.7780 C   0  0  0  0  0  0  0  0  0  0  0  0
  131.0440  117.0960   60.1930 C   0  0  0  0  0  0  0  0  0  0  0  0
  130.1590  117.7080   61.0740 C   0  0  0  0  0  0  0  0  0  0  0  0
  130.4290  118.9920   61.5420 C   0  0  0  0  0  0  0  0  0  0  0  0
  131.3540  121.3850   62.8550 N   0  0  0  0  0  0  0  0  0  0  0  0
  131.6000  122.6060   63.3260 C   0  0  0  0  0  0  0  0  0  0  0  0
  131.0060  123.1390   64.8820 S   0  0  0  0  0  0  0  0  0  0  0  0
  131.7560  124.7240   64.6790 C   0  0  0  0  0  0  0  0  0  0  0  0
  131.6420  125.7380   65.7290 C   0  0  0  0  0  0  0  0  0  0  0  0
  132.4800  126.6350   65.8290 O   0  0  0  0  0  0  0  0  0  0  0  0
  130.5660  125.6110   66.5440 N   0  0  0  0  0  0  0  0  0  0  0  0
  130.1970  126.3750   67.6660 C   0  0  0  0  0  0  0  0  0  0  0  0
  129.3900  125.7280   68.6070 C   0  0  0  0  0  0  0  0  0  0  0  0
  128.9830  126.3940   69.7600 C   0  0  0  0  0  0  0  0  0  0  0  0
  129.3890  127.7080   69.9770 C   0  0  0  0  0  0  0  0  0  0  0  0
  130.2030  128.3600   69.0540 C   0  0  0  0  0  0  0  0  0  0  0  0
  130.6120  127.6960   67.9010 C   0  0  0  0  0  0  0  0  0  0  0  0
  132.4260  124.8120   63.4480 C   0  0  0  0  0  0  0  0  0  0  0  0
  133.0960  125.9320   63.0220 N   0  0  0  0  0  0  0  0  0  0  0  0
  132.3540  123.6120   62.6570 C   0  0  0  0  0  0  0  0  0  0  0  0
  1  2  1  0
  2  3  2  0
  3  4  1  0
  4  5  1  0
  5  6  2  0
  6  7  1  0
  7  8  2  0
  8  9  1  0
  9 10  2  0
  4 11  2  0
 11 12  1  0
 12 13  1  0
 13 14  1  0
 14 15  1  0
 15 16  2  0
 15 17  1  0
 17 18  1  0
 18 19  2  0
 19 20  1  0
 20 21  2  0
 21 22  1  0
 22 23  2  0
 14 24  2  0
 24 25  1  0
 24 26  1  0
 26  2  1  0
 10  5  1  0
 26 12  2  0
 23 18  1  0
M  END
>  <Binding energies>  (60) 
[-8.77]

>  <Ligand effiencies>  (60) 
[-0.30241379310344824]

>  <Interactions>  (60) 
["V-B:GLU:543:CB:9877, V-A:GLU:543:CB:4905, V-B:TYR:539:CD2:9845, V-B:HIS:456:CE1:9040, V-A:HIS:456:CE1:4069, V-B:TYR:539:C:9838, V-A:GLU:543:CD:4907, V-B:TYR:539:CE2:9847, V-B:GLU:543:CD:9879, V-A:ASP:366:CG:3212, V-A:ASP:366:CB:3211, V-B:GLU:543:CG:9878, V-A:TYR:484:CZ:4346, H-A:ARG:545:NE:4923, V-A:ILE:369:CG2:3236, V-A:ARG:545:CZ:4925, V-A:TYR:484:CE2:4345, V-B:ALA:541:CB:9863, H-A:ARG:545:NH2:4927, V-A:ILE:369:CD1:3238, V-A:LEU:475:CD2:4258, V-A:HIS:383:CE1:3393, V-A:PRO:482:CG:4326, V-B:TYR:539:CB:9842, H-A:TYR:484:OH:4347, V-A:PRO:482:CB:4325, H-A:ASP:366:OD1:3213, H-A:ASP:366:OD2:3214, H-B:GLU:543:OE2:9881"]

$$$$
4dg_Grossjean_2025
     RDKit          3D

 27 30  0  0  0  0  0  0  0  0999 V2000
  133.6830  124.2570   60.4850 C   0  0  0  0  0  0  0  0  0  0  0  0
  132.8760  123.3270   61.3780 C   0  0  0  0  0  0  0  0  0  0  0  0
  132.5860  122.0430   60.9030 C   0  0  0  0  0  0  0  0  0  0  0  0
  131.8470  121.1390   61.6770 C   0  0  0  0  0  0  0  0  0  0  0  0
  131.5210  119.7540   61.1940 C   0  0  0  0  0  0  0  0  0  0  0  0
  132.3980  119.0620   60.3430 C   0  0  0  0  0  0  0  0  0  0  0  0
  132.0980  117.7790   59.8900 C   0  0  0  0  0  0  0  0  0  0  0  0
  130.9130  117.1670   60.2830 C   0  0  0  0  0  0  0  0  0  0  0  0
  130.0240  117.8310   61.1220 C   0  0  0  0  0  0  0  0  0  0  0  0
  130.3270  119.1130   61.5720 C   0  0  0  0  0  0  0  0  0  0  0  0
  131.3980  121.4590   62.9210 N   0  0  0  0  0  0  0  0  0  0  0  0
  131.6730  122.6820   63.3740 C   0  0  0  0  0  0  0  0  0  0  0  0
  131.1500  123.2230   64.9520 S   0  0  0  0  0  0  0  0  0  0  0  0
  131.9000  124.8000   64.7070 C   0  0  0  0  0  0  0  0  0  0  0  0
  131.7840  125.8360   65.7320 C   0  0  0  0  0  0  0  0  0  0  0  0
  132.7470  126.1610   66.4290 O   0  0  0  0  0  0  0  0  0  0  0  0
  130.5570  126.3760   65.8870 N   0  0  0  0  0  0  0  0  0  0  0  0
  130.2130  127.4390   66.8320 C   0  0  0  0  0  0  0  0  0  0  0  0
  129.5750  126.9230   68.1170 C   0  0  0  0  0  0  0  0  0  0  0  0
  129.6830  125.5690   68.4510 C   0  0  0  0  0  0  0  0  0  0  0  0
  129.1290  125.1010   69.6390 C   0  0  0  0  0  0  0  0  0  0  0  0
  128.4800  125.9880   70.4950 C   0  0  0  0  0  0  0  0  0  0  0  0
  128.3850  127.3410   70.1770 C   0  0  0  0  0  0  0  0  0  0  0  0
  128.9390  127.8100   68.9890 C   0  0  0  0  0  0  0  0  0  0  0  0
  132.5080  124.8850   63.4460 C   0  0  0  0  0  0  0  0  0  0  0  0
  133.1550  126.0030   62.9840 N   0  0  0  0  0  0  0  0  0  0  0  0
  132.4020  123.6800   62.6680 C   0  0  0  0  0  0  0  0  0  0  0  0
  1  2  1  0
  2  3  2  0
  3  4  1  0
  4  5  1  0
  5  6  2  0
  6  7  1  0
  7  8  2  0
  8  9  1  0
  9 10  2  0
  4 11  2  0
 11 12  1  0
 12 13  1  0
 13 14  1  0
 14 15  1  0
 15 16  2  0
 15 17  1  0
 17 18  1  0
 18 19  1  0
 19 20  2  0
 20 21  1  0
 21 22  2  0
 22 23  1  0
 23 24  2  0
 14 25  2  0
 25 26  1  0
 25 27  1  0
 27  2  1  0
 10  5  1  0
 27 12  2  0
 24 19  1  0
M  END
>  <Binding energies>  (61) 
[-8.65]

>  <Ligand effiencies>  (61) 
[-0.28833333333333333]

>  <Interactions>  (61) 
["V-B:GLU:543:CB:9877, V-B:TYR:539:CD2:9845, V-B:HIS:456:CE1:9040, V-A:HIS:456:CE1:4069, V-B:TYR:539:C:9838, V-A:GLU:543:CD:4907, V-B:TYR:539:CE2:9847, V-B:GLU:543:CD:9879, V-A:ASP:366:CG:3212, V-B:GLU:543:C:9873, V-A:ASP:366:CB:3211, V-A:HIS:456:CD2:4067, V-A:TYR:484:CZ:4346, H-A:ARG:545:NE:4923, V-A:ILE:369:CG2:3236, V-A:ARG:545:CZ:4925, V-A:TYR:484:CE2:4345, V-B:ALA:541:CB:9863, V-A:ILE:369:CD1:3238, V-A:LEU:475:CD2:4258, V-A:HIS:383:CE1:3393, V-A:PRO:482:CG:4326, V-B:TYR:539:CB:9842, H-A:TYR:484:OH:4347, V-A:PRO:482:CB:4325, H-A:ASP:366:OD1:3213, H-A:ASP:366:OD2:3214, V-B:GLU:543:CA:9875, H-B:GLU:543:OE2:9881, V-A:TYR:484:CD2:4343"]

$$$$
4dj_Grossjean_2025
     RDKit          3D

 25 28  0  0  0  0  0  0  0  0999 V2000
  133.8620  124.2040   60.4790 C   0  0  0  0  0  0  0  0  0  0  0  0
  133.0360  123.2730   61.3530 C   0  0  0  0  0  0  0  0  0  0  0  0
  132.7510  121.9910   60.8670 C   0  0  0  0  0  0  0  0  0  0  0  0
  131.9950  121.0870   61.6220 C   0  0  0  0  0  0  0  0  0  0  0  0
  131.6780  119.7040   61.1290 C   0  0  0  0  0  0  0  0  0  0  0  0
  130.5350  119.0230   61.5790 C   0  0  0  0  0  0  0  0  0  0  0  0
  130.2360  117.7400   61.1260 C   0  0  0  0  0  0  0  0  0  0  0  0
  131.0820  117.1160   60.2140 C   0  0  0  0  0  0  0  0  0  0  0  0
  132.2220  117.7660   59.7550 C   0  0  0  0  0  0  0  0  0  0  0  0
  132.5170  119.0470   60.2100 C   0  0  0  0  0  0  0  0  0  0  0  0
  131.5210  121.4030   62.8580 N   0  0  0  0  0  0  0  0  0  0  0  0
  131.7900  122.6230   63.3220 C   0  0  0  0  0  0  0  0  0  0  0  0
  131.2360  123.1630   64.8910 S   0  0  0  0  0  0  0  0  0  0  0  0
  131.9950  124.7400   64.6680 C   0  0  0  0  0  0  0  0  0  0  0  0
  131.8900  125.7650   65.7080 C   0  0  0  0  0  0  0  0  0  0  0  0
  132.9030  126.2840   66.1850 O   0  0  0  0  0  0  0  0  0  0  0  0
  130.6290  126.0780   66.0940 N   0  0  0  0  0  0  0  0  0  0  0  0
  130.2570  127.0060   67.0560 C   0  0  0  0  0  0  0  0  0  0  0  0
  130.6130  127.0450   68.3220 N   0  0  0  0  0  0  0  0  0  0  0  0
  130.0690  128.0720   68.9470 C   0  0  0  0  0  0  0  0  0  0  0  0
  129.2510  128.8960   68.1810 C   0  0  0  0  0  0  0  0  0  0  0  0
  129.1960  128.2840   66.5540 S   0  0  0  0  0  0  0  0  0  0  0  0
  132.6390  124.8200   63.4240 C   0  0  0  0  0  0  0  0  0  0  0  0
  133.3110  125.9330   62.9820 N   0  0  0  0  0  0  0  0  0  0  0  0
  132.5390  123.6210   62.6360 C   0  0  0  0  0  0  0  0  0  0  0  0
  1  2  1  0
  2  3  2  0
  3  4  1  0
  4  5  1  0
  5  6  2  0
  6  7  1  0
  7  8  2  0
  8  9  1  0
  9 10  2  0
  4 11  2  0
 11 12  1  0
 12 13  1  0
 13 14  1  0
 14 15  1  0
 15 16  2  0
 15 17  1  0
 17 18  1  0
 18 19  2  0
 19 20  1  0
 20 21  2  0
 21 22  1  0
 14 23  2  0
 23 24  1  0
 23 25  1  0
 25  2  1  0
 10  5  1  0
 25 12  2  0
 22 18  1  0
M  END
>  <Binding energies>  (62) 
[-8.22]

>  <Ligand effiencies>  (62) 
[-0.2935714285714286]

>  <Interactions>  (62) 
["V-A:GLU:543:CB:4905, V-B:TYR:539:CD2:9845, V-A:HIS:456:CE1:4069, V-B:TYR:539:C:9838, V-A:GLU:543:CD:4907, V-A:GLU:543:CG:4906, V-B:TYR:539:CE2:9847, V-A:ASP:366:CG:3212, V-A:ASP:366:CA:3209, V-A:ASP:366:CB:3211, V-A:TYR:484:CZ:4346, H-A:ARG:545:NE:4923, V-A:ILE:369:CG2:3236, V-A:ARG:545:CZ:4925, V-B:ALA:541:CB:9863, V-A:ILE:369:CD1:3238, V-A:LEU:475:CD2:4258, V-A:HIS:383:CE1:3393, V-A:PRO:482:CG:4326, V-B:TYR:539:CB:9842, V-A:ILE:369:CB:3235, H-A:TYR:484:OH:4347, V-A:PRO:482:CB:4325, H-A:ASP:366:OD1:3213, H-A:ASP:366:OD2:3214, H-B:GLU:543:OE2:9881, V-A:ILE:369:CG1:3237"]

$$$$
4ea_Grossjean_2025
     RDKit          3D

 31 34  0  0  0  0  0  0  0  0999 V2000
  130.5560  117.4860   60.7920 C   0  0  0  0  0  0  0  0  0  0  0  0
  131.9900  117.9690   61.0230 C   0  0  0  0  0  0  0  0  0  0  0  0
  132.1610  119.2460   60.4220 O   0  0  0  0  0  0  0  0  0  0  0  0
  133.1560  120.0810   60.8190 C   0  0  0  0  0  0  0  0  0  0  0  0
  134.3370  119.9340   60.4900 O   0  0  0  0  0  0  0  0  0  0  0  0
  132.6760  121.2010   61.6960 C   0  0  0  0  0  0  0  0  0  0  0  0
  133.2410  121.3620   62.9680 C   0  0  0  0  0  0  0  0  0  0  0  0
  132.8180  122.3900   63.8060 C   0  0  0  0  0  0  0  0  0  0  0  0
  131.8230  123.2770   63.3910 C   0  0  0  0  0  0  0  0  0  0  0  0
  131.4760  124.2760   64.3210 N   0  0  0  0  0  0  0  0  0  0  0  0
  132.2380  125.2300   64.9110 C   0  0  0  0  0  0  0  0  0  0  0  0
  133.4430  125.3780   64.7090 O   0  0  0  0  0  0  0  0  0  0  0  0
  131.5260  126.1100   65.8410 C   0  0  0  0  0  0  0  0  0  0  0  0
  132.1060  126.3210   67.4950 S   0  0  0  0  0  0  0  0  0  0  0  0
  130.8000  127.4230   67.8650 C   0  0  0  0  0  0  0  0  0  0  0  0
  130.6700  127.9820   69.0690 N   0  0  0  0  0  0  0  0  0  0  0  0
  129.6140  128.8180   69.2270 C   0  0  0  0  0  0  0  0  0  0  0  0
  129.4840  129.4430   70.6030 C   0  0  0  0  0  0  0  0  0  0  0  0
  128.6950  129.1040   68.2190 C   0  0  0  0  0  0  0  0  0  0  0  0
  128.8360  128.5150   66.9580 C   0  0  0  0  0  0  0  0  0  0  0  0
  127.8520  128.8290   65.8980 C   0  0  0  0  0  0  0  0  0  0  0  0
  126.4940  128.5540   66.0940 C   0  0  0  0  0  0  0  0  0  0  0  0
  125.5680  128.8520   65.0990 C   0  0  0  0  0  0  0  0  0  0  0  0
  126.0000  129.4210   63.9030 C   0  0  0  0  0  0  0  0  0  0  0  0
  127.3490  129.6950   63.6950 C   0  0  0  0  0  0  0  0  0  0  0  0
  128.2750  129.3970   64.6920 C   0  0  0  0  0  0  0  0  0  0  0  0
  129.9310  127.6320   66.7520 C   0  0  0  0  0  0  0  0  0  0  0  0
  130.3680  126.8710   65.6100 C   0  0  0  0  0  0  0  0  0  0  0  0
  129.7010  126.9000   64.4130 N   0  0  0  0  0  0  0  0  0  0  0  0
  131.2520  123.1230   62.1180 C   0  0  0  0  0  0  0  0  0  0  0  0
  131.6760  122.0940   61.2820 C   0  0  0  0  0  0  0  0  0  0  0  0
  1  2  1  0
  2  3  1  0
  3  4  1  0
  4  5  2  0
  4  6  1  0
  6  7  2  0
  7  8  1  0
  8  9  2  0
  9 10  1  0
 10 11  1  0
 11 12  2  0
 11 13  1  0
 13 14  1  0
 14 15  1  0
 15 16  2  0
 16 17  1  0
 17 18  1  0
 17 19  2  0
 19 20  1  0
 20 21  1  0
 21 22  2  0
 22 23  1  0
 23 24  2  0
 24 25  1  0
 25 26  2  0
 20 27  2  0
 27 28  1  0
 28 29  1  0
  9 30  1  0
 30 31  2  0
 31  6  1  0
 28 13  2  0
 27 15  1  0
 26 21  1  0
M  END
>  <Binding energies>  (63) 
[-7.4]

>  <Ligand effiencies>  (63) 
[-0.21764705882352942]

>  <Interactions>  (63) 
["V-A:GLU:543:CB:4905, V-B:TYR:539:CD2:9845, V-B:HIS:456:CE1:9040, V-A:HIS:456:CE1:4069, V-A:GLU:543:CD:4907, V-A:GLU:543:CG:4906, V-B:TYR:539:CE2:9847, V-B:GLU:543:CD:9879, V-B:ARG:545:CZ:9897, V-A:TYR:484:CZ:4346, V-A:ILE:369:CG2:3236, V-A:SER:385:CA:3406, V-A:SER:385:CB:3408, H-A:GLY:454:N:4049, H-A:ARG:545:NH2:4927, V-A:LEU:475:CD2:4258, V-A:HIS:383:CE1:3393, V-A:PRO:482:CG:4326, V-B:TYR:539:CB:9842, H-A:TYR:484:OH:4347, V-A:PRO:482:CB:4325, V-A:GLY:454:CA:4048, H-B:GLU:543:OE2:9881, V-A:GLU:543:C:4901, H-B:GLU:543:OE1:9880"]

$$$$
4eb_Grossjean_2025
     RDKit          3D

 30 33  0  0  0  0  0  0  0  0999 V2000
  131.8840  117.8630   59.9410 C   0  0  0  0  0  0  0  0  0  0  0  0
  131.8150  119.0170   60.7660 O   0  0  0  0  0  0  0  0  0  0  0  0
  132.8450  119.9010   60.8180 C   0  0  0  0  0  0  0  0  0  0  0  0
  133.8800  119.7790   60.1570 O   0  0  0  0  0  0  0  0  0  0  0  0
  132.5990  121.0430   61.7620 C   0  0  0  0  0  0  0  0  0  0  0  0
  131.3040  121.2580   62.2510 C   0  0  0  0  0  0  0  0  0  0  0  0
  131.0430  122.3080   63.1270 C   0  0  0  0  0  0  0  0  0  0  0  0
  132.0690  123.1630   63.5320 C   0  0  0  0  0  0  0  0  0  0  0  0
  131.6890  124.1890   64.4190 N   0  0  0  0  0  0  0  0  0  0  0  0
  132.4200  125.1900   64.9680 C   0  0  0  0  0  0  0  0  0  0  0  0
  133.6200  125.3690   64.7580 O   0  0  0  0  0  0  0  0  0  0  0  0
  131.6810  126.0870   65.8610 C   0  0  0  0  0  0  0  0  0  0  0  0
  132.2210  126.3360   67.5230 S   0  0  0  0  0  0  0  0  0  0  0  0
  130.9000  127.4380   67.8380 C   0  0  0  0  0  0  0  0  0  0  0  0
  130.7380  128.0220   69.0260 N   0  0  0  0  0  0  0  0  0  0  0  0
  129.6750  128.8550   69.1400 C   0  0  0  0  0  0  0  0  0  0  0  0
  129.5090  129.5090   70.5010 C   0  0  0  0  0  0  0  0  0  0  0  0
  128.7790  129.1150   68.1060 C   0  0  0  0  0  0  0  0  0  0  0  0
  128.9530  128.5000   66.8610 C   0  0  0  0  0  0  0  0  0  0  0  0
  127.9930  128.7870   65.7700 C   0  0  0  0  0  0  0  0  0  0  0  0
  128.4500  129.2740   64.5420 C   0  0  0  0  0  0  0  0  0  0  0  0
  127.5470  129.5420   63.5150 C   0  0  0  0  0  0  0  0  0  0  0  0
  126.1870  129.3250   63.7200 C   0  0  0  0  0  0  0  0  0  0  0  0
  125.7220  128.8420   64.9410 C   0  0  0  0  0  0  0  0  0  0  0  0
  126.6250  128.5750   65.9660 C   0  0  0  0  0  0  0  0  0  0  0  0
  130.0570  127.6190   66.7000 C   0  0  0  0  0  0  0  0  0  0  0  0
  130.5260  126.8360   65.5870 C   0  0  0  0  0  0  0  0  0  0  0  0
  129.8880  126.8360   64.3720 N   0  0  0  0  0  0  0  0  0  0  0  0
  133.3690  122.9560   63.0470 C   0  0  0  0  0  0  0  0  0  0  0  0
  133.6280  121.9050   62.1710 C   0  0  0  0  0  0  0  0  0  0  0  0
  1  2  1  0
  2  3  1  0
  3  4  2  0
  3  5  1  0
  5  6  2  0
  6  7  1  0
  7  8  2  0
  8  9  1  0
  9 10  1  0
 10 11  2  0
 10 12  1  0
 12 13  1  0
 13 14  1  0
 14 15  2  0
 15 16  1  0
 16 17  1  0
 16 18  2  0
 18 19  1  0
 19 20  1  0
 20 21  2  0
 21 22  1  0
 22 23  2  0
 23 24  1  0
 24 25  2  0
 19 26  2  0
 26 27  1  0
 27 28  1  0
  8 29  1  0
 29 30  2  0
 30  5  1  0
 27 12  2  0
 26 14  1  0
 25 20  1  0
M  END
>  <Binding energies>  (64) 
[-7.13]

>  <Ligand effiencies>  (64) 
[-0.21606060606060606]

>  <Interactions>  (64) 
["V-A:GLU:543:CB:4905, V-B:TYR:539:CD2:9845, V-B:HIS:456:CE1:9040, V-A:HIS:456:CE1:4069, V-A:GLU:543:CD:4907, V-A:GLU:543:CG:4906, V-B:GLU:543:CD:9879, V-B:ARG:545:CZ:9897, V-A:TYR:484:CZ:4346, V-A:ILE:369:CG2:3236, V-A:SER:385:CA:3406, H-A:GLY:454:N:4049, H-A:ARG:545:NH2:4927, V-A:ARG:545:CG:4921, V-A:ILE:369:CD1:3238, V-A:LEU:475:CD2:4258, V-A:HIS:383:CE1:3393, V-B:TYR:539:CB:9842, H-A:TYR:484:OH:4347, V-A:GLY:454:CA:4048, H-B:GLU:543:OE2:9881, V-A:GLU:543:C:4901, H-B:GLU:543:OE1:9880"]

$$$$
8b_Ghoteimi_2023
     RDKit          3D

 34 38  0  0  0  0  0  0  0  0999 V2000
  129.6230  127.2860   75.4650 C   0  0  0  0  0  0  0  0  0  0  0  0
  128.7210  126.5910   74.6100 O   0  0  0  0  0  0  0  0  0  0  0  0
  128.8390  126.7420   73.2420 C   0  0  0  0  0  0  0  0  0  0  0  0
  129.3470  127.9580   72.7910 C   0  0  0  0  0  0  0  0  0  0  0  0
  129.5000  128.2010   71.4300 C   0  0  0  0  0  0  0  0  0  0  0  0
  129.1480  127.2290   70.4810 C   0  0  0  0  0  0  0  0  0  0  0  0
  129.3080  127.4850   69.0160 C   0  0  0  0  0  0  0  0  0  0  0  0
  130.1120  126.6710   68.2100 C   0  0  0  0  0  0  0  0  0  0  0  0
  130.2440  126.9310   66.8420 C   0  0  0  0  0  0  0  0  0  0  0  0
  131.1100  126.0560   66.0190 C   0  0  0  0  0  0  0  0  0  0  0  0
  132.4940  126.2400   66.0140 C   0  0  0  0  0  0  0  0  0  0  0  0
  133.3070  125.4100   65.2470 C   0  0  0  0  0  0  0  0  0  0  0  0
  132.7520  124.3890   64.4740 C   0  0  0  0  0  0  0  0  0  0  0  0
  133.6350  123.6150   63.7460 O   0  0  0  0  0  0  0  0  0  0  0  0
  133.9930  124.0210   62.4290 C   0  0  0  0  0  0  0  0  0  0  0  0
  131.3600  124.2100   64.4770 C   0  0  0  0  0  0  0  0  0  0  0  0
  130.5470  125.0400   65.2450 C   0  0  0  0  0  0  0  0  0  0  0  0
  129.5360  128.0370   66.3000 C   0  0  0  0  0  0  0  0  0  0  0  0
  129.4400  128.5770   64.9690 C   0  0  0  0  0  0  0  0  0  0  0  0
  130.1050  128.0260   63.9040 N   0  0  0  0  0  0  0  0  0  0  0  0
  128.6090  129.7040   64.8710 C   0  0  0  0  0  0  0  0  0  0  0  0
  128.2820  130.4950   63.6830 C   0  0  0  0  0  0  0  0  0  0  0  0
  127.1520  130.4540   63.1900 O   0  0  0  0  0  0  0  0  0  0  0  0
  129.2970  131.2490   63.1900 N   0  0  0  0  0  0  0  0  0  0  0  0
  129.2660  132.0900   62.0860 C   0  0  0  0  0  0  0  0  0  0  0  0
  128.1620  132.1970   61.2410 C   0  0  0  0  0  0  0  0  0  0  0  0
  128.5300  133.1160   60.2850 C   0  0  0  0  0  0  0  0  0  0  0  0
  129.7890  133.5430   60.5420 O   0  0  0  0  0  0  0  0  0  0  0  0
  130.2450  132.8870   61.6870 N   0  0  0  0  0  0  0  0  0  0  0  0
  127.9180  130.1240   66.4400 S   0  0  0  0  0  0  0  0  0  0  0  0
  128.7450  128.7910   67.2130 C   0  0  0  0  0  0  0  0  0  0  0  0
  128.6200  128.5460   68.5170 N   0  0  0  0  0  0  0  0  0  0  0  0
  128.6400  126.0070   70.9410 C   0  0  0  0  0  0  0  0  0  0  0  0
  128.4850  125.7620   72.3030 C   0  0  0  0  0  0  0  0  0  0  0  0
  1  2  1  0
  2  3  1  0
  3  4  2  0
  4  5  1  0
  5  6  2  0
  6  7  1  0
  7  8  2  0
  8  9  1  0
  9 10  1  0
 10 11  2  0
 11 12  1  0
 12 13  2  0
 13 14  1  0
 14 15  1  0
 13 16  1  0
 16 17  2  0
  9 18  2  0
 18 19  1  0
 19 20  1  0
 19 21  2  0
 21 22  1  0
 22 23  2  0
 22 24  1  0
 24 25  1  0
 25 26  1  0
 26 27  2  0
 27 28  1  0
 28 29  1  0
 21 30  1  0
 30 31  1  0
 31 32  2  0
  6 33  1  0
 33 34  2  0
 34  3  1  0
 32  7  1  0
 17 10  1  0
 31 18  1  0
 29 25  2  0
M  END
>  <Binding energies>  (65) 
[-7.13]

>  <Ligand effiencies>  (65) 
[-0.1927027027027027]

>  <Interactions>  (65) 
["V-A:TYR:539:CD1:4872, V-B:GLU:543:CB:9877, V-A:GLU:543:CB:4905, V-B:HIS:456:CE1:9040, V-A:HIS:456:CE1:4069, V-A:GLU:543:CD:4907, V-A:GLU:543:CG:4906, V-B:GLU:543:CD:9879, V-A:ASP:366:CG:3212, V-B:GLU:543:C:9873, H-A:ALA:541:N:4890, H-B:LYS:547:NZ:9922, V-A:ARG:545:CZ:4925, H-A:GLY:454:N:4049, V-A:ILE:369:CD1:3238, V-A:GLY:454:CA:4048, H-A:GLU:543:OE1:4908, H-A:GLU:543:OE2:4909, H-B:GLU:543:OE2:9881"]

$$$$
9d_Ghoteimi_2023
     RDKit          3D

 38 43  0  0  0  0  0  0  0  0999 V2000
  132.3790  126.8660   57.0310 C   0  0  0  0  0  0  0  0  0  0  0  0
  130.9820  127.1150   57.0850 O   0  0  0  0  0  0  0  0  0  0  0  0
  130.4700  128.0240   57.9550 C   0  0  0  0  0  0  0  0  0  0  0  0
  130.0240  129.1240   57.6200 O   0  0  0  0  0  0  0  0  0  0  0  0
  130.5050  127.5600   59.3600 C   0  0  0  0  0  0  0  0  0  0  0  0
  130.3330  128.7230   60.6730 S   0  0  0  0  0  0  0  0  0  0  0  0
  130.4450  127.4520   61.8670 C   0  0  0  0  0  0  0  0  0  0  0  0
  130.3430  127.7080   63.1710 N   0  0  0  0  0  0  0  0  0  0  0  0
  130.4260  126.6470   64.0160 C   0  0  0  0  0  0  0  0  0  0  0  0
  130.2840  126.9550   65.4730 C   0  0  0  0  0  0  0  0  0  0  0  0
  130.9770  126.2050   66.4280 C   0  0  0  0  0  0  0  0  0  0  0  0
  130.8500  126.4820   67.7860 C   0  0  0  0  0  0  0  0  0  0  0  0
  130.0320  127.5300   68.2390 C   0  0  0  0  0  0  0  0  0  0  0  0
  129.8810  127.8090   69.6020 N   0  0  0  0  0  0  0  0  0  0  0  0
  130.2540  129.1230   70.1630 C   0  0  0  0  0  0  0  0  0  0  0  0
  130.3510  129.1400   71.7020 C   0  0  0  0  0  0  0  0  0  0  0  0
  129.1390  128.6710   72.2700 O   0  0  0  0  0  0  0  0  0  0  0  0
  128.8600  127.3390   71.8690 C   0  0  0  0  0  0  0  0  0  0  0  0
  128.7180  127.2650   70.3340 C   0  0  0  0  0  0  0  0  0  0  0  0
  129.3270  128.2690   67.2780 C   0  0  0  0  0  0  0  0  0  0  0  0
  129.4530  127.9890   65.9200 C   0  0  0  0  0  0  0  0  0  0  0  0
  130.6420  125.3450   63.5600 C   0  0  0  0  0  0  0  0  0  0  0  0
  130.7690  125.0730   62.1930 C   0  0  0  0  0  0  0  0  0  0  0  0
  131.0260  123.6730   61.7630 C   0  0  0  0  0  0  0  0  0  0  0  0
  132.3310  123.2150   61.5690 C   0  0  0  0  0  0  0  0  0  0  0  0
  132.5680  121.8980   61.1850 C   0  0  0  0  0  0  0  0  0  0  0  0
  131.5050  120.9990   61.0000 C   0  0  0  0  0  0  0  0  0  0  0  0
  131.7150  119.6760   60.6060 N   0  0  0  0  0  0  0  0  0  0  0  0
  131.2370  118.5840   61.4760 C   0  0  0  0  0  0  0  0  0  0  0  0
  131.1780  117.2170   60.7600 C   0  0  0  0  0  0  0  0  0  0  0  0
  132.4460  116.9040   60.2040 O   0  0  0  0  0  0  0  0  0  0  0  0
  132.8590  117.8790   59.2570 C   0  0  0  0  0  0  0  0  0  0  0  0
  132.9640  119.2610   59.9390 C   0  0  0  0  0  0  0  0  0  0  0  0
  130.1990  121.4710   61.1970 C   0  0  0  0  0  0  0  0  0  0  0  0
  129.9630  122.7880   61.5790 C   0  0  0  0  0  0  0  0  0  0  0  0
  130.6440  126.1640   61.2870 C   0  0  0  0  0  0  0  0  0  0  0  0
  130.6540  126.2570   59.8510 C   0  0  0  0  0  0  0  0  0  0  0  0
  130.7770  125.1620   59.0340 N   0  0  0  0  0  0  0  0  0  0  0  0
  1  2  1  0
  2  3  1  0
  3  4  2  0
  3  5  1  0
  5  6  1  0
  6  7  1  0
  7  8  2  0
  8  9  1  0
  9 10  1  0
 10 11  2  0
 11 12  1  0
 12 13  2  0
 13 14  1  0
 14 15  1  0
 15 16  1  0
 16 17  1  0
 17 18  1  0
 18 19  1  0
 13 20  1  0
 20 21  2  0
  9 22  2  0
 22 23  1  0
 23 24  1  0
 24 25  2  0
 25 26  1  0
 26 27  2  0
 27 28  1  0
 28 29  1  0
 29 30  1  0
 30 31  1  0
 31 32  1  0
 32 33  1  0
 27 34  1  0
 34 35  2  0
 23 36  2  0
 36 37  1  0
 37 38  1  0
 37  5  2  0
 36  7  1  0
 21 10  1  0
 35 24  1  0
 19 14  1  0
 33 28  1  0
M  END
>  <Binding energies>  (66) 
[-7.24]

>  <Ligand effiencies>  (66) 
[-0.181]

>  <Interactions>  (66) 
["V-A:GLU:543:CB:4905, V-B:TYR:539:CD2:9845, V-B:HIS:456:CE1:9040, H-A:TYR:531:OH:4794, V-A:HIS:456:CE1:4069, V-A:GLU:543:CD:4907, V-A:GLU:543:CG:4906, V-B:TYR:539:CE2:9847, V-B:GLU:543:CD:9879, V-A:ASP:366:CB:3211, V-A:TYR:531:CZ:4793, V-A:VAL:384:C:3396, V-A:ILE:369:CG2:3236, V-A:SER:385:CA:3406, H-A:ARG:545:NH2:4927, V-A:LEU:475:CD2:4258, V-A:HIS:383:CE1:3393, H-B:TYR:539:OH:9849, V-A:ASP:366:C:3207, V-A:TYR:531:CE1:4791, V-A:LEU:373:CD2:3280, V-A:LEU:373:CG:3278, V-A:LEU:373:CD1:3279, H-A:HIS:383:ND1:3390, V-A:GLU:543:C:4901, V-A:GLY:544:C:4911, V-A:GLY:544:CA:4913, V-A:GLU:543:CA:4903"]

$$$$
RR10_Rahimova_2017
     RDKit          3D

 34 38  0  0  0  0  0  0  0  0999 V2000
  133.5920  132.1580   58.4150 C   0  0  0  0  0  0  0  0  0  0  0  0
  132.3620  131.2550   58.2200 C   0  0  1  0  0  0  0  0  0  0  0  0
  132.6200  129.8140   58.7180 C   0  0  0  0  0  0  0  0  0  0  0  0
  131.3850  128.9160   58.4810 C   0  0  0  0  0  0  0  0  0  0  0  0
  130.1160  129.4730   59.1760 C   0  0  1  0  0  0  0  0  0  0  0  0
  130.2430  129.3900   60.6370 N   0  0  0  0  0  0  0  0  0  0  0  0
  130.3300  128.2510   61.3480 C   0  0  0  0  0  0  0  0  0  0  0  0
  130.3330  127.1330   60.8280 O   0  0  0  0  0  0  0  0  0  0  0  0
  130.4130  128.3960   62.8820 C   0  0  1  0  0  0  0  0  0  0  0  0
  129.0490  128.8930   63.4270 C   0  0  0  0  0  0  0  0  0  0  0  0
  129.1000  128.9500   64.9730 C   0  0  0  0  0  0  0  0  0  0  0  0
  129.5810  127.6220   65.6000 C   0  0  0  0  0  0  0  0  0  0  0  0
  130.8600  127.1810   64.9800 N   0  0  0  0  0  0  0  0  0  0  0  0
  131.6570  125.8390   65.8170 S   0  0  0  0  0  0  0  0  0  0  0  0
  130.6290  125.0670   66.5260 O   0  0  0  0  0  0  0  0  0  0  0  0
  132.8080  126.3840   66.5490 O   0  0  0  0  0  0  0  0  0  0  0  0
  132.2850  124.7820   64.5120 C   0  0  0  0  0  0  0  0  0  0  0  0
  133.4270  125.1720   63.8050 C   0  0  0  0  0  0  0  0  0  0  0  0
  133.9650  124.3960   62.7750 C   0  0  0  0  0  0  0  0  0  0  0  0
  133.3040  123.2000   62.4840 C   0  0  0  0  0  0  0  0  0  0  0  0
  133.5110  122.1950   61.5690 N   0  0  0  0  0  0  0  0  0  0  0  0
  132.5220  121.2490   61.7460 C   0  0  0  0  0  0  0  0  0  0  0  0
  132.4100  120.0010   60.9190 C   0  0  0  0  0  0  0  0  0  0  0  0
  133.3540  119.7220   59.9220 C   0  0  0  0  0  0  0  0  0  0  0  0
  133.2530  118.5630   59.1570 C   0  0  0  0  0  0  0  0  0  0  0  0
  132.2050  117.6750   59.3850 C   0  0  0  0  0  0  0  0  0  0  0  0
  131.2590  117.9370   60.3720 C   0  0  0  0  0  0  0  0  0  0  0  0
  131.3610  119.0970   61.1360 C   0  0  0  0  0  0  0  0  0  0  0  0
  131.6970  121.5750   62.7160 N   0  0  0  0  0  0  0  0  0  0  0  0
  132.1520  122.7770   63.1900 C   0  0  0  0  0  0  0  0  0  0  0  0
  131.6370  123.5760   64.2210 C   0  0  0  0  0  0  0  0  0  0  0  0
  130.7800  127.0260   63.5050 C   0  0  0  0  0  0  0  0  0  0  0  0
  129.8790  130.9260   58.6800 C   0  0  0  0  0  0  0  0  0  0  0  0
  131.1090  131.8280   58.9220 C   0  0  0  0  0  0  0  0  0  0  0  0
  2  1  1  1
  2  3  1  0
  3  4  1  0
  4  5  1  0
  5  6  1  1
  6  7  1  0
  7  8  2  0
  9  7  1  6
  9 10  1  0
 10 11  1  0
 11 12  1  0
 12 13  1  0
 13 14  1  0
 14 15  2  0
 14 16  2  0
 14 17  1  0
 17 18  2  0
 18 19  1  0
 19 20  2  0
 20 21  1  0
 21 22  1  0
 22 23  1  0
 23 24  2  0
 24 25  1  0
 25 26  2  0
 26 27  1  0
 27 28  2  0
 22 29  2  0
 29 30  1  0
 30 31  2  0
 13 32  1  0
  5 33  1  0
 33 34  1  0
 34  2  1  0
 32  9  1  0
 31 17  1  0
 30 20  1  0
 28 23  1  0
M  END
>  <Binding energies>  (67) 
[-8.97]

>  <Ligand effiencies>  (67) 
[-0.24916666666666668]

>  <Interactions>  (67) 
["V-A:PRO:540:CA:4882, V-B:TYR:539:CD2:9845, V-A:PRO:540:CB:4884, V-A:GLU:543:CD:4907, V-A:GLU:543:CG:4906, V-B:TYR:539:CE2:9847, V-B:GLU:543:CD:9879, V-B:TYR:539:CG:9843, V-A:ASP:366:CG:3212, V-A:ASP:366:CB:3211, V-A:VAL:384:C:3396, H-A:ARG:545:NE:4923, V-A:ILE:369:CG2:3236, V-A:ARG:545:CZ:4925, V-A:SER:385:CA:3406, H-A:ARG:545:NH2:4927, V-A:ILE:369:CD1:3238, V-A:LEU:475:CD2:4258, V-A:HIS:383:CE1:3393, V-B:TYR:539:CB:9842, H-A:TYR:484:OH:4347, V-A:LEU:373:CD2:3280, V-A:LEU:373:CG:3278, H-A:SER:385:O:3405, H-A:GLU:543:OE2:4909, V-A:LEU:363:CD1:3188, V-A:LEU:363:CA:3184, V-A:LEU:363:CB:3186"]

$$$$
RR12_Rahimova_2017
     RDKit          3D

 26 28  0  0  0  0  0  0  0  0999 V2000
  133.6040  124.2400   58.8860 C   0  0  0  0  0  0  0  0  0  0  0  0
  132.7280  123.6840   60.0170 C   0  0  0  0  0  0  0  0  0  0  0  0
  133.3820  122.4930   60.7400 C   0  0  0  0  0  0  0  0  0  0  0  0
  132.3810  121.4900   61.0970 N   0  0  0  0  0  0  0  0  0  0  0  0
  131.2400  121.6730   61.8620 C   0  0  0  0  0  0  0  0  0  0  0  0
  130.8590  122.9900   62.5150 C   0  0  0  0  0  0  0  0  0  0  0  0
  129.5740  122.8780   63.3560 C   0  0  0  0  0  0  0  0  0  0  0  0
  128.3750  122.3530   62.5440 C   0  0  0  0  0  0  0  0  0  0  0  0
  127.7120  123.3780   61.7390 N   0  0  0  0  0  0  0  0  0  0  0  0
  126.4070  123.6960   61.8170 C   0  0  0  0  0  0  0  0  0  0  0  0
  125.6210  123.1410   62.5870 O   0  0  0  0  0  0  0  0  0  0  0  0
  125.9400  124.8150   60.8770 C   0  0  0  0  0  0  0  0  0  0  0  0
  126.8010  124.8730   59.7390 O   0  0  0  0  0  0  0  0  0  0  0  0
  126.5320  124.0730   58.6450 C   0  0  0  0  0  0  0  0  0  0  0  0
  127.6150  123.3750   58.1060 C   0  0  0  0  0  0  0  0  0  0  0  0
  127.4420  122.5410   57.0040 C   0  0  0  0  0  0  0  0  0  0  0  0
  126.1780  122.4030   56.4380 C   0  0  0  0  0  0  0  0  0  0  0  0
  125.0870  123.0930   56.9610 C   0  0  0  0  0  0  0  0  0  0  0  0
  125.2620  123.9280   58.0630 C   0  0  0  0  0  0  0  0  0  0  0  0
  130.5190  120.5860   61.9860 N   0  0  0  0  0  0  0  0  0  0  0  0
  131.1820  119.6390   61.2570 C   0  0  0  0  0  0  0  0  0  0  0  0
  130.8430  118.2950   61.0370 C   0  0  0  0  0  0  0  0  0  0  0  0
  131.6900  117.5250   60.2400 C   0  0  0  0  0  0  0  0  0  0  0  0
  132.8430  118.0680   59.6730 C   0  0  0  0  0  0  0  0  0  0  0  0
  133.2090  119.4000   59.8740 C   0  0  0  0  0  0  0  0  0  0  0  0
  132.3590  120.1730   60.6750 C   0  0  0  0  0  0  0  0  0  0  0  0
  1  2  1  0
  2  3  1  0
  3  4  1  0
  4  5  1  0
  5  6  1  0
  6  7  1  0
  7  8  1  0
  8  9  1  0
  9 10  1  0
 10 11  2  0
 10 12  1  0
 12 13  1  0
 13 14  1  0
 14 15  2  0
 15 16  1  0
 16 17  2  0
 17 18  1  0
 18 19  2  0
  5 20  2  0
 20 21  1  0
 21 22  2  0
 22 23  1  0
 23 24  2  0
 24 25  1  0
 25 26  2  0
 26  4  1  0
 19 14  1  0
 26 21  1  0
M  END
>  <Binding energies>  (68) 
[-7.55]

>  <Ligand effiencies>  (68) 
[-0.2796296296296296]

>  <Interactions>  (68) 
["V-B:PRO:540:CD:9858, V-B:PRO:540:N:9855, V-B:TYR:531:CE2:9764, V-B:LEU:363:CD1:8159, V-B:MET:535:CE:9806, V-B:TYR:539:CD2:9845, V-B:TYR:539:C:9838, V-B:TYR:539:CD1:9844, V-B:PRO:540:CB:9856, V-B:TYR:539:CE2:9847, V-B:TYR:539:CG:9843, V-A:ASP:366:CG:3212, V-A:ASP:366:CA:3209, V-A:ASP:366:CB:3211, V-A:VAL:384:C:3396, V-A:ILE:369:CG2:3236, V-A:SER:385:CA:3406, V-B:ALA:541:CB:9863, V-A:ILE:369:CD1:3238, V-A:LEU:475:CD2:4258, V-B:ALA:541:CA:9861, V-A:HIS:383:CE1:3393, V-B:PRO:540:CA:9854, V-B:TYR:539:CB:9842, V-A:ILE:369:CB:3235, H-B:ALA:541:N:9862, V-B:PRO:540:C:9852"]

$$$$
RR13_Rahimova_2017
     RDKit          3D

 48 54  0  0  0  0  0  0  0  0999 V2000
  129.4430  122.3760   63.9270 Cl  0  0  0  0  0  0  0  0  0  0  0  0
  131.0430  122.5560   63.2900 C   0  0  0  0  0  0  0  0  0  0  0  0
  131.5460  121.5240   62.4950 C   0  0  0  0  0  0  0  0  0  0  0  0
  132.8340  121.5990   61.9710 C   0  0  0  0  0  0  0  0  0  0  0  0
  133.6300  122.7090   62.2410 C   0  0  0  0  0  0  0  0  0  0  0  0
  133.1350  123.7430   63.0330 C   0  0  0  0  0  0  0  0  0  0  0  0
  131.8340  123.6910   63.5610 C   0  0  0  0  0  0  0  0  0  0  0  0
  131.3180  124.8390   64.4570 C   0  0  1  0  0  0  0  0  0  0  0  0
  132.4190  125.3360   65.4060 C   0  0  0  0  0  0  0  0  0  0  0  0
  133.7100  125.3710   65.1610 N   0  0  0  0  0  0  0  0  0  0  0  0
  134.3040  125.8690   66.3160 N   0  0  0  0  0  0  0  0  0  0  0  0
  133.3420  126.1180   67.2750 N   0  0  0  0  0  0  0  0  0  0  0  0
  132.1900  125.7580   66.6980 N   0  0  0  0  0  0  0  0  0  0  0  0
  130.9270  125.9180   67.4090 C   0  0  0  0  0  0  0  0  0  0  0  0
  130.7550  127.3770   67.8690 C   0  0  0  0  0  0  0  0  0  0  0  0
  129.3150  127.8510   67.7490 C   0  0  0  0  0  0  0  0  0  0  0  0
  128.3830  127.5100   68.7330 C   0  0  0  0  0  0  0  0  0  0  0  0
  127.0630  127.9380   68.6180 C   0  0  0  0  0  0  0  0  0  0  0  0
  126.6800  128.7050   67.5200 C   0  0  0  0  0  0  0  0  0  0  0  0
  127.6030  129.0480   66.5350 C   0  0  0  0  0  0  0  0  0  0  0  0
  128.9240  128.6200   66.6490 C   0  0  0  0  0  0  0  0  0  0  0  0
  130.6870  125.9430   63.6960 N   0  0  0  0  0  0  0  0  0  0  0  0
  131.0530  125.8640   62.2700 C   0  0  0  0  0  0  0  0  0  0  0  0
  130.2940  126.9320   61.4470 C   0  0  0  0  0  0  0  0  0  0  0  0
  130.6360  128.2860   61.9130 N   0  0  0  0  0  0  0  0  0  0  0  0
  129.9940  129.3440   61.0990 C   0  0  1  0  0  0  0  0  0  0  0  0
  128.4500  129.3220   61.0770 C   0  0  0  0  0  0  0  0  0  0  0  0
  127.7880  129.6430   62.2700 C   0  0  0  0  0  0  0  0  0  0  0  0
  126.3960  129.6650   62.3380 C   0  0  0  0  0  0  0  0  0  0  0  0
  125.6410  129.3590   61.2090 C   0  0  0  0  0  0  0  0  0  0  0  0
  126.2780  129.0220   60.0190 C   0  0  0  0  0  0  0  0  0  0  0  0
  127.6740  128.9930   59.9410 C   0  0  0  0  0  0  0  0  0  0  0  0
  128.3710  128.4940   58.4370 Cl  0  0  0  0  0  0  0  0  0  0  0  0
  130.4950  130.7500   61.4380 C   0  0  0  0  0  0  0  0  0  0  0  0
  129.8310  131.6510   62.1240 N   0  0  0  0  0  0  0  0  0  0  0  0
  130.6640  132.7620   62.2040 N   0  0  0  0  0  0  0  0  0  0  0  0
  131.8580  132.5050   61.5610 N   0  0  0  0  0  0  0  0  0  0  0  0
  131.7390  131.2490   61.1150 N   0  0  0  0  0  0  0  0  0  0  0  0
  132.8250  130.6390   60.3550 C   0  0  0  0  0  0  0  0  0  0  0  0
  133.3100  131.5940   59.2490 C   0  0  0  0  0  0  0  0  0  0  0  0
  132.1860  132.0040   58.3110 C   0  0  0  0  0  0  0  0  0  0  0  0
  132.3030  133.1680   57.5470 C   0  0  0  0  0  0  0  0  0  0  0  0
  131.2770  133.5400   56.6830 C   0  0  0  0  0  0  0  0  0  0  0  0
  130.1350  132.7450   56.5850 C   0  0  0  0  0  0  0  0  0  0  0  0
  130.0130  131.5820   57.3440 C   0  0  0  0  0  0  0  0  0  0  0  0
  131.0390  131.2100   58.2080 C   0  0  0  0  0  0  0  0  0  0  0  0
  130.2640  128.3620   63.3370 C   0  0  0  0  0  0  0  0  0  0  0  0
  131.0330  127.2990   64.1550 C   0  0  0  0  0  0  0  0  0  0  0  0
  1  2  1  0
  2  3  2  0
  3  4  1  0
  4  5  2  0
  5  6  1  0
  6  7  2  0
  7  8  1  0
  8  9  1  0
  9 10  2  0
 10 11  1  0
 11 12  2  0
 12 13  1  0
 13 14  1  0
 14 15  1  0
 15 16  1  0
 16 17  2  0
 17 18  1  0
 18 19  2  0
 19 20  1  0
 20 21  2  0
  8 22  1  6
 22 23  1  0
 23 24  1  0
 24 25  1  0
 26 25  1  1
 26 27  1  0
 27 28  2  0
 28 29  1  0
 29 30  2  0
 30 31  1  0
 31 32  2  0
 32 33  1  0
 26 34  1  0
 34 35  2  0
 35 36  1  0
 36 37  2  0
 37 38  1  0
 38 39  1  0
 39 40  1  0
 40 41  1  0
 41 42  2  0
 42 43  1  0
 43 44  2  0
 44 45  1  0
 45 46  2  0
 25 47  1  0
 47 48  1  0
  7  2  1  0
 13  9  1  0
 21 16  1  0
 48 22  1  0
 32 27  1  0
 38 34  1  0
 46 41  1  0
M  END
>  <Binding energies>  (69) 
[-11.9]

>  <Ligand effiencies>  (69) 
[-0.24791666666666667]

>  <Interactions>  (69) 
["V-B:GLU:543:CB:9877, V-A:GLU:543:CB:4905, V-A:PRO:540:CA:4882, V-A:PRO:540:CB:4884, V-B:ASP:366:CG:8183, V-B:HIS:456:CE1:9040, V-A:HIS:456:CE1:4069, V-A:GLU:543:CD:4907, V-A:GLU:543:CG:4906, V-B:GLU:543:CD:9879, V-A:ASP:366:CG:3212, V-A:ASP:366:CB:3211, H-A:ALA:541:N:4890, V-A:TYR:484:CZ:4346, H-A:ARG:545:NE:4923, V-A:TYR:484:CE2:4345, H-A:GLY:454:N:4049, V-B:ALA:541:CB:9863, H-A:ARG:545:NH2:4927, V-A:ILE:369:CD1:3238, V-A:LEU:475:CD2:4258, H-A:TYR:484:OH:4347, V-A:TYR:539:C:4866, V-A:PRO:540:N:4883, V-A:LEU:363:CD1:3188, V-A:LEU:363:CA:3184, V-A:PRO:540:CG:4885, V-A:PRO:540:CD:4886, V-A:ILE:538:CB:4861"]

$$$$
RR14_Rahimova_2017
     RDKit          3D

 39 43  0  0  0  0  0  0  0  0999 V2000
  125.8190  122.0920   56.3940 C   0  0  0  0  0  0  0  0  0  0  0  0
  125.8270  123.4810   56.7050 O   0  0  0  0  0  0  0  0  0  0  0  0
  126.9790  124.0500   57.2160 C   0  0  0  0  0  0  0  0  0  0  0  0
  126.8690  125.3560   57.6940 C   0  0  0  0  0  0  0  0  0  0  0  0
  127.9800  126.0190   58.2040 C   0  0  0  0  0  0  0  0  0  0  0  0
  129.2210  125.3790   58.2360 C   0  0  0  0  0  0  0  0  0  0  0  0
  130.4540  126.1250   58.7330 C   0  0  0  0  0  0  0  0  0  0  0  0
  131.6930  125.3620   58.5810 N   0  0  0  0  0  0  0  0  0  0  0  0
  132.5910  125.7080   57.6520 N   0  0  0  0  0  0  0  0  0  0  0  0
  133.5980  124.7700   57.7700 N   0  0  0  0  0  0  0  0  0  0  0  0
  133.2860  123.8580   58.7740 N   0  0  0  0  0  0  0  0  0  0  0  0
  132.1210  124.2330   59.2470 C   0  0  0  0  0  0  0  0  0  0  0  0
  131.3530  123.5220   60.3520 C   0  0  0  0  0  0  0  0  0  0  0  0
  131.7720  123.9540   61.6960 N   0  0  0  0  0  0  0  0  0  0  0  0
  133.1510  123.5490   61.9980 C   0  0  0  0  0  0  0  0  0  0  0  0
  133.3370  122.0170   62.0740 C   0  0  0  0  0  0  0  0  0  0  0  0
  132.0100  121.2300   62.0390 C   0  0  0  0  0  0  0  0  0  0  0  0
  131.9820  120.1870   61.0090 N   0  0  0  0  0  0  0  0  0  0  0  0
  131.2890  118.9930   61.5100 C   0  0  0  0  0  0  0  0  0  0  0  0
  131.2860  117.8550   60.4670 C   0  0  0  0  0  0  0  0  0  0  0  0
  132.6180  117.5720   60.0490 O   0  0  0  0  0  0  0  0  0  0  0  0
  133.2500  118.7010   59.4590 C   0  0  0  0  0  0  0  0  0  0  0  0
  133.3130  119.8640   60.4730 C   0  0  0  0  0  0  0  0  0  0  0  0
  131.6230  125.4110   61.8280 C   0  0  0  0  0  0  0  0  0  0  0  0
  131.3440  125.9310   63.2360 C   0  0  0  0  0  0  0  0  0  0  0  0
  132.2940  125.8780   64.2020 C   0  0  0  0  0  0  0  0  0  0  0  0
  132.0380  126.3380   65.5820 C   0  0  0  0  0  0  0  0  0  0  0  0
  133.0040  126.3160   66.6020 C   0  0  0  0  0  0  0  0  0  0  0  0
  134.4170  125.8060   66.3530 C   0  0  0  0  0  0  0  0  0  0  0  0
  132.6590  126.7780   67.8750 C   0  0  0  0  0  0  0  0  0  0  0  0
  131.3750  127.2540   68.1360 C   0  0  0  0  0  0  0  0  0  0  0  0
  130.4070  127.2820   67.1280 C   0  0  0  0  0  0  0  0  0  0  0  0
  129.0140  127.8110   67.4430 C   0  0  0  0  0  0  0  0  0  0  0  0
  130.7430  126.8220   65.8450 C   0  0  0  0  0  0  0  0  0  0  0  0
  129.7990  126.8280   64.7970 N   0  0  0  0  0  0  0  0  0  0  0  0
  129.9890  126.4160   63.5180 C   0  0  0  0  0  0  0  0  0  0  0  0
  129.0670  126.4630   62.7040 O   0  0  0  0  0  0  0  0  0  0  0  0
  129.3360  124.0620   57.7870 C   0  0  0  0  0  0  0  0  0  0  0  0
  128.2230  123.4000   57.2760 C   0  0  0  0  0  0  0  0  0  0  0  0
  1  2  1  0
  2  3  1  0
  3  4  2  0
  4  5  1  0
  5  6  2  0
  6  7  1  0
  7  8  1  0
  8  9  1  0
  9 10  2  0
 10 11  1  0
 11 12  2  0
 12 13  1  0
 13 14  1  0
 14 15  1  0
 15 16  1  0
 16 17  1  0
 17 18  1  0
 18 19  1  0
 19 20  1  0
 20 21  1  0
 21 22  1  0
 22 23  1  0
 14 24  1  0
 24 25  1  0
 25 26  2  0
 26 27  1  0
 27 28  2  0
 28 29  1  0
 28 30  1  0
 30 31  2  0
 31 32  1  0
 32 33  1  0
 32 34  2  0
 34 35  1  0
 35 36  1  0
 36 37  2  0
  6 38  1  0
 38 39  2  0
 39  3  1  0
 12  8  1  0
 23 18  1  0
 36 25  1  0
 34 27  1  0
M  END
>  <Binding energies>  (70) 
[-10.11]

>  <Ligand effiencies>  (70) 
[-0.25275]

>  <Interactions>  (70) 
["V-B:PRO:540:CD:9858, V-B:PRO:540:N:9855, V-B:MET:535:CE:9806, V-B:TYR:539:CD2:9845, V-B:TYR:539:CZ:9848, V-A:HIS:456:CE1:4069, V-B:TYR:539:C:9838, V-B:TYR:539:CE1:9846, V-A:GLU:543:CD:4907, V-B:PRO:540:CB:9856, V-B:TYR:539:CE2:9847, V-B:GLU:543:CD:9879, V-A:ASP:366:CG:3212, V-A:ASP:366:CB:3211, H-B:TYR:531:OH:9766, V-A:VAL:384:C:3396, V-A:ILE:369:CG2:3236, V-A:ARG:545:CZ:4925, V-A:SER:385:CA:3406, V-A:ARG:545:CD:4922, V-A:ARG:545:CG:4921, V-A:ILE:369:CD1:3238, V-A:LEU:475:CD2:4258, V-A:HIS:383:CE1:3393, H-B:TYR:539:OH:9849, V-B:TYR:539:CB:9842, V-A:LEU:373:CD2:3280, V-A:GLY:453:C:4041, V-A:GLY:453:CA:4043, V-A:GLY:454:CA:4048, H-B:GLU:543:OE2:9881, H-A:HIS:383:ND1:3390, H-B:GLU:543:OE1:9880, V-B:ILE:538:CA:9831, V-B:ILE:538:C:9829, V-B:ILE:538:CG2:9834"]

$$$$
RR15_Rahimova_2017
     RDKit          3D

 45 49  0  0  0  0  0  0  0  0999 V2000
  126.1530  127.2960   69.1030 C   0  0  0  0  0  0  0  0  0  0  0  0
  127.4920  127.6980   69.3720 O   0  0  0  0  0  0  0  0  0  0  0  0
  128.5000  127.3390   68.4950 C   0  0  0  0  0  0  0  0  0  0  0  0
  128.8360  128.0800   67.3510 C   0  0  0  0  0  0  0  0  0  0  0  0
  129.8620  127.6620   66.5070 C   0  0  0  0  0  0  0  0  0  0  0  0
  130.5800  126.4920   66.7790 C   0  0  0  0  0  0  0  0  0  0  0  0
  131.6830  126.0370   65.8640 C   0  0  0  0  0  0  0  0  0  0  0  0
  132.9130  125.7800   66.2900 N   0  0  0  0  0  0  0  0  0  0  0  0
  133.6320  125.4030   65.1750 N   0  0  0  0  0  0  0  0  0  0  0  0
  132.7300  125.4360   64.1930 N   0  0  0  0  0  0  0  0  0  0  0  0
  133.1050  125.2590   62.7910 C   0  0  0  0  0  0  0  0  0  0  0  0
  133.4490  123.8030   62.3900 C   0  0  0  0  0  0  0  0  0  0  0  0
  134.4000  123.2530   62.9510 O   0  0  0  0  0  0  0  0  0  0  0  0
  132.6820  123.1580   61.4580 N   0  0  0  0  0  0  0  0  0  0  0  0
  133.2810  122.2220   60.4850 C   0  0  0  0  0  0  0  0  0  0  0  0
  133.7910  120.9120   61.1220 C   0  0  0  0  0  0  0  0  0  0  0  0
  132.7060  120.0720   61.8370 C   0  0  0  0  0  0  0  0  0  0  0  0
  132.4130  118.7980   61.1740 N   0  0  0  0  0  0  0  0  0  0  0  0
  130.9900  118.4300   61.2090 C   0  0  0  0  0  0  0  0  0  0  0  0
  130.7230  117.1280   60.4240 C   0  0  0  0  0  0  0  0  0  0  0  0
  131.2170  117.2460   59.0940 O   0  0  0  0  0  0  0  0  0  0  0  0
  132.6170  117.4990   59.0550 C   0  0  0  0  0  0  0  0  0  0  0  0
  132.9350  118.8140   59.8000 C   0  0  0  0  0  0  0  0  0  0  0  0
  131.1870  123.1850   61.4620 C   0  0  2  0  0  0  0  0  0  0  0  0
  130.5700  124.3840   60.6780 C   0  0  0  0  0  0  0  0  0  0  0  0
  130.6060  125.5270   61.1330 O   0  0  0  0  0  0  0  0  0  0  0  0
  130.0450  124.0850   59.4760 N   0  0  0  0  0  0  0  0  0  0  0  0
  129.5070  125.0510   58.5260 C   0  0  0  0  0  0  0  0  0  0  0  0
  128.6870  124.3530   57.4250 C   0  0  2  0  0  0  0  0  0  0  0  0
  127.1790  124.6590   57.4310 C   0  0  0  0  0  0  0  0  0  0  0  0
  126.5500  123.4480   58.0770 C   0  0  0  0  0  0  0  0  0  0  0  0
  127.4750  122.3410   57.6020 C   0  0  0  0  0  0  0  0  0  0  0  0
  128.7590  122.9480   57.7050 O   0  0  0  0  0  0  0  0  0  0  0  0
  130.6480  122.9090   62.8620 C   0  0  0  0  0  0  0  0  0  0  0  0
  129.3240  123.2690   63.1410 C   0  0  0  0  0  0  0  0  0  0  0  0
  128.7790  123.0420   64.4010 C   0  0  0  0  0  0  0  0  0  0  0  0
  129.5550  122.4510   65.3940 C   0  0  0  0  0  0  0  0  0  0  0  0
  129.0250  122.2290   66.6180 F   0  0  0  0  0  0  0  0  0  0  0  0
  130.8730  122.0850   65.1340 C   0  0  0  0  0  0  0  0  0  0  0  0
  131.4180  122.3140   63.8740 C   0  0  0  0  0  0  0  0  0  0  0  0
  131.5180  125.8620   64.5660 N   0  0  0  0  0  0  0  0  0  0  0  0
  130.2440  125.7560   67.9230 C   0  0  0  0  0  0  0  0  0  0  0  0
  129.2140  126.1670   68.7850 C   0  0  0  0  0  0  0  0  0  0  0  0
  128.8480  125.4760   69.9270 O   0  0  0  0  0  0  0  0  0  0  0  0
  128.9480  126.1120   71.1970 C   0  0  0  0  0  0  0  0  0  0  0  0
  1  2  1  0
  2  3  1  0
  3  4  2  0
  4  5  1  0
  5  6  2  0
  6  7  1  0
  7  8  1  0
  8  9  2  0
  9 10  1  0
 10 11  1  0
 11 12  1  0
 12 13  2  0
 12 14  1  0
 14 15  1  0
 15 16  1  0
 16 17  1  0
 17 18  1  0
 18 19  1  0
 19 20  1  0
 20 21  1  0
 21 22  1  0
 22 23  1  0
 24 14  1  1
 24 25  1  0
 25 26  2  0
 25 27  1  0
 27 28  1  0
 29 28  1  1
 29 30  1  0
 30 31  1  0
 31 32  1  0
 32 33  1  0
 24 34  1  0
 34 35  2  0
 35 36  1  0
 36 37  2  0
 37 38  1  0
 37 39  1  0
 39 40  2  0
 10 41  1  0
  6 42  1  0
 42 43  2  0
 43 44  1  0
 44 45  1  0
 43  3  1  0
 41  7  2  0
 23 18  1  0
 33 29  1  0
 40 34  1  0
M  END
>  <Binding energies>  (71) 
[-9.35]

>  <Ligand effiencies>  (71) 
[-0.20326086956521738]

>  <Interactions>  (71) 
["V-B:PRO:540:CD:9858, V-B:GLU:543:CB:9877, V-B:PRO:540:N:9855, V-B:MET:535:CE:9806, V-B:TYR:539:CD2:9845, V-B:TYR:539:CZ:9848, V-B:HIS:456:CE1:9040, V-A:HIS:456:CE1:4069, V-B:TYR:539:C:9838, V-A:GLU:543:CD:4907, V-B:PRO:540:CB:9856, V-B:TYR:539:CE2:9847, V-B:GLU:543:CD:9879, V-B:TYR:539:CG:9843, V-A:ASP:366:CG:3212, V-B:GLU:543:CG:9878, V-B:ARG:545:CG:9893, V-A:TYR:484:CZ:4346, V-A:LEU:475:CG:4256, V-A:ILE:369:CG2:3236, V-A:ARG:545:CZ:4925, V-A:SER:385:CA:3406, V-A:SER:385:CB:3408, V-A:TYR:484:CE2:4345, H-A:GLY:454:N:4049, V-B:ALA:541:CB:9863, V-A:ILE:369:CD1:3238, V-A:LEU:475:CD2:4258, V-A:LEU:475:CD1:4257, V-A:HIS:383:CE1:3393, V-B:PRO:540:CA:9854, V-B:TYR:539:CB:9842, H-A:TYR:484:OH:4347, V-A:LEU:373:CD2:3280, V-A:LEU:373:CG:3278, V-B:VAL:344:CG1:7971, V-B:TYR:539:CA:9840, V-A:SER:385:C:3404, V-A:LEU:373:CD1:3279, V-B:GLU:543:CA:9875, H-A:HIS:383:ND1:3390, V-B:VAL:542:C:9865, V-A:TYR:484:CD2:4343"]

$$$$
RR17_Rahimova_2017
     RDKit          3D

 38 41  0  0  0  0  0  0  0  0999 V2000
  130.6150  117.1070   59.9730 C   0  0  0  0  0  0  0  0  0  0  0  0
  130.7790  117.3520   61.4760 C   0  0  0  0  0  0  0  0  0  0  0  0
  130.2000  118.6130   61.7990 O   0  0  0  0  0  0  0  0  0  0  0  0
  130.8860  119.7740   61.4910 C   0  0  0  0  0  0  0  0  0  0  0  0
  130.1550  120.9600   61.5360 C   0  0  0  0  0  0  0  0  0  0  0  0
  130.7600  122.1770   61.2400 C   0  0  0  0  0  0  0  0  0  0  0  0
  132.1170  122.2330   60.8890 C   0  0  0  0  0  0  0  0  0  0  0  0
  132.7420  123.5610   60.5760 C   0  0  0  0  0  0  0  0  0  0  0  0
  132.8890  123.9670   59.4190 O   0  0  0  0  0  0  0  0  0  0  0  0
  133.2200  124.4110   61.7740 C   0  0  0  0  0  0  0  0  0  0  0  0
  133.3500  123.4270   63.3100 S   0  0  0  0  0  0  0  0  0  0  0  0
  132.8860  124.6540   64.4990 C   0  0  0  0  0  0  0  0  0  0  0  0
  133.7180  125.3710   65.2160 N   0  0  0  0  0  0  0  0  0  0  0  0
  132.9670  126.2200   66.0190 N   0  0  0  0  0  0  0  0  0  0  0  0
  131.7060  125.9870   65.7530 C   0  0  0  0  0  0  0  0  0  0  0  0
  130.5380  126.7110   66.4050 C   0  0  0  0  0  0  0  0  0  0  0  0
  130.0390  127.8440   65.6290 N   0  0  0  0  0  0  0  0  0  0  0  0
  128.7060  128.2910   65.6680 C   0  0  0  0  0  0  0  0  0  0  0  0
  128.1930  128.6720   66.9080 C   0  0  0  0  0  0  0  0  0  0  0  0
  126.8790  129.1190   67.0200 C   0  0  0  0  0  0  0  0  0  0  0  0
  126.0620  129.1940   65.8880 C   0  0  0  0  0  0  0  0  0  0  0  0
  124.6210  129.6810   66.0280 C   0  0  0  0  0  0  0  0  0  0  0  0
  124.5300  131.0120   65.9860 F   0  0  0  0  0  0  0  0  0  0  0  0
  123.8650  129.1860   65.0470 F   0  0  0  0  0  0  0  0  0  0  0  0
  124.1310  129.2650   67.1960 F   0  0  0  0  0  0  0  0  0  0  0  0
  126.5770  128.8200   64.6420 C   0  0  0  0  0  0  0  0  0  0  0  0
  127.8910  128.3740   64.5320 C   0  0  0  0  0  0  0  0  0  0  0  0
  131.5830  124.9930   64.8040 N   0  0  0  0  0  0  0  0  0  0  0  0
  130.4030  124.4720   64.2520 C   0  0  0  0  0  0  0  0  0  0  0  0
  129.7620  125.1620   63.2230 C   0  0  0  0  0  0  0  0  0  0  0  0
  128.5890  124.6460   62.6790 C   0  0  0  0  0  0  0  0  0  0  0  0
  128.0540  123.4410   63.1620 C   0  0  0  0  0  0  0  0  0  0  0  0
  126.8980  122.8560   62.6830 O   0  0  0  0  0  0  0  0  0  0  0  0
  125.6750  123.5820   62.7440 C   0  0  0  0  0  0  0  0  0  0  0  0
  128.7080  122.7660   64.1950 C   0  0  0  0  0  0  0  0  0  0  0  0
  129.8820  123.2750   64.7430 C   0  0  0  0  0  0  0  0  0  0  0  0
  132.8510  121.0390   60.8450 C   0  0  0  0  0  0  0  0  0  0  0  0
  132.2440  119.8220   61.1430 C   0  0  0  0  0  0  0  0  0  0  0  0
  1  2  1  0
  2  3  1  0
  3  4  1  0
  4  5  2  0
  5  6  1  0
  6  7  2  0
  7  8  1  0
  8  9  2  0
  8 10  1  0
 10 11  1  0
 11 12  1  0
 12 13  2  0
 13 14  1  0
 14 15  2  0
 15 16  1  0
 16 17  1  0
 17 18  1  0
 18 19  2  0
 19 20  1  0
 20 21  2  0
 21 22  1  0
 22 23  1  0
 22 24  1  0
 22 25  1  0
 21 26  1  0
 26 27  2  0
 15 28  1  0
 28 29  1  0
 29 30  2  0
 30 31  1  0
 31 32  2  0
 32 33  1  0
 33 34  1  0
 32 35  1  0
 35 36  2  0
  7 37  1  0
 37 38  2  0
 38  4  1  0
 28 12  1  0
 36 29  1  0
 27 18  1  0
M  END
>  <Binding energies>  (72) 
[-8.57]

>  <Ligand effiencies>  (72) 
[-0.21974358974358976]

>  <Interactions>  (72) 
["V-B:TYR:539:CD2:9845, V-B:GLY:454:CA:9019, V-A:GLU:543:CD:4907, V-A:GLU:543:CG:4906, V-B:TYR:539:CE2:9847, V-B:GLU:543:CD:9879, V-A:ASP:366:CG:3212, V-B:GLU:543:CG:9878, V-B:GLY:453:CA:9014, V-B:ARG:545:CZ:9897, V-B:ARG:545:CG:9893, V-B:ARG:545:CD:9894, H-A:ARG:545:NE:4923, V-A:ILE:369:CG2:3236, H-A:GLY:454:N:4049, V-B:ALA:541:CB:9863, H-A:ARG:545:NH2:4927, V-A:ILE:369:CD1:3238, V-A:LEU:475:CD2:4258, V-B:ALA:541:CA:9861, V-A:HIS:383:CE1:3393, H-B:TYR:539:OH:9849, V-A:PRO:482:CG:4326, V-B:TYR:539:CB:9842, H-A:TYR:484:OH:4347, H-B:ALA:541:N:9862, V-A:PRO:482:CB:4325, V-A:GLY:454:CA:4048, V-B:VAL:344:CG1:7971, H-A:GLU:543:OE1:4908, H-A:GLU:543:OE2:4909, V-B:TYR:484:CZ:9317, V-B:GLY:454:C:9017"]

$$$$
RR19_Rahimova_2017
     RDKit          3D

 46 51  0  0  0  0  0  0  0  0999 V2000
  130.8850  128.3770   68.7500 O   0  0  0  0  0  0  0  0  0  0  0  0
  129.9680  127.7390   68.2250 C   0  0  0  0  0  0  0  0  0  0  0  0
  130.0920  126.8720   67.1880 N   0  0  0  0  0  0  0  0  0  0  0  0
  131.1760  126.2880   66.5810 C   0  0  0  0  0  0  0  0  0  0  0  0
  132.7670  126.3210   67.1610 S   0  0  0  0  0  0  0  0  0  0  0  0
  130.7560  125.6740   65.4280 N   0  0  0  0  0  0  0  0  0  0  0  0
  131.3710  124.8500   64.5420 C   0  0  0  0  0  0  0  0  0  0  0  0
  132.4660  124.3030   64.6910 O   0  0  0  0  0  0  0  0  0  0  0  0
  130.5780  124.6340   63.2290 C   0  0  2  0  0  0  0  0  0  0  0  0
  129.0420  124.8480   63.3510 C   0  0  0  0  0  0  0  0  0  0  0  0
  128.2230  124.3590   62.1670 C   0  0  0  0  0  0  0  0  0  0  0  0
  126.9040  123.8890   62.3430 C   0  0  0  0  0  0  0  0  0  0  0  0
  126.1440  123.5210   61.2410 C   0  0  0  0  0  0  0  0  0  0  0  0
  126.6710  123.6290   59.9590 C   0  0  0  0  0  0  0  0  0  0  0  0
  127.9570  124.1180   59.7690 C   0  0  0  0  0  0  0  0  0  0  0  0
  128.7320  124.4940   60.8570 C   0  0  0  0  0  0  0  0  0  0  0  0
  130.9000  123.3170   62.6130 N   0  0  0  0  0  0  0  0  0  0  0  0
  132.0000  123.1530   61.8250 C   0  0  0  0  0  0  0  0  0  0  0  0
  132.8210  124.0130   61.5000 O   0  0  0  0  0  0  0  0  0  0  0  0
  132.0040  121.7190   61.4440 C   0  0  0  0  0  0  0  0  0  0  0  0
  132.8860  120.9870   60.6470 C   0  0  0  0  0  0  0  0  0  0  0  0
  132.6440  119.6210   60.4620 C   0  0  0  0  0  0  0  0  0  0  0  0
  131.5390  119.0110   61.0700 C   0  0  0  0  0  0  0  0  0  0  0  0
  130.6670  119.7620   61.8660 C   0  0  0  0  0  0  0  0  0  0  0  0
  130.9240  121.1230   62.0360 C   0  0  0  0  0  0  0  0  0  0  0  0
  130.2010  122.1600   62.8140 C   0  0  0  0  0  0  0  0  0  0  0  0
  129.1910  122.0030   63.5010 O   0  0  0  0  0  0  0  0  0  0  0  0
  128.5170  127.9130   68.7480 C   0  0  2  0  0  0  0  0  0  0  0  0
  127.9980  126.7060   69.5810 C   0  0  0  0  0  0  0  0  0  0  0  0
  128.2060  126.8550   71.0770 C   0  0  0  0  0  0  0  0  0  0  0  0
  129.2270  127.6960   71.5700 C   0  0  0  0  0  0  0  0  0  0  0  0
  129.3500  127.9110   72.9370 C   0  0  0  0  0  0  0  0  0  0  0  0
  128.4560  127.3220   73.8220 C   0  0  0  0  0  0  0  0  0  0  0  0
  127.4230  126.5230   73.3490 C   0  0  0  0  0  0  0  0  0  0  0  0
  127.2820  126.2950   71.9860 C   0  0  0  0  0  0  0  0  0  0  0  0
  127.5480  128.2990   67.6830 N   0  0  0  0  0  0  0  0  0  0  0  0
  126.2200  128.4560   67.9460 C   0  0  0  0  0  0  0  0  0  0  0  0
  125.6480  128.2950   69.0250 O   0  0  0  0  0  0  0  0  0  0  0  0
  125.6090  128.8600   66.6550 C   0  0  0  0  0  0  0  0  0  0  0  0
  124.2850  129.1500   66.3210 C   0  0  0  0  0  0  0  0  0  0  0  0
  123.9910  129.5140   65.0020 C   0  0  0  0  0  0  0  0  0  0  0  0
  125.0130  129.5870   64.0450 C   0  0  0  0  0  0  0  0  0  0  0  0
  126.3340  129.2950   64.4010 C   0  0  0  0  0  0  0  0  0  0  0  0
  126.6060  128.9310   65.7210 C   0  0  0  0  0  0  0  0  0  0  0  0
  127.8810  128.5740   66.3870 C   0  0  0  0  0  0  0  0  0  0  0  0
  129.0030  128.5330   65.8800 O   0  0  0  0  0  0  0  0  0  0  0  0
  1  2  2  0
  2  3  1  0
  3  4  1  0
  4  5  2  0
  4  6  1  0
  6  7  1  0
  7  8  2  0
  7  9  1  0
  9 10  1  1
 10 11  1  0
 11 12  2  0
 12 13  1  0
 13 14  2  0
 14 15  1  0
 15 16  2  0
  9 17  1  0
 17 18  1  0
 18 19  2  0
 18 20  1  0
 20 21  2  0
 21 22  1  0
 22 23  2  0
 23 24  1  0
 24 25  2  0
 25 26  1  0
 26 27  2  0
  2 28  1  0
 28 29  1  6
 29 30  1  0
 30 31  2  0
 31 32  1  0
 32 33  2  0
 33 34  1  0
 34 35  2  0
 28 36  1  0
 36 37  1  0
 37 38  2  0
 37 39  1  0
 39 40  2  0
 40 41  1  0
 41 42  2  0
 42 43  1  0
 43 44  2  0
 44 45  1  0
 45 46  2  0
 16 11  1  0
 26 17  1  0
 35 30  1  0
 45 36  1  0
 25 20  1  0
 44 39  1  0
M  END
>  <Binding energies>  (73) 
[-11.8]

>  <Ligand effiencies>  (73) 
[-0.24583333333333335]

>  <Interactions>  (73) 
["V-B:GLU:543:CB:9877, H-B:TYR:484:OH:9318, V-A:GLU:543:CB:4905, V-B:TYR:539:CD2:9845, V-B:HIS:456:CE1:9040, V-A:HIS:456:CE1:4069, V-B:PRO:540:CB:9856, V-B:TYR:539:CE2:9847, V-B:GLU:543:CD:9879, V-B:LYS:547:CE:9921, V-B:GLU:543:C:9873, V-B:GLY:544:CA:9885, V-B:GLY:544:C:9883, V-B:ARG:545:CZ:9897, V-B:ARG:545:CG:9893, V-B:ARG:545:CD:9894, V-A:ILE:369:CG2:3236, V-A:ARG:545:CD:4922, V-B:ALA:541:CB:9863, V-A:ARG:545:CG:4921, V-A:LEU:475:CD2:4258, V-B:PRO:540:CA:9854, H-A:TYR:484:OH:4347, H-B:ALA:541:N:9862, H-B:GLU:543:OE2:9881, V-B:PRO:540:C:9852, H-B:HIS:456:ND1:9037"]

$$$$
RR1_Rahimova_2017
     RDKit          3D

 41 44  0  0  0  0  0  0  0  0999 V2000
  132.8500  126.2960   56.6220 C   0  0  0  0  0  0  0  0  0  0  0  0
  133.1850  125.2650   57.5450 O   0  0  0  0  0  0  0  0  0  0  0  0
  132.3270  124.9920   58.5920 C   0  0  0  0  0  0  0  0  0  0  0  0
  132.7240  124.4240   59.8130 C   0  0  0  0  0  0  0  0  0  0  0  0
  131.7840  124.1780   60.8100 C   0  0  0  0  0  0  0  0  0  0  0  0
  130.4410  124.4970   60.6090 C   0  0  0  0  0  0  0  0  0  0  0  0
  129.5610  124.1670   61.6580 N   0  0  0  0  0  0  0  0  0  0  0  0
  128.6360  123.1860   61.7220 C   0  0  0  0  0  0  0  0  0  0  0  0
  128.3540  122.4260   60.7950 O   0  0  0  0  0  0  0  0  0  0  0  0
  127.9180  123.0700   63.0760 C   0  0  0  0  0  0  0  0  0  0  0  0
  129.0050  122.7870   64.5180 S   0  0  0  0  0  0  0  0  0  0  0  0
  130.4040  122.1680   63.6460 C   0  0  0  0  0  0  0  0  0  0  0  0
  130.3520  121.2070   62.7580 N   0  0  0  0  0  0  0  0  0  0  0  0
  131.6120  121.0770   62.3550 C   0  0  0  0  0  0  0  0  0  0  0  0
  132.0240  120.0800   61.3100 C   0  0  0  0  0  0  0  0  0  0  0  0
  131.2760  118.9160   61.0710 C   0  0  0  0  0  0  0  0  0  0  0  0
  131.6850  118.0050   60.0950 C   0  0  0  0  0  0  0  0  0  0  0  0
  132.8440  118.2820   59.3720 C   0  0  0  0  0  0  0  0  0  0  0  0
  133.5910  119.3970   59.5770 N   0  0  0  0  0  0  0  0  0  0  0  0
  133.1750  120.2700   60.5300 C   0  0  0  0  0  0  0  0  0  0  0  0
  132.4780  121.8890   62.9340 N   0  0  0  0  0  0  0  0  0  0  0  0
  131.7030  122.5910   63.7670 N   0  0  0  0  0  0  0  0  0  0  0  0
  132.2750  123.6450   64.6040 C   0  0  0  0  0  0  0  0  0  0  0  0
  132.5430  124.9760   63.8810 C   0  0  0  0  0  0  0  0  0  0  0  0
  133.6880  125.2920   63.5390 O   0  0  0  0  0  0  0  0  0  0  0  0
  131.4510  125.7360   63.6690 N   0  0  0  0  0  0  0  0  0  0  0  0
  131.5910  126.8800   62.8940 N   0  0  0  0  0  0  0  0  0  0  0  0
  130.4850  127.3780   62.3000 C   0  0  0  0  0  0  0  0  0  0  0  0
  129.3440  126.9430   62.4860 O   0  0  0  0  0  0  0  0  0  0  0  0
  130.7120  128.5610   61.3800 C   0  0  0  0  0  0  0  0  0  0  0  0
  130.5940  128.4010   59.9950 C   0  0  0  0  0  0  0  0  0  0  0  0
  130.8090  129.4700   59.1320 C   0  0  0  0  0  0  0  0  0  0  0  0
  131.1570  130.7360   59.6290 C   0  0  0  0  0  0  0  0  0  0  0  0
  131.3980  131.8360   58.8250 O   0  0  0  0  0  0  0  0  0  0  0  0
  132.7040  132.0490   58.3020 C   0  0  0  0  0  0  0  0  0  0  0  0
  131.2870  130.9150   61.0130 C   0  0  0  0  0  0  0  0  0  0  0  0
  131.6520  132.1770   61.4510 O   0  0  0  0  0  0  0  0  0  0  0  0
  132.8830  132.3530   62.1440 C   0  0  0  0  0  0  0  0  0  0  0  0
  131.0600  129.8280   61.8760 C   0  0  0  0  0  0  0  0  0  0  0  0
  130.0400  125.0660   59.3900 C   0  0  0  0  0  0  0  0  0  0  0  0
  130.9830  125.3120   58.3960 C   0  0  0  0  0  0  0  0  0  0  0  0
  1  2  1  0
  2  3  1  0
  3  4  2  0
  4  5  1  0
  5  6  2  0
  6  7  1  0
  7  8  1  0
  8  9  2  0
  8 10  1  0
 10 11  1  0
 11 12  1  0
 12 13  2  0
 13 14  1  0
 14 15  1  0
 15 16  2  0
 16 17  1  0
 17 18  2  0
 18 19  1  0
 19 20  2  0
 14 21  2  0
 21 22  1  0
 22 23  1  0
 23 24  1  0
 24 25  2  0
 24 26  1  0
 26 27  1  0
 27 28  1  0
 28 29  2  0
 28 30  1  0
 30 31  2  0
 31 32  1  0
 32 33  2  0
 33 34  1  0
 34 35  1  0
 33 36  1  0
 36 37  1  0
 37 38  1  0
 36 39  2  0
  6 40  1  0
 40 41  2  0
 41  3  1  0
 22 12  1  0
 39 30  1  0
 20 15  1  0
M  END
>  <Binding energies>  (74) 
[-7.76]

>  <Ligand effiencies>  (74) 
[-0.17636363636363636]

>  <Interactions>  (74) 
["V-A:PRO:540:CA:4882, V-B:TYR:539:CD2:9845, V-A:PRO:540:CB:4884, V-B:TYR:539:CZ:9848, V-A:PRO:540:C:4880, V-A:GLU:543:CD:4907, V-B:TYR:539:CE2:9847, V-A:ASN:362:CB:3175, V-B:GLU:543:CD:9879, V-A:ASP:366:CG:3212, V-A:ASP:366:CA:3209, V-A:ASP:366:CB:3211, V-A:TYR:531:CZ:4793, H-A:ALA:541:N:4890, V-A:ILE:369:CG2:3236, V-A:ARG:545:CZ:4925, V-A:SER:385:CA:3406, H-A:ARG:545:NH1:4926, H-A:GLY:454:N:4049, V-B:ALA:541:CB:9863, H-A:ARG:545:NH2:4927, V-A:LEU:475:CD2:4258, V-B:ALA:541:CA:9861, H-B:TYR:539:OH:9849, V-B:TYR:539:CB:9842, V-A:ASP:366:C:3207, V-A:ASN:370:CB:3244, V-A:TYR:531:CE1:4791, H-B:ALA:541:N:9862, V-A:LEU:373:CD2:3280, H-A:ASP:366:OD1:3213, H-A:ASP:366:OD2:3214, V-A:GLY:454:CA:4048, V-A:LEU:373:CG:3278, H-B:GLU:543:OE2:9881, V-A:LEU:363:CD1:3188"]

$$$$
RR22_Rahimova_2017
     RDKit          3D

 31 36  0  0  0  0  0  0  0  0999 V2000
  126.0440  123.1590   62.2970 O   0  0  0  0  0  0  0  0  0  0  0  0
  127.1640  123.5770   62.0150 C   0  0  0  0  0  0  0  0  0  0  0  0
  128.2440  123.7390   62.8660 N   0  0  0  0  0  0  0  0  0  0  0  0
  129.5080  124.1830   62.3620 C   0  0  1  0  0  0  0  0  0  0  0  0
  129.8320  125.3430   63.1340 O   0  0  0  0  0  0  0  0  0  0  0  0
  131.0080  125.3320   63.8840 C   0  0  0  0  0  0  0  0  0  0  0  0
  131.1130  126.2930   64.8900 C   0  0  0  0  0  0  0  0  0  0  0  0
  132.2770  126.3710   65.6560 C   0  0  0  0  0  0  0  0  0  0  0  0
  133.3350  125.4960   65.4090 C   0  0  0  0  0  0  0  0  0  0  0  0
  133.2300  124.5350   64.4020 C   0  0  0  0  0  0  0  0  0  0  0  0
  132.0610  124.4290   63.6430 C   0  0  0  0  0  0  0  0  0  0  0  0
  131.8650  123.4540   62.5040 C   0  0  1  0  0  0  0  0  0  0  0  0
  132.5130  122.0840   62.4840 C   0  0  0  0  0  0  0  0  0  0  0  0
  131.4670  121.3110   61.6760 C   0  0  0  0  0  0  0  0  0  0  0  0
  131.7580  120.0210   61.0210 C   0  0  0  0  0  0  0  0  0  0  0  0
  132.9500  119.8370   60.3050 C   0  0  0  0  0  0  0  0  0  0  0  0
  133.2210  118.6170   59.6910 C   0  0  0  0  0  0  0  0  0  0  0  0
  132.3020  117.5750   59.7880 C   0  0  0  0  0  0  0  0  0  0  0  0
  131.1140  117.7420   60.4950 C   0  0  0  0  0  0  0  0  0  0  0  0
  130.8430  118.9600   61.1110 C   0  0  0  0  0  0  0  0  0  0  0  0
  130.3410  121.9200   61.6770 N   0  0  0  0  0  0  0  0  0  0  0  0
  130.4830  123.0850   62.4490 N   0  0  0  0  0  0  0  0  0  0  0  0
  129.2680  124.6490   60.9340 C   0  0  0  0  0  0  0  0  0  0  0  0
  130.1370  125.4390   60.2610 C   0  0  0  0  0  0  0  0  0  0  0  0
  130.0390  125.9440   58.8780 C   0  0  0  0  0  0  0  0  0  0  0  0
  128.8270  126.0370   58.1790 C   0  0  0  0  0  0  0  0  0  0  0  0
  128.8110  126.5240   56.8710 C   0  0  0  0  0  0  0  0  0  0  0  0
  130.0200  126.9040   56.2880 C   0  0  0  0  0  0  0  0  0  0  0  0
  131.2080  126.8170   56.9360 N   0  0  0  0  0  0  0  0  0  0  0  0
  131.2030  126.3410   58.2080 C   0  0  0  0  0  0  0  0  0  0  0  0
  127.6880  124.1010   60.3540 S   0  0  0  0  0  0  0  0  0  0  0  0
  1  2  2  0
  2  3  1  0
  4  3  1  1
  4  5  1  0
  5  6  1  0
  6  7  2  0
  7  8  1  0
  8  9  2  0
  9 10  1  0
 10 11  2  0
 11 12  1  0
 12 13  1  1
 13 14  1  0
 14 15  1  0
 15 16  2  0
 16 17  1  0
 17 18  2  0
 18 19  1  0
 19 20  2  0
 14 21  2  0
 21 22  1  0
  4 23  1  0
 23 24  2  0
 24 25  1  0
 25 26  2  0
 26 27  1  0
 27 28  2  0
 28 29  1  0
 29 30  2  0
 23 31  1  0
 31  2  1  0
 22  4  1  0
 30 25  1  0
 11  6  1  0
 22 12  1  0
 20 15  1  0
M  END
>  <Binding energies>  (75) 
[-9.16]

>  <Ligand effiencies>  (75) 
[-0.28625]

>  <Interactions>  (75) 
["V-B:MET:535:CE:9806, V-B:TYR:539:CD2:9845, H-A:TYR:531:OH:4794, V-A:GLU:543:CD:4907, V-B:TYR:539:CE2:9847, V-B:GLU:543:CD:9879, V-A:VAL:384:C:3396, V-A:ILE:369:CG2:3236, V-A:ARG:545:CZ:4925, V-A:SER:385:CA:3406, V-A:LEU:475:CD2:4258, V-A:HIS:383:CE1:3393, V-B:TYR:539:CB:9842, H-B:ALA:541:N:9862, V-A:LEU:373:CD2:3280, V-A:GLY:454:CA:4048, H-B:GLU:543:OE2:9881, H-B:GLU:543:OE1:9880, V-A:MET:535:CE:4834, H-B:ALA:541:O:9860"]

$$$$
RR24_Rahimova_2017
     RDKit          3D

 43 49  0  0  0  0  0  0  0  0999 V2000
  123.6450  124.4890   58.4660 C   0  0  0  0  0  0  0  0  0  0  0  0
  124.8620  123.8800   59.1770 C   0  0  2  0  0  0  0  0  0  0  0  0
  124.7230  123.8620   60.7280 C   0  0  0  0  0  0  0  0  0  0  0  0
  123.8270  123.2320   61.2980 O   0  0  0  0  0  0  0  0  0  0  0  0
  125.6680  124.6290   61.3460 O   0  0  0  0  0  0  0  0  0  0  0  0
  126.8090  124.0360   61.8380 C   0  0  0  0  0  0  0  0  0  0  0  0
  128.0120  124.1890   61.1460 C   0  0  0  0  0  0  0  0  0  0  0  0
  129.1740  123.6020   61.6390 C   0  0  0  0  0  0  0  0  0  0  0  0
  129.1400  122.8670   62.8270 C   0  0  0  0  0  0  0  0  0  0  0  0
  130.4200  122.2060   63.3550 C   0  0  1  0  0  0  0  0  0  0  0  0
  130.9970  121.1820   62.3500 C   0  0  0  0  0  0  0  0  0  0  0  0
  132.2840  121.1950   61.9560 C   0  0  0  0  0  0  0  0  0  0  0  0
  133.1820  122.1240   62.4180 N   0  0  0  0  0  0  0  0  0  0  0  0
  132.8060  123.0970   63.3140 C   0  0  0  0  0  0  0  0  0  0  0  0
  133.8140  123.9320   63.6780 N   0  0  0  0  0  0  0  0  0  0  0  0
  133.6130  125.0020   64.4940 C   0  0  0  0  0  0  0  0  0  0  0  0
  134.4630  125.8940   64.5370 O   0  0  0  0  0  0  0  0  0  0  0  0
  132.3570  125.0400   65.0780 N   0  0  0  0  0  0  0  0  0  0  0  0
  132.1170  126.1320   66.0440 C   0  0  0  0  0  0  0  0  0  0  0  0
  131.2630  124.2450   64.7810 C   0  0  0  0  0  0  0  0  0  0  0  0
  130.1520  124.3700   65.3070 O   0  0  0  0  0  0  0  0  0  0  0  0
  131.5370  123.2020   63.7870 C   0  0  0  0  0  0  0  0  0  0  0  0
  132.5460  120.1220   61.0100 C   0  0  0  0  0  0  0  0  0  0  0  0
  133.6900  119.7200   60.3210 C   0  0  0  0  0  0  0  0  0  0  0  0
  133.6170  118.6210   59.4610 C   0  0  0  0  0  0  0  0  0  0  0  0
  132.4110  117.9340   59.2980 C   0  0  0  0  0  0  0  0  0  0  0  0
  131.2680  118.3410   59.9910 C   0  0  0  0  0  0  0  0  0  0  0  0
  131.3460  119.4410   60.8470 C   0  0  0  0  0  0  0  0  0  0  0  0
  130.3120  120.0750   61.6920 C   0  0  0  0  0  0  0  0  0  0  0  0
  129.1280  119.7780   61.8420 O   0  0  0  0  0  0  0  0  0  0  0  0
  127.9370  122.7310   63.5280 C   0  0  0  0  0  0  0  0  0  0  0  0
  126.7750  123.3200   63.0370 C   0  0  0  0  0  0  0  0  0  0  0  0
  126.1430  124.5030   58.7290 N   0  0  0  0  0  0  0  0  0  0  0  0
  127.1640  123.7530   58.2290 C   0  0  0  0  0  0  0  0  0  0  0  0
  127.1930  122.5290   58.0880 O   0  0  0  0  0  0  0  0  0  0  0  0
  128.2370  124.7210   57.8910 C   0  0  0  0  0  0  0  0  0  0  0  0
  129.5090  124.5230   57.3510 C   0  0  0  0  0  0  0  0  0  0  0  0
  130.3230  125.6400   57.1310 C   0  0  0  0  0  0  0  0  0  0  0  0
  129.8620  126.9240   57.4490 C   0  0  0  0  0  0  0  0  0  0  0  0
  128.5840  127.1010   57.9900 C   0  0  0  0  0  0  0  0  0  0  0  0
  127.7870  125.9750   58.2030 C   0  0  0  0  0  0  0  0  0  0  0  0
  126.4130  125.8440   58.7480 C   0  0  0  0  0  0  0  0  0  0  0  0
  125.6740  126.7510   59.1320 O   0  0  0  0  0  0  0  0  0  0  0  0
  2  1  1  6
  2  3  1  0
  3  4  2  0
  3  5  1  0
  5  6  1  0
  6  7  2  0
  7  8  1  0
  8  9  2  0
 10  9  1  6
 10 11  1  0
 11 12  2  0
 12 13  1  0
 13 14  1  0
 14 15  1  0
 15 16  1  0
 16 17  2  0
 16 18  1  0
 18 19  1  0
 18 20  1  0
 20 21  2  0
 20 22  1  0
 12 23  1  0
 23 24  2  0
 24 25  1  0
 25 26  2  0
 26 27  1  0
 27 28  2  0
 28 29  1  0
 29 30  2  0
  9 31  1  0
 31 32  2  0
  2 33  1  0
 33 34  1  0
 34 35  2  0
 34 36  1  0
 36 37  2  0
 37 38  1  0
 38 39  2  0
 39 40  1  0
 40 41  2  0
 41 42  1  0
 42 43  2  0
 32  6  1  0
 42 33  1  0
 22 10  1  0
 28 23  1  0
 41 36  1  0
 29 11  1  0
 22 14  2  0
M  END
>  <Binding energies>  (76) 
[-9.94]

>  <Ligand effiencies>  (76) 
[-0.22088888888888888]

>  <Interactions>  (76) 
["V-B:LEU:363:CD1:8159, V-B:MET:535:CE:9806, V-B:TYR:539:CD2:9845, V-B:ASP:366:CG:8183, V-B:TYR:539:CZ:9848, V-B:PRO:540:CB:9856, V-B:TYR:539:CE2:9847, V-B:ASP:366:CB:8182, V-B:GLU:543:CD:9879, V-B:TYR:539:CG:9843, V-B:GLU:543:CG:9878, H-B:ARG:545:NH2:9899, V-A:VAL:384:C:3396, H-A:ARG:545:NE:4923, V-A:ILE:369:CG2:3236, V-A:ARG:545:CZ:4925, V-A:SER:385:CA:3406, V-B:ALA:541:C:9859, H-A:ARG:545:NH1:4926, V-A:SER:385:CB:3408, H-A:GLY:454:N:4049, V-B:ALA:541:CB:9863, H-A:ARG:545:NH2:4927, V-A:LEU:475:CD2:4258, V-B:ALA:541:CA:9861, V-B:PRO:540:CA:9854, V-B:TYR:539:CB:9842, H-A:TYR:484:OH:4347, H-B:ALA:541:N:9862, V-B:LEU:363:CA:8155, V-A:LEU:373:CD2:3280, V-A:GLY:453:C:4041, V-A:GLY:454:CA:4048, H-A:SER:385:O:3405"]

$$$$
RR25_Rahimova_2017
     RDKit          3D

 39 44  0  0  0  0  0  0  0  0999 V2000
  126.5960  123.4730   62.1830 O   0  0  0  0  0  0  0  0  0  0  0  0
  127.5840  124.0870   62.5880 C   0  0  0  0  0  0  0  0  0  0  0  0
  128.4290  123.3960   63.4210 O   0  0  0  0  0  0  0  0  0  0  0  0
  129.6840  123.8800   63.7400 C   0  0  0  0  0  0  0  0  0  0  0  0
  130.6480  122.9380   64.0950 C   0  0  0  0  0  0  0  0  0  0  0  0
  131.9330  123.3570   64.4360 C   0  0  0  0  0  0  0  0  0  0  0  0
  132.2700  124.7180   64.4310 C   0  0  0  0  0  0  0  0  0  0  0  0
  133.6410  125.1610   64.7860 N   0  0  0  0  0  0  0  0  0  0  0  0
  134.4410  125.3820   63.8800 O   0  0  0  0  0  0  0  0  0  0  0  0
  133.9270  125.2900   65.9730 O   0  0  0  0  0  0  0  0  0  0  0  0
  131.2810  125.6520   64.0820 C   0  0  0  0  0  0  0  0  0  0  0  0
  129.9860  125.2500   63.7450 C   0  0  0  0  0  0  0  0  0  0  0  0
  128.8860  126.2190   63.3510 C   0  0  0  0  0  0  0  0  0  0  0  0
  127.9710  125.5630   62.2780 C   0  0  2  0  0  0  0  0  0  0  0  0
  126.7730  126.4900   61.9210 C   0  0  0  0  0  0  0  0  0  0  0  0
  125.6750  125.9370   61.8050 O   0  0  0  0  0  0  0  0  0  0  0  0
  126.8970  127.8510   61.8650 N   0  0  0  0  0  0  0  0  0  0  0  0
  128.1980  128.5290   61.6870 C   0  0  0  0  0  0  0  0  0  0  0  0
  128.2050  129.8280   62.5200 C   0  0  0  0  0  0  0  0  0  0  0  0
  127.0650  130.6860   62.1840 N   0  0  0  0  0  0  0  0  0  0  0  0
  127.1420  131.9790   62.8780 C   0  0  0  0  0  0  0  0  0  0  0  0
  127.6270  133.1290   61.9560 C   0  0  0  0  0  0  0  0  0  0  0  0
  128.8800  132.8700   61.1870 N   0  0  0  0  0  0  0  0  0  0  0  0
  130.0030  132.6390   61.9530 C   0  0  0  0  0  0  0  0  0  0  0  0
  130.0000  132.6780   63.1890 O   0  0  0  0  0  0  0  0  0  0  0  0
  131.2530  132.3120   61.1580 C   0  0  0  0  0  0  0  0  0  0  0  0
  132.4470  132.0350   61.8370 C   0  0  0  0  0  0  0  0  0  0  0  0
  133.6120  131.7230   61.1380 C   0  0  0  0  0  0  0  0  0  0  0  0
  133.6210  131.6750   59.7450 C   0  0  0  0  0  0  0  0  0  0  0  0
  132.4380  131.9480   59.0170 C   0  0  0  0  0  0  0  0  0  0  0  0
  132.3770  131.9150   57.6030 C   0  0  0  0  0  0  0  0  0  0  0  0
  131.1780  132.1910   56.9490 C   0  0  0  0  0  0  0  0  0  0  0  0
  130.0260  132.5040   57.6670 C   0  0  0  0  0  0  0  0  0  0  0  0
  130.0390  132.5480   59.0670 C   0  0  0  0  0  0  0  0  0  0  0  0
  131.2550  132.2670   59.7400 C   0  0  0  0  0  0  0  0  0  0  0  0
  128.7620  132.8840   59.8130 C   0  0  0  0  0  0  0  0  0  0  0  0
  127.7040  133.1310   59.2230 O   0  0  0  0  0  0  0  0  0  0  0  0
  125.8130  129.9870   62.4790 C   0  0  0  0  0  0  0  0  0  0  0  0
  125.6840  128.6770   61.6660 C   0  0  0  0  0  0  0  0  0  0  0  0
  1  2  2  0
  2  3  1  0
  3  4  1  0
  4  5  2  0
  5  6  1  0
  6  7  2  0
  7  8  1  0
  8  9  2  0
  8 10  1  0
  7 11  1  0
 11 12  2  0
 12 13  1  0
 13 14  1  0
 14 15  1  1
 15 16  2  0
 15 17  1  0
 17 18  1  0
 18 19  1  0
 19 20  1  0
 20 21  1  0
 21 22  1  0
 22 23  1  0
 23 24  1  0
 24 25  2  0
 24 26  1  0
 26 27  2  0
 27 28  1  0
 28 29  2  0
 29 30  1  0
 30 31  2  0
 31 32  1  0
 32 33  2  0
 33 34  1  0
 34 35  2  0
 34 36  1  0
 36 37  2  0
 20 38  1  0
 38 39  1  0
 14  2  1  0
 39 17  1  0
 12  4  1  0
 36 23  1  0
 35 26  1  0
 35 30  1  0
M  CHG  2   8   1  10  -1
M  END
>  <Binding energies>  (77) 
[-9.82]

>  <Ligand effiencies>  (77) 
[-0.2517948717948718]

>  <Interactions>  (77) 
["V-A:TYR:539:CD1:4872, V-A:PRO:540:CA:4882, V-A:ASN:362:C:3171, V-A:PRO:540:CB:4884, V-B:ASP:366:CG:8183, V-A:PRO:540:C:4880, V-A:ASN:362:CB:3175, V-A:ASN:362:CA:3173, V-B:GLU:543:CD:9879, V-A:TYR:531:CZ:4793, V-A:ALA:541:CB:4891, H-A:ALA:541:N:4890, H-B:ARG:545:NH2:9899, V-A:ARG:545:CZ:4925, H-A:ARG:545:NH1:4926, H-A:GLY:454:N:4049, H-A:ARG:545:NH2:4927, H-A:TYR:484:OH:4347, H-B:ALA:541:N:9862, V-A:GLY:453:C:4041, V-A:GLY:453:CA:4043, V-A:GLY:454:CA:4048, V-A:TYR:539:C:4866, V-A:TYR:531:CE2:4792, V-A:PRO:540:N:4883, V-A:LEU:363:CD1:3188, V-A:LEU:363:CA:3184"]

$$$$
RR27_Rahimova_2017
     RDKit          3D

 39 44  0  0  0  0  0  0  0  0999 V2000
  130.2850  122.1880   59.9990 O   0  0  0  0  0  0  0  0  0  0  0  0
  129.3880  122.9090   60.4460 C   0  0  0  0  0  0  0  0  0  0  0  0
  128.8210  124.0350   59.5330 C   0  0  0  0  0  0  0  0  0  0  0  0
  127.6480  123.5650   58.6520 C   0  0  0  0  0  0  0  0  0  0  0  0
  127.8500  122.7820   57.5050 C   0  0  0  0  0  0  0  0  0  0  0  0
  126.7670  122.3730   56.7330 C   0  0  0  0  0  0  0  0  0  0  0  0
  125.4780  122.7450   57.1020 C   0  0  0  0  0  0  0  0  0  0  0  0
  125.2610  123.5230   58.2360 C   0  0  0  0  0  0  0  0  0  0  0  0
  126.3450  123.9330   59.0080 C   0  0  0  0  0  0  0  0  0  0  0  0
  129.9410  124.7790   58.7800 C   0  0  0  0  0  0  0  0  0  0  0  0
  129.6940  125.4660   57.5840 C   0  0  0  0  0  0  0  0  0  0  0  0
  130.7320  126.1190   56.9230 C   0  0  0  0  0  0  0  0  0  0  0  0
  132.0200  126.0810   57.4510 C   0  0  0  0  0  0  0  0  0  0  0  0
  132.2810  125.3920   58.6330 C   0  0  0  0  0  0  0  0  0  0  0  0
  131.2440  124.7400   59.2920 C   0  0  0  0  0  0  0  0  0  0  0  0
  128.7910  122.6480   61.6440 N   0  0  0  0  0  0  0  0  0  0  0  0
  127.9110  123.6010   62.3360 C   0  0  0  0  0  0  0  0  0  0  0  0
  128.8190  124.5030   63.2000 C   0  0  0  0  0  0  0  0  0  0  0  0
  129.7290  123.6880   64.1730 C   0  0  0  0  0  0  0  0  0  0  0  0
  130.7340  124.5340   64.9770 C   0  0  0  0  0  0  0  0  0  0  0  0
  132.0170  124.5580   64.5110 N   0  0  0  0  0  0  0  0  0  0  0  0
  132.9390  125.3130   65.1700 C   0  0  0  0  0  0  0  0  0  0  0  0
  134.2530  125.4210   64.7970 O   0  0  0  0  0  0  0  0  0  0  0  0
  132.5320  126.0350   66.3090 C   0  0  0  0  0  0  0  0  0  0  0  0
  133.1770  126.8680   67.1750 N   0  0  0  0  0  0  0  0  0  0  0  0
  132.2510  127.2810   68.1150 N   0  0  0  0  0  0  0  0  0  0  0  0
  131.0580  126.7190   67.8270 N   0  0  0  0  0  0  0  0  0  0  0  0
  129.8980  126.9660   68.6790 C   0  0  0  0  0  0  0  0  0  0  0  0
  128.8330  127.8360   68.0260 C   0  0  0  0  0  0  0  0  0  0  0  0
  129.1290  128.5600   66.8660 C   0  0  0  0  0  0  0  0  0  0  0  0
  128.1490  129.3490   66.2610 C   0  0  0  0  0  0  0  0  0  0  0  0
  126.8680  129.4140   66.8090 C   0  0  0  0  0  0  0  0  0  0  0  0
  126.5640  128.6870   67.9610 C   0  0  0  0  0  0  0  0  0  0  0  0
  124.9710  128.7450   68.6260 Cl  0  0  0  0  0  0  0  0  0  0  0  0
  127.5450  127.9040   68.5700 C   0  0  0  0  0  0  0  0  0  0  0  0
  131.1810  125.9210   66.7010 C   0  0  0  0  0  0  0  0  0  0  0  0
  130.2590  125.1830   66.0780 N   0  0  0  0  0  0  0  0  0  0  0  0
  130.3800  122.4590   63.4680 C   0  0  0  0  0  0  0  0  0  0  0  0
  129.3890  121.6740   62.5710 C   0  0  0  0  0  0  0  0  0  0  0  0
  1  2  2  0
  2  3  1  0
  3  4  1  0
  4  5  2  0
  5  6  1  0
  6  7  2  0
  7  8  1  0
  8  9  2  0
  3 10  1  0
 10 11  2  0
 11 12  1  0
 12 13  2  0
 13 14  1  0
 14 15  2  0
  2 16  1  0
 16 17  1  0
 17 18  1  0
 18 19  1  0
 19 20  1  0
 20 21  2  0
 21 22  1  0
 22 23  1  0
 22 24  2  0
 24 25  1  0
 25 26  2  0
 26 27  1  0
 27 28  1  0
 28 29  1  0
 29 30  2  0
 30 31  1  0
 31 32  2  0
 32 33  1  0
 33 34  1  0
 33 35  2  0
 27 36  1  0
 36 37  2  0
 19 38  1  0
 38 39  1  0
  9  4  1  0
 15 10  1  0
 39 16  1  0
 37 20  1  0
 36 24  1  0
 35 29  1  0
M  END
>  <Binding energies>  (78) 
[-10.58]

>  <Ligand effiencies>  (78) 
[-0.2645]

>  <Interactions>  (78) 
["V-B:PRO:540:CD:9858, V-B:GLU:543:CB:9877, V-B:PRO:540:N:9855, V-A:GLU:543:CB:4905, V-B:LEU:363:CD1:8159, V-B:MET:535:CE:9806, V-B:TYR:539:CD2:9845, V-B:TYR:539:CZ:9848, V-B:HIS:456:CE1:9040, V-A:HIS:456:CE1:4069, V-B:TYR:539:C:9838, V-A:GLU:543:CD:4907, V-A:GLU:543:CG:4906, V-B:PRO:540:CB:9856, V-B:TYR:539:CE2:9847, V-B:GLU:543:CD:9879, V-B:TYR:539:CG:9843, V-A:ASP:366:CG:3212, V-A:ASP:366:CB:3211, V-B:ARG:545:CG:9893, V-A:TYR:484:CZ:4346, H-A:ARG:545:NE:4923, V-A:ARG:545:CZ:4925, H-A:ARG:545:NH1:4926, H-A:GLY:454:N:4049, V-B:ALA:541:CB:9863, H-A:ARG:545:NH2:4927, V-A:LEU:475:CD2:4258, V-B:ALA:541:CA:9861, V-B:PRO:540:CA:9854, H-A:TYR:484:OH:4347, V-B:ARG:545:CB:9892"]

$$$$
RR28_Rahimova_2017
     RDKit          3D

 46 49  0  0  0  0  0  0  0  0999 V2000
  124.1870  132.9070   61.8750 C   0  0  0  0  0  0  0  0  0  0  0  0
  125.1520  131.9260   62.5310 C   0  0  0  0  0  0  0  0  0  0  0  0
  125.8750  132.3070   63.4490 O   0  0  0  0  0  0  0  0  0  0  0  0
  125.1470  130.6680   62.0440 N   0  0  0  0  0  0  0  0  0  0  0  0
  125.9730  129.5170   62.4740 C   0  0  0  0  0  0  0  0  0  0  0  0
  125.7740  129.3200   64.0040 C   0  0  0  0  0  0  0  0  0  0  0  0
  126.8710  128.9520   64.7990 C   0  0  0  0  0  0  0  0  0  0  0  0
  126.7290  128.7630   66.1700 C   0  0  0  0  0  0  0  0  0  0  0  0
  125.4850  128.9370   66.7800 C   0  0  0  0  0  0  0  0  0  0  0  0
  125.3480  128.7210   68.2860 C   0  0  0  0  0  0  0  0  0  0  0  0
  126.3470  129.2800   68.9720 F   0  0  0  0  0  0  0  0  0  0  0  0
  124.2040  129.2440   68.7260 F   0  0  0  0  0  0  0  0  0  0  0  0
  125.3480  127.4120   68.5430 F   0  0  0  0  0  0  0  0  0  0  0  0
  124.3850  129.3020   65.9990 C   0  0  0  0  0  0  0  0  0  0  0  0
  124.5280  129.4900   64.6270 C   0  0  0  0  0  0  0  0  0  0  0  0
  127.4710  129.7260   62.0530 C   0  0  0  0  0  0  0  0  0  0  0  0
  127.6820  129.7320   60.5180 C   0  0  0  0  0  0  0  0  0  0  0  0
  127.1900  128.4350   60.0250 N   0  0  0  0  0  0  0  0  0  0  0  0
  128.0460  127.3890   59.8700 C   0  0  0  0  0  0  0  0  0  0  0  0
  129.2680  127.5230   59.9690 O   0  0  0  0  0  0  0  0  0  0  0  0
  127.4850  126.0270   59.3950 C   0  0  0  0  0  0  0  0  0  0  0  0
  126.3090  125.4490   60.2310 C   0  0  0  0  0  0  0  0  0  0  0  0
  126.7240  124.7250   61.5330 C   0  0  0  0  0  0  0  0  0  0  0  0
  126.4330  125.2570   62.6090 O   0  0  0  0  0  0  0  0  0  0  0  0
  127.2660  123.4760   61.4700 N   0  0  0  0  0  0  0  0  0  0  0  0
  127.9110  122.9370   60.2670 C   0  0  0  0  0  0  0  0  0  0  0  0
  129.3790  123.4180   60.3010 C   0  0  0  0  0  0  0  0  0  0  0  0
  130.1700  123.0190   61.5950 C   0  0  0  0  0  0  0  0  0  0  0  0
  131.3870  123.8520   61.6950 N   0  0  0  0  0  0  0  0  0  0  0  0
  132.3370  123.8250   62.6510 C   0  0  0  0  0  0  0  0  0  0  0  0
  133.4790  124.8250   62.4980 C   0  0  0  0  0  0  0  0  0  0  0  0
  132.3260  123.0580   63.6130 O   0  0  0  0  0  0  0  0  0  0  0  0
  130.6280  121.5340   61.4250 C   0  0  0  0  0  0  0  0  0  0  0  0
  129.8500  120.4440   61.8500 C   0  0  0  0  0  0  0  0  0  0  0  0
  130.2950  119.1350   61.6790 C   0  0  0  0  0  0  0  0  0  0  0  0
  131.5310  118.8830   61.0800 C   0  0  0  0  0  0  0  0  0  0  0  0
  132.0300  117.4520   60.8810 C   0  0  0  0  0  0  0  0  0  0  0  0
  132.1830  117.1840   59.5830 F   0  0  0  0  0  0  0  0  0  0  0  0
  133.2090  117.3130   61.4860 F   0  0  0  0  0  0  0  0  0  0  0  0
  131.1890  116.5500   61.3910 F   0  0  0  0  0  0  0  0  0  0  0  0
  132.3190  119.9550   60.6590 C   0  0  0  0  0  0  0  0  0  0  0  0
  131.8720  121.2620   60.8320 C   0  0  0  0  0  0  0  0  0  0  0  0
  129.2450  123.2430   62.8530 C   0  0  0  0  0  0  0  0  0  0  0  0
  127.7590  122.8240   62.6900 C   0  0  0  0  0  0  0  0  0  0  0  0
  125.7420  128.2550   60.2040 C   0  0  0  0  0  0  0  0  0  0  0  0
  125.4730  128.2340   61.7310 C   0  0  0  0  0  0  0  0  0  0  0  0
  1  2  1  0
  2  3  2  0
  2  4  1  0
  4  5  1  0
  5  6  1  0
  6  7  2  0
  7  8  1  0
  8  9  2  0
  9 10  1  0
 10 11  1  0
 10 12  1  0
 10 13  1  0
  9 14  1  0
 14 15  2  0
  5 16  1  0
 16 17  1  0
 17 18  1  0
 18 19  1  0
 19 20  2  0
 19 21  1  0
 21 22  1  0
 22 23  1  0
 23 24  2  0
 23 25  1  0
 25 26  1  0
 26 27  1  0
 27 28  1  0
 28 29  1  0
 29 30  1  0
 30 31  1  0
 30 32  2  0
 28 33  1  0
 33 34  2  0
 34 35  1  0
 35 36  2  0
 36 37  1  0
 37 38  1  0
 37 39  1  0
 37 40  1  0
 36 41  1  0
 41 42  2  0
 28 43  1  0
 43 44  1  0
 18 45  1  0
 45 46  1  0
 46  5  1  0
 15  6  1  0
 44 25  1  0
 42 33  1  0
M  END
>  <Binding energies>  (79) 
[-6.83]

>  <Ligand effiencies>  (79) 
[-0.14229166666666668]

>  <Interactions>  (79) 
["V-B:GLU:543:CB:9877, V-B:PRO:540:N:9855, V-B:TYR:539:CD2:9845, V-B:ASP:366:CG:8183, V-B:HIS:456:CE1:9040, V-B:TYR:539:CE2:9847, V-B:GLU:543:CD:9879, V-A:ASP:366:CG:3212, V-B:ARG:545:CZ:9897, H-B:ARG:545:NH2:9899, V-B:ARG:545:CG:9893, V-B:ARG:545:CD:9894, V-A:VAL:384:C:3396, V-A:SER:385:CA:3406, V-A:SER:385:CB:3408, V-B:ALA:541:CB:9863, V-A:LEU:475:CD2:4258, V-B:ALA:541:CA:9861, V-A:HIS:383:CE1:3393, V-A:PRO:482:CG:4326, V-B:PRO:540:CA:9854, V-B:TYR:539:CB:9842, V-A:PRO:482:CB:4325, H-A:ASP:366:OD2:3214, V-A:HIS:383:CG:3389, V-A:THR:477:CG2:4272, V-B:TYR:484:CZ:9317, V-B:ARG:545:CB:9892, V-B:ARG:545:CA:9890, H-B:ASP:366:OD2:8185, V-B:TYR:484:CE2:9316, V-B:ILE:455:C:9022"]

$$$$
RR29_Rahimova_2017
     RDKit          3D

 18 19  0  0  0  0  0  0  0  0999 V2000
  128.0340  126.5340   71.4640 C   0  0  0  0  0  0  0  0  0  0  0  0
  128.3700  126.7150   69.9910 C   0  0  0  0  0  0  0  0  0  0  0  0
  127.6110  127.8920   69.3390 C   0  0  0  0  0  0  0  0  0  0  0  0
  126.1020  127.5960   69.2090 C   0  0  0  0  0  0  0  0  0  0  0  0
  125.4550  128.3820   68.0790 C   0  0  0  0  0  0  0  0  0  0  0  0
  124.2690  129.1060   68.3150 C   0  0  0  0  0  0  0  0  0  0  0  0
  123.6570  129.8380   67.2880 C   0  0  0  0  0  0  0  0  0  0  0  0
  124.2570  129.8120   66.0340 C   0  0  0  0  0  0  0  0  0  0  0  0
  125.4060  129.1110   65.7990 C   0  0  0  0  0  0  0  0  0  0  0  0
  126.0410  128.3840   66.8010 C   0  0  0  0  0  0  0  0  0  0  0  0
  125.7850  129.2880   64.5060 O   0  0  0  0  0  0  0  0  0  0  0  0
  124.7160  129.9520   63.8860 C   0  0  0  0  0  0  0  0  0  0  0  0
  123.8800  130.4520   64.8960 O   0  0  0  0  0  0  0  0  0  0  0  0
  129.2050  125.9080   69.4480 N   0  0  0  0  0  0  0  0  0  0  0  0
  129.4460  126.0160   68.0960 N   0  0  0  0  0  0  0  0  0  0  0  0
  130.2540  126.9380   67.5480 C   0  0  0  0  0  0  0  0  0  0  0  0
  130.9410  127.8540   68.2330 N   0  0  0  0  0  0  0  0  0  0  0  0
  130.3810  126.9410   66.2290 N   0  0  0  0  0  0  0  0  0  0  0  0
  1  2  1  0
  2  3  1  0
  3  4  1  0
  4  5  1  0
  5  6  2  0
  6  7  1  0
  7  8  2  0
  8  9  1  0
  9 10  2  0
  9 11  1  0
 11 12  1  0
 12 13  1  0
  2 14  2  0
 14 15  1  0
 15 16  1  0
 16 17  1  0
 16 18  2  0
 10  5  1  0
 13  8  1  0
M  CHG  1  18   1
M  END
>  <Binding energies>  (80) 
[-7.95]

>  <Ligand effiencies>  (80) 
[-0.3456521739130435]

>  <Interactions>  (80) 
["V-B:GLU:543:CB:9877, V-A:GLU:543:CB:4905, H-B:GLY:454:N:9020, V-B:GLY:454:CA:9019, V-B:HIS:456:CE1:9040, V-A:HIS:456:CE1:4069, V-A:GLU:543:CD:4907, V-B:GLU:543:CD:9879, V-B:GLU:543:CG:9878, V-B:ARG:545:CZ:9897, H-B:ARG:545:NH2:9899, V-B:ARG:545:CG:9893, V-B:ARG:545:CD:9894, V-A:TYR:484:CE2:4345, H-A:GLU:543:OE1:4908, H-A:GLU:543:OE2:4909, H-B:GLU:543:OE2:9881, H-A:HIS:456:NE2:4070, V-B:ARG:545:CB:9892, V-B:GLY:454:C:9017"]

$$$$
RR30_Rahimova_2017
     RDKit          3D

 18 19  0  0  0  0  0  0  0  0999 V2000
  124.0360  129.4710   67.1780 C   0  0  0  0  0  0  0  0  0  0  0  0
  125.0360  128.7460   68.0900 C   0  0  0  0  0  0  0  0  0  0  0  0
  126.4700  128.9920   67.6770 C   0  0  0  0  0  0  0  0  0  0  0  0
  126.9150  129.7480   66.7040 N   0  0  0  0  0  0  0  0  0  0  0  0
  128.3020  129.6290   66.7310 N   0  0  0  0  0  0  0  0  0  0  0  0
  128.5760  128.8040   67.7100 C   0  0  0  0  0  0  0  0  0  0  0  0
  130.1660  128.2660   68.2510 S   0  0  0  0  0  0  0  0  0  0  0  0
  129.8950  126.4660   68.2760 C   0  0  0  0  0  0  0  0  0  0  0  0
  130.6310  125.7540   67.1380 C   0  0  0  0  0  0  0  0  0  0  0  0
  130.2270  124.6550   66.7540 O   0  0  0  0  0  0  0  0  0  0  0  0
  131.7200  126.3900   66.6500 N   0  0  0  0  0  0  0  0  0  0  0  0
  132.5450  125.9440   65.6280 C   0  0  0  0  0  0  0  0  0  0  0  0
  133.8570  125.8810   65.6100 N   0  0  0  0  0  0  0  0  0  0  0  0
  134.3460  125.3800   64.4100 N   0  0  0  0  0  0  0  0  0  0  0  0
  133.4010  125.0760   63.5500 C   0  0  0  0  0  0  0  0  0  0  0  0
  133.6830  124.5170   62.1740 C   0  0  0  0  0  0  0  0  0  0  0  0
  131.8000  125.3860   64.1620 S   0  0  0  0  0  0  0  0  0  0  0  0
  127.4640  128.3650   68.3550 O   0  0  0  0  0  0  0  0  0  0  0  0
  1  2  1  0
  2  3  1  0
  3  4  2  0
  4  5  1  0
  5  6  2  0
  6  7  1  0
  7  8  1  0
  8  9  1  0
  9 10  2  0
  9 11  1  0
 11 12  1  0
 12 13  2  0
 13 14  1  0
 14 15  2  0
 15 16  1  0
 15 17  1  0
  6 18  1  0
 18  3  1  0
 17 12  1  0
M  END
>  <Binding energies>  (81) 
[-6.33]

>  <Ligand effiencies>  (81) 
[-0.3331578947368421]

>  <Interactions>  (81) 
["H-B:TYR:484:OH:9318, V-A:GLU:543:CB:4905, V-B:HIS:456:CE1:9040, V-A:HIS:456:CE1:4069, V-A:GLU:543:CG:4906, V-A:ASP:366:CG:3212, V-B:ARG:545:CG:9893, V-B:ARG:545:CD:9894, V-A:TYR:484:CZ:4346, H-A:ARG:545:NE:4923, V-A:ARG:545:CZ:4925, H-A:ARG:545:NH1:4926, V-A:TYR:484:CE2:4345, H-A:GLY:454:N:4049, H-A:ARG:545:NH2:4927, V-A:ILE:369:CD1:3238, H-A:TYR:484:OH:4347, H-A:GLU:543:OE1:4908"]

$$$$
RR31_Rahimova_2017
     RDKit          3D

 18 19  0  0  0  0  0  0  0  0999 V2000
  132.4200  117.5000   59.2190 C   0  0  0  0  0  0  0  0  0  0  0  0
  132.4840  118.7390   60.1030 C   0  0  0  0  0  0  0  0  0  0  0  0
  133.5790  119.5970   59.9940 C   0  0  0  0  0  0  0  0  0  0  0  0
  133.6650  120.7400   60.7860 C   0  0  0  0  0  0  0  0  0  0  0  0
  132.6540  121.0650   61.7050 C   0  0  0  0  0  0  0  0  0  0  0  0
  132.7310  122.2010   62.5130 N   0  0  0  0  0  0  0  0  0  0  0  0
  132.2930  122.1900   63.9220 C   0  0  0  0  0  0  0  0  0  0  0  0
  132.0650  123.5970   64.5230 C   0  0  0  0  0  0  0  0  0  0  0  0
  133.2670  124.4250   64.3890 N   0  0  0  0  0  0  0  0  0  0  0  0
  133.0930  125.7540   64.9820 C   0  0  0  0  0  0  0  0  0  0  0  0
  131.6550  126.0110   65.4750 C   0  0  0  0  0  0  0  0  0  0  0  0
  130.8410  126.8580   64.4830 C   0  0  0  0  0  0  0  0  0  0  0  0
  129.4930  127.2410   65.1030 N   0  0  0  0  0  0  0  0  0  0  0  0
  133.5520  124.5560   62.9610 C   0  0  0  0  0  0  0  0  0  0  0  0
  133.8280  123.1730   62.3270 C   0  0  0  0  0  0  0  0  0  0  0  0
  131.5640  120.1880   61.8110 C   0  0  0  0  0  0  0  0  0  0  0  0
  131.4660  119.0360   61.0220 C   0  0  0  0  0  0  0  0  0  0  0  0
  130.2570  118.1240   61.1870 C   0  0  0  0  0  0  0  0  0  0  0  0
  1  2  1  0
  2  3  2  0
  3  4  1  0
  4  5  2  0
  5  6  1  0
  6  7  1  0
  7  8  1  0
  8  9  1  0
  9 10  1  0
 10 11  1  0
 11 12  1  0
 12 13  1  0
  9 14  1  0
 14 15  1  0
  5 16  1  0
 16 17  2  0
 17 18  1  0
 17  2  1  0
 15  6  1  0
M  CHG  1  13   1
M  END
>  <Binding energies>  (82) 
[-7.89]

>  <Ligand effiencies>  (82) 
[-0.3757142857142857]

>  <Interactions>  (82) 
["V-B:TYR:539:CD2:9845, V-B:TYR:539:C:9838, V-A:GLU:543:CD:4907, V-B:TYR:539:CE2:9847, V-B:GLU:543:CD:9879, V-A:ASP:366:CG:3212, V-A:ILE:369:CG2:3236, V-A:ARG:545:CZ:4925, V-A:SER:385:CA:3406, H-A:GLY:454:N:4049, V-B:ALA:541:CB:9863, V-A:ILE:369:CD1:3238, V-A:LEU:475:CD2:4258, V-A:HIS:383:CE1:3393, V-A:PRO:482:CG:4326, V-B:TYR:539:CB:9842, H-A:TYR:484:OH:4347, V-A:PRO:482:CB:4325, V-A:LEU:373:CD2:3280, V-A:GLY:454:CA:4048, V-A:LEU:373:CD1:3279, H-A:GLU:543:OE1:4908, H-A:GLU:543:OE2:4909, H-B:GLU:543:OE2:9881, H-B:GLU:543:OE1:9880"]

$$$$
RR32_Rahimova_2017
     RDKit          3D

 18 20  0  0  0  0  0  0  0  0999 V2000
  134.3070  119.0080   59.2280 C   0  0  0  0  0  0  0  0  0  0  0  0
  133.1910  119.4540   60.1670 C   0  0  0  0  0  0  0  0  0  0  0  0
  133.3410  120.6660   60.8420 C   0  0  0  0  0  0  0  0  0  0  0  0
  132.3420  121.1070   61.7040 C   0  0  0  0  0  0  0  0  0  0  0  0
  132.4950  122.3100   62.3720 N   0  0  0  0  0  0  0  0  0  0  0  0
  132.3670  122.2890   63.8400 C   0  0  0  0  0  0  0  0  0  0  0  0
  132.3720  123.7000   64.4740 C   0  0  0  0  0  0  0  0  0  0  0  0
  133.6030  124.4070   64.1230 N   0  0  0  0  0  0  0  0  0  0  0  0
  133.6230  125.7250   64.7460 C   0  0  0  0  0  0  0  0  0  0  0  0
  133.6510  124.5340   62.6680 C   0  0  0  0  0  0  0  0  0  0  0  0
  133.6610  123.1360   62.0060 C   0  0  0  0  0  0  0  0  0  0  0  0
  131.2050  120.3990   61.9290 N   0  0  0  0  0  0  0  0  0  0  0  0
  131.0300  119.2110   61.2880 C   0  0  0  0  0  0  0  0  0  0  0  0
  129.8360  118.4940   61.5440 C   0  0  0  0  0  0  0  0  0  0  0  0
  129.6040  117.2750   60.9170 C   0  0  0  0  0  0  0  0  0  0  0  0
  130.5390  116.7470   60.0340 C   0  0  0  0  0  0  0  0  0  0  0  0
  131.7220  117.4270   59.7610 C   0  0  0  0  0  0  0  0  0  0  0  0
  132.0030  118.6790   60.3810 C   0  0  0  0  0  0  0  0  0  0  0  0
  1  2  1  0
  2  3  2  0
  3  4  1  0
  4  5  1  0
  5  6  1  0
  6  7  1  0
  7  8  1  0
  8  9  1  0
  8 10  1  0
 10 11  1  0
  4 12  2  0
 12 13  1  0
 13 14  2  0
 14 15  1  0
 15 16  2  0
 16 17  1  0
 17 18  2  0
 18  2  1  0
 11  5  1  0
 18 13  1  0
M  END
>  <Binding energies>  (83) 
[-6.42]

>  <Ligand effiencies>  (83) 
[-0.3566666666666667]

>  <Interactions>  (83) 
["V-B:TYR:539:CD2:9845, V-B:TYR:539:C:9838, V-B:TYR:539:CE2:9847, V-A:ASP:366:CG:3212, V-A:VAL:384:C:3396, V-A:ILE:369:CG2:3236, V-A:ARG:545:CZ:4925, V-A:SER:385:CA:3406, H-A:GLY:454:N:4049, V-B:ALA:541:CB:9863, V-A:ILE:369:CD1:3238, V-A:LEU:475:CD2:4258, V-A:HIS:383:CE1:3393, V-A:PRO:482:CG:4326, V-B:TYR:539:CB:9842, H-A:TYR:484:OH:4347, V-A:PRO:482:CB:4325, V-A:LEU:373:CD2:3280, V-A:GLY:454:CA:4048, V-A:LEU:373:CG:3278, V-B:VAL:344:CG1:7971"]

$$$$
RR5_Rahimova_2017
     RDKit          3D

 45 50  0  0  0  0  0  0  0  0999 V2000
  130.0250  127.0140   61.7420 O   0  0  0  0  0  0  0  0  0  0  0  0
  130.8480  126.3970   62.4150 C   0  0  0  0  0  0  0  0  0  0  0  0
  131.3670  127.0050   63.7330 C   0  0  0  0  0  0  0  0  0  0  0  0
  131.8400  125.9400   64.7850 C   0  0  2  0  0  0  0  0  0  0  0  0
  131.4510  126.2270   66.1810 N   0  0  0  0  0  0  0  0  0  0  0  0
  130.5580  125.4160   66.8690 C   0  0  0  0  0  0  0  0  0  0  0  0
  130.0350  124.3800   66.4530 O   0  0  0  0  0  0  0  0  0  0  0  0
  130.3390  125.9590   68.0790 O   0  0  0  0  0  0  0  0  0  0  0  0
  129.4070  125.3880   68.9920 C   0  0  0  0  0  0  0  0  0  0  0  0
  128.5430  126.4850   69.6520 C   0  0  0  0  0  0  0  0  0  0  0  0
  129.1250  127.0200   70.9480 C   0  0  0  0  0  0  0  0  0  0  0  0
  129.4560  126.3390   72.1230 C   0  0  0  0  0  0  0  0  0  0  0  0
  130.0080  127.0370   73.1990 C   0  0  0  0  0  0  0  0  0  0  0  0
  130.2270  128.4120   73.1050 C   0  0  0  0  0  0  0  0  0  0  0  0
  129.8940  129.0950   71.9340 C   0  0  0  0  0  0  0  0  0  0  0  0
  129.3430  128.3960   70.8590 C   0  0  0  0  0  0  0  0  0  0  0  0
  128.8980  128.8520   69.5320 C   0  0  0  0  0  0  0  0  0  0  0  0
  128.8880  130.1230   68.9540 C   0  0  0  0  0  0  0  0  0  0  0  0
  128.3820  130.2900   67.6640 C   0  0  0  0  0  0  0  0  0  0  0  0
  127.8930  129.1900   66.9550 C   0  0  0  0  0  0  0  0  0  0  0  0
  127.9090  127.9220   67.5360 C   0  0  0  0  0  0  0  0  0  0  0  0
  128.4160  127.7500   68.8250 C   0  0  0  0  0  0  0  0  0  0  0  0
  133.3720  125.7290   64.7030 C   0  0  0  0  0  0  0  0  0  0  0  0
  134.1240  125.7450   65.6570 O   0  0  0  0  0  0  0  0  0  0  0  0
  133.7360  125.5040   63.4070 O   0  0  0  0  0  0  0  0  0  0  0  0
  131.3350  125.1740   62.1080 N   0  0  0  0  0  0  0  0  0  0  0  0
  131.1130  124.2370   60.9650 C   0  0  0  0  0  0  0  0  0  0  0  0
  129.5790  123.9440   61.0760 C   0  0  0  0  0  0  0  0  0  0  0  0
  128.8060  123.6500   59.9410 C   0  0  0  0  0  0  0  0  0  0  0  0
  127.4420  123.3890   60.0510 C   0  0  0  0  0  0  0  0  0  0  0  0
  126.8270  123.4290   61.2970 C   0  0  0  0  0  0  0  0  0  0  0  0
  127.5690  123.7170   62.4380 C   0  0  0  0  0  0  0  0  0  0  0  0
  128.9330  123.9670   62.3280 C   0  0  0  0  0  0  0  0  0  0  0  0
  131.4860  125.0050   59.6530 C   0  0  0  0  0  0  0  0  0  0  0  0
  130.6300  125.9650   59.0900 C   0  0  0  0  0  0  0  0  0  0  0  0
  130.9730  126.6220   57.9110 C   0  0  0  0  0  0  0  0  0  0  0  0
  132.1760  126.3260   57.2780 C   0  0  0  0  0  0  0  0  0  0  0  0
  133.0430  125.3820   57.8190 C   0  0  0  0  0  0  0  0  0  0  0  0
  132.7030  124.7330   59.0010 C   0  0  0  0  0  0  0  0  0  0  0  0
  131.9960  122.9780   61.2580 C   0  0  0  0  0  0  0  0  0  0  0  0
  133.2980  123.1100   61.7760 C   0  0  0  0  0  0  0  0  0  0  0  0
  134.0900  121.9940   62.0310 C   0  0  0  0  0  0  0  0  0  0  0  0
  133.5920  120.7220   61.7770 C   0  0  0  0  0  0  0  0  0  0  0  0
  132.3050  120.5580   61.2790 C   0  0  0  0  0  0  0  0  0  0  0  0
  131.5150  121.6760   61.0250 C   0  0  0  0  0  0  0  0  0  0  0  0
  1  2  2  0
  2  3  1  0
  4  3  1  6
  4  5  1  0
  5  6  1  0
  6  7  2  0
  6  8  1  0
  8  9  1  0
  9 10  1  0
 10 11  1  0
 11 12  2  0
 12 13  1  0
 13 14  2  0
 14 15  1  0
 15 16  2  0
 16 17  1  0
 17 18  2  0
 18 19  1  0
 19 20  2  0
 20 21  1  0
 21 22  2  0
  4 23  1  0
 23 24  2  0
 23 25  1  0
  2 26  1  0
 26 27  1  0
 27 28  1  0
 28 29  2  0
 29 30  1  0
 30 31  2  0
 31 32  1  0
 32 33  2  0
 27 34  1  0
 34 35  2  0
 35 36  1  0
 36 37  2  0
 37 38  1  0
 38 39  2  0
 27 40  1  0
 40 41  2  0
 41 42  1  0
 42 43  2  0
 43 44  1  0
 44 45  2  0
 22 10  1  0
 33 28  1  0
 39 34  1  0
 45 40  1  0
 16 11  1  0
 22 17  1  0
M  END
>  <Binding energies>  (84) 
[-10.21]

>  <Ligand effiencies>  (84) 
[-0.21270833333333336]

>  <Interactions>  (84) 
["V-B:GLU:543:CB:9877, V-A:GLU:543:CB:4905, V-B:TYR:539:CD2:9845, V-B:TYR:539:CZ:9848, V-B:HIS:456:CE1:9040, V-A:HIS:456:CE1:4069, V-A:GLU:543:CD:4907, V-A:GLU:543:CG:4906, V-B:PRO:540:CB:9856, V-B:TYR:539:CE2:9847, V-B:GLU:543:CD:9879, V-A:ASP:366:CG:3212, V-A:ASP:366:CA:3209, V-A:ASP:366:CB:3211, V-A:HIS:456:CD2:4067, V-A:TYR:484:CZ:4346, H-A:ARG:545:NE:4923, V-A:ILE:369:CG2:3236, V-A:ARG:545:CZ:4925, V-A:SER:385:CA:3406, H-A:ARG:545:NH1:4926, V-A:SER:385:CB:3408, V-A:TYR:484:CE2:4345, H-A:GLY:454:N:4049, H-A:ARG:545:NH2:4927, V-A:ILE:369:CD1:3238, V-A:LEU:475:CD2:4258, V-B:PRO:540:CA:9854, V-A:ASP:366:C:3207, H-A:TYR:484:OH:4347, V-A:TYR:531:CE1:4791, H-A:ASP:366:OD1:3213, H-A:ASP:366:OD2:3214, V-A:GLY:454:CA:4048, V-A:SER:385:C:3404, V-B:GLU:543:CA:9875, H-A:GLU:543:OE1:4908, V-A:GLU:543:C:4901, V-B:TYR:484:CZ:9317, V-B:TYR:484:CE2:9316, V-A:GLU:543:CA:4903"]

$$$$
