1a_Ghoteimi_2023
     RDKit          3D

 40 43  0  0  0  0  0  0  0  0999 V2000
  127.3250  122.7870   57.2950 C   0  0  0  0  0  0  0  0  0  0  0  0
  128.1090  123.2450   58.5290 C   0  0  0  0  0  0  0  0  0  0  0  0
  128.0840  122.2170   59.5110 O   0  0  0  0  0  0  0  0  0  0  0  0
  128.7610  122.3470   60.6800 C   0  0  0  0  0  0  0  0  0  0  0  0
  129.5490  121.4980   61.1090 O   0  0  0  0  0  0  0  0  0  0  0  0
  128.4610  123.6300   61.3990 C   0  0  0  0  0  0  0  0  0  0  0  0
  127.2080  123.8800   61.9800 C   0  0  0  0  0  0  0  0  0  0  0  0
  126.9580  125.0820   62.6370 C   0  0  0  0  0  0  0  0  0  0  0  0
  127.9620  126.0570   62.7300 C   0  0  0  0  0  0  0  0  0  0  0  0
  127.8170  127.3050   63.3660 N   0  0  0  0  0  0  0  0  0  0  0  0
  127.9820  128.5520   62.8720 C   0  0  0  0  0  0  0  0  0  0  0  0
  128.2890  128.8280   61.7130 O   0  0  0  0  0  0  0  0  0  0  0  0
  127.7510  129.6880   63.8680 C   0  0  0  0  0  0  0  0  0  0  0  0
  126.7350  129.1530   65.2760 S   0  0  0  0  0  0  0  0  0  0  0  0
  127.8490  128.3740   66.4220 C   0  0  0  0  0  0  0  0  0  0  0  0
  128.9680  127.8730   65.8470 N   0  0  0  0  0  0  0  0  0  0  0  0
  129.9040  127.2560   66.6150 C   0  0  0  0  0  0  0  0  0  0  0  0
  131.1250  126.7460   65.9060 C   0  0  0  0  0  0  0  0  0  0  0  0
  131.1460  126.5850   64.5110 C   0  0  0  0  0  0  0  0  0  0  0  0
  132.2790  126.1130   63.8560 C   0  0  0  0  0  0  0  0  0  0  0  0
  133.4270  125.7840   64.5740 C   0  0  0  0  0  0  0  0  0  0  0  0
  134.5050  125.3250   63.8420 O   0  0  0  0  0  0  0  0  0  0  0  0
  134.2710  124.5460   62.6740 C   0  0  0  0  0  0  0  0  0  0  0  0
  133.4210  125.9340   65.9680 C   0  0  0  0  0  0  0  0  0  0  0  0
  132.2860  126.4060   66.6190 C   0  0  0  0  0  0  0  0  0  0  0  0
  129.7210  127.1320   67.9980 C   0  0  0  0  0  0  0  0  0  0  0  0
  128.5610  127.6210   68.6120 C   0  0  0  0  0  0  0  0  0  0  0  0
  128.4200  127.4250   70.0870 C   0  0  0  0  0  0  0  0  0  0  0  0
  129.2750  128.0770   70.9820 C   0  0  0  0  0  0  0  0  0  0  0  0
  129.1270  127.9000   72.3550 C   0  0  0  0  0  0  0  0  0  0  0  0
  128.1210  127.0770   72.8600 C   0  0  0  0  0  0  0  0  0  0  0  0
  128.0500  126.9640   74.2350 O   0  0  0  0  0  0  0  0  0  0  0  0
  128.4350  128.0700   75.0430 C   0  0  0  0  0  0  0  0  0  0  0  0
  127.2560  126.4280   71.9650 C   0  0  0  0  0  0  0  0  0  0  0  0
  127.4060  126.6050   70.5920 C   0  0  0  0  0  0  0  0  0  0  0  0
  127.5920  128.2660   67.8060 C   0  0  0  0  0  0  0  0  0  0  0  0
  126.3650  128.8120   68.3940 C   0  0  0  0  0  0  0  0  0  0  0  0
  125.3960  129.2420   68.8590 N   0  0  0  0  0  0  0  0  0  0  0  0
  129.2070  125.8130   62.1510 C   0  0  0  0  0  0  0  0  0  0  0  0
  129.4570  124.6110   61.4930 C   0  0  0  0  0  0  0  0  0  0  0  0
  1  2  1  0
  2  3  1  0
  3  4  1  0
  4  5  2  0
  4  6  1  0
  6  7  2  0
  7  8  1  0
  8  9  2  0
  9 10  1  0
 10 11  1  0
 11 12  2  0
 11 13  1  0
 13 14  1  0
 14 15  1  0
 15 16  2  0
 16 17  1  0
 17 18  1  0
 18 19  2  0
 19 20  1  0
 20 21  2  0
 21 22  1  0
 22 23  1  0
 21 24  1  0
 24 25  2  0
 17 26  2  0
 26 27  1  0
 27 28  1  0
 28 29  2  0
 29 30  1  0
 30 31  2  0
 31 32  1  0
 32 33  1  0
 31 34  1  0
 34 35  2  0
 27 36  2  0
 36 37  1  0
 37 38  3  0
  9 39  1  0
 39 40  2  0
 40  6  1  0
 36 15  1  0
 25 18  1  0
 35 28  1  0
M  END
>  <Binding energies>  (1) 
[-7.2]

>  <Ligand effiencies>  (1) 
[-0.175609756097561]

>  <Interactions>  (1) 
["V-B:GLU:543:CB:9877, V-B:PRO:540:N:9855, H-B:TYR:484:OH:9318, V-B:MET:535:CE:9806, V-B:TYR:539:CD2:9845, V-B:HIS:456:CE1:9040, V-A:HIS:456:CE1:4069, V-B:TYR:539:C:9838, V-A:GLU:543:CD:4907, V-B:TYR:539:CE2:9847, V-B:GLU:543:CD:9879, V-A:ASP:366:CG:3212, V-B:GLU:543:C:9873, V-B:GLY:544:CA:9885, V-B:GLY:544:C:9883, V-B:HIS:456:CD2:9038, H-B:LYS:547:NZ:9922, V-A:ARG:545:CZ:4925, H-A:ARG:545:NH1:4926, V-A:ARG:545:CD:4922, H-A:GLY:454:N:4049, H-A:ARG:545:NH2:4927, V-A:ILE:369:CD1:3238, V-B:PRO:540:CA:9854, V-A:GLY:453:C:4041, V-A:GLY:453:CA:4043, H-B:GLU:543:OE2:9881, V-B:TYR:484:CZ:9317, H-B:GLU:543:OE1:9880, H-B:HIS:456:ND1:9037"]

$$$$
1b_Ghoteimi_2023
     RDKit          3D

 34 37  0  0  0  0  0  0  0  0999 V2000
  128.3800  128.3820   75.1200 C   0  0  0  0  0  0  0  0  0  0  0  0
  128.4690  127.1870   74.3520 O   0  0  0  0  0  0  0  0  0  0  0  0
  128.5640  127.2760   72.9760 C   0  0  0  0  0  0  0  0  0  0  0  0
  129.4630  128.2140   72.4710 C   0  0  0  0  0  0  0  0  0  0  0  0
  129.6240  128.3750   71.0990 C   0  0  0  0  0  0  0  0  0  0  0  0
  128.8930  127.5990   70.1870 C   0  0  0  0  0  0  0  0  0  0  0  0
  129.0690  127.7780   68.7040 C   0  0  0  0  0  0  0  0  0  0  0  0
  130.0130  127.0640   67.9590 C   0  0  0  0  0  0  0  0  0  0  0  0
  130.1340  127.2650   66.5780 C   0  0  0  0  0  0  0  0  0  0  0  0
  131.1670  126.4720   65.8460 C   0  0  0  0  0  0  0  0  0  0  0  0
  130.8040  125.6720   64.7600 C   0  0  0  0  0  0  0  0  0  0  0  0
  131.7620  124.9240   64.0810 C   0  0  0  0  0  0  0  0  0  0  0  0
  133.0990  124.9590   64.4760 C   0  0  0  0  0  0  0  0  0  0  0  0
  133.9790  124.1850   63.7430 O   0  0  0  0  0  0  0  0  0  0  0  0
  134.0050  124.3160   62.3260 C   0  0  0  0  0  0  0  0  0  0  0  0
  133.4680  125.7550   65.5700 C   0  0  0  0  0  0  0  0  0  0  0  0
  132.5070  126.5010   66.2480 C   0  0  0  0  0  0  0  0  0  0  0  0
  129.2700  128.1980   65.9540 C   0  0  0  0  0  0  0  0  0  0  0  0
  129.2910  128.3750   64.4990 C   0  0  0  0  0  0  0  0  0  0  0  0
  129.3090  128.5130   63.3500 N   0  0  0  0  0  0  0  0  0  0  0  0
  128.3540  128.9000   66.7680 C   0  0  0  0  0  0  0  0  0  0  0  0
  127.2000  130.1130   66.1600 S   0  0  0  0  0  0  0  0  0  0  0  0
  127.9840  131.7540   66.3010 C   0  0  0  0  0  0  0  0  0  0  0  0
  128.2600  132.4590   64.9650 C   0  0  0  0  0  0  0  0  0  0  0  0
  127.6940  133.5180   64.6830 O   0  0  0  0  0  0  0  0  0  0  0  0
  129.1460  131.8240   64.1650 N   0  0  0  0  0  0  0  0  0  0  0  0
  129.5840  132.2270   62.9090 C   0  0  0  0  0  0  0  0  0  0  0  0
  128.7390  132.3320   61.8050 C   0  0  0  0  0  0  0  0  0  0  0  0
  129.5480  132.7540   60.7750 C   0  0  0  0  0  0  0  0  0  0  0  0
  130.8140  132.8990   61.2360 O   0  0  0  0  0  0  0  0  0  0  0  0
  130.8240  132.5630   62.5900 N   0  0  0  0  0  0  0  0  0  0  0  0
  128.2480  128.6760   68.1000 N   0  0  0  0  0  0  0  0  0  0  0  0
  127.9900  126.6590   70.7060 C   0  0  0  0  0  0  0  0  0  0  0  0
  127.8240  126.4960   72.0780 C   0  0  0  0  0  0  0  0  0  0  0  0
  1  2  1  0
  2  3  1  0
  3  4  2  0
  4  5  1  0
  5  6  2  0
  6  7  1  0
  7  8  2  0
  8  9  1  0
  9 10  1  0
 10 11  2  0
 11 12  1  0
 12 13  2  0
 13 14  1  0
 14 15  1  0
 13 16  1  0
 16 17  2  0
  9 18  2  0
 18 19  1  0
 19 20  3  0
 18 21  1  0
 21 22  1  0
 22 23  1  0
 23 24  1  0
 24 25  2  0
 24 26  1  0
 26 27  1  0
 27 28  1  0
 28 29  2  0
 29 30  1  0
 30 31  1  0
 21 32  2  0
  6 33  1  0
 33 34  2  0
 34  3  1  0
 32  7  1  0
 17 10  1  0
 31 27  2  0
M  END
>  <Binding energies>  (2) 
[-8.11]

>  <Ligand effiencies>  (2) 
[-0.2317142857142857]

>  <Interactions>  (2) 
["V-B:GLU:543:CB:9877, H-B:TYR:484:OH:9318, V-A:GLU:543:CB:4905, V-A:PRO:540:CA:4882, V-B:HIS:456:CE1:9040, V-A:HIS:456:CE1:4069, V-A:GLU:543:CD:4907, V-A:GLU:543:CG:4906, V-B:GLU:543:CD:9879, V-A:ASP:366:CG:3212, V-A:ALA:541:CB:4891, H-A:ALA:541:N:4890, V-B:HIS:456:CD2:9038, H-B:LYS:547:NZ:9922, V-A:ARG:545:CZ:4925, V-A:ARG:545:CD:4922, H-A:GLY:454:N:4049, V-A:ARG:545:CG:4921, V-A:ILE:369:CD1:3238, V-A:GLY:454:CA:4048, H-A:GLU:543:OE1:4908, H-A:GLU:543:OE2:4909, V-B:TYR:484:CZ:9317, V-B:TYR:484:CE2:9316"]

$$$$
1c_Ghoteimi_2023
     RDKit          3D

 34 37  0  0  0  0  0  0  0  0999 V2000
  125.9060  122.5310   57.0920 C   0  0  0  0  0  0  0  0  0  0  0  0
  127.3190  122.6260   56.9460 O   0  0  0  0  0  0  0  0  0  0  0  0
  128.0870  122.9890   58.0360 C   0  0  0  0  0  0  0  0  0  0  0  0
  129.0110  124.0110   57.8370 C   0  0  0  0  0  0  0  0  0  0  0  0
  129.8300  124.4390   58.8790 C   0  0  0  0  0  0  0  0  0  0  0  0
  129.7480  123.8550   60.1530 C   0  0  0  0  0  0  0  0  0  0  0  0
  130.6320  124.3100   61.2780 C   0  0  0  0  0  0  0  0  0  0  0  0
  130.1940  125.1860   62.2770 C   0  0  0  0  0  0  0  0  0  0  0  0
  131.0470  125.5610   63.3220 C   0  0  0  0  0  0  0  0  0  0  0  0
  130.4920  126.4450   64.3890 C   0  0  0  0  0  0  0  0  0  0  0  0
  130.7860  126.2070   65.7350 C   0  0  0  0  0  0  0  0  0  0  0  0
  130.2510  127.0180   66.7300 C   0  0  0  0  0  0  0  0  0  0  0  0
  129.4090  128.0800   66.4010 C   0  0  0  0  0  0  0  0  0  0  0  0
  128.9230  128.8320   67.4540 O   0  0  0  0  0  0  0  0  0  0  0  0
  127.5440  128.7410   67.7950 C   0  0  0  0  0  0  0  0  0  0  0  0
  129.1050  128.3190   65.0510 C   0  0  0  0  0  0  0  0  0  0  0  0
  129.6420  127.5050   64.0580 C   0  0  0  0  0  0  0  0  0  0  0  0
  132.3690  125.0580   63.3260 C   0  0  0  0  0  0  0  0  0  0  0  0
  133.3210  125.4390   64.3740 C   0  0  0  0  0  0  0  0  0  0  0  0
  134.0720  125.7410   65.2020 N   0  0  0  0  0  0  0  0  0  0  0  0
  132.7390  124.1660   62.2980 C   0  0  0  0  0  0  0  0  0  0  0  0
  134.3080  123.3260   62.2730 S   0  0  0  0  0  0  0  0  0  0  0  0
  133.9920  121.7220   63.0790 C   0  0  0  0  0  0  0  0  0  0  0  0
  133.0900  120.8170   62.2320 C   0  0  0  0  0  0  0  0  0  0  0  0
  131.8670  120.9560   62.2850 O   0  0  0  0  0  0  0  0  0  0  0  0
  133.7390  119.9390   61.4370 N   0  0  0  0  0  0  0  0  0  0  0  0
  133.1740  119.1220   60.4700 C   0  0  0  0  0  0  0  0  0  0  0  0
  133.5760  118.9410   59.2310 N   0  0  0  0  0  0  0  0  0  0  0  0
  132.8230  118.0590   58.6030 C   0  0  0  0  0  0  0  0  0  0  0  0
  131.7840  117.5010   59.3400 C   0  0  0  0  0  0  0  0  0  0  0  0
  131.7990  118.1780   60.9420 S   0  0  0  0  0  0  0  0  0  0  0  0
  131.8900  123.7980   61.3090 N   0  0  0  0  0  0  0  0  0  0  0  0
  128.8100  122.8310   60.3430 C   0  0  0  0  0  0  0  0  0  0  0  0
  127.9910  122.3990   59.3040 C   0  0  0  0  0  0  0  0  0  0  0  0
  1  2  1  0
  2  3  1  0
  3  4  2  0
  4  5  1  0
  5  6  2  0
  6  7  1  0
  7  8  2  0
  8  9  1  0
  9 10  1  0
 10 11  2  0
 11 12  1  0
 12 13  2  0
 13 14  1  0
 14 15  1  0
 13 16  1  0
 16 17  2  0
  9 18  2  0
 18 19  1  0
 19 20  3  0
 18 21  1  0
 21 22  1  0
 22 23  1  0
 23 24  1  0
 24 25  2  0
 24 26  1  0
 26 27  1  0
 27 28  2  0
 28 29  1  0
 29 30  2  0
 30 31  1  0
 21 32  2  0
  6 33  1  0
 33 34  2  0
 34  3  1  0
 32  7  1  0
 17 10  1  0
 31 27  1  0
M  END
>  <Binding energies>  (3) 
[-8.25]

>  <Ligand effiencies>  (3) 
[-0.2357142857142857]

>  <Interactions>  (3) 
["V-B:PRO:540:CD:9858, V-B:PRO:540:N:9855, H-B:TYR:539:N:9841, V-B:MET:535:CE:9806, V-B:TYR:539:CD2:9845, V-B:TYR:539:CZ:9848, V-B:HIS:456:CE1:9040, V-B:TYR:539:C:9838, V-A:GLU:543:CD:4907, V-A:GLU:543:CG:4906, V-B:PRO:540:CB:9856, V-B:TYR:539:CE2:9847, V-B:GLU:543:CD:9879, V-B:TYR:539:CG:9843, H-A:ARG:545:NE:4923, V-A:ILE:369:CG2:3236, V-A:ARG:545:CZ:4925, V-A:SER:385:CA:3406, H-A:ARG:545:NH1:4926, V-A:SER:385:CB:3408, H-A:GLY:454:N:4049, H-A:ARG:545:NH2:4927, V-A:ILE:369:CD1:3238, V-A:LEU:475:CD2:4258, V-A:HIS:383:CE1:3393, V-B:PRO:540:CA:9854, V-B:TYR:539:CB:9842, H-A:TYR:484:OH:4347, V-A:LEU:373:CD2:3280, V-A:GLY:454:CA:4048, V-A:LEU:373:CG:3278, V-A:SER:385:C:3404, H-A:SER:385:O:3405, V-A:LEU:373:CD1:3279, H-A:VAL:384:O:3397"]

$$$$
1d_Ghoteimi_2023
     RDKit          3D

 30 32  0  0  0  0  0  0  0  0999 V2000
  124.7710  130.5340   64.4420 C   0  0  0  0  0  0  0  0  0  0  0  0
  123.8150  129.8990   65.2760 O   0  0  0  0  0  0  0  0  0  0  0  0
  124.1410  129.5240   66.5300 C   0  0  0  0  0  0  0  0  0  0  0  0
  123.5600  129.8550   67.5650 O   0  0  0  0  0  0  0  0  0  0  0  0
  125.3620  128.6080   66.5630 C   0  0  0  0  0  0  0  0  0  0  0  0
  126.8250  129.6550   66.8270 S   0  0  0  0  0  0  0  0  0  0  0  0
  128.1520  128.5790   67.3250 C   0  0  0  0  0  0  0  0  0  0  0  0
  128.1920  128.3430   68.6570 N   0  0  0  0  0  0  0  0  0  0  0  0
  129.1580  127.5410   69.1740 C   0  0  0  0  0  0  0  0  0  0  0  0
  129.1290  127.3250   70.6600 C   0  0  0  0  0  0  0  0  0  0  0  0
  129.6690  128.2720   71.5440 C   0  0  0  0  0  0  0  0  0  0  0  0
  129.6470  128.0680   72.9200 C   0  0  0  0  0  0  0  0  0  0  0  0
  129.0870  126.9110   73.4560 C   0  0  0  0  0  0  0  0  0  0  0  0
  129.1120  126.7910   74.8330 O   0  0  0  0  0  0  0  0  0  0  0  0
  130.2950  127.1500   75.5380 C   0  0  0  0  0  0  0  0  0  0  0  0
  128.5430  125.9560   72.5870 C   0  0  0  0  0  0  0  0  0  0  0  0
  128.5670  126.1640   71.2100 C   0  0  0  0  0  0  0  0  0  0  0  0
  130.1110  126.9450   68.3400 C   0  0  0  0  0  0  0  0  0  0  0  0
  130.1020  127.1840   66.9600 C   0  0  0  0  0  0  0  0  0  0  0  0
  131.1530  126.5210   66.1290 C   0  0  0  0  0  0  0  0  0  0  0  0
  130.8240  125.9700   64.8870 C   0  0  0  0  0  0  0  0  0  0  0  0
  131.7980  125.3510   64.1080 C   0  0  0  0  0  0  0  0  0  0  0  0
  133.1180  125.2750   64.5500 C   0  0  0  0  0  0  0  0  0  0  0  0
  134.0150  124.6370   63.7150 O   0  0  0  0  0  0  0  0  0  0  0  0
  133.5690  123.5410   62.9240 C   0  0  0  0  0  0  0  0  0  0  0  0
  133.4560  125.8380   65.7910 C   0  0  0  0  0  0  0  0  0  0  0  0
  132.4800  126.4570   66.5680 C   0  0  0  0  0  0  0  0  0  0  0  0
  129.1070  128.0430   66.4310 C   0  0  0  0  0  0  0  0  0  0  0  0
  129.1130  128.4110   65.0120 C   0  0  0  0  0  0  0  0  0  0  0  0
  129.1190  128.7000   63.8920 N   0  0  0  0  0  0  0  0  0  0  0  0
  1  2  1  0
  2  3  1  0
  3  4  2  0
  3  5  1  0
  5  6  1  0
  6  7  1  0
  7  8  2  0
  8  9  1  0
  9 10  1  0
 10 11  2  0
 11 12  1  0
 12 13  2  0
 13 14  1  0
 14 15  1  0
 13 16  1  0
 16 17  2  0
  9 18  2  0
 18 19  1  0
 19 20  1  0
 20 21  2  0
 21 22  1  0
 22 23  2  0
 23 24  1  0
 24 25  1  0
 23 26  1  0
 26 27  2  0
 19 28  2  0
 28 29  1  0
 29 30  3  0
 28  7  1  0
 17 10  1  0
 27 20  1  0
M  END
>  <Binding energies>  (4) 
[-7.64]

>  <Ligand effiencies>  (4) 
[-0.25466666666666665]

>  <Interactions>  (4) 
["H-B:TYR:484:OH:9318, H-B:GLY:454:N:9020, V-B:HIS:456:CE1:9040, V-A:HIS:456:CE1:4069, V-A:GLU:543:CD:4907, V-B:GLU:543:CD:9879, V-B:GLU:543:C:9873, V-B:ARG:545:CZ:9897, H-B:ILE:455:N:9025, V-B:ARG:545:CG:9893, H-B:LYS:547:NZ:9922, V-B:ARG:545:CD:9894, V-A:ARG:545:CZ:4925, V-A:ARG:545:CD:4922, H-A:GLY:454:N:4049, V-A:ARG:545:CG:4921, V-A:ILE:369:CD1:3238, V-A:GLY:454:CA:4048"]

$$$$
1j_Grossjean_2025
     RDKit          3D

 20 21  0  0  0  0  0  0  0  0999 V2000
  124.5770  123.4890   63.3490 C   0  0  0  0  0  0  0  0  0  0  0  0
  125.1020  123.5260   61.9250 C   0  0  0  0  0  0  0  0  0  0  0  0
  124.2730  123.8390   60.8500 C   0  0  0  0  0  0  0  0  0  0  0  0
  124.8150  123.8710   59.5620 C   0  0  0  0  0  0  0  0  0  0  0  0
  123.8890  124.2340   58.4010 C   0  0  0  0  0  0  0  0  0  0  0  0
  126.1850  123.5770   59.3810 C   0  0  0  0  0  0  0  0  0  0  0  0
  126.7850  123.6560   58.0460 C   0  0  0  0  0  0  0  0  0  0  0  0
  127.2560  123.7210   56.9910 N   0  0  0  0  0  0  0  0  0  0  0  0
  126.9460  123.2440   60.5260 C   0  0  0  0  0  0  0  0  0  0  0  0
  128.6790  122.8450   60.4830 S   0  0  0  0  0  0  0  0  0  0  0  0
  129.2260  122.5710   62.1940 C   0  0  0  0  0  0  0  0  0  0  0  0
  130.2250  121.4170   62.3000 C   0  0  0  0  0  0  0  0  0  0  0  0
  131.1950  121.5240   63.0520 O   0  0  0  0  0  0  0  0  0  0  0  0
  129.9520  120.3380   61.5340 N   0  0  0  0  0  0  0  0  0  0  0  0
  130.7010  119.1730   61.4470 C   0  0  0  0  0  0  0  0  0  0  0  0
  130.3550  117.9600   61.8230 N   0  0  0  0  0  0  0  0  0  0  0  0
  131.3170  117.0890   61.5900 C   0  0  0  0  0  0  0  0  0  0  0  0
  132.4770  117.5920   61.0090 C   0  0  0  0  0  0  0  0  0  0  0  0
  132.2870  119.3020   60.7570 S   0  0  0  0  0  0  0  0  0  0  0  0
  126.4160  123.2370   61.7750 N   0  0  0  0  0  0  0  0  0  0  0  0
  1  2  1  0
  2  3  2  0
  3  4  1  0
  4  5  1  0
  4  6  2  0
  6  7  1  0
  7  8  3  0
  6  9  1  0
  9 10  1  0
 10 11  1  0
 11 12  1  0
 12 13  2  0
 12 14  1  0
 14 15  1  0
 15 16  2  0
 16 17  1  0
 17 18  2  0
 18 19  1  0
  9 20  2  0
 20  2  1  0
 19 15  1  0
M  END
>  <Binding energies>  (5) 
[-7.18]

>  <Ligand effiencies>  (5) 
[-0.3419047619047619]

>  <Interactions>  (5) 
["V-B:PRO:540:N:9855, V-B:LEU:363:CD1:8159, V-B:TYR:539:CD2:9845, V-B:ASP:366:CG:8183, V-B:TYR:539:C:9838, V-B:PRO:540:CB:9856, V-B:ASP:366:CB:8182, V-B:GLU:543:CD:9879, H-B:TYR:531:OH:9766, V-B:GLU:543:CG:9878, V-B:ARG:545:CZ:9897, V-A:SER:385:CA:3406, V-B:ALA:541:C:9859, V-A:SER:385:CB:3408, V-B:ALA:541:CB:9863, V-A:LEU:475:CD2:4258, V-A:HIS:383:CE1:3393, V-A:PRO:482:CG:4326, V-B:PRO:540:CA:9854, H-B:ALA:541:N:9862, V-B:LEU:363:CA:8155, V-B:ASN:362:CB:8146, V-A:PRO:482:CB:4325, V-B:ASN:362:CG:8147, H-B:TYR:539:O:9839, V-B:PRO:540:C:9852"]

$$$$
1o_Grossjean_2025
     RDKit          3D

 26 27  0  0  0  0  0  0  0  0999 V2000
  129.9930  116.8020   60.6890 C   0  0  0  0  0  0  0  0  0  0  0  0
  130.6540  117.5400   59.6700 O   0  0  0  0  0  0  0  0  0  0  0  0
  131.9690  117.8610   59.7810 C   0  0  0  0  0  0  0  0  0  0  0  0
  132.8800  117.1660   59.3210 O   0  0  0  0  0  0  0  0  0  0  0  0
  132.2060  119.1490   60.5150 C   0  0  0  0  0  0  0  0  0  0  0  0
  131.1850  119.7970   61.2260 C   0  0  0  0  0  0  0  0  0  0  0  0
  131.4390  120.9900   61.8990 C   0  0  0  0  0  0  0  0  0  0  0  0
  132.7120  121.5610   61.8710 C   0  0  0  0  0  0  0  0  0  0  0  0
  132.8600  122.7620   62.5920 N   0  0  0  0  0  0  0  0  0  0  0  0
  132.8600  122.9760   63.9260 C   0  0  0  0  0  0  0  0  0  0  0  0
  132.7690  122.1000   64.7860 O   0  0  0  0  0  0  0  0  0  0  0  0
  133.0190  124.4410   64.3610 C   0  0  0  0  0  0  0  0  0  0  0  0
  131.7660  125.2970   64.0900 C   0  0  0  0  0  0  0  0  0  0  0  0
  130.2650  124.3260   63.7650 S   0  0  0  0  0  0  0  0  0  0  0  0
  130.0970  124.1190   62.0030 C   0  0  0  0  0  0  0  0  0  0  0  0
  131.2040  124.4850   61.3090 N   0  0  0  0  0  0  0  0  0  0  0  0
  131.1970  124.3640   59.9610 C   0  0  0  0  0  0  0  0  0  0  0  0
  132.4740  124.7790   59.2550 C   0  0  0  0  0  0  0  0  0  0  0  0
  130.0930  123.8900   59.2550 C   0  0  0  0  0  0  0  0  0  0  0  0
  128.9380  123.5340   59.9580 C   0  0  0  0  0  0  0  0  0  0  0  0
  127.7360  123.0310   59.1600 C   0  0  0  0  0  0  0  0  0  0  0  0
  128.9200  123.6560   61.3660 C   0  0  0  0  0  0  0  0  0  0  0  0
  127.7000  123.3450   62.1140 C   0  0  0  0  0  0  0  0  0  0  0  0
  126.7350  123.0970   62.7030 N   0  0  0  0  0  0  0  0  0  0  0  0
  133.7390  120.9160   61.1650 C   0  0  0  0  0  0  0  0  0  0  0  0
  133.4830  119.7230   60.4940 C   0  0  0  0  0  0  0  0  0  0  0  0
  1  2  1  0
  2  3  1  0
  3  4  2  0
  3  5  1  0
  5  6  2  0
  6  7  1  0
  7  8  2  0
  8  9  1  0
  9 10  1  0
 10 11  2  0
 10 12  1  0
 12 13  1  0
 13 14  1  0
 14 15  1  0
 15 16  2  0
 16 17  1  0
 17 18  1  0
 17 19  2  0
 19 20  1  0
 20 21  1  0
 20 22  2  0
 22 23  1  0
 23 24  3  0
  8 25  1  0
 25 26  2  0
 26  5  1  0
 22 15  1  0
M  END
>  <Binding energies>  (6) 
[-6.63]

>  <Ligand effiencies>  (6) 
[-0.24555555555555555]

>  <Interactions>  (6) 
["V-B:PRO:540:N:9855, V-B:TYR:539:CD2:9845, V-B:TYR:539:CZ:9848, V-B:TYR:539:C:9838, V-B:TYR:539:CE2:9847, V-B:TYR:539:CG:9843, V-A:ASP:366:CG:3212, V-A:ASP:366:CB:3211, V-A:ILE:369:CG2:3236, V-A:SER:385:CA:3406, V-A:SER:385:CB:3408, H-A:GLY:454:N:4049, V-A:ILE:369:CD1:3238, V-A:LEU:475:CD2:4258, V-A:HIS:383:CE1:3393, V-A:PRO:482:CG:4326, V-B:PRO:540:CA:9854, V-B:TYR:539:CB:9842, H-A:TYR:484:OH:4347, H-B:ALA:541:N:9862, V-A:PRO:482:CB:4325, V-A:GLY:454:CA:4048, V-B:VAL:344:CG1:7971, V-A:SER:385:C:3404, H-A:HIS:383:ND1:3390"]

$$$$
1p_Grossjean_2025
     RDKit          3D

 21 22  0  0  0  0  0  0  0  0999 V2000
  124.6280  123.5000   63.2500 C   0  0  0  0  0  0  0  0  0  0  0  0
  125.4050  123.4960   61.9470 C   0  0  0  0  0  0  0  0  0  0  0  0
  124.8040  123.8480   60.7390 C   0  0  0  0  0  0  0  0  0  0  0  0
  125.5660  123.8140   59.5660 C   0  0  0  0  0  0  0  0  0  0  0  0
  124.8830  124.1890   58.2520 C   0  0  0  0  0  0  0  0  0  0  0  0
  126.9250  123.4320   59.6350 C   0  0  0  0  0  0  0  0  0  0  0  0
  127.7290  123.3420   58.4160 C   0  0  0  0  0  0  0  0  0  0  0  0
  128.3650  123.2710   57.4510 N   0  0  0  0  0  0  0  0  0  0  0  0
  127.4570  123.1130   60.9080 C   0  0  0  0  0  0  0  0  0  0  0  0
  129.1460  122.6250   61.1730 S   0  0  0  0  0  0  0  0  0  0  0  0
  129.3270  122.3040   62.9520 C   0  0  0  0  0  0  0  0  0  0  0  0
  128.9570  123.5070   63.8410 C   0  0  0  0  0  0  0  0  0  0  0  0
  130.0780  123.9260   64.8040 C   0  0  0  0  0  0  0  0  0  0  0  0
  129.9880  123.6460   66.0010 O   0  0  0  0  0  0  0  0  0  0  0  0
  131.1190  124.5800   64.2400 N   0  0  0  0  0  0  0  0  0  0  0  0
  132.2530  125.0650   64.8790 C   0  0  0  0  0  0  0  0  0  0  0  0
  132.2000  125.8890   66.0030 C   0  0  0  0  0  0  0  0  0  0  0  0
  133.5150  126.1410   66.3240 C   0  0  0  0  0  0  0  0  0  0  0  0
  134.3170  125.5040   65.4390 O   0  0  0  0  0  0  0  0  0  0  0  0
  133.5050  124.8260   64.5270 N   0  0  0  0  0  0  0  0  0  0  0  0
  126.7050  123.1300   62.0370 N   0  0  0  0  0  0  0  0  0  0  0  0
  1  2  1  0
  2  3  2  0
  3  4  1  0
  4  5  1  0
  4  6  2  0
  6  7  1  0
  7  8  3  0
  6  9  1  0
  9 10  1  0
 10 11  1  0
 11 12  1  0
 12 13  1  0
 13 14  2  0
 13 15  1  0
 15 16  1  0
 16 17  1  0
 17 18  2  0
 18 19  1  0
 19 20  1  0
  9 21  2  0
 21  2  1  0
 20 16  2  0
M  END
>  <Binding energies>  (7) 
[-7.36]

>  <Ligand effiencies>  (7) 
[-0.33454545454545453]

>  <Interactions>  (7) 
["V-B:PRO:540:N:9855, V-B:PRO:540:CB:9856, V-B:GLU:543:CD:9879, V-B:GLU:543:CG:9878, V-B:ARG:545:CZ:9897, H-A:ARG:545:NE:4923, V-A:ARG:545:CZ:4925, V-B:ALA:541:C:9859, H-A:ARG:545:NH1:4926, V-A:ARG:545:CD:4922, H-A:GLY:454:N:4049, V-B:ALA:541:CB:9863, V-A:ARG:545:CG:4921, V-B:PRO:540:CA:9854, H-A:TYR:484:OH:4347, H-B:ALA:541:N:9862, V-B:ASN:362:CB:8146, V-B:PRO:540:C:9852"]

$$$$
2a_Ghoteimi_2023
     RDKit          3D

 48 53  0  0  0  0  0  0  0  0999 V2000
  133.2460  131.7850   58.7160 C   0  0  0  0  0  0  0  0  0  0  0  0
  132.8560  130.6480   59.6640 C   0  0  0  0  0  0  0  0  0  0  0  0
  133.1970  131.0070   60.9970 O   0  0  0  0  0  0  0  0  0  0  0  0
  132.5190  131.9820   61.6560 C   0  0  0  0  0  0  0  0  0  0  0  0
  133.0710  132.8510   62.3380 O   0  0  0  0  0  0  0  0  0  0  0  0
  131.0310  131.9020   61.4670 C   0  0  0  0  0  0  0  0  0  0  0  0
  130.2930  130.7740   61.8560 C   0  0  0  0  0  0  0  0  0  0  0  0
  128.9150  130.7330   61.6680 C   0  0  0  0  0  0  0  0  0  0  0  0
  128.2450  131.8150   61.0930 C   0  0  0  0  0  0  0  0  0  0  0  0
  126.8530  131.6630   60.9460 N   0  0  0  0  0  0  0  0  0  0  0  0
  125.9660  132.4260   60.2700 C   0  0  0  0  0  0  0  0  0  0  0  0
  126.2390  133.4680   59.6720 O   0  0  0  0  0  0  0  0  0  0  0  0
  124.5150  131.9320   60.3140 C   0  0  0  0  0  0  0  0  0  0  0  0
  123.8740  131.6260   61.9920 S   0  0  0  0  0  0  0  0  0  0  0  0
  124.8240  130.2640   62.6270 C   0  0  0  0  0  0  0  0  0  0  0  0
  125.0260  129.2710   61.7300 N   0  0  0  0  0  0  0  0  0  0  0  0
  125.7300  128.1720   62.1000 C   0  0  0  0  0  0  0  0  0  0  0  0
  125.9040  127.1120   61.0600 C   0  0  0  0  0  0  0  0  0  0  0  0
  125.8380  127.4160   59.6950 C   0  0  0  0  0  0  0  0  0  0  0  0
  125.9890  126.4230   58.7320 C   0  0  0  0  0  0  0  0  0  0  0  0
  126.2210  125.0890   59.0960 C   0  0  0  0  0  0  0  0  0  0  0  0
  126.3420  124.0970   58.1170 N   0  0  0  0  0  0  0  0  0  0  0  0
  125.1580  123.3870   57.5900 C   0  0  0  0  0  0  0  0  0  0  0  0
  125.4300  122.6060   56.2870 C   0  0  0  0  0  0  0  0  0  0  0  0
  126.5160  121.7130   56.4730 O   0  0  0  0  0  0  0  0  0  0  0  0
  127.7040  122.4080   56.8160 C   0  0  0  0  0  0  0  0  0  0  0  0
  127.5040  123.1840   58.1340 C   0  0  0  0  0  0  0  0  0  0  0  0
  126.2750  124.7870   60.4660 C   0  0  0  0  0  0  0  0  0  0  0  0
  126.1260  125.7800   61.4290 C   0  0  0  0  0  0  0  0  0  0  0  0
  126.2620  128.0530   63.3860 C   0  0  0  0  0  0  0  0  0  0  0  0
  126.0660  129.0690   64.3320 C   0  0  0  0  0  0  0  0  0  0  0  0
  126.6580  128.8750   65.6900 C   0  0  0  0  0  0  0  0  0  0  0  0
  128.0430  128.9230   65.8670 C   0  0  0  0  0  0  0  0  0  0  0  0
  128.6050  128.7230   67.1250 C   0  0  0  0  0  0  0  0  0  0  0  0
  127.7980  128.4730   68.2450 C   0  0  0  0  0  0  0  0  0  0  0  0
  128.3420  128.2510   69.5130 N   0  0  0  0  0  0  0  0  0  0  0  0
  129.6300  128.8810   69.8670 C   0  0  0  0  0  0  0  0  0  0  0  0
  129.9130  128.8800   71.3840 C   0  0  0  0  0  0  0  0  0  0  0  0
  129.8430  127.5570   71.8910 O   0  0  0  0  0  0  0  0  0  0  0  0
  128.5620  126.9820   71.6840 C   0  0  0  0  0  0  0  0  0  0  0  0
  128.2410  126.9370   70.1760 C   0  0  0  0  0  0  0  0  0  0  0  0
  126.4090  128.4140   68.0570 C   0  0  0  0  0  0  0  0  0  0  0  0
  125.8470  128.6120   66.7980 C   0  0  0  0  0  0  0  0  0  0  0  0
  125.3300  130.2150   63.9450 C   0  0  0  0  0  0  0  0  0  0  0  0
  125.1400  131.3350   64.8720 C   0  0  0  0  0  0  0  0  0  0  0  0
  124.9900  132.2170   65.6070 N   0  0  0  0  0  0  0  0  0  0  0  0
  128.9780  132.9420   60.6940 C   0  0  0  0  0  0  0  0  0  0  0  0
  130.3570  132.9830   60.8840 C   0  0  0  0  0  0  0  0  0  0  0  0
  1  2  1  0
  2  3  1  0
  3  4  1  0
  4  5  2  0
  4  6  1  0
  6  7  2  0
  7  8  1  0
  8  9  2  0
  9 10  1  0
 10 11  1  0
 11 12  2  0
 11 13  1  0
 13 14  1  0
 14 15  1  0
 15 16  2  0
 16 17  1  0
 17 18  1  0
 18 19  2  0
 19 20  1  0
 20 21  2  0
 21 22  1  0
 22 23  1  0
 23 24  1  0
 24 25  1  0
 25 26  1  0
 26 27  1  0
 21 28  1  0
 28 29  2  0
 17 30  2  0
 30 31  1  0
 31 32  1  0
 32 33  2  0
 33 34  1  0
 34 35  2  0
 35 36  1  0
 36 37  1  0
 37 38  1  0
 38 39  1  0
 39 40  1  0
 40 41  1  0
 35 42  1  0
 42 43  2  0
 31 44  2  0
 44 45  1  0
 45 46  3  0
  9 47  1  0
 47 48  2  0
 48  6  1  0
 44 15  1  0
 29 18  1  0
 43 32  1  0
 27 22  1  0
 41 36  1  0
M  END
>  <Binding energies>  (8) 
[-10.52]

>  <Ligand effiencies>  (8) 
[-0.2146938775510204]

>  <Interactions>  (8) 
["V-B:PRO:540:CD:9858, V-B:GLU:543:CB:9877, V-B:PRO:540:N:9855, H-B:TYR:484:OH:9318, V-A:GLU:543:CB:4905, V-B:TYR:531:CE2:9764, H-B:TYR:539:N:9841, H-B:GLY:454:N:9020, V-B:LEU:363:CD1:8159, V-B:ILE:369:CG2:8207, V-A:PRO:540:CA:4882, V-B:MET:535:CE:9806, V-B:TYR:539:CD2:9845, V-B:GLY:454:CA:9019, V-A:PRO:540:CB:4884, V-B:ASP:366:CG:8183, V-B:TYR:539:CZ:9848, V-B:HIS:456:CE1:9040, V-A:HIS:456:CE1:4069, V-B:TYR:539:C:9838, V-B:TYR:539:CE1:9846, V-B:TYR:539:CD1:9844, V-A:PRO:540:C:4880, V-A:GLU:543:CD:4907, V-A:GLU:543:CG:4906, V-B:PRO:540:CB:9856, V-B:TYR:539:CE2:9847, V-A:ASN:362:CB:3175, V-B:ASP:366:CB:8182, V-B:GLU:543:CD:9879, V-B:TYR:539:CG:9843, V-A:ASP:366:CG:3212, V-A:ASP:366:CB:3211, H-A:ALA:541:N:4890, H-B:ARG:545:NH2:9899, H-A:ARG:545:NH2:4927, V-B:PRO:540:CA:9854, V-B:TYR:539:CA:9840, V-A:TYR:539:C:4866, V-A:GLU:543:C:4901, V-A:PRO:540:N:4883, V-A:LEU:363:CD1:3188, V-A:LEU:363:CA:3184, H-A:HIS:456:ND1:4066"]

$$$$
2aa_Ghoteimi_2023
     RDKit          3D

 48 53  0  0  0  0  0  0  0  0999 V2000
  132.9440  132.5240   62.4340 C   0  0  0  0  0  0  0  0  0  0  0  0
  133.5630  131.7760   61.2480 C   0  0  0  0  0  0  0  0  0  0  0  0
  132.8670  132.1230   60.0580 O   0  0  0  0  0  0  0  0  0  0  0  0
  132.1830  131.1890   59.3470 C   0  0  0  0  0  0  0  0  0  0  0  0
  132.7280  130.3680   58.6020 O   0  0  0  0  0  0  0  0  0  0  0  0
  130.6990  131.2440   59.5690 C   0  0  0  0  0  0  0  0  0  0  0  0
  130.1100  130.7830   60.7570 C   0  0  0  0  0  0  0  0  0  0  0  0
  128.7320  130.8520   60.9350 C   0  0  0  0  0  0  0  0  0  0  0  0
  127.9140  131.3720   59.9300 C   0  0  0  0  0  0  0  0  0  0  0  0
  126.5350  131.3970   60.2170 N   0  0  0  0  0  0  0  0  0  0  0  0
  125.7540  132.4210   60.6220 C   0  0  0  0  0  0  0  0  0  0  0  0
  126.1370  133.5810   60.7910 O   0  0  0  0  0  0  0  0  0  0  0  0
  124.2820  132.0510   60.8490 C   0  0  0  0  0  0  0  0  0  0  0  0
  124.1160  131.5290   62.1720 O   0  0  0  0  0  0  0  0  0  0  0  0
  124.8330  130.4100   62.5740 C   0  0  0  0  0  0  0  0  0  0  0  0
  125.0120  129.4060   61.6710 N   0  0  0  0  0  0  0  0  0  0  0  0
  125.7110  128.3000   62.0310 C   0  0  0  0  0  0  0  0  0  0  0  0
  125.8640  127.2370   60.9900 C   0  0  0  0  0  0  0  0  0  0  0  0
  125.6830  127.5330   59.6350 C   0  0  0  0  0  0  0  0  0  0  0  0
  125.8300  126.5490   58.6600 C   0  0  0  0  0  0  0  0  0  0  0  0
  126.1780  125.2330   59.0050 C   0  0  0  0  0  0  0  0  0  0  0  0
  126.3180  124.2290   58.0400 N   0  0  0  0  0  0  0  0  0  0  0  0
  127.5040  123.3490   58.0100 C   0  0  0  0  0  0  0  0  0  0  0  0
  127.6600  122.5580   56.6950 C   0  0  0  0  0  0  0  0  0  0  0  0
  126.4760  121.8230   56.4270 O   0  0  0  0  0  0  0  0  0  0  0  0
  125.3540  122.6800   56.2880 C   0  0  0  0  0  0  0  0  0  0  0  0
  125.1290  123.4750   57.5920 C   0  0  0  0  0  0  0  0  0  0  0  0
  126.3370  124.9370   60.3660 C   0  0  0  0  0  0  0  0  0  0  0  0
  126.1870  125.9210   61.3400 C   0  0  0  0  0  0  0  0  0  0  0  0
  126.2380  128.1650   63.3190 C   0  0  0  0  0  0  0  0  0  0  0  0
  126.0580  129.1780   64.2700 C   0  0  0  0  0  0  0  0  0  0  0  0
  126.6210  128.9660   65.6380 C   0  0  0  0  0  0  0  0  0  0  0  0
  127.9970  129.0660   65.8570 C   0  0  0  0  0  0  0  0  0  0  0  0
  128.5310  128.8490   67.1250 C   0  0  0  0  0  0  0  0  0  0  0  0
  127.7040  128.5130   68.2080 C   0  0  0  0  0  0  0  0  0  0  0  0
  128.2180  128.2950   69.4890 N   0  0  0  0  0  0  0  0  0  0  0  0
  129.5280  128.8380   69.8950 C   0  0  0  0  0  0  0  0  0  0  0  0
  129.7620  128.8030   71.4210 C   0  0  0  0  0  0  0  0  0  0  0  0
  129.5890  127.4810   71.9080 O   0  0  0  0  0  0  0  0  0  0  0  0
  128.2800  126.9970   71.6530 C   0  0  0  0  0  0  0  0  0  0  0  0
  128.0070  126.9830   70.1340 C   0  0  0  0  0  0  0  0  0  0  0  0
  126.3240  128.4220   67.9790 C   0  0  0  0  0  0  0  0  0  0  0  0
  125.7910  128.6380   66.7130 C   0  0  0  0  0  0  0  0  0  0  0  0
  125.3480  130.3380   63.8810 C   0  0  0  0  0  0  0  0  0  0  0  0
  125.1540  131.4680   64.7920 C   0  0  0  0  0  0  0  0  0  0  0  0
  125.0020  132.3610   65.5130 N   0  0  0  0  0  0  0  0  0  0  0  0
  128.4950  131.8410   58.7440 C   0  0  0  0  0  0  0  0  0  0  0  0
  129.8750  131.7750   58.5690 C   0  0  0  0  0  0  0  0  0  0  0  0
  1  2  1  0
  2  3  1  0
  3  4  1  0
  4  5  2  0
  4  6  1  0
  6  7  2  0
  7  8  1  0
  8  9  2  0
  9 10  1  0
 10 11  1  0
 11 12  2  0
 11 13  1  0
 13 14  1  0
 14 15  1  0
 15 16  2  0
 16 17  1  0
 17 18  1  0
 18 19  2  0
 19 20  1  0
 20 21  2  0
 21 22  1  0
 22 23  1  0
 23 24  1  0
 24 25  1  0
 25 26  1  0
 26 27  1  0
 21 28  1  0
 28 29  2  0
 17 30  2  0
 30 31  1  0
 31 32  1  0
 32 33  2  0
 33 34  1  0
 34 35  2  0
 35 36  1  0
 36 37  1  0
 37 38  1  0
 38 39  1  0
 39 40  1  0
 40 41  1  0
 35 42  1  0
 42 43  2  0
 31 44  2  0
 44 45  1  0
 45 46  3  0
  9 47  1  0
 47 48  2  0
 48  6  1  0
 44 15  1  0
 29 18  1  0
 43 32  1  0
 27 22  1  0
 41 36  1  0
M  END
>  <Binding energies>  (9) 
[-9.22]

>  <Ligand effiencies>  (9) 
[-0.18816326530612246]

>  <Interactions>  (9) 
["V-A:TYR:539:CD1:4872, V-B:PRO:540:CD:9858, V-B:GLU:543:CB:9877, V-B:PRO:540:N:9855, H-B:TYR:484:OH:9318, V-A:GLU:543:CB:4905, V-B:TYR:531:CE2:9764, H-B:TYR:539:N:9841, H-B:GLY:454:N:9020, V-B:LEU:363:CD1:8159, V-B:ILE:369:CG2:8207, V-A:PRO:540:CA:4882, V-A:ASN:362:C:3171, V-B:MET:535:CE:9806, V-A:ALA:541:CA:4889, V-B:TYR:539:CD2:9845, V-B:GLY:454:CA:9019, V-A:PRO:540:CB:4884, V-A:ALA:541:C:4887, V-B:ASP:366:CG:8183, V-B:TYR:539:CZ:9848, V-B:HIS:456:CE1:9040, H-A:TYR:531:OH:4794, V-A:HIS:456:CE1:4069, V-B:TYR:539:C:9838, V-B:TYR:539:CE1:9846, V-B:TYR:539:CD1:9844, V-A:PRO:540:C:4880, V-A:GLU:543:CD:4907, V-A:GLU:543:CG:4906, V-B:PRO:540:CB:9856, V-A:TYR:539:CE1:4874, V-B:LEU:475:CD1:9228, V-B:TYR:539:CE2:9847, V-A:ASN:362:CB:3175, V-B:ASP:366:CB:8182, V-A:ASN:362:CA:3173, V-B:GLU:543:CD:9879, V-B:TYR:539:CG:9843"]

$$$$
2b_Ghoteimi_2023
     RDKit          3D

 42 47  0  0  0  0  0  0  0  0999 V2000
  128.2340  132.1900   65.7980 N   0  0  0  0  0  0  0  0  0  0  0  0
  128.0690  131.3300   65.0410 C   0  0  0  0  0  0  0  0  0  0  0  0
  127.8600  130.2370   64.0880 C   0  0  0  0  0  0  0  0  0  0  0  0
  127.7720  128.8960   64.5390 C   0  0  0  0  0  0  0  0  0  0  0  0
  127.8790  128.4930   65.9730 C   0  0  0  0  0  0  0  0  0  0  0  0
  126.7330  128.3980   66.7640 C   0  0  0  0  0  0  0  0  0  0  0  0
  126.8260  128.0230   68.1020 C   0  0  0  0  0  0  0  0  0  0  0  0
  128.0720  127.7510   68.6890 C   0  0  0  0  0  0  0  0  0  0  0  0
  128.1910  127.3620   70.0240 N   0  0  0  0  0  0  0  0  0  0  0  0
  129.0720  128.1330   70.9230 C   0  0  0  0  0  0  0  0  0  0  0  0
  129.4060  127.3930   72.2350 C   0  0  0  0  0  0  0  0  0  0  0  0
  128.2110  127.0090   72.8980 O   0  0  0  0  0  0  0  0  0  0  0  0
  127.4210  126.1450   72.0950 C   0  0  0  0  0  0  0  0  0  0  0  0
  127.0290  126.8590   70.7850 C   0  0  0  0  0  0  0  0  0  0  0  0
  129.2170  127.8520   67.8870 C   0  0  0  0  0  0  0  0  0  0  0  0
  129.1230  128.2230   66.5480 C   0  0  0  0  0  0  0  0  0  0  0  0
  127.5670  127.8850   63.5910 C   0  0  0  0  0  0  0  0  0  0  0  0
  127.4210  128.2040   62.2380 C   0  0  0  0  0  0  0  0  0  0  0  0
  127.1700  127.1660   61.1900 C   0  0  0  0  0  0  0  0  0  0  0  0
  127.1470  127.5120   59.8340 C   0  0  0  0  0  0  0  0  0  0  0  0
  126.9310  126.5480   58.8530 C   0  0  0  0  0  0  0  0  0  0  0  0
  126.7160  125.2030   59.1910 C   0  0  0  0  0  0  0  0  0  0  0  0
  126.5270  124.2180   58.2150 N   0  0  0  0  0  0  0  0  0  0  0  0
  127.5830  123.2160   57.9660 C   0  0  0  0  0  0  0  0  0  0  0  0
  127.4150  122.4590   56.6310 C   0  0  0  0  0  0  0  0  0  0  0  0
  126.1270  121.8670   56.5680 O   0  0  0  0  0  0  0  0  0  0  0  0
  125.1010  122.8440   56.6410 C   0  0  0  0  0  0  0  0  0  0  0  0
  125.2010  123.6160   57.9740 C   0  0  0  0  0  0  0  0  0  0  0  0
  126.7470  124.8600   60.5510 C   0  0  0  0  0  0  0  0  0  0  0  0
  126.9670  125.8230   61.5310 C   0  0  0  0  0  0  0  0  0  0  0  0
  127.5050  129.4890   61.8080 N   0  0  0  0  0  0  0  0  0  0  0  0
  127.7360  130.4800   62.7020 C   0  0  0  0  0  0  0  0  0  0  0  0
  127.8200  132.0980   61.9650 S   0  0  0  0  0  0  0  0  0  0  0  0
  129.4730  132.7720   62.3100 C   0  0  0  0  0  0  0  0  0  0  0  0
  130.3260  132.8800   61.0450 C   0  0  0  0  0  0  0  0  0  0  0  0
  131.5510  132.7820   61.1330 O   0  0  0  0  0  0  0  0  0  0  0  0
  129.6420  133.0850   59.8990 N   0  0  0  0  0  0  0  0  0  0  0  0
  130.1620  133.2080   58.6180 C   0  0  0  0  0  0  0  0  0  0  0  0
  131.4850  132.9020   58.3030 C   0  0  0  0  0  0  0  0  0  0  0  0
  131.5990  133.1540   56.9560 C   0  0  0  0  0  0  0  0  0  0  0  0
  130.4070  133.5880   56.4840 O   0  0  0  0  0  0  0  0  0  0  0  0
  129.5020  133.6170   57.5480 N   0  0  0  0  0  0  0  0  0  0  0  0
  1  2  3  0
  2  3  1  0
  3  4  2  0
  4  5  1  0
  5  6  2  0
  6  7  1  0
  7  8  2  0
  8  9  1  0
  9 10  1  0
 10 11  1  0
 11 12  1  0
 12 13  1  0
 13 14  1  0
  8 15  1  0
 15 16  2  0
  4 17  1  0
 17 18  2  0
 18 19  1  0
 19 20  2  0
 20 21  1  0
 21 22  2  0
 22 23  1  0
 23 24  1  0
 24 25  1  0
 25 26  1  0
 26 27  1  0
 27 28  1  0
 22 29  1  0
 29 30  2  0
 18 31  1  0
 31 32  2  0
 32 33  1  0
 33 34  1  0
 34 35  1  0
 35 36  2  0
 35 37  1  0
 37 38  1  0
 38 39  1  0
 39 40  2  0
 40 41  1  0
 41 42  1  0
 32  3  1  0
 42 38  2  0
 16  5  1  0
 30 19  1  0
 14  9  1  0
 28 23  1  0
M  END
>  <Binding energies>  (10) 
[-10.09]

>  <Ligand effiencies>  (10) 
[-0.23465116279069767]

>  <Interactions>  (10) 
["V-A:TYR:539:CD1:4872, V-B:PRO:540:CD:9858, V-B:GLU:543:CB:9877, V-B:PRO:540:N:9855, H-B:TYR:484:OH:9318, V-B:TYR:531:CE2:9764, H-B:TYR:539:N:9841, V-B:LEU:363:CD1:8159, V-A:PRO:540:CA:4882, V-B:MET:535:CE:9806, V-A:PRO:540:CB:4884, V-B:HIS:456:CE1:9040, V-A:HIS:456:CE1:4069, V-B:TYR:539:C:9838, V-B:TYR:539:CE1:9846, V-B:TYR:539:CD1:9844, V-A:PRO:540:C:4880, V-A:GLU:543:CD:4907, V-A:GLU:543:CG:4906, V-B:PRO:540:CB:9856, V-B:GLU:543:CD:9879, V-B:TYR:539:CG:9843, V-B:GLU:543:C:9873, V-B:GLY:544:CA:9885, V-B:GLY:544:C:9883, V-A:ALA:541:CB:4891, H-A:ALA:541:N:4890, V-B:PRO:540:CA:9854, V-B:TYR:539:CA:9840, V-A:TYR:539:C:4866, H-A:TYR:539:N:4869, V-A:PRO:540:N:4883, V-A:PRO:540:CD:4886, H-A:TYR:539:O:4867"]

$$$$
2c_Ghoteimi_2023
     RDKit          3D

 42 47  0  0  0  0  0  0  0  0999 V2000
  126.3980  130.6820   58.5720 N   0  0  0  0  0  0  0  0  0  0  0  0
  126.6260  130.4090   59.6730 C   0  0  0  0  0  0  0  0  0  0  0  0
  126.9160  130.0570   61.0670 C   0  0  0  0  0  0  0  0  0  0  0  0
  127.0710  128.7020   61.4510 C   0  0  0  0  0  0  0  0  0  0  0  0
  126.9550  127.5510   60.5060 C   0  0  0  0  0  0  0  0  0  0  0  0
  127.6640  127.5550   59.3030 C   0  0  0  0  0  0  0  0  0  0  0  0
  127.5650  126.4840   58.4190 C   0  0  0  0  0  0  0  0  0  0  0  0
  126.7420  125.3830   58.7080 C   0  0  0  0  0  0  0  0  0  0  0  0
  126.6430  124.2890   57.8450 N   0  0  0  0  0  0  0  0  0  0  0  0
  127.7320  123.2910   57.8160 C   0  0  0  0  0  0  0  0  0  0  0  0
  127.6850  122.3750   56.5750 C   0  0  0  0  0  0  0  0  0  0  0  0
  126.4170  121.7440   56.4840 O   0  0  0  0  0  0  0  0  0  0  0  0
  125.3670  122.6910   56.3670 C   0  0  0  0  0  0  0  0  0  0  0  0
  125.3520  123.6170   57.6010 C   0  0  0  0  0  0  0  0  0  0  0  0
  126.0320  125.3900   59.9160 C   0  0  0  0  0  0  0  0  0  0  0  0
  126.1330  126.4600   60.8010 C   0  0  0  0  0  0  0  0  0  0  0  0
  127.3510  128.4180   62.7940 C   0  0  0  0  0  0  0  0  0  0  0  0
  127.4980  129.4530   63.7210 C   0  0  0  0  0  0  0  0  0  0  0  0
  127.8130  129.2030   65.1610 C   0  0  0  0  0  0  0  0  0  0  0  0
  128.9390  128.4590   65.5270 C   0  0  0  0  0  0  0  0  0  0  0  0
  129.2420  128.2280   66.8670 C   0  0  0  0  0  0  0  0  0  0  0  0
  128.4200  128.7230   67.8920 C   0  0  0  0  0  0  0  0  0  0  0  0
  128.7230  128.5210   69.2430 N   0  0  0  0  0  0  0  0  0  0  0  0
  128.4390  127.2150   69.8720 C   0  0  0  0  0  0  0  0  0  0  0  0
  128.4570  127.2550   71.4150 C   0  0  0  0  0  0  0  0  0  0  0  0
  129.6930  127.7780   71.8730 O   0  0  0  0  0  0  0  0  0  0  0  0
  129.9030  129.1000   71.4050 C   0  0  0  0  0  0  0  0  0  0  0  0
  129.9230  129.1190   69.8620 C   0  0  0  0  0  0  0  0  0  0  0  0
  127.2990  129.4790   67.5200 C   0  0  0  0  0  0  0  0  0  0  0  0
  126.9990  129.7110   66.1800 C   0  0  0  0  0  0  0  0  0  0  0  0
  127.3510  130.7510   63.3500 N   0  0  0  0  0  0  0  0  0  0  0  0
  127.0490  131.0500   62.0640 C   0  0  0  0  0  0  0  0  0  0  0  0
  126.8820  132.7940   61.7580 S   0  0  0  0  0  0  0  0  0  0  0  0
  128.4360  133.5880   62.2680 C   0  0  0  0  0  0  0  0  0  0  0  0
  129.6250  133.1120   61.4330 C   0  0  0  0  0  0  0  0  0  0  0  0
  130.6210  132.6620   62.0020 O   0  0  0  0  0  0  0  0  0  0  0  0
  129.4830  133.2320   60.0960 N   0  0  0  0  0  0  0  0  0  0  0  0
  130.4030  132.8600   59.1270 C   0  0  0  0  0  0  0  0  0  0  0  0
  131.5470  132.2330   59.2980 N   0  0  0  0  0  0  0  0  0  0  0  0
  132.1670  132.0340   58.1510 C   0  0  0  0  0  0  0  0  0  0  0  0
  131.5210  132.5070   57.0130 C   0  0  0  0  0  0  0  0  0  0  0  0
  130.0210  133.2500   57.4810 S   0  0  0  0  0  0  0  0  0  0  0  0
  1  2  3  0
  2  3  1  0
  3  4  2  0
  4  5  1  0
  5  6  2  0
  6  7  1  0
  7  8  2  0
  8  9  1  0
  9 10  1  0
 10 11  1  0
 11 12  1  0
 12 13  1  0
 13 14  1  0
  8 15  1  0
 15 16  2  0
  4 17  1  0
 17 18  2  0
 18 19  1  0
 19 20  2  0
 20 21  1  0
 21 22  2  0
 22 23  1  0
 23 24  1  0
 24 25  1  0
 25 26  1  0
 26 27  1  0
 27 28  1  0
 22 29  1  0
 29 30  2  0
 18 31  1  0
 31 32  2  0
 32 33  1  0
 33 34  1  0
 34 35  1  0
 35 36  2  0
 35 37  1  0
 37 38  1  0
 38 39  2  0
 39 40  1  0
 40 41  2  0
 41 42  1  0
 32  3  1  0
 42 38  1  0
 16  5  1  0
 30 19  1  0
 14  9  1  0
 28 23  1  0
M  END
>  <Binding energies>  (11) 
[-9.17]

>  <Ligand effiencies>  (11) 
[-0.21325581395348836]

>  <Interactions>  (11) 
["V-A:TYR:539:CD1:4872, V-B:PRO:540:CD:9858, V-B:PRO:540:N:9855, V-A:GLU:543:CB:4905, V-B:TYR:531:CE2:9764, H-B:TYR:539:N:9841, V-B:LEU:363:CD1:8159, V-A:PRO:540:CA:4882, V-B:MET:535:CE:9806, V-B:TYR:539:CD2:9845, V-A:PRO:540:CB:4884, V-B:ASP:366:CG:8183, V-B:TYR:539:CZ:9848, V-B:HIS:456:CE1:9040, V-A:HIS:456:CE1:4069, V-B:TYR:539:C:9838, V-B:TYR:539:CE1:9846, V-B:TYR:539:CD1:9844, V-A:PRO:540:C:4880, V-A:GLU:543:CD:4907, V-A:GLU:543:CG:4906, V-B:PRO:540:CB:9856, V-A:TYR:539:CE1:4874, V-B:TYR:539:CE2:9847, V-B:TYR:539:CG:9843, V-A:ALA:541:CB:4891, H-A:ALA:541:N:4890, V-B:TYR:539:CA:9840, V-A:TYR:539:C:4866, V-A:TYR:531:CE2:4792, V-A:GLU:543:C:4901, V-A:PRO:540:N:4883, V-B:TYR:484:CZ:9317, V-B:TYR:484:CE2:9316, H-A:TYR:539:O:4867"]

$$$$
2j_Grossjean_2025
     RDKit          3D

 23 24  0  0  0  0  0  0  0  0999 V2000
  133.6870  126.0270   66.9620 C   0  0  0  0  0  0  0  0  0  0  0  0
  133.0200  125.8540   65.6110 C   0  0  0  0  0  0  0  0  0  0  0  0
  131.8120  126.4780   65.3090 C   0  0  0  0  0  0  0  0  0  0  0  0
  131.2350  126.2910   64.0440 C   0  0  0  0  0  0  0  0  0  0  0  0
  129.9000  126.9900   63.7260 C   0  0  0  0  0  0  0  0  0  0  0  0
  130.0720  127.8800   62.7480 F   0  0  0  0  0  0  0  0  0  0  0  0
  128.9940  126.0900   63.3380 F   0  0  0  0  0  0  0  0  0  0  0  0
  129.3950  127.6390   64.7770 F   0  0  0  0  0  0  0  0  0  0  0  0
  131.9080  125.4640   63.1100 C   0  0  0  0  0  0  0  0  0  0  0  0
  131.3510  125.2320   61.7730 C   0  0  0  0  0  0  0  0  0  0  0  0
  130.9120  125.0500   60.7180 N   0  0  0  0  0  0  0  0  0  0  0  0
  133.1310  124.8680   63.5010 C   0  0  0  0  0  0  0  0  0  0  0  0
  134.0650  123.8100   62.4060 S   0  0  0  0  0  0  0  0  0  0  0  0
  133.9460  122.0960   63.0230 C   0  0  0  0  0  0  0  0  0  0  0  0
  133.0790  121.1600   62.1670 C   0  0  0  0  0  0  0  0  0  0  0  0
  131.8500  121.2540   62.1800 O   0  0  0  0  0  0  0  0  0  0  0  0
  133.7710  120.2550   61.4390 N   0  0  0  0  0  0  0  0  0  0  0  0
  133.2410  119.2980   60.5850 C   0  0  0  0  0  0  0  0  0  0  0  0
  133.6130  119.0200   59.3540 N   0  0  0  0  0  0  0  0  0  0  0  0
  132.8890  118.0470   58.8360 C   0  0  0  0  0  0  0  0  0  0  0  0
  131.9000  117.5120   59.6560 C   0  0  0  0  0  0  0  0  0  0  0  0
  131.9280  118.3370   61.1860 S   0  0  0  0  0  0  0  0  0  0  0  0
  133.6740  125.0640   64.7300 N   0  0  0  0  0  0  0  0  0  0  0  0
  1  2  1  0
  2  3  2  0
  3  4  1  0
  4  5  1  0
  5  6  1  0
  5  7  1  0
  5  8  1  0
  4  9  2  0
  9 10  1  0
 10 11  3  0
  9 12  1  0
 12 13  1  0
 13 14  1  0
 14 15  1  0
 15 16  2  0
 15 17  1  0
 17 18  1  0
 18 19  2  0
 19 20  1  0
 20 21  2  0
 21 22  1  0
 12 23  2  0
 23  2  1  0
 22 18  1  0
M  END
>  <Binding energies>  (12) 
[-6.34]

>  <Ligand effiencies>  (12) 
[-0.26416666666666666]

>  <Interactions>  (12) 
["V-B:TYR:539:CD2:9845, V-A:GLU:543:CD:4907, V-B:GLU:543:CD:9879, V-B:TYR:539:CG:9843, V-A:ILE:369:CG2:3236, V-A:ARG:545:CZ:4925, V-A:SER:385:CA:3406, V-A:SER:385:CB:3408, V-A:ARG:545:CD:4922, H-A:GLY:454:N:4049, V-A:ARG:545:CG:4921, V-A:ILE:369:CD1:3238, V-A:LEU:475:CD2:4258, V-A:HIS:383:CE1:3393, V-B:TYR:539:CB:9842, H-A:TYR:484:OH:4347, V-A:LEU:373:CD2:3280, V-A:GLY:454:CA:4048, V-A:LEU:373:CG:3278, V-A:SER:385:C:3404, H-A:SER:385:O:3405, V-A:LEU:373:CD1:3279"]

$$$$
3ab_Grossjean_2025
     RDKit          3D

 33 35  0  0  0  0  0  0  0  0999 V2000
  131.8270  116.4620   62.3130 C   0  0  0  0  0  0  0  0  0  0  0  0
  132.8780  116.9650   61.5000 O   0  0  0  0  0  0  0  0  0  0  0  0
  132.6160  117.7720   60.4390 C   0  0  0  0  0  0  0  0  0  0  0  0
  132.8880  117.4730   59.2730 O   0  0  0  0  0  0  0  0  0  0  0  0
  131.9580  119.0650   60.8260 C   0  0  0  0  0  0  0  0  0  0  0  0
  130.6420  119.1130   61.3110 C   0  0  0  0  0  0  0  0  0  0  0  0
  130.0570  120.3270   61.6630 C   0  0  0  0  0  0  0  0  0  0  0  0
  130.7840  121.5210   61.5340 C   0  0  0  0  0  0  0  0  0  0  0  0
  130.2970  122.8000   61.8640 N   0  0  0  0  0  0  0  0  0  0  0  0
  130.1790  123.3980   63.0680 C   0  0  0  0  0  0  0  0  0  0  0  0
  130.4820  122.8940   64.1500 O   0  0  0  0  0  0  0  0  0  0  0  0
  129.6150  124.8200   63.0420 C   0  0  0  0  0  0  0  0  0  0  0  0
  130.9240  126.0780   63.1340 S   0  0  0  0  0  0  0  0  0  0  0  0
  131.4940  126.1330   64.8200 C   0  0  0  0  0  0  0  0  0  0  0  0
  130.5290  126.4730   65.7070 N   0  0  0  0  0  0  0  0  0  0  0  0
  130.8230  126.5490   67.0310 C   0  0  0  0  0  0  0  0  0  0  0  0
  129.6980  126.9290   67.9470 C   0  0  0  0  0  0  0  0  0  0  0  0
  129.0400  128.1610   67.8030 C   0  0  0  0  0  0  0  0  0  0  0  0
  127.9950  128.5190   68.6500 C   0  0  0  0  0  0  0  0  0  0  0  0
  127.5930  127.6480   69.6570 C   0  0  0  0  0  0  0  0  0  0  0  0
  128.2300  126.4230   69.8240 C   0  0  0  0  0  0  0  0  0  0  0  0
  129.2750  126.0690   68.9750 C   0  0  0  0  0  0  0  0  0  0  0  0
  132.1210  126.2990   67.4910 C   0  0  0  0  0  0  0  0  0  0  0  0
  133.1420  125.9640   66.5900 C   0  0  0  0  0  0  0  0  0  0  0  0
  134.5590  125.7020   67.1370 C   0  0  0  0  0  0  0  0  0  0  0  0
  135.5190  126.1100   66.3040 F   0  0  0  0  0  0  0  0  0  0  0  0
  134.7320  126.3470   68.2920 F   0  0  0  0  0  0  0  0  0  0  0  0
  134.7330  124.3950   67.3420 F   0  0  0  0  0  0  0  0  0  0  0  0
  132.8290  125.8840   65.2100 C   0  0  0  0  0  0  0  0  0  0  0  0
  133.8700  125.5930   64.2210 C   0  0  0  0  0  0  0  0  0  0  0  0
  134.6950  125.3640   63.4420 N   0  0  0  0  0  0  0  0  0  0  0  0
  132.0950  121.4760   61.0570 C   0  0  0  0  0  0  0  0  0  0  0  0
  132.6760  120.2610   60.7050 C   0  0  0  0  0  0  0  0  0  0  0  0
  1  2  1  0
  2  3  1  0
  3  4  2  0
  3  5  1  0
  5  6  2  0
  6  7  1  0
  7  8  2  0
  8  9  1  0
  9 10  1  0
 10 11  2  0
 10 12  1  0
 12 13  1  0
 13 14  1  0
 14 15  2  0
 15 16  1  0
 16 17  1  0
 17 18  2  0
 18 19  1  0
 19 20  2  0
 20 21  1  0
 21 22  2  0
 16 23  2  0
 23 24  1  0
 24 25  1  0
 25 26  1  0
 25 27  1  0
 25 28  1  0
 24 29  2  0
 29 30  1  0
 30 31  3  0
  8 32  1  0
 32 33  2  0
 33  5  1  0
 29 14  1  0
 22 17  1  0
M  END
>  <Binding energies>  (13) 
[-7.84]

>  <Ligand effiencies>  (13) 
[-0.23058823529411765]

>  <Interactions>  (13) 
["V-B:GLU:543:CB:9877, V-B:TYR:539:CD2:9845, V-B:HIS:456:CE1:9040, V-A:HIS:456:CE1:4069, V-B:TYR:539:CE2:9847, V-B:GLU:543:CD:9879, V-A:VAL:384:C:3396, V-A:TYR:484:CZ:4346, V-A:ILE:369:CG2:3236, V-A:ARG:545:CZ:4925, V-A:SER:385:CA:3406, H-A:ARG:545:NH1:4926, V-A:SER:385:CB:3408, V-A:ARG:545:CD:4922, V-A:TYR:484:CE2:4345, H-A:GLY:454:N:4049, V-B:ALA:541:CB:9863, H-A:ARG:545:NH2:4927, V-A:ARG:545:CG:4921, V-A:LEU:475:CD2:4258, V-A:HIS:383:CE1:3393, V-A:PRO:482:CB:4325, V-A:GLY:453:C:4041, V-A:GLY:453:CA:4043, V-A:GLY:454:CA:4048, V-A:ARG:545:CB:4920, V-A:ILE:455:C:4051, H-A:HIS:383:ND1:3390, V-A:THR:477:CG2:4272, V-A:GLY:454:C:4046, V-A:TYR:484:CE1:4344, V-A:ILE:455:CA:4053, V-A:ARG:545:CA:4918, V-A:VAL:452:C:4033"]

$$$$
3ac_Grossjean_2025
     RDKit          3D

 31 33  0  0  0  0  0  0  0  0999 V2000
  133.7520  125.7480   66.2840 C   0  0  0  0  0  0  0  0  0  0  0  0
  134.3610  125.6070   65.0040 O   0  0  0  0  0  0  0  0  0  0  0  0
  133.5650  125.3590   63.9020 C   0  0  0  0  0  0  0  0  0  0  0  0
  132.3260  125.9990   63.8720 C   0  0  0  0  0  0  0  0  0  0  0  0
  131.4590  125.8130   62.8000 C   0  0  0  0  0  0  0  0  0  0  0  0
  131.8150  124.9740   61.7430 C   0  0  0  0  0  0  0  0  0  0  0  0
  130.8820  124.8660   60.6950 N   0  0  0  0  0  0  0  0  0  0  0  0
  131.0940  124.5840   59.3910 C   0  0  0  0  0  0  0  0  0  0  0  0
  132.1880  124.3210   58.8890 O   0  0  0  0  0  0  0  0  0  0  0  0
  129.8500  124.5990   58.5030 C   0  0  0  0  0  0  0  0  0  0  0  0
  128.5060  123.5780   59.1830 S   0  0  0  0  0  0  0  0  0  0  0  0
  129.1010  122.7510   60.6460 C   0  0  0  0  0  0  0  0  0  0  0  0
  129.8580  121.6610   60.3710 N   0  0  0  0  0  0  0  0  0  0  0  0
  130.3870  120.9310   61.3870 C   0  0  0  0  0  0  0  0  0  0  0  0
  131.2060  119.7370   60.9980 C   0  0  0  0  0  0  0  0  0  0  0  0
  130.6960  118.4360   61.1480 C   0  0  0  0  0  0  0  0  0  0  0  0
  131.4490  117.3240   60.7840 C   0  0  0  0  0  0  0  0  0  0  0  0
  132.7280  117.4960   60.2640 C   0  0  0  0  0  0  0  0  0  0  0  0
  133.2590  118.7720   60.1100 C   0  0  0  0  0  0  0  0  0  0  0  0
  132.5020  119.8820   60.4760 C   0  0  0  0  0  0  0  0  0  0  0  0
  130.1470  121.2790   62.7200 C   0  0  0  0  0  0  0  0  0  0  0  0
  129.3480  122.3890   63.0310 C   0  0  0  0  0  0  0  0  0  0  0  0
  129.1040  122.7340   64.5140 C   0  0  0  0  0  0  0  0  0  0  0  0
  129.7290  121.9000   65.3490 F   0  0  0  0  0  0  0  0  0  0  0  0
  129.5440  123.9650   64.7800 F   0  0  0  0  0  0  0  0  0  0  0  0
  127.8000  122.6740   64.7840 F   0  0  0  0  0  0  0  0  0  0  0  0
  128.7930  123.1450   61.9680 C   0  0  0  0  0  0  0  0  0  0  0  0
  127.8920  124.2650   62.2440 C   0  0  0  0  0  0  0  0  0  0  0  0
  127.1780  125.1500   62.4620 N   0  0  0  0  0  0  0  0  0  0  0  0
  133.0630  124.3320   61.7620 C   0  0  0  0  0  0  0  0  0  0  0  0
  133.9290  124.5210   62.8360 C   0  0  0  0  0  0  0  0  0  0  0  0
  1  2  1  0
  2  3  1  0
  3  4  2  0
  4  5  1  0
  5  6  2  0
  6  7  1  0
  7  8  1  0
  8  9  2  0
  8 10  1  0
 10 11  1  0
 11 12  1  0
 12 13  2  0
 13 14  1  0
 14 15  1  0
 15 16  2  0
 16 17  1  0
 17 18  2  0
 18 19  1  0
 19 20  2  0
 14 21  2  0
 21 22  1  0
 22 23  1  0
 23 24  1  0
 23 25  1  0
 23 26  1  0
 22 27  2  0
 27 28  1  0
 28 29  3  0
  6 30  1  0
 30 31  2  0
 31  3  1  0
 27 12  1  0
 20 15  1  0
M  END
>  <Binding energies>  (14) 
[-7.49]

>  <Ligand effiencies>  (14) 
[-0.2340625]

>  <Interactions>  (14) 
["V-B:TYR:539:CD2:9845, V-B:TYR:539:CZ:9848, V-B:TYR:539:CE2:9847, V-B:GLU:543:CD:9879, V-A:ASP:366:CG:3212, V-B:GLU:543:CG:9878, V-A:VAL:384:C:3396, V-A:TYR:484:CZ:4346, H-A:ARG:545:NE:4923, V-A:LEU:475:CG:4256, V-A:ILE:369:CG2:3236, V-A:ARG:545:CZ:4925, V-A:SER:385:CA:3406, V-B:ALA:541:C:9859, H-A:ARG:545:NH1:4926, V-A:SER:385:CB:3408, V-A:ARG:545:CD:4922, V-A:TYR:484:CE2:4345, H-A:GLY:454:N:4049, V-B:ALA:541:CB:9863, H-A:ARG:545:NH2:4927, V-A:ARG:545:CG:4921, V-A:ILE:369:CD1:3238, V-A:LEU:475:CD2:4258, V-A:LEU:475:CD1:4257, V-B:ALA:541:CA:9861, V-A:HIS:383:CE1:3393, H-B:TYR:539:OH:9849"]

$$$$
3af_Grossjean_2025
     RDKit          3D

 29 31  0  0  0  0  0  0  0  0999 V2000
  128.8570  126.3580   61.4620 N   0  0  0  0  0  0  0  0  0  0  0  0
  129.2790  125.2810   61.4150 C   0  0  0  0  0  0  0  0  0  0  0  0
  129.8140  123.9180   61.3540 C   0  0  0  0  0  0  0  0  0  0  0  0
  130.8410  123.5860   60.4380 C   0  0  0  0  0  0  0  0  0  0  0  0
  131.4870  124.6230   59.4990 C   0  0  0  0  0  0  0  0  0  0  0  0
  130.7130  124.9310   58.4560 F   0  0  0  0  0  0  0  0  0  0  0  0
  131.7300  125.7520   60.1660 F   0  0  0  0  0  0  0  0  0  0  0  0
  132.6360  124.1510   59.0150 F   0  0  0  0  0  0  0  0  0  0  0  0
  131.2830  122.2550   60.3790 C   0  0  0  0  0  0  0  0  0  0  0  0
  130.7140  121.2840   61.2100 C   0  0  0  0  0  0  0  0  0  0  0  0
  131.1340  119.8450   61.1750 C   0  0  0  0  0  0  0  0  0  0  0  0
  132.4360  119.4870   60.7890 C   0  0  0  0  0  0  0  0  0  0  0  0
  132.8330  118.1520   60.7570 C   0  0  0  0  0  0  0  0  0  0  0  0
  131.9300  117.1560   61.1120 C   0  0  0  0  0  0  0  0  0  0  0  0
  130.6360  117.4830   61.5010 C   0  0  0  0  0  0  0  0  0  0  0  0
  130.2430  118.8190   61.5320 C   0  0  0  0  0  0  0  0  0  0  0  0
  129.7270  121.6060   62.0840 N   0  0  0  0  0  0  0  0  0  0  0  0
  129.2990  122.8890   62.1750 C   0  0  0  0  0  0  0  0  0  0  0  0
  128.0130  123.1190   63.3850 S   0  0  0  0  0  0  0  0  0  0  0  0
  126.7250  124.1680   62.6440 C   0  0  0  0  0  0  0  0  0  0  0  0
  126.1180  123.5270   61.3970 C   0  0  0  0  0  0  0  0  0  0  0  0
  125.1420  122.7860   61.5180 O   0  0  0  0  0  0  0  0  0  0  0  0
  126.7310  123.8330   60.2330 N   0  0  0  0  0  0  0  0  0  0  0  0
  126.4330  123.4110   58.9220 C   0  0  0  0  0  0  0  0  0  0  0  0
  125.2150  123.6170   58.2500 C   0  0  0  0  0  0  0  0  0  0  0  0
  125.0560  123.1400   56.9470 C   0  0  0  0  0  0  0  0  0  0  0  0
  126.1200  122.4660   56.3470 C   0  0  0  0  0  0  0  0  0  0  0  0
  127.3040  122.2540   56.9730 N   0  0  0  0  0  0  0  0  0  0  0  0
  127.4430  122.7240   58.2390 C   0  0  0  0  0  0  0  0  0  0  0  0
  1  2  3  0
  2  3  1  0
  3  4  2  0
  4  5  1  0
  5  6  1  0
  5  7  1  0
  5  8  1  0
  4  9  1  0
  9 10  2  0
 10 11  1  0
 11 12  2  0
 12 13  1  0
 13 14  2  0
 14 15  1  0
 15 16  2  0
 10 17  1  0
 17 18  2  0
 18 19  1  0
 19 20  1  0
 20 21  1  0
 21 22  2  0
 21 23  1  0
 23 24  1  0
 24 25  2  0
 25 26  1  0
 26 27  2  0
 27 28  1  0
 28 29  2  0
 18  3  1  0
 29 24  1  0
 16 11  1  0
M  END
>  <Binding energies>  (15) 
[-7.73]

>  <Ligand effiencies>  (15) 
[-0.25766666666666665]

>  <Interactions>  (15) 
["V-B:PRO:540:CD:9858, V-B:PRO:540:N:9855, V-B:TYR:531:CE2:9764, H-B:TYR:539:N:9841, V-B:LEU:363:CD1:8159, V-B:MET:535:CE:9806, V-B:TYR:539:CD2:9845, V-B:TYR:539:CZ:9848, V-B:TYR:539:C:9838, V-B:PRO:540:CB:9856, V-B:TYR:539:CE2:9847, V-B:GLU:543:CD:9879, V-A:ASP:366:CG:3212, V-A:ASP:366:CB:3211, V-A:VAL:384:C:3396, V-A:ILE:369:CG2:3236, V-A:SER:385:CA:3406, V-A:SER:385:CB:3408, V-B:ALA:541:CB:9863, V-A:LEU:475:CD2:4258, V-A:HIS:383:CE1:3393, V-A:PRO:482:CG:4326, V-B:PRO:540:CA:9854, H-B:ALA:541:N:9862, V-A:PRO:482:CB:4325, V-B:PRO:540:C:9852, V-A:THR:477:CG2:4272"]

$$$$
3ag_Grossjean_2025
     RDKit          3D

 30 32  0  0  0  0  0  0  0  0999 V2000
  133.4040  123.9260   62.4310 N   0  0  0  0  0  0  0  0  0  0  0  0
  132.4530  123.8260   61.7780 C   0  0  0  0  0  0  0  0  0  0  0  0
  131.2480  123.6970   60.9540 C   0  0  0  0  0  0  0  0  0  0  0  0
  130.1030  123.0240   61.4470 C   0  0  0  0  0  0  0  0  0  0  0  0
  130.0270  122.4460   62.8730 C   0  0  0  0  0  0  0  0  0  0  0  0
  128.7810  122.1430   63.2440 F   0  0  0  0  0  0  0  0  0  0  0  0
  130.7520  121.3290   62.9490 F   0  0  0  0  0  0  0  0  0  0  0  0
  130.5010  123.3290   63.7530 F   0  0  0  0  0  0  0  0  0  0  0  0
  128.9930  122.8810   60.6000 C   0  0  0  0  0  0  0  0  0  0  0  0
  129.0290  123.3830   59.2950 C   0  0  0  0  0  0  0  0  0  0  0  0
  127.8750  123.2560   58.3480 C   0  0  0  0  0  0  0  0  0  0  0  0
  127.9920  122.4980   57.1720 C   0  0  0  0  0  0  0  0  0  0  0  0
  126.9240  122.3750   56.2880 C   0  0  0  0  0  0  0  0  0  0  0  0
  125.7190  123.0120   56.5690 C   0  0  0  0  0  0  0  0  0  0  0  0
  125.5780  123.7710   57.7260 C   0  0  0  0  0  0  0  0  0  0  0  0
  126.6480  123.8920   58.6070 C   0  0  0  0  0  0  0  0  0  0  0  0
  130.1240  124.0390   58.8310 N   0  0  0  0  0  0  0  0  0  0  0  0
  131.2000  124.2070   59.6380 C   0  0  0  0  0  0  0  0  0  0  0  0
  132.5370  125.0890   58.8650 S   0  0  0  0  0  0  0  0  0  0  0  0
  131.9100  125.7580   57.2950 C   0  0  0  0  0  0  0  0  0  0  0  0
  131.1660  127.0800   57.4860 C   0  0  0  0  0  0  0  0  0  0  0  0
  130.3580  127.4590   56.6360 O   0  0  0  0  0  0  0  0  0  0  0  0
  131.4450  127.7660   58.6080 N   0  0  0  0  0  0  0  0  0  0  0  0
  130.8270  129.0290   59.0070 C   0  0  0  0  0  0  0  0  0  0  0  0
  131.5520  130.2670   58.4910 C   0  0  0  0  0  0  0  0  0  0  0  0
  130.8160  131.3740   58.0600 C   0  0  0  0  0  0  0  0  0  0  0  0
  131.4760  132.5180   57.6160 C   0  0  0  0  0  0  0  0  0  0  0  0
  132.8690  132.5540   57.6140 C   0  0  0  0  0  0  0  0  0  0  0  0
  133.6080  131.4590   58.0560 C   0  0  0  0  0  0  0  0  0  0  0  0
  132.9500  130.3160   58.5010 C   0  0  0  0  0  0  0  0  0  0  0  0
  1  2  3  0
  2  3  1  0
  3  4  2  0
  4  5  1  0
  5  6  1  0
  5  7  1  0
  5  8  1  0
  4  9  1  0
  9 10  2  0
 10 11  1  0
 11 12  2  0
 12 13  1  0
 13 14  2  0
 14 15  1  0
 15 16  2  0
 10 17  1  0
 17 18  2  0
 18 19  1  0
 19 20  1  0
 20 21  1  0
 21 22  2  0
 21 23  1  0
 23 24  1  0
 24 25  1  0
 25 26  2  0
 26 27  1  0
 27 28  2  0
 28 29  1  0
 29 30  2  0
 18  3  1  0
 30 25  1  0
 16 11  1  0
M  END
>  <Binding energies>  (16) 
[-7.96]

>  <Ligand effiencies>  (16) 
[-0.2567741935483871]

>  <Interactions>  (16) 
["V-B:PRO:540:N:9855, V-B:TYR:531:CE2:9764, V-A:PRO:540:CA:4882, V-B:MET:535:CE:9806, V-B:TYR:539:CD2:9845, V-A:PRO:540:CB:4884, V-B:TYR:539:CZ:9848, H-A:TYR:531:OH:4794, V-B:TYR:539:C:9838, V-B:TYR:539:CE1:9846, V-B:TYR:539:CD1:9844, V-B:PRO:540:CB:9856, V-B:TYR:539:CE2:9847, V-B:TYR:539:CG:9843, V-A:ASP:366:CG:3212, V-A:ASP:366:CB:3211, V-A:TYR:531:CZ:4793, V-B:ALA:541:CB:9863, V-A:LEU:475:CD2:4258, V-B:ALA:541:CA:9861, H-B:TYR:539:OH:9849, V-B:PRO:540:CA:9854, H-A:ASP:366:OD2:3214, V-B:TYR:539:CA:9840, V-A:TYR:531:CE2:4792, V-A:PRO:540:N:4883, V-A:LEU:363:CD1:3188, V-A:LEU:363:CA:3184, V-B:ILE:538:CA:9831"]

$$$$
3bc_Grossjean_2025
     RDKit          3D

 28 30  0  0  0  0  0  0  0  0999 V2000
  133.7480  125.7360   66.2020 C   0  0  0  0  0  0  0  0  0  0  0  0
  134.3240  125.5060   64.9220 O   0  0  0  0  0  0  0  0  0  0  0  0
  133.4930  125.3030   63.8360 C   0  0  0  0  0  0  0  0  0  0  0  0
  132.2640  125.9620   63.8630 C   0  0  0  0  0  0  0  0  0  0  0  0
  131.3590  125.8190   62.8140 C   0  0  0  0  0  0  0  0  0  0  0  0
  131.6710  125.0050   61.7230 C   0  0  0  0  0  0  0  0  0  0  0  0
  130.7010  124.9320   60.7060 N   0  0  0  0  0  0  0  0  0  0  0  0
  130.8690  124.7420   59.3800 C   0  0  0  0  0  0  0  0  0  0  0  0
  131.9570  124.5550   58.8310 O   0  0  0  0  0  0  0  0  0  0  0  0
  129.5690  124.7300   58.5640 C   0  0  0  0  0  0  0  0  0  0  0  0
  128.3750  123.4300   59.0250 S   0  0  0  0  0  0  0  0  0  0  0  0
  128.9130  122.7180   60.5640 C   0  0  0  0  0  0  0  0  0  0  0  0
  129.7350  121.6510   60.4130 N   0  0  0  0  0  0  0  0  0  0  0  0
  130.2230  121.0120   61.5090 C   0  0  0  0  0  0  0  0  0  0  0  0
  131.1080  119.8280   61.2560 C   0  0  0  0  0  0  0  0  0  0  0  0
  132.4240  120.0010   60.8020 C   0  0  0  0  0  0  0  0  0  0  0  0
  133.2520  118.9060   60.5650 C   0  0  0  0  0  0  0  0  0  0  0  0
  132.7700  117.6190   60.7790 C   0  0  0  0  0  0  0  0  0  0  0  0
  131.4680  117.4190   61.2260 C   0  0  0  0  0  0  0  0  0  0  0  0
  130.6440  118.5170   61.4610 C   0  0  0  0  0  0  0  0  0  0  0  0
  129.8880  121.4400   62.7980 C   0  0  0  0  0  0  0  0  0  0  0  0
  129.0600  122.5540   62.9710 C   0  0  0  0  0  0  0  0  0  0  0  0
  128.7350  122.9960   64.3970 C   0  0  0  0  0  0  0  0  0  0  0  0
  128.5600  123.2270   61.8340 C   0  0  0  0  0  0  0  0  0  0  0  0
  127.7320  124.4240   61.9910 C   0  0  0  0  0  0  0  0  0  0  0  0
  127.0760  125.3690   62.1180 N   0  0  0  0  0  0  0  0  0  0  0  0
  132.9110  124.3500   61.6820 C   0  0  0  0  0  0  0  0  0  0  0  0
  133.8130  124.4960   62.7330 C   0  0  0  0  0  0  0  0  0  0  0  0
  1  2  1  0
  2  3  1  0
  3  4  2  0
  4  5  1  0
  5  6  2  0
  6  7  1  0
  7  8  1  0
  8  9  2  0
  8 10  1  0
 10 11  1  0
 11 12  1  0
 12 13  2  0
 13 14  1  0
 14 15  1  0
 15 16  2  0
 16 17  1  0
 17 18  2  0
 18 19  1  0
 19 20  2  0
 14 21  2  0
 21 22  1  0
 22 23  1  0
 22 24  2  0
 24 25  1  0
 25 26  3  0
  6 27  1  0
 27 28  2  0
 28  3  1  0
 24 12  1  0
 20 15  1  0
M  END
>  <Binding energies>  (17) 
[-7.72]

>  <Ligand effiencies>  (17) 
[-0.26620689655172414]

>  <Interactions>  (17) 
["V-B:TYR:539:CD2:9845, V-B:TYR:539:CZ:9848, V-B:TYR:539:CE2:9847, V-B:GLU:543:CD:9879, V-A:ASP:366:CG:3212, V-B:GLU:543:CG:9878, V-A:VAL:384:C:3396, H-A:ARG:545:NE:4923, V-A:ARG:545:CZ:4925, V-A:SER:385:CA:3406, H-A:ARG:545:NH1:4926, V-A:SER:385:CB:3408, V-A:ARG:545:CD:4922, H-A:GLY:454:N:4049, V-B:ALA:541:CB:9863, H-A:ARG:545:NH2:4927, V-A:ARG:545:CG:4921, V-A:ILE:369:CD1:3238, V-A:LEU:475:CD2:4258, V-A:HIS:383:CE1:3393, H-B:TYR:539:OH:9849, V-B:PRO:540:CA:9854"]

$$$$
3bd_Grossjean_2025
     RDKit          3D

 26 28  0  0  0  0  0  0  0  0999 V2000
  134.0200  123.5790   62.8420 C   0  0  0  0  0  0  0  0  0  0  0  0
  132.7290  122.7680   62.7460 C   0  0  0  0  0  0  0  0  0  0  0  0
  132.7460  121.5820   62.0040 C   0  0  0  0  0  0  0  0  0  0  0  0
  131.5830  120.8120   61.8880 C   0  0  0  0  0  0  0  0  0  0  0  0
  131.5330  119.5290   61.1130 C   0  0  0  0  0  0  0  0  0  0  0  0
  130.4750  118.6240   61.2910 C   0  0  0  0  0  0  0  0  0  0  0  0
  130.4250  117.4300   60.5760 C   0  0  0  0  0  0  0  0  0  0  0  0
  131.4360  117.1240   59.6700 C   0  0  0  0  0  0  0  0  0  0  0  0
  132.4960  118.0020   59.4780 C   0  0  0  0  0  0  0  0  0  0  0  0
  132.5440  119.1940   60.1950 C   0  0  0  0  0  0  0  0  0  0  0  0
  130.4320  121.1960   62.5000 N   0  0  0  0  0  0  0  0  0  0  0  0
  130.3960  122.3450   63.2220 C   0  0  0  0  0  0  0  0  0  0  0  0
  128.8220  122.7430   63.9650 S   0  0  0  0  0  0  0  0  0  0  0  0
  128.0400  124.0430   62.9640 C   0  0  0  0  0  0  0  0  0  0  0  0
  127.2790  123.4670   61.7690 C   0  0  0  0  0  0  0  0  0  0  0  0
  126.2440  122.8310   61.9690 O   0  0  0  0  0  0  0  0  0  0  0  0
  127.8300  123.6980   60.5580 N   0  0  0  0  0  0  0  0  0  0  0  0
  127.3590  123.3250   59.2850 C   0  0  0  0  0  0  0  0  0  0  0  0
  128.3030  122.7660   58.4200 C   0  0  0  0  0  0  0  0  0  0  0  0
  127.9320  122.3740   57.1360 C   0  0  0  0  0  0  0  0  0  0  0  0
  126.6180  122.5510   56.7130 C   0  0  0  0  0  0  0  0  0  0  0  0
  125.6710  123.1200   57.5620 C   0  0  0  0  0  0  0  0  0  0  0  0
  126.0380  123.5110   58.8460 C   0  0  0  0  0  0  0  0  0  0  0  0
  131.5300  123.1710   63.3730 C   0  0  0  0  0  0  0  0  0  0  0  0
  131.4790  124.4090   64.1570 C   0  0  0  0  0  0  0  0  0  0  0  0
  131.4410  125.3850   64.7770 N   0  0  0  0  0  0  0  0  0  0  0  0
  1  2  1  0
  2  3  2  0
  3  4  1  0
  4  5  1  0
  5  6  2  0
  6  7  1  0
  7  8  2  0
  8  9  1  0
  9 10  2  0
  4 11  2  0
 11 12  1  0
 12 13  1  0
 13 14  1  0
 14 15  1  0
 15 16  2  0
 15 17  1  0
 17 18  1  0
 18 19  2  0
 19 20  1  0
 20 21  2  0
 21 22  1  0
 22 23  2  0
 12 24  2  0
 24 25  1  0
 25 26  3  0
 24  2  1  0
 10  5  1  0
 23 18  1  0
M  END
>  <Binding energies>  (18) 
[-8.99]

>  <Ligand effiencies>  (18) 
[-0.33296296296296296]

>  <Interactions>  (18) 
["V-B:PRO:540:CD:9858, V-B:PRO:540:N:9855, V-B:MET:535:CE:9806, V-B:TYR:539:CD2:9845, V-B:TYR:539:CZ:9848, V-B:TYR:539:C:9838, V-B:TYR:539:CE1:9846, V-B:TYR:539:CD1:9844, V-B:PRO:540:CB:9856, V-B:TYR:539:CE2:9847, V-B:GLU:543:CD:9879, V-B:TYR:539:CG:9843, V-B:ALA:541:CB:9863, V-A:ILE:369:CD1:3238, V-A:LEU:475:CD2:4258, V-A:HIS:383:CE1:3393, V-A:PRO:482:CG:4326, V-B:PRO:540:CA:9854, V-B:TYR:539:CB:9842, H-A:TYR:484:OH:4347, H-B:ALA:541:N:9862, V-A:GLY:453:C:4041, V-A:GLY:454:CA:4048, V-B:TYR:539:CA:9840"]

$$$$
3be_Grossjean_2025
     RDKit          3D

 27 29  0  0  0  0  0  0  0  0999 V2000
  134.7700  125.7100   67.2090 C   0  0  0  0  0  0  0  0  0  0  0  0
  133.5240  125.8360   66.3540 C   0  0  0  0  0  0  0  0  0  0  0  0
  132.3410  126.3770   66.8620 C   0  0  0  0  0  0  0  0  0  0  0  0
  131.2320  126.4600   66.0180 C   0  0  0  0  0  0  0  0  0  0  0  0
  131.3340  126.0050   64.7000 C   0  0  0  0  0  0  0  0  0  0  0  0
  132.5510  125.4780   64.2550 C   0  0  0  0  0  0  0  0  0  0  0  0
  132.5850  125.0280   62.9220 N   0  0  0  0  0  0  0  0  0  0  0  0
  133.5760  124.3770   62.2750 C   0  0  0  0  0  0  0  0  0  0  0  0
  134.6580  124.0700   62.7790 O   0  0  0  0  0  0  0  0  0  0  0  0
  133.2660  124.0260   60.8110 C   0  0  0  0  0  0  0  0  0  0  0  0
  132.4290  122.4230   60.5590 S   0  0  0  0  0  0  0  0  0  0  0  0
  130.7400  122.5920   61.0920 C   0  0  0  0  0  0  0  0  0  0  0  0
  129.8530  122.6750   60.0700 N   0  0  0  0  0  0  0  0  0  0  0  0
  128.5250  122.8030   60.3330 C   0  0  0  0  0  0  0  0  0  0  0  0
  127.6130  122.9030   59.1470 C   0  0  0  0  0  0  0  0  0  0  0  0
  127.9940  122.3770   57.9020 C   0  0  0  0  0  0  0  0  0  0  0  0
  127.1540  122.4680   56.7970 C   0  0  0  0  0  0  0  0  0  0  0  0
  125.9160  123.0900   56.9200 C   0  0  0  0  0  0  0  0  0  0  0  0
  125.5150  123.6210   58.1410 C   0  0  0  0  0  0  0  0  0  0  0  0
  126.3590  123.5280   59.2440 C   0  0  0  0  0  0  0  0  0  0  0  0
  128.0570  122.8540   61.6500 C   0  0  0  0  0  0  0  0  0  0  0  0
  128.9560  122.7450   62.7160 C   0  0  0  0  0  0  0  0  0  0  0  0
  128.3970  122.7890   64.1380 C   0  0  0  0  0  0  0  0  0  0  0  0
  130.3340  122.5980   62.4460 C   0  0  0  0  0  0  0  0  0  0  0  0
  131.2860  122.4280   63.5460 C   0  0  0  0  0  0  0  0  0  0  0  0
  132.0360  122.2930   64.4170 N   0  0  0  0  0  0  0  0  0  0  0  0
  133.6370  125.3920   65.0770 N   0  0  0  0  0  0  0  0  0  0  0  0
  1  2  1  0
  2  3  2  0
  3  4  1  0
  4  5  2  0
  5  6  1  0
  6  7  1  0
  7  8  1  0
  8  9  2  0
  8 10  1  0
 10 11  1  0
 11 12  1  0
 12 13  2  0
 13 14  1  0
 14 15  1  0
 15 16  2  0
 16 17  1  0
 17 18  2  0
 18 19  1  0
 19 20  2  0
 14 21  2  0
 21 22  1  0
 22 23  1  0
 22 24  2  0
 24 25  1  0
 25 26  3  0
  6 27  2  0
 27  2  1  0
 24 12  1  0
 20 15  1  0
M  END
>  <Binding energies>  (19) 
[-8.81]

>  <Ligand effiencies>  (19) 
[-0.31464285714285717]

>  <Interactions>  (19) 
["V-B:PRO:540:N:9855, V-B:MET:535:CE:9806, V-B:TYR:539:CD2:9845, V-B:TYR:539:CZ:9848, V-A:HIS:456:CE1:4069, V-B:TYR:539:C:9838, V-B:TYR:539:CD1:9844, V-A:GLU:543:CD:4907, V-B:PRO:540:CB:9856, V-B:TYR:539:CE2:9847, V-B:GLU:543:CD:9879, V-B:TYR:539:CG:9843, V-A:ASP:366:CG:3212, V-B:GLU:543:CG:9878, V-A:ARG:545:CZ:4925, V-B:ALA:541:C:9859, V-A:ARG:545:CD:4922, H-A:GLY:454:N:4049, V-B:ALA:541:CB:9863, H-A:ARG:545:NH2:4927, V-A:ARG:545:CG:4921, V-A:ILE:369:CD1:3238, V-A:LEU:475:CD2:4258, V-B:ALA:541:CA:9861, V-B:PRO:540:CA:9854, H-A:TYR:484:OH:4347, V-A:GLY:453:C:4041, H-A:ASP:366:OD2:3214, V-A:GLY:453:CA:4043, V-A:GLY:454:CA:4048, V-B:TYR:539:CA:9840, V-A:ARG:545:CB:4920, V-A:ILE:455:C:4051"]

$$$$
3bf_Grossjean_2025
     RDKit          3D

 26 28  0  0  0  0  0  0  0  0999 V2000
  134.2060  123.6440   62.6390 C   0  0  0  0  0  0  0  0  0  0  0  0
  132.8750  122.8980   62.5970 C   0  0  0  0  0  0  0  0  0  0  0  0
  132.8270  121.6710   61.9270 C   0  0  0  0  0  0  0  0  0  0  0  0
  131.6300  120.9480   61.8770 C   0  0  0  0  0  0  0  0  0  0  0  0
  131.5190  119.6170   61.1950 C   0  0  0  0  0  0  0  0  0  0  0  0
  130.4250  118.7730   61.4460 C   0  0  0  0  0  0  0  0  0  0  0  0
  130.3150  117.5370   60.8160 C   0  0  0  0  0  0  0  0  0  0  0  0
  131.3010  117.1260   59.9250 C   0  0  0  0  0  0  0  0  0  0  0  0
  132.3940  117.9430   59.6600 C   0  0  0  0  0  0  0  0  0  0  0  0
  132.5020  119.1790   60.2920 C   0  0  0  0  0  0  0  0  0  0  0  0
  130.5040  121.4210   62.4740 N   0  0  0  0  0  0  0  0  0  0  0  0
  130.5280  122.6200   63.1060 C   0  0  0  0  0  0  0  0  0  0  0  0
  128.9640  123.0810   63.8210 S   0  0  0  0  0  0  0  0  0  0  0  0
  128.1120  124.1910   62.6500 C   0  0  0  0  0  0  0  0  0  0  0  0
  127.3010  123.4850   61.5540 C   0  0  0  0  0  0  0  0  0  0  0  0
  126.3340  122.7780   61.8440 O   0  0  0  0  0  0  0  0  0  0  0  0
  127.7200  123.7340   60.2940 N   0  0  0  0  0  0  0  0  0  0  0  0
  127.2080  123.2410   59.0800 C   0  0  0  0  0  0  0  0  0  0  0  0
  125.8960  123.5960   58.7480 C   0  0  0  0  0  0  0  0  0  0  0  0
  125.3360  123.1500   57.5500 C   0  0  0  0  0  0  0  0  0  0  0  0
  126.1140  122.3570   56.7050 C   0  0  0  0  0  0  0  0  0  0  0  0
  127.3920  122.0060   56.9960 N   0  0  0  0  0  0  0  0  0  0  0  0
  127.9230  122.4480   58.1650 C   0  0  0  0  0  0  0  0  0  0  0  0
  131.7050  123.3940   63.2110 C   0  0  0  0  0  0  0  0  0  0  0  0
  131.7450  124.6530   63.9610 C   0  0  0  0  0  0  0  0  0  0  0  0
  131.7780  125.6480   64.5510 N   0  0  0  0  0  0  0  0  0  0  0  0
  1  2  1  0
  2  3  2  0
  3  4  1  0
  4  5  1  0
  5  6  2  0
  6  7  1  0
  7  8  2  0
  8  9  1  0
  9 10  2  0
  4 11  2  0
 11 12  1  0
 12 13  1  0
 13 14  1  0
 14 15  1  0
 15 16  2  0
 15 17  1  0
 17 18  1  0
 18 19  2  0
 19 20  1  0
 20 21  2  0
 21 22  1  0
 22 23  2  0
 12 24  2  0
 24 25  1  0
 25 26  3  0
 24  2  1  0
 10  5  1  0
 23 18  1  0
M  END
>  <Binding energies>  (20) 
[-9.16]

>  <Ligand effiencies>  (20) 
[-0.33925925925925926]

>  <Interactions>  (20) 
["V-B:PRO:540:CD:9858, V-B:PRO:540:N:9855, H-B:TYR:539:N:9841, V-B:LEU:363:CD1:8159, V-B:TYR:539:CD2:9845, V-B:TYR:539:C:9838, V-B:PRO:540:CB:9856, V-B:TYR:539:CE2:9847, V-B:GLU:543:CD:9879, V-B:TYR:539:CG:9843, V-B:ALA:541:CB:9863, V-A:ILE:369:CD1:3238, V-A:LEU:475:CD2:4258, V-A:HIS:383:CE1:3393, V-A:PRO:482:CG:4326, V-B:PRO:540:CA:9854, V-B:TYR:539:CB:9842, H-B:ALA:541:N:9862, V-A:PRO:482:CB:4325, V-A:GLY:453:C:4041, V-A:GLY:454:CA:4048, V-B:TYR:539:CA:9840"]

$$$$
3bg_Grossjean_2025
     RDKit          3D

 27 29  0  0  0  0  0  0  0  0999 V2000
  131.0050  127.4080   63.0160 C   0  0  0  0  0  0  0  0  0  0  0  0
  130.4440  125.9970   63.1840 C   0  0  0  0  0  0  0  0  0  0  0  0
  129.1500  125.7410   62.7210 C   0  0  0  0  0  0  0  0  0  0  0  0
  128.5990  124.4590   62.8480 C   0  0  0  0  0  0  0  0  0  0  0  0
  127.2180  124.1140   62.3610 C   0  0  0  0  0  0  0  0  0  0  0  0
  126.2230  123.6790   63.2520 C   0  0  0  0  0  0  0  0  0  0  0  0
  124.9400  123.3770   62.8080 C   0  0  0  0  0  0  0  0  0  0  0  0
  124.6290  123.5010   61.4580 C   0  0  0  0  0  0  0  0  0  0  0  0
  125.5960  123.9180   60.5510 C   0  0  0  0  0  0  0  0  0  0  0  0
  126.8790  124.2180   61.0000 C   0  0  0  0  0  0  0  0  0  0  0  0
  129.3200  123.4500   63.4040 N   0  0  0  0  0  0  0  0  0  0  0  0
  130.5800  123.6810   63.8560 C   0  0  0  0  0  0  0  0  0  0  0  0
  131.4310  122.2640   64.5330 S   0  0  0  0  0  0  0  0  0  0  0  0
  133.0330  122.0980   63.6780 C   0  0  0  0  0  0  0  0  0  0  0  0
  132.8570  121.7070   62.2080 C   0  0  0  0  0  0  0  0  0  0  0  0
  131.9760  122.2410   61.5320 O   0  0  0  0  0  0  0  0  0  0  0  0
  133.6860  120.7590   61.7380 N   0  0  0  0  0  0  0  0  0  0  0  0
  133.5780  120.1090   60.4310 C   0  0  0  0  0  0  0  0  0  0  0  0
  132.4820  119.0510   60.4140 C   0  0  0  0  0  0  0  0  0  0  0  0
  132.4230  118.1200   59.3710 C   0  0  0  0  0  0  0  0  0  0  0  0
  131.4160  117.1600   59.3490 C   0  0  0  0  0  0  0  0  0  0  0  0
  130.4760  117.1230   60.3780 C   0  0  0  0  0  0  0  0  0  0  0  0
  130.5400  118.0330   61.4310 C   0  0  0  0  0  0  0  0  0  0  0  0
  131.5480  118.9950   61.4520 C   0  0  0  0  0  0  0  0  0  0  0  0
  131.1850  124.9520   63.7740 C   0  0  0  0  0  0  0  0  0  0  0  0
  132.5460  125.1870   64.2610 C   0  0  0  0  0  0  0  0  0  0  0  0
  133.6210  125.3750   64.6460 N   0  0  0  0  0  0  0  0  0  0  0  0
  1  2  1  0
  2  3  2  0
  3  4  1  0
  4  5  1  0
  5  6  2  0
  6  7  1  0
  7  8  2  0
  8  9  1  0
  9 10  2  0
  4 11  2  0
 11 12  1  0
 12 13  1  0
 13 14  1  0
 14 15  1  0
 15 16  2  0
 15 17  1  0
 17 18  1  0
 18 19  1  0
 19 20  2  0
 20 21  1  0
 21 22  2  0
 22 23  1  0
 23 24  2  0
 12 25  2  0
 25 26  1  0
 26 27  3  0
 25  2  1  0
 10  5  1  0
 24 19  1  0
M  END
>  <Binding energies>  (21) 
[-8.51]

>  <Ligand effiencies>  (21) 
[-0.30392857142857144]

>  <Interactions>  (21) 
["V-B:TYR:539:CD2:9845, V-A:GLU:543:CD:4907, V-B:PRO:540:CB:9856, V-B:TYR:539:CE2:9847, V-B:GLU:543:CD:9879, V-B:TYR:539:CG:9843, V-B:GLU:543:CG:9878, V-A:ILE:369:CG2:3236, V-A:SER:385:CA:3406, V-B:ALA:541:C:9859, V-A:SER:385:CB:3408, H-A:GLY:454:N:4049, V-B:ALA:541:CB:9863, H-A:ARG:545:NH2:4927, V-A:LEU:475:CD2:4258, V-A:HIS:383:CE1:3393, V-A:PRO:482:CG:4326, V-B:PRO:540:CA:9854, V-B:TYR:539:CB:9842, H-A:TYR:484:OH:4347, V-A:PRO:482:CB:4325, V-A:LEU:373:CD2:3280, V-A:GLY:454:CA:4048, V-B:VAL:344:CG1:7971, V-A:SER:385:C:3404, H-A:SER:385:O:3405"]

$$$$
3ca_Grossjean_2025
     RDKit          3D

 31 33  0  0  0  0  0  0  0  0999 V2000
  129.2810  124.6540   73.1630 C   0  0  0  0  0  0  0  0  0  0  0  0
  129.8610  126.0710   73.1440 C   0  0  0  0  0  0  0  0  0  0  0  0
  128.8150  127.0080   72.9160 O   0  0  0  0  0  0  0  0  0  0  0  0
  127.9720  126.8740   71.8610 C   0  0  0  0  0  0  0  0  0  0  0  0
  126.7430  126.8320   71.9730 O   0  0  0  0  0  0  0  0  0  0  0  0
  128.6830  126.7900   70.5400 C   0  0  0  0  0  0  0  0  0  0  0  0
  129.2470  127.9490   69.9920 C   0  0  0  0  0  0  0  0  0  0  0  0
  129.9110  127.9030   68.7700 C   0  0  0  0  0  0  0  0  0  0  0  0
  130.0200  126.7020   68.0680 C   0  0  0  0  0  0  0  0  0  0  0  0
  130.7120  126.7670   66.8440 N   0  0  0  0  0  0  0  0  0  0  0  0
  130.9480  125.7960   65.9350 C   0  0  0  0  0  0  0  0  0  0  0  0
  130.5600  124.6310   66.0190 O   0  0  0  0  0  0  0  0  0  0  0  0
  131.7510  126.2330   64.7040 C   0  0  0  0  0  0  0  0  0  0  0  0
  132.7010  124.8730   63.9470 S   0  0  0  0  0  0  0  0  0  0  0  0
  131.5820  123.6700   63.2430 C   0  0  0  0  0  0  0  0  0  0  0  0
  130.2610  123.9620   63.3500 N   0  0  0  0  0  0  0  0  0  0  0  0
  129.3580  123.1070   62.8220 C   0  0  0  0  0  0  0  0  0  0  0  0
  127.9050  123.5120   62.9670 C   0  0  0  0  0  0  0  0  0  0  0  0
  129.7290  121.9260   62.1840 C   0  0  0  0  0  0  0  0  0  0  0  0
  131.0850  121.5930   62.0760 C   0  0  0  0  0  0  0  0  0  0  0  0
  131.4350  120.3100   61.3950 C   0  0  0  0  0  0  0  0  0  0  0  0
  130.6320  119.1770   61.5750 C   0  0  0  0  0  0  0  0  0  0  0  0
  130.9550  117.9740   60.9520 C   0  0  0  0  0  0  0  0  0  0  0  0
  132.0890  117.8990   60.1470 C   0  0  0  0  0  0  0  0  0  0  0  0
  132.9020  119.0140   59.9630 C   0  0  0  0  0  0  0  0  0  0  0  0
  132.5760  120.2150   60.5880 C   0  0  0  0  0  0  0  0  0  0  0  0
  132.0440  122.4910   62.6110 C   0  0  0  0  0  0  0  0  0  0  0  0
  133.4800  122.2200   62.4830 C   0  0  0  0  0  0  0  0  0  0  0  0
  134.6130  122.0060   62.3810 N   0  0  0  0  0  0  0  0  0  0  0  0
  129.4640  125.5340   68.6140 C   0  0  0  0  0  0  0  0  0  0  0  0
  128.8020  125.5820   69.8370 C   0  0  0  0  0  0  0  0  0  0  0  0
  1  2  1  0
  2  3  1  0
  3  4  1  0
  4  5  2  0
  4  6  1  0
  6  7  2  0
  7  8  1  0
  8  9  2  0
  9 10  1  0
 10 11  1  0
 11 12  2  0
 11 13  1  0
 13 14  1  0
 14 15  1  0
 15 16  2  0
 16 17  1  0
 17 18  1  0
 17 19  2  0
 19 20  1  0
 20 21  1  0
 21 22  2  0
 22 23  1  0
 23 24  2  0
 24 25  1  0
 25 26  2  0
 20 27  2  0
 27 28  1  0
 28 29  3  0
  9 30  1  0
 30 31  2  0
 31  6  1  0
 27 15  1  0
 26 21  1  0
M  END
>  <Binding energies>  (22) 
[-8.7]

>  <Ligand effiencies>  (22) 
[-0.271875]

>  <Interactions>  (22) 
["V-B:GLU:543:CB:9877, V-A:GLU:543:CB:4905, V-B:TYR:539:CD2:9845, V-B:HIS:456:CE1:9040, V-A:HIS:456:CE1:4069, V-A:GLU:543:CD:4907, V-B:TYR:539:CE2:9847, V-B:GLU:543:CD:9879, V-B:GLU:543:C:9873, V-B:GLU:543:CG:9878, V-A:HIS:456:CD2:4067, V-A:TYR:484:CZ:4346, V-A:ILE:369:CG2:3236, V-A:ARG:545:CZ:4925, V-A:SER:385:CA:3406, V-A:TYR:484:CE2:4345, H-A:GLY:454:N:4049, V-B:ALA:541:CB:9863, V-A:ILE:369:CD1:3238, V-A:LEU:475:CD2:4258, H-A:TYR:484:OH:4347, V-A:GLY:454:CA:4048, V-B:GLU:543:CA:9875, H-A:GLU:543:OE1:4908, H-A:GLU:543:OE2:4909, V-A:HIS:456:CG:4065, H-B:HIS:456:ND1:9037"]

$$$$
3ce_Grossjean_2025
     RDKit          3D

 27 29  0  0  0  0  0  0  0  0999 V2000
  134.7860  125.7050   67.2040 C   0  0  0  0  0  0  0  0  0  0  0  0
  133.6450  125.7970   66.2090 C   0  0  0  0  0  0  0  0  0  0  0  0
  132.3610  126.1830   66.6020 C   0  0  0  0  0  0  0  0  0  0  0  0
  131.3630  126.2560   65.6310 C   0  0  0  0  0  0  0  0  0  0  0  0
  131.6670  125.9440   64.3030 C   0  0  0  0  0  0  0  0  0  0  0  0
  132.9720  125.5550   63.9790 C   0  0  0  0  0  0  0  0  0  0  0  0
  133.2250  125.2730   62.6260 N   0  0  0  0  0  0  0  0  0  0  0  0
  133.3030  124.0640   62.0250 C   0  0  0  0  0  0  0  0  0  0  0  0
  133.1520  122.9820   62.5930 O   0  0  0  0  0  0  0  0  0  0  0  0
  133.5940  124.0880   60.5250 C   0  0  0  0  0  0  0  0  0  0  0  0
  132.2930  124.9520   59.5950 S   0  0  0  0  0  0  0  0  0  0  0  0
  130.8360  123.9440   59.7520 C   0  0  0  0  0  0  0  0  0  0  0  0
  130.8840  123.0640   60.7810 N   0  0  0  0  0  0  0  0  0  0  0  0
  129.8160  122.2620   60.9970 C   0  0  0  0  0  0  0  0  0  0  0  0
  129.9310  121.3110   62.1720 C   0  0  0  0  0  0  0  0  0  0  0  0
  128.6780  122.2970   60.1940 C   0  0  0  0  0  0  0  0  0  0  0  0
  128.6210  123.1820   59.1100 C   0  0  0  0  0  0  0  0  0  0  0  0
  127.3900  123.1650   58.2630 C   0  0  0  0  0  0  0  0  0  0  0  0
  126.2530  123.8770   58.6620 C   0  0  0  0  0  0  0  0  0  0  0  0
  125.1000  123.8610   57.8810 C   0  0  0  0  0  0  0  0  0  0  0  0
  125.0770  123.1260   56.6990 C   0  0  0  0  0  0  0  0  0  0  0  0
  126.1970  122.4040   56.2930 C   0  0  0  0  0  0  0  0  0  0  0  0
  127.3480  122.4230   57.0760 C   0  0  0  0  0  0  0  0  0  0  0  0
  129.7270  124.0370   58.8780 C   0  0  0  0  0  0  0  0  0  0  0  0
  129.7180  124.9950   57.7670 C   0  0  0  0  0  0  0  0  0  0  0  0
  129.7100  125.7500   56.8910 N   0  0  0  0  0  0  0  0  0  0  0  0
  133.9560  125.4890   64.9240 N   0  0  0  0  0  0  0  0  0  0  0  0
  1  2  1  0
  2  3  2  0
  3  4  1  0
  4  5  2  0
  5  6  1  0
  6  7  1  0
  7  8  1  0
  8  9  2  0
  8 10  1  0
 10 11  1  0
 11 12  1  0
 12 13  2  0
 13 14  1  0
 14 15  1  0
 14 16  2  0
 16 17  1  0
 17 18  1  0
 18 19  2  0
 19 20  1  0
 20 21  2  0
 21 22  1  0
 22 23  2  0
 17 24  2  0
 24 25  1  0
 25 26  3  0
  6 27  2  0
 27  2  1  0
 24 12  1  0
 23 18  1  0
M  END
>  <Binding energies>  (23) 
[-9.26]

>  <Ligand effiencies>  (23) 
[-0.3307142857142857]

>  <Interactions>  (23) 
["V-B:PRO:540:CD:9858, V-B:PRO:540:N:9855, V-B:TYR:531:CE2:9764, V-B:LEU:363:CD1:8159, V-B:MET:535:CE:9806, V-B:TYR:539:CD2:9845, V-B:TYR:539:CZ:9848, V-B:TYR:539:C:9838, V-B:TYR:539:CD1:9844, V-B:PRO:540:CB:9856, V-B:TYR:539:CE2:9847, V-B:TYR:539:CG:9843, V-A:ASP:366:CG:3212, H-A:ARG:545:NE:4923, V-A:ILE:369:CG2:3236, V-A:ARG:545:CZ:4925, H-A:ARG:545:NH1:4926, V-A:ARG:545:CD:4922, H-A:GLY:454:N:4049, V-B:ALA:541:CB:9863, H-A:ARG:545:NH2:4927, V-A:ARG:545:CG:4921, V-A:ILE:369:CD1:3238, V-A:LEU:475:CD2:4258, H-B:TYR:539:OH:9849, V-B:PRO:540:CA:9854, H-A:TYR:484:OH:4347, V-A:GLY:453:C:4041, H-A:ASP:366:OD1:3213, H-A:ASP:366:OD2:3214, V-A:GLY:453:CA:4043, V-A:GLY:454:CA:4048, V-B:TYR:539:CA:9840, V-A:ARG:545:CB:4920, V-A:ILE:455:C:4051, V-B:TYR:531:CZ:9765, V-B:ILE:538:CA:9831"]

$$$$
3cj_Grossjean_2025
     RDKit          3D

 25 27  0  0  0  0  0  0  0  0999 V2000
  131.7840  125.8420   57.7010 C   0  0  0  0  0  0  0  0  0  0  0  0
  130.6660  125.1910   58.4910 C   0  0  0  0  0  0  0  0  0  0  0  0
  129.4750  124.8020   57.8820 C   0  0  0  0  0  0  0  0  0  0  0  0
  128.4760  124.1830   58.6470 C   0  0  0  0  0  0  0  0  0  0  0  0
  127.2440  123.7240   57.9400 C   0  0  0  0  0  0  0  0  0  0  0  0
  125.9870  124.2120   58.3150 C   0  0  0  0  0  0  0  0  0  0  0  0
  124.8370  123.7740   57.6640 C   0  0  0  0  0  0  0  0  0  0  0  0
  124.9410  122.8390   56.6380 C   0  0  0  0  0  0  0  0  0  0  0  0
  126.1830  122.3370   56.2610 C   0  0  0  0  0  0  0  0  0  0  0  0
  127.3320  122.7770   56.9130 C   0  0  0  0  0  0  0  0  0  0  0  0
  128.7030  124.0030   60.0330 C   0  0  0  0  0  0  0  0  0  0  0  0
  127.6860  123.3880   60.8920 C   0  0  0  0  0  0  0  0  0  0  0  0
  126.8820  122.9010   61.5680 N   0  0  0  0  0  0  0  0  0  0  0  0
  129.9430  124.4240   60.5660 C   0  0  0  0  0  0  0  0  0  0  0  0
  130.4090  124.1370   62.2600 S   0  0  0  0  0  0  0  0  0  0  0  0
  129.7480  122.4850   62.6520 C   0  0  0  0  0  0  0  0  0  0  0  0
  130.7280  121.3720   62.2650 C   0  0  0  0  0  0  0  0  0  0  0  0
  131.8660  121.3730   62.7380 O   0  0  0  0  0  0  0  0  0  0  0  0
  130.2320  120.4280   61.4360 N   0  0  0  0  0  0  0  0  0  0  0  0
  130.8610  119.2570   61.0460 C   0  0  0  0  0  0  0  0  0  0  0  0
  130.3740  118.0350   61.0580 N   0  0  0  0  0  0  0  0  0  0  0  0
  131.2430  117.1640   60.5870 C   0  0  0  0  0  0  0  0  0  0  0  0
  132.4710  117.6770   60.1800 C   0  0  0  0  0  0  0  0  0  0  0  0
  132.4780  119.3970   60.4330 S   0  0  0  0  0  0  0  0  0  0  0  0
  130.9090  124.9980   59.8060 N   0  0  0  0  0  0  0  0  0  0  0  0
  1  2  1  0
  2  3  2  0
  3  4  1  0
  4  5  1  0
  5  6  2  0
  6  7  1  0
  7  8  2  0
  8  9  1  0
  9 10  2  0
  4 11  2  0
 11 12  1  0
 12 13  3  0
 11 14  1  0
 14 15  1  0
 15 16  1  0
 16 17  1  0
 17 18  2  0
 17 19  1  0
 19 20  1  0
 20 21  2  0
 21 22  1  0
 22 23  2  0
 23 24  1  0
 14 25  2  0
 25  2  1  0
 10  5  1  0
 24 20  1  0
M  END
>  <Binding energies>  (24) 
[-8.12]

>  <Ligand effiencies>  (24) 
[-0.3123076923076923]

>  <Interactions>  (24) 
["V-B:PRO:540:CD:9858, V-B:PRO:540:N:9855, V-B:TYR:531:CE2:9764, V-B:LEU:363:CD1:8159, V-B:MET:535:CE:9806, V-B:TYR:539:CD2:9845, V-B:TYR:539:CZ:9848, V-B:TYR:539:C:9838, V-B:PRO:540:CB:9856, V-B:TYR:539:CE2:9847, V-A:ASP:366:CB:3211, V-B:ALA:541:CB:9863, V-A:LEU:475:CD2:4258, V-A:HIS:383:CE1:3393, V-B:PRO:540:CA:9854, H-B:ALA:541:N:9862, H-B:TYR:539:O:9839, V-B:ILE:538:CA:9831"]

$$$$
4ba_Grossjean_2025
     RDKit          3D

 28 30  0  0  0  0  0  0  0  0999 V2000
  132.0500  117.3370   61.5640 C   0  0  0  0  0  0  0  0  0  0  0  0
  131.6190  118.6110   60.8140 C   0  0  0  0  0  0  0  0  0  0  0  0
  132.6510  119.7580   60.8270 C   0  0  0  0  0  0  0  0  0  0  0  0
  133.6140  119.7170   60.0590 O   0  0  0  0  0  0  0  0  0  0  0  0
  132.4240  120.8890   61.7880 C   0  0  0  0  0  0  0  0  0  0  0  0
  131.1150  121.2410   62.1400 C   0  0  0  0  0  0  0  0  0  0  0  0
  130.8760  122.2860   63.0270 C   0  0  0  0  0  0  0  0  0  0  0  0
  131.9390  122.9990   63.5840 C   0  0  0  0  0  0  0  0  0  0  0  0
  131.5840  124.0410   64.4620 N   0  0  0  0  0  0  0  0  0  0  0  0
  132.3470  125.0200   65.0070 C   0  0  0  0  0  0  0  0  0  0  0  0
  133.5620  125.1260   64.8360 O   0  0  0  0  0  0  0  0  0  0  0  0
  131.6300  125.9670   65.8640 C   0  0  0  0  0  0  0  0  0  0  0  0
  132.1200  126.1910   67.5420 S   0  0  0  0  0  0  0  0  0  0  0  0
  130.8280  127.3360   67.8150 C   0  0  0  0  0  0  0  0  0  0  0  0
  130.6520  127.9130   69.0020 N   0  0  0  0  0  0  0  0  0  0  0  0
  129.6180  128.7810   69.0930 C   0  0  0  0  0  0  0  0  0  0  0  0
  129.4300  129.4210   70.4570 C   0  0  0  0  0  0  0  0  0  0  0  0
  128.7680  129.0870   68.0340 C   0  0  0  0  0  0  0  0  0  0  0  0
  128.9490  128.4820   66.7790 C   0  0  0  0  0  0  0  0  0  0  0  0
  127.9900  128.8510   65.6430 C   0  0  0  0  0  0  0  0  0  0  0  0
  128.5670  128.8150   64.4400 F   0  0  0  0  0  0  0  0  0  0  0  0
  126.9650  127.9980   65.6200 F   0  0  0  0  0  0  0  0  0  0  0  0
  127.5280  130.0880   65.8280 F   0  0  0  0  0  0  0  0  0  0  0  0
  130.0270  127.5560   66.6520 C   0  0  0  0  0  0  0  0  0  0  0  0
  130.5060  126.7510   65.5540 C   0  0  0  0  0  0  0  0  0  0  0  0
  129.9110  126.7570   64.3180 N   0  0  0  0  0  0  0  0  0  0  0  0
  133.2530  122.6570   63.2310 C   0  0  0  0  0  0  0  0  0  0  0  0
  133.4900  121.6120   62.3430 C   0  0  0  0  0  0  0  0  0  0  0  0
  1  2  1  0
  2  3  1  0
  3  4  2  0
  3  5  1  0
  5  6  2  0
  6  7  1  0
  7  8  2  0
  8  9  1  0
  9 10  1  0
 10 11  2  0
 10 12  1  0
 12 13  1  0
 13 14  1  0
 14 15  2  0
 15 16  1  0
 16 17  1  0
 16 18  2  0
 18 19  1  0
 19 20  1  0
 20 21  1  0
 20 22  1  0
 20 23  1  0
 19 24  2  0
 24 25  1  0
 25 26  1  0
  8 27  1  0
 27 28  2  0
 28  5  1  0
 25 12  2  0
 24 14  1  0
M  END
>  <Binding energies>  (25) 
[-6.71]

>  <Ligand effiencies>  (25) 
[-0.21645161290322582]

>  <Interactions>  (25) 
["V-A:GLU:543:CB:4905, V-B:TYR:539:CD2:9845, V-B:HIS:456:CE1:9040, V-A:HIS:456:CE1:4069, V-A:GLU:543:CD:4907, V-A:GLU:543:CG:4906, V-B:GLU:543:CD:9879, V-A:TYR:484:CZ:4346, V-A:SER:385:CA:3406, V-A:SER:385:CB:3408, H-A:GLY:454:N:4049, V-A:LEU:475:CD2:4258, V-A:HIS:383:CE1:3393, H-A:TYR:484:OH:4347, V-A:GLY:454:CA:4048, H-B:GLU:543:OE2:9881, V-A:THR:477:CG2:4272, V-A:GLU:543:C:4901, H-B:GLU:543:OE1:9880"]

$$$$
4bb_Grossjean_2025
     RDKit          3D

 27 29  0  0  0  0  0  0  0  0999 V2000
  124.6690  123.1520   57.1810 C   0  0  0  0  0  0  0  0  0  0  0  0
  126.1320  122.7070   57.2100 C   0  0  0  0  0  0  0  0  0  0  0  0
  126.5390  121.9880   56.2950 O   0  0  0  0  0  0  0  0  0  0  0  0
  126.9900  123.1600   58.3530 C   0  0  0  0  0  0  0  0  0  0  0  0
  128.3790  123.2270   58.1860 C   0  0  0  0  0  0  0  0  0  0  0  0
  129.1980  123.6430   59.2310 C   0  0  0  0  0  0  0  0  0  0  0  0
  128.6460  124.0070   60.4610 C   0  0  0  0  0  0  0  0  0  0  0  0
  129.5650  124.4100   61.4490 N   0  0  0  0  0  0  0  0  0  0  0  0
  130.6160  125.2620   61.3670 C   0  0  0  0  0  0  0  0  0  0  0  0
  130.9640  125.8320   60.3330 O   0  0  0  0  0  0  0  0  0  0  0  0
  131.3630  125.4550   62.6130 C   0  0  0  0  0  0  0  0  0  0  0  0
  133.0870  125.0950   62.6780 S   0  0  0  0  0  0  0  0  0  0  0  0
  133.1590  125.5190   64.3730 C   0  0  0  0  0  0  0  0  0  0  0  0
  134.2990  125.4520   65.0580 N   0  0  0  0  0  0  0  0  0  0  0  0
  134.2290  125.8050   66.3630 C   0  0  0  0  0  0  0  0  0  0  0  0
  135.5390  125.7230   67.1250 C   0  0  0  0  0  0  0  0  0  0  0  0
  133.0570  126.2170   66.9920 C   0  0  0  0  0  0  0  0  0  0  0  0
  131.8530  126.2890   66.2750 C   0  0  0  0  0  0  0  0  0  0  0  0
  130.5900  126.7490   67.0100 C   0  0  0  0  0  0  0  0  0  0  0  0
  130.8550  127.4000   68.1460 F   0  0  0  0  0  0  0  0  0  0  0  0
  129.8900  127.5740   66.2310 F   0  0  0  0  0  0  0  0  0  0  0  0
  129.8380  125.6930   67.3210 F   0  0  0  0  0  0  0  0  0  0  0  0
  131.8920  125.9240   64.8950 C   0  0  0  0  0  0  0  0  0  0  0  0
  130.8840  125.8720   63.8660 C   0  0  0  0  0  0  0  0  0  0  0  0
  129.5740  126.2100   64.0940 N   0  0  0  0  0  0  0  0  0  0  0  0
  127.2560  123.9350   60.6380 C   0  0  0  0  0  0  0  0  0  0  0  0
  126.4380  123.5170   59.5910 C   0  0  0  0  0  0  0  0  0  0  0  0
  1  2  1  0
  2  3  2  0
  2  4  1  0
  4  5  2  0
  5  6  1  0
  6  7  2  0
  7  8  1  0
  8  9  1  0
  9 10  2  0
  9 11  1  0
 11 12  1  0
 12 13  1  0
 13 14  2  0
 14 15  1  0
 15 16  1  0
 15 17  2  0
 17 18  1  0
 18 19  1  0
 19 20  1  0
 19 21  1  0
 19 22  1  0
 18 23  2  0
 23 24  1  0
 24 25  1  0
  7 26  1  0
 26 27  2  0
 27  4  1  0
 24 11  2  0
 23 13  1  0
M  END
>  <Binding energies>  (26) 
[-7.33]

>  <Ligand effiencies>  (26) 
[-0.24433333333333335]

>  <Interactions>  (26) 
["V-B:PRO:540:CD:9858, V-B:GLU:543:CB:9877, V-B:PRO:540:N:9855, V-A:GLU:543:CB:4905, V-B:TYR:531:CE2:9764, H-B:TYR:539:N:9841, V-B:LEU:363:CD1:8159, V-B:TYR:539:CD2:9845, V-B:TYR:539:CZ:9848, V-A:HIS:456:CE1:4069, V-B:TYR:539:C:9838, V-A:GLU:543:CD:4907, V-B:PRO:540:CB:9856, V-B:TYR:539:CE2:9847, V-B:GLU:543:CD:9879, V-A:ASP:366:CG:3212, V-B:GLU:543:CG:9878, H-A:ARG:545:NE:4923, V-A:ARG:545:CZ:4925, H-A:ARG:545:NH1:4926, V-A:ARG:545:CD:4922, V-A:TYR:484:CE2:4345, H-A:GLY:454:N:4049, H-A:ARG:545:NH2:4927, V-A:ARG:545:CG:4921, V-B:PRO:540:CA:9854, H-A:TYR:484:OH:4347, V-A:GLY:453:C:4041, V-A:GLY:453:CA:4043, V-A:GLY:454:CA:4048, V-A:ARG:545:CB:4920, V-A:ILE:455:C:4051, H-B:GLU:543:OE2:9881, H-B:GLU:543:OE1:9880"]

$$$$
4bd_Grossjean_2025
     RDKit          3D

 24 26  0  0  0  0  0  0  0  0999 V2000
  133.2350  125.3710   65.4980 C   0  0  0  0  0  0  0  0  0  0  0  0
  132.5040  124.5590   64.4440 C   0  0  0  0  0  0  0  0  0  0  0  0
  133.1210  123.4840   63.8110 C   0  0  0  0  0  0  0  0  0  0  0  0
  132.4340  122.7440   62.8360 C   0  0  0  0  0  0  0  0  0  0  0  0
  133.1560  121.5710   62.1630 C   0  0  0  0  0  0  0  0  0  0  0  0
  132.5160  120.4090   62.3150 F   0  0  0  0  0  0  0  0  0  0  0  0
  133.2650  121.7980   60.8550 F   0  0  0  0  0  0  0  0  0  0  0  0
  134.3720  121.4270   62.6900 F   0  0  0  0  0  0  0  0  0  0  0  0
  131.0970  123.1410   62.5360 C   0  0  0  0  0  0  0  0  0  0  0  0
  130.1050  122.6360   61.6190 C   0  0  0  0  0  0  0  0  0  0  0  0
  130.3330  121.5580   60.8040 N   0  0  0  0  0  0  0  0  0  0  0  0
  128.8920  123.3450   61.6370 C   0  0  0  0  0  0  0  0  0  0  0  0
  127.6890  123.1170   60.8310 C   0  0  0  0  0  0  0  0  0  0  0  0
  126.6260  122.7990   61.3660 O   0  0  0  0  0  0  0  0  0  0  0  0
  127.8420  123.2930   59.4950 N   0  0  0  0  0  0  0  0  0  0  0  0
  126.9090  123.1160   58.4570 C   0  0  0  0  0  0  0  0  0  0  0  0
  125.6440  123.6740   58.6680 C   0  0  0  0  0  0  0  0  0  0  0  0
  124.6550  123.5610   57.6950 C   0  0  0  0  0  0  0  0  0  0  0  0
  124.9320  122.8960   56.5040 C   0  0  0  0  0  0  0  0  0  0  0  0
  126.1910  122.3470   56.2750 C   0  0  0  0  0  0  0  0  0  0  0  0
  127.1830  122.4580   57.2460 C   0  0  0  0  0  0  0  0  0  0  0  0
  128.9430  124.6640   62.8030 S   0  0  0  0  0  0  0  0  0  0  0  0
  130.5830  124.2620   63.2560 C   0  0  0  0  0  0  0  0  0  0  0  0
  131.2390  124.9610   64.1810 N   0  0  0  0  0  0  0  0  0  0  0  0
  1  2  1  0
  2  3  2  0
  3  4  1  0
  4  5  1  0
  5  6  1  0
  5  7  1  0
  5  8  1  0
  4  9  2  0
  9 10  1  0
 10 11  1  0
 10 12  2  0
 12 13  1  0
 13 14  2  0
 13 15  1  0
 15 16  1  0
 16 17  2  0
 17 18  1  0
 18 19  2  0
 19 20  1  0
 20 21  2  0
 12 22  1  0
 22 23  1  0
 23 24  2  0
 24  2  1  0
 23  9  1  0
 21 16  1  0
M  END
>  <Binding energies>  (27) 
[-6.22]

>  <Ligand effiencies>  (27) 
[-0.23037037037037036]

>  <Interactions>  (27) 
["V-B:PRO:540:CD:9858, V-B:PRO:540:N:9855, V-B:TYR:531:CE2:9764, V-B:LEU:363:CD1:8159, V-B:MET:535:CE:9806, V-B:TYR:539:CD2:9845, V-B:TYR:539:C:9838, V-B:PRO:540:CB:9856, V-B:TYR:539:CE2:9847, V-B:GLU:543:CD:9879, V-A:ILE:369:CG2:3236, V-A:ARG:545:CZ:4925, V-A:SER:385:CA:3406, V-A:SER:385:CB:3408, V-A:ILE:369:CD1:3238, V-A:LEU:475:CD2:4258, V-B:PRO:540:CA:9854, H-B:ALA:541:N:9862, H-B:TYR:539:O:9839, V-A:GLY:454:CA:4048, V-B:TYR:539:CA:9840, V-A:SER:385:C:3404, V-B:TYR:531:CZ:9765, V-B:ILE:538:CA:9831"]

$$$$
4be_Grossjean_2025
     RDKit          3D

 25 27  0  0  0  0  0  0  0  0999 V2000
  127.7200  126.2350   71.1770 C   0  0  0  0  0  0  0  0  0  0  0  0
  128.6940  126.9750   70.2800 C   0  0  0  0  0  0  0  0  0  0  0  0
  129.1320  128.2660   70.5850 C   0  0  0  0  0  0  0  0  0  0  0  0
  130.0270  128.8870   69.7130 C   0  0  0  0  0  0  0  0  0  0  0  0
  130.4570  128.2110   68.5690 C   0  0  0  0  0  0  0  0  0  0  0  0
  129.9830  126.9170   68.3260 C   0  0  0  0  0  0  0  0  0  0  0  0
  130.4480  126.2940   67.1540 N   0  0  0  0  0  0  0  0  0  0  0  0
  131.7250  126.1270   66.7280 C   0  0  0  0  0  0  0  0  0  0  0  0
  132.7140  126.5180   67.3510 O   0  0  0  0  0  0  0  0  0  0  0  0
  131.8730  125.4540   65.4340 C   0  0  0  0  0  0  0  0  0  0  0  0
  133.1890  125.9030   64.3490 S   0  0  0  0  0  0  0  0  0  0  0  0
  132.6500  124.7540   63.1470 C   0  0  0  0  0  0  0  0  0  0  0  0
  133.2950  124.6030   61.9920 N   0  0  0  0  0  0  0  0  0  0  0  0
  132.7840  123.6820   61.1420 C   0  0  0  0  0  0  0  0  0  0  0  0
  133.5310  123.5270   59.8300 C   0  0  0  0  0  0  0  0  0  0  0  0
  131.6570  122.9140   61.4200 C   0  0  0  0  0  0  0  0  0  0  0  0
  130.9730  123.0670   62.6360 C   0  0  0  0  0  0  0  0  0  0  0  0
  129.7390  122.1970   62.8990 C   0  0  0  0  0  0  0  0  0  0  0  0
  128.6000  122.8950   62.9030 F   0  0  0  0  0  0  0  0  0  0  0  0
  129.6320  121.2680   61.9500 F   0  0  0  0  0  0  0  0  0  0  0  0
  129.8490  121.6040   64.0870 F   0  0  0  0  0  0  0  0  0  0  0  0
  131.4830  124.0340   63.5530 C   0  0  0  0  0  0  0  0  0  0  0  0
  131.0570  124.4660   64.8620 C   0  0  0  0  0  0  0  0  0  0  0  0
  129.9540  123.9470   65.4910 N   0  0  0  0  0  0  0  0  0  0  0  0
  129.1040  126.3050   69.1720 N   0  0  0  0  0  0  0  0  0  0  0  0
  1  2  1  0
  2  3  2  0
  3  4  1  0
  4  5  2  0
  5  6  1  0
  6  7  1  0
  7  8  1  0
  8  9  2  0
  8 10  1  0
 10 11  1  0
 11 12  1  0
 12 13  2  0
 13 14  1  0
 14 15  1  0
 14 16  2  0
 16 17  1  0
 17 18  1  0
 18 19  1  0
 18 20  1  0
 18 21  1  0
 17 22  2  0
 22 23  1  0
 23 24  1  0
  6 25  2  0
 25  2  1  0
 23 10  2  0
 22 12  1  0
M  END
>  <Binding energies>  (28) 
[-6.04]

>  <Ligand effiencies>  (28) 
[-0.21571428571428572]

>  <Interactions>  (28) 
["V-B:GLU:543:CB:9877, V-A:GLU:543:CB:4905, V-B:HIS:456:CE1:9040, V-A:HIS:456:CE1:4069, V-A:GLU:543:CD:4907, V-B:TYR:539:CE2:9847, V-B:GLU:543:CD:9879, V-A:ASP:366:CG:3212, V-B:GLU:543:C:9873, V-B:GLY:544:C:9883, V-B:GLU:543:CG:9878, V-A:TYR:484:CZ:4346, H-A:ARG:545:NE:4923, V-A:ILE:369:CG2:3236, V-A:ARG:545:CZ:4925, V-A:TYR:484:CE2:4345, V-B:ALA:541:CB:9863, V-A:ILE:369:CD1:3238, V-A:LEU:475:CD2:4258, V-A:LEU:475:CD1:4257, V-B:ALA:541:CA:9861, V-A:ILE:369:CB:3235, H-A:TYR:484:OH:4347, H-B:GLU:543:OE2:9881, V-A:ILE:369:CG1:3237, V-A:GLU:543:C:4901"]

$$$$
4bg_Grossjean_2025
     RDKit          3D

 25 27  0  0  0  0  0  0  0  0999 V2000
  133.2810  126.4940   66.8530 C   0  0  0  0  0  0  0  0  0  0  0  0
  132.7870  125.8680   65.5610 C   0  0  0  0  0  0  0  0  0  0  0  0
  131.8090  126.4890   64.7900 C   0  0  0  0  0  0  0  0  0  0  0  0
  131.3570  125.8960   63.6000 C   0  0  0  0  0  0  0  0  0  0  0  0
  130.2780  126.6170   62.7860 C   0  0  0  0  0  0  0  0  0  0  0  0
  129.8990  127.7750   63.3310 F   0  0  0  0  0  0  0  0  0  0  0  0
  130.7400  126.8840   61.5640 F   0  0  0  0  0  0  0  0  0  0  0  0
  129.1950  125.8470   62.6900 F   0  0  0  0  0  0  0  0  0  0  0  0
  131.9440  124.6490   63.2310 C   0  0  0  0  0  0  0  0  0  0  0  0
  131.7380  123.7600   62.1140 C   0  0  0  0  0  0  0  0  0  0  0  0
  130.8220  124.0120   61.1230 N   0  0  0  0  0  0  0  0  0  0  0  0
  132.5610  122.6240   62.1270 C   0  0  0  0  0  0  0  0  0  0  0  0
  132.5970  121.5120   61.1770 C   0  0  0  0  0  0  0  0  0  0  0  0
  131.6840  121.3250   60.3720 O   0  0  0  0  0  0  0  0  0  0  0  0
  133.7020  120.7390   61.2150 N   0  0  0  0  0  0  0  0  0  0  0  0
  133.9480  119.5680   60.3730 C   0  0  0  0  0  0  0  0  0  0  0  0
  132.7420  118.6470   60.2420 C   0  0  0  0  0  0  0  0  0  0  0  0
  132.5030  117.9710   59.0420 C   0  0  0  0  0  0  0  0  0  0  0  0
  131.4220  117.1000   58.9370 C   0  0  0  0  0  0  0  0  0  0  0  0
  130.5910  116.8960   60.0370 C   0  0  0  0  0  0  0  0  0  0  0  0
  130.8330  117.5540   61.2410 C   0  0  0  0  0  0  0  0  0  0  0  0
  131.9130  118.4260   61.3450 C   0  0  0  0  0  0  0  0  0  0  0  0
  133.5970  122.6000   63.5510 S   0  0  0  0  0  0  0  0  0  0  0  0
  132.9430  124.1230   64.1060 C   0  0  0  0  0  0  0  0  0  0  0  0
  133.3660  124.6900   65.2360 N   0  0  0  0  0  0  0  0  0  0  0  0
  1  2  1  0
  2  3  2  0
  3  4  1  0
  4  5  1  0
  5  6  1  0
  5  7  1  0
  5  8  1  0
  4  9  2  0
  9 10  1  0
 10 11  1  0
 10 12  2  0
 12 13  1  0
 13 14  2  0
 13 15  1  0
 15 16  1  0
 16 17  1  0
 17 18  2  0
 18 19  1  0
 19 20  2  0
 20 21  1  0
 21 22  2  0
 12 23  1  0
 23 24  1  0
 24 25  2  0
 25  2  1  0
 24  9  1  0
 22 17  1  0
M  END
>  <Binding energies>  (29) 
[-6.38]

>  <Ligand effiencies>  (29) 
[-0.22785714285714284]

>  <Interactions>  (29) 
["V-B:TYR:539:CD2:9845, V-A:GLU:543:CD:4907, V-B:TYR:539:CE2:9847, V-B:TYR:539:CG:9843, V-A:ASP:366:CG:3212, V-A:VAL:384:C:3396, V-A:ILE:369:CG2:3236, V-A:ARG:545:CZ:4925, V-A:SER:385:CA:3406, V-A:SER:385:CB:3408, V-A:ARG:545:CD:4922, H-A:GLY:454:N:4049, V-A:ARG:545:CG:4921, V-A:ILE:369:CD1:3238, V-A:LEU:475:CD2:4258, V-A:HIS:383:CE1:3393, V-A:PRO:482:CG:4326, V-B:TYR:539:CB:9842, H-A:TYR:484:OH:4347, V-A:PRO:482:CB:4325, V-A:LEU:373:CD2:3280, V-A:GLY:454:CA:4048, V-A:LEU:373:CG:3278, V-B:VAL:344:CG1:7971, V-A:SER:385:C:3404, H-A:SER:385:O:3405, V-A:LEU:373:CD1:3279, V-A:HIS:383:CG:3389"]

$$$$
4ca_Grossjean_2025
     RDKit          3D

 34 37  0  0  0  0  0  0  0  0999 V2000
  127.9630  127.1020   72.7460 C   0  0  0  0  0  0  0  0  0  0  0  0
  129.4300  127.1080   72.3030 C   0  0  0  0  0  0  0  0  0  0  0  0
  129.8150  128.4330   71.9600 O   0  0  0  0  0  0  0  0  0  0  0  0
  129.5340  128.9510   70.7360 C   0  0  0  0  0  0  0  0  0  0  0  0
  129.1060  130.0970   70.5650 O   0  0  0  0  0  0  0  0  0  0  0  0
  129.7990  127.9920   69.6120 C   0  0  0  0  0  0  0  0  0  0  0  0
  130.9220  128.1870   68.7970 C   0  0  0  0  0  0  0  0  0  0  0  0
  131.1960  127.3120   67.7490 C   0  0  0  0  0  0  0  0  0  0  0  0
  130.3530  126.2310   67.4900 C   0  0  0  0  0  0  0  0  0  0  0  0
  130.7300  125.4060   66.4130 N   0  0  0  0  0  0  0  0  0  0  0  0
  131.7940  125.4920   65.5780 C   0  0  0  0  0  0  0  0  0  0  0  0
  132.6800  126.3420   65.6730 O   0  0  0  0  0  0  0  0  0  0  0  0
  131.8490  124.4730   64.5270 C   0  0  0  0  0  0  0  0  0  0  0  0
  131.1970  122.8630   64.8200 S   0  0  0  0  0  0  0  0  0  0  0  0
  131.5910  122.3590   63.1940 C   0  0  0  0  0  0  0  0  0  0  0  0
  131.3160  121.1300   62.7630 N   0  0  0  0  0  0  0  0  0  0  0  0
  131.6460  120.8330   61.4800 C   0  0  0  0  0  0  0  0  0  0  0  0
  131.3150  119.4430   61.0200 C   0  0  0  0  0  0  0  0  0  0  0  0
  130.1980  118.7630   61.5320 C   0  0  0  0  0  0  0  0  0  0  0  0
  129.8880  117.4710   61.1150 C   0  0  0  0  0  0  0  0  0  0  0  0
  130.6960  116.8370   60.1760 C   0  0  0  0  0  0  0  0  0  0  0  0
  131.8100  117.4860   59.6540 C   0  0  0  0  0  0  0  0  0  0  0  0
  132.1160  118.7780   60.0750 C   0  0  0  0  0  0  0  0  0  0  0  0
  132.2700  121.7650   60.6430 C   0  0  0  0  0  0  0  0  0  0  0  0
  132.5680  123.0610   61.0890 C   0  0  0  0  0  0  0  0  0  0  0  0
  133.2500  124.0320   60.1180 C   0  0  0  0  0  0  0  0  0  0  0  0
  134.3770  124.5540   60.6050 F   0  0  0  0  0  0  0  0  0  0  0  0
  133.5590  123.3980   58.9880 F   0  0  0  0  0  0  0  0  0  0  0  0
  132.4290  125.0470   59.8440 F   0  0  0  0  0  0  0  0  0  0  0  0
  132.2110  123.3890   62.4280 C   0  0  0  0  0  0  0  0  0  0  0  0
  132.3440  124.5890   63.2170 C   0  0  0  0  0  0  0  0  0  0  0  0
  132.9060  125.7390   62.7260 N   0  0  0  0  0  0  0  0  0  0  0  0
  129.2300  126.0250   68.3040 C   0  0  0  0  0  0  0  0  0  0  0  0
  128.9570  126.8990   69.3530 C   0  0  0  0  0  0  0  0  0  0  0  0
  1  2  1  0
  2  3  1  0
  3  4  1  0
  4  5  2  0
  4  6  1  0
  6  7  2  0
  7  8  1  0
  8  9  2  0
  9 10  1  0
 10 11  1  0
 11 12  2  0
 11 13  1  0
 13 14  1  0
 14 15  1  0
 15 16  2  0
 16 17  1  0
 17 18  1  0
 18 19  2  0
 19 20  1  0
 20 21  2  0
 21 22  1  0
 22 23  2  0
 17 24  2  0
 24 25  1  0
 25 26  1  0
 26 27  1  0
 26 28  1  0
 26 29  1  0
 25 30  2  0
 30 31  1  0
 31 32  1  0
  9 33  1  0
 33 34  2  0
 34  6  1  0
 31 13  2  0
 30 15  1  0
 23 18  1  0
M  END
>  <Binding energies>  (30) 
[-7.48]

>  <Ligand effiencies>  (30) 
[-0.20216216216216218]

>  <Interactions>  (30) 
["V-B:GLU:543:CB:9877, V-A:GLU:543:CB:4905, V-B:TYR:539:CD2:9845, V-B:TYR:539:CZ:9848, V-B:HIS:456:CE1:9040, V-A:HIS:456:CE1:4069, V-B:TYR:539:C:9838, V-A:GLU:543:CD:4907, V-B:TYR:539:CE2:9847, V-B:GLU:543:CD:9879, V-B:TYR:539:CG:9843, V-A:ASP:366:CG:3212, V-A:ASP:366:CA:3209, V-A:ASP:366:CB:3211, V-B:GLU:543:CG:9878, V-A:TYR:484:CZ:4346, H-A:ARG:545:NE:4923, V-A:ILE:369:CG2:3236, V-A:ARG:545:CZ:4925, V-A:TYR:484:CE2:4345, V-B:ALA:541:CB:9863, H-A:ARG:545:NH2:4927, V-A:ILE:369:CD1:3238, V-A:LEU:475:CD2:4258, V-A:HIS:383:CE1:3393, V-A:PRO:482:CG:4326, V-B:TYR:539:CB:9842, V-A:ILE:369:CB:3235, H-A:TYR:484:OH:4347, V-A:PRO:482:CB:4325, H-A:ASP:366:OD1:3213, H-A:ASP:366:OD2:3214, V-B:VAL:344:CG1:7971, H-B:GLU:543:OE2:9881, V-A:ILE:369:CG1:3237, V-A:GLU:543:C:4901"]

$$$$
4cb_Grossjean_2025
     RDKit          3D

 33 36  0  0  0  0  0  0  0  0999 V2000
  130.4850  128.9640   72.5650 C   0  0  0  0  0  0  0  0  0  0  0  0
  129.3770  128.5640   71.7700 O   0  0  0  0  0  0  0  0  0  0  0  0
  129.2100  129.0470   70.5120 C   0  0  0  0  0  0  0  0  0  0  0  0
  128.8180  130.1920   70.2680 O   0  0  0  0  0  0  0  0  0  0  0  0
  129.5490  128.0470   69.4420 C   0  0  0  0  0  0  0  0  0  0  0  0
  130.2350  128.4760   68.2990 C   0  0  0  0  0  0  0  0  0  0  0  0
  130.5710  127.5730   67.2940 C   0  0  0  0  0  0  0  0  0  0  0  0
  130.2230  126.2270   67.4080 C   0  0  0  0  0  0  0  0  0  0  0  0
  130.6240  125.4000   66.3410 N   0  0  0  0  0  0  0  0  0  0  0  0
  131.7300  125.4590   65.5600 C   0  0  0  0  0  0  0  0  0  0  0  0
  132.6390  126.2770   65.7080 O   0  0  0  0  0  0  0  0  0  0  0  0
  131.8030  124.4480   64.5020 C   0  0  0  0  0  0  0  0  0  0  0  0
  131.1660  122.8280   64.7780 S   0  0  0  0  0  0  0  0  0  0  0  0
  131.5770  122.3390   63.1500 C   0  0  0  0  0  0  0  0  0  0  0  0
  131.3200  121.1110   62.7080 N   0  0  0  0  0  0  0  0  0  0  0  0
  131.6660  120.8280   61.4250 C   0  0  0  0  0  0  0  0  0  0  0  0
  131.3590  119.4360   60.9530 C   0  0  0  0  0  0  0  0  0  0  0  0
  130.2600  118.7300   61.4680 C   0  0  0  0  0  0  0  0  0  0  0  0
  129.9720  117.4370   61.0370 C   0  0  0  0  0  0  0  0  0  0  0  0
  130.7810  116.8310   60.0810 C   0  0  0  0  0  0  0  0  0  0  0  0
  131.8780  117.5080   59.5570 C   0  0  0  0  0  0  0  0  0  0  0  0
  132.1630  118.7980   59.9920 C   0  0  0  0  0  0  0  0  0  0  0  0
  132.2880  121.7730   60.6020 C   0  0  0  0  0  0  0  0  0  0  0  0
  132.5660  123.0690   61.0600 C   0  0  0  0  0  0  0  0  0  0  0  0
  133.2470  124.0560   60.1030 C   0  0  0  0  0  0  0  0  0  0  0  0
  134.3630  124.5870   60.6080 F   0  0  0  0  0  0  0  0  0  0  0  0
  133.5790  123.4310   58.9740 F   0  0  0  0  0  0  0  0  0  0  0  0
  132.4180  125.0610   59.8250 F   0  0  0  0  0  0  0  0  0  0  0  0
  132.1920  123.3820   62.3980 C   0  0  0  0  0  0  0  0  0  0  0  0
  132.3040  124.5800   63.1960 C   0  0  0  0  0  0  0  0  0  0  0  0
  132.8540  125.7410   62.7160 N   0  0  0  0  0  0  0  0  0  0  0  0
  129.5380  125.7880   68.5510 C   0  0  0  0  0  0  0  0  0  0  0  0
  129.2050  126.6920   69.5550 C   0  0  0  0  0  0  0  0  0  0  0  0
  1  2  1  0
  2  3  1  0
  3  4  2  0
  3  5  1  0
  5  6  2  0
  6  7  1  0
  7  8  2  0
  8  9  1  0
  9 10  1  0
 10 11  2  0
 10 12  1  0
 12 13  1  0
 13 14  1  0
 14 15  2  0
 15 16  1  0
 16 17  1  0
 17 18  2  0
 18 19  1  0
 19 20  2  0
 20 21  1  0
 21 22  2  0
 16 23  2  0
 23 24  1  0
 24 25  1  0
 25 26  1  0
 25 27  1  0
 25 28  1  0
 24 29  2  0
 29 30  1  0
 30 31  1  0
  8 32  1  0
 32 33  2  0
 33  5  1  0
 30 12  2  0
 29 14  1  0
 22 17  1  0
M  END
>  <Binding energies>  (31) 
[-7.38]

>  <Ligand effiencies>  (31) 
[-0.205]

>  <Interactions>  (31) 
["V-B:GLU:543:CB:9877, V-A:GLU:543:CB:4905, V-B:TYR:539:CD2:9845, V-B:TYR:539:CZ:9848, V-B:HIS:456:CE1:9040, V-A:HIS:456:CE1:4069, V-B:TYR:539:C:9838, V-A:GLU:543:CD:4907, V-A:GLU:543:CG:4906, V-B:TYR:539:CE2:9847, V-B:GLU:543:CD:9879, V-B:TYR:539:CG:9843, V-A:ASP:366:CG:3212, V-A:ASP:366:CA:3209, V-A:ASP:366:CB:3211, V-A:TYR:484:CZ:4346, H-A:ARG:545:NE:4923, V-A:ILE:369:CG2:3236, V-A:ARG:545:CZ:4925, V-A:TYR:484:CE2:4345, V-B:ALA:541:CB:9863, H-A:ARG:545:NH2:4927, V-A:ILE:369:CD1:3238, V-A:LEU:475:CD2:4258, V-A:HIS:383:CE1:3393, V-A:PRO:482:CG:4326, V-B:TYR:539:CB:9842, V-A:ILE:369:CB:3235, H-A:TYR:484:OH:4347, V-A:PRO:482:CB:4325, H-A:ASP:366:OD1:3213, H-A:ASP:366:OD2:3214, V-B:VAL:344:CG1:7971, H-B:GLU:543:OE2:9881, V-A:ILE:369:CG1:3237, V-A:GLY:544:C:4911, V-A:GLY:544:CA:4913"]

$$$$
4cc_Grossjean_2025
     RDKit          3D

 31 34  0  0  0  0  0  0  0  0999 V2000
  129.7240  128.7500   71.9050 C   0  0  0  0  0  0  0  0  0  0  0  0
  128.8000  128.3990   70.8810 O   0  0  0  0  0  0  0  0  0  0  0  0
  129.2590  127.7520   69.7500 C   0  0  0  0  0  0  0  0  0  0  0  0
  129.0790  126.3700   69.7070 C   0  0  0  0  0  0  0  0  0  0  0  0
  129.5080  125.6320   68.6070 C   0  0  0  0  0  0  0  0  0  0  0  0
  130.1360  126.2690   67.5360 C   0  0  0  0  0  0  0  0  0  0  0  0
  130.5210  125.4450   66.4620 N   0  0  0  0  0  0  0  0  0  0  0  0
  131.5840  125.5620   65.6300 C   0  0  0  0  0  0  0  0  0  0  0  0
  132.4400  126.4420   65.7270 O   0  0  0  0  0  0  0  0  0  0  0  0
  131.6690  124.5510   64.5720 C   0  0  0  0  0  0  0  0  0  0  0  0
  131.0230  122.9320   64.8360 S   0  0  0  0  0  0  0  0  0  0  0  0
  131.4910  122.4350   63.2270 C   0  0  0  0  0  0  0  0  0  0  0  0
  131.2510  121.2030   62.7840 N   0  0  0  0  0  0  0  0  0  0  0  0
  131.6420  120.9120   61.5160 C   0  0  0  0  0  0  0  0  0  0  0  0
  131.3610  119.5140   61.0450 C   0  0  0  0  0  0  0  0  0  0  0  0
  130.2420  118.8090   61.5150 C   0  0  0  0  0  0  0  0  0  0  0  0
  129.9760  117.5120   61.0840 C   0  0  0  0  0  0  0  0  0  0  0  0
  130.8300  116.8990   60.1730 C   0  0  0  0  0  0  0  0  0  0  0  0
  131.9480  117.5740   59.6940 C   0  0  0  0  0  0  0  0  0  0  0  0
  132.2100  118.8700   60.1290 C   0  0  0  0  0  0  0  0  0  0  0  0
  132.2860  121.8530   60.7070 C   0  0  0  0  0  0  0  0  0  0  0  0
  132.5450  123.1540   61.1650 C   0  0  0  0  0  0  0  0  0  0  0  0
  133.2490  124.1370   60.2220 C   0  0  0  0  0  0  0  0  0  0  0  0
  132.5070  125.2070   59.9300 F   0  0  0  0  0  0  0  0  0  0  0  0
  134.3740  124.5750   60.7860 F   0  0  0  0  0  0  0  0  0  0  0  0
  133.5420  123.5280   59.0730 F   0  0  0  0  0  0  0  0  0  0  0  0
  132.1310  123.4740   62.4900 C   0  0  0  0  0  0  0  0  0  0  0  0
  132.2230  124.6720   63.2870 C   0  0  0  0  0  0  0  0  0  0  0  0
  132.8000  125.8280   62.8240 N   0  0  0  0  0  0  0  0  0  0  0  0
  130.3100  127.6610   67.5660 C   0  0  0  0  0  0  0  0  0  0  0  0
  129.8780  128.3940   68.6670 C   0  0  0  0  0  0  0  0  0  0  0  0
  1  2  1  0
  2  3  1  0
  3  4  2  0
  4  5  1  0
  5  6  2  0
  6  7  1  0
  7  8  1  0
  8  9  2  0
  8 10  1  0
 10 11  1  0
 11 12  1  0
 12 13  2  0
 13 14  1  0
 14 15  1  0
 15 16  2  0
 16 17  1  0
 17 18  2  0
 18 19  1  0
 19 20  2  0
 14 21  2  0
 21 22  1  0
 22 23  1  0
 23 24  1  0
 23 25  1  0
 23 26  1  0
 22 27  2  0
 27 28  1  0
 28 29  1  0
  6 30  1  0
 30 31  2  0
 31  3  1  0
 28 10  2  0
 27 12  1  0
 20 15  1  0
M  END
>  <Binding energies>  (32) 
[-7.66]

>  <Ligand effiencies>  (32) 
[-0.22529411764705884]

>  <Interactions>  (32) 
["V-B:GLU:543:CB:9877, V-A:GLU:543:CB:4905, V-B:TYR:539:CD2:9845, V-B:TYR:539:CZ:9848, V-B:HIS:456:CE1:9040, V-A:HIS:456:CE1:4069, V-B:TYR:539:C:9838, V-A:GLU:543:CD:4907, V-B:TYR:539:CE2:9847, V-B:GLU:543:CD:9879, V-A:ASP:366:CG:3212, V-A:ASP:366:CA:3209, V-A:ASP:366:CB:3211, V-A:TYR:484:CZ:4346, H-A:ARG:545:NE:4923, V-A:ILE:369:CG2:3236, V-A:ARG:545:CZ:4925, V-A:TYR:484:CE2:4345, V-B:ALA:541:CB:9863, H-A:ARG:545:NH2:4927, V-A:ILE:369:CD1:3238, V-A:LEU:475:CD2:4258, V-A:HIS:383:CE1:3393, V-A:PRO:482:CG:4326, V-B:TYR:539:CB:9842, V-A:ILE:369:CB:3235, H-A:TYR:484:OH:4347, V-A:PRO:482:CB:4325, H-A:ASP:366:OD1:3213, H-A:ASP:366:OD2:3214, V-B:VAL:344:CG1:7971, H-B:GLU:543:OE2:9881, V-A:ILE:369:CG1:3237"]

$$$$
4ce_Grossjean_2025
     RDKit          3D

 30 33  0  0  0  0  0  0  0  0999 V2000
  128.6290  125.9200   71.0720 C   0  0  0  0  0  0  0  0  0  0  0  0
  129.1240  126.5790   69.7980 C   0  0  0  0  0  0  0  0  0  0  0  0
  129.2140  127.9690   69.6820 C   0  0  0  0  0  0  0  0  0  0  0  0
  129.6860  128.5060   68.4840 C   0  0  0  0  0  0  0  0  0  0  0  0
  130.0530  127.6520   67.4420 C   0  0  0  0  0  0  0  0  0  0  0  0
  129.9310  126.2690   67.6230 C   0  0  0  0  0  0  0  0  0  0  0  0
  130.3390  125.4600   66.5470 N   0  0  0  0  0  0  0  0  0  0  0  0
  131.4090  125.6140   65.7270 C   0  0  0  0  0  0  0  0  0  0  0  0
  132.2260  126.5300   65.8320 O   0  0  0  0  0  0  0  0  0  0  0  0
  131.5490  124.6020   64.6780 C   0  0  0  0  0  0  0  0  0  0  0  0
  130.9150  122.9760   64.9240 S   0  0  0  0  0  0  0  0  0  0  0  0
  131.4180  122.4890   63.3240 C   0  0  0  0  0  0  0  0  0  0  0  0
  131.1970  121.2570   62.8710 N   0  0  0  0  0  0  0  0  0  0  0  0
  131.6110  120.9760   61.6080 C   0  0  0  0  0  0  0  0  0  0  0  0
  131.3420  119.5810   61.1270 C   0  0  0  0  0  0  0  0  0  0  0  0
  130.2020  118.8820   61.5560 C   0  0  0  0  0  0  0  0  0  0  0  0
  129.9490  117.5840   61.1190 C   0  0  0  0  0  0  0  0  0  0  0  0
  130.8340  116.9670   60.2420 C   0  0  0  0  0  0  0  0  0  0  0  0
  131.9710  117.6360   59.8020 C   0  0  0  0  0  0  0  0  0  0  0  0
  132.2220  118.9320   60.2440 C   0  0  0  0  0  0  0  0  0  0  0  0
  132.2640  121.9250   60.8140 C   0  0  0  0  0  0  0  0  0  0  0  0
  132.5070  123.2250   61.2840 C   0  0  0  0  0  0  0  0  0  0  0  0
  133.2250  124.2160   60.3610 C   0  0  0  0  0  0  0  0  0  0  0  0
  133.5420  123.6920   59.1760 F   0  0  0  0  0  0  0  0  0  0  0  0
  132.4410  125.2710   60.1350 F   0  0  0  0  0  0  0  0  0  0  0  0
  134.3580  124.6240   60.9330 F   0  0  0  0  0  0  0  0  0  0  0  0
  132.0630  123.5360   62.6020 C   0  0  0  0  0  0  0  0  0  0  0  0
  132.1250  124.7340   63.4030 C   0  0  0  0  0  0  0  0  0  0  0  0
  132.6950  125.8980   62.9550 N   0  0  0  0  0  0  0  0  0  0  0  0
  129.4750  125.7360   68.7940 N   0  0  0  0  0  0  0  0  0  0  0  0
  1  2  1  0
  2  3  2  0
  3  4  1  0
  4  5  2  0
  5  6  1  0
  6  7  1  0
  7  8  1  0
  8  9  2  0
  8 10  1  0
 10 11  1  0
 11 12  1  0
 12 13  2  0
 13 14  1  0
 14 15  1  0
 15 16  2  0
 16 17  1  0
 17 18  2  0
 18 19  1  0
 19 20  2  0
 14 21  2  0
 21 22  1  0
 22 23  1  0
 23 24  1  0
 23 25  1  0
 23 26  1  0
 22 27  2  0
 27 28  1  0
 28 29  1  0
  6 30  2  0
 30  2  1  0
 28 10  2  0
 27 12  1  0
 20 15  1  0
M  END
>  <Binding energies>  (33) 
[-7.71]

>  <Ligand effiencies>  (33) 
[-0.23363636363636364]

>  <Interactions>  (33) 
["V-B:GLU:543:CB:9877, V-A:GLU:543:CB:4905, V-B:TYR:539:CD2:9845, V-B:TYR:539:CZ:9848, V-B:HIS:456:CE1:9040, V-A:HIS:456:CE1:4069, V-B:TYR:539:C:9838, V-A:GLU:543:CD:4907, V-A:GLU:543:CG:4906, V-B:TYR:539:CE2:9847, V-B:GLU:543:CD:9879, V-A:ASP:366:CG:3212, V-B:GLU:543:C:9873, V-A:ASP:366:CA:3209, V-A:ASP:366:CB:3211, V-A:TYR:484:CZ:4346, H-A:ARG:545:NE:4923, V-A:ILE:369:CG2:3236, V-A:ARG:545:CZ:4925, V-A:TYR:484:CE2:4345, V-B:ALA:541:CB:9863, H-A:ARG:545:NH2:4927, V-A:ILE:369:CD1:3238, V-A:LEU:475:CD2:4258, V-A:HIS:383:CE1:3393, V-A:PRO:482:CG:4326, V-B:TYR:539:CB:9842, V-A:ILE:369:CB:3235, H-A:TYR:484:OH:4347, V-A:PRO:482:CB:4325, H-A:ASP:366:OD1:3213, H-A:ASP:366:OD2:3214, V-B:VAL:344:CG1:7971, H-B:GLU:543:OE2:9881, V-A:ILE:369:CG1:3237"]

$$$$
4cf_Grossjean_2025
     RDKit          3D

 29 32  0  0  0  0  0  0  0  0999 V2000
  132.7860  125.9840   62.7180 N   0  0  0  0  0  0  0  0  0  0  0  0
  132.2500  124.8340   63.2380 C   0  0  0  0  0  0  0  0  0  0  0  0
  131.7540  124.7410   64.5480 C   0  0  0  0  0  0  0  0  0  0  0  0
  131.7330  125.7680   65.5930 C   0  0  0  0  0  0  0  0  0  0  0  0
  132.7820  126.1630   66.1050 O   0  0  0  0  0  0  0  0  0  0  0  0
  130.5050  126.2360   65.9240 N   0  0  0  0  0  0  0  0  0  0  0  0
  130.1360  127.1740   66.9070 C   0  0  0  0  0  0  0  0  0  0  0  0
  130.6550  127.2330   68.2150 C   0  0  0  0  0  0  0  0  0  0  0  0
  130.1890  128.2090   69.0980 C   0  0  0  0  0  0  0  0  0  0  0  0
  129.2130  129.1020   68.6540 C   0  0  0  0  0  0  0  0  0  0  0  0
  128.6920  129.0620   67.4020 N   0  0  0  0  0  0  0  0  0  0  0  0
  129.1540  128.1060   66.5550 C   0  0  0  0  0  0  0  0  0  0  0  0
  131.1360  123.1240   64.8810 S   0  0  0  0  0  0  0  0  0  0  0  0
  131.5530  122.5850   63.2710 C   0  0  0  0  0  0  0  0  0  0  0  0
  131.3200  121.3350   62.8750 N   0  0  0  0  0  0  0  0  0  0  0  0
  131.6950  121.0060   61.6110 C   0  0  0  0  0  0  0  0  0  0  0  0
  131.4270  119.5890   61.1940 C   0  0  0  0  0  0  0  0  0  0  0  0
  130.2420  118.9410   61.5740 C   0  0  0  0  0  0  0  0  0  0  0  0
  129.9850  117.6260   61.1920 C   0  0  0  0  0  0  0  0  0  0  0  0
  130.9150  116.9410   60.4180 C   0  0  0  0  0  0  0  0  0  0  0  0
  132.0980  117.5590   60.0240 C   0  0  0  0  0  0  0  0  0  0  0  0
  132.3490  118.8730   60.4090 C   0  0  0  0  0  0  0  0  0  0  0  0
  132.2760  121.9360   60.7450 C   0  0  0  0  0  0  0  0  0  0  0  0
  132.5210  123.2570   61.1510 C   0  0  0  0  0  0  0  0  0  0  0  0
  133.1660  124.2250   60.1530 C   0  0  0  0  0  0  0  0  0  0  0  0
  132.4370  125.3220   59.9390 F   0  0  0  0  0  0  0  0  0  0  0  0
  134.3540  124.6190   60.6100 F   0  0  0  0  0  0  0  0  0  0  0  0
  133.3270  123.6190   58.9760 F   0  0  0  0  0  0  0  0  0  0  0  0
  132.1500  123.6100   62.4810 C   0  0  0  0  0  0  0  0  0  0  0  0
  1  2  1  0
  2  3  2  0
  3  4  1  0
  4  5  2  0
  4  6  1  0
  6  7  1  0
  7  8  2  0
  8  9  1  0
  9 10  2  0
 10 11  1  0
 11 12  2  0
  3 13  1  0
 13 14  1  0
 14 15  2  0
 15 16  1  0
 16 17  1  0
 17 18  2  0
 18 19  1  0
 19 20  2  0
 20 21  1  0
 21 22  2  0
 16 23  2  0
 23 24  1  0
 24 25  1  0
 25 26  1  0
 25 27  1  0
 25 28  1  0
 24 29  2  0
 29  2  1  0
 12  7  1  0
 29 14  1  0
 22 17  1  0
M  END
>  <Binding energies>  (34) 
[-7.68]

>  <Ligand effiencies>  (34) 
[-0.24]

>  <Interactions>  (34) 
["V-A:GLU:543:CB:4905, V-B:TYR:539:CD2:9845, V-B:TYR:539:CZ:9848, V-A:HIS:456:CE1:4069, V-B:TYR:539:C:9838, V-A:GLU:543:CD:4907, V-A:GLU:543:CG:4906, V-B:TYR:539:CE2:9847, V-B:GLU:543:CD:9879, V-A:ASP:366:CG:3212, V-A:ASP:366:CA:3209, V-A:ASP:366:CB:3211, V-A:TYR:484:CZ:4346, H-A:ARG:545:NE:4923, V-A:ILE:369:CG2:3236, V-A:ARG:545:CZ:4925, V-B:ALA:541:CB:9863, V-A:ILE:369:CD1:3238, V-A:LEU:475:CD2:4258, V-A:HIS:383:CE1:3393, V-A:PRO:482:CG:4326, V-B:TYR:539:CB:9842, V-A:ILE:369:CB:3235, H-A:TYR:484:OH:4347, V-A:PRO:482:CB:4325, H-A:ASP:366:OD1:3213, H-A:ASP:366:OD2:3214, V-B:VAL:344:CG1:7971, H-B:GLU:543:OE2:9881, V-A:ILE:369:CG1:3237"]

$$$$
4ci_Grossjean_2025
     RDKit          3D

 28 31  0  0  0  0  0  0  0  0999 V2000
  132.9230  125.8580   62.7000 N   0  0  0  0  0  0  0  0  0  0  0  0
  132.3800  124.7110   63.2180 C   0  0  0  0  0  0  0  0  0  0  0  0
  131.9130  124.6080   64.5380 C   0  0  0  0  0  0  0  0  0  0  0  0
  131.8910  125.6370   65.5810 C   0  0  0  0  0  0  0  0  0  0  0  0
  132.9410  126.1240   66.0080 O   0  0  0  0  0  0  0  0  0  0  0  0
  130.6590  125.9870   66.0310 N   0  0  0  0  0  0  0  0  0  0  0  0
  130.3500  126.9240   67.0080 C   0  0  0  0  0  0  0  0  0  0  0  0
  129.4350  127.9580   66.8110 C   0  0  0  0  0  0  0  0  0  0  0  0
  129.4170  128.6520   67.9980 C   0  0  0  0  0  0  0  0  0  0  0  0
  130.2760  128.0660   68.8670 O   0  0  0  0  0  0  0  0  0  0  0  0
  130.8620  126.9720   68.2270 N   0  0  0  0  0  0  0  0  0  0  0  0
  131.2720  123.0000   64.8640 S   0  0  0  0  0  0  0  0  0  0  0  0
  131.6410  122.4740   63.2380 C   0  0  0  0  0  0  0  0  0  0  0  0
  131.3700  121.2370   62.8280 N   0  0  0  0  0  0  0  0  0  0  0  0
  131.6890  120.9220   61.5470 C   0  0  0  0  0  0  0  0  0  0  0  0
  131.3750  119.5180   61.1150 C   0  0  0  0  0  0  0  0  0  0  0  0
  130.2310  118.8570   61.5920 C   0  0  0  0  0  0  0  0  0  0  0  0
  129.9340  117.5550   61.1950 C   0  0  0  0  0  0  0  0  0  0  0  0
  130.7810  116.8930   60.3130 C   0  0  0  0  0  0  0  0  0  0  0  0
  131.9230  117.5210   59.8290 C   0  0  0  0  0  0  0  0  0  0  0  0
  132.2170  118.8220   60.2290 C   0  0  0  0  0  0  0  0  0  0  0  0
  132.2970  121.8450   60.6890 C   0  0  0  0  0  0  0  0  0  0  0  0
  132.5880  123.1520   61.1110 C   0  0  0  0  0  0  0  0  0  0  0  0
  133.2540  124.1120   60.1180 C   0  0  0  0  0  0  0  0  0  0  0  0
  133.5760  123.5300   58.9620 F   0  0  0  0  0  0  0  0  0  0  0  0
  132.4240  125.1170   59.8400 F   0  0  0  0  0  0  0  0  0  0  0  0
  134.3760  124.6010   60.6460 F   0  0  0  0  0  0  0  0  0  0  0  0
  132.2440  123.4970   62.4490 C   0  0  0  0  0  0  0  0  0  0  0  0
  1  2  1  0
  2  3  2  0
  3  4  1  0
  4  5  2  0
  4  6  1  0
  6  7  1  0
  7  8  1  0
  8  9  2  0
  9 10  1  0
 10 11  1  0
  3 12  1  0
 12 13  1  0
 13 14  2  0
 14 15  1  0
 15 16  1  0
 16 17  2  0
 17 18  1  0
 18 19  2  0
 19 20  1  0
 20 21  2  0
 15 22  2  0
 22 23  1  0
 23 24  1  0
 24 25  1  0
 24 26  1  0
 24 27  1  0
 23 28  2  0
 28  2  1  0
 11  7  2  0
 28 13  1  0
 21 16  1  0
M  END
>  <Binding energies>  (35) 
[-7.6]

>  <Ligand effiencies>  (35) 
[-0.24516129032258063]

>  <Interactions>  (35) 
["V-A:GLU:543:CB:4905, V-B:TYR:539:CD2:9845, V-B:TYR:539:CZ:9848, V-B:TYR:539:C:9838, V-A:GLU:543:CD:4907, V-A:GLU:543:CG:4906, V-B:TYR:539:CE2:9847, V-B:GLU:543:CD:9879, V-A:ASP:366:CG:3212, V-A:ASP:366:CA:3209, V-A:ASP:366:CB:3211, V-A:TYR:484:CZ:4346, H-A:ARG:545:NE:4923, V-A:ILE:369:CG2:3236, V-A:ARG:545:CZ:4925, V-B:ALA:541:CB:9863, V-A:ILE:369:CD1:3238, V-A:LEU:475:CD2:4258, V-A:HIS:383:CE1:3393, V-A:PRO:482:CG:4326, V-B:TYR:539:CB:9842, V-A:ILE:369:CB:3235, H-A:TYR:484:OH:4347, V-A:PRO:482:CB:4325, H-A:ASP:366:OD1:3213, H-A:ASP:366:OD2:3214, V-B:VAL:344:CG1:7971, H-B:GLU:543:OE2:9881, V-A:ILE:369:CG1:3237"]

$$$$
8a_Ghoteimi_2023
     RDKit          3D

 40 44  0  0  0  0  0  0  0  0999 V2000
  134.0770  128.0110   75.4060 C   0  0  0  0  0  0  0  0  0  0  0  0
  132.8250  127.5750   74.6400 C   0  0  0  0  0  0  0  0  0  0  0  0
  131.7230  128.3820   75.0360 O   0  0  0  0  0  0  0  0  0  0  0  0
  130.4440  127.9710   74.8320 C   0  0  0  0  0  0  0  0  0  0  0  0
  129.6810  127.6460   75.7470 O   0  0  0  0  0  0  0  0  0  0  0  0
  130.0520  127.9460   73.3830 C   0  0  0  0  0  0  0  0  0  0  0  0
  130.4110  129.0200   72.5590 C   0  0  0  0  0  0  0  0  0  0  0  0
  130.0620  129.0280   71.2120 C   0  0  0  0  0  0  0  0  0  0  0  0
  129.3460  127.9650   70.6590 C   0  0  0  0  0  0  0  0  0  0  0  0
  129.0440  128.0830   69.2880 N   0  0  0  0  0  0  0  0  0  0  0  0
  128.5880  129.1450   68.5800 C   0  0  0  0  0  0  0  0  0  0  0  0
  128.3460  130.2500   69.0640 O   0  0  0  0  0  0  0  0  0  0  0  0
  128.3930  128.9030   67.1470 C   0  0  0  0  0  0  0  0  0  0  0  0
  127.1220  129.7470   66.2640 S   0  0  0  0  0  0  0  0  0  0  0  0
  127.5490  128.9330   64.7770 C   0  0  0  0  0  0  0  0  0  0  0  0
  126.8790  129.1460   63.6450 N   0  0  0  0  0  0  0  0  0  0  0  0
  127.2890  128.4580   62.5460 C   0  0  0  0  0  0  0  0  0  0  0  0
  126.5100  128.6970   61.2920 C   0  0  0  0  0  0  0  0  0  0  0  0
  125.4140  129.5720   61.2770 C   0  0  0  0  0  0  0  0  0  0  0  0
  124.6870  129.7820   60.1090 C   0  0  0  0  0  0  0  0  0  0  0  0
  125.0360  129.1280   58.9300 C   0  0  0  0  0  0  0  0  0  0  0  0
  124.2550  129.3950   57.8210 O   0  0  0  0  0  0  0  0  0  0  0  0
  124.0330  130.7490   57.4400 C   0  0  0  0  0  0  0  0  0  0  0  0
  126.1340  128.2560   58.9330 C   0  0  0  0  0  0  0  0  0  0  0  0
  126.8580  128.0450   60.1030 C   0  0  0  0  0  0  0  0  0  0  0  0
  128.3650  127.5690   62.5820 C   0  0  0  0  0  0  0  0  0  0  0  0
  129.0820  127.3550   63.7640 C   0  0  0  0  0  0  0  0  0  0  0  0
  130.2390  126.4230   63.7390 C   0  0  0  0  0  0  0  0  0  0  0  0
  131.5070  126.8680   64.1170 C   0  0  0  0  0  0  0  0  0  0  0  0
  132.5900  125.9930   64.1140 C   0  0  0  0  0  0  0  0  0  0  0  0
  132.4230  124.6590   63.7390 C   0  0  0  0  0  0  0  0  0  0  0  0
  133.5530  123.8650   63.7670 O   0  0  0  0  0  0  0  0  0  0  0  0
  133.9750  123.2160   62.5740 C   0  0  0  0  0  0  0  0  0  0  0  0
  131.1470  124.2080   63.3660 C   0  0  0  0  0  0  0  0  0  0  0  0
  130.0650  125.0860   63.3720 C   0  0  0  0  0  0  0  0  0  0  0  0
  128.6560  128.0480   64.9320 C   0  0  0  0  0  0  0  0  0  0  0  0
  129.1070  128.0370   66.3020 C   0  0  0  0  0  0  0  0  0  0  0  0
  130.1330  127.2340   66.7340 N   0  0  0  0  0  0  0  0  0  0  0  0
  128.9860  126.8820   71.4760 C   0  0  0  0  0  0  0  0  0  0  0  0
  129.3360  126.8760   72.8240 C   0  0  0  0  0  0  0  0  0  0  0  0
  1  2  1  0
  2  3  1  0
  3  4  1  0
  4  5  2  0
  4  6  1  0
  6  7  2  0
  7  8  1  0
  8  9  2  0
  9 10  1  0
 10 11  1  0
 11 12  2  0
 11 13  1  0
 13 14  1  0
 14 15  1  0
 15 16  2  0
 16 17  1  0
 17 18  1  0
 18 19  2  0
 19 20  1  0
 20 21  2  0
 21 22  1  0
 22 23  1  0
 21 24  1  0
 24 25  2  0
 17 26  2  0
 26 27  1  0
 27 28  1  0
 28 29  2  0
 29 30  1  0
 30 31  2  0
 31 32  1  0
 32 33  1  0
 31 34  1  0
 34 35  2  0
 27 36  2  0
 36 37  1  0
 37 38  1  0
  9 39  1  0
 39 40  2  0
 40  6  1  0
 37 13  2  0
 36 15  1  0
 25 18  1  0
 35 28  1  0
M  END
>  <Binding energies>  (36) 
[-7.09]

>  <Ligand effiencies>  (36) 
[-0.16488372093023254]

>  <Interactions>  (36) 
["H-B:TYR:484:OH:9318, V-A:GLU:543:CB:4905, V-B:ASP:366:CG:8183, V-B:HIS:456:CE1:9040, V-A:HIS:456:CE1:4069, V-A:GLU:543:CD:4907, V-A:GLU:543:CG:4906, V-B:ASP:366:CB:8182, V-B:GLU:543:CD:9879, H-B:LYS:547:NZ:9922, V-A:ARG:545:CZ:4925, H-A:GLY:454:N:4049, V-A:ILE:369:CD1:3238, V-A:GLY:454:CA:4048, H-A:GLU:543:OE1:4908, H-B:GLU:543:OE2:9881, V-A:GLU:543:C:4901, H-A:LYS:547:NZ:4950, V-A:HIS:456:CG:4065, V-A:HIS:456:CB:4064, V-A:GLY:544:C:4911, V-A:LYS:547:CD:4948"]

$$$$
8c_Ghoteimi_2023
     RDKit          3D

 34 38  0  0  0  0  0  0  0  0999 V2000
  130.2450  126.9280   75.7490 C   0  0  0  0  0  0  0  0  0  0  0  0
  129.1200  126.4940   74.9930 O   0  0  0  0  0  0  0  0  0  0  0  0
  129.1210  126.6720   73.6220 C   0  0  0  0  0  0  0  0  0  0  0  0
  129.5370  127.9170   73.1560 C   0  0  0  0  0  0  0  0  0  0  0  0
  129.5670  128.1870   71.7910 C   0  0  0  0  0  0  0  0  0  0  0  0
  129.1810  127.2170   70.8550 C   0  0  0  0  0  0  0  0  0  0  0  0
  129.2070  127.5020   69.3870 C   0  0  0  0  0  0  0  0  0  0  0  0
  130.1230  126.8810   68.5320 C   0  0  0  0  0  0  0  0  0  0  0  0
  130.1250  127.1640   67.1620 C   0  0  0  0  0  0  0  0  0  0  0  0
  131.1140  126.4960   66.2850 C   0  0  0  0  0  0  0  0  0  0  0  0
  132.4690  126.4950   66.6250 C   0  0  0  0  0  0  0  0  0  0  0  0
  133.3950  125.8590   65.8050 C   0  0  0  0  0  0  0  0  0  0  0  0
  132.9860  125.2190   64.6340 C   0  0  0  0  0  0  0  0  0  0  0  0
  133.9740  124.6120   63.8840 O   0  0  0  0  0  0  0  0  0  0  0  0
  133.7980  124.4830   62.4780 C   0  0  0  0  0  0  0  0  0  0  0  0
  131.6240  125.2240   64.2920 C   0  0  0  0  0  0  0  0  0  0  0  0
  130.6980  125.8610   65.1140 C   0  0  0  0  0  0  0  0  0  0  0  0
  129.1680  128.0910   66.6700 C   0  0  0  0  0  0  0  0  0  0  0  0
  128.8910  128.6000   65.3520 C   0  0  0  0  0  0  0  0  0  0  0  0
  129.6040  128.2080   64.2470 N   0  0  0  0  0  0  0  0  0  0  0  0
  127.8330  129.5230   65.3100 C   0  0  0  0  0  0  0  0  0  0  0  0
  127.2850  130.2280   64.1500 C   0  0  0  0  0  0  0  0  0  0  0  0
  127.7210  130.0130   63.0170 O   0  0  0  0  0  0  0  0  0  0  0  0
  126.2910  131.1100   64.4230 N   0  0  0  0  0  0  0  0  0  0  0  0
  125.6040  131.9000   63.5120 C   0  0  0  0  0  0  0  0  0  0  0  0
  126.0820  132.8660   62.7580 N   0  0  0  0  0  0  0  0  0  0  0  0
  125.1420  133.4030   62.0050 C   0  0  0  0  0  0  0  0  0  0  0  0
  123.8640  132.8710   62.1420 C   0  0  0  0  0  0  0  0  0  0  0  0
  123.9060  131.5980   63.3250 S   0  0  0  0  0  0  0  0  0  0  0  0
  127.1490  129.7820   66.9150 S   0  0  0  0  0  0  0  0  0  0  0  0
  128.2820  128.6580   67.6310 C   0  0  0  0  0  0  0  0  0  0  0  0
  128.2800  128.3900   68.9370 N   0  0  0  0  0  0  0  0  0  0  0  0
  128.7660  125.9660   71.3320 C   0  0  0  0  0  0  0  0  0  0  0  0
  128.7330  125.6930   72.6960 C   0  0  0  0  0  0  0  0  0  0  0  0
  1  2  1  0
  2  3  1  0
  3  4  2  0
  4  5  1  0
  5  6  2  0
  6  7  1  0
  7  8  2  0
  8  9  1  0
  9 10  1  0
 10 11  2  0
 11 12  1  0
 12 13  2  0
 13 14  1  0
 14 15  1  0
 13 16  1  0
 16 17  2  0
  9 18  2  0
 18 19  1  0
 19 20  1  0
 19 21  2  0
 21 22  1  0
 22 23  2  0
 22 24  1  0
 24 25  1  0
 25 26  2  0
 26 27  1  0
 27 28  2  0
 28 29  1  0
 21 30  1  0
 30 31  1  0
 31 32  2  0
  6 33  1  0
 33 34  2  0
 34  3  1  0
 32  7  1  0
 17 10  1  0
 31 18  1  0
 29 25  1  0
M  END
>  <Binding energies>  (37) 
[-7.11]

>  <Ligand effiencies>  (37) 
[-0.19216216216216217]

>  <Interactions>  (37) 
["H-B:TYR:484:OH:9318, V-B:GLY:454:CA:9019, V-B:HIS:456:CE1:9040, V-A:HIS:456:CE1:4069, V-A:GLU:543:CD:4907, V-A:GLU:543:CG:4906, V-B:GLU:543:CD:9879, V-A:ASP:366:CG:3212, V-B:GLU:543:C:9873, H-B:LYS:547:NZ:9922, V-A:ARG:545:CZ:4925, V-A:ARG:545:CD:4922, H-A:GLY:454:N:4049, V-A:ARG:545:CG:4921, V-A:ILE:369:CD1:3238, H-A:GLU:543:OE1:4908, H-A:GLU:543:OE2:4909, H-B:GLU:543:OE2:9881, V-B:TYR:484:CZ:9317, V-B:SER:385:CB:8379"]

$$$$
8d_Ghoteimi_2023
     RDKit          3D

 30 33  0  0  0  0  0  0  0  0999 V2000
  134.6320  125.4050   67.1790 C   0  0  0  0  0  0  0  0  0  0  0  0
  134.2370  125.9970   65.9490 O   0  0  0  0  0  0  0  0  0  0  0  0
  133.1830  125.5050   65.2470 C   0  0  0  0  0  0  0  0  0  0  0  0
  133.2480  124.5270   64.4990 O   0  0  0  0  0  0  0  0  0  0  0  0
  131.9350  126.2680   65.4720 C   0  0  0  0  0  0  0  0  0  0  0  0
  131.1430  127.0780   64.1190 S   0  0  0  0  0  0  0  0  0  0  0  0
  129.8780  127.6760   65.1670 C   0  0  0  0  0  0  0  0  0  0  0  0
  128.8790  128.4290   64.7050 N   0  0  0  0  0  0  0  0  0  0  0  0
  127.9460  128.8400   65.6060 C   0  0  0  0  0  0  0  0  0  0  0  0
  126.8390  129.6860   65.0630 C   0  0  0  0  0  0  0  0  0  0  0  0
  126.9520  131.0830   65.0130 C   0  0  0  0  0  0  0  0  0  0  0  0
  125.9180  131.8660   64.5070 C   0  0  0  0  0  0  0  0  0  0  0  0
  124.7450  131.2750   64.0390 C   0  0  0  0  0  0  0  0  0  0  0  0
  123.7740  132.1290   63.5540 O   0  0  0  0  0  0  0  0  0  0  0  0
  124.1360  133.1250   62.6030 C   0  0  0  0  0  0  0  0  0  0  0  0
  124.6220  129.8790   64.0820 C   0  0  0  0  0  0  0  0  0  0  0  0
  125.6590  129.0990   64.5890 C   0  0  0  0  0  0  0  0  0  0  0  0
  128.0200  128.5060   66.9610 C   0  0  0  0  0  0  0  0  0  0  0  0
  129.0660  127.7140   67.4450 C   0  0  0  0  0  0  0  0  0  0  0  0
  129.1110  127.3690   68.8850 C   0  0  0  0  0  0  0  0  0  0  0  0
  128.7640  126.0860   69.3110 C   0  0  0  0  0  0  0  0  0  0  0  0
  128.7970  125.7640   70.6650 C   0  0  0  0  0  0  0  0  0  0  0  0
  129.1810  126.7160   71.6110 C   0  0  0  0  0  0  0  0  0  0  0  0
  129.1840  126.3080   72.9300 O   0  0  0  0  0  0  0  0  0  0  0  0
  128.8000  124.9750   73.2460 C   0  0  0  0  0  0  0  0  0  0  0  0
  129.5340  128.0050   71.1790 C   0  0  0  0  0  0  0  0  0  0  0  0
  129.4990  128.3250   69.8240 C   0  0  0  0  0  0  0  0  0  0  0  0
  130.0490  127.2710   66.5220 C   0  0  0  0  0  0  0  0  0  0  0  0
  131.2320  126.4680   66.6660 C   0  0  0  0  0  0  0  0  0  0  0  0
  131.6330  125.9520   67.8720 N   0  0  0  0  0  0  0  0  0  0  0  0
  1  2  1  0
  2  3  1  0
  3  4  2  0
  3  5  1  0
  5  6  1  0
  6  7  1  0
  7  8  2  0
  8  9  1  0
  9 10  1  0
 10 11  2  0
 11 12  1  0
 12 13  2  0
 13 14  1  0
 14 15  1  0
 13 16  1  0
 16 17  2  0
  9 18  2  0
 18 19  1  0
 19 20  1  0
 20 21  2  0
 21 22  1  0
 22 23  2  0
 23 24  1  0
 24 25  1  0
 23 26  1  0
 26 27  2  0
 19 28  2  0
 28 29  1  0
 29 30  1  0
 29  5  2  0
 28  7  1  0
 17 10  1  0
 27 20  1  0
M  END
>  <Binding energies>  (38) 
[-6.47]

>  <Ligand effiencies>  (38) 
[-0.2021875]

>  <Interactions>  (38) 
["V-B:GLU:543:CB:9877, H-B:GLY:454:N:9020, V-B:GLY:454:CA:9019, V-B:HIS:456:CE1:9040, V-A:HIS:456:CE1:4069, V-A:GLU:543:CD:4907, V-B:LEU:475:CD1:9228, V-B:GLU:543:CD:9879, V-B:LYS:547:CE:9921, V-B:GLU:543:C:9873, V-B:ARG:545:CZ:9897, V-A:HIS:456:CD2:4067, V-A:TYR:484:CZ:4346, H-A:ARG:545:NE:4923, V-A:ARG:545:CZ:4925, H-A:ARG:545:NH1:4926, V-A:ARG:545:CD:4922, V-A:TYR:484:CE2:4345, H-A:GLY:454:N:4049, H-A:ARG:545:NH2:4927, V-A:ARG:545:CG:4921, H-A:TYR:484:OH:4347, V-A:GLY:453:C:4041, V-A:GLY:453:CA:4043, V-A:GLY:454:CA:4048, V-A:ILE:455:C:4051, H-A:HIS:456:NE2:4070, V-B:SER:385:CB:8379, V-A:GLY:454:C:4046"]

$$$$
9a_Ghoteimi_2023
     RDKit          3D

 48 54  0  0  0  0  0  0  0  0999 V2000
  128.5780  132.6460   75.0110 C   0  0  0  0  0  0  0  0  0  0  0  0
  129.0810  131.3430   74.3800 C   0  0  0  0  0  0  0  0  0  0  0  0
  128.3910  130.2400   74.9560 O   0  0  0  0  0  0  0  0  0  0  0  0
  128.8480  128.9710   74.8040 C   0  0  0  0  0  0  0  0  0  0  0  0
  129.0250  128.1940   75.7480 O   0  0  0  0  0  0  0  0  0  0  0  0
  129.1250  128.6070   73.3740 C   0  0  0  0  0  0  0  0  0  0  0  0
  128.3010  127.6720   72.7340 C   0  0  0  0  0  0  0  0  0  0  0  0
  128.5320  127.3120   71.4100 C   0  0  0  0  0  0  0  0  0  0  0  0
  129.5890  127.8780   70.6970 C   0  0  0  0  0  0  0  0  0  0  0  0
  129.7290  127.4400   69.3660 N   0  0  0  0  0  0  0  0  0  0  0  0
  129.5300  128.1000   68.1980 C   0  0  0  0  0  0  0  0  0  0  0  0
  129.1720  129.2750   68.1200 O   0  0  0  0  0  0  0  0  0  0  0  0
  129.7810  127.3160   66.9850 C   0  0  0  0  0  0  0  0  0  0  0  0
  130.3090  125.6370   67.1040 S   0  0  0  0  0  0  0  0  0  0  0  0
  130.3490  125.4790   65.3630 C   0  0  0  0  0  0  0  0  0  0  0  0
  130.6830  124.3320   64.7730 N   0  0  0  0  0  0  0  0  0  0  0  0
  130.6710  124.3110   63.4140 C   0  0  0  0  0  0  0  0  0  0  0  0
  131.0390  123.0110   62.7740 C   0  0  0  0  0  0  0  0  0  0  0  0
  130.1700  121.9160   62.8380 C   0  0  0  0  0  0  0  0  0  0  0  0
  130.5030  120.7020   62.2440 C   0  0  0  0  0  0  0  0  0  0  0  0
  131.7140  120.5420   61.5520 C   0  0  0  0  0  0  0  0  0  0  0  0
  132.0720  119.3230   60.9660 N   0  0  0  0  0  0  0  0  0  0  0  0
  133.0330  119.2560   59.8470 C   0  0  0  0  0  0  0  0  0  0  0  0
  133.0290  117.9050   59.1020 C   0  0  0  0  0  0  0  0  0  0  0  0
  133.2410  116.8440   60.0190 O   0  0  0  0  0  0  0  0  0  0  0  0
  132.2240  116.8000   61.0070 C   0  0  0  0  0  0  0  0  0  0  0  0
  132.2110  118.1170   61.8090 C   0  0  0  0  0  0  0  0  0  0  0  0
  132.5880  121.6380   61.5030 C   0  0  0  0  0  0  0  0  0  0  0  0
  132.2550  122.8500   62.1000 C   0  0  0  0  0  0  0  0  0  0  0  0
  130.3540  125.4390   62.6540 C   0  0  0  0  0  0  0  0  0  0  0  0
  130.0230  126.6510   63.2690 C   0  0  0  0  0  0  0  0  0  0  0  0
  129.7300  127.8290   62.4140 C   0  0  0  0  0  0  0  0  0  0  0  0
  128.8350  127.7270   61.3450 C   0  0  0  0  0  0  0  0  0  0  0  0
  128.5520  128.8360   60.5530 C   0  0  0  0  0  0  0  0  0  0  0  0
  129.1410  130.0820   60.8190 C   0  0  0  0  0  0  0  0  0  0  0  0
  128.8800  131.2060   60.0310 N   0  0  0  0  0  0  0  0  0  0  0  0
  129.4410  131.2740   58.6670 C   0  0  0  0  0  0  0  0  0  0  0  0
  128.7790  132.3560   57.7880 C   0  0  0  0  0  0  0  0  0  0  0  0
  128.8560  133.6190   58.4310 O   0  0  0  0  0  0  0  0  0  0  0  0
  128.1930  133.6100   59.6850 C   0  0  0  0  0  0  0  0  0  0  0  0
  128.8400  132.5610   60.6160 C   0  0  0  0  0  0  0  0  0  0  0  0
  130.0350  130.1730   61.8960 C   0  0  0  0  0  0  0  0  0  0  0  0
  130.3220  129.0640   62.6860 C   0  0  0  0  0  0  0  0  0  0  0  0
  129.9930  126.6850   64.6930 C   0  0  0  0  0  0  0  0  0  0  0  0
  129.6500  127.7130   65.6450 C   0  0  0  0  0  0  0  0  0  0  0  0
  129.2200  128.9580   65.2650 N   0  0  0  0  0  0  0  0  0  0  0  0
  130.4190  128.8190   71.3290 C   0  0  0  0  0  0  0  0  0  0  0  0
  130.1860  129.1770   72.6540 C   0  0  0  0  0  0  0  0  0  0  0  0
  1  2  1  0
  2  3  1  0
  3  4  1  0
  4  5  2  0
  4  6  1  0
  6  7  2  0
  7  8  1  0
  8  9  2  0
  9 10  1  0
 10 11  1  0
 11 12  2  0
 11 13  1  0
 13 14  1  0
 14 15  1  0
 15 16  2  0
 16 17  1  0
 17 18  1  0
 18 19  2  0
 19 20  1  0
 20 21  2  0
 21 22  1  0
 22 23  1  0
 23 24  1  0
 24 25  1  0
 25 26  1  0
 26 27  1  0
 21 28  1  0
 28 29  2  0
 17 30  2  0
 30 31  1  0
 31 32  1  0
 32 33  2  0
 33 34  1  0
 34 35  2  0
 35 36  1  0
 36 37  1  0
 37 38  1  0
 38 39  1  0
 39 40  1  0
 40 41  1  0
 35 42  1  0
 42 43  2  0
 31 44  2  0
 44 45  1  0
 45 46  1  0
  9 47  1  0
 47 48  2  0
 48  6  1  0
 45 13  2  0
 44 15  1  0
 29 18  1  0
 43 32  1  0
 27 22  1  0
 41 36  1  0
M  END
>  <Binding energies>  (39) 
[-2.71]

>  <Ligand effiencies>  (39) 
[-0.053137254901960786]

>  <Interactions>  (39) 
["V-A:TYR:539:CD1:4872, V-A:GLU:543:CB:4905, V-B:TYR:539:CD2:9845, V-B:HIS:456:CE1:9040, V-A:HIS:456:CE1:4069, V-A:GLU:543:CD:4907, V-A:GLU:543:CG:4906, V-A:TYR:539:CE1:4874, V-B:TYR:539:CE2:9847, V-B:GLU:543:CD:9879, V-B:HIS:456:CD2:9038, H-B:LYS:547:NZ:9922, V-A:VAL:384:C:3396, V-A:TYR:484:CZ:4346, V-A:ILE:369:CG2:3236, V-A:SER:385:CA:3406, V-A:SER:385:CB:3408, V-A:TYR:484:CE2:4345, V-B:ALA:541:CB:9863, V-A:LEU:475:CD2:4258, V-A:HIS:383:CE1:3393, H-A:TYR:484:OH:4347, V-A:LEU:373:CD2:3280, V-A:LEU:373:CG:3278, V-A:LEU:373:CD1:3279, H-A:GLU:543:OE1:4908, H-A:GLU:543:OE2:4909, H-A:HIS:383:ND1:3390, V-A:THR:477:CG2:4272, V-A:TYR:539:C:4866, V-A:GLU:543:C:4901, H-A:HIS:456:NE2:4070, H-A:LYS:547:NZ:4950, V-A:LYS:547:CE:4949"]

$$$$
9b_Ghoteimi_2023
     RDKit          3D

 42 48  0  0  0  0  0  0  0  0999 V2000
  131.3950  125.7720   61.2970 N   0  0  0  0  0  0  0  0  0  0  0  0
  131.4800  125.1750   62.5300 C   0  0  0  0  0  0  0  0  0  0  0  0
  131.9780  123.8770   62.7280 C   0  0  0  0  0  0  0  0  0  0  0  0
  132.5080  122.9400   61.7340 C   0  0  0  0  0  0  0  0  0  0  0  0
  132.9940  123.3510   60.6780 O   0  0  0  0  0  0  0  0  0  0  0  0
  132.4130  121.6270   62.0620 N   0  0  0  0  0  0  0  0  0  0  0  0
  132.8210  120.5340   61.3080 C   0  0  0  0  0  0  0  0  0  0  0  0
  131.9960  119.4420   61.0430 C   0  0  0  0  0  0  0  0  0  0  0  0
  132.7610  118.5940   60.2770 C   0  0  0  0  0  0  0  0  0  0  0  0
  133.9840  119.1470   60.0900 O   0  0  0  0  0  0  0  0  0  0  0  0
  134.0090  120.3760   60.7490 N   0  0  0  0  0  0  0  0  0  0  0  0
  131.9120  123.4220   64.4300 S   0  0  0  0  0  0  0  0  0  0  0  0
  131.2030  124.9600   64.8610 C   0  0  0  0  0  0  0  0  0  0  0  0
  130.8630  125.2450   66.1170 N   0  0  0  0  0  0  0  0  0  0  0  0
  130.3030  126.4620   66.3430 C   0  0  0  0  0  0  0  0  0  0  0  0
  129.9120  126.7480   67.7570 C   0  0  0  0  0  0  0  0  0  0  0  0
  129.3810  125.7450   68.5780 C   0  0  0  0  0  0  0  0  0  0  0  0
  129.0060  126.0210   69.8890 C   0  0  0  0  0  0  0  0  0  0  0  0
  129.1330  127.3130   70.4230 C   0  0  0  0  0  0  0  0  0  0  0  0
  128.7620  127.6040   71.7410 N   0  0  0  0  0  0  0  0  0  0  0  0
  129.7580  128.0350   72.7430 C   0  0  0  0  0  0  0  0  0  0  0  0
  129.1370  128.6390   74.0190 C   0  0  0  0  0  0  0  0  0  0  0  0
  128.2100  127.7280   74.5850 O   0  0  0  0  0  0  0  0  0  0  0  0
  127.1520  127.4370   73.6870 C   0  0  0  0  0  0  0  0  0  0  0  0
  127.7100  126.8000   72.3970 C   0  0  0  0  0  0  0  0  0  0  0  0
  129.6840  128.3070   69.6030 C   0  0  0  0  0  0  0  0  0  0  0  0
  130.0640  128.0310   68.2930 C   0  0  0  0  0  0  0  0  0  0  0  0
  130.1090  127.3960   65.3230 C   0  0  0  0  0  0  0  0  0  0  0  0
  130.4840  127.1090   64.0050 C   0  0  0  0  0  0  0  0  0  0  0  0
  130.2850  128.1470   62.9620 C   0  0  0  0  0  0  0  0  0  0  0  0
  129.0110  128.6570   62.7090 C   0  0  0  0  0  0  0  0  0  0  0  0
  128.8240  129.6430   61.7470 C   0  0  0  0  0  0  0  0  0  0  0  0
  129.9060  130.1470   61.0080 C   0  0  0  0  0  0  0  0  0  0  0  0
  129.7440  131.1490   60.0480 N   0  0  0  0  0  0  0  0  0  0  0  0
  129.0870  132.4150   60.4280 C   0  0  0  0  0  0  0  0  0  0  0  0
  128.6200  133.2460   59.2140 C   0  0  0  0  0  0  0  0  0  0  0  0
  129.7130  133.4900   58.3430 O   0  0  0  0  0  0  0  0  0  0  0  0
  130.2780  132.2810   57.8570 C   0  0  0  0  0  0  0  0  0  0  0  0
  130.7830  131.4220   59.0360 C   0  0  0  0  0  0  0  0  0  0  0  0
  131.1850  129.6400   61.2840 C   0  0  0  0  0  0  0  0  0  0  0  0
  131.3720  128.6530   62.2470 C   0  0  0  0  0  0  0  0  0  0  0  0
  131.0410  125.8260   63.7390 C   0  0  0  0  0  0  0  0  0  0  0  0
  1  2  1  0
  2  3  2  0
  3  4  1  0
  4  5  2  0
  4  6  1  0
  6  7  1  0
  7  8  1  0
  8  9  2  0
  9 10  1  0
 10 11  1  0
  3 12  1  0
 12 13  1  0
 13 14  2  0
 14 15  1  0
 15 16  1  0
 16 17  2  0
 17 18  1  0
 18 19  2  0
 19 20  1  0
 20 21  1  0
 21 22  1  0
 22 23  1  0
 23 24  1  0
 24 25  1  0
 19 26  1  0
 26 27  2  0
 15 28  2  0
 28 29  1  0
 29 30  1  0
 30 31  2  0
 31 32  1  0
 32 33  2  0
 33 34  1  0
 34 35  1  0
 35 36  1  0
 36 37  1  0
 37 38  1  0
 38 39  1  0
 33 40  1  0
 40 41  2  0
 29 42  2  0
 42  2  1  0
 11  7  2  0
 42 13  1  0
 27 16  1  0
 41 30  1  0
 25 20  1  0
 39 34  1  0
M  END
>  <Binding energies>  (40) 
[-7.97]

>  <Ligand effiencies>  (40) 
[-0.1771111111111111]

>  <Interactions>  (40) 
["V-A:TYR:539:CD1:4872, V-B:GLU:543:CB:9877, V-A:GLU:543:CB:4905, V-B:TYR:539:CD2:9845, V-B:HIS:456:CE1:9040, V-A:HIS:456:CE1:4069, V-A:GLU:543:CD:4907, V-A:TYR:539:CE1:4874, V-B:GLU:543:CD:9879, V-A:ASP:366:CG:3212, V-B:LYS:547:CE:9921, V-B:GLU:543:CG:9878, V-B:HIS:456:CD2:9038, H-B:LYS:547:NZ:9922, V-A:SER:385:CA:3406, V-A:TYR:484:CE2:4345, V-A:LEU:475:CD2:4258, H-A:TYR:484:OH:4347, H-A:ASP:366:OD2:3214, V-A:TYR:539:C:4866, V-B:HIS:456:CG:9036"]

$$$$
9c_Ghoteimi_2023
     RDKit          3D

 42 48  0  0  0  0  0  0  0  0999 V2000
  131.3710  125.7300   61.3200 N   0  0  0  0  0  0  0  0  0  0  0  0
  131.4640  125.1570   62.5630 C   0  0  0  0  0  0  0  0  0  0  0  0
  131.9850  123.8720   62.7840 C   0  0  0  0  0  0  0  0  0  0  0  0
  132.5290  122.9260   61.8060 C   0  0  0  0  0  0  0  0  0  0  0  0
  133.2840  123.3090   60.9100 O   0  0  0  0  0  0  0  0  0  0  0  0
  132.1380  121.6380   61.9630 N   0  0  0  0  0  0  0  0  0  0  0  0
  132.4930  120.5550   61.1700 C   0  0  0  0  0  0  0  0  0  0  0  0
  133.5850  120.4020   60.4530 N   0  0  0  0  0  0  0  0  0  0  0  0
  133.5900  119.2460   59.8180 C   0  0  0  0  0  0  0  0  0  0  0  0
  132.4780  118.4310   60.0150 C   0  0  0  0  0  0  0  0  0  0  0  0
  131.3750  119.2310   61.0930 S   0  0  0  0  0  0  0  0  0  0  0  0
  131.9260  123.4460   64.4940 S   0  0  0  0  0  0  0  0  0  0  0  0
  131.1890  124.9780   64.8970 C   0  0  0  0  0  0  0  0  0  0  0  0
  130.8450  125.2800   66.1480 N   0  0  0  0  0  0  0  0  0  0  0  0
  130.2630  126.4900   66.3530 C   0  0  0  0  0  0  0  0  0  0  0  0
  129.8670  126.7940   67.7620 C   0  0  0  0  0  0  0  0  0  0  0  0
  130.0570  128.0670   68.3100 C   0  0  0  0  0  0  0  0  0  0  0  0
  129.6960  128.3430   69.6240 C   0  0  0  0  0  0  0  0  0  0  0  0
  129.1410  127.3480   70.4460 C   0  0  0  0  0  0  0  0  0  0  0  0
  128.7660  127.6100   71.7690 N   0  0  0  0  0  0  0  0  0  0  0  0
  129.7600  128.0090   72.7860 C   0  0  0  0  0  0  0  0  0  0  0  0
  129.1380  128.5900   74.0730 C   0  0  0  0  0  0  0  0  0  0  0  0
  128.1990  127.6730   74.6130 O   0  0  0  0  0  0  0  0  0  0  0  0
  127.1440  127.4140   73.7020 C   0  0  0  0  0  0  0  0  0  0  0  0
  127.7030  126.8000   72.4010 C   0  0  0  0  0  0  0  0  0  0  0  0
  128.9350  126.0790   69.8860 C   0  0  0  0  0  0  0  0  0  0  0  0
  129.2940  125.8060   68.5690 C   0  0  0  0  0  0  0  0  0  0  0  0
  130.0540  127.4030   65.3160 C   0  0  0  0  0  0  0  0  0  0  0  0
  130.4340  127.0990   64.0040 C   0  0  0  0  0  0  0  0  0  0  0  0
  130.2200  128.1140   62.9430 C   0  0  0  0  0  0  0  0  0  0  0  0
  128.9310  128.5640   62.6480 C   0  0  0  0  0  0  0  0  0  0  0  0
  128.7280  129.5290   61.6650 C   0  0  0  0  0  0  0  0  0  0  0  0
  129.8080  130.0680   60.9500 C   0  0  0  0  0  0  0  0  0  0  0  0
  129.6280  131.0460   59.9660 N   0  0  0  0  0  0  0  0  0  0  0  0
  129.2170  132.4060   60.3700 C   0  0  0  0  0  0  0  0  0  0  0  0
  128.6820  133.2530   59.1960 C   0  0  0  0  0  0  0  0  0  0  0  0
  129.6480  133.3080   58.1570 O   0  0  0  0  0  0  0  0  0  0  0  0
  129.9580  132.0160   57.6600 C   0  0  0  0  0  0  0  0  0  0  0  0
  130.5210  131.1330   58.7950 C   0  0  0  0  0  0  0  0  0  0  0  0
  131.0990  129.6240   61.2690 C   0  0  0  0  0  0  0  0  0  0  0  0
  131.3030  128.6590   62.2520 C   0  0  0  0  0  0  0  0  0  0  0  0
  131.0140  125.8210   63.7600 C   0  0  0  0  0  0  0  0  0  0  0  0
  1  2  1  0
  2  3  2  0
  3  4  1  0
  4  5  2  0
  4  6  1  0
  6  7  1  0
  7  8  2  0
  8  9  1  0
  9 10  2  0
 10 11  1  0
  3 12  1  0
 12 13  1  0
 13 14  2  0
 14 15  1  0
 15 16  1  0
 16 17  2  0
 17 18  1  0
 18 19  2  0
 19 20  1  0
 20 21  1  0
 21 22  1  0
 22 23  1  0
 23 24  1  0
 24 25  1  0
 19 26  1  0
 26 27  2  0
 15 28  2  0
 28 29  1  0
 29 30  1  0
 30 31  2  0
 31 32  1  0
 32 33  2  0
 33 34  1  0
 34 35  1  0
 35 36  1  0
 36 37  1  0
 37 38  1  0
 38 39  1  0
 33 40  1  0
 40 41  2  0
 29 42  2  0
 42  2  1  0
 11  7  1  0
 42 13  1  0
 27 16  1  0
 41 30  1  0
 25 20  1  0
 39 34  1  0
M  END
>  <Binding energies>  (41) 
[-8.3]

>  <Ligand effiencies>  (41) 
[-0.18444444444444447]

>  <Interactions>  (41) 
["V-A:TYR:539:CD1:4872, V-B:GLU:543:CB:9877, V-A:GLU:543:CB:4905, V-B:TYR:539:CD2:9845, V-B:HIS:456:CE1:9040, V-A:HIS:456:CE1:4069, V-A:GLU:543:CD:4907, V-A:TYR:539:CE1:4874, V-B:TYR:539:CE2:9847, V-B:GLU:543:CD:9879, V-A:ASP:366:CG:3212, V-B:LYS:547:CE:9921, V-B:GLU:543:CG:9878, V-B:HIS:456:CD2:9038, H-B:LYS:547:NZ:9922, V-A:VAL:384:C:3396, V-A:ILE:369:CG2:3236, V-A:SER:385:CA:3406, V-A:TYR:484:CE2:4345, V-A:LEU:475:CD2:4258, H-A:TYR:484:OH:4347, H-A:ASP:366:OD1:3213, H-A:ASP:366:OD2:3214, V-A:TYR:539:C:4866, V-B:HIS:456:CG:9036"]

$$$$
RR11_Rahimova_2017
     RDKit          3D

 33 38  0  0  0  0  0  0  0  0999 V2000
  134.2170  122.5000   62.2510 N   0  0  0  0  0  0  0  0  0  0  0  0
  133.5080  123.3720   63.0750 C   0  0  0  0  0  0  0  0  0  0  0  0
  132.3220  122.9500   63.6730 C   0  0  0  0  0  0  0  0  0  0  0  0
  131.6160  123.8200   64.4990 C   0  0  0  0  0  0  0  0  0  0  0  0
  132.0880  125.1180   64.7340 C   0  0  0  0  0  0  0  0  0  0  0  0
  131.3280  126.0520   65.6290 C   0  0  0  0  0  0  0  0  0  0  0  0
  131.5500  126.1920   66.9180 N   0  0  0  0  0  0  0  0  0  0  0  0
  130.6570  127.1420   67.3380 C   0  0  0  0  0  0  0  0  0  0  0  0
  130.4680  127.6740   68.6210 C   0  0  0  0  0  0  0  0  0  0  0  0
  129.4900  128.6610   68.7950 C   0  0  0  0  0  0  0  0  0  0  0  0
  129.2590  129.2540   70.1780 C   0  0  0  0  0  0  0  0  0  0  0  0
  129.3850  128.2260   71.2940 C   0  0  0  0  0  0  0  0  0  0  0  0
  129.7100  128.6500   72.5870 C   0  0  0  0  0  0  0  0  0  0  0  0
  129.8280  127.7460   73.6450 C   0  0  0  0  0  0  0  0  0  0  0  0
  129.6060  126.3880   73.3820 C   0  0  0  0  0  0  0  0  0  0  0  0
  129.6670  125.3160   74.2350 N   0  0  0  0  0  0  0  0  0  0  0  0
  129.3810  124.2670   73.4950 C   0  0  0  0  0  0  0  0  0  0  0  0
  129.3430  122.8540   74.0030 C   0  0  0  0  0  0  0  0  0  0  0  0
  130.5310  122.1530   74.2430 C   0  0  0  0  0  0  0  0  0  0  0  0
  130.4970  120.8400   74.7050 C   0  0  0  0  0  0  0  0  0  0  0  0
  129.2710  120.2180   74.9310 C   0  0  0  0  0  0  0  0  0  0  0  0
  129.2350  118.9010   75.3880 N   0  0  0  0  0  0  0  0  0  0  0  0
  128.0810  120.9040   74.7010 C   0  0  0  0  0  0  0  0  0  0  0  0
  128.1170  122.2170   74.2390 C   0  0  0  0  0  0  0  0  0  0  0  0
  129.1260  124.6130   72.1850 N   0  0  0  0  0  0  0  0  0  0  0  0
  129.2650  125.9760   72.0720 C   0  0  0  0  0  0  0  0  0  0  0  0
  129.1400  126.8760   71.0100 C   0  0  0  0  0  0  0  0  0  0  0  0
  128.7040  129.0830   67.7180 C   0  0  0  0  0  0  0  0  0  0  0  0
  128.8640  128.5680   66.4290 C   0  0  0  0  0  0  0  0  0  0  0  0
  129.8540  127.5970   66.2660 C   0  0  0  0  0  0  0  0  0  0  0  0
  130.3110  126.8740   65.1890 N   0  0  0  0  0  0  0  0  0  0  0  0
  133.2810  125.5290   64.1250 C   0  0  0  0  0  0  0  0  0  0  0  0
  133.9890  124.6610   63.3000 C   0  0  0  0  0  0  0  0  0  0  0  0
  1  2  1  0
  2  3  2  0
  3  4  1  0
  4  5  2  0
  5  6  1  0
  6  7  2  0
  7  8  1  0
  8  9  2  0
  9 10  1  0
 10 11  1  0
 11 12  1  0
 12 13  2  0
 13 14  1  0
 14 15  2  0
 15 16  1  0
 16 17  2  0
 17 18  1  0
 18 19  2  0
 19 20  1  0
 20 21  2  0
 21 22  1  0
 21 23  1  0
 23 24  2  0
 17 25  1  0
 25 26  1  0
 26 27  2  0
 10 28  2  0
 28 29  1  0
 29 30  2  0
 30 31  1  0
  5 32  1  0
 32 33  2  0
 33  2  1  0
 31  6  1  0
 30  8  1  0
 27 12  1  0
 26 15  1  0
 24 18  1  0
M  END
>  <Binding energies>  (42) 
[-8.33]

>  <Ligand effiencies>  (42) 
[-0.21358974358974359]

>  <Interactions>  (42) 
["V-A:GLU:543:CB:4905, V-B:HIS:456:CE1:9040, V-A:HIS:456:CE1:4069, V-A:GLU:543:CD:4907, V-A:GLU:543:CG:4906, V-B:GLU:543:CD:9879, V-A:ASP:366:CG:3212, V-B:LYS:547:CE:9921, V-B:GLU:543:C:9873, V-A:HIS:456:CD2:4067, H-B:LYS:547:NZ:9922, V-A:ARG:545:CZ:4925, V-A:ILE:369:CD1:3238, H-A:TYR:484:OH:4347, V-A:GLY:453:C:4041, V-A:GLY:453:CA:4043, V-A:GLY:454:CA:4048, H-A:SER:385:O:3405, H-B:GLU:543:OE2:9881, V-A:GLU:543:C:4901, H-A:HIS:456:NE2:4070, H-A:ASP:485:OD2:4357, V-A:ASP:473:CG:4239, H-B:GLU:543:O:9874, V-A:TYR:484:CB:4340, V-A:TYR:484:C:4336, H-A:TYR:484:O:4337"]

$$$$
RR16_Rahimova_2017
     RDKit          3D

 44 49  0  0  0  0  0  0  0  0999 V2000
  127.1230  126.7330   70.6880 O   0  0  0  0  0  0  0  0  0  0  0  0
  128.2840  126.7240   69.7910 S   0  0  0  0  0  0  0  0  0  0  0  0
  128.8640  125.4590   69.3230 O   0  0  0  0  0  0  0  0  0  0  0  0
  129.5630  127.6590   70.5680 N   0  0  0  0  0  0  0  0  0  0  0  0
  129.8810  127.4690   72.0030 C   0  0  0  0  0  0  0  0  0  0  0  0
  129.5310  128.7660   72.7780 C   0  0  0  0  0  0  0  0  0  0  0  0
  129.9280  128.8300   74.2650 C   0  0  0  0  0  0  0  0  0  0  0  0
  129.4580  127.6200   75.0900 C   0  0  0  0  0  0  0  0  0  0  0  0
  130.2460  126.3150   74.8850 C   0  0  0  0  0  0  0  0  0  0  0  0
  129.8880  125.4590   73.6540 C   0  0  0  0  0  0  0  0  0  0  0  0
  129.1750  126.1830   72.4950 C   0  0  0  0  0  0  0  0  0  0  0  0
  127.8360  127.6900   68.3530 C   0  0  0  0  0  0  0  0  0  0  0  0
  126.4950  127.9660   68.0800 C   0  0  0  0  0  0  0  0  0  0  0  0
  126.1530  128.6130   66.8960 C   0  0  0  0  0  0  0  0  0  0  0  0
  127.1520  128.9800   65.9910 C   0  0  0  0  0  0  0  0  0  0  0  0
  126.7040  129.6830   64.4060 S   0  0  0  0  0  0  0  0  0  0  0  0
  127.1420  131.0850   64.4080 O   0  0  0  0  0  0  0  0  0  0  0  0
  125.2970  129.3460   64.1560 O   0  0  0  0  0  0  0  0  0  0  0  0
  127.7010  128.7910   63.2390 N   0  0  0  0  0  0  0  0  0  0  0  0
  127.6910  127.3170   63.4220 C   0  0  0  0  0  0  0  0  0  0  0  0
  128.8080  126.6610   62.5840 C   0  0  0  0  0  0  0  0  0  0  0  0
  128.7350  127.0870   61.0960 C   0  0  0  0  0  0  0  0  0  0  0  0
  129.8640  126.4840   60.2560 C   0  0  0  0  0  0  0  0  0  0  0  0
  130.1180  126.9840   58.9710 C   0  0  0  0  0  0  0  0  0  0  0  0
  131.1420  126.4690   58.1740 C   0  0  0  0  0  0  0  0  0  0  0  0
  131.3780  126.9730   56.9210 O   0  0  0  0  0  0  0  0  0  0  0  0
  131.9250  125.4270   58.6930 C   0  0  0  0  0  0  0  0  0  0  0  0
  132.9850  124.7520   58.1600 N   0  0  0  0  0  0  0  0  0  0  0  0
  133.4120  123.8410   59.1020 N   0  0  0  0  0  0  0  0  0  0  0  0
  132.6000  123.9250   60.1740 N   0  0  0  0  0  0  0  0  0  0  0  0
  132.8720  123.1300   61.3640 C   0  0  0  0  0  0  0  0  0  0  0  0
  132.0570  121.8450   61.4100 C   0  0  0  0  0  0  0  0  0  0  0  0
  130.7340  121.8690   61.8650 C   0  0  0  0  0  0  0  0  0  0  0  0
  129.9770  120.6970   61.8880 C   0  0  0  0  0  0  0  0  0  0  0  0
  130.5390  119.4950   61.4540 C   0  0  0  0  0  0  0  0  0  0  0  0
  131.8560  119.4650   60.9980 C   0  0  0  0  0  0  0  0  0  0  0  0
  132.5500  117.9820   60.4520 Cl  0  0  0  0  0  0  0  0  0  0  0  0
  132.6150  120.6370   60.9790 C   0  0  0  0  0  0  0  0  0  0  0  0
  131.6580  124.9230   59.9870 C   0  0  0  0  0  0  0  0  0  0  0  0
  130.6300  125.4350   60.7860 C   0  0  0  0  0  0  0  0  0  0  0  0
  128.6180  128.6250   60.9300 C   0  0  0  0  0  0  0  0  0  0  0  0
  127.5150  129.2190   61.8280 C   0  0  0  0  0  0  0  0  0  0  0  0
  128.4960  128.7400   66.2860 C   0  0  0  0  0  0  0  0  0  0  0  0
  128.8380  128.0910   67.4680 C   0  0  0  0  0  0  0  0  0  0  0  0
  1  2  2  0
  2  3  2  0
  2  4  1  0
  4  5  1  0
  5  6  1  0
  6  7  1  0
  7  8  1  0
  8  9  1  0
  9 10  1  0
 10 11  1  0
  2 12  1  0
 12 13  2  0
 13 14  1  0
 14 15  2  0
 15 16  1  0
 16 17  2  0
 16 18  2  0
 16 19  1  0
 19 20  1  0
 20 21  1  0
 21 22  1  0
 22 23  1  0
 23 24  2  0
 24 25  1  0
 25 26  1  0
 25 27  2  0
 27 28  1  0
 28 29  2  0
 29 30  1  0
 30 31  1  0
 31 32  1  0
 32 33  2  0
 33 34  1  0
 34 35  2  0
 35 36  1  0
 36 37  1  0
 36 38  2  0
 30 39  1  0
 39 40  2  0
 22 41  1  0
 41 42  1  0
 15 43  1  0
 43 44  2  0
 11  5  1  0
 44 12  1  0
 42 19  1  0
 40 23  1  0
 39 27  1  0
 38 32  1  0
M  END
>  <Binding energies>  (43) 
[-7.61]

>  <Ligand effiencies>  (43) 
[-0.15854166666666666]

>  <Interactions>  (43) 
["V-B:GLU:543:CB:9877, V-B:TYR:539:CD2:9845, V-B:HIS:456:CE1:9040, H-A:TYR:531:OH:4794, V-A:HIS:456:CE1:4069, V-A:GLU:543:CD:4907, V-A:GLU:543:CG:4906, V-B:TYR:539:CE2:9847, V-B:GLU:543:CD:9879, V-A:ASP:366:CG:3212, V-A:ASP:366:CB:3211, V-B:HIS:456:CD2:9038, H-B:ARG:545:NH2:9899, V-A:HIS:456:CD2:4067, V-B:ARG:545:CG:9893, V-A:SER:385:CA:3406, V-A:SER:385:CB:3408, V-B:ALA:541:CB:9863, V-A:ILE:369:CD1:3238, V-A:LEU:475:CD2:4258, H-B:TYR:539:OH:9849, H-A:HIS:456:NE2:4070, H-A:ASP:366:O:3208"]

$$$$
RR18_Rahimova_2017
     RDKit          3D

 36 41  0  0  0  0  0  0  0  0999 V2000
  130.1320  127.6360   59.8330 C   0  0  0  0  0  0  0  0  0  0  0  0
  129.9940  127.8760   61.3160 C   0  0  0  0  0  0  0  0  0  0  0  0
  130.1710  127.0900   62.4420 C   0  0  0  0  0  0  0  0  0  0  0  0
  129.8850  127.8950   63.5450 C   0  0  0  0  0  0  0  0  0  0  0  0
  129.5440  129.1440   63.0520 C   0  0  0  0  0  0  0  0  0  0  0  0
  129.1370  130.4630   63.7040 C   0  0  1  0  0  0  0  0  0  0  0  0
  128.9020  131.5770   62.6410 C   0  0  0  0  0  0  0  0  0  0  0  0
  130.0080  132.0640   61.8230 C   0  0  0  0  0  0  0  0  0  0  0  0
  130.8350  132.8670   62.2600 O   0  0  0  0  0  0  0  0  0  0  0  0
  130.0440  131.5450   60.5730 N   0  0  0  0  0  0  0  0  0  0  0  0
  130.9390  131.7890   59.5090 C   0  0  0  0  0  0  0  0  0  0  0  0
  130.5580  132.4030   58.3020 C   0  0  0  0  0  0  0  0  0  0  0  0
  131.4900  132.6090   57.2860 C   0  0  0  0  0  0  0  0  0  0  0  0
  132.8100  132.2020   57.4560 C   0  0  0  0  0  0  0  0  0  0  0  0
  133.1990  131.5830   58.6420 C   0  0  0  0  0  0  0  0  0  0  0  0
  132.2750  131.3700   59.6700 C   0  0  0  0  0  0  0  0  0  0  0  0
  132.7510  130.6830   60.9470 C   0  0  0  0  0  0  0  0  0  0  0  0
  127.6310  132.0060   62.4240 C   0  0  0  0  0  0  0  0  0  0  0  0
  126.5460  131.6210   63.1520 N   0  0  0  0  0  0  0  0  0  0  0  0
  126.7080  130.8610   64.1710 C   0  0  0  0  0  0  0  0  0  0  0  0
  125.4380  130.4090   65.2840 S   0  0  0  0  0  0  0  0  0  0  0  0
  126.5810  129.4580   66.2840 C   0  0  0  0  0  0  0  0  0  0  0  0
  126.2940  128.7520   67.4320 C   0  0  0  0  0  0  0  0  0  0  0  0
  124.9420  128.7910   68.0090 C   0  0  0  0  0  0  0  0  0  0  0  0
  123.9280  129.3650   67.6140 O   0  0  0  0  0  0  0  0  0  0  0  0
  124.9680  128.0690   69.1340 N   0  0  0  0  0  0  0  0  0  0  0  0
  126.1840  127.5060   69.3770 C   0  0  0  0  0  0  0  0  0  0  0  0
  126.5500  126.6890   70.4450 C   0  0  0  0  0  0  0  0  0  0  0  0
  127.8470  126.1860   70.4940 C   0  0  0  0  0  0  0  0  0  0  0  0
  128.7460  126.4990   69.4760 C   0  0  0  0  0  0  0  0  0  0  0  0
  128.3560  127.3210   68.4160 C   0  0  0  0  0  0  0  0  0  0  0  0
  127.0560  127.8590   68.3610 C   0  0  0  0  0  0  0  0  0  0  0  0
  127.9090  129.5660   65.6790 C   0  0  0  0  0  0  0  0  0  0  0  0
  128.9510  129.0890   66.1160 O   0  0  0  0  0  0  0  0  0  0  0  0
  127.8910  130.3030   64.5350 N   0  0  0  0  0  0  0  0  0  0  0  0
  129.6120  129.1240   61.6940 O   0  0  0  0  0  0  0  0  0  0  0  0
  1  2  1  0
  2  3  2  0
  3  4  1  0
  4  5  2  0
  6  5  1  6
  6  7  1  0
  7  8  1  0
  8  9  2  0
  8 10  1  0
 10 11  1  0
 11 12  2  0
 12 13  1  0
 13 14  2  0
 14 15  1  0
 15 16  2  0
 16 17  1  0
  7 18  2  0
 18 19  1  0
 19 20  2  0
 20 21  1  0
 21 22  1  0
 22 23  2  0
 23 24  1  0
 24 25  2  0
 24 26  1  0
 26 27  1  0
 27 28  2  0
 28 29  1  0
 29 30  2  0
 30 31  1  0
 31 32  2  0
 22 33  1  0
 33 34  2  0
 33 35  1  0
  5 36  1  0
 36  2  1  0
 35  6  1  0
 16 11  1  0
 35 20  1  0
 32 23  1  0
 32 27  1  0
M  END
>  <Binding energies>  (44) 
[-9.35]

>  <Ligand effiencies>  (44) 
[-0.24605263157894736]

>  <Interactions>  (44) 
["V-B:GLU:543:CB:9877, H-B:TYR:484:OH:9318, V-A:PRO:540:CA:4882, V-A:PRO:540:CB:4884, V-B:HIS:456:CE1:9040, V-A:HIS:456:CE1:4069, V-A:GLU:543:CD:4907, V-A:GLU:543:CG:4906, V-B:GLU:543:CD:9879, V-A:ASP:366:CG:3212, V-B:GLU:543:C:9873, V-A:TYR:531:CZ:4793, V-B:GLY:544:C:9883, H-A:ALA:541:N:4890, V-B:ARG:545:CG:9893, V-B:ARG:545:CD:9894, V-B:GLU:543:CA:9875, V-A:TYR:531:CE2:4792, V-A:PRO:540:N:4883, V-A:LEU:363:CD1:3188, V-A:LEU:363:CA:3184, V-B:ARG:545:CB:9892, V-B:ARG:545:CA:9890, H-B:ILE:455:O:9023"]

$$$$
RR20_Rahimova_2017
     RDKit          3D

 38 43  0  0  0  0  0  0  0  0999 V2000
  131.3320  123.9410   75.7100 C   0  0  0  0  0  0  0  0  0  0  0  0
  130.4820  124.6370   74.6630 C   0  0  0  0  0  0  0  0  0  0  0  0
  130.3040  126.0200   74.7200 C   0  0  0  0  0  0  0  0  0  0  0  0
  129.5320  126.6620   73.7560 C   0  0  0  0  0  0  0  0  0  0  0  0
  128.9190  125.9250   72.7350 C   0  0  0  0  0  0  0  0  0  0  0  0
  128.1010  126.6450   71.6850 C   0  0  0  0  0  0  0  0  0  0  0  0
  126.8740  126.5470   71.7520 O   0  0  0  0  0  0  0  0  0  0  0  0
  128.7390  127.3760   70.7250 N   0  0  0  0  0  0  0  0  0  0  0  0
  129.2190  128.7420   70.9870 C   0  0  0  0  0  0  0  0  0  0  0  0
  130.0000  129.1660   69.7540 C   0  0  0  0  0  0  0  0  0  0  0  0
  130.2240  127.8690   69.0390 C   0  0  0  0  0  0  0  0  0  0  0  0
  130.9600  127.6190   67.8810 C   0  0  0  0  0  0  0  0  0  0  0  0
  130.9190  126.3610   67.2660 C   0  0  0  0  0  0  0  0  0  0  0  0
  131.7200  126.0890   66.0230 C   0  0  0  0  0  0  0  0  0  0  0  0
  131.0870  126.0600   64.8610 N   0  0  0  0  0  0  0  0  0  0  0  0
  131.8830  125.8350   63.8470 C   0  0  0  0  0  0  0  0  0  0  0  0
  131.5510  125.7470   62.5040 N   0  0  0  0  0  0  0  0  0  0  0  0
  130.5150  125.0610   61.9640 C   0  0  0  0  0  0  0  0  0  0  0  0
  129.6930  124.4220   62.6230 O   0  0  0  0  0  0  0  0  0  0  0  0
  130.3370  125.1040   60.4270 C   0  0  0  0  0  0  0  0  0  0  0  0
  129.0120  124.6270   59.9870 N   0  0  0  0  0  0  0  0  0  0  0  0
  127.9710  125.6560   60.1230 C   0  0  0  0  0  0  0  0  0  0  0  0
  126.5740  125.0320   59.9070 C   0  0  0  0  0  0  0  0  0  0  0  0
  126.5120  124.1120   58.6880 C   0  0  0  0  0  0  0  0  0  0  0  0
  125.2860  123.6730   58.1770 C   0  0  0  0  0  0  0  0  0  0  0  0
  125.2310  122.8040   57.0900 C   0  0  0  0  0  0  0  0  0  0  0  0
  126.4100  122.3650   56.4960 C   0  0  0  0  0  0  0  0  0  0  0  0
  127.6380  122.8020   56.9880 C   0  0  0  0  0  0  0  0  0  0  0  0
  127.7070  123.6730   58.0810 C   0  0  0  0  0  0  0  0  0  0  0  0
  129.0520  124.1980   58.5840 C   0  0  0  0  0  0  0  0  0  0  0  0
  133.5360  125.6240   64.2740 S   0  0  0  0  0  0  0  0  0  0  0  0
  133.1090  125.8500   65.9530 C   0  0  0  0  0  0  0  0  0  0  0  0
  134.1640  125.7460   67.0330 C   0  0  0  0  0  0  0  0  0  0  0  0
  130.0780  125.3780   67.8090 C   0  0  0  0  0  0  0  0  0  0  0  0
  129.3260  125.6310   68.9560 C   0  0  0  0  0  0  0  0  0  0  0  0
  129.4410  126.8650   69.6100 C   0  0  0  0  0  0  0  0  0  0  0  0
  129.1260  124.5420   72.6670 C   0  0  0  0  0  0  0  0  0  0  0  0
  129.9000  123.8990   73.6310 C   0  0  0  0  0  0  0  0  0  0  0  0
  1  2  1  0
  2  3  2  0
  3  4  1  0
  4  5  2  0
  5  6  1  0
  6  7  2  0
  6  8  1  0
  8  9  1  0
  9 10  1  0
 10 11  1  0
 11 12  2  0
 12 13  1  0
 13 14  1  0
 14 15  1  0
 15 16  2  0
 16 17  1  0
 17 18  1  0
 18 19  2  0
 18 20  1  0
 20 21  1  0
 21 22  1  0
 22 23  1  0
 23 24  1  0
 24 25  2  0
 25 26  1  0
 26 27  2  0
 27 28  1  0
 28 29  2  0
 29 30  1  0
 16 31  1  0
 31 32  1  0
 32 33  1  0
 13 34  2  0
 34 35  1  0
 35 36  2  0
  5 37  1  0
 37 38  2  0
 38  2  1  0
 36  8  1  0
 36 11  1  0
 32 14  2  0
 30 21  1  0
 29 24  1  0
M  END
>  <Binding energies>  (45) 
[-9.82]

>  <Ligand effiencies>  (45) 
[-0.2517948717948718]

>  <Interactions>  (45) 
["V-B:PRO:540:CD:9858, V-B:GLU:543:CB:9877, V-B:PRO:540:N:9855, V-A:GLU:543:CB:4905, V-B:LEU:363:CD1:8159, V-B:MET:535:CE:9806, V-B:TYR:539:CD2:9845, V-B:TYR:539:CZ:9848, V-B:HIS:456:CE1:9040, V-A:HIS:456:CE1:4069, V-B:TYR:539:C:9838, V-B:TYR:539:CE1:9846, V-B:TYR:539:CD1:9844, V-A:GLU:543:CD:4907, V-B:PRO:540:CB:9856, V-B:TYR:539:CE2:9847, V-B:GLU:543:CD:9879, V-B:TYR:539:CG:9843, V-A:ASP:366:CG:3212, V-B:GLU:543:C:9873, V-A:HIS:456:CD2:4067, V-A:TYR:484:CZ:4346, V-A:ARG:545:CZ:4925, V-A:ARG:545:CD:4922, V-A:TYR:484:CE2:4345, V-A:ARG:545:CG:4921, V-B:PRO:540:CA:9854, H-A:ASP:366:OD1:3213, H-A:ASP:366:OD2:3214, V-A:GLU:543:C:4901, V-A:GLU:543:CA:4903"]

$$$$
RR21_Rahimova_2017
     RDKit          3D

 40 45  0  0  0  0  0  0  0  0999 V2000
  124.2790  132.1620   63.3280 C   0  0  0  0  0  0  0  0  0  0  0  0
  125.2670  132.6830   64.2120 O   0  0  0  0  0  0  0  0  0  0  0  0
  126.0080  131.8090   64.9870 C   0  0  0  0  0  0  0  0  0  0  0  0
  125.6460  130.4750   65.2380 C   0  0  0  0  0  0  0  0  0  0  0  0
  126.4520  129.6580   66.0290 C   0  0  0  0  0  0  0  0  0  0  0  0
  127.6390  130.1490   66.5860 C   0  0  0  0  0  0  0  0  0  0  0  0
  128.5060  129.2670   67.4310 C   0  0  0  0  0  0  0  0  0  0  0  0
  128.5510  129.4500   68.7370 N   0  0  0  0  0  0  0  0  0  0  0  0
  129.3950  128.5290   69.2250 N   0  0  0  0  0  0  0  0  0  0  0  0
  129.6610  128.4300   70.6160 C   0  0  0  0  0  0  0  0  0  0  0  0
  130.7360  129.1240   71.1920 C   0  0  0  0  0  0  0  0  0  0  0  0
  130.9840  129.0240   72.5590 C   0  0  0  0  0  0  0  0  0  0  0  0
  130.1590  128.2300   73.3530 C   0  0  0  0  0  0  0  0  0  0  0  0
  129.0910  127.5340   72.7930 C   0  0  0  0  0  0  0  0  0  0  0  0
  128.8410  127.6330   71.4270 C   0  0  0  0  0  0  0  0  0  0  0  0
  129.8780  127.7420   68.2100 C   0  0  0  0  0  0  0  0  0  0  0  0
  129.3340  128.1990   67.0190 C   0  0  0  0  0  0  0  0  0  0  0  0
  129.5140  127.6540   65.6810 C   0  0  0  0  0  0  0  0  0  0  0  0
  130.4360  126.7580   65.2590 C   0  0  0  0  0  0  0  0  0  0  0  0
  131.7170  125.9780   66.2130 S   0  0  0  0  0  0  0  0  0  0  0  0
  132.2180  125.0850   64.7840 C   0  0  0  0  0  0  0  0  0  0  0  0
  133.1730  124.2130   64.6850 N   0  0  0  0  0  0  0  0  0  0  0  0
  133.4690  123.5490   63.4630 C   0  0  0  0  0  0  0  0  0  0  0  0
  134.3420  122.6980   63.2910 O   0  0  0  0  0  0  0  0  0  0  0  0
  132.5900  123.9660   62.3160 C   0  0  0  0  0  0  0  0  0  0  0  0
  132.8300  123.3310   60.9400 C   0  0  0  0  0  0  0  0  0  0  0  0
  132.5380  121.8330   60.8800 C   0  0  0  0  0  0  0  0  0  0  0  0
  131.2500  121.3590   61.1440 C   0  0  0  0  0  0  0  0  0  0  0  0
  130.9820  119.9950   61.0720 C   0  0  0  0  0  0  0  0  0  0  0  0
  131.9990  119.1000   60.7340 C   0  0  0  0  0  0  0  0  0  0  0  0
  131.6980  117.6150   60.6460 C   0  0  0  0  0  0  0  0  0  0  0  0
  133.2850  119.5730   60.4590 C   0  0  0  0  0  0  0  0  0  0  0  0
  133.5540  120.9370   60.5310 C   0  0  0  0  0  0  0  0  0  0  0  0
  131.6450  124.8420   62.4280 N   0  0  0  0  0  0  0  0  0  0  0  0
  131.4540  125.4100   63.6940 N   0  0  0  0  0  0  0  0  0  0  0  0
  130.4650  126.3190   63.8710 C   0  0  0  0  0  0  0  0  0  0  0  0
  129.6990  126.7100   62.9810 O   0  0  0  0  0  0  0  0  0  0  0  0
  127.9960  131.4790   66.3410 C   0  0  0  0  0  0  0  0  0  0  0  0
  127.1910  132.2990   65.5500 C   0  0  0  0  0  0  0  0  0  0  0  0
  127.5660  133.5810   65.3320 F   0  0  0  0  0  0  0  0  0  0  0  0
  1  2  1  0
  2  3  1  0
  3  4  2  0
  4  5  1  0
  5  6  2  0
  6  7  1  0
  7  8  2  0
  8  9  1  0
  9 10  1  0
 10 11  2  0
 11 12  1  0
 12 13  2  0
 13 14  1  0
 14 15  2  0
  9 16  1  0
 16 17  2  0
 17 18  1  0
 18 19  2  0
 19 20  1  0
 20 21  1  0
 21 22  2  0
 22 23  1  0
 23 24  2  0
 23 25  1  0
 25 26  1  0
 26 27  1  0
 27 28  2  0
 28 29  1  0
 29 30  2  0
 30 31  1  0
 30 32  1  0
 32 33  2  0
 25 34  2  0
 34 35  1  0
 35 36  1  0
 36 37  2  0
  6 38  1  0
 38 39  2  0
 39 40  1  0
 39  3  1  0
 17  7  1  0
 36 19  1  0
 15 10  1  0
 35 21  1  0
 33 27  1  0
M  END
>  <Binding energies>  (46) 
[-9.5]

>  <Ligand effiencies>  (46) 
[-0.2375]

>  <Interactions>  (46) 
["V-A:GLU:543:CB:4905, V-B:TYR:539:CD2:9845, V-B:GLY:454:CA:9019, V-B:HIS:456:CE1:9040, V-A:HIS:456:CE1:4069, V-A:GLU:543:CD:4907, V-A:GLU:543:CG:4906, V-B:LEU:475:CD1:9228, V-B:TYR:539:CE2:9847, V-B:GLU:543:CD:9879, V-A:ALA:541:CB:4891, V-A:ILE:369:CG2:3236, V-A:SER:385:CA:3406, V-A:SER:385:CB:3408, H-A:GLY:454:N:4049, V-A:ILE:369:CD1:3238, V-A:LEU:475:CD2:4258, V-A:HIS:383:CE1:3393, H-A:TYR:484:OH:4347, V-A:GLY:454:CA:4048, V-A:GLU:543:C:4901, V-B:TYR:484:CZ:9317, V-A:GLY:544:C:4911, V-B:TYR:484:CE2:9316, V-A:GLY:544:CA:4913, V-B:LEU:475:CD2:9229, V-B:LEU:475:CG:9227"]

$$$$
RR23_Rahimova_2017
     RDKit          3D

 39 44  0  0  0  0  0  0  0  0999 V2000
  131.7570  124.6770   75.5720 C   0  0  0  0  0  0  0  0  0  0  0  0
  130.7290  125.1780   74.5740 C   0  0  0  0  0  0  0  0  0  0  0  0
  130.1760  124.3000   73.6410 C   0  0  0  0  0  0  0  0  0  0  0  0
  129.2260  124.7580   72.7320 C   0  0  0  0  0  0  0  0  0  0  0  0
  128.8300  126.1010   72.7420 C   0  0  0  0  0  0  0  0  0  0  0  0
  127.7820  126.5740   71.7600 C   0  0  0  0  0  0  0  0  0  0  0  0
  126.6360  126.1360   71.8920 O   0  0  0  0  0  0  0  0  0  0  0  0
  128.1300  127.4670   70.7860 N   0  0  0  0  0  0  0  0  0  0  0  0
  129.4950  128.0080   70.6900 C   0  0  0  0  0  0  0  0  0  0  0  0
  129.5380  128.8380   69.4170 C   0  0  0  0  0  0  0  0  0  0  0  0
  128.3030  128.3970   68.6910 C   0  0  0  0  0  0  0  0  0  0  0  0
  127.8590  128.7530   67.4170 C   0  0  0  0  0  0  0  0  0  0  0  0
  126.5880  128.3580   66.9730 C   0  0  0  0  0  0  0  0  0  0  0  0
  126.0600  128.7290   65.5780 C   0  0  2  0  0  0  0  0  0  0  0  0
  126.9330  129.6580   64.8930 N   0  0  0  0  0  0  0  0  0  0  0  0
  126.2840  130.4410   64.1280 C   0  0  0  0  0  0  0  0  0  0  0  0
  126.7680  131.4510   63.3560 N   0  0  0  0  0  0  0  0  0  0  0  0
  128.0250  131.9550   63.3210 C   0  0  0  0  0  0  0  0  0  0  0  0
  128.9830  131.5400   63.9770 O   0  0  0  0  0  0  0  0  0  0  0  0
  128.2340  133.1480   62.3730 C   0  0  0  0  0  0  0  0  0  0  0  0
  129.4080  132.8830   61.5120 N   0  0  0  0  0  0  0  0  0  0  0  0
  130.6090  132.6930   62.1830 N   0  0  0  0  0  0  0  0  0  0  0  0
  131.7110  132.4550   61.5450 N   0  0  0  0  0  0  0  0  0  0  0  0
  131.7030  132.3820   60.1500 C   0  0  0  0  0  0  0  0  0  0  0  0
  132.9080  132.1260   59.4920 C   0  0  0  0  0  0  0  0  0  0  0  0
  132.9320  132.0470   58.0980 C   0  0  0  0  0  0  0  0  0  0  0  0
  131.7580  132.2260   57.3640 C   0  0  0  0  0  0  0  0  0  0  0  0
  130.5520  132.4840   58.0200 C   0  0  0  0  0  0  0  0  0  0  0  0
  130.5280  132.5600   59.4170 C   0  0  0  0  0  0  0  0  0  0  0  0
  129.2340  132.8410   60.1460 C   0  0  0  0  0  0  0  0  0  0  0  0
  128.1530  133.0240   59.5790 O   0  0  0  0  0  0  0  0  0  0  0  0
  124.5120  130.2160   64.0530 S   0  0  0  0  0  0  0  0  0  0  0  0
  124.6010  129.2400   65.5650 C   0  0  2  0  0  0  0  0  0  0  0  0
  124.1640  130.1180   66.7560 C   0  0  0  0  0  0  0  0  0  0  0  0
  125.7590  127.6450   67.8460 C   0  0  0  0  0  0  0  0  0  0  0  0
  126.1940  127.3070   69.1280 C   0  0  0  0  0  0  0  0  0  0  0  0
  127.4940  127.6350   69.5350 C   0  0  0  0  0  0  0  0  0  0  0  0
  129.3690  126.9700   73.6990 C   0  0  0  0  0  0  0  0  0  0  0  0
  130.3180  126.5110   74.6080 C   0  0  0  0  0  0  0  0  0  0  0  0
  1  2  1  0
  2  3  2  0
  3  4  1  0
  4  5  2  0
  5  6  1  0
  6  7  2  0
  6  8  1  0
  8  9  1  0
  9 10  1  0
 10 11  1  0
 11 12  2  0
 12 13  1  0
 14 13  1  1
 14 15  1  0
 15 16  2  0
 16 17  1  0
 17 18  1  0
 18 19  2  0
 18 20  1  0
 20 21  1  0
 21 22  1  0
 22 23  2  0
 23 24  1  0
 24 25  2  0
 25 26  1  0
 26 27  2  0
 27 28  1  0
 28 29  2  0
 29 30  1  0
 30 31  2  0
 16 32  1  0
 32 33  1  0
 33 34  1  1
 13 35  2  0
 35 36  1  0
 36 37  2  0
  5 38  1  0
 38 39  2  0
 39  2  1  0
 37  8  1  0
 37 11  1  0
 33 14  1  0
 30 21  1  0
 29 24  1  0
M  END
>  <Binding energies>  (47) 
[-10.51]

>  <Ligand effiencies>  (47) 
[-0.26275]

>  <Interactions>  (47) 
["V-B:GLU:543:CB:9877, V-A:GLU:543:CB:4905, H-B:GLY:454:N:9020, V-A:PRO:540:CA:4882, V-B:GLY:454:CA:9019, V-A:PRO:540:CB:4884, V-B:HIS:456:CE1:9040, V-A:HIS:456:CE1:4069, V-A:PRO:540:C:4880, V-B:GLU:543:CD:9879, V-A:TYR:531:CZ:4793, V-A:ALA:541:CB:4891, H-A:ALA:541:N:4890, V-B:GLU:543:CG:9878, V-B:ARG:545:CZ:9897, V-A:HIS:456:CD2:4067, V-B:ARG:545:CG:9893, V-B:ARG:545:CD:9894, V-A:TYR:539:C:4866, V-A:TYR:531:CE2:4792, V-A:HIS:456:CG:4065, V-A:PRO:540:N:4883, V-A:HIS:456:CB:4064, V-B:TYR:484:CZ:9317, V-A:LEU:363:CD1:3188, H-B:ARG:545:N:9891, V-A:LEU:363:CA:3184"]

$$$$
RR26_Rahimova_2017
     RDKit          3D

 38 44  0  0  0  0  0  0  0  0999 V2000
  133.4370  120.0460   60.8260 C   0  0  0  0  0  0  0  0  0  0  0  0
  132.2780  119.0770   61.0250 C   0  0  0  0  0  0  0  0  0  0  0  0
  132.5350  117.7060   60.9140 C   0  0  0  0  0  0  0  0  0  0  0  0
  131.5220  116.7730   61.1260 C   0  0  0  0  0  0  0  0  0  0  0  0
  130.2410  117.2040   61.4590 C   0  0  0  0  0  0  0  0  0  0  0  0
  129.9740  118.5670   61.5740 C   0  0  0  0  0  0  0  0  0  0  0  0
  130.9790  119.5210   61.3550 C   0  0  0  0  0  0  0  0  0  0  0  0
  130.6020  120.9690   61.4840 C   0  0  0  0  0  0  0  0  0  0  0  0
  131.4370  121.9530   61.1590 N   0  0  0  0  0  0  0  0  0  0  0  0
  130.7150  123.0120   61.4080 C   0  0  0  0  0  0  0  0  0  0  0  0
  130.9460  124.7180   61.3020 S   0  0  0  0  0  0  0  0  0  0  0  0
  129.2640  124.9600   61.9060 C   0  0  0  0  0  0  0  0  0  0  0  0
  128.6240  126.1300   62.1280 C   0  0  0  0  0  0  0  0  0  0  0  0
  129.1290  127.4790   61.9310 C   0  0  0  0  0  0  0  0  0  0  0  0
  130.2590  127.8770   61.2340 C   0  0  0  0  0  0  0  0  0  0  0  0
  130.3200  129.2470   61.2750 N   0  0  0  0  0  0  0  0  0  0  0  0
  131.2940  130.1000   60.6960 C   0  0  0  0  0  0  0  0  0  0  0  0
  132.2830  130.7030   61.4890 C   0  0  0  0  0  0  0  0  0  0  0  0
  133.2320  131.5400   60.9080 C   0  0  0  0  0  0  0  0  0  0  0  0
  133.1980  131.7760   59.5370 C   0  0  0  0  0  0  0  0  0  0  0  0
  132.2230  131.1820   58.7380 C   0  0  0  0  0  0  0  0  0  0  0  0
  131.2720  130.3460   59.3150 C   0  0  0  0  0  0  0  0  0  0  0  0
  129.2650  129.7400   61.9420 N   0  0  0  0  0  0  0  0  0  0  0  0
  128.5540  128.7030   62.3410 C   0  0  0  0  0  0  0  0  0  0  0  0
  127.3000  128.9190   63.1320 C   0  0  0  0  0  0  0  0  0  0  0  0
  126.0990  129.2450   62.4840 C   0  0  0  0  0  0  0  0  0  0  0  0
  124.9260  129.4520   63.2120 C   0  0  0  0  0  0  0  0  0  0  0  0
  124.9470  129.3340   64.6000 C   0  0  0  0  0  0  0  0  0  0  0  0
  126.1370  128.9890   65.2580 C   0  0  0  0  0  0  0  0  0  0  0  0
  127.3080  128.7900   64.5290 C   0  0  0  0  0  0  0  0  0  0  0  0
  126.2140  128.9050   66.6350 O   0  0  0  0  0  0  0  0  0  0  0  0
  124.9480  128.7540   67.2840 C   0  0  0  0  0  0  0  0  0  0  0  0
  123.9090  129.7310   66.6810 C   0  0  0  0  0  0  0  0  0  0  0  0
  123.7550  129.4980   65.2770 O   0  0  0  0  0  0  0  0  0  0  0  0
  128.5840  123.6960   62.1750 C   0  0  0  0  0  0  0  0  0  0  0  0
  127.4420  123.5020   62.5960 O   0  0  0  0  0  0  0  0  0  0  0  0
  129.4930  122.6750   61.8580 N   0  0  0  0  0  0  0  0  0  0  0  0
  129.4050  121.3430   61.9080 N   0  0  0  0  0  0  0  0  0  0  0  0
  1  2  1  0
  2  3  2  0
  3  4  1  0
  4  5  2  0
  5  6  1  0
  6  7  2  0
  7  8  1  0
  8  9  1  0
  9 10  2  0
 10 11  1  0
 11 12  1  0
 12 13  2  0
 13 14  1  0
 14 15  2  0
 15 16  1  0
 16 17  1  0
 17 18  2  0
 18 19  1  0
 19 20  2  0
 20 21  1  0
 21 22  2  0
 16 23  1  0
 23 24  2  0
 24 25  1  0
 25 26  2  0
 26 27  1  0
 27 28  2  0
 28 29  1  0
 29 30  2  0
 29 31  1  0
 31 32  1  0
 32 33  1  0
 33 34  1  0
 12 35  1  0
 35 36  2  0
 35 37  1  0
 37 38  1  0
  7  2  1  0
 38  8  2  0
 37 10  1  0
 24 14  1  0
 30 25  1  0
 22 17  1  0
 34 28  1  0
M  END
>  <Binding energies>  (48) 
[-9.42]

>  <Ligand effiencies>  (48) 
[-0.24789473684210525]

>  <Interactions>  (48) 
["H-B:TYR:484:OH:9318, H-B:GLY:454:N:9020, V-A:PRO:540:CA:4882, V-A:ASN:362:C:3171, V-B:TYR:539:CD2:9845, V-B:GLY:454:CA:9019, V-A:PRO:540:CB:4884, V-B:TYR:539:C:9838, V-A:ASN:362:CB:3175, V-B:GLU:543:CD:9879, H-B:ARG:545:NH1:9898, V-B:ARG:545:CZ:9897, H-B:ARG:545:NH2:9899, V-B:ARG:545:CG:9893, V-B:ARG:545:CD:9894, V-A:ILE:369:CG2:3236, V-A:SER:385:CA:3406, V-A:SER:385:CB:3408, V-B:ALA:541:CB:9863, V-A:LEU:475:CD2:4258, V-A:HIS:383:CE1:3393, V-A:PRO:482:CG:4326, H-B:ALA:541:N:9862, V-A:PRO:482:CB:4325, V-A:THR:477:CG2:4272, V-A:LEU:363:CA:3184, H-B:ARG:545:NE:9895"]

$$$$
RR2_Rahimova_2017
     RDKit          3D

 46 50  0  0  0  0  0  0  0  0999 V2000
  128.9510  126.4750   69.2330 C   0  0  0  0  0  0  0  0  0  0  0  0
  127.9000  127.3290   69.6700 O   0  0  0  0  0  0  0  0  0  0  0  0
  127.1090  127.9610   68.7290 C   0  0  0  0  0  0  0  0  0  0  0  0
  125.7090  128.0050   68.7740 C   0  0  0  0  0  0  0  0  0  0  0  0
  124.9940  128.6630   67.7780 C   0  0  0  0  0  0  0  0  0  0  0  0
  125.6580  129.2890   66.7140 C   0  0  0  0  0  0  0  0  0  0  0  0
  124.8560  129.9940   65.6370 C   0  0  0  0  0  0  0  0  0  0  0  0
  123.8060  129.4950   65.2160 O   0  0  0  0  0  0  0  0  0  0  0  0
  125.3720  131.1600   65.1850 N   0  0  0  0  0  0  0  0  0  0  0  0
  124.7250  131.8000   64.1330 N   0  0  0  0  0  0  0  0  0  0  0  0
  125.3990  132.7490   63.4520 C   0  0  0  0  0  0  0  0  0  0  0  0
  126.4840  133.2260   63.7960 O   0  0  0  0  0  0  0  0  0  0  0  0
  124.7390  133.2230   62.1500 C   0  0  0  0  0  0  0  0  0  0  0  0
  124.4730  131.9160   60.8970 S   0  0  0  0  0  0  0  0  0  0  0  0
  125.3500  130.5720   61.6360 C   0  0  0  0  0  0  0  0  0  0  0  0
  124.7780  129.6860   62.4120 N   0  0  0  0  0  0  0  0  0  0  0  0
  125.7680  128.8290   62.8690 N   0  0  0  0  0  0  0  0  0  0  0  0
  126.9010  129.2110   62.3270 C   0  0  0  0  0  0  0  0  0  0  0  0
  128.2020  128.5170   62.5680 C   0  0  0  0  0  0  0  0  0  0  0  0
  128.7030  128.4120   63.8690 C   0  0  0  0  0  0  0  0  0  0  0  0
  129.9170  127.7750   64.1030 C   0  0  0  0  0  0  0  0  0  0  0  0
  130.6360  127.2190   63.0380 C   0  0  0  0  0  0  0  0  0  0  0  0
  131.8700  126.5750   63.2130 N   0  0  0  0  0  0  0  0  0  0  0  0
  132.1750  125.2740   64.3850 S   0  0  0  0  0  0  0  0  0  0  0  0
  131.2010  125.4680   65.4660 O   0  0  0  0  0  0  0  0  0  0  0  0
  133.6150  125.2430   64.6660 O   0  0  0  0  0  0  0  0  0  0  0  0
  131.7140  123.7630   63.5400 C   0  0  0  0  0  0  0  0  0  0  0  0
  130.3880  123.3240   63.5400 C   0  0  0  0  0  0  0  0  0  0  0  0
  130.0530  122.1390   62.8910 C   0  0  0  0  0  0  0  0  0  0  0  0
  131.0400  121.3980   62.2370 C   0  0  0  0  0  0  0  0  0  0  0  0
  130.6750  120.0990   61.5420 C   0  0  0  0  0  0  0  0  0  0  0  0
  132.3660  121.8380   62.2410 C   0  0  0  0  0  0  0  0  0  0  0  0
  132.7020  123.0220   62.8920 C   0  0  0  0  0  0  0  0  0  0  0  0
  130.1330  127.3220   61.7400 C   0  0  0  0  0  0  0  0  0  0  0  0
  128.9220  127.9650   61.5050 C   0  0  0  0  0  0  0  0  0  0  0  0
  126.7070  130.3260   61.5280 N   0  0  0  0  0  0  0  0  0  0  0  0
  127.6670  131.0670   60.8100 C   0  0  0  0  0  0  0  0  0  0  0  0
  128.5670  131.8870   61.4910 C   0  0  0  0  0  0  0  0  0  0  0  0
  129.5160  132.6120   60.7760 C   0  0  0  0  0  0  0  0  0  0  0  0
  129.5740  132.5280   59.3840 C   0  0  0  0  0  0  0  0  0  0  0  0
  130.5480  133.2850   58.7630 O   0  0  0  0  0  0  0  0  0  0  0  0
  130.7150  133.1820   57.3520 C   0  0  0  0  0  0  0  0  0  0  0  0
  128.6640  131.7000   58.7070 C   0  0  0  0  0  0  0  0  0  0  0  0
  127.7150  130.9710   59.4170 C   0  0  0  0  0  0  0  0  0  0  0  0
  127.0600  129.2460   66.6790 C   0  0  0  0  0  0  0  0  0  0  0  0
  127.7730  128.5880   67.6770 C   0  0  0  0  0  0  0  0  0  0  0  0
  1  2  1  0
  2  3  1  0
  3  4  2  0
  4  5  1  0
  5  6  2  0
  6  7  1  0
  7  8  2  0
  7  9  1  0
  9 10  1  0
 10 11  1  0
 11 12  2  0
 11 13  1  0
 13 14  1  0
 14 15  1  0
 15 16  2  0
 16 17  1  0
 17 18  2  0
 18 19  1  0
 19 20  2  0
 20 21  1  0
 21 22  2  0
 22 23  1  0
 23 24  1  0
 24 25  2  0
 24 26  2  0
 24 27  1  0
 27 28  2  0
 28 29  1  0
 29 30  2  0
 30 31  1  0
 30 32  1  0
 32 33  2  0
 22 34  1  0
 34 35  2  0
 18 36  1  0
 36 37  1  0
 37 38  2  0
 38 39  1  0
 39 40  2  0
 40 41  1  0
 41 42  1  0
 40 43  1  0
 43 44  2  0
  6 45  1  0
 45 46  2  0
 46  3  1  0
 36 15  1  0
 44 37  1  0
 35 19  1  0
 33 27  1  0
M  END
>  <Binding energies>  (49) 
[-8.71]

>  <Ligand effiencies>  (49) 
[-0.17775510204081635]

>  <Interactions>  (49) 
["V-B:GLU:543:CB:9877, H-B:TYR:484:OH:9318, H-B:GLY:454:N:9020, V-A:PRO:540:CA:4882, V-B:TYR:539:CD2:9845, V-B:GLY:454:CA:9019, V-B:HIS:456:CE1:9040, V-A:HIS:456:CE1:4069, V-A:GLU:543:CD:4907, V-B:LEU:475:CD1:9228, V-B:GLU:543:CD:9879, V-A:ASP:366:CG:3212, H-B:ARG:545:NH1:9898, H-B:ARG:545:NH2:9899, V-B:ARG:545:CG:9893, V-B:ARG:545:CD:9894, V-A:ARG:545:CZ:4925, H-A:GLY:454:N:4049, V-B:ALA:541:CB:9863, H-A:ARG:545:NH2:4927, V-A:LEU:475:CD2:4258, H-A:TYR:484:OH:4347, H-A:ASP:366:OD1:3213, H-A:ASP:366:OD2:3214, V-A:TYR:539:C:4866, V-A:PRO:540:N:4883, H-B:ARG:545:NE:9895, V-B:SER:385:CB:8379"]

$$$$
RR33_Rahimova_2017
     RDKit          3D

 18 19  0  0  0  0  0  0  0  0999 V2000
  134.4280  125.7210   67.1080 C   0  0  0  0  0  0  0  0  0  0  0  0
  133.3360  125.9830   66.0660 C   0  0  0  0  0  0  0  0  0  0  0  0
  133.8760  125.7470   64.7680 O   0  0  0  0  0  0  0  0  0  0  0  0
  133.5140  124.6040   64.0810 C   0  0  0  0  0  0  0  0  0  0  0  0
  134.2870  124.2770   62.9680 C   0  0  0  0  0  0  0  0  0  0  0  0
  133.9960  123.1460   62.2110 C   0  0  0  0  0  0  0  0  0  0  0  0
  132.9220  122.3210   62.5580 C   0  0  0  0  0  0  0  0  0  0  0  0
  132.6090  121.1070   61.7440 C   0  0  0  0  0  0  0  0  0  0  0  0
  131.5820  120.2970   61.8730 N   0  0  0  0  0  0  0  0  0  0  0  0
  131.7400  119.3790   60.9320 C   0  0  0  0  0  0  0  0  0  0  0  0
  130.7320  118.2630   60.7560 C   0  0  0  0  0  0  0  0  0  0  0  0
  131.3760  116.9650   60.8890 N   0  0  0  0  0  0  0  0  0  0  0  0
  131.8040  116.7430   62.2610 C   0  0  0  0  0  0  0  0  0  0  0  0
  132.8990  119.6430   60.2130 C   0  0  0  0  0  0  0  0  0  0  0  0
  133.6110  118.9980   59.0490 C   0  0  0  0  0  0  0  0  0  0  0  0
  133.4560  120.7580   60.7410 O   0  0  0  0  0  0  0  0  0  0  0  0
  132.1460  122.6430   63.6760 C   0  0  0  0  0  0  0  0  0  0  0  0
  132.4370  123.7760   64.4330 C   0  0  0  0  0  0  0  0  0  0  0  0
  1  2  1  0
  2  3  1  0
  3  4  1  0
  4  5  2  0
  5  6  1  0
  6  7  2  0
  7  8  1  0
  8  9  2  0
  9 10  1  0
 10 11  1  0
 11 12  1  0
 12 13  1  0
 10 14  2  0
 14 15  1  0
 14 16  1  0
  7 17  1  0
 17 18  2  0
 18  4  1  0
 16  8  1  0
M  END
>  <Binding energies>  (50) 
[-5.36]

>  <Ligand effiencies>  (50) 
[-0.28210526315789475]

>  <Interactions>  (50) 
["V-B:TYR:539:CD2:9845, V-B:TYR:539:CE2:9847, V-A:ASP:366:CG:3212, V-A:VAL:384:C:3396, H-A:ARG:545:NE:4923, V-A:ILE:369:CG2:3236, V-A:ARG:545:CZ:4925, V-A:SER:385:CA:3406, H-A:ARG:545:NH1:4926, V-A:SER:385:CB:3408, V-A:ARG:545:CD:4922, H-A:GLY:454:N:4049, H-A:ARG:545:NH2:4927, V-A:ARG:545:CG:4921, V-A:ILE:369:CD1:3238, V-A:LEU:475:CD2:4258, V-A:HIS:383:CE1:3393, V-B:TYR:539:CB:9842, V-A:PRO:482:CB:4325, V-A:LEU:373:CD2:3280, V-A:GLY:453:C:4041, V-A:GLY:453:CA:4043, V-A:GLY:454:CA:4048, V-A:LEU:373:CG:3278, H-A:VAL:384:O:3397, H-A:HIS:383:ND1:3390, V-A:THR:477:CG2:4272"]

$$$$
RR3_Rahimova_2017
     RDKit          3D

 38 44  0  0  0  0  0  0  0  0999 V2000
  132.0560  133.4840   56.2570 C   0  0  0  0  0  0  0  0  0  0  0  0
  130.6770  133.5210   56.4340 C   0  0  0  0  0  0  0  0  0  0  0  0
  130.0970  132.8040   57.4770 C   0  0  0  0  0  0  0  0  0  0  0  0
  130.8850  132.0440   58.3540 C   0  0  0  0  0  0  0  0  0  0  0  0
  130.2590  131.2750   59.4760 C   0  0  0  0  0  0  0  0  0  0  0  0
  130.4050  129.8840   59.5650 C   0  0  0  0  0  0  0  0  0  0  0  0
  129.8200  129.1690   60.6060 C   0  0  0  0  0  0  0  0  0  0  0  0
  129.0670  129.8300   61.5810 C   0  0  0  0  0  0  0  0  0  0  0  0
  128.4310  129.0670   62.7000 C   0  0  0  0  0  0  0  0  0  0  0  0
  128.4760  129.5430   63.9390 N   0  0  0  0  0  0  0  0  0  0  0  0
  127.8090  128.7000   64.6900 C   0  0  0  0  0  0  0  0  0  0  0  0
  127.6040  128.8340   66.1290 C   0  0  0  0  0  0  0  0  0  0  0  0
  126.4330  129.2400   66.7470 C   0  0  0  0  0  0  0  0  0  0  0  0
  126.5930  129.2440   68.1080 N   0  0  0  0  0  0  0  0  0  0  0  0
  127.8700  128.8440   68.4310 C   0  0  0  0  0  0  0  0  0  0  0  0
  128.4930  128.6930   69.6750 C   0  0  0  0  0  0  0  0  0  0  0  0
  129.8200  128.2650   69.6710 C   0  0  0  0  0  0  0  0  0  0  0  0
  130.5010  127.9980   68.4880 C   0  0  0  0  0  0  0  0  0  0  0  0
  129.8810  128.1470   67.2490 C   0  0  0  0  0  0  0  0  0  0  0  0
  128.5430  128.5770   67.1970 C   0  0  0  0  0  0  0  0  0  0  0  0
  127.3270  127.6580   63.9450 N   0  0  0  0  0  0  0  0  0  0  0  0
  127.7310  127.8490   62.6490 C   0  0  0  0  0  0  0  0  0  0  0  0
  127.4390  126.8740   61.5570 C   0  0  0  0  0  0  0  0  0  0  0  0
  128.2260  125.7310   61.4080 C   0  0  0  0  0  0  0  0  0  0  0  0
  127.9650  124.8270   60.3840 C   0  0  0  0  0  0  0  0  0  0  0  0
  126.9080  125.0390   59.4870 C   0  0  0  0  0  0  0  0  0  0  0  0
  126.6420  124.0750   58.3750 C   0  0  0  0  0  0  0  0  0  0  0  0
  125.3490  123.9190   57.8520 C   0  0  0  0  0  0  0  0  0  0  0  0
  125.1030  123.0240   56.8130 C   0  0  0  0  0  0  0  0  0  0  0  0
  126.1490  122.2740   56.2860 C   0  0  0  0  0  0  0  0  0  0  0  0
  127.4380  122.4130   56.7890 C   0  0  0  0  0  0  0  0  0  0  0  0
  127.6810  123.3070   57.8270 C   0  0  0  0  0  0  0  0  0  0  0  0
  126.1130  126.1820   59.6580 C   0  0  0  0  0  0  0  0  0  0  0  0
  126.3720  127.0890   60.6810 C   0  0  0  0  0  0  0  0  0  0  0  0
  128.9270  131.2170   61.5080 C   0  0  0  0  0  0  0  0  0  0  0  0
  129.5130  131.9300   60.4650 C   0  0  0  0  0  0  0  0  0  0  0  0
  132.2730  132.0220   58.1560 C   0  0  0  0  0  0  0  0  0  0  0  0
  132.8570  132.7370   57.1140 C   0  0  0  0  0  0  0  0  0  0  0  0
  1  2  2  0
  2  3  1  0
  3  4  2  0
  4  5  1  0
  5  6  2  0
  6  7  1  0
  7  8  2  0
  8  9  1  0
  9 10  1  0
 10 11  2  0
 11 12  1  0
 12 13  2  0
 13 14  1  0
 14 15  1  0
 15 16  2  0
 16 17  1  0
 17 18  2  0
 18 19  1  0
 19 20  2  0
 11 21  1  0
 21 22  1  0
 22 23  1  0
 23 24  2  0
 24 25  1  0
 25 26  2  0
 26 27  1  0
 27 28  2  0
 28 29  1  0
 29 30  2  0
 30 31  1  0
 31 32  2  0
 26 33  1  0
 33 34  2  0
  8 35  1  0
 35 36  2  0
  4 37  1  0
 37 38  2  0
 38  1  1  0
 36  5  1  0
 22  9  2  0
 34 23  1  0
 20 12  1  0
 32 27  1  0
 20 15  1  0
M  END
>  <Binding energies>  (51) 
[-9.94]

>  <Ligand effiencies>  (51) 
[-0.2485]

>  <Interactions>  (51) 
["V-A:TYR:539:CD1:4872, V-B:PRO:540:CD:9858, V-B:PRO:540:N:9855, H-B:TYR:484:OH:9318, V-A:GLU:543:CB:4905, V-B:TYR:531:CE2:9764, V-B:LEU:363:CD1:8159, V-A:PRO:540:CA:4882, V-B:MET:535:CE:9806, V-B:TYR:539:CD2:9845, V-A:PRO:540:CB:4884, V-B:HIS:456:CE1:9040, V-A:HIS:456:CE1:4069, V-B:TYR:539:C:9838, V-B:TYR:539:CE1:9846, V-B:TYR:539:CD1:9844, V-A:GLU:543:CD:4907, V-A:GLU:543:CG:4906, V-B:PRO:540:CB:9856, V-B:GLU:543:CD:9879, V-B:TYR:539:CG:9843, V-B:TYR:539:CA:9840, H-B:GLU:543:OE2:9881, V-A:TYR:539:C:4866, V-A:TYR:531:CE2:4792, V-A:PRO:540:N:4883, V-B:TYR:484:CZ:9317, V-A:LEU:363:CD1:3188, V-A:PRO:540:CD:4886, H-B:GLU:543:OE1:9880, V-B:TYR:484:CE2:9316, V-B:ILE:538:CA:9831, V-A:ILE:538:CB:4861, V-A:ILE:538:CG2:4862, V-A:ILE:538:CA:4859"]

$$$$
RR4_Rahimova_2017
     RDKit          3D

 40 44  0  0  0  0  0  0  0  0999 V2000
  126.4750  127.5410   73.8910 C   0  0  0  0  0  0  0  0  0  0  0  0
  127.7210  127.0340   73.4260 O   0  0  0  0  0  0  0  0  0  0  0  0
  128.0860  127.2450   72.1100 C   0  0  0  0  0  0  0  0  0  0  0  0
  127.2520  126.7000   71.1350 C   0  0  0  0  0  0  0  0  0  0  0  0
  127.5400  126.8630   69.7840 C   0  0  0  0  0  0  0  0  0  0  0  0
  128.6740  127.5750   69.3650 C   0  0  0  0  0  0  0  0  0  0  0  0
  128.9830  127.7480   67.9060 C   0  0  0  0  0  0  0  0  0  0  0  0
  129.9790  127.0170   67.2500 C   0  0  0  0  0  0  0  0  0  0  0  0
  130.2260  127.2120   65.8850 C   0  0  0  0  0  0  0  0  0  0  0  0
  131.2860  126.3750   65.2460 C   0  0  0  0  0  0  0  0  0  0  0  0
  130.9530  125.4770   64.2280 C   0  0  0  0  0  0  0  0  0  0  0  0
  131.9360  124.7010   63.6190 C   0  0  0  0  0  0  0  0  0  0  0  0
  133.2700  124.8130   64.0110 C   0  0  0  0  0  0  0  0  0  0  0  0
  134.1760  124.0060   63.3510 O   0  0  0  0  0  0  0  0  0  0  0  0
  133.8190  123.4470   62.0910 C   0  0  0  0  0  0  0  0  0  0  0  0
  133.6100  125.7180   65.0280 C   0  0  0  0  0  0  0  0  0  0  0  0
  132.6240  126.4920   65.6350 C   0  0  0  0  0  0  0  0  0  0  0  0
  129.4630  128.1850   65.1930 C   0  0  0  0  0  0  0  0  0  0  0  0
  129.6800  128.4280   63.7640 C   0  0  0  0  0  0  0  0  0  0  0  0
  129.8510  128.6200   62.6360 N   0  0  0  0  0  0  0  0  0  0  0  0
  128.4930  128.9080   65.9250 C   0  0  0  0  0  0  0  0  0  0  0  0
  127.4550  130.1730   65.2240 S   0  0  0  0  0  0  0  0  0  0  0  0
  128.4440  131.7010   65.1060 C   0  0  0  0  0  0  0  0  0  0  0  0
  128.5510  132.2830   63.6900 C   0  0  0  0  0  0  0  0  0  0  0  0
  127.9800  133.3380   63.4010 O   0  0  0  0  0  0  0  0  0  0  0  0
  129.2900  131.5450   62.8290 N   0  0  0  0  0  0  0  0  0  0  0  0
  129.5750  131.8050   61.4860 C   0  0  0  0  0  0  0  0  0  0  0  0
  128.3490  131.8530   60.2480 S   0  0  0  0  0  0  0  0  0  0  0  0
  129.5250  132.2000   59.0180 C   0  0  0  0  0  0  0  0  0  0  0  0
  130.8220  132.2710   59.5490 C   0  0  0  0  0  0  0  0  0  0  0  0
  130.8460  132.0620   60.9500 C   0  0  0  0  0  0  0  0  0  0  0  0
  132.0680  132.1040   61.7470 C   0  0  0  0  0  0  0  0  0  0  0  0
  133.0370  132.1360   62.3790 N   0  0  0  0  0  0  0  0  0  0  0  0
  132.0330  132.6040   58.6690 C   0  0  0  0  0  0  0  0  0  0  0  0
  131.5780  133.2120   57.3240 C   0  0  0  0  0  0  0  0  0  0  0  0
  130.4190  132.4220   56.6910 C   0  0  0  0  0  0  0  0  0  0  0  0
  129.1470  132.4600   57.5650 C   0  0  0  0  0  0  0  0  0  0  0  0
  128.2530  128.6770   67.2370 N   0  0  0  0  0  0  0  0  0  0  0  0
  129.5060  128.1230   70.3550 C   0  0  0  0  0  0  0  0  0  0  0  0
  129.2210  127.9610   71.7080 C   0  0  0  0  0  0  0  0  0  0  0  0
  1  2  1  0
  2  3  1  0
  3  4  2  0
  4  5  1  0
  5  6  2  0
  6  7  1  0
  7  8  2  0
  8  9  1  0
  9 10  1  0
 10 11  2  0
 11 12  1  0
 12 13  2  0
 13 14  1  0
 14 15  1  0
 13 16  1  0
 16 17  2  0
  9 18  2  0
 18 19  1  0
 19 20  3  0
 18 21  1  0
 21 22  1  0
 22 23  1  0
 23 24  1  0
 24 25  2  0
 24 26  1  0
 26 27  1  0
 27 28  1  0
 28 29  1  0
 29 30  2  0
 30 31  1  0
 31 32  1  0
 32 33  3  0
 30 34  1  0
 34 35  1  0
 35 36  1  0
 36 37  1  0
 21 38  2  0
  6 39  1  0
 39 40  2  0
 40  3  1  0
 38  7  1  0
 17 10  1  0
 31 27  2  0
 37 29  1  0
M  END
>  <Binding energies>  (52) 
[-9.15]

>  <Ligand effiencies>  (52) 
[-0.22317073170731708]

>  <Interactions>  (52) 
["V-A:TYR:539:CD1:4872, V-B:GLU:543:CB:9877, V-A:PRO:540:CA:4882, V-A:PRO:540:CB:4884, V-B:HIS:456:CE1:9040, V-A:HIS:456:CE1:4069, V-A:PRO:540:C:4880, V-A:GLU:543:CD:4907, V-A:GLU:543:CG:4906, V-A:TYR:539:CE1:4874, V-B:GLU:543:CD:9879, V-B:LYS:547:CE:9921, V-B:GLU:543:C:9873, V-B:GLY:544:C:9883, V-A:ALA:541:CB:4891, H-A:ALA:541:N:4890, V-B:HIS:456:CD2:9038, H-B:LYS:547:NZ:9922, V-A:ARG:545:CZ:4925, V-A:ARG:545:CD:4922, H-A:GLY:454:N:4049, V-A:ILE:369:CD1:3238, V-A:GLY:454:CA:4048, H-A:GLU:543:OE2:4909, V-A:TYR:539:C:4866, V-B:HIS:456:CG:9036, V-A:PRO:540:N:4883, V-A:PRO:540:CD:4886"]

$$$$
RR6_Rahimova_2017
     RDKit          3D

 38 41  0  0  0  0  0  0  0  0999 V2000
  133.6420  131.1540   57.8170 C   0  0  0  0  0  0  0  0  0  0  0  0
  133.1930  132.4630   58.1400 O   0  0  0  0  0  0  0  0  0  0  0  0
  131.8710  132.7720   58.1220 C   0  0  0  0  0  0  0  0  0  0  0  0
  131.2940  133.2320   57.1320 O   0  0  0  0  0  0  0  0  0  0  0  0
  131.1790  132.4990   59.4270 C   0  0  0  0  0  0  0  0  0  0  0  0
  129.8440  132.8660   59.6510 C   0  0  0  0  0  0  0  0  0  0  0  0
  129.2320  132.6050   60.8760 C   0  0  0  0  0  0  0  0  0  0  0  0
  129.9510  131.9740   61.9010 C   0  0  0  0  0  0  0  0  0  0  0  0
  129.4410  131.6900   63.1810 N   0  0  0  0  0  0  0  0  0  0  0  0
  128.5180  132.3620   63.9030 C   0  0  0  0  0  0  0  0  0  0  0  0
  127.9300  133.3800   63.5400 O   0  0  0  0  0  0  0  0  0  0  0  0
  128.2510  131.8140   65.3100 C   0  0  0  0  0  0  0  0  0  0  0  0
  127.3320  130.2390   65.3220 S   0  0  0  0  0  0  0  0  0  0  0  0
  128.4240  129.0120   66.0100 C   0  0  0  0  0  0  0  0  0  0  0  0
  128.2310  128.7700   67.3280 N   0  0  0  0  0  0  0  0  0  0  0  0
  128.9840  127.8340   67.9590 C   0  0  0  0  0  0  0  0  0  0  0  0
  128.6650  127.5830   69.4030 C   0  0  0  0  0  0  0  0  0  0  0  0
  129.4660  128.1190   70.4240 C   0  0  0  0  0  0  0  0  0  0  0  0
  129.1770  127.8760   71.7640 C   0  0  0  0  0  0  0  0  0  0  0  0
  128.0760  127.0930   72.1100 C   0  0  0  0  0  0  0  0  0  0  0  0
  127.7710  126.8220   73.5710 C   0  0  0  0  0  0  0  0  0  0  0  0
  127.2680  126.5530   71.1120 C   0  0  0  0  0  0  0  0  0  0  0  0
  127.5600  126.8010   69.7750 C   0  0  0  0  0  0  0  0  0  0  0  0
  129.9690  127.1230   67.2650 C   0  0  0  0  0  0  0  0  0  0  0  0
  130.1910  127.3580   65.9010 C   0  0  0  0  0  0  0  0  0  0  0  0
  131.2450  126.5510   65.2180 C   0  0  0  0  0  0  0  0  0  0  0  0
  132.5240  126.4500   65.7760 C   0  0  0  0  0  0  0  0  0  0  0  0
  133.5080  125.6860   65.1540 C   0  0  0  0  0  0  0  0  0  0  0  0
  133.2340  125.0050   63.9690 C   0  0  0  0  0  0  0  0  0  0  0  0
  134.2700  124.2710   63.4250 O   0  0  0  0  0  0  0  0  0  0  0  0
  133.9690  123.2060   62.5290 C   0  0  0  0  0  0  0  0  0  0  0  0
  131.9500  125.0990   63.4080 C   0  0  0  0  0  0  0  0  0  0  0  0
  130.9680  125.8630   64.0330 C   0  0  0  0  0  0  0  0  0  0  0  0
  129.4010  128.3370   65.2490 C   0  0  0  0  0  0  0  0  0  0  0  0
  129.6010  128.6540   63.8320 C   0  0  0  0  0  0  0  0  0  0  0  0
  129.7580  128.9020   62.7120 N   0  0  0  0  0  0  0  0  0  0  0  0
  131.2740  131.5920   61.6750 C   0  0  0  0  0  0  0  0  0  0  0  0
  131.8840  131.8560   60.4520 C   0  0  0  0  0  0  0  0  0  0  0  0
  1  2  1  0
  2  3  1  0
  3  4  2  0
  3  5  1  0
  5  6  2  0
  6  7  1  0
  7  8  2  0
  8  9  1  0
  9 10  1  0
 10 11  2  0
 10 12  1  0
 12 13  1  0
 13 14  1  0
 14 15  2  0
 15 16  1  0
 16 17  1  0
 17 18  2  0
 18 19  1  0
 19 20  2  0
 20 21  1  0
 20 22  1  0
 22 23  2  0
 16 24  2  0
 24 25  1  0
 25 26  1  0
 26 27  2  0
 27 28  1  0
 28 29  2  0
 29 30  1  0
 30 31  1  0
 29 32  1  0
 32 33  2  0
 25 34  2  0
 34 35  1  0
 35 36  3  0
  8 37  1  0
 37 38  2  0
 38  5  1  0
 34 14  1  0
 23 17  1  0
 33 26  1  0
M  END
>  <Binding energies>  (53) 
[-8.43]

>  <Ligand effiencies>  (53) 
[-0.21615384615384614]

>  <Interactions>  (53) 
["V-B:GLU:543:CB:9877, H-B:TYR:484:OH:9318, V-A:PRO:540:CA:4882, V-A:PRO:540:CB:4884, V-B:HIS:456:CE1:9040, V-A:HIS:456:CE1:4069, V-A:GLU:543:CD:4907, V-A:GLU:543:CG:4906, V-B:LYS:547:CE:9921, V-B:GLU:543:C:9873, V-A:ASP:366:CB:3211, V-A:TYR:531:CZ:4793, V-B:GLY:544:C:9883, V-A:ALA:541:CB:4891, V-A:ARG:545:CZ:4925, H-A:GLY:454:N:4049, V-A:ILE:369:CD1:3238, V-A:GLY:454:CA:4048, H-A:GLU:543:OE2:4909, V-A:TYR:539:C:4866, V-A:TYR:531:CE2:4792, V-A:PRO:540:N:4883, V-A:LEU:363:CD1:3188, V-A:LEU:363:CA:3184, V-A:PRO:540:CD:4886"]

$$$$
RR7_Rahimova_2017
     RDKit          3D

 47 53  0  0  0  0  0  0  0  0999 V2000
  133.2480  126.1590   66.7650 C   0  0  0  0  0  0  0  0  0  0  0  0
  133.9310  125.7250   65.5930 O   0  0  0  0  0  0  0  0  0  0  0  0
  133.2320  125.0280   64.6270 C   0  0  0  0  0  0  0  0  0  0  0  0
  132.4730  125.7860   63.7370 C   0  0  0  0  0  0  0  0  0  0  0  0
  131.7400  125.1720   62.7270 C   0  0  0  0  0  0  0  0  0  0  0  0
  131.7380  123.7760   62.5900 C   0  0  0  0  0  0  0  0  0  0  0  0
  130.9520  123.0630   61.4460 C   0  0  0  0  0  0  0  0  0  0  0  0
  129.5760  122.9880   61.8840 O   0  0  0  0  0  0  0  0  0  0  0  0
  129.2580  123.1230   63.2730 C   0  0  0  0  0  0  0  0  0  0  0  0
  127.8430  123.7110   63.4070 C   0  0  1  0  0  0  0  0  0  0  0  0
  127.9560  125.1140   63.1840 O   0  0  0  0  0  0  0  0  0  0  0  0
  127.1680  125.5380   62.1100 C   0  0  1  0  0  0  0  0  0  0  0  0
  127.8100  126.6430   61.4250 N   0  0  0  0  0  0  0  0  0  0  0  0
  127.9980  126.8080   60.0640 C   0  0  0  0  0  0  0  0  0  0  0  0
  128.6560  127.8860   59.7150 N   0  0  0  0  0  0  0  0  0  0  0  0
  128.9780  128.4730   60.9090 C   0  0  0  0  0  0  0  0  0  0  0  0
  129.6920  129.6460   61.2210 C   0  0  0  0  0  0  0  0  0  0  0  0
  130.1940  130.4310   60.1660 N   0  0  0  0  0  0  0  0  0  0  0  0
  130.7440  131.6680   60.2110 C   0  0  0  0  0  0  0  0  0  0  0  0
  130.8770  132.3320   61.2420 O   0  0  0  0  0  0  0  0  0  0  0  0
  131.1800  132.2400   58.8790 C   0  0  0  0  0  0  0  0  0  0  0  0
  130.2620  132.9610   58.0990 C   0  0  0  0  0  0  0  0  0  0  0  0
  130.6430  133.5000   56.8740 C   0  0  0  0  0  0  0  0  0  0  0  0
  131.9460  133.3280   56.4190 C   0  0  0  0  0  0  0  0  0  0  0  0
  132.8730  132.6200   57.1790 C   0  0  0  0  0  0  0  0  0  0  0  0
  132.4930  132.0780   58.4050 C   0  0  0  0  0  0  0  0  0  0  0  0
  129.8800  129.9850   62.5320 N   0  0  0  0  0  0  0  0  0  0  0  0
  129.3620  129.1610   63.4800 C   0  0  0  0  0  0  0  0  0  0  0  0
  128.6580  128.0130   63.2920 N   0  0  0  0  0  0  0  0  0  0  0  0
  128.4840  127.7100   61.9980 C   0  0  0  0  0  0  0  0  0  0  0  0
  126.9470  124.2930   61.2580 C   0  0  0  0  0  0  0  0  0  0  0  0
  126.8410  123.2370   62.3450 C   0  0  2  0  0  0  0  0  0  0  0  0
  125.5220  123.1300   62.8550 O   0  0  0  0  0  0  0  0  0  0  0  0
  130.9620  123.8770   60.1250 C   0  0  0  0  0  0  0  0  0  0  0  0
  132.1280  124.5410   59.7120 C   0  0  0  0  0  0  0  0  0  0  0  0
  132.1460  125.2850   58.5370 C   0  0  0  0  0  0  0  0  0  0  0  0
  130.9940  125.3730   57.7600 C   0  0  0  0  0  0  0  0  0  0  0  0
  129.8270  124.7230   58.1500 C   0  0  0  0  0  0  0  0  0  0  0  0
  129.8110  123.9800   59.3270 C   0  0  0  0  0  0  0  0  0  0  0  0
  131.4530  121.6410   61.0650 C   0  0  0  0  0  0  0  0  0  0  0  0
  130.6220  120.5230   61.2430 C   0  0  0  0  0  0  0  0  0  0  0  0
  131.0650  119.2460   60.9140 C   0  0  0  0  0  0  0  0  0  0  0  0
  132.3510  119.0710   60.4100 C   0  0  0  0  0  0  0  0  0  0  0  0
  133.1960  120.1630   60.2390 C   0  0  0  0  0  0  0  0  0  0  0  0
  132.7510  121.4390   60.5680 C   0  0  0  0  0  0  0  0  0  0  0  0
  132.5150  123.0190   63.4790 C   0  0  0  0  0  0  0  0  0  0  0  0
  133.2490  123.6330   64.4890 C   0  0  0  0  0  0  0  0  0  0  0  0
  1  2  1  0
  2  3  1  0
  3  4  2  0
  4  5  1  0
  5  6  2  0
  6  7  1  0
  7  8  1  0
  8  9  1  0
 10  9  1  6
 10 11  1  0
 11 12  1  0
 12 13  1  6
 13 14  1  0
 14 15  2  0
 15 16  1  0
 16 17  2  0
 17 18  1  0
 18 19  1  0
 19 20  2  0
 19 21  1  0
 21 22  2  0
 22 23  1  0
 23 24  2  0
 24 25  1  0
 25 26  2  0
 17 27  1  0
 27 28  2  0
 28 29  1  0
 29 30  2  0
 12 31  1  0
 31 32  1  0
 32 33  1  1
  7 34  1  0
 34 35  2  0
 35 36  1  0
 36 37  2  0
 37 38  1  0
 38 39  2  0
  7 40  1  0
 40 41  2  0
 41 42  1  0
 42 43  2  0
 43 44  1  0
 44 45  2  0
  6 46  1  0
 46 47  2  0
 47  3  1  0
 32 10  1  0
 39 34  1  0
 45 40  1  0
 30 13  1  0
 30 16  1  0
 26 21  1  0
M  END
>  <Binding energies>  (54) 
[-10.01]

>  <Ligand effiencies>  (54) 
[-0.2042857142857143]

>  <Interactions>  (54) 
["V-A:PRO:540:CA:4882, V-B:TYR:539:CD2:9845, V-A:PRO:540:CB:4884, V-B:TYR:539:CZ:9848, V-A:GLU:543:CD:4907, V-B:TYR:539:CE2:9847, V-B:GLU:543:CD:9879, V-A:ASP:366:CG:3212, V-A:ASP:366:CB:3211, H-A:ALA:541:N:4890, V-B:GLU:543:CG:9878, H-A:ARG:545:NE:4923, V-A:ILE:369:CG2:3236, V-A:ARG:545:CZ:4925, V-A:SER:385:CA:3406, H-A:ARG:545:NH1:4926, V-A:ARG:545:CD:4922, H-A:GLY:454:N:4049, V-B:ALA:541:CB:9863, H-A:ARG:545:NH2:4927, V-A:ARG:545:CG:4921, V-A:LEU:475:CD2:4258, V-B:ALA:541:CA:9861, V-B:PRO:540:CA:9854, H-A:TYR:484:OH:4347, H-B:ALA:541:N:9862, V-A:GLY:454:CA:4048, V-B:PRO:540:C:9852, V-A:TYR:539:C:4866, V-A:TYR:531:CE2:4792, V-A:PRO:540:N:4883, V-A:LEU:363:CD1:3188, V-A:PRO:540:CD:4886, H-B:GLU:543:OE1:9880, H-B:ALA:541:O:9860, V-A:ILE:538:CB:4861"]

$$$$
RR8_A_Rahimova_2017
     RDKit          3D

 42 46  0  0  0  0  0  0  0  0999 V2000
  130.0590  127.8690   63.1180 O   0  0  0  0  0  0  0  0  0  0  0  0
  130.3520  126.7150   63.4500 C   0  0  0  0  0  0  0  0  0  0  0  0
  129.8020  125.5890   62.8990 O   0  0  0  0  0  0  0  0  0  0  0  0
  130.2950  125.1660   61.6580 C   0  0  1  0  0  0  0  0  0  0  0  0
  131.6880  125.0470   61.6700 O   0  0  0  0  0  0  0  0  0  0  0  0
  132.1300  123.9210   60.9160 C   0  0  2  0  0  0  0  0  0  0  0  0
  133.1290  124.4050   59.8520 C   0  0  0  0  0  0  0  0  0  0  0  0
  132.4810  124.4220   58.5880 O   0  0  0  0  0  0  0  0  0  0  0  0
  132.5330  125.6800   57.9280 C   0  0  0  0  0  0  0  0  0  0  0  0
  131.1360  126.2770   57.8430 C   0  0  0  0  0  0  0  0  0  0  0  0
  130.6880  127.1460   58.8410 C   0  0  0  0  0  0  0  0  0  0  0  0
  129.4110  127.6980   58.7620 C   0  0  0  0  0  0  0  0  0  0  0  0
  128.5880  127.3830   57.6830 C   0  0  0  0  0  0  0  0  0  0  0  0
  129.0300  126.5220   56.6810 C   0  0  0  0  0  0  0  0  0  0  0  0
  130.3060  125.9710   56.7590 C   0  0  0  0  0  0  0  0  0  0  0  0
  130.8300  123.3130   60.3730 C   0  0  1  0  0  0  0  0  0  0  0  0
  130.8360  121.8870   60.3710 O   0  0  0  0  0  0  0  0  0  0  0  0
  131.8780  121.2730   61.1210 C   0  0  0  0  0  0  0  0  0  0  0  0
  131.6680  119.7660   61.1660 C   0  0  0  0  0  0  0  0  0  0  0  0
  132.7170  118.9090   60.8240 C   0  0  0  0  0  0  0  0  0  0  0  0
  132.5290  117.5300   60.8540 C   0  0  0  0  0  0  0  0  0  0  0  0
  131.2900  117.0100   61.2240 C   0  0  0  0  0  0  0  0  0  0  0  0
  130.2370  117.8570   61.5600 C   0  0  0  0  0  0  0  0  0  0  0  0
  130.4240  119.2370   61.5280 C   0  0  0  0  0  0  0  0  0  0  0  0
  129.7870  123.7580   61.3820 C   0  0  2  0  0  0  0  0  0  0  0  0
  128.4840  123.7220   60.8060 O   0  0  0  0  0  0  0  0  0  0  0  0
  128.2680  124.6070   59.7120 C   0  0  0  0  0  0  0  0  0  0  0  0
  127.5500  123.8760   58.5880 C   0  0  0  0  0  0  0  0  0  0  0  0
  126.1760  124.0560   58.3950 C   0  0  0  0  0  0  0  0  0  0  0  0
  125.5260  123.3920   57.3580 C   0  0  0  0  0  0  0  0  0  0  0  0
  126.2500  122.5540   56.5140 C   0  0  0  0  0  0  0  0  0  0  0  0
  127.6190  122.3740   56.6950 C   0  0  0  0  0  0  0  0  0  0  0  0
  128.2710  123.0370   57.7320 C   0  0  0  0  0  0  0  0  0  0  0  0
  131.3720  126.4040   64.5060 C   0  0  0  0  0  0  0  0  0  0  0  0
  131.0850  126.5260   65.8740 C   0  0  0  0  0  0  0  0  0  0  0  0
  132.0530  126.2310   66.8300 C   0  0  0  0  0  0  0  0  0  0  0  0
  133.3320  125.8080   66.4440 C   0  0  0  0  0  0  0  0  0  0  0  0
  134.3630  125.4930   67.4630 N   0  0  0  0  0  0  0  0  0  0  0  0
  135.5350  125.4080   67.1080 O   0  0  0  0  0  0  0  0  0  0  0  0
  134.0080  125.3280   68.6270 O   0  0  0  0  0  0  0  0  0  0  0  0
  133.6190  125.6890   65.0780 C   0  0  0  0  0  0  0  0  0  0  0  0
  132.6520  125.9840   64.1220 C   0  0  0  0  0  0  0  0  0  0  0  0
  1  2  2  0
  2  3  1  0
  4  3  1  1
  4  5  1  0
  5  6  1  0
  6  7  1  6
  7  8  1  0
  8  9  1  0
  9 10  1  0
 10 11  2  0
 11 12  1  0
 12 13  2  0
 13 14  1  0
 14 15  2  0
  6 16  1  0
 16 17  1  1
 17 18  1  0
 18 19  1  0
 19 20  2  0
 20 21  1  0
 21 22  2  0
 22 23  1  0
 23 24  2  0
 16 25  1  0
 25 26  1  6
 26 27  1  0
 27 28  1  0
 28 29  2  0
 29 30  1  0
 30 31  2  0
 31 32  1  0
 32 33  2  0
  2 34  1  0
 34 35  2  0
 35 36  1  0
 36 37  2  0
 37 38  1  0
 38 39  2  0
 38 40  1  0
 37 41  1  0
 41 42  2  0
 25  4  1  0
 33 28  1  0
 42 34  1  0
 15 10  1  0
 24 19  1  0
M  CHG  2  38   1  40  -1
M  END
>  <Binding energies>  (55) 
[-10.33]

>  <Ligand effiencies>  (55) 
[-0.24595238095238095]

>  <Interactions>  (55) 
["V-B:PRO:540:CD:9858, V-B:PRO:540:N:9855, V-B:MET:535:CE:9806, V-B:TYR:539:CD2:9845, V-B:TYR:539:CZ:9848, V-A:HIS:456:CE1:4069, V-B:TYR:539:C:9838, V-B:TYR:539:CE1:9846, V-B:TYR:539:CD1:9844, V-A:GLU:543:CD:4907, V-B:PRO:540:CB:9856, V-B:TYR:539:CE2:9847, V-B:TYR:539:CG:9843, V-A:ASP:366:CG:3212, V-A:ASP:366:CA:3209, V-A:ASP:366:CB:3211, V-A:TYR:484:CZ:4346, V-A:ARG:545:CZ:4925, V-A:SER:385:CA:3406, V-A:SER:385:CB:3408, V-A:ARG:545:CD:4922, H-A:GLY:454:N:4049, V-B:ALA:541:CB:9863, V-A:ARG:545:CG:4921, V-A:ILE:369:CD1:3238, V-A:LEU:475:CD2:4258, V-A:HIS:383:CE1:3393, H-B:TYR:539:OH:9849, V-A:PRO:482:CG:4326, V-A:ASP:366:C:3207, H-A:TYR:484:OH:4347, V-A:PRO:482:CB:4325, V-B:TYR:539:CA:9840, V-A:ILE:455:C:4051, H-A:ILE:455:N:4054, H-A:HIS:456:ND1:4066"]

$$$$
RR8_B_Rahimova_2017
     RDKit          3D

 42 46  0  0  0  0  0  0  0  0999 V2000
  129.1300  127.0390   63.5950 O   0  0  0  0  0  0  0  0  0  0  0  0
  129.9130  126.0840   63.6120 C   0  0  0  0  0  0  0  0  0  0  0  0
  129.7930  124.9720   62.8250 O   0  0  0  0  0  0  0  0  0  0  0  0
  129.0900  123.8680   63.3390 C   0  0  2  0  0  0  0  0  0  0  0  0
  129.9000  123.0670   64.1530 O   0  0  0  0  0  0  0  0  0  0  0  0
  130.5280  122.0280   63.4030 C   0  0  2  0  0  0  0  0  0  0  0  0
  132.0560  122.1440   63.5460 C   0  0  0  0  0  0  0  0  0  0  0  0
  132.6580  122.0070   62.2650 O   0  0  0  0  0  0  0  0  0  0  0  0
  133.6060  123.0120   61.9390 C   0  0  0  0  0  0  0  0  0  0  0  0
  133.0740  123.8470   60.7840 C   0  0  0  0  0  0  0  0  0  0  0  0
  131.8820  124.5610   60.9350 C   0  0  0  0  0  0  0  0  0  0  0  0
  131.3770  125.3080   59.8740 C   0  0  0  0  0  0  0  0  0  0  0  0
  132.0680  125.3400   58.6640 C   0  0  0  0  0  0  0  0  0  0  0  0
  133.2600  124.6360   58.5080 C   0  0  0  0  0  0  0  0  0  0  0  0
  133.7640  123.8870   59.5680 C   0  0  0  0  0  0  0  0  0  0  0  0
  129.9840  122.2040   61.9810 C   0  0  1  0  0  0  0  0  0  0  0  0
  129.8160  120.9240   61.3640 O   0  0  0  0  0  0  0  0  0  0  0  0
  130.5670  119.8360   61.9080 C   0  0  0  0  0  0  0  0  0  0  0  0
  131.3870  119.1120   60.8450 C   0  0  0  0  0  0  0  0  0  0  0  0
  130.9100  117.9260   60.2790 C   0  0  0  0  0  0  0  0  0  0  0  0
  131.6460  117.2850   59.2860 C   0  0  0  0  0  0  0  0  0  0  0  0
  132.8580  117.8290   58.8650 C   0  0  0  0  0  0  0  0  0  0  0  0
  133.3420  119.0080   59.4280 C   0  0  0  0  0  0  0  0  0  0  0  0
  132.6040  119.6520   60.4190 C   0  0  0  0  0  0  0  0  0  0  0  0
  128.6710  122.9510   62.1900 C   0  0  2  0  0  0  0  0  0  0  0  0
  128.3020  123.6480   61.0030 O   0  0  0  0  0  0  0  0  0  0  0  0
  128.8590  123.1470   59.7980 C   0  0  0  0  0  0  0  0  0  0  0  0
  127.7490  123.0500   58.7660 C   0  0  0  0  0  0  0  0  0  0  0  0
  127.9960  122.4770   57.5150 C   0  0  0  0  0  0  0  0  0  0  0  0
  126.9760  122.4120   56.5690 C   0  0  0  0  0  0  0  0  0  0  0  0
  125.7160  122.9180   56.8760 C   0  0  0  0  0  0  0  0  0  0  0  0
  125.4620  123.4890   58.1220 C   0  0  0  0  0  0  0  0  0  0  0  0
  126.4800  123.5550   59.0680 C   0  0  0  0  0  0  0  0  0  0  0  0
  131.0930  126.0060   64.5380 C   0  0  0  0  0  0  0  0  0  0  0  0
  132.3640  125.6230   64.0850 C   0  0  0  0  0  0  0  0  0  0  0  0
  133.4370  125.5510   64.9670 C   0  0  0  0  0  0  0  0  0  0  0  0
  133.2650  125.8480   66.3240 C   0  0  0  0  0  0  0  0  0  0  0  0
  134.4050  125.7440   67.2680 N   0  0  0  0  0  0  0  0  0  0  0  0
  135.4980  125.3880   66.8350 O   0  0  0  0  0  0  0  0  0  0  0  0
  134.2180  126.0240   68.4500 O   0  0  0  0  0  0  0  0  0  0  0  0
  131.9970  126.2360   66.7750 C   0  0  0  0  0  0  0  0  0  0  0  0
  130.9250  126.3160   65.8930 C   0  0  0  0  0  0  0  0  0  0  0  0
  1  2  2  0
  2  3  1  0
  4  3  1  6
  4  5  1  0
  5  6  1  0
  6  7  1  6
  7  8  1  0
  8  9  1  0
  9 10  1  0
 10 11  2  0
 11 12  1  0
 12 13  2  0
 13 14  1  0
 14 15  2  0
  6 16  1  0
 16 17  1  1
 17 18  1  0
 18 19  1  0
 19 20  2  0
 20 21  1  0
 21 22  2  0
 22 23  1  0
 23 24  2  0
 16 25  1  0
 25 26  1  6
 26 27  1  0
 27 28  1  0
 28 29  2  0
 29 30  1  0
 30 31  2  0
 31 32  1  0
 32 33  2  0
  2 34  1  0
 34 35  2  0
 35 36  1  0
 36 37  2  0
 37 38  1  0
 38 39  2  0
 38 40  1  0
 37 41  1  0
 41 42  2  0
 25  4  1  0
 33 28  1  0
 42 34  1  0
 15 10  1  0
 24 19  1  0
M  CHG  2  38   1  40  -1
M  END
>  <Binding energies>  (56) 
[-11.01]

>  <Ligand effiencies>  (56) 
[-0.2621428571428571]

>  <Interactions>  (56) 
["V-B:PRO:540:CD:9858, V-B:PRO:540:N:9855, V-B:MET:535:CE:9806, V-B:TYR:539:CD2:9845, V-B:TYR:539:CZ:9848, V-B:TYR:539:C:9838, V-B:TYR:539:CE1:9846, V-B:TYR:539:CD1:9844, V-B:PRO:540:CB:9856, V-B:TYR:539:CE2:9847, V-B:GLU:543:CD:9879, V-B:TYR:539:CG:9843, V-A:ASP:366:CG:3212, V-A:ASP:366:CA:3209, V-A:ASP:366:CB:3211, V-A:ILE:369:CG2:3236, V-A:ARG:545:CZ:4925, V-A:SER:385:CA:3406, V-A:ARG:545:CD:4922, H-A:GLY:454:N:4049, V-B:ALA:541:CB:9863, V-A:ARG:545:CG:4921, V-A:ILE:369:CD1:3238, V-A:LEU:475:CD2:4258, V-A:HIS:383:CE1:3393, V-B:PRO:540:CA:9854, V-B:TYR:539:CB:9842, V-A:ILE:369:CB:3235, V-A:ASP:366:C:3207, H-A:TYR:484:OH:4347, V-A:LEU:373:CD2:3280, V-A:LEU:373:CG:3278, V-B:TYR:539:CA:9840, V-A:LEU:373:CD1:3279, V-A:ILE:369:CG1:3237, H-A:ILE:455:N:4054, H-A:HIS:456:ND1:4066"]

$$$$
RR9_Rahimova_2017
     RDKit          3D

 36 40  0  0  0  0  0  0  0  0999 V2000
  132.5970  127.6080   75.1950 C   0  0  0  0  0  0  0  0  0  0  0  0
  131.1630  127.5850   75.7350 C   0  0  0  0  0  0  0  0  0  0  0  0
  130.4050  128.5860   75.0620 O   0  0  0  0  0  0  0  0  0  0  0  0
  130.1520  128.4510   73.7110 C   0  0  0  0  0  0  0  0  0  0  0  0
  130.9320  129.2210   72.8500 C   0  0  0  0  0  0  0  0  0  0  0  0
  130.7470  129.1530   71.4730 C   0  0  0  0  0  0  0  0  0  0  0  0
  129.7730  128.3100   70.9160 C   0  0  0  0  0  0  0  0  0  0  0  0
  129.5650  128.2360   69.4320 C   0  0  0  0  0  0  0  0  0  0  0  0
  130.2520  127.3040   68.6390 C   0  0  0  0  0  0  0  0  0  0  0  0
  130.0440  127.2300   67.2500 C   0  0  0  0  0  0  0  0  0  0  0  0
  130.7330  126.1430   66.4700 C   0  0  0  0  0  0  0  0  0  0  0  0
  130.2680  125.0040   66.4450 O   0  0  0  0  0  0  0  0  0  0  0  0
  131.8730  126.5030   65.8460 N   0  0  0  0  0  0  0  0  0  0  0  0
  132.7870  125.6000   65.1380 C   0  0  0  0  0  0  0  0  0  0  0  0
  132.4900  125.5040   63.6240 C   0  0  0  0  0  0  0  0  0  0  0  0
  132.8290  124.1580   62.9930 C   0  0  0  0  0  0  0  0  0  0  0  0
  133.1140  124.0760   61.6260 C   0  0  0  0  0  0  0  0  0  0  0  0
  133.4560  122.8500   61.0600 C   0  0  0  0  0  0  0  0  0  0  0  0
  133.5070  121.7110   61.8600 C   0  0  0  0  0  0  0  0  0  0  0  0
  133.2200  121.7850   63.2220 C   0  0  0  0  0  0  0  0  0  0  0  0
  132.8780  123.0110   63.7890 C   0  0  0  0  0  0  0  0  0  0  0  0
  129.1340  128.1670   66.7010 C   0  0  0  0  0  0  0  0  0  0  0  0
  128.6070  128.5410   65.4100 C   0  0  0  0  0  0  0  0  0  0  0  0
  128.9630  128.0280   64.0540 C   0  0  0  0  0  0  0  0  0  0  0  0
  128.0780  127.1970   63.3610 C   0  0  0  0  0  0  0  0  0  0  0  0
  128.4190  126.7060   62.1040 C   0  0  0  0  0  0  0  0  0  0  0  0
  129.6460  127.0470   61.5320 C   0  0  0  0  0  0  0  0  0  0  0  0
  130.0260  126.4970   60.1690 C   0  0  0  0  0  0  0  0  0  0  0  0
  130.5330  127.8750   62.2210 C   0  0  0  0  0  0  0  0  0  0  0  0
  130.1890  128.3670   63.4770 C   0  0  0  0  0  0  0  0  0  0  0  0
  127.7070  129.4910   65.5370 N   0  0  0  0  0  0  0  0  0  0  0  0
  127.6360  129.8220   66.8370 N   0  0  0  0  0  0  0  0  0  0  0  0
  128.4920  129.0570   67.5940 C   0  0  0  0  0  0  0  0  0  0  0  0
  128.6750  129.1270   68.9120 N   0  0  0  0  0  0  0  0  0  0  0  0
  128.9900  127.5410   71.7880 C   0  0  0  0  0  0  0  0  0  0  0  0
  129.1750  127.6060   73.1680 C   0  0  0  0  0  0  0  0  0  0  0  0
  1  2  1  0
  2  3  1  0
  3  4  1  0
  4  5  2  0
  5  6  1  0
  6  7  2  0
  7  8  1  0
  8  9  2  0
  9 10  1  0
 10 11  1  0
 11 12  2  0
 11 13  1  0
 13 14  1  0
 14 15  1  0
 15 16  1  0
 16 17  2  0
 17 18  1  0
 18 19  2  0
 19 20  1  0
 20 21  2  0
 10 22  2  0
 22 23  1  0
 23 24  1  0
 24 25  2  0
 25 26  1  0
 26 27  2  0
 27 28  1  0
 27 29  1  0
 29 30  2  0
 23 31  2  0
 31 32  1  0
 32 33  1  0
 33 34  2  0
  7 35  1  0
 35 36  2  0
 36  4  1  0
 34  8  1  0
 21 16  1  0
 33 22  1  0
 30 24  1  0
M  END
>  <Binding energies>  (57) 
[-8.68]

>  <Ligand effiencies>  (57) 
[-0.22842105263157894]

>  <Interactions>  (57) 
["H-B:TYR:484:OH:9318, V-A:GLU:543:CB:4905, V-B:HIS:456:CE1:9040, V-A:HIS:456:CE1:4069, V-A:GLU:543:CD:4907, V-A:GLU:543:CG:4906, V-B:GLU:543:CD:9879, V-A:ASP:366:CG:3212, V-A:ILE:369:CG2:3236, V-A:ARG:545:CZ:4925, V-A:ILE:369:CD1:3238, V-A:LEU:475:CD2:4258, H-A:TYR:484:OH:4347, V-A:GLY:454:CA:4048, H-A:GLU:543:OE1:4908, H-A:GLU:543:OE2:4909, V-A:GLU:543:C:4901, H-A:LYS:547:NZ:4950, V-A:GLY:544:C:4911, V-A:GLY:544:CA:4913"]

$$$$
