1a_Ghoteimi_2023
     RDKit          3D

 67 70  0  0  0  0  0  0  0  0999 V2000
  127.3250  122.7870   57.2950 C   0  0  0  0  0  0  0  0  0  0  0  0
  128.1090  123.2450   58.5290 C   0  0  0  0  0  0  0  0  0  0  0  0
  128.0840  122.2170   59.5110 O   0  0  0  0  0  0  0  0  0  0  0  0
  128.7610  122.3470   60.6800 C   0  0  0  0  0  0  0  0  0  0  0  0
  129.5490  121.4980   61.1090 O   0  0  0  0  0  0  0  0  0  0  0  0
  128.4610  123.6300   61.3990 C   0  0  0  0  0  0  0  0  0  0  0  0
  127.2080  123.8800   61.9800 C   0  0  0  0  0  0  0  0  0  0  0  0
  126.9580  125.0820   62.6370 C   0  0  0  0  0  0  0  0  0  0  0  0
  127.9620  126.0570   62.7300 C   0  0  0  0  0  0  0  0  0  0  0  0
  127.8170  127.3050   63.3660 N   0  0  0  0  0  0  0  0  0  0  0  0
  127.9820  128.5520   62.8720 C   0  0  0  0  0  0  0  0  0  0  0  0
  128.2890  128.8280   61.7130 O   0  0  0  0  0  0  0  0  0  0  0  0
  127.7510  129.6880   63.8680 C   0  0  0  0  0  0  0  0  0  0  0  0
  126.7350  129.1530   65.2760 S   0  0  0  0  0  0  0  0  0  0  0  0
  127.8490  128.3740   66.4220 C   0  0  0  0  0  0  0  0  0  0  0  0
  128.9680  127.8730   65.8470 N   0  0  0  0  0  0  0  0  0  0  0  0
  129.9040  127.2560   66.6150 C   0  0  0  0  0  0  0  0  0  0  0  0
  131.1250  126.7460   65.9060 C   0  0  0  0  0  0  0  0  0  0  0  0
  131.1460  126.5850   64.5110 C   0  0  0  0  0  0  0  0  0  0  0  0
  132.2790  126.1130   63.8560 C   0  0  0  0  0  0  0  0  0  0  0  0
  133.4270  125.7840   64.5740 C   0  0  0  0  0  0  0  0  0  0  0  0
  134.5050  125.3250   63.8420 O   0  0  0  0  0  0  0  0  0  0  0  0
  134.2710  124.5460   62.6740 C   0  0  0  0  0  0  0  0  0  0  0  0
  133.4210  125.9340   65.9680 C   0  0  0  0  0  0  0  0  0  0  0  0
  132.2860  126.4060   66.6190 C   0  0  0  0  0  0  0  0  0  0  0  0
  129.7210  127.1320   67.9980 C   0  0  0  0  0  0  0  0  0  0  0  0
  128.5610  127.6210   68.6120 C   0  0  0  0  0  0  0  0  0  0  0  0
  128.4200  127.4250   70.0870 C   0  0  0  0  0  0  0  0  0  0  0  0
  129.2750  128.0770   70.9820 C   0  0  0  0  0  0  0  0  0  0  0  0
  129.1270  127.9000   72.3550 C   0  0  0  0  0  0  0  0  0  0  0  0
  128.1210  127.0770   72.8600 C   0  0  0  0  0  0  0  0  0  0  0  0
  128.0500  126.9640   74.2350 O   0  0  0  0  0  0  0  0  0  0  0  0
  128.4350  128.0700   75.0430 C   0  0  0  0  0  0  0  0  0  0  0  0
  127.2560  126.4280   71.9650 C   0  0  0  0  0  0  0  0  0  0  0  0
  127.4060  126.6050   70.5920 C   0  0  0  0  0  0  0  0  0  0  0  0
  127.5920  128.2660   67.8060 C   0  0  0  0  0  0  0  0  0  0  0  0
  126.3650  128.8120   68.3940 C   0  0  0  0  0  0  0  0  0  0  0  0
  125.3960  129.2420   68.8590 N   0  0  0  0  0  0  0  0  0  0  0  0
  129.2070  125.8130   62.1510 C   0  0  0  0  0  0  0  0  0  0  0  0
  129.4570  124.6110   61.4930 C   0  0  0  0  0  0  0  0  0  0  0  0
  126.4161  122.2560   57.6143 H   0  0  0  0  0  0  0  0  0  0  0  0
  127.0450  123.6636   56.6923 H   0  0  0  0  0  0  0  0  0  0  0  0
  127.9510  122.1126   56.6923 H   0  0  0  0  0  0  0  0  0  0  0  0
  129.1505  123.4563   58.2449 H   0  0  0  0  0  0  0  0  0  0  0  0
  127.6503  124.1569   58.9390 H   0  0  0  0  0  0  0  0  0  0  0  0
  126.4161  123.1193   61.9157 H   0  0  0  0  0  0  0  0  0  0  0  0
  125.9703  125.2674   63.0843 H   0  0  0  0  0  0  0  0  0  0  0  0
  127.5140  127.2450   64.3270 H   0  0  0  0  0  0  0  0  0  0  0  0
  128.7246  130.0363   64.2432 H   0  0  0  0  0  0  0  0  0  0  0  0
  127.2163  130.4962   63.3475 H   0  0  0  0  0  0  0  0  0  0  0  0
  130.2497  126.8369   63.9252 H   0  0  0  0  0  0  0  0  0  0  0  0
  132.2685  125.9985   62.7620 H   0  0  0  0  0  0  0  0  0  0  0  0
  133.9659  123.5302   62.9658 H   0  0  0  0  0  0  0  0  0  0  0  0
  133.4730  125.0112   62.0768 H   0  0  0  0  0  0  0  0  0  0  0  0
  135.1933  124.4945   62.0768 H   0  0  0  0  0  0  0  0  0  0  0  0
  134.3185  125.6771   66.5498 H   0  0  0  0  0  0  0  0  0  0  0  0
  132.2981  126.5150   67.7135 H   0  0  0  0  0  0  0  0  0  0  0  0
  130.4962  126.6456   68.6082 H   0  0  0  0  0  0  0  0  0  0  0  0
  130.0695  128.7339   70.5984 H   0  0  0  0  0  0  0  0  0  0  0  0
  129.8098  128.4140   73.0476 H   0  0  0  0  0  0  0  0  0  0  0  0
  128.3406  127.7988   76.1049 H   0  0  0  0  0  0  0  0  0  0  0  0
  129.4793  128.3379   74.8244 H   0  0  0  0  0  0  0  0  0  0  0  0
  127.7828  128.9284   74.8244 H   0  0  0  0  0  0  0  0  0  0  0  0
  126.4568  125.7773   72.3496 H   0  0  0  0  0  0  0  0  0  0  0  0
  126.7209  126.0954   69.8985 H   0  0  0  0  0  0  0  0  0  0  0  0
  129.9974  126.5754   62.2144 H   0  0  0  0  0  0  0  0  0  0  0  0
  130.4446  124.4304   61.0434 H   0  0  0  0  0  0  0  0  0  0  0  0
  1  2  1  0
  2  3  1  0
  3  4  1  0
  4  5  2  0
  4  6  1  0
  6  7  2  0
  7  8  1  0
  8  9  2  0
  9 10  1  0
 10 11  1  0
 11 12  2  0
 11 13  1  0
 13 14  1  0
 14 15  1  0
 15 16  2  0
 16 17  1  0
 17 18  1  0
 18 19  2  0
 19 20  1  0
 20 21  2  0
 21 22  1  0
 22 23  1  0
 21 24  1  0
 24 25  2  0
 17 26  2  0
 26 27  1  0
 27 28  1  0
 28 29  2  0
 29 30  1  0
 30 31  2  0
 31 32  1  0
 32 33  1  0
 31 34  1  0
 34 35  2  0
 27 36  2  0
 36 37  1  0
 37 38  3  0
  9 39  1  0
 39 40  2  0
 40  6  1  0
 36 15  1  0
 25 18  1  0
 35 28  1  0
  1 41  1  0
  1 42  1  0
  1 43  1  0
  2 44  1  0
  2 45  1  0
  7 46  1  0
  8 47  1  0
 10 48  1  0
 13 49  1  0
 13 50  1  0
 19 51  1  0
 20 52  1  0
 23 53  1  0
 23 54  1  0
 23 55  1  0
 24 56  1  0
 25 57  1  0
 26 58  1  0
 29 59  1  0
 30 60  1  0
 33 61  1  0
 33 62  1  0
 33 63  1  0
 34 64  1  0
 35 65  1  0
 39 66  1  0
 40 67  1  0
M  END
>  <Binding energies>  (1) 
[-7.2]

>  <Ligand effiencies>  (1) 
[-0.175609756097561]

>  <Interactions>  (1) 
["V-B:GLU:543:CB:9877, V-B:PRO:540:N:9855, H-B:TYR:484:OH:9318, V-B:MET:535:CE:9806, V-B:TYR:539:CD2:9845, V-B:HIS:456:CE1:9040, V-A:HIS:456:CE1:4069, V-B:TYR:539:C:9838, V-A:GLU:543:CD:4907, V-B:TYR:539:CE2:9847, V-B:GLU:543:CD:9879, V-A:ASP:366:CG:3212, V-B:GLU:543:C:9873, V-B:GLY:544:CA:9885, V-B:GLY:544:C:9883, V-B:HIS:456:CD2:9038, H-B:LYS:547:NZ:9922, V-A:ARG:545:CZ:4925, H-A:ARG:545:NH1:4926, V-A:ARG:545:CD:4922, H-A:GLY:454:N:4049, H-A:ARG:545:NH2:4927, V-A:ILE:369:CD1:3238, V-B:PRO:540:CA:9854, V-A:GLY:453:C:4041, V-A:GLY:453:CA:4043, H-B:GLU:543:OE2:9881, V-B:TYR:484:CZ:9317, H-B:GLU:543:OE1:9880, H-B:HIS:456:ND1:9037"]

$$$$
1a_Grossjean_2025
     RDKit          3D

 45 46  0  0  0  0  0  0  0  0999 V2000
  124.6830  124.0890   58.9180 C   0  0  0  0  0  0  0  0  0  0  0  0
  124.5620  124.1210   57.3920 C   0  0  0  0  0  0  0  0  0  0  0  0
  125.8610  124.1020   56.8130 O   0  0  0  0  0  0  0  0  0  0  0  0
  126.6440  122.9950   56.8850 C   0  0  0  0  0  0  0  0  0  0  0  0
  126.4040  121.9510   56.2720 O   0  0  0  0  0  0  0  0  0  0  0  0
  127.8230  123.1610   57.8000 C   0  0  0  0  0  0  0  0  0  0  0  0
  128.7790  124.1440   57.5110 C   0  0  0  0  0  0  0  0  0  0  0  0
  129.8860  124.3190   58.3370 C   0  0  0  0  0  0  0  0  0  0  0  0
  130.0620  123.5180   59.4650 C   0  0  0  0  0  0  0  0  0  0  0  0
  131.2170  123.7810   60.2270 N   0  0  0  0  0  0  0  0  0  0  0  0
  132.4840  124.0230   59.8270 C   0  0  0  0  0  0  0  0  0  0  0  0
  132.8700  124.0610   58.6590 O   0  0  0  0  0  0  0  0  0  0  0  0
  133.4910  124.2670   60.9530 C   0  0  0  0  0  0  0  0  0  0  0  0
  133.8830  122.7430   61.8630 S   0  0  0  0  0  0  0  0  0  0  0  0
  132.4070  121.7520   61.9070 C   0  0  0  0  0  0  0  0  0  0  0  0
  131.3620  122.3530   62.5290 N   0  0  0  0  0  0  0  0  0  0  0  0
  130.1880  121.6840   62.6240 C   0  0  0  0  0  0  0  0  0  0  0  0
  129.0700  122.4140   63.3440 C   0  0  0  0  0  0  0  0  0  0  0  0
  130.0060  120.4070   62.0990 C   0  0  0  0  0  0  0  0  0  0  0  0
  131.0710  119.7860   61.4370 C   0  0  0  0  0  0  0  0  0  0  0  0
  130.8440  118.3920   60.8560 C   0  0  0  0  0  0  0  0  0  0  0  0
  132.3050  120.4670   61.3230 C   0  0  0  0  0  0  0  0  0  0  0  0
  133.4190  119.8570   60.5910 C   0  0  0  0  0  0  0  0  0  0  0  0
  134.2970  119.3740   60.0130 N   0  0  0  0  0  0  0  0  0  0  0  0
  129.1050  122.5370   59.7670 C   0  0  0  0  0  0  0  0  0  0  0  0
  127.9990  122.3610   58.9400 C   0  0  0  0  0  0  0  0  0  0  0  0
  123.7127  124.3456   59.3682 H   0  0  0  0  0  0  0  0  0  0  0  0
  124.9820  123.0809   59.2411 H   0  0  0  0  0  0  0  0  0  0  0  0
  125.4412  124.8175   59.2411 H   0  0  0  0  0  0  0  0  0  0  0  0
  123.9955  123.2421   57.0506 H   0  0  0  0  0  0  0  0  0  0  0  0
  124.0370  125.0376   57.0849 H   0  0  0  0  0  0  0  0  0  0  0  0
  128.6538  124.7826   56.6242 H   0  0  0  0  0  0  0  0  0  0  0  0
  130.6278  125.0953   58.0980 H   0  0  0  0  0  0  0  0  0  0  0  0
  131.0510  123.8200   61.2210 H   0  0  0  0  0  0  0  0  0  0  0  0
  134.4182  124.6690   60.5185 H   0  0  0  0  0  0  0  0  0  0  0  0
  133.0408  124.9779   61.6615 H   0  0  0  0  0  0  0  0  0  0  0  0
  129.2119  122.3213   64.4309 H   0  0  0  0  0  0  0  0  0  0  0  0
  129.0847  123.4770   63.0616 H   0  0  0  0  0  0  0  0  0  0  0  0
  128.1027  121.9730   63.0616 H   0  0  0  0  0  0  0  0  0  0  0  0
  129.0387  119.8937   62.2032 H   0  0  0  0  0  0  0  0  0  0  0  0
  130.7261  117.6679   61.6756 H   0  0  0  0  0  0  0  0  0  0  0  0
  129.9347  118.3964   60.2370 H   0  0  0  0  0  0  0  0  0  0  0  0
  131.7077  118.1077   60.2370 H   0  0  0  0  0  0  0  0  0  0  0  0
  129.2290  121.9057   60.6592 H   0  0  0  0  0  0  0  0  0  0  0  0
  127.2556  121.5873   59.1823 H   0  0  0  0  0  0  0  0  0  0  0  0
  1  2  1  0
  2  3  1  0
  3  4  1  0
  4  5  2  0
  4  6  1  0
  6  7  2  0
  7  8  1  0
  8  9  2  0
  9 10  1  0
 10 11  1  0
 11 12  2  0
 11 13  1  0
 13 14  1  0
 14 15  1  0
 15 16  2  0
 16 17  1  0
 17 18  1  0
 17 19  2  0
 19 20  1  0
 20 21  1  0
 20 22  2  0
 22 23  1  0
 23 24  3  0
  9 25  1  0
 25 26  2  0
 26  6  1  0
 22 15  1  0
  1 27  1  0
  1 28  1  0
  1 29  1  0
  2 30  1  0
  2 31  1  0
  7 32  1  0
  8 33  1  0
 10 34  1  0
 13 35  1  0
 13 36  1  0
 18 37  1  0
 18 38  1  0
 18 39  1  0
 19 40  1  0
 21 41  1  0
 21 42  1  0
 21 43  1  0
 25 44  1  0
 26 45  1  0
M  END
>  <Binding energies>  (1) 
[-7.65]

>  <Ligand effiencies>  (1) 
[-0.2833333333333333]

>  <Interactions>  (1) 
["V-B:PRO:540:N:9855, V-B:TYR:531:CE2:9764, H-B:TYR:539:N:9841, V-B:LEU:363:CD1:8159, V-B:MET:535:CE:9806, V-B:TYR:539:CD2:9845, V-B:TYR:539:CZ:9848, V-B:TYR:539:C:9838, V-B:PRO:540:CB:9856, V-B:TYR:539:CE2:9847, V-B:TYR:539:CG:9843, V-A:ASP:366:CG:3212, H-B:TYR:531:OH:9766, V-A:ILE:369:CG2:3236, V-A:SER:385:CA:3406, V-A:SER:385:CB:3408, V-B:ALA:541:CB:9863, V-A:ILE:369:CD1:3238, V-A:LEU:475:CD2:4258, V-B:ALA:541:CA:9861, H-B:TYR:539:OH:9849, V-B:PRO:540:CA:9854, V-B:TYR:531:CZ:9765"]

$$$$
1aa_Ghoteimi_2023
     RDKit          3D

 67 70  0  0  0  0  0  0  0  0999 V2000
  130.1650  129.0410   71.9370 C   0  0  0  0  0  0  0  0  0  0  0  0
  129.7190  128.0840   73.0460 C   0  0  0  0  0  0  0  0  0  0  0  0
  128.4480  127.5360   72.7170 O   0  0  0  0  0  0  0  0  0  0  0  0
  128.3350  126.5110   71.8340 C   0  0  0  0  0  0  0  0  0  0  0  0
  128.7370  125.3660   72.0640 O   0  0  0  0  0  0  0  0  0  0  0  0
  127.6700  126.9070   70.5470 C   0  0  0  0  0  0  0  0  0  0  0  0
  126.2760  126.8740   70.3910 C   0  0  0  0  0  0  0  0  0  0  0  0
  125.6870  127.2480   69.1850 C   0  0  0  0  0  0  0  0  0  0  0  0
  126.4870  127.6640   68.1110 C   0  0  0  0  0  0  0  0  0  0  0  0
  126.0050  128.0620   66.8500 N   0  0  0  0  0  0  0  0  0  0  0  0
  125.0300  128.9410   66.5210 C   0  0  0  0  0  0  0  0  0  0  0  0
  124.3620  129.5850   67.3290 O   0  0  0  0  0  0  0  0  0  0  0  0
  124.7420  129.1460   65.0250 C   0  0  0  0  0  0  0  0  0  0  0  0
  125.9580  129.4050   64.3110 O   0  0  0  0  0  0  0  0  0  0  0  0
  126.7170  128.3550   63.8140 C   0  0  0  0  0  0  0  0  0  0  0  0
  126.1770  127.5840   62.8310 N   0  0  0  0  0  0  0  0  0  0  0  0
  126.8840  126.5370   62.3280 C   0  0  0  0  0  0  0  0  0  0  0  0
  126.2200  125.7370   61.2450 C   0  0  0  0  0  0  0  0  0  0  0  0
  126.3430  126.1050   59.8970 C   0  0  0  0  0  0  0  0  0  0  0  0
  125.7260  125.3660   58.8910 C   0  0  0  0  0  0  0  0  0  0  0  0
  124.9700  124.2370   59.2000 C   0  0  0  0  0  0  0  0  0  0  0  0
  124.3950  123.5670   58.1380 O   0  0  0  0  0  0  0  0  0  0  0  0
  125.2330  123.0340   57.1170 C   0  0  0  0  0  0  0  0  0  0  0  0
  124.8430  123.8540   60.5420 C   0  0  0  0  0  0  0  0  0  0  0  0
  125.4610  124.5940   61.5450 C   0  0  0  0  0  0  0  0  0  0  0  0
  128.1730  126.2550   62.7980 C   0  0  0  0  0  0  0  0  0  0  0  0
  128.7560  127.0410   63.8020 C   0  0  0  0  0  0  0  0  0  0  0  0
  130.1370  126.6950   64.2520 C   0  0  0  0  0  0  0  0  0  0  0  0
  131.1300  126.4000   63.3120 C   0  0  0  0  0  0  0  0  0  0  0  0
  132.4220  126.0860   63.7230 C   0  0  0  0  0  0  0  0  0  0  0  0
  132.7510  126.0670   65.0780 C   0  0  0  0  0  0  0  0  0  0  0  0
  134.0570  125.7450   65.3930 O   0  0  0  0  0  0  0  0  0  0  0  0
  134.4610  125.7360   66.7570 C   0  0  0  0  0  0  0  0  0  0  0  0
  131.7600  126.3710   66.0240 C   0  0  0  0  0  0  0  0  0  0  0  0
  130.4680  126.6830   65.6110 C   0  0  0  0  0  0  0  0  0  0  0  0
  128.0020  128.1150   64.3300 C   0  0  0  0  0  0  0  0  0  0  0  0
  128.5100  128.9620   65.4100 C   0  0  0  0  0  0  0  0  0  0  0  0
  128.9100  129.6340   66.2630 N   0  0  0  0  0  0  0  0  0  0  0  0
  127.8740  127.6960   68.2620 C   0  0  0  0  0  0  0  0  0  0  0  0
  128.4600  127.3220   69.4670 C   0  0  0  0  0  0  0  0  0  0  0  0
  130.5891  129.9510   72.3865 H   0  0  0  0  0  0  0  0  0  0  0  0
  130.9272  128.5504   71.3139 H   0  0  0  0  0  0  0  0  0  0  0  0
  129.2991  129.3091   71.3139 H   0  0  0  0  0  0  0  0  0  0  0  0
  130.4537  127.2715   73.1465 H   0  0  0  0  0  0  0  0  0  0  0  0
  129.6467  128.6328   73.9966 H   0  0  0  0  0  0  0  0  0  0  0  0
  125.6418  126.5496   71.2292 H   0  0  0  0  0  0  0  0  0  0  0  0
  124.5929  127.2169   69.0752 H   0  0  0  0  0  0  0  0  0  0  0  0
  126.4730  127.6180   66.0720 H   0  0  0  0  0  0  0  0  0  0  0  0
  124.2702  128.2389   64.6195 H   0  0  0  0  0  0  0  0  0  0  0  0
  124.0692  130.0082   64.9069 H   0  0  0  0  0  0  0  0  0  0  0  0
  126.9366  126.9919   59.6303 H   0  0  0  0  0  0  0  0  0  0  0  0
  125.8365  125.6766   57.8416 H   0  0  0  0  0  0  0  0  0  0  0  0
  126.0760  122.4978   57.5773 H   0  0  0  0  0  0  0  0  0  0  0  0
  124.6531  122.3384   56.4926 H   0  0  0  0  0  0  0  0  0  0  0  0
  125.6171  123.8541   56.4926 H   0  0  0  0  0  0  0  0  0  0  0  0
  124.2518  122.9640   60.8036 H   0  0  0  0  0  0  0  0  0  0  0  0
  125.3531  124.2778   62.5930 H   0  0  0  0  0  0  0  0  0  0  0  0
  128.7336  125.4083   62.3751 H   0  0  0  0  0  0  0  0  0  0  0  0
  130.8877  126.4163   62.2391 H   0  0  0  0  0  0  0  0  0  0  0  0
  133.1907  125.8507   62.9722 H   0  0  0  0  0  0  0  0  0  0  0  0
  133.5710  125.7558   67.4032 H   0  0  0  0  0  0  0  0  0  0  0  0
  135.0422  124.8247   66.9613 H   0  0  0  0  0  0  0  0  0  0  0  0
  135.0822  126.6205   66.9613 H   0  0  0  0  0  0  0  0  0  0  0  0
  132.0053  126.3627   67.0963 H   0  0  0  0  0  0  0  0  0  0  0  0
  129.6996  126.9225   66.3608 H   0  0  0  0  0  0  0  0  0  0  0  0
  128.5078  128.0190   67.4230 H   0  0  0  0  0  0  0  0  0  0  0  0
  129.5545  127.3524   69.5729 H   0  0  0  0  0  0  0  0  0  0  0  0
  1  2  1  0
  2  3  1  0
  3  4  1  0
  4  5  2  0
  4  6  1  0
  6  7  2  0
  7  8  1  0
  8  9  2  0
  9 10  1  0
 10 11  1  0
 11 12  2  0
 11 13  1  0
 13 14  1  0
 14 15  1  0
 15 16  2  0
 16 17  1  0
 17 18  1  0
 18 19  2  0
 19 20  1  0
 20 21  2  0
 21 22  1  0
 22 23  1  0
 21 24  1  0
 24 25  2  0
 17 26  2  0
 26 27  1  0
 27 28  1  0
 28 29  2  0
 29 30  1  0
 30 31  2  0
 31 32  1  0
 32 33  1  0
 31 34  1  0
 34 35  2  0
 27 36  2  0
 36 37  1  0
 37 38  3  0
  9 39  1  0
 39 40  2  0
 40  6  1  0
 36 15  1  0
 25 18  1  0
 35 28  1  0
  1 41  1  0
  1 42  1  0
  1 43  1  0
  2 44  1  0
  2 45  1  0
  7 46  1  0
  8 47  1  0
 10 48  1  0
 13 49  1  0
 13 50  1  0
 19 51  1  0
 20 52  1  0
 23 53  1  0
 23 54  1  0
 23 55  1  0
 24 56  1  0
 25 57  1  0
 26 58  1  0
 29 59  1  0
 30 60  1  0
 33 61  1  0
 33 62  1  0
 33 63  1  0
 34 64  1  0
 35 65  1  0
 39 66  1  0
 40 67  1  0
M  END
>  <Binding energies>  (1) 
[-7.64]

>  <Ligand effiencies>  (1) 
[-0.18634146341463415]

>  <Interactions>  (1) 
["V-B:PRO:540:CD:9858, V-B:GLU:543:CB:9877, V-B:PRO:540:N:9855, H-B:TYR:484:OH:9318, V-B:LEU:363:CD1:8159, V-B:HIS:456:CE1:9040, V-A:HIS:456:CE1:4069, V-A:GLU:543:CD:4907, V-A:GLU:543:CG:4906, V-B:PRO:540:CB:9856, V-B:GLU:543:CD:9879, V-B:GLU:543:C:9873, V-B:GLY:544:C:9883, V-B:GLU:543:CG:9878, V-B:ARG:545:CZ:9897, H-B:ARG:545:NH2:9899, V-B:ARG:545:CG:9893, V-B:ARG:545:CD:9894, H-A:ARG:545:NE:4923, V-A:ARG:545:CZ:4925, H-A:ARG:545:NH1:4926, V-A:ARG:545:CD:4922, H-A:GLY:454:N:4049, H-A:ARG:545:NH2:4927, V-A:ARG:545:CG:4921, V-B:PRO:540:CA:9854, H-A:TYR:484:OH:4347, V-A:GLY:453:C:4041, V-A:GLY:453:CA:4043, V-A:GLY:454:CA:4048, H-B:GLU:543:OE2:9881, V-A:GLU:543:C:4901, V-B:ARG:545:CB:9892, V-B:ARG:545:CA:9890, H-B:GLU:543:OE1:9880"]

$$$$
1b_Ghoteimi_2023
     RDKit          3D

 54 57  0  0  0  0  0  0  0  0999 V2000
  128.3800  128.3820   75.1200 C   0  0  0  0  0  0  0  0  0  0  0  0
  128.4690  127.1870   74.3520 O   0  0  0  0  0  0  0  0  0  0  0  0
  128.5640  127.2760   72.9760 C   0  0  0  0  0  0  0  0  0  0  0  0
  129.4630  128.2140   72.4710 C   0  0  0  0  0  0  0  0  0  0  0  0
  129.6240  128.3750   71.0990 C   0  0  0  0  0  0  0  0  0  0  0  0
  128.8930  127.5990   70.1870 C   0  0  0  0  0  0  0  0  0  0  0  0
  129.0690  127.7780   68.7040 C   0  0  0  0  0  0  0  0  0  0  0  0
  130.0130  127.0640   67.9590 C   0  0  0  0  0  0  0  0  0  0  0  0
  130.1340  127.2650   66.5780 C   0  0  0  0  0  0  0  0  0  0  0  0
  131.1670  126.4720   65.8460 C   0  0  0  0  0  0  0  0  0  0  0  0
  130.8040  125.6720   64.7600 C   0  0  0  0  0  0  0  0  0  0  0  0
  131.7620  124.9240   64.0810 C   0  0  0  0  0  0  0  0  0  0  0  0
  133.0990  124.9590   64.4760 C   0  0  0  0  0  0  0  0  0  0  0  0
  133.9790  124.1850   63.7430 O   0  0  0  0  0  0  0  0  0  0  0  0
  134.0050  124.3160   62.3260 C   0  0  0  0  0  0  0  0  0  0  0  0
  133.4680  125.7550   65.5700 C   0  0  0  0  0  0  0  0  0  0  0  0
  132.5070  126.5010   66.2480 C   0  0  0  0  0  0  0  0  0  0  0  0
  129.2700  128.1980   65.9540 C   0  0  0  0  0  0  0  0  0  0  0  0
  129.2910  128.3750   64.4990 C   0  0  0  0  0  0  0  0  0  0  0  0
  129.3090  128.5130   63.3500 N   0  0  0  0  0  0  0  0  0  0  0  0
  128.3540  128.9000   66.7680 C   0  0  0  0  0  0  0  0  0  0  0  0
  127.2000  130.1130   66.1600 S   0  0  0  0  0  0  0  0  0  0  0  0
  127.9840  131.7540   66.3010 C   0  0  0  0  0  0  0  0  0  0  0  0
  128.2600  132.4590   64.9650 C   0  0  0  0  0  0  0  0  0  0  0  0
  127.6940  133.5180   64.6830 O   0  0  0  0  0  0  0  0  0  0  0  0
  129.1460  131.8240   64.1650 N   0  0  0  0  0  0  0  0  0  0  0  0
  129.5840  132.2270   62.9090 C   0  0  0  0  0  0  0  0  0  0  0  0
  128.7390  132.3320   61.8050 C   0  0  0  0  0  0  0  0  0  0  0  0
  129.5480  132.7540   60.7750 C   0  0  0  0  0  0  0  0  0  0  0  0
  130.8140  132.8990   61.2360 O   0  0  0  0  0  0  0  0  0  0  0  0
  130.8240  132.5630   62.5900 N   0  0  0  0  0  0  0  0  0  0  0  0
  128.2480  128.6760   68.1000 N   0  0  0  0  0  0  0  0  0  0  0  0
  127.9900  126.6590   70.7060 C   0  0  0  0  0  0  0  0  0  0  0  0
  127.8240  126.4960   72.0780 C   0  0  0  0  0  0  0  0  0  0  0  0
  128.3986  128.1318   76.1910 H   0  0  0  0  0  0  0  0  0  0  0  0
  129.2320  129.0356   74.8813 H   0  0  0  0  0  0  0  0  0  0  0  0
  127.4406  128.9022   74.8813 H   0  0  0  0  0  0  0  0  0  0  0  0
  130.0510  128.8331   73.1646 H   0  0  0  0  0  0  0  0  0  0  0  0
  130.3367  129.1236   70.7225 H   0  0  0  0  0  0  0  0  0  0  0  0
  130.6672  126.3371   68.4627 H   0  0  0  0  0  0  0  0  0  0  0  0
  129.7527  125.6327   64.4387 H   0  0  0  0  0  0  0  0  0  0  0  0
  131.4619  124.3003   63.2260 H   0  0  0  0  0  0  0  0  0  0  0  0
  134.2127  125.3625   62.0583 H   0  0  0  0  0  0  0  0  0  0  0  0
  134.7922  123.6685   61.9123 H   0  0  0  0  0  0  0  0  0  0  0  0
  133.0302  124.0182   61.9123 H   0  0  0  0  0  0  0  0  0  0  0  0
  134.5188  125.7903   65.8934 H   0  0  0  0  0  0  0  0  0  0  0  0
  132.8043  127.1191   67.1080 H   0  0  0  0  0  0  0  0  0  0  0  0
  127.3209  132.3988   66.8964 H   0  0  0  0  0  0  0  0  0  0  0  0
  128.9656  131.5863   66.7683 H   0  0  0  0  0  0  0  0  0  0  0  0
  129.5500  130.9670   64.5120 H   0  0  0  0  0  0  0  0  0  0  0  0
  127.6598  132.1229   61.7659 H   0  0  0  0  0  0  0  0  0  0  0  0
  129.2195  132.9434   59.7424 H   0  0  0  0  0  0  0  0  0  0  0  0
  127.4013  126.0383   70.0144 H   0  0  0  0  0  0  0  0  0  0  0  0
  127.1090  125.7519   72.4588 H   0  0  0  0  0  0  0  0  0  0  0  0
  1  2  1  0
  2  3  1  0
  3  4  2  0
  4  5  1  0
  5  6  2  0
  6  7  1  0
  7  8  2  0
  8  9  1  0
  9 10  1  0
 10 11  2  0
 11 12  1  0
 12 13  2  0
 13 14  1  0
 14 15  1  0
 13 16  1  0
 16 17  2  0
  9 18  2  0
 18 19  1  0
 19 20  3  0
 18 21  1  0
 21 22  1  0
 22 23  1  0
 23 24  1  0
 24 25  2  0
 24 26  1  0
 26 27  1  0
 27 28  1  0
 28 29  2  0
 29 30  1  0
 30 31  1  0
 21 32  2  0
  6 33  1  0
 33 34  2  0
 34  3  1  0
 32  7  1  0
 17 10  1  0
 31 27  2  0
  1 35  1  0
  1 36  1  0
  1 37  1  0
  4 38  1  0
  5 39  1  0
  8 40  1  0
 11 41  1  0
 12 42  1  0
 15 43  1  0
 15 44  1  0
 15 45  1  0
 16 46  1  0
 17 47  1  0
 23 48  1  0
 23 49  1  0
 26 50  1  0
 28 51  1  0
 29 52  1  0
 33 53  1  0
 34 54  1  0
M  END
>  <Binding energies>  (1) 
[-8.11]

>  <Ligand effiencies>  (1) 
[-0.2317142857142857]

>  <Interactions>  (1) 
["V-B:GLU:543:CB:9877, H-B:TYR:484:OH:9318, V-A:GLU:543:CB:4905, V-A:PRO:540:CA:4882, V-B:HIS:456:CE1:9040, V-A:HIS:456:CE1:4069, V-A:GLU:543:CD:4907, V-A:GLU:543:CG:4906, V-B:GLU:543:CD:9879, V-A:ASP:366:CG:3212, V-A:ALA:541:CB:4891, H-A:ALA:541:N:4890, V-B:HIS:456:CD2:9038, H-B:LYS:547:NZ:9922, V-A:ARG:545:CZ:4925, V-A:ARG:545:CD:4922, H-A:GLY:454:N:4049, V-A:ARG:545:CG:4921, V-A:ILE:369:CD1:3238, V-A:GLY:454:CA:4048, H-A:GLU:543:OE1:4908, H-A:GLU:543:OE2:4909, V-B:TYR:484:CZ:9317, V-B:TYR:484:CE2:9316"]

$$$$
1b_Grossjean_2025
     RDKit          3D

 42 43  0  0  0  0  0  0  0  0999 V2000
  124.5380  123.7810   57.2120 C   0  0  0  0  0  0  0  0  0  0  0  0
  125.8790  123.8700   56.7510 O   0  0  0  0  0  0  0  0  0  0  0  0
  126.7800  122.8940   57.0310 C   0  0  0  0  0  0  0  0  0  0  0  0
  127.0430  121.9680   56.2580 O   0  0  0  0  0  0  0  0  0  0  0  0
  127.4330  123.0580   58.3740 C   0  0  0  0  0  0  0  0  0  0  0  0
  128.8260  123.1420   58.5170 C   0  0  0  0  0  0  0  0  0  0  0  0
  129.4000  123.2920   59.7760 C   0  0  0  0  0  0  0  0  0  0  0  0
  128.5980  123.3610   60.9160 C   0  0  0  0  0  0  0  0  0  0  0  0
  129.2860  123.5110   62.1350 N   0  0  0  0  0  0  0  0  0  0  0  0
  128.8480  123.3650   63.4050 C   0  0  0  0  0  0  0  0  0  0  0  0
  127.7060  123.0510   63.7360 O   0  0  0  0  0  0  0  0  0  0  0  0
  129.8970  123.6100   64.4910 C   0  0  0  0  0  0  0  0  0  0  0  0
  131.1450  122.2880   64.5490 S   0  0  0  0  0  0  0  0  0  0  0  0
  131.8610  122.1630   62.9250 C   0  0  0  0  0  0  0  0  0  0  0  0
  131.7870  120.9190   62.3900 N   0  0  0  0  0  0  0  0  0  0  0  0
  132.3010  120.7110   61.1550 C   0  0  0  0  0  0  0  0  0  0  0  0
  132.1690  119.2990   60.6140 C   0  0  0  0  0  0  0  0  0  0  0  0
  132.9130  121.7210   60.4150 C   0  0  0  0  0  0  0  0  0  0  0  0
  133.0140  123.0010   60.9680 C   0  0  0  0  0  0  0  0  0  0  0  0
  133.7040  124.0880   60.1460 C   0  0  0  0  0  0  0  0  0  0  0  0
  132.4850  123.2420   62.2560 C   0  0  0  0  0  0  0  0  0  0  0  0
  132.6180  124.5640   62.8740 C   0  0  0  0  0  0  0  0  0  0  0  0
  132.7250  125.6090   63.3580 N   0  0  0  0  0  0  0  0  0  0  0  0
  127.2040  123.2770   60.7810 C   0  0  0  0  0  0  0  0  0  0  0  0
  126.6320  123.1280   59.5220 C   0  0  0  0  0  0  0  0  0  0  0  0
  124.5277  123.7803   58.3120 H   0  0  0  0  0  0  0  0  0  0  0  0
  123.9646  124.6431   56.8405 H   0  0  0  0  0  0  0  0  0  0  0  0
  124.0835  122.8507   56.8405 H   0  0  0  0  0  0  0  0  0  0  0  0
  129.4699  123.0889   57.6268 H   0  0  0  0  0  0  0  0  0  0  0  0
  130.4938  123.3566   59.8732 H   0  0  0  0  0  0  0  0  0  0  0  0
  130.2530  123.7820   62.0290 H   0  0  0  0  0  0  0  0  0  0  0  0
  130.4021  124.5656   64.2869 H   0  0  0  0  0  0  0  0  0  0  0  0
  129.3804  123.6305   65.4619 H   0  0  0  0  0  0  0  0  0  0  0  0
  132.1027  118.5899   61.4523 H   0  0  0  0  0  0  0  0  0  0  0  0
  131.2601  119.2255   59.9988 H   0  0  0  0  0  0  0  0  0  0  0  0
  133.0486  119.0583   59.9988 H   0  0  0  0  0  0  0  0  0  0  0  0
  133.3107  121.5141   59.4105 H   0  0  0  0  0  0  0  0  0  0  0  0
  134.1687  124.8201   60.8228 H   0  0  0  0  0  0  0  0  0  0  0  0
  134.4784  123.6320   59.5116 H   0  0  0  0  0  0  0  0  0  0  0  0
  132.9618  124.5947   59.5116 H   0  0  0  0  0  0  0  0  0  0  0  0
  126.5621  123.3291   61.6728 H   0  0  0  0  0  0  0  0  0  0  0  0
  125.5380  123.0643   59.4261 H   0  0  0  0  0  0  0  0  0  0  0  0
  1  2  1  0
  2  3  1  0
  3  4  2  0
  3  5  1  0
  5  6  2  0
  6  7  1  0
  7  8  2  0
  8  9  1  0
  9 10  1  0
 10 11  2  0
 10 12  1  0
 12 13  1  0
 13 14  1  0
 14 15  2  0
 15 16  1  0
 16 17  1  0
 16 18  2  0
 18 19  1  0
 19 20  1  0
 19 21  2  0
 21 22  1  0
 22 23  3  0
  8 24  1  0
 24 25  2  0
 25  5  1  0
 21 14  1  0
  1 26  1  0
  1 27  1  0
  1 28  1  0
  6 29  1  0
  7 30  1  0
  9 31  1  0
 12 32  1  0
 12 33  1  0
 17 34  1  0
 17 35  1  0
 17 36  1  0
 18 37  1  0
 20 38  1  0
 20 39  1  0
 20 40  1  0
 24 41  1  0
 25 42  1  0
M  END
>  <Binding energies>  (1) 
[-6.57]

>  <Ligand effiencies>  (1) 
[-0.2526923076923077]

>  <Interactions>  (1) 
["V-B:PRO:540:N:9855, V-B:TYR:531:CE2:9764, H-B:TYR:539:N:9841, V-B:LEU:363:CD1:8159, V-B:MET:535:CE:9806, V-B:TYR:539:CD2:9845, V-B:TYR:539:CZ:9848, V-B:TYR:539:C:9838, V-B:PRO:540:CB:9856, V-B:TYR:539:CE2:9847, V-B:GLU:543:CD:9879, V-A:ASP:366:CG:3212, V-A:ASP:366:CB:3211, H-B:TYR:531:OH:9766, V-A:ILE:369:CG2:3236, V-B:ALA:541:CB:9863, H-A:ARG:545:NH2:4927, V-A:ILE:369:CD1:3238, V-A:LEU:475:CD2:4258, V-B:PRO:540:CA:9854, V-A:ILE:369:CB:3235, H-A:TYR:484:OH:4347, H-B:ALA:541:N:9862, V-A:ILE:369:CG1:3237, V-B:TYR:531:CZ:9765"]

$$$$
1c_Ghoteimi_2023
     RDKit          3D

 54 57  0  0  0  0  0  0  0  0999 V2000
  125.9060  122.5310   57.0920 C   0  0  0  0  0  0  0  0  0  0  0  0
  127.3190  122.6260   56.9460 O   0  0  0  0  0  0  0  0  0  0  0  0
  128.0870  122.9890   58.0360 C   0  0  0  0  0  0  0  0  0  0  0  0
  129.0110  124.0110   57.8370 C   0  0  0  0  0  0  0  0  0  0  0  0
  129.8300  124.4390   58.8790 C   0  0  0  0  0  0  0  0  0  0  0  0
  129.7480  123.8550   60.1530 C   0  0  0  0  0  0  0  0  0  0  0  0
  130.6320  124.3100   61.2780 C   0  0  0  0  0  0  0  0  0  0  0  0
  130.1940  125.1860   62.2770 C   0  0  0  0  0  0  0  0  0  0  0  0
  131.0470  125.5610   63.3220 C   0  0  0  0  0  0  0  0  0  0  0  0
  130.4920  126.4450   64.3890 C   0  0  0  0  0  0  0  0  0  0  0  0
  130.7860  126.2070   65.7350 C   0  0  0  0  0  0  0  0  0  0  0  0
  130.2510  127.0180   66.7300 C   0  0  0  0  0  0  0  0  0  0  0  0
  129.4090  128.0800   66.4010 C   0  0  0  0  0  0  0  0  0  0  0  0
  128.9230  128.8320   67.4540 O   0  0  0  0  0  0  0  0  0  0  0  0
  127.5440  128.7410   67.7950 C   0  0  0  0  0  0  0  0  0  0  0  0
  129.1050  128.3190   65.0510 C   0  0  0  0  0  0  0  0  0  0  0  0
  129.6420  127.5050   64.0580 C   0  0  0  0  0  0  0  0  0  0  0  0
  132.3690  125.0580   63.3260 C   0  0  0  0  0  0  0  0  0  0  0  0
  133.3210  125.4390   64.3740 C   0  0  0  0  0  0  0  0  0  0  0  0
  134.0720  125.7410   65.2020 N   0  0  0  0  0  0  0  0  0  0  0  0
  132.7390  124.1660   62.2980 C   0  0  0  0  0  0  0  0  0  0  0  0
  134.3080  123.3260   62.2730 S   0  0  0  0  0  0  0  0  0  0  0  0
  133.9920  121.7220   63.0790 C   0  0  0  0  0  0  0  0  0  0  0  0
  133.0900  120.8170   62.2320 C   0  0  0  0  0  0  0  0  0  0  0  0
  131.8670  120.9560   62.2850 O   0  0  0  0  0  0  0  0  0  0  0  0
  133.7390  119.9390   61.4370 N   0  0  0  0  0  0  0  0  0  0  0  0
  133.1740  119.1220   60.4700 C   0  0  0  0  0  0  0  0  0  0  0  0
  133.5760  118.9410   59.2310 N   0  0  0  0  0  0  0  0  0  0  0  0
  132.8230  118.0590   58.6030 C   0  0  0  0  0  0  0  0  0  0  0  0
  131.7840  117.5010   59.3400 C   0  0  0  0  0  0  0  0  0  0  0  0
  131.7990  118.1780   60.9420 S   0  0  0  0  0  0  0  0  0  0  0  0
  131.8900  123.7980   61.3090 N   0  0  0  0  0  0  0  0  0  0  0  0
  128.8100  122.8310   60.3430 C   0  0  0  0  0  0  0  0  0  0  0  0
  127.9910  122.3990   59.3040 C   0  0  0  0  0  0  0  0  0  0  0  0
  125.6482  122.5137   58.1612 H   0  0  0  0  0  0  0  0  0  0  0  0
  125.4288  123.3991   56.6138 H   0  0  0  0  0  0  0  0  0  0  0  0
  125.5493  121.6068   56.6138 H   0  0  0  0  0  0  0  0  0  0  0  0
  129.0950  124.4848   56.8478 H   0  0  0  0  0  0  0  0  0  0  0  0
  130.5533  125.2483   58.7007 H   0  0  0  0  0  0  0  0  0  0  0  0
  129.1692  125.5841   62.2411 H   0  0  0  0  0  0  0  0  0  0  0  0
  131.4462  125.3710   66.0093 H   0  0  0  0  0  0  0  0  0  0  0  0
  130.4938  126.8204   67.7845 H   0  0  0  0  0  0  0  0  0  0  0  0
  127.4367  128.7339   68.8897 H   0  0  0  0  0  0  0  0  0  0  0  0
  127.0057  129.6056   67.3794 H   0  0  0  0  0  0  0  0  0  0  0  0
  127.1240  127.8132   67.3794 H   0  0  0  0  0  0  0  0  0  0  0  0
  128.4406  129.1519   64.7776 H   0  0  0  0  0  0  0  0  0  0  0  0
  129.3956  127.6972   63.0033 H   0  0  0  0  0  0  0  0  0  0  0  0
  134.9529  121.2120   63.2421 H   0  0  0  0  0  0  0  0  0  0  0  0
  133.4764  121.9177   64.0308 H   0  0  0  0  0  0  0  0  0  0  0  0
  134.7460  119.9190   61.4930 H   0  0  0  0  0  0  0  0  0  0  0  0
  133.0065  117.7803   57.5548 H   0  0  0  0  0  0  0  0  0  0  0  0
  131.0683  116.7523   58.9696 H   0  0  0  0  0  0  0  0  0  0  0  0
  128.7194  122.3596   61.3327 H   0  0  0  0  0  0  0  0  0  0  0  0
  127.2652  121.5911   59.4785 H   0  0  0  0  0  0  0  0  0  0  0  0
  1  2  1  0
  2  3  1  0
  3  4  2  0
  4  5  1  0
  5  6  2  0
  6  7  1  0
  7  8  2  0
  8  9  1  0
  9 10  1  0
 10 11  2  0
 11 12  1  0
 12 13  2  0
 13 14  1  0
 14 15  1  0
 13 16  1  0
 16 17  2  0
  9 18  2  0
 18 19  1  0
 19 20  3  0
 18 21  1  0
 21 22  1  0
 22 23  1  0
 23 24  1  0
 24 25  2  0
 24 26  1  0
 26 27  1  0
 27 28  2  0
 28 29  1  0
 29 30  2  0
 30 31  1  0
 21 32  2  0
  6 33  1  0
 33 34  2  0
 34  3  1  0
 32  7  1  0
 17 10  1  0
 31 27  1  0
  1 35  1  0
  1 36  1  0
  1 37  1  0
  4 38  1  0
  5 39  1  0
  8 40  1  0
 11 41  1  0
 12 42  1  0
 15 43  1  0
 15 44  1  0
 15 45  1  0
 16 46  1  0
 17 47  1  0
 23 48  1  0
 23 49  1  0
 26 50  1  0
 29 51  1  0
 30 52  1  0
 33 53  1  0
 34 54  1  0
M  END
>  <Binding energies>  (1) 
[-8.25]

>  <Ligand effiencies>  (1) 
[-0.2357142857142857]

>  <Interactions>  (1) 
["V-B:PRO:540:CD:9858, V-B:PRO:540:N:9855, H-B:TYR:539:N:9841, V-B:MET:535:CE:9806, V-B:TYR:539:CD2:9845, V-B:TYR:539:CZ:9848, V-B:HIS:456:CE1:9040, V-B:TYR:539:C:9838, V-A:GLU:543:CD:4907, V-A:GLU:543:CG:4906, V-B:PRO:540:CB:9856, V-B:TYR:539:CE2:9847, V-B:GLU:543:CD:9879, V-B:TYR:539:CG:9843, H-A:ARG:545:NE:4923, V-A:ILE:369:CG2:3236, V-A:ARG:545:CZ:4925, V-A:SER:385:CA:3406, H-A:ARG:545:NH1:4926, V-A:SER:385:CB:3408, H-A:GLY:454:N:4049, H-A:ARG:545:NH2:4927, V-A:ILE:369:CD1:3238, V-A:LEU:475:CD2:4258, V-A:HIS:383:CE1:3393, V-B:PRO:540:CA:9854, V-B:TYR:539:CB:9842, H-A:TYR:484:OH:4347, V-A:LEU:373:CD2:3280, V-A:GLY:454:CA:4048, V-A:LEU:373:CG:3278, V-A:SER:385:C:3404, H-A:SER:385:O:3405, V-A:LEU:373:CD1:3279, H-A:VAL:384:O:3397"]

$$$$
1c_Grossjean_2025
     RDKit          3D

 40 41  0  0  0  0  0  0  0  0999 V2000
  125.0670  122.6690   57.0180 C   0  0  0  0  0  0  0  0  0  0  0  0
  126.1500  123.4870   56.5900 O   0  0  0  0  0  0  0  0  0  0  0  0
  127.2740  123.5880   57.3870 C   0  0  0  0  0  0  0  0  0  0  0  0
  128.0390  124.7450   57.2420 C   0  0  0  0  0  0  0  0  0  0  0  0
  129.1890  124.9390   58.0020 C   0  0  0  0  0  0  0  0  0  0  0  0
  129.5870  123.9670   58.9310 C   0  0  0  0  0  0  0  0  0  0  0  0
  130.7350  124.0560   59.7420 N   0  0  0  0  0  0  0  0  0  0  0  0
  132.0010  124.3800   59.4020 C   0  0  0  0  0  0  0  0  0  0  0  0
  132.3820  124.6840   58.2720 O   0  0  0  0  0  0  0  0  0  0  0  0
  133.0130  124.3610   60.5490 C   0  0  0  0  0  0  0  0  0  0  0  0
  133.6110  122.6810   60.8980 S   0  0  0  0  0  0  0  0  0  0  0  0
  132.2040  121.6400   61.2270 C   0  0  0  0  0  0  0  0  0  0  0  0
  131.2120  122.2720   61.9040 N   0  0  0  0  0  0  0  0  0  0  0  0
  130.0900  121.5810   62.2120 C   0  0  0  0  0  0  0  0  0  0  0  0
  129.0220  122.3570   62.9600 C   0  0  0  0  0  0  0  0  0  0  0  0
  129.9150  120.2420   61.8710 C   0  0  0  0  0  0  0  0  0  0  0  0
  130.9400  119.5730   61.1950 C   0  0  0  0  0  0  0  0  0  0  0  0
  130.7320  118.1000   60.8480 C   0  0  0  0  0  0  0  0  0  0  0  0
  132.1230  120.2750   60.8650 C   0  0  0  0  0  0  0  0  0  0  0  0
  133.2300  119.5770   60.2060 C   0  0  0  0  0  0  0  0  0  0  0  0
  134.1030  119.0250   59.6850 N   0  0  0  0  0  0  0  0  0  0  0  0
  128.8310  122.8020   59.0720 C   0  0  0  0  0  0  0  0  0  0  0  0
  127.6820  122.6120   58.3100 C   0  0  0  0  0  0  0  0  0  0  0  0
  125.0369  122.6462   58.1174 H   0  0  0  0  0  0  0  0  0  0  0  0
  124.1222  123.0809   56.6337 H   0  0  0  0  0  0  0  0  0  0  0  0
  125.2048  121.6476   56.6337 H   0  0  0  0  0  0  0  0  0  0  0  0
  127.7299  125.5136   56.5183 H   0  0  0  0  0  0  0  0  0  0  0  0
  129.7853  125.8544   57.8738 H   0  0  0  0  0  0  0  0  0  0  0  0
  130.5640  123.8990   60.7240 H   0  0  0  0  0  0  0  0  0  0  0  0
  133.8704  124.9943   60.2772 H   0  0  0  0  0  0  0  0  0  0  0  0
  132.5114  124.7386   61.4522 H   0  0  0  0  0  0  0  0  0  0  0  0
  129.1775  122.2440   64.0431 H   0  0  0  0  0  0  0  0  0  0  0  0
  129.0851  123.4214   62.6896 H   0  0  0  0  0  0  0  0  0  0  0  0
  128.0292  121.9682   62.6896 H   0  0  0  0  0  0  0  0  0  0  0  0
  128.9832  119.7179   62.1299 H   0  0  0  0  0  0  0  0  0  0  0  0
  130.6491  117.5132   61.7747 H   0  0  0  0  0  0  0  0  0  0  0  0
  129.8092  117.9886   60.2597 H   0  0  0  0  0  0  0  0  0  0  0  0
  131.5879  117.7375   60.2597 H   0  0  0  0  0  0  0  0  0  0  0  0
  129.1452  122.0297   59.7895 H   0  0  0  0  0  0  0  0  0  0  0  0
  127.0906  121.6925   58.4315 H   0  0  0  0  0  0  0  0  0  0  0  0
  1  2  1  0
  2  3  1  0
  3  4  2  0
  4  5  1  0
  5  6  2  0
  6  7  1  0
  7  8  1  0
  8  9  2  0
  8 10  1  0
 10 11  1  0
 11 12  1  0
 12 13  2  0
 13 14  1  0
 14 15  1  0
 14 16  2  0
 16 17  1  0
 17 18  1  0
 17 19  2  0
 19 20  1  0
 20 21  3  0
  6 22  1  0
 22 23  2  0
 23  3  1  0
 19 12  1  0
  1 24  1  0
  1 25  1  0
  1 26  1  0
  4 27  1  0
  5 28  1  0
  7 29  1  0
 10 30  1  0
 10 31  1  0
 15 32  1  0
 15 33  1  0
 15 34  1  0
 16 35  1  0
 18 36  1  0
 18 37  1  0
 18 38  1  0
 22 39  1  0
 23 40  1  0
M  END
>  <Binding energies>  (1) 
[-6.7]

>  <Ligand effiencies>  (1) 
[-0.2791666666666667]

>  <Interactions>  (1) 
["V-B:PRO:540:CD:9858, V-B:PRO:540:N:9855, V-B:LEU:363:CD1:8159, V-B:MET:535:CE:9806, V-B:TYR:539:CD2:9845, V-B:TYR:539:CZ:9848, V-B:TYR:539:C:9838, V-B:PRO:540:CB:9856, V-B:TYR:539:CE2:9847, V-A:ASP:366:CG:3212, H-B:TYR:531:OH:9766, V-A:ILE:369:CG2:3236, V-A:SER:385:CA:3406, V-B:ALA:541:CB:9863, V-A:ILE:369:CD1:3238, V-A:LEU:475:CD2:4258, V-B:ALA:541:CA:9861, H-B:TYR:539:OH:9849, V-B:PRO:540:CA:9854, V-B:TYR:539:CB:9842, V-B:PRO:540:CG:9857"]

$$$$
1d_Ghoteimi_2023
     RDKit          3D

 50 52  0  0  0  0  0  0  0  0999 V2000
  124.7710  130.5340   64.4420 C   0  0  0  0  0  0  0  0  0  0  0  0
  123.8150  129.8990   65.2760 O   0  0  0  0  0  0  0  0  0  0  0  0
  124.1410  129.5240   66.5300 C   0  0  0  0  0  0  0  0  0  0  0  0
  123.5600  129.8550   67.5650 O   0  0  0  0  0  0  0  0  0  0  0  0
  125.3620  128.6080   66.5630 C   0  0  0  0  0  0  0  0  0  0  0  0
  126.8250  129.6550   66.8270 S   0  0  0  0  0  0  0  0  0  0  0  0
  128.1520  128.5790   67.3250 C   0  0  0  0  0  0  0  0  0  0  0  0
  128.1920  128.3430   68.6570 N   0  0  0  0  0  0  0  0  0  0  0  0
  129.1580  127.5410   69.1740 C   0  0  0  0  0  0  0  0  0  0  0  0
  129.1290  127.3250   70.6600 C   0  0  0  0  0  0  0  0  0  0  0  0
  129.6690  128.2720   71.5440 C   0  0  0  0  0  0  0  0  0  0  0  0
  129.6470  128.0680   72.9200 C   0  0  0  0  0  0  0  0  0  0  0  0
  129.0870  126.9110   73.4560 C   0  0  0  0  0  0  0  0  0  0  0  0
  129.1120  126.7910   74.8330 O   0  0  0  0  0  0  0  0  0  0  0  0
  130.2950  127.1500   75.5380 C   0  0  0  0  0  0  0  0  0  0  0  0
  128.5430  125.9560   72.5870 C   0  0  0  0  0  0  0  0  0  0  0  0
  128.5670  126.1640   71.2100 C   0  0  0  0  0  0  0  0  0  0  0  0
  130.1110  126.9450   68.3400 C   0  0  0  0  0  0  0  0  0  0  0  0
  130.1020  127.1840   66.9600 C   0  0  0  0  0  0  0  0  0  0  0  0
  131.1530  126.5210   66.1290 C   0  0  0  0  0  0  0  0  0  0  0  0
  130.8240  125.9700   64.8870 C   0  0  0  0  0  0  0  0  0  0  0  0
  131.7980  125.3510   64.1080 C   0  0  0  0  0  0  0  0  0  0  0  0
  133.1180  125.2750   64.5500 C   0  0  0  0  0  0  0  0  0  0  0  0
  134.0150  124.6370   63.7150 O   0  0  0  0  0  0  0  0  0  0  0  0
  133.5690  123.5410   62.9240 C   0  0  0  0  0  0  0  0  0  0  0  0
  133.4560  125.8380   65.7910 C   0  0  0  0  0  0  0  0  0  0  0  0
  132.4800  126.4570   66.5680 C   0  0  0  0  0  0  0  0  0  0  0  0
  129.1070  128.0430   66.4310 C   0  0  0  0  0  0  0  0  0  0  0  0
  129.1130  128.4110   65.0120 C   0  0  0  0  0  0  0  0  0  0  0  0
  129.1190  128.7000   63.8920 N   0  0  0  0  0  0  0  0  0  0  0  0
  125.5259  131.0354   65.0654 H   0  0  0  0  0  0  0  0  0  0  0  0
  125.2611  129.7813   63.8070 H   0  0  0  0  0  0  0  0  0  0  0  0
  124.2672  131.2776   63.8070 H   0  0  0  0  0  0  0  0  0  0  0  0
  125.2656  127.8834   67.3850 H   0  0  0  0  0  0  0  0  0  0  0  0
  125.4516  128.0483   65.6203 H   0  0  0  0  0  0  0  0  0  0  0  0
  130.1177  129.1922   71.1416 H   0  0  0  0  0  0  0  0  0  0  0  0
  130.0757  128.8273   73.5906 H   0  0  0  0  0  0  0  0  0  0  0  0
  130.1082  127.0933   76.6205 H   0  0  0  0  0  0  0  0  0  0  0  0
  131.1064  126.4576   75.2692 H   0  0  0  0  0  0  0  0  0  0  0  0
  130.5848  128.1765   75.2692 H   0  0  0  0  0  0  0  0  0  0  0  0
  128.0948  125.0376   72.9942 H   0  0  0  0  0  0  0  0  0  0  0  0
  128.1371  125.4034   70.5416 H   0  0  0  0  0  0  0  0  0  0  0  0
  130.8748  126.2822   68.7728 H   0  0  0  0  0  0  0  0  0  0  0  0
  129.7877  126.0259   64.5224 H   0  0  0  0  0  0  0  0  0  0  0  0
  131.5234  124.9179   63.1348 H   0  0  0  0  0  0  0  0  0  0  0  0
  133.2369  122.7248   63.5824 H   0  0  0  0  0  0  0  0  0  0  0  0
  132.7308  123.8641   62.2891 H   0  0  0  0  0  0  0  0  0  0  0  0
  134.3946  123.1870   62.2891 H   0  0  0  0  0  0  0  0  0  0  0  0
  134.4945  125.7900   66.1505 H   0  0  0  0  0  0  0  0  0  0  0  0
  132.7551  126.9000   67.5365 H   0  0  0  0  0  0  0  0  0  0  0  0
  1  2  1  0
  2  3  1  0
  3  4  2  0
  3  5  1  0
  5  6  1  0
  6  7  1  0
  7  8  2  0
  8  9  1  0
  9 10  1  0
 10 11  2  0
 11 12  1  0
 12 13  2  0
 13 14  1  0
 14 15  1  0
 13 16  1  0
 16 17  2  0
  9 18  2  0
 18 19  1  0
 19 20  1  0
 20 21  2  0
 21 22  1  0
 22 23  2  0
 23 24  1  0
 24 25  1  0
 23 26  1  0
 26 27  2  0
 19 28  2  0
 28 29  1  0
 29 30  3  0
 28  7  1  0
 17 10  1  0
 27 20  1  0
  1 31  1  0
  1 32  1  0
  1 33  1  0
  5 34  1  0
  5 35  1  0
 11 36  1  0
 12 37  1  0
 15 38  1  0
 15 39  1  0
 15 40  1  0
 16 41  1  0
 17 42  1  0
 18 43  1  0
 21 44  1  0
 22 45  1  0
 25 46  1  0
 25 47  1  0
 25 48  1  0
 26 49  1  0
 27 50  1  0
M  END
>  <Binding energies>  (1) 
[-7.64]

>  <Ligand effiencies>  (1) 
[-0.25466666666666665]

>  <Interactions>  (1) 
["H-B:TYR:484:OH:9318, H-B:GLY:454:N:9020, V-B:HIS:456:CE1:9040, V-A:HIS:456:CE1:4069, V-A:GLU:543:CD:4907, V-B:GLU:543:CD:9879, V-B:GLU:543:C:9873, V-B:ARG:545:CZ:9897, H-B:ILE:455:N:9025, V-B:ARG:545:CG:9893, H-B:LYS:547:NZ:9922, V-B:ARG:545:CD:9894, V-A:ARG:545:CZ:4925, V-A:ARG:545:CD:4922, H-A:GLY:454:N:4049, V-A:ARG:545:CG:4921, V-A:ILE:369:CD1:3238, V-A:GLY:454:CA:4048"]

$$$$
1d_Grossjean_2025
     RDKit          3D

 36 37  0  0  0  0  0  0  0  0999 V2000
  134.3060  125.7400   67.2410 C   0  0  0  0  0  0  0  0  0  0  0  0
  133.4680  125.7570   65.9780 C   0  0  0  0  0  0  0  0  0  0  0  0
  132.2370  126.4080   65.9270 C   0  0  0  0  0  0  0  0  0  0  0  0
  131.5120  126.3990   64.7310 C   0  0  0  0  0  0  0  0  0  0  0  0
  130.1730  127.1330   64.6960 C   0  0  0  0  0  0  0  0  0  0  0  0
  132.0400  125.7240   63.6070 C   0  0  0  0  0  0  0  0  0  0  0  0
  131.3220  125.7430   62.3310 C   0  0  0  0  0  0  0  0  0  0  0  0
  130.7510  125.7600   61.3240 N   0  0  0  0  0  0  0  0  0  0  0  0
  133.2860  125.0690   63.7560 C   0  0  0  0  0  0  0  0  0  0  0  0
  134.0950  124.1740   62.4500 S   0  0  0  0  0  0  0  0  0  0  0  0
  134.1980  122.4330   62.9680 C   0  0  0  0  0  0  0  0  0  0  0  0
  133.2030  121.5480   62.2160 C   0  0  0  0  0  0  0  0  0  0  0  0
  132.0110  121.8550   62.2110 O   0  0  0  0  0  0  0  0  0  0  0  0
  133.7400  120.4840   61.5810 N   0  0  0  0  0  0  0  0  0  0  0  0
  133.1150  119.4750   60.8250 C   0  0  0  0  0  0  0  0  0  0  0  0
  131.9750  118.9060   61.3990 C   0  0  0  0  0  0  0  0  0  0  0  0
  131.2780  117.9030   60.7320 C   0  0  0  0  0  0  0  0  0  0  0  0
  131.7170  117.4710   59.4830 C   0  0  0  0  0  0  0  0  0  0  0  0
  132.8460  118.0360   58.8950 C   0  0  0  0  0  0  0  0  0  0  0  0
  133.5460  119.0390   59.5610 C   0  0  0  0  0  0  0  0  0  0  0  0
  133.9910  125.1020   64.9150 N   0  0  0  0  0  0  0  0  0  0  0  0
  133.6448  125.7534   68.1200 H   0  0  0  0  0  0  0  0  0  0  0  0
  134.9225  124.8292   67.2598 H   0  0  0  0  0  0  0  0  0  0  0  0
  134.9589  126.6251   67.2598 H   0  0  0  0  0  0  0  0  0  0  0  0
  131.8409  126.9219   66.8152 H   0  0  0  0  0  0  0  0  0  0  0  0
  129.8307  127.3206   65.7244 H   0  0  0  0  0  0  0  0  0  0  0  0
  130.2937  128.0911   64.1692 H   0  0  0  0  0  0  0  0  0  0  0  0
  129.4302  126.5159   64.1692 H   0  0  0  0  0  0  0  0  0  0  0  0
  135.2164  122.0652   62.7742 H   0  0  0  0  0  0  0  0  0  0  0  0
  133.9522  122.3837   64.0391 H   0  0  0  0  0  0  0  0  0  0  0  0
  134.7440  120.3930   61.6390 H   0  0  0  0  0  0  0  0  0  0  0  0
  131.6268  119.2527   62.3831 H   0  0  0  0  0  0  0  0  0  0  0  0
  130.3843  117.4534   61.1893 H   0  0  0  0  0  0  0  0  0  0  0  0
  131.1674  116.6768   58.9564 H   0  0  0  0  0  0  0  0  0  0  0  0
  133.1841  117.6908   57.9068 H   0  0  0  0  0  0  0  0  0  0  0  0
  134.4360  119.4896   59.0975 H   0  0  0  0  0  0  0  0  0  0  0  0
  1  2  1  0
  2  3  2  0
  3  4  1  0
  4  5  1  0
  4  6  2  0
  6  7  1  0
  7  8  3  0
  6  9  1  0
  9 10  1  0
 10 11  1  0
 11 12  1  0
 12 13  2  0
 12 14  1  0
 14 15  1  0
 15 16  2  0
 16 17  1  0
 17 18  2  0
 18 19  1  0
 19 20  2  0
  9 21  2  0
 21  2  1  0
 20 15  1  0
  1 22  1  0
  1 23  1  0
  1 24  1  0
  3 25  1  0
  5 26  1  0
  5 27  1  0
  5 28  1  0
 11 29  1  0
 11 30  1  0
 14 31  1  0
 16 32  1  0
 17 33  1  0
 18 34  1  0
 19 35  1  0
 20 36  1  0
M  END
>  <Binding energies>  (1) 
[-7.68]

>  <Ligand effiencies>  (1) 
[-0.34909090909090906]

>  <Interactions>  (1) 
["V-B:TYR:539:CD2:9845, V-A:GLU:543:CD:4907, V-B:TYR:539:CE2:9847, V-B:TYR:539:CG:9843, V-A:VAL:384:C:3396, V-A:ILE:369:CG2:3236, V-A:ARG:545:CZ:4925, V-A:SER:385:CA:3406, V-A:SER:385:CB:3408, V-A:ARG:545:CD:4922, H-A:GLY:454:N:4049, V-A:ARG:545:CG:4921, V-A:ILE:369:CD1:3238, V-A:LEU:475:CD2:4258, V-A:HIS:383:CE1:3393, V-B:TYR:539:CB:9842, H-A:TYR:484:OH:4347, V-A:LEU:373:CD2:3280, V-A:GLY:453:C:4041, V-A:GLY:454:CA:4048, V-A:LEU:373:CG:3278, V-A:SER:385:C:3404, H-A:SER:385:O:3405, V-A:LEU:373:CD1:3279"]

$$$$
1e_Grossjean_2025
     RDKit          3D

 38 39  0  0  0  0  0  0  0  0999 V2000
  133.9890  119.0060   59.6140 C   0  0  0  0  0  0  0  0  0  0  0  0
  132.6900  118.7420   60.3520 C   0  0  0  0  0  0  0  0  0  0  0  0
  132.3380  117.4580   60.7770 C   0  0  0  0  0  0  0  0  0  0  0  0
  131.1260  117.2910   61.4480 C   0  0  0  0  0  0  0  0  0  0  0  0
  130.3030  118.3960   61.6740 C   0  0  0  0  0  0  0  0  0  0  0  0
  130.7190  119.6560   61.2260 C   0  0  0  0  0  0  0  0  0  0  0  0
  129.8430  120.7280   61.4720 N   0  0  0  0  0  0  0  0  0  0  0  0
  129.8730  121.6220   62.4850 C   0  0  0  0  0  0  0  0  0  0  0  0
  130.7030  121.6310   63.3960 O   0  0  0  0  0  0  0  0  0  0  0  0
  128.7580  122.6710   62.4800 C   0  0  0  0  0  0  0  0  0  0  0  0
  128.4250  123.3010   60.8070 S   0  0  0  0  0  0  0  0  0  0  0  0
  126.6630  123.4800   60.6060 C   0  0  0  0  0  0  0  0  0  0  0  0
  125.9650  123.2640   61.7500 N   0  0  0  0  0  0  0  0  0  0  0  0
  124.6160  123.3690   61.7210 C   0  0  0  0  0  0  0  0  0  0  0  0
  123.9050  123.1210   63.0370 C   0  0  0  0  0  0  0  0  0  0  0  0
  123.9110  123.6780   60.5590 C   0  0  0  0  0  0  0  0  0  0  0  0
  124.6180  123.8790   59.3690 C   0  0  0  0  0  0  0  0  0  0  0  0
  123.8210  124.1990   58.1060 C   0  0  0  0  0  0  0  0  0  0  0  0
  126.0280  123.7710   59.3750 C   0  0  0  0  0  0  0  0  0  0  0  0
  126.7780  123.9200   58.1260 C   0  0  0  0  0  0  0  0  0  0  0  0
  127.3690  124.0390   57.1380 N   0  0  0  0  0  0  0  0  0  0  0  0
  131.9020  119.8260   60.5650 N   0  0  0  0  0  0  0  0  0  0  0  0
  134.7973  119.1703   60.3418 H   0  0  0  0  0  0  0  0  0  0  0  0
  134.2346  118.1394   58.9826 H   0  0  0  0  0  0  0  0  0  0  0  0
  133.8769  119.8997   58.9826 H   0  0  0  0  0  0  0  0  0  0  0  0
  133.0000  116.6003   60.5872 H   0  0  0  0  0  0  0  0  0  0  0  0
  130.8204  116.2937   61.7972 H   0  0  0  0  0  0  0  0  0  0  0  0
  129.3420  118.2786   62.1962 H   0  0  0  0  0  0  0  0  0  0  0  0
  129.0670  120.7960   60.8310 H   0  0  0  0  0  0  0  0  0  0  0  0
  127.8393  122.2150   62.8774 H   0  0  0  0  0  0  0  0  0  0  0  0
  129.0836  123.5167   63.1036 H   0  0  0  0  0  0  0  0  0  0  0  0
  124.5830  123.3575   63.8703 H   0  0  0  0  0  0  0  0  0  0  0  0
  123.0123  123.7608   63.0977 H   0  0  0  0  0  0  0  0  0  0  0  0
  123.6039  122.0648   63.0977 H   0  0  0  0  0  0  0  0  0  0  0  0
  122.8144  123.7626   60.5776 H   0  0  0  0  0  0  0  0  0  0  0  0
  122.8338  124.5954   58.3860 H   0  0  0  0  0  0  0  0  0  0  0  0
  124.3622  124.9495   57.5112 H   0  0  0  0  0  0  0  0  0  0  0  0
  123.6929  123.2826   57.5112 H   0  0  0  0  0  0  0  0  0  0  0  0
  1  2  1  0
  2  3  2  0
  3  4  1  0
  4  5  2  0
  5  6  1  0
  6  7  1  0
  7  8  1  0
  8  9  2  0
  8 10  1  0
 10 11  1  0
 11 12  1  0
 12 13  2  0
 13 14  1  0
 14 15  1  0
 14 16  2  0
 16 17  1  0
 17 18  1  0
 17 19  2  0
 19 20  1  0
 20 21  3  0
  6 22  2  0
 22  2  1  0
 19 12  1  0
  1 23  1  0
  1 24  1  0
  1 25  1  0
  3 26  1  0
  4 27  1  0
  5 28  1  0
  7 29  1  0
 10 30  1  0
 10 31  1  0
 15 32  1  0
 15 33  1  0
 15 34  1  0
 16 35  1  0
 18 36  1  0
 18 37  1  0
 18 38  1  0
M  END
>  <Binding energies>  (1) 
[-7.7]

>  <Ligand effiencies>  (1) 
[-0.3347826086956522]

>  <Interactions>  (1) 
["V-B:LEU:363:CD1:8159, V-B:TYR:539:CD2:9845, V-B:ASP:366:CG:8183, V-B:TYR:539:C:9838, V-B:PRO:540:CB:9856, V-B:ASP:366:CB:8182, H-B:TYR:531:OH:9766, V-B:ARG:545:CZ:9897, V-A:VAL:384:C:3396, V-A:ILE:369:CG2:3236, V-A:SER:385:CA:3406, V-B:ALA:541:C:9859, V-A:SER:385:CB:3408, V-B:ALA:541:CB:9863, V-A:LEU:475:CD2:4258, V-A:HIS:383:CE1:3393, V-A:PRO:482:CG:4326, V-B:PRO:540:CA:9854, H-B:ALA:541:N:9862, V-B:LEU:363:CA:8155, V-B:ASN:362:CB:8146, V-A:PRO:482:CB:4325, V-B:ASN:362:CG:8147, V-A:LEU:373:CD2:3280, H-B:TYR:539:O:9839"]

$$$$
1f_Grossjean_2025
     RDKit          3D

 35 36  0  0  0  0  0  0  0  0999 V2000
  129.7030  116.6500   60.6750 C   0  0  0  0  0  0  0  0  0  0  0  0
  130.6180  117.8600   60.7010 C   0  0  0  0  0  0  0  0  0  0  0  0
  131.8210  117.8810   60.0000 C   0  0  0  0  0  0  0  0  0  0  0  0
  132.6290  119.0200   60.0720 C   0  0  0  0  0  0  0  0  0  0  0  0
  133.9530  119.0120   59.3090 C   0  0  0  0  0  0  0  0  0  0  0  0
  132.2020  120.1240   60.8450 C   0  0  0  0  0  0  0  0  0  0  0  0
  133.0600  121.3040   60.9770 C   0  0  0  0  0  0  0  0  0  0  0  0
  133.7390  122.2350   61.0800 N   0  0  0  0  0  0  0  0  0  0  0  0
  130.9520  120.0260   61.5010 C   0  0  0  0  0  0  0  0  0  0  0  0
  130.2510  121.3120   62.5170 S   0  0  0  0  0  0  0  0  0  0  0  0
  129.8900  122.7520   61.4550 C   0  0  0  0  0  0  0  0  0  0  0  0
  128.5280  122.7060   60.7460 C   0  0  0  0  0  0  0  0  0  0  0  0
  127.4910  122.5600   61.3940 O   0  0  0  0  0  0  0  0  0  0  0  0
  128.5910  122.8120   59.4020 N   0  0  0  0  0  0  0  0  0  0  0  0
  127.5540  122.8160   58.4500 C   0  0  0  0  0  0  0  0  0  0  0  0
  126.3200  123.4810   58.5860 C   0  0  0  0  0  0  0  0  0  0  0  0
  125.3770  123.4040   57.5570 C   0  0  0  0  0  0  0  0  0  0  0  0
  125.6920  122.6670   56.4160 C   0  0  0  0  0  0  0  0  0  0  0  0
  126.8740  122.0220   56.2580 N   0  0  0  0  0  0  0  0  0  0  0  0
  127.7810  122.1060   57.2670 C   0  0  0  0  0  0  0  0  0  0  0  0
  130.1880  118.9070   61.4450 N   0  0  0  0  0  0  0  0  0  0  0  0
  129.4712  116.3434   61.7057 H   0  0  0  0  0  0  0  0  0  0  0  0
  128.7709  116.9064   60.1502 H   0  0  0  0  0  0  0  0  0  0  0  0
  130.2036  115.8229   60.1502 H   0  0  0  0  0  0  0  0  0  0  0  0
  132.1312  117.0140   59.3982 H   0  0  0  0  0  0  0  0  0  0  0  0
  134.7885  119.0070   60.0245 H   0  0  0  0  0  0  0  0  0  0  0  0
  134.0064  118.1135   58.6766 H   0  0  0  0  0  0  0  0  0  0  0  0
  134.0172  119.9098   58.6766 H   0  0  0  0  0  0  0  0  0  0  0  0
  129.9186  123.6552   62.0822 H   0  0  0  0  0  0  0  0  0  0  0  0
  130.6517  122.7494   60.6614 H   0  0  0  0  0  0  0  0  0  0  0  0
  129.5170  122.8850   59.0050 H   0  0  0  0  0  0  0  0  0  0  0  0
  126.0996  124.0575   59.4965 H   0  0  0  0  0  0  0  0  0  0  0  0
  124.4065  123.9143   57.6455 H   0  0  0  0  0  0  0  0  0  0  0  0
  124.9482  122.6062   55.6079 H   0  0  0  0  0  0  0  0  0  0  0  0
  128.7440  121.5883   57.1465 H   0  0  0  0  0  0  0  0  0  0  0  0
  1  2  1  0
  2  3  2  0
  3  4  1  0
  4  5  1  0
  4  6  2  0
  6  7  1  0
  7  8  3  0
  6  9  1  0
  9 10  1  0
 10 11  1  0
 11 12  1  0
 12 13  2  0
 12 14  1  0
 14 15  1  0
 15 16  2  0
 16 17  1  0
 17 18  2  0
 18 19  1  0
 19 20  2  0
  9 21  2  0
 21  2  1  0
 20 15  1  0
  1 22  1  0
  1 23  1  0
  1 24  1  0
  3 25  1  0
  5 26  1  0
  5 27  1  0
  5 28  1  0
 11 29  1  0
 11 30  1  0
 14 31  1  0
 16 32  1  0
 17 33  1  0
 18 34  1  0
 20 35  1  0
M  END
>  <Binding energies>  (1) 
[-7.98]

>  <Ligand effiencies>  (1) 
[-0.36272727272727273]

>  <Interactions>  (1) 
["V-B:PRO:540:CD:9858, V-B:PRO:540:N:9855, H-B:TYR:539:N:9841, V-B:LEU:363:CD1:8159, V-B:MET:535:CE:9806, V-B:TYR:539:CD2:9845, V-B:TYR:539:CZ:9848, V-B:TYR:539:C:9838, V-B:TYR:539:CE1:9846, V-B:TYR:539:CD1:9844, V-B:PRO:540:CB:9856, V-B:TYR:539:CE2:9847, V-B:TYR:539:CG:9843, V-A:VAL:384:C:3396, V-A:ILE:369:CG2:3236, V-A:SER:385:CA:3406, V-B:ALA:541:CB:9863, V-A:LEU:475:CD2:4258, V-A:HIS:383:CE1:3393, V-A:PRO:482:CG:4326, V-B:PRO:540:CA:9854, V-B:TYR:539:CB:9842, H-B:ALA:541:N:9862, V-A:PRO:482:CB:4325, V-A:LEU:373:CD2:3280, H-B:TYR:539:O:9839, V-A:LEU:373:CG:3278, V-B:VAL:344:CG1:7971, V-B:TYR:539:CA:9840"]

$$$$
1g_Grossjean_2025
     RDKit          3D

 39 40  0  0  0  0  0  0  0  0999 V2000
  135.0710  125.7300   67.4250 C   0  0  0  0  0  0  0  0  0  0  0  0
  133.8110  125.7820   66.5820 C   0  0  0  0  0  0  0  0  0  0  0  0
  132.6580  126.4240   67.0310 C   0  0  0  0  0  0  0  0  0  0  0  0
  131.5210  126.4260   66.2170 C   0  0  0  0  0  0  0  0  0  0  0  0
  130.2640  127.1240   66.7380 C   0  0  0  0  0  0  0  0  0  0  0  0
  131.5700  125.7870   64.9580 C   0  0  0  0  0  0  0  0  0  0  0  0
  130.3760  125.7310   64.1110 C   0  0  0  0  0  0  0  0  0  0  0  0
  129.4300  125.6880   63.4450 N   0  0  0  0  0  0  0  0  0  0  0  0
  132.7900  125.1820   64.5730 C   0  0  0  0  0  0  0  0  0  0  0  0
  133.0300  124.3440   63.0220 S   0  0  0  0  0  0  0  0  0  0  0  0
  132.9160  122.5600   63.3490 C   0  0  0  0  0  0  0  0  0  0  0  0
  132.8500  121.7440   62.0580 C   0  0  0  0  0  0  0  0  0  0  0  0
  131.9250  121.9190   61.2640 O   0  0  0  0  0  0  0  0  0  0  0  0
  133.8370  120.8510   61.8670 N   0  0  0  0  0  0  0  0  0  0  0  0
  134.0030  120.0100   60.6810 C   0  0  0  0  0  0  0  0  0  0  0  0
  132.8860  118.9920   60.4720 C   0  0  0  0  0  0  0  0  0  0  0  0
  132.8080  118.2770   59.2730 C   0  0  0  0  0  0  0  0  0  0  0  0
  131.7890  117.3480   59.0820 C   0  0  0  0  0  0  0  0  0  0  0  0
  130.8540  117.1330   60.0930 C   0  0  0  0  0  0  0  0  0  0  0  0
  130.9290  117.8380   61.2920 C   0  0  0  0  0  0  0  0  0  0  0  0
  131.9460  118.7690   61.4830 C   0  0  0  0  0  0  0  0  0  0  0  0
  133.8820  125.1660   65.3790 N   0  0  0  0  0  0  0  0  0  0  0  0
  134.7997  125.7412   68.4910 H   0  0  0  0  0  0  0  0  0  0  0  0
  135.6265  124.8082   67.1977 H   0  0  0  0  0  0  0  0  0  0  0  0
  135.7005  126.6029   67.1977 H   0  0  0  0  0  0  0  0  0  0  0  0
  132.6428  126.9220   68.0117 H   0  0  0  0  0  0  0  0  0  0  0  0
  130.2715  127.1198   67.8380 H   0  0  0  0  0  0  0  0  0  0  0  0
  130.2442  128.1623   66.3754 H   0  0  0  0  0  0  0  0  0  0  0  0
  129.3721  126.5919   66.3754 H   0  0  0  0  0  0  0  0  0  0  0  0
  133.8011  122.2468   63.9222 H   0  0  0  0  0  0  0  0  0  0  0  0
  131.9904  122.3768   63.9143 H   0  0  0  0  0  0  0  0  0  0  0  0
  134.5680  120.7870   62.5610 H   0  0  0  0  0  0  0  0  0  0  0  0
  134.0427  120.6642   59.7976 H   0  0  0  0  0  0  0  0  0  0  0  0
  134.9292  119.4354   60.8293 H   0  0  0  0  0  0  0  0  0  0  0  0
  133.5517  118.4485   58.4808 H   0  0  0  0  0  0  0  0  0  0  0  0
  131.7221  116.7867   58.1384 H   0  0  0  0  0  0  0  0  0  0  0  0
  130.0486  116.3991   59.9425 H   0  0  0  0  0  0  0  0  0  0  0  0
  130.1875  117.6597   62.0847 H   0  0  0  0  0  0  0  0  0  0  0  0
  132.0102  119.3285   62.4279 H   0  0  0  0  0  0  0  0  0  0  0  0
  1  2  1  0
  2  3  2  0
  3  4  1  0
  4  5  1  0
  4  6  2  0
  6  7  1  0
  7  8  3  0
  6  9  1  0
  9 10  1  0
 10 11  1  0
 11 12  1  0
 12 13  2  0
 12 14  1  0
 14 15  1  0
 15 16  1  0
 16 17  2  0
 17 18  1  0
 18 19  2  0
 19 20  1  0
 20 21  2  0
  9 22  2  0
 22  2  1  0
 21 16  1  0
  1 23  1  0
  1 24  1  0
  1 25  1  0
  3 26  1  0
  5 27  1  0
  5 28  1  0
  5 29  1  0
 11 30  1  0
 11 31  1  0
 14 32  1  0
 15 33  1  0
 15 34  1  0
 17 35  1  0
 18 36  1  0
 19 37  1  0
 20 38  1  0
 21 39  1  0
M  END
>  <Binding energies>  (1) 
[-7.8]

>  <Ligand effiencies>  (1) 
[-0.3391304347826087]

>  <Interactions>  (1) 
["V-B:TYR:539:CD2:9845, V-A:HIS:456:CE1:4069, V-A:GLU:543:CD:4907, V-B:TYR:539:CG:9843, V-A:ILE:369:CG2:3236, V-A:ARG:545:CZ:4925, V-A:SER:385:CA:3406, V-A:SER:385:CB:3408, V-A:ARG:545:CD:4922, H-A:GLY:454:N:4049, V-A:ARG:545:CG:4921, V-A:ILE:369:CD1:3238, V-A:LEU:475:CD2:4258, V-A:HIS:383:CE1:3393, V-A:PRO:482:CG:4326, V-B:TYR:539:CB:9842, H-A:TYR:484:OH:4347, V-A:PRO:482:CB:4325, V-A:LEU:373:CD2:3280, V-A:GLY:453:C:4041, V-A:GLY:453:CA:4043, V-A:GLY:454:CA:4048, V-A:LEU:373:CG:3278, V-B:VAL:344:CG1:7971, V-A:ARG:545:CB:4920, V-A:SER:385:C:3404, H-A:SER:385:O:3405, V-A:ILE:455:C:4051, V-A:LEU:373:CD1:3279"]

$$$$
1h_Grossjean_2025
     RDKit          3D

 51 52  0  0  0  0  0  0  0  0999 V2000
  133.7710  125.8210   66.4980 C   0  0  0  0  0  0  0  0  0  0  0  0
  133.9970  125.2340   65.2210 O   0  0  0  0  0  0  0  0  0  0  0  0
  133.0440  125.3770   64.2300 C   0  0  0  0  0  0  0  0  0  0  0  0
  131.9370  126.2350   64.3250 C   0  0  0  0  0  0  0  0  0  0  0  0
  131.0050  126.3180   63.2890 C   0  0  0  0  0  0  0  0  0  0  0  0
  129.8190  127.2720   63.3960 C   0  0  0  0  0  0  0  0  0  0  0  0
  128.5170  126.6080   63.3520 N   0  0  0  0  0  0  0  0  0  0  0  0
  127.8840  126.2090   62.2340 C   0  0  0  0  0  0  0  0  0  0  0  0
  128.3510  126.3380   61.1030 O   0  0  0  0  0  0  0  0  0  0  0  0
  126.5070  125.5710   62.4200 C   0  0  0  0  0  0  0  0  0  0  0  0
  126.4960  123.8210   61.9260 S   0  0  0  0  0  0  0  0  0  0  0  0
  128.0420  123.0910   62.4380 C   0  0  0  0  0  0  0  0  0  0  0  0
  128.3140  123.1560   63.7680 N   0  0  0  0  0  0  0  0  0  0  0  0
  129.4690  122.6170   64.2250 C   0  0  0  0  0  0  0  0  0  0  0  0
  129.6980  122.7250   65.7210 C   0  0  0  0  0  0  0  0  0  0  0  0
  130.3940  122.0000   63.3870 C   0  0  0  0  0  0  0  0  0  0  0  0
  130.1270  121.9280   62.0150 C   0  0  0  0  0  0  0  0  0  0  0  0
  131.1540  121.2450   61.1140 C   0  0  0  0  0  0  0  0  0  0  0  0
  128.9270  122.4840   61.5160 C   0  0  0  0  0  0  0  0  0  0  0  0
  128.6220  122.4260   60.0840 C   0  0  0  0  0  0  0  0  0  0  0  0
  128.3820  122.3800   58.9530 N   0  0  0  0  0  0  0  0  0  0  0  0
  131.1970  125.5660   62.1290 C   0  0  0  0  0  0  0  0  0  0  0  0
  132.2980  124.7040   62.0040 C   0  0  0  0  0  0  0  0  0  0  0  0
  132.5480  123.9290   60.8870 O   0  0  0  0  0  0  0  0  0  0  0  0
  132.5130  124.5300   59.5960 C   0  0  0  0  0  0  0  0  0  0  0  0
  133.2080  124.6110   63.0670 C   0  0  0  0  0  0  0  0  0  0  0  0
  134.2940  123.7760   62.9560 O   0  0  0  0  0  0  0  0  0  0  0  0
  133.9620  122.3940   62.9390 C   0  0  0  0  0  0  0  0  0  0  0  0
  134.0471  125.1040   67.2852 H   0  0  0  0  0  0  0  0  0  0  0  0
  134.3838  126.7290   66.5978 H   0  0  0  0  0  0  0  0  0  0  0  0
  132.7075  126.0836   66.5978 H   0  0  0  0  0  0  0  0  0  0  0  0
  131.8022  126.8497   65.2272 H   0  0  0  0  0  0  0  0  0  0  0  0
  129.8977  127.8166   64.3485 H   0  0  0  0  0  0  0  0  0  0  0  0
  129.8664  127.9387   62.5223 H   0  0  0  0  0  0  0  0  0  0  0  0
  128.0550  126.4750   64.2400 H   0  0  0  0  0  0  0  0  0  0  0  0
  126.2224  125.6427   63.4801 H   0  0  0  0  0  0  0  0  0  0  0  0
  125.7931  126.1098   61.7796 H   0  0  0  0  0  0  0  0  0  0  0  0
  128.8285  122.3149   66.2556 H   0  0  0  0  0  0  0  0  0  0  0  0
  130.5989  122.1569   65.9960 H   0  0  0  0  0  0  0  0  0  0  0  0
  129.8327  123.7815   65.9960 H   0  0  0  0  0  0  0  0  0  0  0  0
  131.3218  121.5750   63.7976 H   0  0  0  0  0  0  0  0  0  0  0  0
  131.9099  120.7423   61.7352 H   0  0  0  0  0  0  0  0  0  0  0  0
  130.6485  120.5026   60.4790 H   0  0  0  0  0  0  0  0  0  0  0  0
  131.6432  121.9983   60.4790 H   0  0  0  0  0  0  0  0  0  0  0  0
  130.4764  125.6498   61.3021 H   0  0  0  0  0  0  0  0  0  0  0  0
  132.4493  125.6230   59.7020 H   0  0  0  0  0  0  0  0  0  0  0  0
  133.4279  124.2678   59.0445 H   0  0  0  0  0  0  0  0  0  0  0  0
  131.6347  124.1633   59.0445 H   0  0  0  0  0  0  0  0  0  0  0  0
  133.8735  122.0254   63.9716 H   0  0  0  0  0  0  0  0  0  0  0  0
  133.0045  122.2533   62.4161 H   0  0  0  0  0  0  0  0  0  0  0  0
  134.7511  121.8337   62.4161 H   0  0  0  0  0  0  0  0  0  0  0  0
  1  2  1  0
  2  3  1  0
  3  4  2  0
  4  5  1  0
  5  6  1  0
  6  7  1  0
  7  8  1  0
  8  9  2  0
  8 10  1  0
 10 11  1  0
 11 12  1  0
 12 13  2  0
 13 14  1  0
 14 15  1  0
 14 16  2  0
 16 17  1  0
 17 18  1  0
 17 19  2  0
 19 20  1  0
 20 21  3  0
  5 22  2  0
 22 23  1  0
 23 24  1  0
 24 25  1  0
 23 26  2  0
 26 27  1  0
 27 28  1  0
 26  3  1  0
 19 12  1  0
  1 29  1  0
  1 30  1  0
  1 31  1  0
  4 32  1  0
  6 33  1  0
  6 34  1  0
  7 35  1  0
 10 36  1  0
 10 37  1  0
 15 38  1  0
 15 39  1  0
 15 40  1  0
 16 41  1  0
 18 42  1  0
 18 43  1  0
 18 44  1  0
 22 45  1  0
 25 46  1  0
 25 47  1  0
 25 48  1  0
 28 49  1  0
 28 50  1  0
 28 51  1  0
M  END
>  <Binding energies>  (1) 
[-6.05]

>  <Ligand effiencies>  (1) 
[-0.20862068965517241]

>  <Interactions>  (1) 
["V-B:PRO:540:N:9855, V-B:TYR:539:CD2:9845, V-B:TYR:539:C:9838, V-B:TYR:539:CE2:9847, V-B:GLU:543:CD:9879, V-A:ASP:366:CG:3212, V-A:ASP:366:CB:3211, V-B:GLU:543:CG:9878, V-A:TYR:484:CZ:4346, V-A:ARG:545:CZ:4925, V-A:ARG:545:CD:4922, V-A:TYR:484:CE2:4345, H-A:GLY:454:N:4049, V-B:ALA:541:CB:9863, V-A:ARG:545:CG:4921, V-A:ILE:369:CD1:3238, V-A:LEU:475:CD2:4258, V-A:LEU:475:CD1:4257, V-B:PRO:540:CA:9854, H-A:TYR:484:OH:4347, H-B:ALA:541:N:9862, V-A:GLY:454:CA:4048, H-B:GLU:543:OE2:9881, H-B:GLU:543:OE1:9880"]

$$$$
1i_Grossjean_2025
     RDKit          3D

 32 33  0  0  0  0  0  0  0  0999 V2000
  130.4240  117.1040   60.8760 C   0  0  0  0  0  0  0  0  0  0  0  0
  131.0200  118.4800   61.1030 C   0  0  0  0  0  0  0  0  0  0  0  0
  132.3610  118.7470   60.8380 C   0  0  0  0  0  0  0  0  0  0  0  0
  132.8540  120.0390   61.0580 C   0  0  0  0  0  0  0  0  0  0  0  0
  134.3240  120.3110   60.7440 C   0  0  0  0  0  0  0  0  0  0  0  0
  131.9810  121.0370   61.5490 C   0  0  0  0  0  0  0  0  0  0  0  0
  132.4630  122.4080   61.7380 C   0  0  0  0  0  0  0  0  0  0  0  0
  132.8460  123.4900   61.8850 N   0  0  0  0  0  0  0  0  0  0  0  0
  130.6410  120.6700   61.8130 C   0  0  0  0  0  0  0  0  0  0  0  0
  129.4100  121.7960   62.4320 S   0  0  0  0  0  0  0  0  0  0  0  0
  129.2220  123.1310   61.2130 C   0  0  0  0  0  0  0  0  0  0  0  0
  127.9820  122.9400   60.3370 C   0  0  0  0  0  0  0  0  0  0  0  0
  126.8750  122.8540   60.8690 O   0  0  0  0  0  0  0  0  0  0  0  0
  128.2120  122.8830   59.0060 N   0  0  0  0  0  0  0  0  0  0  0  0
  127.2750  122.7120   57.9980 C   0  0  0  0  0  0  0  0  0  0  0  0
  126.1660  123.5420   57.8410 C   0  0  0  0  0  0  0  0  0  0  0  0
  125.4990  123.0450   56.7450 C   0  0  0  0  0  0  0  0  0  0  0  0
  126.1700  121.9700   56.2680 O   0  0  0  0  0  0  0  0  0  0  0  0
  127.2930  121.7680   57.0710 N   0  0  0  0  0  0  0  0  0  0  0  0
  130.1680  119.4200   61.5770 N   0  0  0  0  0  0  0  0  0  0  0  0
  130.2182  116.6289   61.8465 H   0  0  0  0  0  0  0  0  0  0  0  0
  129.4866  117.1995   60.3084 H   0  0  0  0  0  0  0  0  0  0  0  0
  131.1349  116.4856   60.3084 H   0  0  0  0  0  0  0  0  0  0  0  0
  133.0236  117.9540   60.4611 H   0  0  0  0  0  0  0  0  0  0  0  0
  134.8865  120.4151   61.6836 H   0  0  0  0  0  0  0  0  0  0  0  0
  134.7355  119.4737   60.1612 H   0  0  0  0  0  0  0  0  0  0  0  0
  134.4086  121.2400   60.1612 H   0  0  0  0  0  0  0  0  0  0  0  0
  129.1352  124.0890   61.7466 H   0  0  0  0  0  0  0  0  0  0  0  0
  130.1052  123.1180   60.5574 H   0  0  0  0  0  0  0  0  0  0  0  0
  129.1740  122.9360   58.7000 H   0  0  0  0  0  0  0  0  0  0  0  0
  125.8850  124.4071   58.4595 H   0  0  0  0  0  0  0  0  0  0  0  0
  124.5694  123.4553   56.3237 H   0  0  0  0  0  0  0  0  0  0  0  0
  1  2  1  0
  2  3  2  0
  3  4  1  0
  4  5  1  0
  4  6  2  0
  6  7  1  0
  7  8  3  0
  6  9  1  0
  9 10  1  0
 10 11  1  0
 11 12  1  0
 12 13  2  0
 12 14  1  0
 14 15  1  0
 15 16  1  0
 16 17  2  0
 17 18  1  0
 18 19  1  0
  9 20  2  0
 20  2  1  0
 19 15  2  0
  1 21  1  0
  1 22  1  0
  1 23  1  0
  3 24  1  0
  5 25  1  0
  5 26  1  0
  5 27  1  0
 11 28  1  0
 11 29  1  0
 14 30  1  0
 16 31  1  0
 17 32  1  0
M  END
>  <Binding energies>  (1) 
[-7.23]

>  <Ligand effiencies>  (1) 
[-0.3442857142857143]

>  <Interactions>  (1) 
["V-B:PRO:540:N:9855, V-B:TYR:531:CE2:9764, H-B:TYR:539:N:9841, V-B:LEU:363:CD1:8159, V-B:TYR:539:CD2:9845, V-B:TYR:539:C:9838, V-B:PRO:540:CB:9856, V-B:TYR:539:CE2:9847, V-A:ILE:369:CG2:3236, V-A:SER:385:CA:3406, V-A:SER:385:CB:3408, V-B:ALA:541:CB:9863, V-A:ILE:369:CD1:3238, V-A:LEU:475:CD2:4258, V-A:HIS:383:CE1:3393, V-A:PRO:482:CG:4326, V-B:PRO:540:CA:9854, H-B:ALA:541:N:9862, V-A:PRO:482:CB:4325, H-B:TYR:539:O:9839, V-B:VAL:344:CG1:7971, V-A:SER:385:C:3404"]

$$$$
1j_Grossjean_2025
     RDKit          3D

 32 33  0  0  0  0  0  0  0  0999 V2000
  124.5770  123.4890   63.3490 C   0  0  0  0  0  0  0  0  0  0  0  0
  125.1020  123.5260   61.9250 C   0  0  0  0  0  0  0  0  0  0  0  0
  124.2730  123.8390   60.8500 C   0  0  0  0  0  0  0  0  0  0  0  0
  124.8150  123.8710   59.5620 C   0  0  0  0  0  0  0  0  0  0  0  0
  123.8890  124.2340   58.4010 C   0  0  0  0  0  0  0  0  0  0  0  0
  126.1850  123.5770   59.3810 C   0  0  0  0  0  0  0  0  0  0  0  0
  126.7850  123.6560   58.0460 C   0  0  0  0  0  0  0  0  0  0  0  0
  127.2560  123.7210   56.9910 N   0  0  0  0  0  0  0  0  0  0  0  0
  126.9460  123.2440   60.5260 C   0  0  0  0  0  0  0  0  0  0  0  0
  128.6790  122.8450   60.4830 S   0  0  0  0  0  0  0  0  0  0  0  0
  129.2260  122.5710   62.1940 C   0  0  0  0  0  0  0  0  0  0  0  0
  130.2250  121.4170   62.3000 C   0  0  0  0  0  0  0  0  0  0  0  0
  131.1950  121.5240   63.0520 O   0  0  0  0  0  0  0  0  0  0  0  0
  129.9520  120.3380   61.5340 N   0  0  0  0  0  0  0  0  0  0  0  0
  130.7010  119.1730   61.4470 C   0  0  0  0  0  0  0  0  0  0  0  0
  130.3550  117.9600   61.8230 N   0  0  0  0  0  0  0  0  0  0  0  0
  131.3170  117.0890   61.5900 C   0  0  0  0  0  0  0  0  0  0  0  0
  132.4770  117.5920   61.0090 C   0  0  0  0  0  0  0  0  0  0  0  0
  132.2870  119.3020   60.7570 S   0  0  0  0  0  0  0  0  0  0  0  0
  126.4160  123.2370   61.7750 N   0  0  0  0  0  0  0  0  0  0  0  0
  125.4206  123.5485   64.0525 H   0  0  0  0  0  0  0  0  0  0  0  0
  123.9019  124.3418   63.5132 H   0  0  0  0  0  0  0  0  0  0  0  0
  124.0282  122.5499   63.5132 H   0  0  0  0  0  0  0  0  0  0  0  0
  123.2073  124.0578   61.0125 H   0  0  0  0  0  0  0  0  0  0  0  0
  122.9336  124.6085   58.7973 H   0  0  0  0  0  0  0  0  0  0  0  0
  124.3613  125.0135   57.7852 H   0  0  0  0  0  0  0  0  0  0  0  0
  123.7057  123.3411   57.7852 H   0  0  0  0  0  0  0  0  0  0  0  0
  129.7041  123.4895   62.5651 H   0  0  0  0  0  0  0  0  0  0  0  0
  128.3422  122.3108   62.7951 H   0  0  0  0  0  0  0  0  0  0  0  0
  129.1380  120.3810   60.9390 H   0  0  0  0  0  0  0  0  0  0  0  0
  131.2086  116.0235   61.8410 H   0  0  0  0  0  0  0  0  0  0  0  0
  133.3696  117.0033   60.7509 H   0  0  0  0  0  0  0  0  0  0  0  0
  1  2  1  0
  2  3  2  0
  3  4  1  0
  4  5  1  0
  4  6  2  0
  6  7  1  0
  7  8  3  0
  6  9  1  0
  9 10  1  0
 10 11  1  0
 11 12  1  0
 12 13  2  0
 12 14  1  0
 14 15  1  0
 15 16  2  0
 16 17  1  0
 17 18  2  0
 18 19  1  0
  9 20  2  0
 20  2  1  0
 19 15  1  0
  1 21  1  0
  1 22  1  0
  1 23  1  0
  3 24  1  0
  5 25  1  0
  5 26  1  0
  5 27  1  0
 11 28  1  0
 11 29  1  0
 14 30  1  0
 17 31  1  0
 18 32  1  0
M  END
>  <Binding energies>  (1) 
[-7.18]

>  <Ligand effiencies>  (1) 
[-0.3419047619047619]

>  <Interactions>  (1) 
["V-B:PRO:540:N:9855, V-B:LEU:363:CD1:8159, V-B:TYR:539:CD2:9845, V-B:ASP:366:CG:8183, V-B:TYR:539:C:9838, V-B:PRO:540:CB:9856, V-B:ASP:366:CB:8182, V-B:GLU:543:CD:9879, H-B:TYR:531:OH:9766, V-B:GLU:543:CG:9878, V-B:ARG:545:CZ:9897, V-A:SER:385:CA:3406, V-B:ALA:541:C:9859, V-A:SER:385:CB:3408, V-B:ALA:541:CB:9863, V-A:LEU:475:CD2:4258, V-A:HIS:383:CE1:3393, V-A:PRO:482:CG:4326, V-B:PRO:540:CA:9854, H-B:ALA:541:N:9862, V-B:LEU:363:CA:8155, V-B:ASN:362:CB:8146, V-A:PRO:482:CB:4325, V-B:ASN:362:CG:8147, H-B:TYR:539:O:9839, V-B:PRO:540:C:9852"]

$$$$
1k_Grossjean_2025
     RDKit          3D

 50 50  0  0  0  0  0  0  0  0999 V2000
  131.3450  117.4440   59.9090 C   0  0  0  0  0  0  0  0  0  0  0  0
  132.6940  117.5060   59.4750 O   0  0  0  0  0  0  0  0  0  0  0  0
  133.2610  118.8060   59.5720 C   0  0  0  0  0  0  0  0  0  0  0  0
  132.6410  119.5480   60.7630 C   0  0  0  0  0  0  0  0  0  0  0  0
  133.5040  120.6050   61.1640 O   0  0  0  0  0  0  0  0  0  0  0  0
  132.8720  121.8770   61.2000 C   0  0  0  0  0  0  0  0  0  0  0  0
  133.7960  122.8860   61.8930 C   0  0  0  0  0  0  0  0  0  0  0  0
  133.0670  124.0700   62.1920 O   0  0  0  0  0  0  0  0  0  0  0  0
  133.5410  124.7570   63.3430 C   0  0  0  0  0  0  0  0  0  0  0  0
  132.5110  124.6290   64.4810 C   0  0  0  0  0  0  0  0  0  0  0  0
  131.2410  124.0270   64.0700 N   0  0  0  0  0  0  0  0  0  0  0  0
  130.2170  123.7420   64.8930 C   0  0  0  0  0  0  0  0  0  0  0  0
  130.2430  123.9710   66.1040 O   0  0  0  0  0  0  0  0  0  0  0  0
  128.9910  123.0990   64.2260 C   0  0  0  0  0  0  0  0  0  0  0  0
  129.1090  122.8590   62.4190 S   0  0  0  0  0  0  0  0  0  0  0  0
  127.5350  123.2540   61.6710 C   0  0  0  0  0  0  0  0  0  0  0  0
  126.4580  123.2170   62.4990 N   0  0  0  0  0  0  0  0  0  0  0  0
  125.2350  123.4960   61.9940 C   0  0  0  0  0  0  0  0  0  0  0  0
  124.0840  123.4260   62.9780 C   0  0  0  0  0  0  0  0  0  0  0  0
  125.0320  123.8290   60.6560 C   0  0  0  0  0  0  0  0  0  0  0  0
  126.1330  123.8770   59.7940 C   0  0  0  0  0  0  0  0  0  0  0  0
  125.8890  124.2440   58.3320 C   0  0  0  0  0  0  0  0  0  0  0  0
  127.4190  123.5850   60.3010 C   0  0  0  0  0  0  0  0  0  0  0  0
  128.5900  123.6240   59.4200 C   0  0  0  0  0  0  0  0  0  0  0  0
  129.5140  123.6550   58.7240 N   0  0  0  0  0  0  0  0  0  0  0  0
  131.3133  117.4425   61.0085 H   0  0  0  0  0  0  0  0  0  0  0  0
  130.7966  118.3179   59.5275 H   0  0  0  0  0  0  0  0  0  0  0  0
  130.8790  116.5235   59.5275 H   0  0  0  0  0  0  0  0  0  0  0  0
  134.3480  118.7217   59.7183 H   0  0  0  0  0  0  0  0  0  0  0  0
  133.0573  119.3644   58.6464 H   0  0  0  0  0  0  0  0  0  0  0  0
  131.6654  119.9626   60.4692 H   0  0  0  0  0  0  0  0  0  0  0  0
  132.5046  118.8481   61.6005 H   0  0  0  0  0  0  0  0  0  0  0  0
  132.6657  122.2134   60.1732 H   0  0  0  0  0  0  0  0  0  0  0  0
  131.9267  121.8017   61.7574 H   0  0  0  0  0  0  0  0  0  0  0  0
  134.1829  122.4486   62.8252 H   0  0  0  0  0  0  0  0  0  0  0  0
  134.6359  123.1315   61.2264 H   0  0  0  0  0  0  0  0  0  0  0  0
  134.4973  124.3180   63.6635 H   0  0  0  0  0  0  0  0  0  0  0  0
  133.6871  125.8198   63.1000 H   0  0  0  0  0  0  0  0  0  0  0  0
  132.9483  124.0057   65.2749 H   0  0  0  0  0  0  0  0  0  0  0  0
  132.2838  125.6502   64.8210 H   0  0  0  0  0  0  0  0  0  0  0  0
  131.1480  123.8100   63.0890 H   0  0  0  0  0  0  0  0  0  0  0  0
  128.8323  122.1136   64.6884 H   0  0  0  0  0  0  0  0  0  0  0  0
  128.1604  123.8031   64.3819 H   0  0  0  0  0  0  0  0  0  0  0  0
  124.4776  123.4499   64.0049 H   0  0  0  0  0  0  0  0  0  0  0  0
  123.4151  124.2851   62.8216 H   0  0  0  0  0  0  0  0  0  0  0  0
  123.5241  122.4921   62.8216 H   0  0  0  0  0  0  0  0  0  0  0  0
  124.0212  124.0508   60.2832 H   0  0  0  0  0  0  0  0  0  0  0  0
  125.2807  125.1590   58.2803 H   0  0  0  0  0  0  0  0  0  0  0  0
  126.8532  124.4159   57.8313 H   0  0  0  0  0  0  0  0  0  0  0  0
  125.3574  123.4214   57.8313 H   0  0  0  0  0  0  0  0  0  0  0  0
  1  2  1  0
  2  3  1  0
  3  4  1  0
  4  5  1  0
  5  6  1  0
  6  7  1  0
  7  8  1  0
  8  9  1  0
  9 10  1  0
 10 11  1  0
 11 12  1  0
 12 13  2  0
 12 14  1  0
 14 15  1  0
 15 16  1  0
 16 17  2  0
 17 18  1  0
 18 19  1  0
 18 20  2  0
 20 21  1  0
 21 22  1  0
 21 23  2  0
 23 24  1  0
 24 25  3  0
 23 16  1  0
  1 26  1  0
  1 27  1  0
  1 28  1  0
  3 29  1  0
  3 30  1  0
  4 31  1  0
  4 32  1  0
  6 33  1  0
  6 34  1  0
  7 35  1  0
  7 36  1  0
  9 37  1  0
  9 38  1  0
 10 39  1  0
 10 40  1  0
 11 41  1  0
 14 42  1  0
 14 43  1  0
 19 44  1  0
 19 45  1  0
 19 46  1  0
 20 47  1  0
 22 48  1  0
 22 49  1  0
 22 50  1  0
M  END
>  <Binding energies>  (1) 
[-5.58]

>  <Ligand effiencies>  (1) 
[-0.21461538461538462]

>  <Interactions>  (1) 
["V-B:TYR:539:CD2:9845, V-B:PRO:540:CB:9856, V-B:TYR:539:CE2:9847, V-B:GLU:543:CD:9879, V-A:ASP:366:CG:3212, V-B:GLU:543:CG:9878, V-B:ARG:545:CZ:9897, V-A:VAL:384:C:3396, V-A:ILE:369:CG2:3236, V-A:SER:385:CA:3406, V-B:ALA:541:CB:9863, V-A:ILE:369:CD1:3238, V-A:HIS:383:CE1:3393, V-B:PRO:540:CA:9854, V-B:TYR:539:CB:9842, H-A:TYR:484:OH:4347, H-B:ALA:541:N:9862, V-B:ASN:362:CB:8146, V-B:ASN:362:CG:8147, V-A:LEU:373:CD2:3280, H-A:HIS:383:ND1:3390"]

$$$$
1l_Grossjean_2025
     RDKit          3D

 30 30  0  0  0  0  0  0  0  0999 V2000
  131.8070  117.9080   59.9260 C   0  0  0  0  0  0  0  0  0  0  0  0
  131.4920  118.4660   61.1940 O   0  0  0  0  0  0  0  0  0  0  0  0
  130.6220  119.5430   61.0360 N   0  0  0  0  0  0  0  0  0  0  0  0
  130.8790  120.6920   61.6900 C   0  0  0  0  0  0  0  0  0  0  0  0
  131.9530  120.9370   62.2450 O   0  0  0  0  0  0  0  0  0  0  0  0
  129.7310  121.7120   61.6920 C   0  0  0  0  0  0  0  0  0  0  0  0
  129.2340  122.3170   60.0440 S   0  0  0  0  0  0  0  0  0  0  0  0
  127.5600  122.9250   60.1570 C   0  0  0  0  0  0  0  0  0  0  0  0
  127.1120  123.1920   61.4120 N   0  0  0  0  0  0  0  0  0  0  0  0
  125.8500  123.6550   61.5700 C   0  0  0  0  0  0  0  0  0  0  0  0
  125.4240  123.9290   63.0000 C   0  0  0  0  0  0  0  0  0  0  0  0
  124.9880  123.8720   60.4980 C   0  0  0  0  0  0  0  0  0  0  0  0
  125.4380  123.6030   59.2010 C   0  0  0  0  0  0  0  0  0  0  0  0
  124.4760  123.8500   58.0390 C   0  0  0  0  0  0  0  0  0  0  0  0
  126.7510  123.1180   59.0130 C   0  0  0  0  0  0  0  0  0  0  0  0
  127.2490  122.8270   57.6640 C   0  0  0  0  0  0  0  0  0  0  0  0
  127.6400  122.5980   56.6000 N   0  0  0  0  0  0  0  0  0  0  0  0
  132.3433  116.9579   60.0665 H   0  0  0  0  0  0  0  0  0  0  0  0
  130.8787  117.7255   59.3649 H   0  0  0  0  0  0  0  0  0  0  0  0
  132.4429  118.6085   59.3649 H   0  0  0  0  0  0  0  0  0  0  0  0
  129.6950  119.2490   60.7600 H   0  0  0  0  0  0  0  0  0  0  0  0
  128.8552  121.2391   62.1603 H   0  0  0  0  0  0  0  0  0  0  0  0
  130.1004  122.5895   62.2430 H   0  0  0  0  0  0  0  0  0  0  0  0
  126.1432  123.4664   63.6919 H   0  0  0  0  0  0  0  0  0  0  0  0
  125.3958  125.0150   63.1725 H   0  0  0  0  0  0  0  0  0  0  0  0
  124.4241  123.5043   63.1725 H   0  0  0  0  0  0  0  0  0  0  0  0
  123.9688  124.2492   60.6685 H   0  0  0  0  0  0  0  0  0  0  0  0
  123.4817  124.1053   58.4341 H   0  0  0  0  0  0  0  0  0  0  0  0
  124.8504  124.6811   57.4234 H   0  0  0  0  0  0  0  0  0  0  0  0
  124.4037  122.9413   57.4234 H   0  0  0  0  0  0  0  0  0  0  0  0
  1  2  1  0
  2  3  1  0
  3  4  1  0
  4  5  2  0
  4  6  1  0
  6  7  1  0
  7  8  1  0
  8  9  2  0
  9 10  1  0
 10 11  1  0
 10 12  2  0
 12 13  1  0
 13 14  1  0
 13 15  2  0
 15 16  1  0
 16 17  3  0
 15  8  1  0
  1 18  1  0
  1 19  1  0
  1 20  1  0
  3 21  1  0
  6 22  1  0
  6 23  1  0
 11 24  1  0
 11 25  1  0
 11 26  1  0
 12 27  1  0
 14 28  1  0
 14 29  1  0
 14 30  1  0
M  END
>  <Binding energies>  (1) 
[-5.92]

>  <Ligand effiencies>  (1) 
[-0.3288888888888889]

>  <Interactions>  (1) 
["V-B:PRO:540:N:9855, H-B:TYR:539:N:9841, V-B:LEU:363:CD1:8159, V-B:MET:535:CE:9806, V-B:TYR:539:CD2:9845, V-B:TYR:539:C:9838, V-B:PRO:540:CB:9856, V-B:GLU:543:CD:9879, V-B:TYR:539:CG:9843, V-B:GLU:543:CG:9878, V-B:ALA:541:CB:9863, V-A:LEU:475:CD2:4258, V-A:HIS:383:CE1:3393, V-B:PRO:540:CA:9854, V-B:TYR:539:CB:9842, H-B:ALA:541:N:9862, H-B:TYR:539:O:9839"]

$$$$
1m_Grossjean_2025
     RDKit          3D

 35 35  0  0  0  0  0  0  0  0999 V2000
  124.6150  123.6300   56.9110 C   0  0  0  0  0  0  0  0  0  0  0  0
  125.7770  123.1240   56.2700 O   0  0  0  0  0  0  0  0  0  0  0  0
  126.8170  122.6670   56.9980 C   0  0  0  0  0  0  0  0  0  0  0  0
  127.7890  122.0490   56.5510 O   0  0  0  0  0  0  0  0  0  0  0  0
  126.6620  123.0210   58.4910 C   0  0  0  0  0  0  0  0  0  0  0  0
  127.9390  122.9930   59.2200 N   0  0  0  0  0  0  0  0  0  0  0  0
  128.0810  122.8590   60.5520 C   0  0  0  0  0  0  0  0  0  0  0  0
  127.1240  122.7590   61.3230 O   0  0  0  0  0  0  0  0  0  0  0  0
  129.5270  122.8470   61.0650 C   0  0  0  0  0  0  0  0  0  0  0  0
  129.8850  121.5560   62.3060 S   0  0  0  0  0  0  0  0  0  0  0  0
  130.8260  120.2730   61.5090 C   0  0  0  0  0  0  0  0  0  0  0  0
  130.1570  119.0970   61.4010 N   0  0  0  0  0  0  0  0  0  0  0  0
  130.7720  118.0490   60.8050 C   0  0  0  0  0  0  0  0  0  0  0  0
  129.9560  116.7750   60.7040 C   0  0  0  0  0  0  0  0  0  0  0  0
  132.0720  118.1240   60.3080 C   0  0  0  0  0  0  0  0  0  0  0  0
  132.7810  119.3230   60.4380 C   0  0  0  0  0  0  0  0  0  0  0  0
  134.2090  119.3770   59.9000 C   0  0  0  0  0  0  0  0  0  0  0  0
  132.1580  120.4310   61.0570 C   0  0  0  0  0  0  0  0  0  0  0  0
  132.9000  121.6800   61.2480 C   0  0  0  0  0  0  0  0  0  0  0  0
  133.4850  122.6670   61.3970 N   0  0  0  0  0  0  0  0  0  0  0  0
  124.7442  123.5738   58.0019 H   0  0  0  0  0  0  0  0  0  0  0  0
  124.4590  124.6775   56.6138 H   0  0  0  0  0  0  0  0  0  0  0  0
  123.7419  123.0306   56.6138 H   0  0  0  0  0  0  0  0  0  0  0  0
  126.2346  124.0315   58.5699 H   0  0  0  0  0  0  0  0  0  0  0  0
  126.0058  122.2633   58.9441 H   0  0  0  0  0  0  0  0  0  0  0  0
  128.7720  123.0970   58.6580 H   0  0  0  0  0  0  0  0  0  0  0  0
  130.1945  122.6901   60.2049 H   0  0  0  0  0  0  0  0  0  0  0  0
  129.6871  123.8130   61.5662 H   0  0  0  0  0  0  0  0  0  0  0  0
  129.7214  116.4088   61.7144 H   0  0  0  0  0  0  0  0  0  0  0  0
  129.0210  116.9804   60.1622 H   0  0  0  0  0  0  0  0  0  0  0  0
  130.5336  116.0116   60.1622 H   0  0  0  0  0  0  0  0  0  0  0  0
  132.5339  117.2528   59.8205 H   0  0  0  0  0  0  0  0  0  0  0  0
  134.9171  119.4038   60.7414 H   0  0  0  0  0  0  0  0  0  0  0  0
  134.4033  118.4856   59.2855 H   0  0  0  0  0  0  0  0  0  0  0  0
  134.3354  120.2806   59.2855 H   0  0  0  0  0  0  0  0  0  0  0  0
  1  2  1  0
  2  3  1  0
  3  4  2  0
  3  5  1  0
  5  6  1  0
  6  7  1  0
  7  8  2  0
  7  9  1  0
  9 10  1  0
 10 11  1  0
 11 12  2  0
 12 13  1  0
 13 14  1  0
 13 15  2  0
 15 16  1  0
 16 17  1  0
 16 18  2  0
 18 19  1  0
 19 20  3  0
 18 11  1  0
  1 21  1  0
  1 22  1  0
  1 23  1  0
  5 24  1  0
  5 25  1  0
  6 26  1  0
  9 27  1  0
  9 28  1  0
 14 29  1  0
 14 30  1  0
 14 31  1  0
 15 32  1  0
 17 33  1  0
 17 34  1  0
 17 35  1  0
M  END
>  <Binding energies>  (1) 
[-6.94]

>  <Ligand effiencies>  (1) 
[-0.3304761904761905]

>  <Interactions>  (1) 
["V-B:PRO:540:N:9855, V-B:TYR:531:CE2:9764, H-B:TYR:539:N:9841, V-B:LEU:363:CD1:8159, V-B:MET:535:CE:9806, V-B:TYR:539:CD2:9845, V-B:TYR:539:C:9838, V-B:PRO:540:CB:9856, V-B:TYR:539:CE2:9847, H-B:TYR:531:OH:9766, V-A:VAL:384:C:3396, V-A:ILE:369:CG2:3236, V-A:SER:385:CA:3406, V-B:ALA:541:CB:9863, V-A:LEU:475:CD2:4258, V-A:HIS:383:CE1:3393, V-A:PRO:482:CG:4326, V-B:PRO:540:CA:9854, V-B:TYR:539:CB:9842, H-B:ALA:541:N:9862, V-A:PRO:482:CB:4325, V-B:VAL:344:CG1:7971, V-A:SER:385:C:3404, V-B:TYR:531:CZ:9765"]

$$$$
1n_Grossjean_2025
     RDKit          3D

 48 49  0  0  0  0  0  0  0  0999 V2000
  124.6600  125.9250   58.1440 C   0  0  0  0  0  0  0  0  0  0  0  0
  124.7730  124.4090   57.9580 C   0  0  0  0  0  0  0  0  0  0  0  0
  125.6710  124.1290   56.8910 O   0  0  0  0  0  0  0  0  0  0  0  0
  126.4650  123.0280   56.9140 C   0  0  0  0  0  0  0  0  0  0  0  0
  126.2080  121.9910   56.2960 O   0  0  0  0  0  0  0  0  0  0  0  0
  127.6970  123.2030   57.7550 C   0  0  0  0  0  0  0  0  0  0  0  0
  127.9680  122.3750   58.8560 C   0  0  0  0  0  0  0  0  0  0  0  0
  129.1170  122.5660   59.6170 C   0  0  0  0  0  0  0  0  0  0  0  0
  130.0130  123.5880   59.3020 C   0  0  0  0  0  0  0  0  0  0  0  0
  131.1390  123.6950   60.1420 N   0  0  0  0  0  0  0  0  0  0  0  0
  132.4180  124.0020   59.8360 C   0  0  0  0  0  0  0  0  0  0  0  0
  132.8400  124.2620   58.7080 O   0  0  0  0  0  0  0  0  0  0  0  0
  133.3970  124.0200   61.0170 C   0  0  0  0  0  0  0  0  0  0  0  0
  133.7150  122.6110   61.5630 C   0  0  0  0  0  0  0  0  0  0  0  0
  132.9900  122.2520   63.1910 S   0  0  0  0  0  0  0  0  0  0  0  0
  131.6130  123.3560   63.4240 C   0  0  0  0  0  0  0  0  0  0  0  0
  130.4310  122.8470   62.9960 N   0  0  0  0  0  0  0  0  0  0  0  0
  129.3110  123.5940   63.1390 C   0  0  0  0  0  0  0  0  0  0  0  0
  128.0260  122.9560   62.6480 C   0  0  0  0  0  0  0  0  0  0  0  0
  129.3240  124.8680   63.7030 C   0  0  0  0  0  0  0  0  0  0  0  0
  130.5420  125.4100   64.1280 C   0  0  0  0  0  0  0  0  0  0  0  0
  130.5340  126.8140   64.7300 C   0  0  0  0  0  0  0  0  0  0  0  0
  131.7250  124.6500   63.9840 C   0  0  0  0  0  0  0  0  0  0  0  0
  133.0170  125.2180   64.3750 C   0  0  0  0  0  0  0  0  0  0  0  0
  134.0370  125.6690   64.6840 N   0  0  0  0  0  0  0  0  0  0  0  0
  129.7540  124.4130   58.1980 C   0  0  0  0  0  0  0  0  0  0  0  0
  128.6060  124.2190   57.4360 C   0  0  0  0  0  0  0  0  0  0  0  0
  124.6423  126.1623   59.2179 H   0  0  0  0  0  0  0  0  0  0  0  0
  125.5239  126.4175   57.6738 H   0  0  0  0  0  0  0  0  0  0  0  0
  123.7326  126.2840   57.6738 H   0  0  0  0  0  0  0  0  0  0  0  0
  125.1509  123.9528   58.8849 H   0  0  0  0  0  0  0  0  0  0  0  0
  123.7822  123.9931   57.7228 H   0  0  0  0  0  0  0  0  0  0  0  0
  127.2667  121.5693   59.1189 H   0  0  0  0  0  0  0  0  0  0  0  0
  129.3205  121.9063   60.4734 H   0  0  0  0  0  0  0  0  0  0  0  0
  130.9380  123.5550   61.1210 H   0  0  0  0  0  0  0  0  0  0  0  0
  134.3362  124.4871   60.6858 H   0  0  0  0  0  0  0  0  0  0  0  0
  132.9191  124.5862   61.8300 H   0  0  0  0  0  0  0  0  0  0  0  0
  133.3324  121.8701   60.8456 H   0  0  0  0  0  0  0  0  0  0  0  0
  134.8067  122.5635   61.6894 H   0  0  0  0  0  0  0  0  0  0  0  0
  127.4145  122.6524   63.5105 H   0  0  0  0  0  0  0  0  0  0  0  0
  127.4663  123.6808   62.0387 H   0  0  0  0  0  0  0  0  0  0  0  0
  128.2651  122.0719   62.0387 H   0  0  0  0  0  0  0  0  0  0  0  0
  128.3904  125.4393   63.8126 H   0  0  0  0  0  0  0  0  0  0  0  0
  130.5344  126.7423   65.8277 H   0  0  0  0  0  0  0  0  0  0  0  0
  131.4290  127.3605   64.3979 H   0  0  0  0  0  0  0  0  0  0  0  0
  129.6328  127.3502   64.3979 H   0  0  0  0  0  0  0  0  0  0  0  0
  130.4594  125.2147   57.9340 H   0  0  0  0  0  0  0  0  0  0  0  0
  128.4103  124.8718   56.5725 H   0  0  0  0  0  0  0  0  0  0  0  0
  1  2  1  0
  2  3  1  0
  3  4  1  0
  4  5  2  0
  4  6  1  0
  6  7  2  0
  7  8  1  0
  8  9  2  0
  9 10  1  0
 10 11  1  0
 11 12  2  0
 11 13  1  0
 13 14  1  0
 14 15  1  0
 15 16  1  0
 16 17  2  0
 17 18  1  0
 18 19  1  0
 18 20  2  0
 20 21  1  0
 21 22  1  0
 21 23  2  0
 23 24  1  0
 24 25  3  0
  9 26  1  0
 26 27  2  0
 27  6  1  0
 23 16  1  0
  1 28  1  0
  1 29  1  0
  1 30  1  0
  2 31  1  0
  2 32  1  0
  7 33  1  0
  8 34  1  0
 10 35  1  0
 13 36  1  0
 13 37  1  0
 14 38  1  0
 14 39  1  0
 19 40  1  0
 19 41  1  0
 19 42  1  0
 20 43  1  0
 22 44  1  0
 22 45  1  0
 22 46  1  0
 26 47  1  0
 27 48  1  0
M  END
>  <Binding energies>  (1) 
[-7.3]

>  <Ligand effiencies>  (1) 
[-0.26071428571428573]

>  <Interactions>  (1) 
["V-B:PRO:540:N:9855, H-B:TYR:539:N:9841, V-B:MET:535:CE:9806, V-B:TYR:539:CD2:9845, V-B:ASP:366:CG:8183, V-B:TYR:539:CZ:9848, V-B:TYR:539:C:9838, V-A:GLU:543:CD:4907, V-B:TYR:539:CE2:9847, V-B:ASP:366:CB:8182, V-B:GLU:543:CD:9879, V-B:TYR:539:CG:9843, V-A:ASP:366:CG:3212, H-B:TYR:531:OH:9766, H-A:ARG:545:NE:4923, V-A:ILE:369:CG2:3236, V-A:ARG:545:CZ:4925, H-A:ARG:545:NH1:4926, H-A:GLY:454:N:4049, V-B:ALA:541:CB:9863, H-A:ARG:545:NH2:4927, V-A:ILE:369:CD1:3238, V-B:ALA:541:CA:9861, H-B:TYR:539:OH:9849, V-B:PRO:540:CA:9854, V-B:TYR:531:CZ:9765"]

$$$$
1o_Grossjean_2025
     RDKit          3D

 45 46  0  0  0  0  0  0  0  0999 V2000
  129.9930  116.8020   60.6890 C   0  0  0  0  0  0  0  0  0  0  0  0
  130.6540  117.5400   59.6700 O   0  0  0  0  0  0  0  0  0  0  0  0
  131.9690  117.8610   59.7810 C   0  0  0  0  0  0  0  0  0  0  0  0
  132.8800  117.1660   59.3210 O   0  0  0  0  0  0  0  0  0  0  0  0
  132.2060  119.1490   60.5150 C   0  0  0  0  0  0  0  0  0  0  0  0
  131.1850  119.7970   61.2260 C   0  0  0  0  0  0  0  0  0  0  0  0
  131.4390  120.9900   61.8990 C   0  0  0  0  0  0  0  0  0  0  0  0
  132.7120  121.5610   61.8710 C   0  0  0  0  0  0  0  0  0  0  0  0
  132.8600  122.7620   62.5920 N   0  0  0  0  0  0  0  0  0  0  0  0
  132.8600  122.9760   63.9260 C   0  0  0  0  0  0  0  0  0  0  0  0
  132.7690  122.1000   64.7860 O   0  0  0  0  0  0  0  0  0  0  0  0
  133.0190  124.4410   64.3610 C   0  0  0  0  0  0  0  0  0  0  0  0
  131.7660  125.2970   64.0900 C   0  0  0  0  0  0  0  0  0  0  0  0
  130.2650  124.3260   63.7650 S   0  0  0  0  0  0  0  0  0  0  0  0
  130.0970  124.1190   62.0030 C   0  0  0  0  0  0  0  0  0  0  0  0
  131.2040  124.4850   61.3090 N   0  0  0  0  0  0  0  0  0  0  0  0
  131.1970  124.3640   59.9610 C   0  0  0  0  0  0  0  0  0  0  0  0
  132.4740  124.7790   59.2550 C   0  0  0  0  0  0  0  0  0  0  0  0
  130.0930  123.8900   59.2550 C   0  0  0  0  0  0  0  0  0  0  0  0
  128.9380  123.5340   59.9580 C   0  0  0  0  0  0  0  0  0  0  0  0
  127.7360  123.0310   59.1600 C   0  0  0  0  0  0  0  0  0  0  0  0
  128.9200  123.6560   61.3660 C   0  0  0  0  0  0  0  0  0  0  0  0
  127.7000  123.3450   62.1140 C   0  0  0  0  0  0  0  0  0  0  0  0
  126.7350  123.0970   62.7030 N   0  0  0  0  0  0  0  0  0  0  0  0
  133.7390  120.9160   61.1650 C   0  0  0  0  0  0  0  0  0  0  0  0
  133.4830  119.7230   60.4940 C   0  0  0  0  0  0  0  0  0  0  0  0
  130.3186  117.1655   61.6748 H   0  0  0  0  0  0  0  0  0  0  0  0
  128.9054  116.9339   60.5904 H   0  0  0  0  0  0  0  0  0  0  0  0
  130.2434  115.7354   60.5904 H   0  0  0  0  0  0  0  0  0  0  0  0
  130.1760  119.3597   61.2523 H   0  0  0  0  0  0  0  0  0  0  0  0
  130.6304  121.4854   62.4564 H   0  0  0  0  0  0  0  0  0  0  0  0
  133.0110  123.5750   62.0130 H   0  0  0  0  0  0  0  0  0  0  0  0
  133.2306  124.4637   65.4402 H   0  0  0  0  0  0  0  0  0  0  0  0
  133.8407  124.8695   63.7683 H   0  0  0  0  0  0  0  0  0  0  0  0
  131.5837  125.9319   64.9696 H   0  0  0  0  0  0  0  0  0  0  0  0
  131.9702  125.8819   63.1810 H   0  0  0  0  0  0  0  0  0  0  0  0
  133.2417  125.0285   60.0023 H   0  0  0  0  0  0  0  0  0  0  0  0
  132.8307  123.9505   58.6254 H   0  0  0  0  0  0  0  0  0  0  0  0
  132.2756  125.6589   58.6254 H   0  0  0  0  0  0  0  0  0  0  0  0
  130.1297  123.7972   58.1595 H   0  0  0  0  0  0  0  0  0  0  0  0
  126.9479  122.7012   59.8529 H   0  0  0  0  0  0  0  0  0  0  0  0
  127.3507  123.8434   58.5263 H   0  0  0  0  0  0  0  0  0  0  0  0
  128.0441  122.1863   58.5263 H   0  0  0  0  0  0  0  0  0  0  0  0
  134.7480  121.3535   61.1416 H   0  0  0  0  0  0  0  0  0  0  0  0
  134.2935  119.2257   59.9410 H   0  0  0  0  0  0  0  0  0  0  0  0
  1  2  1  0
  2  3  1  0
  3  4  2  0
  3  5  1  0
  5  6  2  0
  6  7  1  0
  7  8  2  0
  8  9  1  0
  9 10  1  0
 10 11  2  0
 10 12  1  0
 12 13  1  0
 13 14  1  0
 14 15  1  0
 15 16  2  0
 16 17  1  0
 17 18  1  0
 17 19  2  0
 19 20  1  0
 20 21  1  0
 20 22  2  0
 22 23  1  0
 23 24  3  0
  8 25  1  0
 25 26  2  0
 26  5  1  0
 22 15  1  0
  1 27  1  0
  1 28  1  0
  1 29  1  0
  6 30  1  0
  7 31  1  0
  9 32  1  0
 12 33  1  0
 12 34  1  0
 13 35  1  0
 13 36  1  0
 18 37  1  0
 18 38  1  0
 18 39  1  0
 19 40  1  0
 21 41  1  0
 21 42  1  0
 21 43  1  0
 25 44  1  0
 26 45  1  0
M  END
>  <Binding energies>  (1) 
[-6.63]

>  <Ligand effiencies>  (1) 
[-0.24555555555555555]

>  <Interactions>  (1) 
["V-B:PRO:540:N:9855, V-B:TYR:539:CD2:9845, V-B:TYR:539:CZ:9848, V-B:TYR:539:C:9838, V-B:TYR:539:CE2:9847, V-B:TYR:539:CG:9843, V-A:ASP:366:CG:3212, V-A:ASP:366:CB:3211, V-A:ILE:369:CG2:3236, V-A:SER:385:CA:3406, V-A:SER:385:CB:3408, H-A:GLY:454:N:4049, V-A:ILE:369:CD1:3238, V-A:LEU:475:CD2:4258, V-A:HIS:383:CE1:3393, V-A:PRO:482:CG:4326, V-B:PRO:540:CA:9854, V-B:TYR:539:CB:9842, H-A:TYR:484:OH:4347, H-B:ALA:541:N:9862, V-A:PRO:482:CB:4325, V-A:GLY:454:CA:4048, V-B:VAL:344:CG1:7971, V-A:SER:385:C:3404, H-A:HIS:383:ND1:3390"]

$$$$
1p_Grossjean_2025
     RDKit          3D

 35 36  0  0  0  0  0  0  0  0999 V2000
  124.6280  123.5000   63.2500 C   0  0  0  0  0  0  0  0  0  0  0  0
  125.4050  123.4960   61.9470 C   0  0  0  0  0  0  0  0  0  0  0  0
  124.8040  123.8480   60.7390 C   0  0  0  0  0  0  0  0  0  0  0  0
  125.5660  123.8140   59.5660 C   0  0  0  0  0  0  0  0  0  0  0  0
  124.8830  124.1890   58.2520 C   0  0  0  0  0  0  0  0  0  0  0  0
  126.9250  123.4320   59.6350 C   0  0  0  0  0  0  0  0  0  0  0  0
  127.7290  123.3420   58.4160 C   0  0  0  0  0  0  0  0  0  0  0  0
  128.3650  123.2710   57.4510 N   0  0  0  0  0  0  0  0  0  0  0  0
  127.4570  123.1130   60.9080 C   0  0  0  0  0  0  0  0  0  0  0  0
  129.1460  122.6250   61.1730 S   0  0  0  0  0  0  0  0  0  0  0  0
  129.3270  122.3040   62.9520 C   0  0  0  0  0  0  0  0  0  0  0  0
  128.9570  123.5070   63.8410 C   0  0  0  0  0  0  0  0  0  0  0  0
  130.0780  123.9260   64.8040 C   0  0  0  0  0  0  0  0  0  0  0  0
  129.9880  123.6460   66.0010 O   0  0  0  0  0  0  0  0  0  0  0  0
  131.1190  124.5800   64.2400 N   0  0  0  0  0  0  0  0  0  0  0  0
  132.2530  125.0650   64.8790 C   0  0  0  0  0  0  0  0  0  0  0  0
  132.2000  125.8890   66.0030 C   0  0  0  0  0  0  0  0  0  0  0  0
  133.5150  126.1410   66.3240 C   0  0  0  0  0  0  0  0  0  0  0  0
  134.3170  125.5040   65.4390 O   0  0  0  0  0  0  0  0  0  0  0  0
  133.5050  124.8260   64.5270 N   0  0  0  0  0  0  0  0  0  0  0  0
  126.7050  123.1300   62.0370 N   0  0  0  0  0  0  0  0  0  0  0  0
  125.3309  123.4964   64.0961 H   0  0  0  0  0  0  0  0  0  0  0  0
  123.9995  124.4014   63.2993 H   0  0  0  0  0  0  0  0  0  0  0  0
  123.9902  122.6051   63.2993 H   0  0  0  0  0  0  0  0  0  0  0  0
  123.7462  124.1481   60.7087 H   0  0  0  0  0  0  0  0  0  0  0  0
  123.9371  124.7083   58.4656 H   0  0  0  0  0  0  0  0  0  0  0  0
  125.5423  124.8516   57.6721 H   0  0  0  0  0  0  0  0  0  0  0  0
  124.6778  123.2771   57.6721 H   0  0  0  0  0  0  0  0  0  0  0  0
  128.6742  121.4604   63.2205 H   0  0  0  0  0  0  0  0  0  0  0  0
  130.3902  122.0870   63.1322 H   0  0  0  0  0  0  0  0  0  0  0  0
  128.7203  124.3613   63.1897 H   0  0  0  0  0  0  0  0  0  0  0  0
  128.0987  123.2015   64.4575 H   0  0  0  0  0  0  0  0  0  0  0  0
  131.0740  124.7510   63.2460 H   0  0  0  0  0  0  0  0  0  0  0  0
  131.3022  126.2577   66.5208 H   0  0  0  0  0  0  0  0  0  0  0  0
  133.8588  126.7609   67.1652 H   0  0  0  0  0  0  0  0  0  0  0  0
  1  2  1  0
  2  3  2  0
  3  4  1  0
  4  5  1  0
  4  6  2  0
  6  7  1  0
  7  8  3  0
  6  9  1  0
  9 10  1  0
 10 11  1  0
 11 12  1  0
 12 13  1  0
 13 14  2  0
 13 15  1  0
 15 16  1  0
 16 17  1  0
 17 18  2  0
 18 19  1  0
 19 20  1  0
  9 21  2  0
 21  2  1  0
 20 16  2  0
  1 22  1  0
  1 23  1  0
  1 24  1  0
  3 25  1  0
  5 26  1  0
  5 27  1  0
  5 28  1  0
 11 29  1  0
 11 30  1  0
 12 31  1  0
 12 32  1  0
 15 33  1  0
 17 34  1  0
 18 35  1  0
M  END
>  <Binding energies>  (1) 
[-7.36]

>  <Ligand effiencies>  (1) 
[-0.33454545454545453]

>  <Interactions>  (1) 
["V-B:PRO:540:N:9855, V-B:PRO:540:CB:9856, V-B:GLU:543:CD:9879, V-B:GLU:543:CG:9878, V-B:ARG:545:CZ:9897, H-A:ARG:545:NE:4923, V-A:ARG:545:CZ:4925, V-B:ALA:541:C:9859, H-A:ARG:545:NH1:4926, V-A:ARG:545:CD:4922, H-A:GLY:454:N:4049, V-B:ALA:541:CB:9863, V-A:ARG:545:CG:4921, V-B:PRO:540:CA:9854, H-A:TYR:484:OH:4347, H-B:ALA:541:N:9862, V-B:ASN:362:CB:8146, V-B:PRO:540:C:9852"]

$$$$
1q_Grossjean_2025
     RDKit          3D

 38 38  0  0  0  0  0  0  0  0999 V2000
  134.2810  125.7360   67.7140 C   0  0  0  0  0  0  0  0  0  0  0  0
  133.0930  126.0540   67.0020 O   0  0  0  0  0  0  0  0  0  0  0  0
  132.9940  125.7920   65.6760 C   0  0  0  0  0  0  0  0  0  0  0  0
  133.9140  125.4070   64.9520 O   0  0  0  0  0  0  0  0  0  0  0  0
  131.5900  126.0470   65.0880 C   0  0  0  0  0  0  0  0  0  0  0  0
  130.7570  124.8350   65.0430 N   0  0  0  0  0  0  0  0  0  0  0  0
  131.1850  123.5930   64.7480 C   0  0  0  0  0  0  0  0  0  0  0  0
  132.3590  123.3320   64.4770 O   0  0  0  0  0  0  0  0  0  0  0  0
  130.1190  122.4890   64.7810 C   0  0  0  0  0  0  0  0  0  0  0  0
  128.8130  122.8460   64.0450 C   0  0  0  0  0  0  0  0  0  0  0  0
  128.9070  122.6210   62.2440 S   0  0  0  0  0  0  0  0  0  0  0  0
  130.2280  121.4820   61.8830 C   0  0  0  0  0  0  0  0  0  0  0  0
  129.8200  120.1890   61.8110 N   0  0  0  0  0  0  0  0  0  0  0  0
  130.7360  119.2300   61.5440 C   0  0  0  0  0  0  0  0  0  0  0  0
  130.2070  117.8080   61.4960 C   0  0  0  0  0  0  0  0  0  0  0  0
  132.0820  119.5150   61.3290 C   0  0  0  0  0  0  0  0  0  0  0  0
  132.5100  120.8450   61.3760 C   0  0  0  0  0  0  0  0  0  0  0  0
  133.9890  121.1340   61.1190 C   0  0  0  0  0  0  0  0  0  0  0  0
  131.5710  121.8650   61.6500 C   0  0  0  0  0  0  0  0  0  0  0  0
  131.9910  123.2680   61.6470 C   0  0  0  0  0  0  0  0  0  0  0  0
  132.3260  124.3760   61.6430 N   0  0  0  0  0  0  0  0  0  0  0  0
  134.0856  125.7883   68.7952 H   0  0  0  0  0  0  0  0  0  0  0  0
  134.6063  124.7192   67.4489 H   0  0  0  0  0  0  0  0  0  0  0  0
  135.0707  126.4544   67.4489 H   0  0  0  0  0  0  0  0  0  0  0  0
  131.0813  126.7992   65.7088 H   0  0  0  0  0  0  0  0  0  0  0  0
  131.7247  126.3925   64.0524 H   0  0  0  0  0  0  0  0  0  0  0  0
  129.7730  124.9680   65.2290 H   0  0  0  0  0  0  0  0  0  0  0  0
  130.5422  121.5875   64.3140 H   0  0  0  0  0  0  0  0  0  0  0  0
  129.8539  122.3388   65.8379 H   0  0  0  0  0  0  0  0  0  0  0  0
  128.0083  122.2047   64.4339 H   0  0  0  0  0  0  0  0  0  0  0  0
  128.6222  123.9139   64.2268 H   0  0  0  0  0  0  0  0  0  0  0  0
  130.0678  117.4338   62.5210 H   0  0  0  0  0  0  0  0  0  0  0  0
  129.2432  117.7930   60.9661 H   0  0  0  0  0  0  0  0  0  0  0  0
  130.9267  117.1667   60.9661 H   0  0  0  0  0  0  0  0  0  0  0  0
  132.7981  118.7053   61.1251 H   0  0  0  0  0  0  0  0  0  0  0  0
  134.5148  121.2368   62.0797 H   0  0  0  0  0  0  0  0  0  0  0  0
  134.4304  120.3051   60.5462 H   0  0  0  0  0  0  0  0  0  0  0  0
  134.0859  122.0681   60.5462 H   0  0  0  0  0  0  0  0  0  0  0  0
  1  2  1  0
  2  3  1  0
  3  4  2  0
  3  5  1  0
  5  6  1  0
  6  7  1  0
  7  8  2  0
  7  9  1  0
  9 10  1  0
 10 11  1  0
 11 12  1  0
 12 13  2  0
 13 14  1  0
 14 15  1  0
 14 16  2  0
 16 17  1  0
 17 18  1  0
 17 19  2  0
 19 20  1  0
 20 21  3  0
 19 12  1  0
  1 22  1  0
  1 23  1  0
  1 24  1  0
  5 25  1  0
  5 26  1  0
  6 27  1  0
  9 28  1  0
  9 29  1  0
 10 30  1  0
 10 31  1  0
 15 32  1  0
 15 33  1  0
 15 34  1  0
 16 35  1  0
 18 36  1  0
 18 37  1  0
 18 38  1  0
M  END
>  <Binding energies>  (1) 
[-5.79]

>  <Ligand effiencies>  (1) 
[-0.2631818181818182]

>  <Interactions>  (1) 
["V-B:TYR:539:CD2:9845, V-A:HIS:456:CE1:4069, V-B:GLU:543:CD:9879, V-B:GLU:543:CG:9878, V-A:TYR:484:CZ:4346, H-A:ARG:545:NE:4923, V-A:ILE:369:CG2:3236, V-A:ARG:545:CZ:4925, V-A:SER:385:CA:3406, H-A:ARG:545:NH1:4926, V-A:ARG:545:CD:4922, H-A:GLY:454:N:4049, V-B:ALA:541:CB:9863, H-A:ARG:545:NH2:4927, V-A:ARG:545:CG:4921, V-A:ILE:369:CD1:3238, V-A:LEU:475:CD2:4258, V-A:LEU:475:CD1:4257, V-A:PRO:482:CG:4326, H-A:TYR:484:OH:4347, H-B:ALA:541:N:9862, V-A:PRO:482:CB:4325, V-A:ARG:545:CB:4920, V-A:SER:385:C:3404, V-A:ILE:455:C:4051, H-B:GLU:543:OE2:9881"]

$$$$
2a_Ghoteimi_2023
     RDKit          3D

 85 90  0  0  0  0  0  0  0  0999 V2000
  133.2460  131.7850   58.7160 C   0  0  0  0  0  0  0  0  0  0  0  0
  132.8560  130.6480   59.6640 C   0  0  0  0  0  0  0  0  0  0  0  0
  133.1970  131.0070   60.9970 O   0  0  0  0  0  0  0  0  0  0  0  0
  132.5190  131.9820   61.6560 C   0  0  0  0  0  0  0  0  0  0  0  0
  133.0710  132.8510   62.3380 O   0  0  0  0  0  0  0  0  0  0  0  0
  131.0310  131.9020   61.4670 C   0  0  0  0  0  0  0  0  0  0  0  0
  130.2930  130.7740   61.8560 C   0  0  0  0  0  0  0  0  0  0  0  0
  128.9150  130.7330   61.6680 C   0  0  0  0  0  0  0  0  0  0  0  0
  128.2450  131.8150   61.0930 C   0  0  0  0  0  0  0  0  0  0  0  0
  126.8530  131.6630   60.9460 N   0  0  0  0  0  0  0  0  0  0  0  0
  125.9660  132.4260   60.2700 C   0  0  0  0  0  0  0  0  0  0  0  0
  126.2390  133.4680   59.6720 O   0  0  0  0  0  0  0  0  0  0  0  0
  124.5150  131.9320   60.3140 C   0  0  0  0  0  0  0  0  0  0  0  0
  123.8740  131.6260   61.9920 S   0  0  0  0  0  0  0  0  0  0  0  0
  124.8240  130.2640   62.6270 C   0  0  0  0  0  0  0  0  0  0  0  0
  125.0260  129.2710   61.7300 N   0  0  0  0  0  0  0  0  0  0  0  0
  125.7300  128.1720   62.1000 C   0  0  0  0  0  0  0  0  0  0  0  0
  125.9040  127.1120   61.0600 C   0  0  0  0  0  0  0  0  0  0  0  0
  125.8380  127.4160   59.6950 C   0  0  0  0  0  0  0  0  0  0  0  0
  125.9890  126.4230   58.7320 C   0  0  0  0  0  0  0  0  0  0  0  0
  126.2210  125.0890   59.0960 C   0  0  0  0  0  0  0  0  0  0  0  0
  126.3420  124.0970   58.1170 N   0  0  0  0  0  0  0  0  0  0  0  0
  125.1580  123.3870   57.5900 C   0  0  0  0  0  0  0  0  0  0  0  0
  125.4300  122.6060   56.2870 C   0  0  0  0  0  0  0  0  0  0  0  0
  126.5160  121.7130   56.4730 O   0  0  0  0  0  0  0  0  0  0  0  0
  127.7040  122.4080   56.8160 C   0  0  0  0  0  0  0  0  0  0  0  0
  127.5040  123.1840   58.1340 C   0  0  0  0  0  0  0  0  0  0  0  0
  126.2750  124.7870   60.4660 C   0  0  0  0  0  0  0  0  0  0  0  0
  126.1260  125.7800   61.4290 C   0  0  0  0  0  0  0  0  0  0  0  0
  126.2620  128.0530   63.3860 C   0  0  0  0  0  0  0  0  0  0  0  0
  126.0660  129.0690   64.3320 C   0  0  0  0  0  0  0  0  0  0  0  0
  126.6580  128.8750   65.6900 C   0  0  0  0  0  0  0  0  0  0  0  0
  128.0430  128.9230   65.8670 C   0  0  0  0  0  0  0  0  0  0  0  0
  128.6050  128.7230   67.1250 C   0  0  0  0  0  0  0  0  0  0  0  0
  127.7980  128.4730   68.2450 C   0  0  0  0  0  0  0  0  0  0  0  0
  128.3420  128.2510   69.5130 N   0  0  0  0  0  0  0  0  0  0  0  0
  129.6300  128.8810   69.8670 C   0  0  0  0  0  0  0  0  0  0  0  0
  129.9130  128.8800   71.3840 C   0  0  0  0  0  0  0  0  0  0  0  0
  129.8430  127.5570   71.8910 O   0  0  0  0  0  0  0  0  0  0  0  0
  128.5620  126.9820   71.6840 C   0  0  0  0  0  0  0  0  0  0  0  0
  128.2410  126.9370   70.1760 C   0  0  0  0  0  0  0  0  0  0  0  0
  126.4090  128.4140   68.0570 C   0  0  0  0  0  0  0  0  0  0  0  0
  125.8470  128.6120   66.7980 C   0  0  0  0  0  0  0  0  0  0  0  0
  125.3300  130.2150   63.9450 C   0  0  0  0  0  0  0  0  0  0  0  0
  125.1400  131.3350   64.8720 C   0  0  0  0  0  0  0  0  0  0  0  0
  124.9900  132.2170   65.6070 N   0  0  0  0  0  0  0  0  0  0  0  0
  128.9780  132.9420   60.6940 C   0  0  0  0  0  0  0  0  0  0  0  0
  130.3570  132.9830   60.8840 C   0  0  0  0  0  0  0  0  0  0  0  0
  133.5478  132.6648   59.3033 H   0  0  0  0  0  0  0  0  0  0  0  0
  134.0848  131.4622   58.0818 H   0  0  0  0  0  0  0  0  0  0  0  0
  132.3857  132.0450   58.0818 H   0  0  0  0  0  0  0  0  0  0  0  0
  131.7725  130.4700   59.5975 H   0  0  0  0  0  0  0  0  0  0  0  0
  133.3951  129.7320   59.3807 H   0  0  0  0  0  0  0  0  0  0  0  0
  130.8075  129.9158   62.3129 H   0  0  0  0  0  0  0  0  0  0  0  0
  128.3488  129.8412   61.9747 H   0  0  0  0  0  0  0  0  0  0  0  0
  126.4700  130.8760   61.4470 H   0  0  0  0  0  0  0  0  0  0  0  0
  123.8786  132.6911   59.8358 H   0  0  0  0  0  0  0  0  0  0  0  0
  124.4968  130.9650   59.7900 H   0  0  0  0  0  0  0  0  0  0  0  0
  125.6642  128.4552   59.3791 H   0  0  0  0  0  0  0  0  0  0  0  0
  125.9252  126.6892   57.6666 H   0  0  0  0  0  0  0  0  0  0  0  0
  124.8109  122.6763   58.3545 H   0  0  0  0  0  0  0  0  0  0  0  0
  124.4039  124.1522   57.3538 H   0  0  0  0  0  0  0  0  0  0  0  0
  124.5317  122.0342   56.0110 H   0  0  0  0  0  0  0  0  0  0  0  0
  125.6811  123.3171   55.4862 H   0  0  0  0  0  0  0  0  0  0  0  0
  128.5246  121.6861   56.9401 H   0  0  0  0  0  0  0  0  0  0  0  0
  127.9486  123.1195   56.0135 H   0  0  0  0  0  0  0  0  0  0  0  0
  127.3619  122.4566   58.9468 H   0  0  0  0  0  0  0  0  0  0  0  0
  128.3992  123.8067   58.2787 H   0  0  0  0  0  0  0  0  0  0  0  0
  126.4380  123.7466   60.7837 H   0  0  0  0  0  0  0  0  0  0  0  0
  126.1834  125.5148   62.4950 H   0  0  0  0  0  0  0  0  0  0  0  0
  126.8384  127.1565   63.6582 H   0  0  0  0  0  0  0  0  0  0  0  0
  128.6958  129.1207   65.0040 H   0  0  0  0  0  0  0  0  0  0  0  0
  129.6980  128.7616   67.2425 H   0  0  0  0  0  0  0  0  0  0  0  0
  130.4379  128.3324   69.3607 H   0  0  0  0  0  0  0  0  0  0  0  0
  129.5781  129.9318   69.5458 H   0  0  0  0  0  0  0  0  0  0  0  0
  130.9183  129.2873   71.5670 H   0  0  0  0  0  0  0  0  0  0  0  0
  129.1601  129.5009   71.8916 H   0  0  0  0  0  0  0  0  0  0  0  0
  128.5520  125.9594   72.0892 H   0  0  0  0  0  0  0  0  0  0  0  0
  127.8047  127.5938   72.1961 H   0  0  0  0  0  0  0  0  0  0  0  0
  128.9466  126.2469   69.6903 H   0  0  0  0  0  0  0  0  0  0  0  0
  127.1971  126.6044   70.0774 H   0  0  0  0  0  0  0  0  0  0  0  0
  125.7541  128.2083   68.9165 H   0  0  0  0  0  0  0  0  0  0  0  0
  124.7552  128.5610   66.6744 H   0  0  0  0  0  0  0  0  0  0  0  0
  128.4625  133.7957   60.2298 H   0  0  0  0  0  0  0  0  0  0  0  0
  130.9230  133.8735   60.5731 H   0  0  0  0  0  0  0  0  0  0  0  0
  1  2  1  0
  2  3  1  0
  3  4  1  0
  4  5  2  0
  4  6  1  0
  6  7  2  0
  7  8  1  0
  8  9  2  0
  9 10  1  0
 10 11  1  0
 11 12  2  0
 11 13  1  0
 13 14  1  0
 14 15  1  0
 15 16  2  0
 16 17  1  0
 17 18  1  0
 18 19  2  0
 19 20  1  0
 20 21  2  0
 21 22  1  0
 22 23  1  0
 23 24  1  0
 24 25  1  0
 25 26  1  0
 26 27  1  0
 21 28  1  0
 28 29  2  0
 17 30  2  0
 30 31  1  0
 31 32  1  0
 32 33  2  0
 33 34  1  0
 34 35  2  0
 35 36  1  0
 36 37  1  0
 37 38  1  0
 38 39  1  0
 39 40  1  0
 40 41  1  0
 35 42  1  0
 42 43  2  0
 31 44  2  0
 44 45  1  0
 45 46  3  0
  9 47  1  0
 47 48  2  0
 48  6  1  0
 44 15  1  0
 29 18  1  0
 43 32  1  0
 27 22  1  0
 41 36  1  0
  1 49  1  0
  1 50  1  0
  1 51  1  0
  2 52  1  0
  2 53  1  0
  7 54  1  0
  8 55  1  0
 10 56  1  0
 13 57  1  0
 13 58  1  0
 19 59  1  0
 20 60  1  0
 23 61  1  0
 23 62  1  0
 24 63  1  0
 24 64  1  0
 26 65  1  0
 26 66  1  0
 27 67  1  0
 27 68  1  0
 28 69  1  0
 29 70  1  0
 30 71  1  0
 33 72  1  0
 34 73  1  0
 37 74  1  0
 37 75  1  0
 38 76  1  0
 38 77  1  0
 40 78  1  0
 40 79  1  0
 41 80  1  0
 41 81  1  0
 42 82  1  0
 43 83  1  0
 47 84  1  0
 48 85  1  0
M  END
>  <Binding energies>  (1) 
[-10.52]

>  <Ligand effiencies>  (1) 
[-0.2146938775510204]

>  <Interactions>  (1) 
["V-B:PRO:540:CD:9858, V-B:GLU:543:CB:9877, V-B:PRO:540:N:9855, H-B:TYR:484:OH:9318, V-A:GLU:543:CB:4905, V-B:TYR:531:CE2:9764, H-B:TYR:539:N:9841, H-B:GLY:454:N:9020, V-B:LEU:363:CD1:8159, V-B:ILE:369:CG2:8207, V-A:PRO:540:CA:4882, V-B:MET:535:CE:9806, V-B:TYR:539:CD2:9845, V-B:GLY:454:CA:9019, V-A:PRO:540:CB:4884, V-B:ASP:366:CG:8183, V-B:TYR:539:CZ:9848, V-B:HIS:456:CE1:9040, V-A:HIS:456:CE1:4069, V-B:TYR:539:C:9838, V-B:TYR:539:CE1:9846, V-B:TYR:539:CD1:9844, V-A:PRO:540:C:4880, V-A:GLU:543:CD:4907, V-A:GLU:543:CG:4906, V-B:PRO:540:CB:9856, V-B:TYR:539:CE2:9847, V-A:ASN:362:CB:3175, V-B:ASP:366:CB:8182, V-B:GLU:543:CD:9879, V-B:TYR:539:CG:9843, V-A:ASP:366:CG:3212, V-A:ASP:366:CB:3211, H-A:ALA:541:N:4890, H-B:ARG:545:NH2:9899, H-A:ARG:545:NH2:4927, V-B:PRO:540:CA:9854, V-B:TYR:539:CA:9840, V-A:TYR:539:C:4866, V-A:GLU:543:C:4901, V-A:PRO:540:N:4883, V-A:LEU:363:CD1:3188, V-A:LEU:363:CA:3184, H-A:HIS:456:ND1:4066"]

$$$$
2a_Grossjean_2025
     RDKit          3D

 45 46  0  0  0  0  0  0  0  0999 V2000
  124.7100  123.9970   59.2110 C   0  0  0  0  0  0  0  0  0  0  0  0
  124.4520  124.0250   57.7010 C   0  0  0  0  0  0  0  0  0  0  0  0
  125.6960  124.0890   57.0130 O   0  0  0  0  0  0  0  0  0  0  0  0
  126.5350  123.0220   56.9820 C   0  0  0  0  0  0  0  0  0  0  0  0
  126.3160  122.0030   56.3210 O   0  0  0  0  0  0  0  0  0  0  0  0
  127.7690  123.2170   57.8170 C   0  0  0  0  0  0  0  0  0  0  0  0
  128.7410  124.1750   57.4920 C   0  0  0  0  0  0  0  0  0  0  0  0
  129.8740  124.3280   58.2850 C   0  0  0  0  0  0  0  0  0  0  0  0
  130.0640  123.5270   59.4120 C   0  0  0  0  0  0  0  0  0  0  0  0
  131.2500  123.7590   60.1310 N   0  0  0  0  0  0  0  0  0  0  0  0
  132.4990  124.0180   59.6860 C   0  0  0  0  0  0  0  0  0  0  0  0
  132.8390  124.0730   58.5040 O   0  0  0  0  0  0  0  0  0  0  0  0
  133.5520  124.2530   60.7740 C   0  0  0  0  0  0  0  0  0  0  0  0
  133.8410  122.7920   61.8260 S   0  0  0  0  0  0  0  0  0  0  0  0
  132.3540  121.7990   61.9030 C   0  0  0  0  0  0  0  0  0  0  0  0
  131.2910  122.3780   62.5160 N   0  0  0  0  0  0  0  0  0  0  0  0
  130.1370  121.6810   62.6200 C   0  0  0  0  0  0  0  0  0  0  0  0
  129.0030  122.3840   63.3420 C   0  0  0  0  0  0  0  0  0  0  0  0
  129.9910  120.3910   62.1170 C   0  0  0  0  0  0  0  0  0  0  0  0
  131.0750  119.7760   61.4710 C   0  0  0  0  0  0  0  0  0  0  0  0
  130.8960  118.3490   60.9180 C   0  0  0  0  0  0  0  0  0  0  0  0
  131.7440  117.5150   61.5210 F   0  0  0  0  0  0  0  0  0  0  0  0
  129.6480  117.9300   61.1340 F   0  0  0  0  0  0  0  0  0  0  0  0
  131.1240  118.2740   59.6050 F   0  0  0  0  0  0  0  0  0  0  0  0
  132.2910  120.4960   61.3580 C   0  0  0  0  0  0  0  0  0  0  0  0
  133.4570  119.8990   60.6960 C   0  0  0  0  0  0  0  0  0  0  0  0
  134.3760  119.4290   60.1730 N   0  0  0  0  0  0  0  0  0  0  0  0
  129.0930  122.5720   59.7470 C   0  0  0  0  0  0  0  0  0  0  0  0
  127.9580  122.4230   58.9550 C   0  0  0  0  0  0  0  0  0  0  0  0
  123.7556  124.1006   59.7480 H   0  0  0  0  0  0  0  0  0  0  0  0
  125.1829  123.0423   59.4845 H   0  0  0  0  0  0  0  0  0  0  0  0
  125.3767  124.8281   59.4845 H   0  0  0  0  0  0  0  0  0  0  0  0
  123.9137  123.1131   57.4031 H   0  0  0  0  0  0  0  0  0  0  0  0
  123.8444  124.9061   57.4470 H   0  0  0  0  0  0  0  0  0  0  0  0
  128.6064  124.8098   56.6038 H   0  0  0  0  0  0  0  0  0  0  0  0
  130.6260  125.0864   58.0216 H   0  0  0  0  0  0  0  0  0  0  0  0
  131.1270  123.7760   61.1320 H   0  0  0  0  0  0  0  0  0  0  0  0
  134.5004  124.5268   60.2886 H   0  0  0  0  0  0  0  0  0  0  0  0
  133.1735  125.0541   61.4260 H   0  0  0  0  0  0  0  0  0  0  0  0
  129.1484  122.2938   64.4286 H   0  0  0  0  0  0  0  0  0  0  0  0
  128.9924  123.4473   63.0605 H   0  0  0  0  0  0  0  0  0  0  0  0
  128.0459  121.9206   63.0605 H   0  0  0  0  0  0  0  0  0  0  0  0
  129.0346  119.8584   62.2249 H   0  0  0  0  0  0  0  0  0  0  0  0
  129.2286  121.9398   60.6369 H   0  0  0  0  0  0  0  0  0  0  0  0
  127.2006  121.6728   59.2262 H   0  0  0  0  0  0  0  0  0  0  0  0
  1  2  1  0
  2  3  1  0
  3  4  1  0
  4  5  2  0
  4  6  1  0
  6  7  2  0
  7  8  1  0
  8  9  2  0
  9 10  1  0
 10 11  1  0
 11 12  2  0
 11 13  1  0
 13 14  1  0
 14 15  1  0
 15 16  2  0
 16 17  1  0
 17 18  1  0
 17 19  2  0
 19 20  1  0
 20 21  1  0
 21 22  1  0
 21 23  1  0
 21 24  1  0
 20 25  2  0
 25 26  1  0
 26 27  3  0
  9 28  1  0
 28 29  2  0
 29  6  1  0
 25 15  1  0
  1 30  1  0
  1 31  1  0
  1 32  1  0
  2 33  1  0
  2 34  1  0
  7 35  1  0
  8 36  1  0
 10 37  1  0
 13 38  1  0
 13 39  1  0
 18 40  1  0
 18 41  1  0
 18 42  1  0
 19 43  1  0
 28 44  1  0
 29 45  1  0
M  END
>  <Binding energies>  (1) 
[-7.43]

>  <Ligand effiencies>  (1) 
[-0.24766666666666665]

>  <Interactions>  (1) 
["V-B:PRO:540:N:9855, V-B:TYR:531:CE2:9764, H-B:TYR:539:N:9841, V-B:LEU:363:CD1:8159, V-B:MET:535:CE:9806, V-B:TYR:539:CD2:9845, V-B:TYR:539:CZ:9848, V-B:TYR:539:C:9838, V-B:PRO:540:CB:9856, V-B:TYR:539:CE2:9847, V-B:TYR:539:CG:9843, V-A:ASP:366:CG:3212, H-B:TYR:531:OH:9766, V-A:ILE:369:CG2:3236, V-A:SER:385:CA:3406, V-A:SER:385:CB:3408, V-B:ALA:541:CB:9863, V-A:ILE:369:CD1:3238, V-A:LEU:475:CD2:4258, V-B:ALA:541:CA:9861, V-A:HIS:383:CE1:3393, H-B:TYR:539:OH:9849, V-A:PRO:482:CG:4326, V-B:PRO:540:CA:9854, V-B:TYR:539:CB:9842, V-A:PRO:482:CB:4325, V-B:TYR:539:CA:9840, V-B:TYR:531:CZ:9765, H-A:SER:385:N:3407"]

$$$$
2aa_Ghoteimi_2023
     RDKit          3D

 85 90  0  0  0  0  0  0  0  0999 V2000
  132.9440  132.5240   62.4340 C   0  0  0  0  0  0  0  0  0  0  0  0
  133.5630  131.7760   61.2480 C   0  0  0  0  0  0  0  0  0  0  0  0
  132.8670  132.1230   60.0580 O   0  0  0  0  0  0  0  0  0  0  0  0
  132.1830  131.1890   59.3470 C   0  0  0  0  0  0  0  0  0  0  0  0
  132.7280  130.3680   58.6020 O   0  0  0  0  0  0  0  0  0  0  0  0
  130.6990  131.2440   59.5690 C   0  0  0  0  0  0  0  0  0  0  0  0
  130.1100  130.7830   60.7570 C   0  0  0  0  0  0  0  0  0  0  0  0
  128.7320  130.8520   60.9350 C   0  0  0  0  0  0  0  0  0  0  0  0
  127.9140  131.3720   59.9300 C   0  0  0  0  0  0  0  0  0  0  0  0
  126.5350  131.3970   60.2170 N   0  0  0  0  0  0  0  0  0  0  0  0
  125.7540  132.4210   60.6220 C   0  0  0  0  0  0  0  0  0  0  0  0
  126.1370  133.5810   60.7910 O   0  0  0  0  0  0  0  0  0  0  0  0
  124.2820  132.0510   60.8490 C   0  0  0  0  0  0  0  0  0  0  0  0
  124.1160  131.5290   62.1720 O   0  0  0  0  0  0  0  0  0  0  0  0
  124.8330  130.4100   62.5740 C   0  0  0  0  0  0  0  0  0  0  0  0
  125.0120  129.4060   61.6710 N   0  0  0  0  0  0  0  0  0  0  0  0
  125.7110  128.3000   62.0310 C   0  0  0  0  0  0  0  0  0  0  0  0
  125.8640  127.2370   60.9900 C   0  0  0  0  0  0  0  0  0  0  0  0
  125.6830  127.5330   59.6350 C   0  0  0  0  0  0  0  0  0  0  0  0
  125.8300  126.5490   58.6600 C   0  0  0  0  0  0  0  0  0  0  0  0
  126.1780  125.2330   59.0050 C   0  0  0  0  0  0  0  0  0  0  0  0
  126.3180  124.2290   58.0400 N   0  0  0  0  0  0  0  0  0  0  0  0
  127.5040  123.3490   58.0100 C   0  0  0  0  0  0  0  0  0  0  0  0
  127.6600  122.5580   56.6950 C   0  0  0  0  0  0  0  0  0  0  0  0
  126.4760  121.8230   56.4270 O   0  0  0  0  0  0  0  0  0  0  0  0
  125.3540  122.6800   56.2880 C   0  0  0  0  0  0  0  0  0  0  0  0
  125.1290  123.4750   57.5920 C   0  0  0  0  0  0  0  0  0  0  0  0
  126.3370  124.9370   60.3660 C   0  0  0  0  0  0  0  0  0  0  0  0
  126.1870  125.9210   61.3400 C   0  0  0  0  0  0  0  0  0  0  0  0
  126.2380  128.1650   63.3190 C   0  0  0  0  0  0  0  0  0  0  0  0
  126.0580  129.1780   64.2700 C   0  0  0  0  0  0  0  0  0  0  0  0
  126.6210  128.9660   65.6380 C   0  0  0  0  0  0  0  0  0  0  0  0
  127.9970  129.0660   65.8570 C   0  0  0  0  0  0  0  0  0  0  0  0
  128.5310  128.8490   67.1250 C   0  0  0  0  0  0  0  0  0  0  0  0
  127.7040  128.5130   68.2080 C   0  0  0  0  0  0  0  0  0  0  0  0
  128.2180  128.2950   69.4890 N   0  0  0  0  0  0  0  0  0  0  0  0
  129.5280  128.8380   69.8950 C   0  0  0  0  0  0  0  0  0  0  0  0
  129.7620  128.8030   71.4210 C   0  0  0  0  0  0  0  0  0  0  0  0
  129.5890  127.4810   71.9080 O   0  0  0  0  0  0  0  0  0  0  0  0
  128.2800  126.9970   71.6530 C   0  0  0  0  0  0  0  0  0  0  0  0
  128.0070  126.9830   70.1340 C   0  0  0  0  0  0  0  0  0  0  0  0
  126.3240  128.4220   67.9790 C   0  0  0  0  0  0  0  0  0  0  0  0
  125.7910  128.6380   66.7130 C   0  0  0  0  0  0  0  0  0  0  0  0
  125.3480  130.3380   63.8810 C   0  0  0  0  0  0  0  0  0  0  0  0
  125.1540  131.4680   64.7920 C   0  0  0  0  0  0  0  0  0  0  0  0
  125.0020  132.3610   65.5130 N   0  0  0  0  0  0  0  0  0  0  0  0
  128.4950  131.8410   58.7440 C   0  0  0  0  0  0  0  0  0  0  0  0
  129.8750  131.7750   58.5690 C   0  0  0  0  0  0  0  0  0  0  0  0
  133.3075  132.0847   63.3747 H   0  0  0  0  0  0  0  0  0  0  0  0
  133.2321  133.5847   62.3892 H   0  0  0  0  0  0  0  0  0  0  0  0
  131.8482  132.4395   62.3892 H   0  0  0  0  0  0  0  0  0  0  0  0
  134.6221  132.0564   61.1492 H   0  0  0  0  0  0  0  0  0  0  0  0
  133.4868  130.6916   61.4163 H   0  0  0  0  0  0  0  0  0  0  0  0
  130.7429  130.3640   61.5532 H   0  0  0  0  0  0  0  0  0  0  0  0
  128.2838  130.4945   61.8738 H   0  0  0  0  0  0  0  0  0  0  0  0
  126.0650  130.5180   60.0550 H   0  0  0  0  0  0  0  0  0  0  0  0
  123.6564  132.9477   60.7282 H   0  0  0  0  0  0  0  0  0  0  0  0
  123.9797  131.2892   60.1153 H   0  0  0  0  0  0  0  0  0  0  0  0
  125.4206  128.5582   59.3348 H   0  0  0  0  0  0  0  0  0  0  0  0
  125.6709  126.8070   57.6026 H   0  0  0  0  0  0  0  0  0  0  0  0
  128.4007  123.9708   58.1490 H   0  0  0  0  0  0  0  0  0  0  0  0
  127.3748  122.6101   58.8146 H   0  0  0  0  0  0  0  0  0  0  0  0
  127.8485  123.2590   55.8685 H   0  0  0  0  0  0  0  0  0  0  0  0
  128.5043  121.8596   56.7919 H   0  0  0  0  0  0  0  0  0  0  0  0
  125.5327  123.3820   55.4602 H   0  0  0  0  0  0  0  0  0  0  0  0
  124.4611  122.0729   56.0778 H   0  0  0  0  0  0  0  0  0  0  0  0
  124.3076  124.1877   57.4270 H   0  0  0  0  0  0  0  0  0  0  0  0
  124.8971  122.7426   58.3793 H   0  0  0  0  0  0  0  0  0  0  0  0
  126.5846  123.9093   60.6700 H   0  0  0  0  0  0  0  0  0  0  0  0
  126.3244  125.6601   62.3997 H   0  0  0  0  0  0  0  0  0  0  0  0
  126.7979  127.2570   63.5876 H   0  0  0  0  0  0  0  0  0  0  0  0
  128.6650  129.3185   65.0203 H   0  0  0  0  0  0  0  0  0  0  0  0
  129.6161  128.9423   67.2797 H   0  0  0  0  0  0  0  0  0  0  0  0
  130.3167  128.2458   69.4079 H   0  0  0  0  0  0  0  0  0  0  0  0
  129.5503  129.8940   69.5879 H   0  0  0  0  0  0  0  0  0  0  0  0
  130.7855  129.1412   71.6405 H   0  0  0  0  0  0  0  0  0  0  0  0
  129.0363  129.4672   71.9131 H   0  0  0  0  0  0  0  0  0  0  0  0
  128.1863  125.9751   72.0491 H   0  0  0  0  0  0  0  0  0  0  0  0
  127.5498  127.6569   72.1443 H   0  0  0  0  0  0  0  0  0  0  0  0
  128.6813  126.2512   69.6651 H   0  0  0  0  0  0  0  0  0  0  0  0
  126.9479  126.7195   69.9963 H   0  0  0  0  0  0  0  0  0  0  0  0
  125.6519  128.1757   68.8143 H   0  0  0  0  0  0  0  0  0  0  0  0
  124.7058  128.5498   66.5564 H   0  0  0  0  0  0  0  0  0  0  0  0
  127.8602  132.2618   57.9503 H   0  0  0  0  0  0  0  0  0  0  0  0
  130.3229  132.1442   57.6346 H   0  0  0  0  0  0  0  0  0  0  0  0
  1  2  1  0
  2  3  1  0
  3  4  1  0
  4  5  2  0
  4  6  1  0
  6  7  2  0
  7  8  1  0
  8  9  2  0
  9 10  1  0
 10 11  1  0
 11 12  2  0
 11 13  1  0
 13 14  1  0
 14 15  1  0
 15 16  2  0
 16 17  1  0
 17 18  1  0
 18 19  2  0
 19 20  1  0
 20 21  2  0
 21 22  1  0
 22 23  1  0
 23 24  1  0
 24 25  1  0
 25 26  1  0
 26 27  1  0
 21 28  1  0
 28 29  2  0
 17 30  2  0
 30 31  1  0
 31 32  1  0
 32 33  2  0
 33 34  1  0
 34 35  2  0
 35 36  1  0
 36 37  1  0
 37 38  1  0
 38 39  1  0
 39 40  1  0
 40 41  1  0
 35 42  1  0
 42 43  2  0
 31 44  2  0
 44 45  1  0
 45 46  3  0
  9 47  1  0
 47 48  2  0
 48  6  1  0
 44 15  1  0
 29 18  1  0
 43 32  1  0
 27 22  1  0
 41 36  1  0
  1 49  1  0
  1 50  1  0
  1 51  1  0
  2 52  1  0
  2 53  1  0
  7 54  1  0
  8 55  1  0
 10 56  1  0
 13 57  1  0
 13 58  1  0
 19 59  1  0
 20 60  1  0
 23 61  1  0
 23 62  1  0
 24 63  1  0
 24 64  1  0
 26 65  1  0
 26 66  1  0
 27 67  1  0
 27 68  1  0
 28 69  1  0
 29 70  1  0
 30 71  1  0
 33 72  1  0
 34 73  1  0
 37 74  1  0
 37 75  1  0
 38 76  1  0
 38 77  1  0
 40 78  1  0
 40 79  1  0
 41 80  1  0
 41 81  1  0
 42 82  1  0
 43 83  1  0
 47 84  1  0
 48 85  1  0
M  END
>  <Binding energies>  (1) 
[-9.22]

>  <Ligand effiencies>  (1) 
[-0.18816326530612246]

>  <Interactions>  (1) 
["V-A:TYR:539:CD1:4872, V-B:PRO:540:CD:9858, V-B:GLU:543:CB:9877, V-B:PRO:540:N:9855, H-B:TYR:484:OH:9318, V-A:GLU:543:CB:4905, V-B:TYR:531:CE2:9764, H-B:TYR:539:N:9841, H-B:GLY:454:N:9020, V-B:LEU:363:CD1:8159, V-B:ILE:369:CG2:8207, V-A:PRO:540:CA:4882, V-A:ASN:362:C:3171, V-B:MET:535:CE:9806, V-A:ALA:541:CA:4889, V-B:TYR:539:CD2:9845, V-B:GLY:454:CA:9019, V-A:PRO:540:CB:4884, V-A:ALA:541:C:4887, V-B:ASP:366:CG:8183, V-B:TYR:539:CZ:9848, V-B:HIS:456:CE1:9040, H-A:TYR:531:OH:4794, V-A:HIS:456:CE1:4069, V-B:TYR:539:C:9838, V-B:TYR:539:CE1:9846, V-B:TYR:539:CD1:9844, V-A:PRO:540:C:4880, V-A:GLU:543:CD:4907, V-A:GLU:543:CG:4906, V-B:PRO:540:CB:9856, V-A:TYR:539:CE1:4874, V-B:LEU:475:CD1:9228, V-B:TYR:539:CE2:9847, V-A:ASN:362:CB:3175, V-B:ASP:366:CB:8182, V-A:ASN:362:CA:3173, V-B:GLU:543:CD:9879, V-B:TYR:539:CG:9843"]

$$$$
2b_Ghoteimi_2023
     RDKit          3D

 72 77  0  0  0  0  0  0  0  0999 V2000
  128.2340  132.1900   65.7980 N   0  0  0  0  0  0  0  0  0  0  0  0
  128.0690  131.3300   65.0410 C   0  0  0  0  0  0  0  0  0  0  0  0
  127.8600  130.2370   64.0880 C   0  0  0  0  0  0  0  0  0  0  0  0
  127.7720  128.8960   64.5390 C   0  0  0  0  0  0  0  0  0  0  0  0
  127.8790  128.4930   65.9730 C   0  0  0  0  0  0  0  0  0  0  0  0
  126.7330  128.3980   66.7640 C   0  0  0  0  0  0  0  0  0  0  0  0
  126.8260  128.0230   68.1020 C   0  0  0  0  0  0  0  0  0  0  0  0
  128.0720  127.7510   68.6890 C   0  0  0  0  0  0  0  0  0  0  0  0
  128.1910  127.3620   70.0240 N   0  0  0  0  0  0  0  0  0  0  0  0
  129.0720  128.1330   70.9230 C   0  0  0  0  0  0  0  0  0  0  0  0
  129.4060  127.3930   72.2350 C   0  0  0  0  0  0  0  0  0  0  0  0
  128.2110  127.0090   72.8980 O   0  0  0  0  0  0  0  0  0  0  0  0
  127.4210  126.1450   72.0950 C   0  0  0  0  0  0  0  0  0  0  0  0
  127.0290  126.8590   70.7850 C   0  0  0  0  0  0  0  0  0  0  0  0
  129.2170  127.8520   67.8870 C   0  0  0  0  0  0  0  0  0  0  0  0
  129.1230  128.2230   66.5480 C   0  0  0  0  0  0  0  0  0  0  0  0
  127.5670  127.8850   63.5910 C   0  0  0  0  0  0  0  0  0  0  0  0
  127.4210  128.2040   62.2380 C   0  0  0  0  0  0  0  0  0  0  0  0
  127.1700  127.1660   61.1900 C   0  0  0  0  0  0  0  0  0  0  0  0
  127.1470  127.5120   59.8340 C   0  0  0  0  0  0  0  0  0  0  0  0
  126.9310  126.5480   58.8530 C   0  0  0  0  0  0  0  0  0  0  0  0
  126.7160  125.2030   59.1910 C   0  0  0  0  0  0  0  0  0  0  0  0
  126.5270  124.2180   58.2150 N   0  0  0  0  0  0  0  0  0  0  0  0
  127.5830  123.2160   57.9660 C   0  0  0  0  0  0  0  0  0  0  0  0
  127.4150  122.4590   56.6310 C   0  0  0  0  0  0  0  0  0  0  0  0
  126.1270  121.8670   56.5680 O   0  0  0  0  0  0  0  0  0  0  0  0
  125.1010  122.8440   56.6410 C   0  0  0  0  0  0  0  0  0  0  0  0
  125.2010  123.6160   57.9740 C   0  0  0  0  0  0  0  0  0  0  0  0
  126.7470  124.8600   60.5510 C   0  0  0  0  0  0  0  0  0  0  0  0
  126.9670  125.8230   61.5310 C   0  0  0  0  0  0  0  0  0  0  0  0
  127.5050  129.4890   61.8080 N   0  0  0  0  0  0  0  0  0  0  0  0
  127.7360  130.4800   62.7020 C   0  0  0  0  0  0  0  0  0  0  0  0
  127.8200  132.0980   61.9650 S   0  0  0  0  0  0  0  0  0  0  0  0
  129.4730  132.7720   62.3100 C   0  0  0  0  0  0  0  0  0  0  0  0
  130.3260  132.8800   61.0450 C   0  0  0  0  0  0  0  0  0  0  0  0
  131.5510  132.7820   61.1330 O   0  0  0  0  0  0  0  0  0  0  0  0
  129.6420  133.0850   59.8990 N   0  0  0  0  0  0  0  0  0  0  0  0
  130.1620  133.2080   58.6180 C   0  0  0  0  0  0  0  0  0  0  0  0
  131.4850  132.9020   58.3030 C   0  0  0  0  0  0  0  0  0  0  0  0
  131.5990  133.1540   56.9560 C   0  0  0  0  0  0  0  0  0  0  0  0
  130.4070  133.5880   56.4840 O   0  0  0  0  0  0  0  0  0  0  0  0
  129.5020  133.6170   57.5480 N   0  0  0  0  0  0  0  0  0  0  0  0
  125.7485  128.6211   66.3271 H   0  0  0  0  0  0  0  0  0  0  0  0
  125.9111  127.9388   68.7069 H   0  0  0  0  0  0  0  0  0  0  0  0
  130.0123  128.3447   70.3928 H   0  0  0  0  0  0  0  0  0  0  0  0
  128.5333  129.0523   71.1963 H   0  0  0  0  0  0  0  0  0  0  0  0
  129.9988  126.4954   72.0053 H   0  0  0  0  0  0  0  0  0  0  0  0
  129.9805  128.0644   72.8900 H   0  0  0  0  0  0  0  0  0  0  0  0
  127.9975  125.2386   71.8581 H   0  0  0  0  0  0  0  0  0  0  0  0
  126.5088  125.8718   72.6457 H   0  0  0  0  0  0  0  0  0  0  0  0
  126.4777  126.1486   70.1515 H   0  0  0  0  0  0  0  0  0  0  0  0
  126.4168  127.7308   71.0594 H   0  0  0  0  0  0  0  0  0  0  0  0
  130.2040  127.6351   68.3214 H   0  0  0  0  0  0  0  0  0  0  0  0
  130.0352  128.3040   65.9386 H   0  0  0  0  0  0  0  0  0  0  0  0
  127.5207  126.8343   63.9133 H   0  0  0  0  0  0  0  0  0  0  0  0
  127.3018  128.5604   59.5392 H   0  0  0  0  0  0  0  0  0  0  0  0
  126.9288  126.8459   57.7941 H   0  0  0  0  0  0  0  0  0  0  0  0
  128.5549  123.7309   57.9537 H   0  0  0  0  0  0  0  0  0  0  0  0
  127.5150  122.4692   58.7708 H   0  0  0  0  0  0  0  0  0  0  0  0
  127.5332  123.1641   55.7950 H   0  0  0  0  0  0  0  0  0  0  0  0
  128.1788  121.6702   56.5644 H   0  0  0  0  0  0  0  0  0  0  0  0
  125.2086  123.5485   55.8031 H   0  0  0  0  0  0  0  0  0  0  0  0
  124.1224  122.3448   56.5854 H   0  0  0  0  0  0  0  0  0  0  0  0
  124.4510  124.4206   57.9661 H   0  0  0  0  0  0  0  0  0  0  0  0
  125.0282  122.8877   58.7801 H   0  0  0  0  0  0  0  0  0  0  0  0
  126.5948  123.8118   60.8477 H   0  0  0  0  0  0  0  0  0  0  0  0
  126.9817  125.5248   62.5897 H   0  0  0  0  0  0  0  0  0  0  0  0
  129.3627  133.7741   62.7500 H   0  0  0  0  0  0  0  0  0  0  0  0
  129.9808  132.0853   63.0033 H   0  0  0  0  0  0  0  0  0  0  0  0
  128.6350  133.1310   59.9620 H   0  0  0  0  0  0  0  0  0  0  0  0
  132.2681  132.5379   58.9843 H   0  0  0  0  0  0  0  0  0  0  0  0
  132.5128  133.0237   56.3577 H   0  0  0  0  0  0  0  0  0  0  0  0
  1  2  3  0
  2  3  1  0
  3  4  2  0
  4  5  1  0
  5  6  2  0
  6  7  1  0
  7  8  2  0
  8  9  1  0
  9 10  1  0
 10 11  1  0
 11 12  1  0
 12 13  1  0
 13 14  1  0
  8 15  1  0
 15 16  2  0
  4 17  1  0
 17 18  2  0
 18 19  1  0
 19 20  2  0
 20 21  1  0
 21 22  2  0
 22 23  1  0
 23 24  1  0
 24 25  1  0
 25 26  1  0
 26 27  1  0
 27 28  1  0
 22 29  1  0
 29 30  2  0
 18 31  1  0
 31 32  2  0
 32 33  1  0
 33 34  1  0
 34 35  1  0
 35 36  2  0
 35 37  1  0
 37 38  1  0
 38 39  1  0
 39 40  2  0
 40 41  1  0
 41 42  1  0
 32  3  1  0
 42 38  2  0
 16  5  1  0
 30 19  1  0
 14  9  1  0
 28 23  1  0
  6 43  1  0
  7 44  1  0
 10 45  1  0
 10 46  1  0
 11 47  1  0
 11 48  1  0
 13 49  1  0
 13 50  1  0
 14 51  1  0
 14 52  1  0
 15 53  1  0
 16 54  1  0
 17 55  1  0
 20 56  1  0
 21 57  1  0
 24 58  1  0
 24 59  1  0
 25 60  1  0
 25 61  1  0
 27 62  1  0
 27 63  1  0
 28 64  1  0
 28 65  1  0
 29 66  1  0
 30 67  1  0
 34 68  1  0
 34 69  1  0
 37 70  1  0
 39 71  1  0
 40 72  1  0
M  END
>  <Binding energies>  (1) 
[-10.09]

>  <Ligand effiencies>  (1) 
[-0.23465116279069767]

>  <Interactions>  (1) 
["V-A:TYR:539:CD1:4872, V-B:PRO:540:CD:9858, V-B:GLU:543:CB:9877, V-B:PRO:540:N:9855, H-B:TYR:484:OH:9318, V-B:TYR:531:CE2:9764, H-B:TYR:539:N:9841, V-B:LEU:363:CD1:8159, V-A:PRO:540:CA:4882, V-B:MET:535:CE:9806, V-A:PRO:540:CB:4884, V-B:HIS:456:CE1:9040, V-A:HIS:456:CE1:4069, V-B:TYR:539:C:9838, V-B:TYR:539:CE1:9846, V-B:TYR:539:CD1:9844, V-A:PRO:540:C:4880, V-A:GLU:543:CD:4907, V-A:GLU:543:CG:4906, V-B:PRO:540:CB:9856, V-B:GLU:543:CD:9879, V-B:TYR:539:CG:9843, V-B:GLU:543:C:9873, V-B:GLY:544:CA:9885, V-B:GLY:544:C:9883, V-A:ALA:541:CB:4891, H-A:ALA:541:N:4890, V-B:PRO:540:CA:9854, V-B:TYR:539:CA:9840, V-A:TYR:539:C:4866, H-A:TYR:539:N:4869, V-A:PRO:540:N:4883, V-A:PRO:540:CD:4886, H-A:TYR:539:O:4867"]

$$$$
2b_Grossjean_2025
     RDKit          3D

 42 43  0  0  0  0  0  0  0  0999 V2000
  124.5250  124.2140   57.7090 C   0  0  0  0  0  0  0  0  0  0  0  0
  125.4620  123.8950   56.6900 O   0  0  0  0  0  0  0  0  0  0  0  0
  126.3230  122.8560   56.8320 C   0  0  0  0  0  0  0  0  0  0  0  0
  126.1320  121.7400   56.3370 O   0  0  0  0  0  0  0  0  0  0  0  0
  127.5320  123.1960   57.6560 C   0  0  0  0  0  0  0  0  0  0  0  0
  127.9770  122.3700   58.6980 C   0  0  0  0  0  0  0  0  0  0  0  0
  129.1000  122.7160   59.4440 C   0  0  0  0  0  0  0  0  0  0  0  0
  129.8040  123.8860   59.1610 C   0  0  0  0  0  0  0  0  0  0  0  0
  130.9210  124.1420   59.9800 N   0  0  0  0  0  0  0  0  0  0  0  0
  132.2210  124.2840   59.6450 C   0  0  0  0  0  0  0  0  0  0  0  0
  132.6790  124.1830   58.5060 O   0  0  0  0  0  0  0  0  0  0  0  0
  133.1680  124.5770   60.8130 C   0  0  0  0  0  0  0  0  0  0  0  0
  133.5260  123.1080   61.8310 S   0  0  0  0  0  0  0  0  0  0  0  0
  132.1160  122.0080   61.8320 C   0  0  0  0  0  0  0  0  0  0  0  0
  130.9650  122.5260   62.3310 N   0  0  0  0  0  0  0  0  0  0  0  0
  129.8600  121.7480   62.3670 C   0  0  0  0  0  0  0  0  0  0  0  0
  128.6190  122.3970   62.9500 C   0  0  0  0  0  0  0  0  0  0  0  0
  129.8510  120.4350   61.9050 C   0  0  0  0  0  0  0  0  0  0  0  0
  131.0270  119.8810   61.3790 C   0  0  0  0  0  0  0  0  0  0  0  0
  130.9980  118.4280   60.8670 C   0  0  0  0  0  0  0  0  0  0  0  0
  131.8490  117.6800   61.5720 F   0  0  0  0  0  0  0  0  0  0  0  0
  129.7700  117.9220   60.9930 F   0  0  0  0  0  0  0  0  0  0  0  0
  131.3440  118.3260   59.5820 F   0  0  0  0  0  0  0  0  0  0  0  0
  132.1960  120.6840   61.3410 C   0  0  0  0  0  0  0  0  0  0  0  0
  133.4550  120.1540   60.8070 C   0  0  0  0  0  0  0  0  0  0  0  0
  134.4480  119.7360   60.3850 N   0  0  0  0  0  0  0  0  0  0  0  0
  129.3620  124.7220   58.1250 C   0  0  0  0  0  0  0  0  0  0  0  0
  128.2380  124.3760   57.3820 C   0  0  0  0  0  0  0  0  0  0  0  0
  124.9874  124.0566   58.6946 H   0  0  0  0  0  0  0  0  0  0  0  0
  124.2205  125.2664   57.6107 H   0  0  0  0  0  0  0  0  0  0  0  0
  123.6416  123.5660   57.6107 H   0  0  0  0  0  0  0  0  0  0  0  0
  127.4343  121.4412   58.9277 H   0  0  0  0  0  0  0  0  0  0  0  0
  129.4346  122.0619   60.2626 H   0  0  0  0  0  0  0  0  0  0  0  0
  130.7110  124.1760   60.9660 H   0  0  0  0  0  0  0  0  0  0  0  0
  134.1156  124.9609   60.4072 H   0  0  0  0  0  0  0  0  0  0  0  0
  132.6695  125.3118   61.4623 H   0  0  0  0  0  0  0  0  0  0  0  0
  128.6722  122.3692   64.0484 H   0  0  0  0  0  0  0  0  0  0  0  0
  128.5587  123.4421   62.6122 H   0  0  0  0  0  0  0  0  0  0  0  0
  127.7262  121.8503   62.6122 H   0  0  0  0  0  0  0  0  0  0  0  0
  128.9290  119.8369   61.9521 H   0  0  0  0  0  0  0  0  0  0  0  0
  129.9046  125.6520   57.8999 H   0  0  0  0  0  0  0  0  0  0  0  0
  127.8991  125.0360   56.5699 H   0  0  0  0  0  0  0  0  0  0  0  0
  1  2  1  0
  2  3  1  0
  3  4  2  0
  3  5  1  0
  5  6  2  0
  6  7  1  0
  7  8  2  0
  8  9  1  0
  9 10  1  0
 10 11  2  0
 10 12  1  0
 12 13  1  0
 13 14  1  0
 14 15  2  0
 15 16  1  0
 16 17  1  0
 16 18  2  0
 18 19  1  0
 19 20  1  0
 20 21  1  0
 20 22  1  0
 20 23  1  0
 19 24  2  0
 24 25  1  0
 25 26  3  0
  8 27  1  0
 27 28  2  0
 28  5  1  0
 24 14  1  0
  1 29  1  0
  1 30  1  0
  1 31  1  0
  6 32  1  0
  7 33  1  0
  9 34  1  0
 12 35  1  0
 12 36  1  0
 17 37  1  0
 17 38  1  0
 17 39  1  0
 18 40  1  0
 27 41  1  0
 28 42  1  0
M  END
>  <Binding energies>  (1) 
[-7.53]

>  <Ligand effiencies>  (1) 
[-0.2596551724137931]

>  <Interactions>  (1) 
["V-B:PRO:540:N:9855, V-B:TYR:531:CE2:9764, H-B:TYR:539:N:9841, V-B:LEU:363:CD1:8159, V-B:MET:535:CE:9806, V-B:TYR:539:CD2:9845, V-B:TYR:539:CZ:9848, V-B:TYR:539:C:9838, V-B:TYR:539:CE2:9847, V-B:TYR:539:CG:9843, V-A:ASP:366:CG:3212, V-A:ASP:366:CB:3211, H-B:TYR:531:OH:9766, V-A:ILE:369:CG2:3236, V-A:SER:385:CA:3406, V-A:SER:385:CB:3408, V-B:ALA:541:CB:9863, V-A:ILE:369:CD1:3238, V-A:LEU:475:CD2:4258, V-B:ALA:541:CA:9861, V-A:HIS:383:CE1:3393, H-B:TYR:539:OH:9849, V-A:PRO:482:CG:4326, V-B:PRO:540:CA:9854, V-B:TYR:539:CB:9842, V-A:PRO:482:CB:4325, V-B:TYR:531:CZ:9765"]

$$$$
2c_Ghoteimi_2023
     RDKit          3D

 72 77  0  0  0  0  0  0  0  0999 V2000
  126.3980  130.6820   58.5720 N   0  0  0  0  0  0  0  0  0  0  0  0
  126.6260  130.4090   59.6730 C   0  0  0  0  0  0  0  0  0  0  0  0
  126.9160  130.0570   61.0670 C   0  0  0  0  0  0  0  0  0  0  0  0
  127.0710  128.7020   61.4510 C   0  0  0  0  0  0  0  0  0  0  0  0
  126.9550  127.5510   60.5060 C   0  0  0  0  0  0  0  0  0  0  0  0
  127.6640  127.5550   59.3030 C   0  0  0  0  0  0  0  0  0  0  0  0
  127.5650  126.4840   58.4190 C   0  0  0  0  0  0  0  0  0  0  0  0
  126.7420  125.3830   58.7080 C   0  0  0  0  0  0  0  0  0  0  0  0
  126.6430  124.2890   57.8450 N   0  0  0  0  0  0  0  0  0  0  0  0
  127.7320  123.2910   57.8160 C   0  0  0  0  0  0  0  0  0  0  0  0
  127.6850  122.3750   56.5750 C   0  0  0  0  0  0  0  0  0  0  0  0
  126.4170  121.7440   56.4840 O   0  0  0  0  0  0  0  0  0  0  0  0
  125.3670  122.6910   56.3670 C   0  0  0  0  0  0  0  0  0  0  0  0
  125.3520  123.6170   57.6010 C   0  0  0  0  0  0  0  0  0  0  0  0
  126.0320  125.3900   59.9160 C   0  0  0  0  0  0  0  0  0  0  0  0
  126.1330  126.4600   60.8010 C   0  0  0  0  0  0  0  0  0  0  0  0
  127.3510  128.4180   62.7940 C   0  0  0  0  0  0  0  0  0  0  0  0
  127.4980  129.4530   63.7210 C   0  0  0  0  0  0  0  0  0  0  0  0
  127.8130  129.2030   65.1610 C   0  0  0  0  0  0  0  0  0  0  0  0
  128.9390  128.4590   65.5270 C   0  0  0  0  0  0  0  0  0  0  0  0
  129.2420  128.2280   66.8670 C   0  0  0  0  0  0  0  0  0  0  0  0
  128.4200  128.7230   67.8920 C   0  0  0  0  0  0  0  0  0  0  0  0
  128.7230  128.5210   69.2430 N   0  0  0  0  0  0  0  0  0  0  0  0
  128.4390  127.2150   69.8720 C   0  0  0  0  0  0  0  0  0  0  0  0
  128.4570  127.2550   71.4150 C   0  0  0  0  0  0  0  0  0  0  0  0
  129.6930  127.7780   71.8730 O   0  0  0  0  0  0  0  0  0  0  0  0
  129.9030  129.1000   71.4050 C   0  0  0  0  0  0  0  0  0  0  0  0
  129.9230  129.1190   69.8620 C   0  0  0  0  0  0  0  0  0  0  0  0
  127.2990  129.4790   67.5200 C   0  0  0  0  0  0  0  0  0  0  0  0
  126.9990  129.7110   66.1800 C   0  0  0  0  0  0  0  0  0  0  0  0
  127.3510  130.7510   63.3500 N   0  0  0  0  0  0  0  0  0  0  0  0
  127.0490  131.0500   62.0640 C   0  0  0  0  0  0  0  0  0  0  0  0
  126.8820  132.7940   61.7580 S   0  0  0  0  0  0  0  0  0  0  0  0
  128.4360  133.5880   62.2680 C   0  0  0  0  0  0  0  0  0  0  0  0
  129.6250  133.1120   61.4330 C   0  0  0  0  0  0  0  0  0  0  0  0
  130.6210  132.6620   62.0020 O   0  0  0  0  0  0  0  0  0  0  0  0
  129.4830  133.2320   60.0960 N   0  0  0  0  0  0  0  0  0  0  0  0
  130.4030  132.8600   59.1270 C   0  0  0  0  0  0  0  0  0  0  0  0
  131.5470  132.2330   59.2980 N   0  0  0  0  0  0  0  0  0  0  0  0
  132.1670  132.0340   58.1510 C   0  0  0  0  0  0  0  0  0  0  0  0
  131.5210  132.5070   57.0130 C   0  0  0  0  0  0  0  0  0  0  0  0
  130.0210  133.2500   57.4810 S   0  0  0  0  0  0  0  0  0  0  0  0
  128.3063  128.4118   59.0516 H   0  0  0  0  0  0  0  0  0  0  0  0
  128.1394  126.5002   57.4810 H   0  0  0  0  0  0  0  0  0  0  0  0
  128.6944  123.8236   57.8210 H   0  0  0  0  0  0  0  0  0  0  0  0
  127.6102  122.6488   58.7008 H   0  0  0  0  0  0  0  0  0  0  0  0
  127.8576  122.9775   55.6710 H   0  0  0  0  0  0  0  0  0  0  0  0
  128.4654  121.6050   56.6653 H   0  0  0  0  0  0  0  0  0  0  0  0
  125.5202  123.2947   55.4603 H   0  0  0  0  0  0  0  0  0  0  0  0
  124.4063  122.1590   56.3029 H   0  0  0  0  0  0  0  0  0  0  0  0
  124.5812  124.3870   57.4498 H   0  0  0  0  0  0  0  0  0  0  0  0
  125.1433  122.9864   58.4778 H   0  0  0  0  0  0  0  0  0  0  0  0
  125.3850  124.5371   60.1689 H   0  0  0  0  0  0  0  0  0  0  0  0
  125.5609  126.4465   61.7404 H   0  0  0  0  0  0  0  0  0  0  0  0
  127.4558  127.3730   63.1209 H   0  0  0  0  0  0  0  0  0  0  0  0
  129.5955  128.0499   64.7449 H   0  0  0  0  0  0  0  0  0  0  0  0
  130.1401  127.6482   67.1263 H   0  0  0  0  0  0  0  0  0  0  0  0
  127.4436  126.8804   69.5444 H   0  0  0  0  0  0  0  0  0  0  0  0
  129.2366  126.5256   69.5580 H   0  0  0  0  0  0  0  0  0  0  0  0
  127.6363  127.8944   71.7723 H   0  0  0  0  0  0  0  0  0  0  0  0
  128.3312  126.2337   71.8038 H   0  0  0  0  0  0  0  0  0  0  0  0
  129.0904  129.7473   71.7664 H   0  0  0  0  0  0  0  0  0  0  0  0
  130.8691  129.4665   71.7823 H   0  0  0  0  0  0  0  0  0  0  0  0
  130.0005  130.1645   69.5290 H   0  0  0  0  0  0  0  0  0  0  0  0
  130.7835  128.5113   69.5452 H   0  0  0  0  0  0  0  0  0  0  0  0
  126.6453  129.8960   68.3002 H   0  0  0  0  0  0  0  0  0  0  0  0
  126.1091  130.3023   65.9185 H   0  0  0  0  0  0  0  0  0  0  0  0
  128.3333  134.6769   62.1508 H   0  0  0  0  0  0  0  0  0  0  0  0
  128.6275  133.3163   63.3166 H   0  0  0  0  0  0  0  0  0  0  0  0
  128.6120  133.6090   59.7500 H   0  0  0  0  0  0  0  0  0  0  0  0
  133.1396  131.5231   58.0971 H   0  0  0  0  0  0  0  0  0  0  0  0
  131.8987  132.4241   55.9832 H   0  0  0  0  0  0  0  0  0  0  0  0
  1  2  3  0
  2  3  1  0
  3  4  2  0
  4  5  1  0
  5  6  2  0
  6  7  1  0
  7  8  2  0
  8  9  1  0
  9 10  1  0
 10 11  1  0
 11 12  1  0
 12 13  1  0
 13 14  1  0
  8 15  1  0
 15 16  2  0
  4 17  1  0
 17 18  2  0
 18 19  1  0
 19 20  2  0
 20 21  1  0
 21 22  2  0
 22 23  1  0
 23 24  1  0
 24 25  1  0
 25 26  1  0
 26 27  1  0
 27 28  1  0
 22 29  1  0
 29 30  2  0
 18 31  1  0
 31 32  2  0
 32 33  1  0
 33 34  1  0
 34 35  1  0
 35 36  2  0
 35 37  1  0
 37 38  1  0
 38 39  2  0
 39 40  1  0
 40 41  2  0
 41 42  1  0
 32  3  1  0
 42 38  1  0
 16  5  1  0
 30 19  1  0
 14  9  1  0
 28 23  1  0
  6 43  1  0
  7 44  1  0
 10 45  1  0
 10 46  1  0
 11 47  1  0
 11 48  1  0
 13 49  1  0
 13 50  1  0
 14 51  1  0
 14 52  1  0
 15 53  1  0
 16 54  1  0
 17 55  1  0
 20 56  1  0
 21 57  1  0
 24 58  1  0
 24 59  1  0
 25 60  1  0
 25 61  1  0
 27 62  1  0
 27 63  1  0
 28 64  1  0
 28 65  1  0
 29 66  1  0
 30 67  1  0
 34 68  1  0
 34 69  1  0
 37 70  1  0
 40 71  1  0
 41 72  1  0
M  END
>  <Binding energies>  (1) 
[-9.17]

>  <Ligand effiencies>  (1) 
[-0.21325581395348836]

>  <Interactions>  (1) 
["V-A:TYR:539:CD1:4872, V-B:PRO:540:CD:9858, V-B:PRO:540:N:9855, V-A:GLU:543:CB:4905, V-B:TYR:531:CE2:9764, H-B:TYR:539:N:9841, V-B:LEU:363:CD1:8159, V-A:PRO:540:CA:4882, V-B:MET:535:CE:9806, V-B:TYR:539:CD2:9845, V-A:PRO:540:CB:4884, V-B:ASP:366:CG:8183, V-B:TYR:539:CZ:9848, V-B:HIS:456:CE1:9040, V-A:HIS:456:CE1:4069, V-B:TYR:539:C:9838, V-B:TYR:539:CE1:9846, V-B:TYR:539:CD1:9844, V-A:PRO:540:C:4880, V-A:GLU:543:CD:4907, V-A:GLU:543:CG:4906, V-B:PRO:540:CB:9856, V-A:TYR:539:CE1:4874, V-B:TYR:539:CE2:9847, V-B:TYR:539:CG:9843, V-A:ALA:541:CB:4891, H-A:ALA:541:N:4890, V-B:TYR:539:CA:9840, V-A:TYR:539:C:4866, V-A:TYR:531:CE2:4792, V-A:GLU:543:C:4901, V-A:PRO:540:N:4883, V-B:TYR:484:CZ:9317, V-B:TYR:484:CE2:9316, H-A:TYR:539:O:4867"]

$$$$
2c_Grossjean_2025
     RDKit          3D

 40 41  0  0  0  0  0  0  0  0999 V2000
  125.3710  122.3420   56.6360 C   0  0  0  0  0  0  0  0  0  0  0  0
  126.1370  123.5420   56.6100 O   0  0  0  0  0  0  0  0  0  0  0  0
  127.2650  123.6390   57.4020 C   0  0  0  0  0  0  0  0  0  0  0  0
  128.0380  124.7890   57.2470 C   0  0  0  0  0  0  0  0  0  0  0  0
  129.1940  124.9770   58.0000 C   0  0  0  0  0  0  0  0  0  0  0  0
  129.5960  123.9970   58.9200 C   0  0  0  0  0  0  0  0  0  0  0  0
  130.7360  124.1060   59.7370 N   0  0  0  0  0  0  0  0  0  0  0  0
  132.0000  124.4240   59.3820 C   0  0  0  0  0  0  0  0  0  0  0  0
  132.3740  124.6250   58.2250 O   0  0  0  0  0  0  0  0  0  0  0  0
  133.0020  124.4870   60.5450 C   0  0  0  0  0  0  0  0  0  0  0  0
  133.5540  122.8710   61.1940 S   0  0  0  0  0  0  0  0  0  0  0  0
  132.1360  121.8060   61.4240 C   0  0  0  0  0  0  0  0  0  0  0  0
  131.0390  122.3980   61.9630 N   0  0  0  0  0  0  0  0  0  0  0  0
  129.9320  121.6520   62.1750 C   0  0  0  0  0  0  0  0  0  0  0  0
  128.7560  122.3810   62.7950 C   0  0  0  0  0  0  0  0  0  0  0  0
  129.8660  120.2980   61.8540 C   0  0  0  0  0  0  0  0  0  0  0  0
  130.9840  119.6680   61.2890 C   0  0  0  0  0  0  0  0  0  0  0  0
  130.8950  118.1700   60.9380 C   0  0  0  0  0  0  0  0  0  0  0  0
  131.7470  117.4730   61.6910 F   0  0  0  0  0  0  0  0  0  0  0  0
  129.6580  117.7220   61.1550 F   0  0  0  0  0  0  0  0  0  0  0  0
  131.1930  117.9220   59.6600 F   0  0  0  0  0  0  0  0  0  0  0  0
  132.1540  120.4370   61.0660 C   0  0  0  0  0  0  0  0  0  0  0  0
  133.3540  119.8300   60.4800 C   0  0  0  0  0  0  0  0  0  0  0  0
  134.3000  119.3500   60.0180 N   0  0  0  0  0  0  0  0  0  0  0  0
  128.8170  122.8520   59.0910 C   0  0  0  0  0  0  0  0  0  0  0  0
  127.6620  122.6690   58.3360 C   0  0  0  0  0  0  0  0  0  0  0  0
  125.1839  122.0490   57.6796 H   0  0  0  0  0  0  0  0  0  0  0  0
  124.4116  122.5083   56.1242 H   0  0  0  0  0  0  0  0  0  0  0  0
  125.9257  121.5417   56.1242 H   0  0  0  0  0  0  0  0  0  0  0  0
  127.7310  125.5566   56.5214 H   0  0  0  0  0  0  0  0  0  0  0  0
  129.7910  125.8922   57.8738 H   0  0  0  0  0  0  0  0  0  0  0  0
  130.5890  123.8500   60.7020 H   0  0  0  0  0  0  0  0  0  0  0  0
  133.8906  125.0345   60.1977 H   0  0  0  0  0  0  0  0  0  0  0  0
  132.4733  124.9811   61.3734 H   0  0  0  0  0  0  0  0  0  0  0  0
  128.8321  122.3339   63.8914 H   0  0  0  0  0  0  0  0  0  0  0  0
  128.7646  123.4324   62.4717 H   0  0  0  0  0  0  0  0  0  0  0  0
  127.8182  121.9056   62.4717 H   0  0  0  0  0  0  0  0  0  0  0  0
  128.9444  119.7278   62.0422 H   0  0  0  0  0  0  0  0  0  0  0  0
  129.1170  122.0905   59.8259 H   0  0  0  0  0  0  0  0  0  0  0  0
  127.0575  121.7601   58.4718 H   0  0  0  0  0  0  0  0  0  0  0  0
  1  2  1  0
  2  3  1  0
  3  4  2  0
  4  5  1  0
  5  6  2  0
  6  7  1  0
  7  8  1  0
  8  9  2  0
  8 10  1  0
 10 11  1  0
 11 12  1  0
 12 13  2  0
 13 14  1  0
 14 15  1  0
 14 16  2  0
 16 17  1  0
 17 18  1  0
 18 19  1  0
 18 20  1  0
 18 21  1  0
 17 22  2  0
 22 23  1  0
 23 24  3  0
  6 25  1  0
 25 26  2  0
 26  3  1  0
 22 12  1  0
  1 27  1  0
  1 28  1  0
  1 29  1  0
  4 30  1  0
  5 31  1  0
  7 32  1  0
 10 33  1  0
 10 34  1  0
 15 35  1  0
 15 36  1  0
 15 37  1  0
 16 38  1  0
 25 39  1  0
 26 40  1  0
M  END
>  <Binding energies>  (1) 
[-6.67]

>  <Ligand effiencies>  (1) 
[-0.24703703703703703]

>  <Interactions>  (1) 
["V-B:PRO:540:CD:9858, V-B:PRO:540:N:9855, V-B:LEU:363:CD1:8159, V-B:MET:535:CE:9806, V-B:TYR:539:CD2:9845, V-B:TYR:539:CZ:9848, V-B:TYR:539:C:9838, V-B:PRO:540:CB:9856, V-B:TYR:539:CE2:9847, V-B:TYR:539:CG:9843, V-A:ASP:366:CG:3212, V-A:ASP:366:CB:3211, H-B:TYR:531:OH:9766, V-A:ILE:369:CG2:3236, V-A:SER:385:CA:3406, V-A:SER:385:CB:3408, V-B:ALA:541:CB:9863, V-A:ILE:369:CD1:3238, V-A:LEU:475:CD2:4258, V-B:ALA:541:CA:9861, V-A:HIS:383:CE1:3393, H-B:TYR:539:OH:9849, V-A:PRO:482:CG:4326, V-B:PRO:540:CA:9854, V-B:TYR:539:CB:9842, V-A:PRO:482:CB:4325, V-B:ILE:538:CG2:9834, V-B:PRO:540:CG:9857, H-A:SER:385:N:3407"]

$$$$
2d_Ghoteimi_2023
     RDKit          3D

 68 72  0  0  0  0  0  0  0  0999 V2000
  123.8470  132.0140   56.8590 C   0  0  0  0  0  0  0  0  0  0  0  0
  124.4570  131.2280   57.8730 O   0  0  0  0  0  0  0  0  0  0  0  0
  124.7240  131.7590   59.0840 C   0  0  0  0  0  0  0  0  0  0  0  0
  125.7310  132.4110   59.3740 O   0  0  0  0  0  0  0  0  0  0  0  0
  123.6000  131.4570   60.0860 C   0  0  0  0  0  0  0  0  0  0  0  0
  124.1090  131.8580   61.7920 S   0  0  0  0  0  0  0  0  0  0  0  0
  124.9350  130.4370   62.4780 C   0  0  0  0  0  0  0  0  0  0  0  0
  125.0920  129.4270   61.5880 N   0  0  0  0  0  0  0  0  0  0  0  0
  125.7000  128.2780   61.9760 C   0  0  0  0  0  0  0  0  0  0  0  0
  125.8210  127.2030   60.9450 C   0  0  0  0  0  0  0  0  0  0  0  0
  125.6520  127.4960   59.5870 C   0  0  0  0  0  0  0  0  0  0  0  0
  125.7630  126.4990   58.6210 C   0  0  0  0  0  0  0  0  0  0  0  0
  126.0580  125.1750   58.9770 C   0  0  0  0  0  0  0  0  0  0  0  0
  126.1550  124.1580   58.0200 N   0  0  0  0  0  0  0  0  0  0  0  0
  127.3140  123.2440   57.9790 C   0  0  0  0  0  0  0  0  0  0  0  0
  127.4300  122.4520   56.6600 C   0  0  0  0  0  0  0  0  0  0  0  0
  126.2240  121.7490   56.4100 O   0  0  0  0  0  0  0  0  0  0  0  0
  125.1210  122.6320   56.2900 C   0  0  0  0  0  0  0  0  0  0  0  0
  124.9390  123.4350   57.5960 C   0  0  0  0  0  0  0  0  0  0  0  0
  126.2130  124.8830   60.3400 C   0  0  0  0  0  0  0  0  0  0  0  0
  126.0990  125.8780   61.3060 C   0  0  0  0  0  0  0  0  0  0  0  0
  126.1730  128.1180   63.2810 C   0  0  0  0  0  0  0  0  0  0  0  0
  126.0540  129.1580   64.2110 C   0  0  0  0  0  0  0  0  0  0  0  0
  126.6080  128.9270   65.5790 C   0  0  0  0  0  0  0  0  0  0  0  0
  125.7620  128.5530   66.6250 C   0  0  0  0  0  0  0  0  0  0  0  0
  126.2700  128.3230   67.9000 C   0  0  0  0  0  0  0  0  0  0  0  0
  127.6410  128.4650   68.1670 C   0  0  0  0  0  0  0  0  0  0  0  0
  128.1750  128.2270   69.4370 N   0  0  0  0  0  0  0  0  0  0  0  0
  129.4900  128.7670   69.8330 C   0  0  0  0  0  0  0  0  0  0  0  0
  129.7460  128.7120   71.3540 C   0  0  0  0  0  0  0  0  0  0  0  0
  129.5790  127.3850   71.8270 O   0  0  0  0  0  0  0  0  0  0  0  0
  128.2670  126.9020   71.5830 C   0  0  0  0  0  0  0  0  0  0  0  0
  127.9750  126.9070   70.0660 C   0  0  0  0  0  0  0  0  0  0  0  0
  128.4850  128.8240   67.1080 C   0  0  0  0  0  0  0  0  0  0  0  0
  127.9770  129.0530   65.8320 C   0  0  0  0  0  0  0  0  0  0  0  0
  125.4220  130.3590   63.8040 C   0  0  0  0  0  0  0  0  0  0  0  0
  125.2910  131.4840   64.7350 C   0  0  0  0  0  0  0  0  0  0  0  0
  125.1900  132.3700   65.4740 N   0  0  0  0  0  0  0  0  0  0  0  0
  123.2357  132.8017   57.3236 H   0  0  0  0  0  0  0  0  0  0  0  0
  124.6260  132.4751   56.2341 H   0  0  0  0  0  0  0  0  0  0  0  0
  123.2069  131.3738   56.2341 H   0  0  0  0  0  0  0  0  0  0  0  0
  122.7161  132.0575   59.8250 H   0  0  0  0  0  0  0  0  0  0  0  0
  123.3686  130.3828   60.0356 H   0  0  0  0  0  0  0  0  0  0  0  0
  125.4284  128.5279   59.2784 H   0  0  0  0  0  0  0  0  0  0  0  0
  125.6168  126.7543   57.5611 H   0  0  0  0  0  0  0  0  0  0  0  0
  128.2303  123.8384   58.1094 H   0  0  0  0  0  0  0  0  0  0  0  0
  127.1737  122.5089   58.7852 H   0  0  0  0  0  0  0  0  0  0  0  0
  127.6237  123.1496   55.8318 H   0  0  0  0  0  0  0  0  0  0  0  0
  128.2578  121.7322   56.7420 H   0  0  0  0  0  0  0  0  0  0  0  0
  125.3010  123.3278   55.4573 H   0  0  0  0  0  0  0  0  0  0  0  0
  124.2101  122.0459   56.0981 H   0  0  0  0  0  0  0  0  0  0  0  0
  124.1336  124.1686   57.4438 H   0  0  0  0  0  0  0  0  0  0  0  0
  124.7012  122.7110   58.3893 H   0  0  0  0  0  0  0  0  0  0  0  0
  126.4283  123.8500   60.6506 H   0  0  0  0  0  0  0  0  0  0  0  0
  126.2289  125.6208   62.3676 H   0  0  0  0  0  0  0  0  0  0  0  0
  126.6419  127.1688   63.5797 H   0  0  0  0  0  0  0  0  0  0  0  0
  124.6838  128.4391   66.4394 H   0  0  0  0  0  0  0  0  0  0  0  0
  125.5878  128.0257   68.7100 H   0  0  0  0  0  0  0  0  0  0  0  0
  130.2728  128.1830   69.3269 H   0  0  0  0  0  0  0  0  0  0  0  0
  129.5054  129.8273   69.5407 H   0  0  0  0  0  0  0  0  0  0  0  0
  130.7729  129.0465   71.5628 H   0  0  0  0  0  0  0  0  0  0  0  0
  129.0278  129.3702   71.8648 H   0  0  0  0  0  0  0  0  0  0  0  0
  128.1797  125.8750   71.9673 H   0  0  0  0  0  0  0  0  0  0  0  0
  127.5420  127.5541   72.0921 H   0  0  0  0  0  0  0  0  0  0  0  0
  128.6451  126.1832   69.5791 H   0  0  0  0  0  0  0  0  0  0  0  0
  126.9151  126.6423   69.9375 H   0  0  0  0  0  0  0  0  0  0  0  0
  129.5654  128.9265   67.2873 H   0  0  0  0  0  0  0  0  0  0  0  0
  128.6587  129.3354   65.0162 H   0  0  0  0  0  0  0  0  0  0  0  0
  1  2  1  0
  2  3  1  0
  3  4  2  0
  3  5  1  0
  5  6  1  0
  6  7  1  0
  7  8  2  0
  8  9  1  0
  9 10  1  0
 10 11  2  0
 11 12  1  0
 12 13  2  0
 13 14  1  0
 14 15  1  0
 15 16  1  0
 16 17  1  0
 17 18  1  0
 18 19  1  0
 13 20  1  0
 20 21  2  0
  9 22  2  0
 22 23  1  0
 23 24  1  0
 24 25  2  0
 25 26  1  0
 26 27  2  0
 27 28  1  0
 28 29  1  0
 29 30  1  0
 30 31  1  0
 31 32  1  0
 32 33  1  0
 27 34  1  0
 34 35  2  0
 23 36  2  0
 36 37  1  0
 37 38  3  0
 36  7  1  0
 21 10  1  0
 35 24  1  0
 19 14  1  0
 33 28  1  0
  1 39  1  0
  1 40  1  0
  1 41  1  0
  5 42  1  0
  5 43  1  0
 11 44  1  0
 12 45  1  0
 15 46  1  0
 15 47  1  0
 16 48  1  0
 16 49  1  0
 18 50  1  0
 18 51  1  0
 19 52  1  0
 19 53  1  0
 20 54  1  0
 21 55  1  0
 22 56  1  0
 25 57  1  0
 26 58  1  0
 29 59  1  0
 29 60  1  0
 30 61  1  0
 30 62  1  0
 32 63  1  0
 32 64  1  0
 33 65  1  0
 33 66  1  0
 34 67  1  0
 35 68  1  0
M  END
>  <Binding energies>  (1) 
[-8.42]

>  <Ligand effiencies>  (1) 
[-0.22157894736842104]

>  <Interactions>  (1) 
["V-B:PRO:540:CD:9858, V-B:GLU:543:CB:9877, V-B:PRO:540:N:9855, H-B:TYR:484:OH:9318, V-A:GLU:543:CB:4905, V-B:TYR:531:CE2:9764, H-B:TYR:539:N:9841, H-B:GLY:454:N:9020, V-B:LEU:363:CD1:8159, V-B:ILE:369:CG2:8207, V-B:MET:535:CE:9806, V-B:GLY:454:CA:9019, V-B:ASP:366:CG:8183, V-B:HIS:456:CE1:9040, V-A:HIS:456:CE1:4069, V-B:TYR:539:C:9838, V-B:TYR:539:CE1:9846, V-B:TYR:539:CD1:9844, V-A:GLU:543:CD:4907, V-A:GLU:543:CG:4906, V-B:PRO:540:CB:9856, V-A:TYR:539:CE1:4874, V-B:LEU:475:CD1:9228, V-B:ASP:366:CB:8182, V-B:GLU:543:CD:9879, V-B:TYR:539:CG:9843, V-B:ARG:545:CZ:9897, V-B:ARG:545:CG:9893, V-B:PRO:540:CA:9854, V-B:TYR:539:CA:9840, V-B:ILE:538:CG2:9834, V-B:ILE:538:CD1:9836, V-B:ILE:369:CB:8206, V-A:TYR:539:CZ:4876"]

$$$$
2d_Grossjean_2025
     RDKit          3D

 36 37  0  0  0  0  0  0  0  0999 V2000
  134.2350  125.7520   67.1330 C   0  0  0  0  0  0  0  0  0  0  0  0
  133.4220  125.8000   65.8530 C   0  0  0  0  0  0  0  0  0  0  0  0
  132.1970  126.4600   65.7920 C   0  0  0  0  0  0  0  0  0  0  0  0
  131.4850  126.4810   64.5840 C   0  0  0  0  0  0  0  0  0  0  0  0
  130.1360  127.2240   64.5330 C   0  0  0  0  0  0  0  0  0  0  0  0
  130.2450  128.3160   63.7750 F   0  0  0  0  0  0  0  0  0  0  0  0
  129.1960  126.4310   64.0150 F   0  0  0  0  0  0  0  0  0  0  0  0
  129.7130  127.6120   65.7380 F   0  0  0  0  0  0  0  0  0  0  0  0
  132.0380  125.8180   63.4590 C   0  0  0  0  0  0  0  0  0  0  0  0
  131.3560  125.8500   62.1630 C   0  0  0  0  0  0  0  0  0  0  0  0
  130.8170  125.8770   61.1390 N   0  0  0  0  0  0  0  0  0  0  0  0
  133.2770  125.1530   63.6210 C   0  0  0  0  0  0  0  0  0  0  0  0
  134.0970  124.2460   62.3240 S   0  0  0  0  0  0  0  0  0  0  0  0
  134.2540  122.5030   62.8360 C   0  0  0  0  0  0  0  0  0  0  0  0
  133.2200  121.5890   62.1720 C   0  0  0  0  0  0  0  0  0  0  0  0
  132.0290  121.9030   62.2140 O   0  0  0  0  0  0  0  0  0  0  0  0
  133.7110  120.4670   61.6060 N   0  0  0  0  0  0  0  0  0  0  0  0
  133.0270  119.4430   60.9240 C   0  0  0  0  0  0  0  0  0  0  0  0
  133.4910  119.1460   59.6410 C   0  0  0  0  0  0  0  0  0  0  0  0
  132.8750  118.1520   58.8840 C   0  0  0  0  0  0  0  0  0  0  0  0
  131.7860  117.4600   59.4110 C   0  0  0  0  0  0  0  0  0  0  0  0
  131.3070  117.7560   60.6840 C   0  0  0  0  0  0  0  0  0  0  0  0
  131.9210  118.7480   61.4420 C   0  0  0  0  0  0  0  0  0  0  0  0
  133.9620  125.1610   64.7910 N   0  0  0  0  0  0  0  0  0  0  0  0
  133.5580  125.7920   67.9991 H   0  0  0  0  0  0  0  0  0  0  0  0
  134.8153  124.8180   67.1640 H   0  0  0  0  0  0  0  0  0  0  0  0
  134.9212  126.6112   67.1640 H   0  0  0  0  0  0  0  0  0  0  0  0
  131.7915  126.9605   66.6837 H   0  0  0  0  0  0  0  0  0  0  0  0
  135.2598  122.1479   62.5671 H   0  0  0  0  0  0  0  0  0  0  0  0
  134.0807  122.4619   63.9215 H   0  0  0  0  0  0  0  0  0  0  0  0
  134.6990  120.2980   61.7300 H   0  0  0  0  0  0  0  0  0  0  0  0
  134.3465  119.6992   59.2263 H   0  0  0  0  0  0  0  0  0  0  0  0
  133.2460  117.9146   57.8760 H   0  0  0  0  0  0  0  0  0  0  0  0
  131.3006  116.6727   58.8155 H   0  0  0  0  0  0  0  0  0  0  0  0
  130.4447  117.2067   61.0899 H   0  0  0  0  0  0  0  0  0  0  0  0
  131.5410  118.9881   62.4460 H   0  0  0  0  0  0  0  0  0  0  0  0
  1  2  1  0
  2  3  2  0
  3  4  1  0
  4  5  1  0
  5  6  1  0
  5  7  1  0
  5  8  1  0
  4  9  2  0
  9 10  1  0
 10 11  3  0
  9 12  1  0
 12 13  1  0
 13 14  1  0
 14 15  1  0
 15 16  2  0
 15 17  1  0
 17 18  1  0
 18 19  2  0
 19 20  1  0
 20 21  2  0
 21 22  1  0
 22 23  2  0
 12 24  2  0
 24  2  1  0
 23 18  1  0
  1 25  1  0
  1 26  1  0
  1 27  1  0
  3 28  1  0
 14 29  1  0
 14 30  1  0
 17 31  1  0
 19 32  1  0
 20 33  1  0
 21 34  1  0
 22 35  1  0
 23 36  1  0
M  END
>  <Binding energies>  (1) 
[-7.12]

>  <Ligand effiencies>  (1) 
[-0.2848]

>  <Interactions>  (1) 
["V-B:TYR:539:CD2:9845, V-A:GLU:543:CD:4907, V-B:TYR:539:CE2:9847, V-B:GLU:543:CD:9879, V-B:TYR:539:CG:9843, V-A:ASP:366:CG:3212, V-A:ILE:369:CG2:3236, V-A:ARG:545:CZ:4925, V-A:SER:385:CA:3406, V-A:SER:385:CB:3408, V-A:ARG:545:CD:4922, H-A:GLY:454:N:4049, V-A:ARG:545:CG:4921, V-A:ILE:369:CD1:3238, V-A:LEU:475:CD2:4258, V-A:HIS:383:CE1:3393, V-B:TYR:539:CB:9842, H-A:TYR:484:OH:4347, V-A:LEU:373:CD2:3280, V-A:GLY:453:C:4041, V-A:GLY:454:CA:4048, V-A:LEU:373:CG:3278, V-A:SER:385:C:3404, H-A:SER:385:O:3405, V-A:LEU:373:CD1:3279"]

$$$$
2e_Grossjean_2025
     RDKit          3D

 38 39  0  0  0  0  0  0  0  0999 V2000
  130.5130  117.1590   61.2890 C   0  0  0  0  0  0  0  0  0  0  0  0
  131.6550  118.0080   60.7640 C   0  0  0  0  0  0  0  0  0  0  0  0
  132.2140  117.7840   59.5030 C   0  0  0  0  0  0  0  0  0  0  0  0
  133.2550  118.6130   59.0820 C   0  0  0  0  0  0  0  0  0  0  0  0
  133.7070  119.6340   59.9210 C   0  0  0  0  0  0  0  0  0  0  0  0
  133.1090  119.7970   61.1760 C   0  0  0  0  0  0  0  0  0  0  0  0
  133.5730  120.8660   61.9620 N   0  0  0  0  0  0  0  0  0  0  0  0
  133.0620  122.1130   62.0580 C   0  0  0  0  0  0  0  0  0  0  0  0
  132.0300  122.4980   61.5060 O   0  0  0  0  0  0  0  0  0  0  0  0
  133.8800  123.1070   62.8890 C   0  0  0  0  0  0  0  0  0  0  0  0
  133.2260  124.8020   62.7670 S   0  0  0  0  0  0  0  0  0  0  0  0
  133.1160  125.3910   64.4420 C   0  0  0  0  0  0  0  0  0  0  0  0
  134.2900  125.3870   65.1210 N   0  0  0  0  0  0  0  0  0  0  0  0
  134.2880  125.7770   66.4150 C   0  0  0  0  0  0  0  0  0  0  0  0
  135.6330  125.7500   67.1140 C   0  0  0  0  0  0  0  0  0  0  0  0
  133.1290  126.1760   67.0800 C   0  0  0  0  0  0  0  0  0  0  0  0
  131.9050  126.1770   66.3940 C   0  0  0  0  0  0  0  0  0  0  0  0
  130.6300  126.6000   67.1470 C   0  0  0  0  0  0  0  0  0  0  0  0
  130.9520  127.2980   68.2370 F   0  0  0  0  0  0  0  0  0  0  0  0
  129.8650  127.3560   66.3600 F   0  0  0  0  0  0  0  0  0  0  0  0
  129.8950  125.5570   67.5420 F   0  0  0  0  0  0  0  0  0  0  0  0
  131.8910  125.7760   65.0350 C   0  0  0  0  0  0  0  0  0  0  0  0
  130.6400  125.7260   64.2720 C   0  0  0  0  0  0  0  0  0  0  0  0
  129.6520  125.6870   63.6700 N   0  0  0  0  0  0  0  0  0  0  0  0
  132.0850  118.9950   61.5920 N   0  0  0  0  0  0  0  0  0  0  0  0
  130.5250  117.1679   62.3889 H   0  0  0  0  0  0  0  0  0  0  0  0
  129.5570  117.5675   60.9294 H   0  0  0  0  0  0  0  0  0  0  0  0
  130.6287  116.1259   60.9294 H   0  0  0  0  0  0  0  0  0  0  0  0
  131.8427  116.9741   58.8579 H   0  0  0  0  0  0  0  0  0  0  0  0
  133.7168  118.4630   58.0950 H   0  0  0  0  0  0  0  0  0  0  0  0
  134.5212  120.3004   59.6001 H   0  0  0  0  0  0  0  0  0  0  0  0
  134.3640  120.6500   62.5500 H   0  0  0  0  0  0  0  0  0  0  0  0
  133.8562  122.7925   63.9428 H   0  0  0  0  0  0  0  0  0  0  0  0
  134.9078  123.1112   62.4972 H   0  0  0  0  0  0  0  0  0  0  0  0
  135.4802  125.7531   68.2033 H   0  0  0  0  0  0  0  0  0  0  0  0
  136.1793  124.8407   66.8229 H   0  0  0  0  0  0  0  0  0  0  0  0
  136.2154  126.6366   66.8229 H   0  0  0  0  0  0  0  0  0  0  0  0
  133.1740  126.4875   68.1340 H   0  0  0  0  0  0  0  0  0  0  0  0
  1  2  1  0
  2  3  2  0
  3  4  1  0
  4  5  2  0
  5  6  1  0
  6  7  1  0
  7  8  1  0
  8  9  2  0
  8 10  1  0
 10 11  1  0
 11 12  1  0
 12 13  2  0
 13 14  1  0
 14 15  1  0
 14 16  2  0
 16 17  1  0
 17 18  1  0
 18 19  1  0
 18 20  1  0
 18 21  1  0
 17 22  2  0
 22 23  1  0
 23 24  3  0
  6 25  2  0
 25  2  1  0
 22 12  1  0
  1 26  1  0
  1 27  1  0
  1 28  1  0
  3 29  1  0
  4 30  1  0
  5 31  1  0
  7 32  1  0
 10 33  1  0
 10 34  1  0
 15 35  1  0
 15 36  1  0
 15 37  1  0
 16 38  1  0
M  END
>  <Binding energies>  (1) 
[-7.45]

>  <Ligand effiencies>  (1) 
[-0.2865384615384615]

>  <Interactions>  (1) 
["V-B:GLU:543:CB:9877, V-B:TYR:539:CD2:9845, V-A:HIS:456:CE1:4069, V-A:GLU:543:CD:4907, V-B:TYR:539:CE2:9847, V-B:GLU:543:CD:9879, V-B:TYR:539:CG:9843, V-B:GLU:543:CG:9878, V-A:TYR:484:CZ:4346, H-A:ARG:545:NE:4923, V-A:ILE:369:CG2:3236, V-A:ARG:545:CZ:4925, V-A:SER:385:CA:3406, H-A:ARG:545:NH1:4926, V-A:SER:385:CB:3408, V-A:ARG:545:CD:4922, V-A:TYR:484:CE2:4345, H-A:GLY:454:N:4049, V-A:ARG:545:CG:4921, V-A:ILE:369:CD1:3238, V-A:LEU:475:CD2:4258, V-A:HIS:383:CE1:3393, V-A:PRO:482:CG:4326, V-B:TYR:539:CB:9842, H-A:TYR:484:OH:4347, V-A:PRO:482:CB:4325, V-A:LEU:373:CD2:3280, V-A:GLY:453:C:4041, V-A:GLY:453:CA:4043, V-A:GLY:454:CA:4048, V-A:LEU:373:CG:3278, V-A:ARG:545:CB:4920, V-A:SER:385:C:3404, H-A:SER:385:O:3405, V-A:ILE:455:C:4051"]

$$$$
2f_Grossjean_2025
     RDKit          3D

 35 36  0  0  0  0  0  0  0  0999 V2000
  133.9670  124.1900   61.8440 C   0  0  0  0  0  0  0  0  0  0  0  0
  133.1280  122.9290   61.7560 C   0  0  0  0  0  0  0  0  0  0  0  0
  133.6210  121.7630   61.1750 C   0  0  0  0  0  0  0  0  0  0  0  0
  132.8040  120.6250   61.1110 C   0  0  0  0  0  0  0  0  0  0  0  0
  133.3630  119.3490   60.4530 C   0  0  0  0  0  0  0  0  0  0  0  0
  134.6760  119.4760   60.2500 F   0  0  0  0  0  0  0  0  0  0  0  0
  133.1490  118.2980   61.2450 F   0  0  0  0  0  0  0  0  0  0  0  0
  132.8000  119.0850   59.2720 F   0  0  0  0  0  0  0  0  0  0  0  0
  131.4940  120.6990   61.6500 C   0  0  0  0  0  0  0  0  0  0  0  0
  130.5830  119.5550   61.5560 C   0  0  0  0  0  0  0  0  0  0  0  0
  129.8640  118.6510   61.4820 N   0  0  0  0  0  0  0  0  0  0  0  0
  131.0870  121.9170   62.2450 C   0  0  0  0  0  0  0  0  0  0  0  0
  129.4860  122.1850   62.9800 S   0  0  0  0  0  0  0  0  0  0  0  0
  128.6880  123.5760   62.1080 C   0  0  0  0  0  0  0  0  0  0  0  0
  127.5840  123.1760   61.1190 C   0  0  0  0  0  0  0  0  0  0  0  0
  126.5020  122.7480   61.5250 O   0  0  0  0  0  0  0  0  0  0  0  0
  127.9180  123.3190   59.8190 N   0  0  0  0  0  0  0  0  0  0  0  0
  127.1540  123.0600   58.6650 C   0  0  0  0  0  0  0  0  0  0  0  0
  125.8220  123.4650   58.4600 C   0  0  0  0  0  0  0  0  0  0  0  0
  125.1790  123.1460   57.2620 C   0  0  0  0  0  0  0  0  0  0  0  0
  125.8870  122.4320   56.2940 C   0  0  0  0  0  0  0  0  0  0  0  0
  127.1740  122.0370   56.4640 N   0  0  0  0  0  0  0  0  0  0  0  0
  127.7850  122.3560   57.6330 C   0  0  0  0  0  0  0  0  0  0  0  0
  131.8830  123.0140   62.2780 N   0  0  0  0  0  0  0  0  0  0  0  0
  134.1364  124.4447   62.9006 H   0  0  0  0  0  0  0  0  0  0  0  0
  134.9342  124.0223   61.3476 H   0  0  0  0  0  0  0  0  0  0  0  0
  133.4387  125.0173   61.3476 H   0  0  0  0  0  0  0  0  0  0  0  0
  134.6432  121.7350   60.7696 H   0  0  0  0  0  0  0  0  0  0  0  0
  128.2446  124.2422   62.8627 H   0  0  0  0  0  0  0  0  0  0  0  0
  129.4766  124.0560   61.5098 H   0  0  0  0  0  0  0  0  0  0  0  0
  128.8620  123.6250   59.6310 H   0  0  0  0  0  0  0  0  0  0  0  0
  125.2899  124.0300   59.2395 H   0  0  0  0  0  0  0  0  0  0  0  0
  124.1370  123.4509   57.0851 H   0  0  0  0  0  0  0  0  0  0  0  0
  125.3793  122.1783   55.3517 H   0  0  0  0  0  0  0  0  0  0  0  0
  128.8303  122.0452   57.7769 H   0  0  0  0  0  0  0  0  0  0  0  0
  1  2  1  0
  2  3  2  0
  3  4  1  0
  4  5  1  0
  5  6  1  0
  5  7  1  0
  5  8  1  0
  4  9  2  0
  9 10  1  0
 10 11  3  0
  9 12  1  0
 12 13  1  0
 13 14  1  0
 14 15  1  0
 15 16  2  0
 15 17  1  0
 17 18  1  0
 18 19  2  0
 19 20  1  0
 20 21  2  0
 21 22  1  0
 22 23  2  0
 12 24  2  0
 24  2  1  0
 23 18  1  0
  1 25  1  0
  1 26  1  0
  1 27  1  0
  3 28  1  0
 14 29  1  0
 14 30  1  0
 17 31  1  0
 19 32  1  0
 20 33  1  0
 21 34  1  0
 23 35  1  0
M  END
>  <Binding energies>  (1) 
[-7.18]

>  <Ligand effiencies>  (1) 
[-0.2872]

>  <Interactions>  (1) 
["V-B:PRO:540:CD:9858, V-B:PRO:540:N:9855, H-B:TYR:539:N:9841, V-B:LEU:363:CD1:8159, V-B:MET:535:CE:9806, V-B:TYR:539:CD2:9845, V-B:TYR:539:CZ:9848, V-B:TYR:539:C:9838, V-B:TYR:539:CD1:9844, V-B:PRO:540:CB:9856, V-B:TYR:539:CE2:9847, V-B:TYR:539:CG:9843, V-A:ASP:366:CG:3212, V-A:VAL:384:C:3396, V-A:ILE:369:CG2:3236, V-A:SER:385:CA:3406, V-A:SER:385:CB:3408, V-B:ALA:541:CB:9863, V-A:ILE:369:CD1:3238, V-A:LEU:475:CD2:4258, V-B:PRO:540:CA:9854, H-B:ALA:541:N:9862, V-A:LEU:373:CD2:3280, V-A:LEU:373:CG:3278, V-B:TYR:539:CA:9840, V-A:SER:385:C:3404, V-B:ILE:538:CA:9831"]

$$$$
2g_Grossjean_2025
     RDKit          3D

 39 40  0  0  0  0  0  0  0  0999 V2000
  135.3530  125.7460   67.1280 C   0  0  0  0  0  0  0  0  0  0  0  0
  134.0120  125.7990   66.4200 C   0  0  0  0  0  0  0  0  0  0  0  0
  132.8870  126.3490   67.0300 C   0  0  0  0  0  0  0  0  0  0  0  0
  131.6670  126.3680   66.3370 C   0  0  0  0  0  0  0  0  0  0  0  0
  130.4310  126.9730   67.0310 C   0  0  0  0  0  0  0  0  0  0  0  0
  129.6960  126.0090   67.5880 F   0  0  0  0  0  0  0  0  0  0  0  0
  130.8180  127.8250   67.9800 F   0  0  0  0  0  0  0  0  0  0  0  0
  129.6410  127.6410   66.1880 F   0  0  0  0  0  0  0  0  0  0  0  0
  131.6230  125.8290   65.0250 C   0  0  0  0  0  0  0  0  0  0  0  0
  130.3630  125.7730   64.2800 C   0  0  0  0  0  0  0  0  0  0  0  0
  129.3670  125.7290   63.6930 N   0  0  0  0  0  0  0  0  0  0  0  0
  132.8240  125.3190   64.4750 C   0  0  0  0  0  0  0  0  0  0  0  0
  132.9530  124.6300   62.8390 S   0  0  0  0  0  0  0  0  0  0  0  0
  133.2990  122.8480   63.0200 C   0  0  0  0  0  0  0  0  0  0  0  0
  133.1160  122.0250   61.7370 C   0  0  0  0  0  0  0  0  0  0  0  0
  132.3460  122.3880   60.8460 O   0  0  0  0  0  0  0  0  0  0  0  0
  133.8440  120.8950   61.6660 N   0  0  0  0  0  0  0  0  0  0  0  0
  133.8460  119.9550   60.5440 C   0  0  0  0  0  0  0  0  0  0  0  0
  132.6270  119.0400   60.4890 C   0  0  0  0  0  0  0  0  0  0  0  0
  132.5160  118.0900   59.4690 C   0  0  0  0  0  0  0  0  0  0  0  0
  131.4230  117.2270   59.4380 C   0  0  0  0  0  0  0  0  0  0  0  0
  130.4510  117.3100   60.4320 C   0  0  0  0  0  0  0  0  0  0  0  0
  130.5630  118.2460   61.4590 C   0  0  0  0  0  0  0  0  0  0  0  0
  131.6560  119.1080   61.4910 C   0  0  0  0  0  0  0  0  0  0  0  0
  133.9890  125.2880   65.1690 N   0  0  0  0  0  0  0  0  0  0  0  0
  135.1935  125.7523   68.2164 H   0  0  0  0  0  0  0  0  0  0  0  0
  135.8833  124.8262   66.8405 H   0  0  0  0  0  0  0  0  0  0  0  0
  135.9543  126.6211   66.8405 H   0  0  0  0  0  0  0  0  0  0  0  0
  132.9544  126.7648   68.0461 H   0  0  0  0  0  0  0  0  0  0  0  0
  134.3406  122.7336   63.3548 H   0  0  0  0  0  0  0  0  0  0  0  0
  132.5666  122.4615   63.7440 H   0  0  0  0  0  0  0  0  0  0  0  0
  134.4720  120.6790   62.4260 H   0  0  0  0  0  0  0  0  0  0  0  0
  133.8844  120.5341   59.6096 H   0  0  0  0  0  0  0  0  0  0  0  0
  134.7223  119.3041   60.6802 H   0  0  0  0  0  0  0  0  0  0  0  0
  133.2914  118.0242   58.6915 H   0  0  0  0  0  0  0  0  0  0  0  0
  131.3281  116.4838   58.6326 H   0  0  0  0  0  0  0  0  0  0  0  0
  129.5865  116.6303   60.4065 H   0  0  0  0  0  0  0  0  0  0  0  0
  129.7912  118.3033   62.2407 H   0  0  0  0  0  0  0  0  0  0  0  0
  131.7548  119.8418   62.3045 H   0  0  0  0  0  0  0  0  0  0  0  0
  1  2  1  0
  2  3  2  0
  3  4  1  0
  4  5  1  0
  5  6  1  0
  5  7  1  0
  5  8  1  0
  4  9  2  0
  9 10  1  0
 10 11  3  0
  9 12  1  0
 12 13  1  0
 13 14  1  0
 14 15  1  0
 15 16  2  0
 15 17  1  0
 17 18  1  0
 18 19  1  0
 19 20  2  0
 20 21  1  0
 21 22  2  0
 22 23  1  0
 23 24  2  0
 12 25  2  0
 25  2  1  0
 24 19  1  0
  1 26  1  0
  1 27  1  0
  1 28  1  0
  3 29  1  0
 14 30  1  0
 14 31  1  0
 17 32  1  0
 18 33  1  0
 18 34  1  0
 20 35  1  0
 21 36  1  0
 22 37  1  0
 23 38  1  0
 24 39  1  0
M  END
>  <Binding energies>  (1) 
[-7.5]

>  <Ligand effiencies>  (1) 
[-0.28846153846153844]

>  <Interactions>  (1) 
["V-B:GLU:543:CB:9877, V-A:GLU:543:CB:4905, V-B:TYR:539:CD2:9845, V-A:HIS:456:CE1:4069, V-B:TYR:539:C:9838, V-A:GLU:543:CD:4907, V-B:GLU:543:CD:9879, V-B:TYR:539:CG:9843, V-B:GLU:543:CG:9878, V-A:ILE:369:CG2:3236, V-A:ARG:545:CZ:4925, V-A:SER:385:CA:3406, V-A:SER:385:CB:3408, V-A:ARG:545:CD:4922, V-A:TYR:484:CE2:4345, H-A:GLY:454:N:4049, V-B:ALA:541:CB:9863, V-A:ARG:545:CG:4921, V-A:ILE:369:CD1:3238, V-A:LEU:475:CD2:4258, V-A:HIS:383:CE1:3393, V-A:PRO:482:CG:4326, V-B:TYR:539:CB:9842, H-A:TYR:484:OH:4347, V-A:PRO:482:CB:4325, V-A:GLY:453:C:4041, V-A:GLY:453:CA:4043, V-A:GLY:454:CA:4048, V-B:VAL:344:CG1:7971, V-A:ARG:545:CB:4920, V-A:SER:385:C:3404, H-A:SER:385:O:3405, V-A:ILE:455:C:4051"]

$$$$
2h_Grossjean_2025
     RDKit          3D

 51 52  0  0  0  0  0  0  0  0999 V2000
  127.9470  122.7640   59.0960 C   0  0  0  0  0  0  0  0  0  0  0  0
  127.9900  122.3010   60.4410 O   0  0  0  0  0  0  0  0  0  0  0  0
  129.1170  122.5410   61.2060 C   0  0  0  0  0  0  0  0  0  0  0  0
  130.4220  122.5740   60.6900 C   0  0  0  0  0  0  0  0  0  0  0  0
  131.5090  122.8310   61.5220 C   0  0  0  0  0  0  0  0  0  0  0  0
  131.3190  123.0600   62.8860 C   0  0  0  0  0  0  0  0  0  0  0  0
  132.5240  123.3600   63.7750 C   0  0  0  0  0  0  0  0  0  0  0  0
  132.2250  124.2650   64.8840 N   0  0  0  0  0  0  0  0  0  0  0  0
  132.9600  125.3390   65.2230 C   0  0  0  0  0  0  0  0  0  0  0  0
  134.0250  125.6280   64.6740 O   0  0  0  0  0  0  0  0  0  0  0  0
  132.3840  126.2090   66.3480 C   0  0  0  0  0  0  0  0  0  0  0  0
  130.6890  125.7760   66.8660 S   0  0  0  0  0  0  0  0  0  0  0  0
  129.9090  127.2890   67.3870 C   0  0  0  0  0  0  0  0  0  0  0  0
  129.9940  127.5150   68.7210 N   0  0  0  0  0  0  0  0  0  0  0  0
  129.4180  128.6270   69.2280 C   0  0  0  0  0  0  0  0  0  0  0  0
  129.5450  128.8110   70.7280 C   0  0  0  0  0  0  0  0  0  0  0  0
  128.7450  129.5550   68.4340 C   0  0  0  0  0  0  0  0  0  0  0  0
  128.6650  129.3480   67.0480 C   0  0  0  0  0  0  0  0  0  0  0  0
  127.9250  130.3890   66.1860 C   0  0  0  0  0  0  0  0  0  0  0  0
  127.9010  131.5650   66.8130 F   0  0  0  0  0  0  0  0  0  0  0  0
  128.5040  130.5800   64.9980 F   0  0  0  0  0  0  0  0  0  0  0  0
  126.6720  129.9920   65.9630 F   0  0  0  0  0  0  0  0  0  0  0  0
  129.2710  128.1890   66.5000 C   0  0  0  0  0  0  0  0  0  0  0  0
  129.2660  127.9570   65.0530 C   0  0  0  0  0  0  0  0  0  0  0  0
  129.2640  127.7780   63.9100 N   0  0  0  0  0  0  0  0  0  0  0  0
  130.0220  123.0070   63.4200 C   0  0  0  0  0  0  0  0  0  0  0  0
  129.8270  123.2290   64.7630 O   0  0  0  0  0  0  0  0  0  0  0  0
  129.3350  122.1020   65.4780 C   0  0  0  0  0  0  0  0  0  0  0  0
  128.9250  122.7670   62.5760 C   0  0  0  0  0  0  0  0  0  0  0  0
  127.6520  122.7330   63.0930 O   0  0  0  0  0  0  0  0  0  0  0  0
  126.9370  123.9540   62.9580 C   0  0  0  0  0  0  0  0  0  0  0  0
  127.8453  123.8593   59.0883 H   0  0  0  0  0  0  0  0  0  0  0  0
  128.8755  122.4784   58.5800 H   0  0  0  0  0  0  0  0  0  0  0  0
  127.0869  122.3123   58.5800 H   0  0  0  0  0  0  0  0  0  0  0  0
  130.5879  122.3950   59.6174 H   0  0  0  0  0  0  0  0  0  0  0  0
  132.5250  122.8537   61.1011 H   0  0  0  0  0  0  0  0  0  0  0  0
  132.8936  122.4111   64.1910 H   0  0  0  0  0  0  0  0  0  0  0  0
  133.2726  123.8611   63.1438 H   0  0  0  0  0  0  0  0  0  0  0  0
  131.3460  124.1120   65.3590 H   0  0  0  0  0  0  0  0  0  0  0  0
  133.0430  126.1149   67.2237 H   0  0  0  0  0  0  0  0  0  0  0  0
  132.3316  127.2328   65.9490 H   0  0  0  0  0  0  0  0  0  0  0  0
  128.9930  128.0113   71.2435 H   0  0  0  0  0  0  0  0  0  0  0  0
  130.6062  128.7674   71.0142 H   0  0  0  0  0  0  0  0  0  0  0  0
  129.1279  129.7878   71.0142 H   0  0  0  0  0  0  0  0  0  0  0  0
  128.2807  130.4418   68.8900 H   0  0  0  0  0  0  0  0  0  0  0  0
  129.4167  122.2892   66.5589 H   0  0  0  0  0  0  0  0  0  0  0  0
  128.2808  121.9320   65.2140 H   0  0  0  0  0  0  0  0  0  0  0  0
  129.9270  121.2133   65.2140 H   0  0  0  0  0  0  0  0  0  0  0  0
  126.7028  124.3540   63.9556 H   0  0  0  0  0  0  0  0  0  0  0  0
  127.5525  124.6803   62.4070 H   0  0  0  0  0  0  0  0  0  0  0  0
  126.0024  123.7726   62.4070 H   0  0  0  0  0  0  0  0  0  0  0  0
  1  2  1  0
  2  3  1  0
  3  4  2  0
  4  5  1  0
  5  6  2  0
  6  7  1  0
  7  8  1  0
  8  9  1  0
  9 10  2  0
  9 11  1  0
 11 12  1  0
 12 13  1  0
 13 14  2  0
 14 15  1  0
 15 16  1  0
 15 17  2  0
 17 18  1  0
 18 19  1  0
 19 20  1  0
 19 21  1  0
 19 22  1  0
 18 23  2  0
 23 24  1  0
 24 25  3  0
  6 26  1  0
 26 27  1  0
 27 28  1  0
 26 29  2  0
 29 30  1  0
 30 31  1  0
 29  3  1  0
 23 13  1  0
  1 32  1  0
  1 33  1  0
  1 34  1  0
  4 35  1  0
  5 36  1  0
  7 37  1  0
  7 38  1  0
  8 39  1  0
 11 40  1  0
 11 41  1  0
 16 42  1  0
 16 43  1  0
 16 44  1  0
 17 45  1  0
 28 46  1  0
 28 47  1  0
 28 48  1  0
 31 49  1  0
 31 50  1  0
 31 51  1  0
M  END
>  <Binding energies>  (1) 
[-5.55]

>  <Ligand effiencies>  (1) 
[-0.1734375]

>  <Interactions>  (1) 
["V-B:PRO:540:N:9855, V-A:GLU:543:CB:4905, V-B:TYR:539:CD2:9845, V-B:HIS:456:CE1:9040, V-A:HIS:456:CE1:4069, V-B:TYR:539:C:9838, V-A:GLU:543:CD:4907, V-A:GLU:543:CG:4906, V-B:TYR:539:CE2:9847, V-B:GLU:543:CD:9879, V-B:GLU:543:CG:9878, V-A:TYR:484:CZ:4346, H-A:ARG:545:NE:4923, V-A:ARG:545:CZ:4925, H-A:ARG:545:NH1:4926, V-A:TYR:484:CE2:4345, H-A:GLY:454:N:4049, V-B:ALA:541:CB:9863, H-A:ARG:545:NH2:4927, V-A:LEU:475:CD2:4258, V-A:LEU:475:CD1:4257, V-B:PRO:540:CA:9854, H-A:TYR:484:OH:4347, H-B:ALA:541:N:9862, V-A:GLY:454:CA:4048, V-B:TYR:484:CZ:9317, V-B:TYR:484:CE2:9316"]

$$$$
2i_Grossjean_2025
     RDKit          3D

 32 33  0  0  0  0  0  0  0  0999 V2000
  128.9900  122.4120   62.7100 C   0  0  0  0  0  0  0  0  0  0  0  0
  130.0720  121.5980   62.0260 C   0  0  0  0  0  0  0  0  0  0  0  0
  129.9580  120.2190   61.8700 C   0  0  0  0  0  0  0  0  0  0  0  0
  130.9850  119.5110   61.2280 C   0  0  0  0  0  0  0  0  0  0  0  0
  130.8440  117.9860   61.0640 C   0  0  0  0  0  0  0  0  0  0  0  0
  129.6380  117.5920   61.4770 F   0  0  0  0  0  0  0  0  0  0  0  0
  130.9950  117.6460   59.7840 F   0  0  0  0  0  0  0  0  0  0  0  0
  131.7510  117.3050   61.7690 F   0  0  0  0  0  0  0  0  0  0  0  0
  132.1120  120.2310   60.7560 C   0  0  0  0  0  0  0  0  0  0  0  0
  133.2140  119.5420   60.0770 C   0  0  0  0  0  0  0  0  0  0  0  0
  134.0840  118.9980   59.5410 N   0  0  0  0  0  0  0  0  0  0  0  0
  132.1460  121.6300   60.9590 C   0  0  0  0  0  0  0  0  0  0  0  0
  133.5160  122.6390   60.4160 S   0  0  0  0  0  0  0  0  0  0  0  0
  133.3020  124.3050   61.1120 C   0  0  0  0  0  0  0  0  0  0  0  0
  133.3910  124.3120   62.6390 C   0  0  0  0  0  0  0  0  0  0  0  0
  133.6200  123.2550   63.2300 O   0  0  0  0  0  0  0  0  0  0  0  0
  133.1810  125.5050   63.2350 N   0  0  0  0  0  0  0  0  0  0  0  0
  133.1910  125.7630   64.5960 C   0  0  0  0  0  0  0  0  0  0  0  0
  132.1360  126.0810   65.4630 C   0  0  0  0  0  0  0  0  0  0  0  0
  132.7280  126.2270   66.6960 C   0  0  0  0  0  0  0  0  0  0  0  0
  134.0590  126.0030   66.5780 O   0  0  0  0  0  0  0  0  0  0  0  0
  134.3350  125.7040   65.2420 N   0  0  0  0  0  0  0  0  0  0  0  0
  131.1400  122.2970   61.5820 N   0  0  0  0  0  0  0  0  0  0  0  0
  129.1022  122.3276   63.8010 H   0  0  0  0  0  0  0  0  0  0  0  0
  129.0816  123.4670   62.4125 H   0  0  0  0  0  0  0  0  0  0  0  0
  128.0017  122.0316   62.4125 H   0  0  0  0  0  0  0  0  0  0  0  0
  129.0705  119.6895   62.2468 H   0  0  0  0  0  0  0  0  0  0  0  0
  134.0880  124.9605   60.7088 H   0  0  0  0  0  0  0  0  0  0  0  0
  132.2995  124.6606   60.8317 H   0  0  0  0  0  0  0  0  0  0  0  0
  132.9620  126.2930   62.6440 H   0  0  0  0  0  0  0  0  0  0  0  0
  131.0704  126.1897   65.2125 H   0  0  0  0  0  0  0  0  0  0  0  0
  132.2046  126.4844   67.6286 H   0  0  0  0  0  0  0  0  0  0  0  0
  1  2  1  0
  2  3  2  0
  3  4  1  0
  4  5  1  0
  5  6  1  0
  5  7  1  0
  5  8  1  0
  4  9  2  0
  9 10  1  0
 10 11  3  0
  9 12  1  0
 12 13  1  0
 13 14  1  0
 14 15  1  0
 15 16  2  0
 15 17  1  0
 17 18  1  0
 18 19  1  0
 19 20  2  0
 20 21  1  0
 21 22  1  0
 12 23  2  0
 23  2  1  0
 22 18  2  0
  1 24  1  0
  1 25  1  0
  1 26  1  0
  3 27  1  0
 14 28  1  0
 14 29  1  0
 17 30  1  0
 19 31  1  0
 20 32  1  0
M  END
>  <Binding energies>  (1) 
[-6.81]

>  <Ligand effiencies>  (1) 
[-0.28375]

>  <Interactions>  (1) 
["V-B:TYR:539:CD2:9845, V-B:TYR:539:C:9838, V-B:TYR:539:CE2:9847, V-B:TYR:539:CG:9843, V-A:ASP:366:CG:3212, H-A:ARG:545:NE:4923, V-A:ILE:369:CG2:3236, V-A:ARG:545:CZ:4925, V-A:SER:385:CA:3406, H-A:ARG:545:NH1:4926, V-A:SER:385:CB:3408, V-A:ARG:545:CD:4922, H-A:GLY:454:N:4049, V-B:ALA:541:CB:9863, H-A:ARG:545:NH2:4927, V-A:ARG:545:CG:4921, V-A:ILE:369:CD1:3238, V-A:LEU:475:CD2:4258, V-B:ALA:541:CA:9861, V-A:HIS:383:CE1:3393, V-A:PRO:482:CG:4326, V-B:TYR:539:CB:9842, H-A:TYR:484:OH:4347, V-A:PRO:482:CB:4325, H-A:ASP:366:OD1:3213, H-A:ASP:366:OD2:3214, V-A:THR:477:CG2:4272"]

$$$$
2j_Grossjean_2025
     RDKit          3D

 32 33  0  0  0  0  0  0  0  0999 V2000
  133.6870  126.0270   66.9620 C   0  0  0  0  0  0  0  0  0  0  0  0
  133.0200  125.8540   65.6110 C   0  0  0  0  0  0  0  0  0  0  0  0
  131.8120  126.4780   65.3090 C   0  0  0  0  0  0  0  0  0  0  0  0
  131.2350  126.2910   64.0440 C   0  0  0  0  0  0  0  0  0  0  0  0
  129.9000  126.9900   63.7260 C   0  0  0  0  0  0  0  0  0  0  0  0
  130.0720  127.8800   62.7480 F   0  0  0  0  0  0  0  0  0  0  0  0
  128.9940  126.0900   63.3380 F   0  0  0  0  0  0  0  0  0  0  0  0
  129.3950  127.6390   64.7770 F   0  0  0  0  0  0  0  0  0  0  0  0
  131.9080  125.4640   63.1100 C   0  0  0  0  0  0  0  0  0  0  0  0
  131.3510  125.2320   61.7730 C   0  0  0  0  0  0  0  0  0  0  0  0
  130.9120  125.0500   60.7180 N   0  0  0  0  0  0  0  0  0  0  0  0
  133.1310  124.8680   63.5010 C   0  0  0  0  0  0  0  0  0  0  0  0
  134.0650  123.8100   62.4060 S   0  0  0  0  0  0  0  0  0  0  0  0
  133.9460  122.0960   63.0230 C   0  0  0  0  0  0  0  0  0  0  0  0
  133.0790  121.1600   62.1670 C   0  0  0  0  0  0  0  0  0  0  0  0
  131.8500  121.2540   62.1800 O   0  0  0  0  0  0  0  0  0  0  0  0
  133.7710  120.2550   61.4390 N   0  0  0  0  0  0  0  0  0  0  0  0
  133.2410  119.2980   60.5850 C   0  0  0  0  0  0  0  0  0  0  0  0
  133.6130  119.0200   59.3540 N   0  0  0  0  0  0  0  0  0  0  0  0
  132.8890  118.0470   58.8360 C   0  0  0  0  0  0  0  0  0  0  0  0
  131.9000  117.5120   59.6560 C   0  0  0  0  0  0  0  0  0  0  0  0
  131.9280  118.3370   61.1860 S   0  0  0  0  0  0  0  0  0  0  0  0
  133.6740  125.0640   64.7300 N   0  0  0  0  0  0  0  0  0  0  0  0
  132.9540  125.8369   67.7598 H   0  0  0  0  0  0  0  0  0  0  0  0
  134.5209  125.3154   67.0530 H   0  0  0  0  0  0  0  0  0  0  0  0
  134.0699  127.0542   67.0530 H   0  0  0  0  0  0  0  0  0  0  0  0
  131.3141  127.1127   66.0568 H   0  0  0  0  0  0  0  0  0  0  0  0
  134.9621  121.6768   63.0659 H   0  0  0  0  0  0  0  0  0  0  0  0
  133.4580  122.1551   64.0070 H   0  0  0  0  0  0  0  0  0  0  0  0
  134.7770  120.2650   61.5170 H   0  0  0  0  0  0  0  0  0  0  0  0
  133.0574  117.6789   57.8132 H   0  0  0  0  0  0  0  0  0  0  0  0
  131.2121  116.6990   59.3807 H   0  0  0  0  0  0  0  0  0  0  0  0
  1  2  1  0
  2  3  2  0
  3  4  1  0
  4  5  1  0
  5  6  1  0
  5  7  1  0
  5  8  1  0
  4  9  2  0
  9 10  1  0
 10 11  3  0
  9 12  1  0
 12 13  1  0
 13 14  1  0
 14 15  1  0
 15 16  2  0
 15 17  1  0
 17 18  1  0
 18 19  2  0
 19 20  1  0
 20 21  2  0
 21 22  1  0
 12 23  2  0
 23  2  1  0
 22 18  1  0
  1 24  1  0
  1 25  1  0
  1 26  1  0
  3 27  1  0
 14 28  1  0
 14 29  1  0
 17 30  1  0
 20 31  1  0
 21 32  1  0
M  END
>  <Binding energies>  (1) 
[-6.34]

>  <Ligand effiencies>  (1) 
[-0.26416666666666666]

>  <Interactions>  (1) 
["V-B:TYR:539:CD2:9845, V-A:GLU:543:CD:4907, V-B:GLU:543:CD:9879, V-B:TYR:539:CG:9843, V-A:ILE:369:CG2:3236, V-A:ARG:545:CZ:4925, V-A:SER:385:CA:3406, V-A:SER:385:CB:3408, V-A:ARG:545:CD:4922, H-A:GLY:454:N:4049, V-A:ARG:545:CG:4921, V-A:ILE:369:CD1:3238, V-A:LEU:475:CD2:4258, V-A:HIS:383:CE1:3393, V-B:TYR:539:CB:9842, H-A:TYR:484:OH:4347, V-A:LEU:373:CD2:3280, V-A:GLY:454:CA:4048, V-A:LEU:373:CG:3278, V-A:SER:385:C:3404, H-A:SER:385:O:3405, V-A:LEU:373:CD1:3279"]

$$$$
2k_Grossjean_2025
     RDKit          3D

 50 50  0  0  0  0  0  0  0  0999 V2000
  129.0040  122.7320   64.3200 C   0  0  0  0  0  0  0  0  0  0  0  0
  128.0640  122.8460   63.2630 O   0  0  0  0  0  0  0  0  0  0  0  0
  127.6580  124.1840   63.0070 C   0  0  0  0  0  0  0  0  0  0  0  0
  126.1660  124.2140   62.6510 C   0  0  0  0  0  0  0  0  0  0  0  0
  125.6790  122.8820   62.5880 O   0  0  0  0  0  0  0  0  0  0  0  0
  124.2600  122.7780   62.5800 C   0  0  0  0  0  0  0  0  0  0  0  0
  123.7100  123.7420   61.5200 C   0  0  0  0  0  0  0  0  0  0  0  0
  124.4580  123.5530   60.3300 O   0  0  0  0  0  0  0  0  0  0  0  0
  123.7740  123.8740   59.1280 C   0  0  0  0  0  0  0  0  0  0  0  0
  124.7610  123.7780   57.9500 C   0  0  0  0  0  0  0  0  0  0  0  0
  126.1170  123.4160   58.3680 N   0  0  0  0  0  0  0  0  0  0  0  0
  127.0120  122.7380   57.6240 C   0  0  0  0  0  0  0  0  0  0  0  0
  126.7900  122.3640   56.4710 O   0  0  0  0  0  0  0  0  0  0  0  0
  128.3500  122.4260   58.3110 C   0  0  0  0  0  0  0  0  0  0  0  0
  128.4060  122.7640   60.1050 S   0  0  0  0  0  0  0  0  0  0  0  0
  129.9860  122.2400   60.7580 C   0  0  0  0  0  0  0  0  0  0  0  0
  130.1650  120.8980   60.8600 N   0  0  0  0  0  0  0  0  0  0  0  0
  131.3350  120.4300   61.3500 C   0  0  0  0  0  0  0  0  0  0  0  0
  131.4530  118.9220   61.4430 C   0  0  0  0  0  0  0  0  0  0  0  0
  132.3720  121.2700   61.7460 C   0  0  0  0  0  0  0  0  0  0  0  0
  132.2120  122.6600   61.6420 C   0  0  0  0  0  0  0  0  0  0  0  0
  133.3730  123.5750   62.0800 C   0  0  0  0  0  0  0  0  0  0  0  0
  134.3800  122.9000   62.6370 F   0  0  0  0  0  0  0  0  0  0  0  0
  133.8620  124.2280   61.0250 F   0  0  0  0  0  0  0  0  0  0  0  0
  132.9410  124.4630   62.9760 F   0  0  0  0  0  0  0  0  0  0  0  0
  130.9870  123.1650   61.1370 C   0  0  0  0  0  0  0  0  0  0  0  0
  130.7640  124.6090   61.0110 C   0  0  0  0  0  0  0  0  0  0  0  0
  130.5890  125.7490   60.9100 N   0  0  0  0  0  0  0  0  0  0  0  0
  128.4800  122.7955   65.2851 H   0  0  0  0  0  0  0  0  0  0  0  0
  129.5222  121.7644   64.2471 H   0  0  0  0  0  0  0  0  0  0  0  0
  129.7384  123.5477   64.2471 H   0  0  0  0  0  0  0  0  0  0  0  0
  127.8320  124.7966   63.9039 H   0  0  0  0  0  0  0  0  0  0  0  0
  128.2409  124.5862   62.1653 H   0  0  0  0  0  0  0  0  0  0  0  0
  125.6142  124.7724   63.4215 H   0  0  0  0  0  0  0  0  0  0  0  0
  126.0260  124.7073   61.6778 H   0  0  0  0  0  0  0  0  0  0  0  0
  123.9643  121.7474   62.3341 H   0  0  0  0  0  0  0  0  0  0  0  0
  123.8565  123.0349   63.5705 H   0  0  0  0  0  0  0  0  0  0  0  0
  122.6480  123.5252   61.3325 H   0  0  0  0  0  0  0  0  0  0  0  0
  123.7965  124.7825   61.8662 H   0  0  0  0  0  0  0  0  0  0  0  0
  122.9460  123.1663   58.9743 H   0  0  0  0  0  0  0  0  0  0  0  0
  123.3687  124.8946   59.1917 H   0  0  0  0  0  0  0  0  0  0  0  0
  124.3952  123.0147   57.2475 H   0  0  0  0  0  0  0  0  0  0  0  0
  124.8148  124.7729   57.4838 H   0  0  0  0  0  0  0  0  0  0  0  0
  126.3860  123.6990   59.2990 H   0  0  0  0  0  0  0  0  0  0  0  0
  128.5686  121.3586   58.1596 H   0  0  0  0  0  0  0  0  0  0  0  0
  129.0905  123.0978   57.8524 H   0  0  0  0  0  0  0  0  0  0  0  0
  131.4766  118.6206   62.5006 H   0  0  0  0  0  0  0  0  0  0  0  0
  130.5886  118.4553   60.9479 H   0  0  0  0  0  0  0  0  0  0  0  0
  132.3794  118.5955   60.9479 H   0  0  0  0  0  0  0  0  0  0  0  0
  133.3092  120.8475   62.1373 H   0  0  0  0  0  0  0  0  0  0  0  0
  1  2  1  0
  2  3  1  0
  3  4  1  0
  4  5  1  0
  5  6  1  0
  6  7  1  0
  7  8  1  0
  8  9  1  0
  9 10  1  0
 10 11  1  0
 11 12  1  0
 12 13  2  0
 12 14  1  0
 14 15  1  0
 15 16  1  0
 16 17  2  0
 17 18  1  0
 18 19  1  0
 18 20  2  0
 20 21  1  0
 21 22  1  0
 22 23  1  0
 22 24  1  0
 22 25  1  0
 21 26  2  0
 26 27  1  0
 27 28  3  0
 26 16  1  0
  1 29  1  0
  1 30  1  0
  1 31  1  0
  3 32  1  0
  3 33  1  0
  4 34  1  0
  4 35  1  0
  6 36  1  0
  6 37  1  0
  7 38  1  0
  7 39  1  0
  9 40  1  0
  9 41  1  0
 10 42  1  0
 10 43  1  0
 11 44  1  0
 14 45  1  0
 14 46  1  0
 19 47  1  0
 19 48  1  0
 19 49  1  0
 20 50  1  0
M  END
>  <Binding energies>  (1) 
[-5.1]

>  <Ligand effiencies>  (1) 
[-0.17586206896551723]

>  <Interactions>  (1) 
["V-B:PRO:540:N:9855, H-B:TYR:539:N:9841, V-B:LEU:363:CD1:8159, V-B:TYR:539:CD2:9845, V-B:ASP:366:CG:8183, V-B:TYR:539:CZ:9848, V-B:TYR:539:C:9838, V-B:PRO:540:CB:9856, V-B:TYR:539:CE2:9847, V-B:GLU:543:CD:9879, V-B:TYR:539:CG:9843, V-A:ASP:366:CG:3212, V-B:GLU:543:CG:9878, V-B:ALA:541:C:9859, V-B:ALA:541:CB:9863, V-A:ILE:369:CD1:3238, V-A:LEU:475:CD2:4258, V-B:PRO:540:CA:9854, H-B:ALA:541:N:9862, V-B:LEU:363:CA:8155, V-B:ASN:362:CB:8146, V-A:GLY:453:C:4041, V-A:GLY:454:CA:4048, V-B:PRO:540:C:9852, V-B:LEU:363:CB:8157, V-B:ASN:362:C:8142"]

$$$$
3aa_Grossjean_2025
     RDKit          3D

 52 54  0  0  0  0  0  0  0  0999 V2000
  131.0200  128.1680   73.5180 C   0  0  0  0  0  0  0  0  0  0  0  0
  129.5980  128.3420   72.9770 C   0  0  0  0  0  0  0  0  0  0  0  0
  129.0160  127.0640   72.7530 O   0  0  0  0  0  0  0  0  0  0  0  0
  128.1340  126.8660   71.7400 C   0  0  0  0  0  0  0  0  0  0  0  0
  126.9230  126.6980   71.9150 O   0  0  0  0  0  0  0  0  0  0  0  0
  128.7790  126.8570   70.3840 C   0  0  0  0  0  0  0  0  0  0  0  0
  129.2050  128.0360   69.7550 C   0  0  0  0  0  0  0  0  0  0  0  0
  129.8050  127.9910   68.4990 C   0  0  0  0  0  0  0  0  0  0  0  0
  129.9960  126.7700   67.8500 C   0  0  0  0  0  0  0  0  0  0  0  0
  130.6150  126.8350   66.5860 N   0  0  0  0  0  0  0  0  0  0  0  0
  130.8730  125.8460   65.7010 C   0  0  0  0  0  0  0  0  0  0  0  0
  130.6180  124.6530   65.8690 O   0  0  0  0  0  0  0  0  0  0  0  0
  131.5500  126.2840   64.4020 C   0  0  0  0  0  0  0  0  0  0  0  0
  133.0510  125.3160   64.0630 S   0  0  0  0  0  0  0  0  0  0  0  0
  132.6810  124.2430   62.6930 C   0  0  0  0  0  0  0  0  0  0  0  0
  132.4680  124.9020   61.5290 N   0  0  0  0  0  0  0  0  0  0  0  0
  132.1730  124.2010   60.4040 C   0  0  0  0  0  0  0  0  0  0  0  0
  131.9660  125.0010   59.1530 C   0  0  0  0  0  0  0  0  0  0  0  0
  130.6800  125.4220   58.7780 C   0  0  0  0  0  0  0  0  0  0  0  0
  130.4800  126.1660   57.6180 C   0  0  0  0  0  0  0  0  0  0  0  0
  131.5660  126.5000   56.8160 C   0  0  0  0  0  0  0  0  0  0  0  0
  132.8500  126.0980   57.1670 C   0  0  0  0  0  0  0  0  0  0  0  0
  133.0480  125.3560   58.3280 C   0  0  0  0  0  0  0  0  0  0  0  0
  132.0940  122.8060   60.4260 C   0  0  0  0  0  0  0  0  0  0  0  0
  132.2930  122.1020   61.6240 C   0  0  0  0  0  0  0  0  0  0  0  0
  132.1860  120.5660   61.6100 C   0  0  0  0  0  0  0  0  0  0  0  0
  132.2160  120.0550   60.3770 F   0  0  0  0  0  0  0  0  0  0  0  0
  133.2000  120.0270   62.2880 F   0  0  0  0  0  0  0  0  0  0  0  0
  131.0390  120.1850   62.1740 F   0  0  0  0  0  0  0  0  0  0  0  0
  132.5840  122.8380   62.7990 C   0  0  0  0  0  0  0  0  0  0  0  0
  132.7440  122.1610   64.0890 C   0  0  0  0  0  0  0  0  0  0  0  0
  132.8700  121.6260   65.1080 N   0  0  0  0  0  0  0  0  0  0  0  0
  129.5600  125.5870   68.4670 C   0  0  0  0  0  0  0  0  0  0  0  0
  128.9600  125.6350   69.7210 C   0  0  0  0  0  0  0  0  0  0  0  0
  130.9968  128.1708   74.6178 H   0  0  0  0  0  0  0  0  0  0  0  0
  131.4332  127.2126   73.1624 H   0  0  0  0  0  0  0  0  0  0  0  0
  131.6514  128.9956   73.1624 H   0  0  0  0  0  0  0  0  0  0  0  0
  128.9928  128.8973   73.7087 H   0  0  0  0  0  0  0  0  0  0  0  0
  129.6320  128.9004   72.0299 H   0  0  0  0  0  0  0  0  0  0  0  0
  129.0640  129.0041   70.2578 H   0  0  0  0  0  0  0  0  0  0  0  0
  130.1305  128.9237   68.0152 H   0  0  0  0  0  0  0  0  0  0  0  0
  130.9510  127.7540   66.3360 H   0  0  0  0  0  0  0  0  0  0  0  0
  130.8438  126.1492   63.5695 H   0  0  0  0  0  0  0  0  0  0  0  0
  131.8406  127.3397   64.5071 H   0  0  0  0  0  0  0  0  0  0  0  0
  129.8182  125.1604   59.4096 H   0  0  0  0  0  0  0  0  0  0  0  0
  129.4665  126.4884   57.3370 H   0  0  0  0  0  0  0  0  0  0  0  0
  131.4082  127.0858   55.8984 H   0  0  0  0  0  0  0  0  0  0  0  0
  133.7059  126.3653   56.5298 H   0  0  0  0  0  0  0  0  0  0  0  0
  134.0657  125.0428   58.6041 H   0  0  0  0  0  0  0  0  0  0  0  0
  131.8745  122.2562   59.4989 H   0  0  0  0  0  0  0  0  0  0  0  0
  129.6930  124.6208   67.9582 H   0  0  0  0  0  0  0  0  0  0  0  0
  128.6234  124.7028   70.1983 H   0  0  0  0  0  0  0  0  0  0  0  0
  1  2  1  0
  2  3  1  0
  3  4  1  0
  4  5  2  0
  4  6  1  0
  6  7  2  0
  7  8  1  0
  8  9  2  0
  9 10  1  0
 10 11  1  0
 11 12  2  0
 11 13  1  0
 13 14  1  0
 14 15  1  0
 15 16  2  0
 16 17  1  0
 17 18  1  0
 18 19  2  0
 19 20  1  0
 20 21  2  0
 21 22  1  0
 22 23  2  0
 17 24  2  0
 24 25  1  0
 25 26  1  0
 26 27  1  0
 26 28  1  0
 26 29  1  0
 25 30  2  0
 30 31  1  0
 31 32  3  0
  9 33  1  0
 33 34  2  0
 34  6  1  0
 30 15  1  0
 23 18  1  0
  1 35  1  0
  1 36  1  0
  1 37  1  0
  2 38  1  0
  2 39  1  0
  7 40  1  0
  8 41  1  0
 10 42  1  0
 13 43  1  0
 13 44  1  0
 19 45  1  0
 20 46  1  0
 21 47  1  0
 22 48  1  0
 23 49  1  0
 24 50  1  0
 33 51  1  0
 34 52  1  0
M  END
>  <Binding energies>  (1) 
[-7.33]

>  <Ligand effiencies>  (1) 
[-0.20942857142857144]

>  <Interactions>  (1) 
["V-B:GLU:543:CB:9877, V-A:GLU:543:CB:4905, V-B:TYR:539:CD2:9845, V-B:HIS:456:CE1:9040, V-A:HIS:456:CE1:4069, V-A:GLU:543:CD:4907, V-B:TYR:539:CE2:9847, V-B:GLU:543:CD:9879, V-A:ASP:366:CG:3212, V-B:GLU:543:C:9873, V-A:ASP:366:CA:3209, V-A:ASP:366:CB:3211, V-A:TYR:531:CZ:4793, V-B:GLU:543:CG:9878, V-A:TYR:484:CZ:4346, V-A:SER:385:CA:3406, V-A:SER:385:CB:3408, V-A:TYR:484:CE2:4345, H-A:GLY:454:N:4049, V-B:ALA:541:CB:9863, H-A:ARG:545:NH2:4927, V-A:LEU:475:CD2:4258, V-A:ASP:366:C:3207, V-A:ASN:370:CB:3244, H-A:TYR:484:OH:4347, V-A:TYR:531:CE1:4791, V-A:GLY:454:CA:4048, V-A:SER:385:C:3404, V-B:GLU:543:CA:9875, H-A:GLU:543:OE1:4908, H-A:GLU:543:OE2:4909"]

$$$$
3ab_Grossjean_2025
     RDKit          3D

 49 51  0  0  0  0  0  0  0  0999 V2000
  131.8270  116.4620   62.3130 C   0  0  0  0  0  0  0  0  0  0  0  0
  132.8780  116.9650   61.5000 O   0  0  0  0  0  0  0  0  0  0  0  0
  132.6160  117.7720   60.4390 C   0  0  0  0  0  0  0  0  0  0  0  0
  132.8880  117.4730   59.2730 O   0  0  0  0  0  0  0  0  0  0  0  0
  131.9580  119.0650   60.8260 C   0  0  0  0  0  0  0  0  0  0  0  0
  130.6420  119.1130   61.3110 C   0  0  0  0  0  0  0  0  0  0  0  0
  130.0570  120.3270   61.6630 C   0  0  0  0  0  0  0  0  0  0  0  0
  130.7840  121.5210   61.5340 C   0  0  0  0  0  0  0  0  0  0  0  0
  130.2970  122.8000   61.8640 N   0  0  0  0  0  0  0  0  0  0  0  0
  130.1790  123.3980   63.0680 C   0  0  0  0  0  0  0  0  0  0  0  0
  130.4820  122.8940   64.1500 O   0  0  0  0  0  0  0  0  0  0  0  0
  129.6150  124.8200   63.0420 C   0  0  0  0  0  0  0  0  0  0  0  0
  130.9240  126.0780   63.1340 S   0  0  0  0  0  0  0  0  0  0  0  0
  131.4940  126.1330   64.8200 C   0  0  0  0  0  0  0  0  0  0  0  0
  130.5290  126.4730   65.7070 N   0  0  0  0  0  0  0  0  0  0  0  0
  130.8230  126.5490   67.0310 C   0  0  0  0  0  0  0  0  0  0  0  0
  129.6980  126.9290   67.9470 C   0  0  0  0  0  0  0  0  0  0  0  0
  129.0400  128.1610   67.8030 C   0  0  0  0  0  0  0  0  0  0  0  0
  127.9950  128.5190   68.6500 C   0  0  0  0  0  0  0  0  0  0  0  0
  127.5930  127.6480   69.6570 C   0  0  0  0  0  0  0  0  0  0  0  0
  128.2300  126.4230   69.8240 C   0  0  0  0  0  0  0  0  0  0  0  0
  129.2750  126.0690   68.9750 C   0  0  0  0  0  0  0  0  0  0  0  0
  132.1210  126.2990   67.4910 C   0  0  0  0  0  0  0  0  0  0  0  0
  133.1420  125.9640   66.5900 C   0  0  0  0  0  0  0  0  0  0  0  0
  134.5590  125.7020   67.1370 C   0  0  0  0  0  0  0  0  0  0  0  0
  135.5190  126.1100   66.3040 F   0  0  0  0  0  0  0  0  0  0  0  0
  134.7320  126.3470   68.2920 F   0  0  0  0  0  0  0  0  0  0  0  0
  134.7330  124.3950   67.3420 F   0  0  0  0  0  0  0  0  0  0  0  0
  132.8290  125.8840   65.2100 C   0  0  0  0  0  0  0  0  0  0  0  0
  133.8700  125.5930   64.2210 C   0  0  0  0  0  0  0  0  0  0  0  0
  134.6950  125.3640   63.4420 N   0  0  0  0  0  0  0  0  0  0  0  0
  132.0950  121.4760   61.0570 C   0  0  0  0  0  0  0  0  0  0  0  0
  132.6760  120.2610   60.7050 C   0  0  0  0  0  0  0  0  0  0  0  0
  132.0911  116.5884   63.3733 H   0  0  0  0  0  0  0  0  0  0  0  0
  130.9004  117.0142   62.0976 H   0  0  0  0  0  0  0  0  0  0  0  0
  131.6758  115.3939   62.0976 H   0  0  0  0  0  0  0  0  0  0  0  0
  130.0661  118.1815   61.4143 H   0  0  0  0  0  0  0  0  0  0  0  0
  129.0247  120.3502   62.0423 H   0  0  0  0  0  0  0  0  0  0  0  0
  129.9570  123.3260   61.0720 H   0  0  0  0  0  0  0  0  0  0  0  0
  129.0526  124.9613   62.1072 H   0  0  0  0  0  0  0  0  0  0  0  0
  128.9657  124.9425   63.9214 H   0  0  0  0  0  0  0  0  0  0  0  0
  129.3551  128.8538   67.0088 H   0  0  0  0  0  0  0  0  0  0  0  0
  127.4889  129.4874   68.5233 H   0  0  0  0  0  0  0  0  0  0  0  0
  126.7661  127.9297   70.3255 H   0  0  0  0  0  0  0  0  0  0  0  0
  127.9099  125.7376   70.6226 H   0  0  0  0  0  0  0  0  0  0  0  0
  129.7779  125.1002   69.1110 H   0  0  0  0  0  0  0  0  0  0  0  0
  132.3417  126.3657   68.5666 H   0  0  0  0  0  0  0  0  0  0  0  0
  132.6729  122.4068   60.9586 H   0  0  0  0  0  0  0  0  0  0  0  0
  133.7092  120.2403   60.3281 H   0  0  0  0  0  0  0  0  0  0  0  0
  1  2  1  0
  2  3  1  0
  3  4  2  0
  3  5  1  0
  5  6  2  0
  6  7  1  0
  7  8  2  0
  8  9  1  0
  9 10  1  0
 10 11  2  0
 10 12  1  0
 12 13  1  0
 13 14  1  0
 14 15  2  0
 15 16  1  0
 16 17  1  0
 17 18  2  0
 18 19  1  0
 19 20  2  0
 20 21  1  0
 21 22  2  0
 16 23  2  0
 23 24  1  0
 24 25  1  0
 25 26  1  0
 25 27  1  0
 25 28  1  0
 24 29  2  0
 29 30  1  0
 30 31  3  0
  8 32  1  0
 32 33  2  0
 33  5  1  0
 29 14  1  0
 22 17  1  0
  1 34  1  0
  1 35  1  0
  1 36  1  0
  6 37  1  0
  7 38  1  0
  9 39  1  0
 12 40  1  0
 12 41  1  0
 18 42  1  0
 19 43  1  0
 20 44  1  0
 21 45  1  0
 22 46  1  0
 23 47  1  0
 32 48  1  0
 33 49  1  0
M  END
>  <Binding energies>  (1) 
[-7.84]

>  <Ligand effiencies>  (1) 
[-0.23058823529411765]

>  <Interactions>  (1) 
["V-B:GLU:543:CB:9877, V-B:TYR:539:CD2:9845, V-B:HIS:456:CE1:9040, V-A:HIS:456:CE1:4069, V-B:TYR:539:CE2:9847, V-B:GLU:543:CD:9879, V-A:VAL:384:C:3396, V-A:TYR:484:CZ:4346, V-A:ILE:369:CG2:3236, V-A:ARG:545:CZ:4925, V-A:SER:385:CA:3406, H-A:ARG:545:NH1:4926, V-A:SER:385:CB:3408, V-A:ARG:545:CD:4922, V-A:TYR:484:CE2:4345, H-A:GLY:454:N:4049, V-B:ALA:541:CB:9863, H-A:ARG:545:NH2:4927, V-A:ARG:545:CG:4921, V-A:LEU:475:CD2:4258, V-A:HIS:383:CE1:3393, V-A:PRO:482:CB:4325, V-A:GLY:453:C:4041, V-A:GLY:453:CA:4043, V-A:GLY:454:CA:4048, V-A:ARG:545:CB:4920, V-A:ILE:455:C:4051, H-A:HIS:383:ND1:3390, V-A:THR:477:CG2:4272, V-A:GLY:454:C:4046, V-A:TYR:484:CE1:4344, V-A:ILE:455:CA:4053, V-A:ARG:545:CA:4918, V-A:VAL:452:C:4033"]

$$$$
3ac_Grossjean_2025
     RDKit          3D

 47 49  0  0  0  0  0  0  0  0999 V2000
  133.7520  125.7480   66.2840 C   0  0  0  0  0  0  0  0  0  0  0  0
  134.3610  125.6070   65.0040 O   0  0  0  0  0  0  0  0  0  0  0  0
  133.5650  125.3590   63.9020 C   0  0  0  0  0  0  0  0  0  0  0  0
  132.3260  125.9990   63.8720 C   0  0  0  0  0  0  0  0  0  0  0  0
  131.4590  125.8130   62.8000 C   0  0  0  0  0  0  0  0  0  0  0  0
  131.8150  124.9740   61.7430 C   0  0  0  0  0  0  0  0  0  0  0  0
  130.8820  124.8660   60.6950 N   0  0  0  0  0  0  0  0  0  0  0  0
  131.0940  124.5840   59.3910 C   0  0  0  0  0  0  0  0  0  0  0  0
  132.1880  124.3210   58.8890 O   0  0  0  0  0  0  0  0  0  0  0  0
  129.8500  124.5990   58.5030 C   0  0  0  0  0  0  0  0  0  0  0  0
  128.5060  123.5780   59.1830 S   0  0  0  0  0  0  0  0  0  0  0  0
  129.1010  122.7510   60.6460 C   0  0  0  0  0  0  0  0  0  0  0  0
  129.8580  121.6610   60.3710 N   0  0  0  0  0  0  0  0  0  0  0  0
  130.3870  120.9310   61.3870 C   0  0  0  0  0  0  0  0  0  0  0  0
  131.2060  119.7370   60.9980 C   0  0  0  0  0  0  0  0  0  0  0  0
  130.6960  118.4360   61.1480 C   0  0  0  0  0  0  0  0  0  0  0  0
  131.4490  117.3240   60.7840 C   0  0  0  0  0  0  0  0  0  0  0  0
  132.7280  117.4960   60.2640 C   0  0  0  0  0  0  0  0  0  0  0  0
  133.2590  118.7720   60.1100 C   0  0  0  0  0  0  0  0  0  0  0  0
  132.5020  119.8820   60.4760 C   0  0  0  0  0  0  0  0  0  0  0  0
  130.1470  121.2790   62.7200 C   0  0  0  0  0  0  0  0  0  0  0  0
  129.3480  122.3890   63.0310 C   0  0  0  0  0  0  0  0  0  0  0  0
  129.1040  122.7340   64.5140 C   0  0  0  0  0  0  0  0  0  0  0  0
  129.7290  121.9000   65.3490 F   0  0  0  0  0  0  0  0  0  0  0  0
  129.5440  123.9650   64.7800 F   0  0  0  0  0  0  0  0  0  0  0  0
  127.8000  122.6740   64.7840 F   0  0  0  0  0  0  0  0  0  0  0  0
  128.7930  123.1450   61.9680 C   0  0  0  0  0  0  0  0  0  0  0  0
  127.8920  124.2650   62.2440 C   0  0  0  0  0  0  0  0  0  0  0  0
  127.1780  125.1500   62.4620 N   0  0  0  0  0  0  0  0  0  0  0  0
  133.0630  124.3320   61.7620 C   0  0  0  0  0  0  0  0  0  0  0  0
  133.9290  124.5210   62.8360 C   0  0  0  0  0  0  0  0  0  0  0  0
  134.5031  125.5741   67.0686 H   0  0  0  0  0  0  0  0  0  0  0  0
  133.3439  126.7644   66.3859 H   0  0  0  0  0  0  0  0  0  0  0  0
  132.9387  125.0144   66.3859 H   0  0  0  0  0  0  0  0  0  0  0  0
  132.0318  126.6566   64.7033 H   0  0  0  0  0  0  0  0  0  0  0  0
  130.4881  126.3298   62.7854 H   0  0  0  0  0  0  0  0  0  0  0  0
  129.9190  124.9680   60.9810 H   0  0  0  0  0  0  0  0  0  0  0  0
  129.4944  125.6357   58.4093 H   0  0  0  0  0  0  0  0  0  0  0  0
  130.1291  124.1809   57.5246 H   0  0  0  0  0  0  0  0  0  0  0  0
  129.6858  118.2946   61.5596 H   0  0  0  0  0  0  0  0  0  0  0  0
  131.0346  116.3125   60.9069 H   0  0  0  0  0  0  0  0  0  0  0  0
  133.3226  116.6175   59.9730 H   0  0  0  0  0  0  0  0  0  0  0  0
  134.2717  118.9038   59.7012 H   0  0  0  0  0  0  0  0  0  0  0  0
  132.9262  120.8896   60.3543 H   0  0  0  0  0  0  0  0  0  0  0  0
  130.5875  120.6785   63.5296 H   0  0  0  0  0  0  0  0  0  0  0  0
  133.3574  123.6787   60.9274 H   0  0  0  0  0  0  0  0  0  0  0  0
  134.9035  124.0110   62.8492 H   0  0  0  0  0  0  0  0  0  0  0  0
  1  2  1  0
  2  3  1  0
  3  4  2  0
  4  5  1  0
  5  6  2  0
  6  7  1  0
  7  8  1  0
  8  9  2  0
  8 10  1  0
 10 11  1  0
 11 12  1  0
 12 13  2  0
 13 14  1  0
 14 15  1  0
 15 16  2  0
 16 17  1  0
 17 18  2  0
 18 19  1  0
 19 20  2  0
 14 21  2  0
 21 22  1  0
 22 23  1  0
 23 24  1  0
 23 25  1  0
 23 26  1  0
 22 27  2  0
 27 28  1  0
 28 29  3  0
  6 30  1  0
 30 31  2  0
 31  3  1  0
 27 12  1  0
 20 15  1  0
  1 32  1  0
  1 33  1  0
  1 34  1  0
  4 35  1  0
  5 36  1  0
  7 37  1  0
 10 38  1  0
 10 39  1  0
 16 40  1  0
 17 41  1  0
 18 42  1  0
 19 43  1  0
 20 44  1  0
 21 45  1  0
 30 46  1  0
 31 47  1  0
M  END
>  <Binding energies>  (1) 
[-7.49]

>  <Ligand effiencies>  (1) 
[-0.2340625]

>  <Interactions>  (1) 
["V-B:TYR:539:CD2:9845, V-B:TYR:539:CZ:9848, V-B:TYR:539:CE2:9847, V-B:GLU:543:CD:9879, V-A:ASP:366:CG:3212, V-B:GLU:543:CG:9878, V-A:VAL:384:C:3396, V-A:TYR:484:CZ:4346, H-A:ARG:545:NE:4923, V-A:LEU:475:CG:4256, V-A:ILE:369:CG2:3236, V-A:ARG:545:CZ:4925, V-A:SER:385:CA:3406, V-B:ALA:541:C:9859, H-A:ARG:545:NH1:4926, V-A:SER:385:CB:3408, V-A:ARG:545:CD:4922, V-A:TYR:484:CE2:4345, H-A:GLY:454:N:4049, V-B:ALA:541:CB:9863, H-A:ARG:545:NH2:4927, V-A:ARG:545:CG:4921, V-A:ILE:369:CD1:3238, V-A:LEU:475:CD2:4258, V-A:LEU:475:CD1:4257, V-B:ALA:541:CA:9861, V-A:HIS:383:CE1:3393, H-B:TYR:539:OH:9849"]

$$$$
3ad_Grossjean_2025
     RDKit          3D

 43 45  0  0  0  0  0  0  0  0999 V2000
  132.7570  123.0350   64.3150 N   0  0  0  0  0  0  0  0  0  0  0  0
  131.9300  123.0490   63.5060 C   0  0  0  0  0  0  0  0  0  0  0  0
  130.8790  123.0660   62.4840 C   0  0  0  0  0  0  0  0  0  0  0  0
  129.5170  122.9180   62.8430 C   0  0  0  0  0  0  0  0  0  0  0  0
  129.0530  122.7770   64.3060 C   0  0  0  0  0  0  0  0  0  0  0  0
  127.7240  122.7320   64.4250 F   0  0  0  0  0  0  0  0  0  0  0  0
  129.5420  121.6530   64.8320 F   0  0  0  0  0  0  0  0  0  0  0  0
  129.4830  123.8140   65.0250 F   0  0  0  0  0  0  0  0  0  0  0  0
  128.5540  122.8940   61.8230 C   0  0  0  0  0  0  0  0  0  0  0  0
  128.9390  123.0120   60.4830 C   0  0  0  0  0  0  0  0  0  0  0  0
  127.9540  122.9780   59.3530 C   0  0  0  0  0  0  0  0  0  0  0  0
  126.6620  123.5040   59.5120 C   0  0  0  0  0  0  0  0  0  0  0  0
  125.7430  123.4760   58.4670 C   0  0  0  0  0  0  0  0  0  0  0  0
  126.1050  122.9200   57.2440 C   0  0  0  0  0  0  0  0  0  0  0  0
  127.3790  122.3950   57.0600 C   0  0  0  0  0  0  0  0  0  0  0  0
  128.2960  122.4260   58.1080 C   0  0  0  0  0  0  0  0  0  0  0  0
  130.2460  123.1470   60.1440 N   0  0  0  0  0  0  0  0  0  0  0  0
  131.1920  123.1940   61.1120 C   0  0  0  0  0  0  0  0  0  0  0  0
  132.8460  123.3870   60.4860 S   0  0  0  0  0  0  0  0  0  0  0  0
  133.9400  122.3780   61.5290 C   0  0  0  0  0  0  0  0  0  0  0  0
  133.4420  120.9370   61.6640 C   0  0  0  0  0  0  0  0  0  0  0  0
  133.9730  120.1950   62.4910 O   0  0  0  0  0  0  0  0  0  0  0  0
  132.4320  120.5930   60.8360 N   0  0  0  0  0  0  0  0  0  0  0  0
  131.7440  119.3720   60.7130 C   0  0  0  0  0  0  0  0  0  0  0  0
  130.6170  119.2260   61.5280 C   0  0  0  0  0  0  0  0  0  0  0  0
  129.8670  118.0550   61.4880 C   0  0  0  0  0  0  0  0  0  0  0  0
  130.2450  117.0220   60.6350 C   0  0  0  0  0  0  0  0  0  0  0  0
  131.3680  117.1500   59.8230 C   0  0  0  0  0  0  0  0  0  0  0  0
  132.1220  118.3210   59.8600 C   0  0  0  0  0  0  0  0  0  0  0  0
  127.4899  122.7817   62.0783 H   0  0  0  0  0  0  0  0  0  0  0  0
  126.3716  123.9449   60.4770 H   0  0  0  0  0  0  0  0  0  0  0  0
  124.7344  123.8919   58.6075 H   0  0  0  0  0  0  0  0  0  0  0  0
  125.3790  122.8957   56.4180 H   0  0  0  0  0  0  0  0  0  0  0  0
  127.6616  121.9571   56.0913 H   0  0  0  0  0  0  0  0  0  0  0  0
  129.3038  122.0116   57.9580 H   0  0  0  0  0  0  0  0  0  0  0  0
  134.9444  122.3652   61.0806 H   0  0  0  0  0  0  0  0  0  0  0  0
  133.9561  122.8255   62.5337 H   0  0  0  0  0  0  0  0  0  0  0  0
  132.1400  121.2980   60.1760 H   0  0  0  0  0  0  0  0  0  0  0  0
  130.3219  120.0416   62.2045 H   0  0  0  0  0  0  0  0  0  0  0  0
  128.9789  117.9459   62.1278 H   0  0  0  0  0  0  0  0  0  0  0  0
  129.6511  116.0967   60.6024 H   0  0  0  0  0  0  0  0  0  0  0  0
  131.6599  116.3279   59.1530 H   0  0  0  0  0  0  0  0  0  0  0  0
  133.0124  118.4228   59.2221 H   0  0  0  0  0  0  0  0  0  0  0  0
  1  2  3  0
  2  3  1  0
  3  4  2  0
  4  5  1  0
  5  6  1  0
  5  7  1  0
  5  8  1  0
  4  9  1  0
  9 10  2  0
 10 11  1  0
 11 12  2  0
 12 13  1  0
 13 14  2  0
 14 15  1  0
 15 16  2  0
 10 17  1  0
 17 18  2  0
 18 19  1  0
 19 20  1  0
 20 21  1  0
 21 22  2  0
 21 23  1  0
 23 24  1  0
 24 25  2  0
 25 26  1  0
 26 27  2  0
 27 28  1  0
 28 29  2  0
 18  3  1  0
 29 24  1  0
 16 11  1  0
  9 30  1  0
 12 31  1  0
 13 32  1  0
 14 33  1  0
 15 34  1  0
 16 35  1  0
 20 36  1  0
 20 37  1  0
 23 38  1  0
 25 39  1  0
 26 40  1  0
 27 41  1  0
 28 42  1  0
 29 43  1  0
M  END
>  <Binding energies>  (1) 
[-7.75]

>  <Ligand effiencies>  (1) 
[-0.25833333333333336]

>  <Interactions>  (1) 
["V-B:PRO:540:CD:9858, V-B:PRO:540:N:9855, V-B:MET:535:CE:9806, V-B:TYR:539:CD2:9845, V-B:TYR:539:CZ:9848, V-B:TYR:539:C:9838, V-B:TYR:539:CD1:9844, V-B:PRO:540:CB:9856, V-B:TYR:539:CE2:9847, V-B:GLU:543:CD:9879, V-B:TYR:539:CG:9843, V-B:GLU:543:CG:9878, V-A:LEU:475:CG:4256, V-A:ILE:369:CG2:3236, V-A:SER:385:CA:3406, V-B:ALA:541:C:9859, H-A:GLY:454:N:4049, V-B:ALA:541:CB:9863, V-A:ILE:369:CD1:3238, V-A:LEU:475:CD2:4258, V-A:LEU:475:CD1:4257, V-B:ALA:541:CA:9861, V-A:HIS:383:CE1:3393, V-A:PRO:482:CG:4326, V-B:PRO:540:CA:9854, V-B:TYR:539:CB:9842, H-A:TYR:484:OH:4347, V-A:PRO:482:CB:4325, V-B:VAL:344:CG1:7971, V-B:TYR:539:CA:9840"]

$$$$
3af_Grossjean_2025
     RDKit          3D

 42 44  0  0  0  0  0  0  0  0999 V2000
  128.8570  126.3580   61.4620 N   0  0  0  0  0  0  0  0  0  0  0  0
  129.2790  125.2810   61.4150 C   0  0  0  0  0  0  0  0  0  0  0  0
  129.8140  123.9180   61.3540 C   0  0  0  0  0  0  0  0  0  0  0  0
  130.8410  123.5860   60.4380 C   0  0  0  0  0  0  0  0  0  0  0  0
  131.4870  124.6230   59.4990 C   0  0  0  0  0  0  0  0  0  0  0  0
  130.7130  124.9310   58.4560 F   0  0  0  0  0  0  0  0  0  0  0  0
  131.7300  125.7520   60.1660 F   0  0  0  0  0  0  0  0  0  0  0  0
  132.6360  124.1510   59.0150 F   0  0  0  0  0  0  0  0  0  0  0  0
  131.2830  122.2550   60.3790 C   0  0  0  0  0  0  0  0  0  0  0  0
  130.7140  121.2840   61.2100 C   0  0  0  0  0  0  0  0  0  0  0  0
  131.1340  119.8450   61.1750 C   0  0  0  0  0  0  0  0  0  0  0  0
  132.4360  119.4870   60.7890 C   0  0  0  0  0  0  0  0  0  0  0  0
  132.8330  118.1520   60.7570 C   0  0  0  0  0  0  0  0  0  0  0  0
  131.9300  117.1560   61.1120 C   0  0  0  0  0  0  0  0  0  0  0  0
  130.6360  117.4830   61.5010 C   0  0  0  0  0  0  0  0  0  0  0  0
  130.2430  118.8190   61.5320 C   0  0  0  0  0  0  0  0  0  0  0  0
  129.7270  121.6060   62.0840 N   0  0  0  0  0  0  0  0  0  0  0  0
  129.2990  122.8890   62.1750 C   0  0  0  0  0  0  0  0  0  0  0  0
  128.0130  123.1190   63.3850 S   0  0  0  0  0  0  0  0  0  0  0  0
  126.7250  124.1680   62.6440 C   0  0  0  0  0  0  0  0  0  0  0  0
  126.1180  123.5270   61.3970 C   0  0  0  0  0  0  0  0  0  0  0  0
  125.1420  122.7860   61.5180 O   0  0  0  0  0  0  0  0  0  0  0  0
  126.7310  123.8330   60.2330 N   0  0  0  0  0  0  0  0  0  0  0  0
  126.4330  123.4110   58.9220 C   0  0  0  0  0  0  0  0  0  0  0  0
  125.2150  123.6170   58.2500 C   0  0  0  0  0  0  0  0  0  0  0  0
  125.0560  123.1400   56.9470 C   0  0  0  0  0  0  0  0  0  0  0  0
  126.1200  122.4660   56.3470 C   0  0  0  0  0  0  0  0  0  0  0  0
  127.3040  122.2540   56.9730 N   0  0  0  0  0  0  0  0  0  0  0  0
  127.4430  122.7240   58.2390 C   0  0  0  0  0  0  0  0  0  0  0  0
  132.0808  121.9740   59.6758 H   0  0  0  0  0  0  0  0  0  0  0  0
  133.1530  120.2724   60.5077 H   0  0  0  0  0  0  0  0  0  0  0  0
  133.8562  117.8870   60.4523 H   0  0  0  0  0  0  0  0  0  0  0  0
  132.2418  116.1015   61.0848 H   0  0  0  0  0  0  0  0  0  0  0  0
  129.9264  116.6911   61.7828 H   0  0  0  0  0  0  0  0  0  0  0  0
  129.2187  119.0748   61.8409 H   0  0  0  0  0  0  0  0  0  0  0  0
  125.9281  124.3299   63.3848 H   0  0  0  0  0  0  0  0  0  0  0  0
  127.1889  125.1202   62.3472 H   0  0  0  0  0  0  0  0  0  0  0  0
  127.5170  124.4630   60.2960 H   0  0  0  0  0  0  0  0  0  0  0  0
  124.3921  124.1508   58.7478 H   0  0  0  0  0  0  0  0  0  0  0  0
  124.1111  123.2926   56.4049 H   0  0  0  0  0  0  0  0  0  0  0  0
  125.9929  122.0901   55.3211 H   0  0  0  0  0  0  0  0  0  0  0  0
  128.3998  122.5560   58.7551 H   0  0  0  0  0  0  0  0  0  0  0  0
  1  2  3  0
  2  3  1  0
  3  4  2  0
  4  5  1  0
  5  6  1  0
  5  7  1  0
  5  8  1  0
  4  9  1  0
  9 10  2  0
 10 11  1  0
 11 12  2  0
 12 13  1  0
 13 14  2  0
 14 15  1  0
 15 16  2  0
 10 17  1  0
 17 18  2  0
 18 19  1  0
 19 20  1  0
 20 21  1  0
 21 22  2  0
 21 23  1  0
 23 24  1  0
 24 25  2  0
 25 26  1  0
 26 27  2  0
 27 28  1  0
 28 29  2  0
 18  3  1  0
 29 24  1  0
 16 11  1  0
  9 30  1  0
 12 31  1  0
 13 32  1  0
 14 33  1  0
 15 34  1  0
 16 35  1  0
 20 36  1  0
 20 37  1  0
 23 38  1  0
 25 39  1  0
 26 40  1  0
 27 41  1  0
 29 42  1  0
M  END
>  <Binding energies>  (1) 
[-7.73]

>  <Ligand effiencies>  (1) 
[-0.25766666666666665]

>  <Interactions>  (1) 
["V-B:PRO:540:CD:9858, V-B:PRO:540:N:9855, V-B:TYR:531:CE2:9764, H-B:TYR:539:N:9841, V-B:LEU:363:CD1:8159, V-B:MET:535:CE:9806, V-B:TYR:539:CD2:9845, V-B:TYR:539:CZ:9848, V-B:TYR:539:C:9838, V-B:PRO:540:CB:9856, V-B:TYR:539:CE2:9847, V-B:GLU:543:CD:9879, V-A:ASP:366:CG:3212, V-A:ASP:366:CB:3211, V-A:VAL:384:C:3396, V-A:ILE:369:CG2:3236, V-A:SER:385:CA:3406, V-A:SER:385:CB:3408, V-B:ALA:541:CB:9863, V-A:LEU:475:CD2:4258, V-A:HIS:383:CE1:3393, V-A:PRO:482:CG:4326, V-B:PRO:540:CA:9854, H-B:ALA:541:N:9862, V-A:PRO:482:CB:4325, V-B:PRO:540:C:9852, V-A:THR:477:CG2:4272"]

$$$$
3ag_Grossjean_2025
     RDKit          3D

 46 48  0  0  0  0  0  0  0  0999 V2000
  133.4040  123.9260   62.4310 N   0  0  0  0  0  0  0  0  0  0  0  0
  132.4530  123.8260   61.7780 C   0  0  0  0  0  0  0  0  0  0  0  0
  131.2480  123.6970   60.9540 C   0  0  0  0  0  0  0  0  0  0  0  0
  130.1030  123.0240   61.4470 C   0  0  0  0  0  0  0  0  0  0  0  0
  130.0270  122.4460   62.8730 C   0  0  0  0  0  0  0  0  0  0  0  0
  128.7810  122.1430   63.2440 F   0  0  0  0  0  0  0  0  0  0  0  0
  130.7520  121.3290   62.9490 F   0  0  0  0  0  0  0  0  0  0  0  0
  130.5010  123.3290   63.7530 F   0  0  0  0  0  0  0  0  0  0  0  0
  128.9930  122.8810   60.6000 C   0  0  0  0  0  0  0  0  0  0  0  0
  129.0290  123.3830   59.2950 C   0  0  0  0  0  0  0  0  0  0  0  0
  127.8750  123.2560   58.3480 C   0  0  0  0  0  0  0  0  0  0  0  0
  127.9920  122.4980   57.1720 C   0  0  0  0  0  0  0  0  0  0  0  0
  126.9240  122.3750   56.2880 C   0  0  0  0  0  0  0  0  0  0  0  0
  125.7190  123.0120   56.5690 C   0  0  0  0  0  0  0  0  0  0  0  0
  125.5780  123.7710   57.7260 C   0  0  0  0  0  0  0  0  0  0  0  0
  126.6480  123.8920   58.6070 C   0  0  0  0  0  0  0  0  0  0  0  0
  130.1240  124.0390   58.8310 N   0  0  0  0  0  0  0  0  0  0  0  0
  131.2000  124.2070   59.6380 C   0  0  0  0  0  0  0  0  0  0  0  0
  132.5370  125.0890   58.8650 S   0  0  0  0  0  0  0  0  0  0  0  0
  131.9100  125.7580   57.2950 C   0  0  0  0  0  0  0  0  0  0  0  0
  131.1660  127.0800   57.4860 C   0  0  0  0  0  0  0  0  0  0  0  0
  130.3580  127.4590   56.6360 O   0  0  0  0  0  0  0  0  0  0  0  0
  131.4450  127.7660   58.6080 N   0  0  0  0  0  0  0  0  0  0  0  0
  130.8270  129.0290   59.0070 C   0  0  0  0  0  0  0  0  0  0  0  0
  131.5520  130.2670   58.4910 C   0  0  0  0  0  0  0  0  0  0  0  0
  130.8160  131.3740   58.0600 C   0  0  0  0  0  0  0  0  0  0  0  0
  131.4760  132.5180   57.6160 C   0  0  0  0  0  0  0  0  0  0  0  0
  132.8690  132.5540   57.6140 C   0  0  0  0  0  0  0  0  0  0  0  0
  133.6080  131.4590   58.0560 C   0  0  0  0  0  0  0  0  0  0  0  0
  132.9500  130.3160   58.5010 C   0  0  0  0  0  0  0  0  0  0  0  0
  128.0892  122.3710   60.9647 H   0  0  0  0  0  0  0  0  0  0  0  0
  128.9428  121.9933   56.9457 H   0  0  0  0  0  0  0  0  0  0  0  0
  127.0319  121.7769   55.3712 H   0  0  0  0  0  0  0  0  0  0  0  0
  124.8734  122.9147   55.8722 H   0  0  0  0  0  0  0  0  0  0  0  0
  124.6241  124.2737   57.9437 H   0  0  0  0  0  0  0  0  0  0  0  0
  126.5323  124.4944   59.5201 H   0  0  0  0  0  0  0  0  0  0  0  0
  132.7597  125.9246   56.6166 H   0  0  0  0  0  0  0  0  0  0  0  0
  131.2005  125.0288   56.8769 H   0  0  0  0  0  0  0  0  0  0  0  0
  132.1150  127.3760   59.2560 H   0  0  0  0  0  0  0  0  0  0  0  0
  129.7968  129.0464   58.6219 H   0  0  0  0  0  0  0  0  0  0  0  0
  130.8707  129.0705   60.1053 H   0  0  0  0  0  0  0  0  0  0  0  0
  129.7165  131.3423   58.0713 H   0  0  0  0  0  0  0  0  0  0  0  0
  130.9002  133.3885   57.2687 H   0  0  0  0  0  0  0  0  0  0  0  0
  133.3901  133.4557   57.2600 H   0  0  0  0  0  0  0  0  0  0  0  0
  134.7073  131.4975   58.0534 H   0  0  0  0  0  0  0  0  0  0  0  0
  133.5287  129.4522   58.8601 H   0  0  0  0  0  0  0  0  0  0  0  0
  1  2  3  0
  2  3  1  0
  3  4  2  0
  4  5  1  0
  5  6  1  0
  5  7  1  0
  5  8  1  0
  4  9  1  0
  9 10  2  0
 10 11  1  0
 11 12  2  0
 12 13  1  0
 13 14  2  0
 14 15  1  0
 15 16  2  0
 10 17  1  0
 17 18  2  0
 18 19  1  0
 19 20  1  0
 20 21  1  0
 21 22  2  0
 21 23  1  0
 23 24  1  0
 24 25  1  0
 25 26  2  0
 26 27  1  0
 27 28  2  0
 28 29  1  0
 29 30  2  0
 18  3  1  0
 30 25  1  0
 16 11  1  0
  9 31  1  0
 12 32  1  0
 13 33  1  0
 14 34  1  0
 15 35  1  0
 16 36  1  0
 20 37  1  0
 20 38  1  0
 23 39  1  0
 24 40  1  0
 24 41  1  0
 26 42  1  0
 27 43  1  0
 28 44  1  0
 29 45  1  0
 30 46  1  0
M  END
>  <Binding energies>  (1) 
[-7.96]

>  <Ligand effiencies>  (1) 
[-0.2567741935483871]

>  <Interactions>  (1) 
["V-B:PRO:540:N:9855, V-B:TYR:531:CE2:9764, V-A:PRO:540:CA:4882, V-B:MET:535:CE:9806, V-B:TYR:539:CD2:9845, V-A:PRO:540:CB:4884, V-B:TYR:539:CZ:9848, H-A:TYR:531:OH:4794, V-B:TYR:539:C:9838, V-B:TYR:539:CE1:9846, V-B:TYR:539:CD1:9844, V-B:PRO:540:CB:9856, V-B:TYR:539:CE2:9847, V-B:TYR:539:CG:9843, V-A:ASP:366:CG:3212, V-A:ASP:366:CB:3211, V-A:TYR:531:CZ:4793, V-B:ALA:541:CB:9863, V-A:LEU:475:CD2:4258, V-B:ALA:541:CA:9861, H-B:TYR:539:OH:9849, V-B:PRO:540:CA:9854, H-A:ASP:366:OD2:3214, V-B:TYR:539:CA:9840, V-A:TYR:531:CE2:4792, V-A:PRO:540:N:4883, V-A:LEU:363:CD1:3188, V-A:LEU:363:CA:3184, V-B:ILE:538:CA:9831"]

$$$$
3ai_Grossjean_2025
     RDKit          3D

 39 41  0  0  0  0  0  0  0  0999 V2000
  130.6040  125.6430   64.4570 N   0  0  0  0  0  0  0  0  0  0  0  0
  130.8060  124.6400   63.9160 C   0  0  0  0  0  0  0  0  0  0  0  0
  131.0640  123.3690   63.2320 C   0  0  0  0  0  0  0  0  0  0  0  0
  132.3710  123.0290   62.8060 C   0  0  0  0  0  0  0  0  0  0  0  0
  133.5930  123.9310   63.0680 C   0  0  0  0  0  0  0  0  0  0  0  0
  134.7510  123.3280   62.7900 F   0  0  0  0  0  0  0  0  0  0  0  0
  133.5190  125.0270   62.3120 F   0  0  0  0  0  0  0  0  0  0  0  0
  133.6300  124.2920   64.3510 F   0  0  0  0  0  0  0  0  0  0  0  0
  132.5580  121.8230   62.1140 C   0  0  0  0  0  0  0  0  0  0  0  0
  131.4710  120.9820   61.8510 C   0  0  0  0  0  0  0  0  0  0  0  0
  131.6110  119.6890   61.1060 C   0  0  0  0  0  0  0  0  0  0  0  0
  132.7240  119.4520   60.2830 C   0  0  0  0  0  0  0  0  0  0  0  0
  132.8630  118.2520   59.5920 C   0  0  0  0  0  0  0  0  0  0  0  0
  131.8870  117.2680   59.7170 C   0  0  0  0  0  0  0  0  0  0  0  0
  130.7760  117.4760   60.5270 C   0  0  0  0  0  0  0  0  0  0  0  0
  130.6410  118.6770   61.2170 C   0  0  0  0  0  0  0  0  0  0  0  0
  130.2190  121.3170   62.2530 N   0  0  0  0  0  0  0  0  0  0  0  0
  130.0170  122.4640   62.9450 C   0  0  0  0  0  0  0  0  0  0  0  0
  128.3170  122.7240   63.4080 S   0  0  0  0  0  0  0  0  0  0  0  0
  127.6270  124.0070   62.3090 C   0  0  0  0  0  0  0  0  0  0  0  0
  126.8930  123.4740   61.0700 C   0  0  0  0  0  0  0  0  0  0  0  0
  125.7020  123.1600   61.1290 O   0  0  0  0  0  0  0  0  0  0  0  0
  127.6560  123.3860   59.9570 N   0  0  0  0  0  0  0  0  0  0  0  0
  127.2610  122.9480   58.7000 C   0  0  0  0  0  0  0  0  0  0  0  0
  126.0230  123.2570   58.1380 C   0  0  0  0  0  0  0  0  0  0  0  0
  126.0220  122.6420   56.9080 C   0  0  0  0  0  0  0  0  0  0  0  0
  127.2000  121.9950   56.7360 O   0  0  0  0  0  0  0  0  0  0  0  0
  127.9770  122.1970   57.8780 N   0  0  0  0  0  0  0  0  0  0  0  0
  133.5650  121.5369   61.7762 H   0  0  0  0  0  0  0  0  0  0  0  0
  133.4981  120.2271   60.1830 H   0  0  0  0  0  0  0  0  0  0  0  0
  133.7401  118.0822   58.9502 H   0  0  0  0  0  0  0  0  0  0  0  0
  131.9951  116.3191   59.1713 H   0  0  0  0  0  0  0  0  0  0  0  0
  130.0074  116.6948   60.6219 H   0  0  0  0  0  0  0  0  0  0  0  0
  129.7622  118.8371   61.8589 H   0  0  0  0  0  0  0  0  0  0  0  0
  126.9167  124.6106   62.8930 H   0  0  0  0  0  0  0  0  0  0  0  0
  128.4850  124.5840   61.9335 H   0  0  0  0  0  0  0  0  0  0  0  0
  128.6210  123.6710   60.0330 H   0  0  0  0  0  0  0  0  0  0  0  0
  125.2197  123.8626   58.5829 H   0  0  0  0  0  0  0  0  0  0  0  0
  125.1973  122.6707   56.1806 H   0  0  0  0  0  0  0  0  0  0  0  0
  1  2  3  0
  2  3  1  0
  3  4  2  0
  4  5  1  0
  5  6  1  0
  5  7  1  0
  5  8  1  0
  4  9  1  0
  9 10  2  0
 10 11  1  0
 11 12  2  0
 12 13  1  0
 13 14  2  0
 14 15  1  0
 15 16  2  0
 10 17  1  0
 17 18  2  0
 18 19  1  0
 19 20  1  0
 20 21  1  0
 21 22  2  0
 21 23  1  0
 23 24  1  0
 24 25  1  0
 25 26  2  0
 26 27  1  0
 27 28  1  0
 18  3  1  0
 28 24  2  0
 16 11  1  0
  9 29  1  0
 12 30  1  0
 13 31  1  0
 14 32  1  0
 15 33  1  0
 16 34  1  0
 20 35  1  0
 20 36  1  0
 23 37  1  0
 25 38  1  0
 26 39  1  0
M  END
>  <Binding energies>  (1) 
[-7.92]

>  <Ligand effiencies>  (1) 
[-0.2731034482758621]

>  <Interactions>  (1) 
["V-B:PRO:540:CD:9858, V-B:PRO:540:N:9855, H-B:TYR:539:N:9841, V-B:TYR:539:CD2:9845, V-B:TYR:539:C:9838, V-B:PRO:540:CB:9856, V-B:TYR:539:CE2:9847, V-A:ASP:366:CG:3212, V-A:ILE:369:CG2:3236, V-B:ALA:541:CB:9863, V-A:ILE:369:CD1:3238, V-A:LEU:475:CD2:4258, V-A:HIS:383:CE1:3393, V-B:PRO:540:CA:9854, V-B:TYR:539:CB:9842, H-B:ALA:541:N:9862, V-A:LEU:373:CD2:3280, V-A:GLY:453:C:4041, V-A:GLY:453:CA:4043, V-A:GLY:454:CA:4048"]

$$$$
3aj_Grossjean_2025
     RDKit          3D

 39 41  0  0  0  0  0  0  0  0999 V2000
  131.2870  125.5930   64.5980 N   0  0  0  0  0  0  0  0  0  0  0  0
  131.3610  124.5800   64.0440 C   0  0  0  0  0  0  0  0  0  0  0  0
  131.4570  123.2960   63.3430 C   0  0  0  0  0  0  0  0  0  0  0  0
  132.6560  122.9150   62.6930 C   0  0  0  0  0  0  0  0  0  0  0  0
  133.9280  123.7850   62.7160 C   0  0  0  0  0  0  0  0  0  0  0  0
  133.9540  124.6360   63.7450 F   0  0  0  0  0  0  0  0  0  0  0  0
  135.0090  123.0110   62.8060 F   0  0  0  0  0  0  0  0  0  0  0  0
  134.0060  124.5090   61.5990 F   0  0  0  0  0  0  0  0  0  0  0  0
  132.6820  121.6980   61.9950 C   0  0  0  0  0  0  0  0  0  0  0  0
  131.5430  120.8870   61.9430 C   0  0  0  0  0  0  0  0  0  0  0  0
  131.5130  119.5840   61.2050 C   0  0  0  0  0  0  0  0  0  0  0  0
  130.4610  118.6760   61.3970 C   0  0  0  0  0  0  0  0  0  0  0  0
  130.4250  117.4640   60.7100 C   0  0  0  0  0  0  0  0  0  0  0  0
  131.4460  117.1450   59.8210 C   0  0  0  0  0  0  0  0  0  0  0  0
  132.4990  118.0290   59.6120 C   0  0  0  0  0  0  0  0  0  0  0  0
  132.5300  119.2390   60.2990 C   0  0  0  0  0  0  0  0  0  0  0  0
  130.3940  121.2610   62.5620 N   0  0  0  0  0  0  0  0  0  0  0  0
  130.3510  122.4190   63.2620 C   0  0  0  0  0  0  0  0  0  0  0  0
  128.7720  122.7310   64.0220 S   0  0  0  0  0  0  0  0  0  0  0  0
  127.9140  123.9990   63.0290 C   0  0  0  0  0  0  0  0  0  0  0  0
  127.2120  123.4710   61.7680 C   0  0  0  0  0  0  0  0  0  0  0  0
  126.0870  122.9700   61.8350 O   0  0  0  0  0  0  0  0  0  0  0  0
  127.9240  123.6080   60.6280 N   0  0  0  0  0  0  0  0  0  0  0  0
  127.5290  123.2240   59.3530 C   0  0  0  0  0  0  0  0  0  0  0  0
  128.2240  122.5540   58.4590 N   0  0  0  0  0  0  0  0  0  0  0  0
  127.5330  122.3600   57.3530 C   0  0  0  0  0  0  0  0  0  0  0  0
  126.2420  122.8830   57.3340 C   0  0  0  0  0  0  0  0  0  0  0  0
  125.9290  123.6680   58.8520 S   0  0  0  0  0  0  0  0  0  0  0  0
  133.6035  121.3796   61.4856 H   0  0  0  0  0  0  0  0  0  0  0  0
  129.6525  118.9244   62.1003 H   0  0  0  0  0  0  0  0  0  0  0  0
  129.5928  116.7627   60.8701 H   0  0  0  0  0  0  0  0  0  0  0  0
  131.4204  116.1876   59.2799 H   0  0  0  0  0  0  0  0  0  0  0  0
  133.3037  117.7731   58.9070 H   0  0  0  0  0  0  0  0  0  0  0  0
  133.3639  119.9362   60.1300 H   0  0  0  0  0  0  0  0  0  0  0  0
  127.1558  124.4767   63.6670 H   0  0  0  0  0  0  0  0  0  0  0  0
  128.6917  124.6942   62.6797 H   0  0  0  0  0  0  0  0  0  0  0  0
  128.8340  124.0390   60.6950 H   0  0  0  0  0  0  0  0  0  0  0  0
  127.9522  121.8159   56.4938 H   0  0  0  0  0  0  0  0  0  0  0  0
  125.5353  122.8107   56.4941 H   0  0  0  0  0  0  0  0  0  0  0  0
  1  2  3  0
  2  3  1  0
  3  4  2  0
  4  5  1  0
  5  6  1  0
  5  7  1  0
  5  8  1  0
  4  9  1  0
  9 10  2  0
 10 11  1  0
 11 12  2  0
 12 13  1  0
 13 14  2  0
 14 15  1  0
 15 16  2  0
 10 17  1  0
 17 18  2  0
 18 19  1  0
 19 20  1  0
 20 21  1  0
 21 22  2  0
 21 23  1  0
 23 24  1  0
 24 25  2  0
 25 26  1  0
 26 27  2  0
 27 28  1  0
 18  3  1  0
 28 24  1  0
 16 11  1  0
  9 29  1  0
 12 30  1  0
 13 31  1  0
 14 32  1  0
 15 33  1  0
 16 34  1  0
 20 35  1  0
 20 36  1  0
 23 37  1  0
 26 38  1  0
 27 39  1  0
M  END
>  <Binding energies>  (1) 
[-7.74]

>  <Ligand effiencies>  (1) 
[-0.26689655172413795]

>  <Interactions>  (1) 
["V-B:PRO:540:CD:9858, V-B:PRO:540:N:9855, V-B:MET:535:CE:9806, V-B:TYR:539:CD2:9845, V-B:TYR:539:C:9838, V-B:TYR:539:CD1:9844, V-B:PRO:540:CB:9856, V-B:TYR:539:CE2:9847, V-B:GLU:543:CD:9879, V-B:TYR:539:CG:9843, V-A:ASP:366:CG:3212, V-B:ALA:541:CB:9863, V-A:ILE:369:CD1:3238, V-A:LEU:475:CD2:4258, V-A:HIS:383:CE1:3393, V-A:PRO:482:CG:4326, V-B:PRO:540:CA:9854, V-B:TYR:539:CB:9842, H-B:ALA:541:N:9862, V-A:PRO:482:CB:4325, V-A:GLY:453:C:4041, V-A:GLY:453:CA:4043, V-A:GLY:454:CA:4048, V-B:TYR:539:CA:9840"]

$$$$
3ak_Grossjean_2025
     RDKit          3D

 57 58  0  0  0  0  0  0  0  0999 V2000
  129.6410  126.8120   56.5050 C   0  0  0  0  0  0  0  0  0  0  0  0
  131.0520  126.8730   56.3670 O   0  0  0  0  0  0  0  0  0  0  0  0
  131.7510  126.5870   57.5710 C   0  0  0  0  0  0  0  0  0  0  0  0
  131.2190  125.2740   58.1570 C   0  0  0  0  0  0  0  0  0  0  0  0
  130.7160  125.5210   59.4660 O   0  0  0  0  0  0  0  0  0  0  0  0
  131.5330  125.0580   60.5370 C   0  0  0  0  0  0  0  0  0  0  0  0
  132.7130  124.1790   60.0810 C   0  0  0  0  0  0  0  0  0  0  0  0
  132.5860  122.8890   60.6630 O   0  0  0  0  0  0  0  0  0  0  0  0
  133.7690  122.4250   61.3000 C   0  0  0  0  0  0  0  0  0  0  0  0
  133.9770  123.1620   62.6350 C   0  0  0  0  0  0  0  0  0  0  0  0
  132.7290  123.6050   63.2610 N   0  0  0  0  0  0  0  0  0  0  0  0
  132.6240  124.4650   64.2920 C   0  0  0  0  0  0  0  0  0  0  0  0
  133.6020  124.9960   64.8190 O   0  0  0  0  0  0  0  0  0  0  0  0
  131.2250  124.7990   64.8380 C   0  0  0  0  0  0  0  0  0  0  0  0
  130.0270  123.4170   64.9200 S   0  0  0  0  0  0  0  0  0  0  0  0
  129.7460  122.8040   63.2660 C   0  0  0  0  0  0  0  0  0  0  0  0
  130.3560  121.6310   62.9640 N   0  0  0  0  0  0  0  0  0  0  0  0
  130.2070  121.0880   61.7290 C   0  0  0  0  0  0  0  0  0  0  0  0
  130.9150  119.7890   61.4820 C   0  0  0  0  0  0  0  0  0  0  0  0
  132.2130  119.7700   60.9470 C   0  0  0  0  0  0  0  0  0  0  0  0
  132.8770  118.5680   60.7180 C   0  0  0  0  0  0  0  0  0  0  0  0
  132.2510  117.3640   61.0250 C   0  0  0  0  0  0  0  0  0  0  0  0
  130.9670  117.3550   61.5590 C   0  0  0  0  0  0  0  0  0  0  0  0
  130.3060  118.5590   61.7870 C   0  0  0  0  0  0  0  0  0  0  0  0
  129.4150  121.7140   60.7610 C   0  0  0  0  0  0  0  0  0  0  0  0
  128.7720  122.9270   61.0480 C   0  0  0  0  0  0  0  0  0  0  0  0
  127.9100  123.5880   59.9540 C   0  0  0  0  0  0  0  0  0  0  0  0
  128.1290  122.9960   58.7800 F   0  0  0  0  0  0  0  0  0  0  0  0
  126.6170  123.4740   60.2610 F   0  0  0  0  0  0  0  0  0  0  0  0
  128.1720  124.8880   59.8040 F   0  0  0  0  0  0  0  0  0  0  0  0
  128.9400  123.4930   62.3340 C   0  0  0  0  0  0  0  0  0  0  0  0
  128.2910  124.7600   62.6900 C   0  0  0  0  0  0  0  0  0  0  0  0
  127.7810  125.7600   62.9710 N   0  0  0  0  0  0  0  0  0  0  0  0
  129.3772  126.8006   57.5728 H   0  0  0  0  0  0  0  0  0  0  0  0
  129.1872  127.6914   56.0246 H   0  0  0  0  0  0  0  0  0  0  0  0
  129.2648  125.8968   56.0246 H   0  0  0  0  0  0  0  0  0  0  0  0
  132.8257  126.4875   57.3588 H   0  0  0  0  0  0  0  0  0  0  0  0
  131.5996  127.4040   58.2918 H   0  0  0  0  0  0  0  0  0  0  0  0
  130.4116  124.8856   57.5188 H   0  0  0  0  0  0  0  0  0  0  0  0
  132.0301  124.5324   58.2042 H   0  0  0  0  0  0  0  0  0  0  0  0
  131.9365  125.9322   61.0689 H   0  0  0  0  0  0  0  0  0  0  0  0
  130.8961  124.4326   61.1798 H   0  0  0  0  0  0  0  0  0  0  0  0
  132.7039  124.0906   58.9846 H   0  0  0  0  0  0  0  0  0  0  0  0
  133.6606  124.6372   60.4004 H   0  0  0  0  0  0  0  0  0  0  0  0
  133.6795  121.3454   61.4909 H   0  0  0  0  0  0  0  0  0  0  0  0
  134.6303  122.6199   60.6441 H   0  0  0  0  0  0  0  0  0  0  0  0
  134.4929  122.4834   63.3302 H   0  0  0  0  0  0  0  0  0  0  0  0
  134.5665  124.0647   62.4167 H   0  0  0  0  0  0  0  0  0  0  0  0
  131.8790  123.2260   62.8690 H   0  0  0  0  0  0  0  0  0  0  0  0
  131.3498  125.1937   65.8571 H   0  0  0  0  0  0  0  0  0  0  0  0
  130.7958  125.5133   64.1199 H   0  0  0  0  0  0  0  0  0  0  0  0
  132.7130  120.7195   60.7051 H   0  0  0  0  0  0  0  0  0  0  0  0
  133.8928  118.5702   60.2959 H   0  0  0  0  0  0  0  0  0  0  0  0
  132.7747  116.4137   60.8443 H   0  0  0  0  0  0  0  0  0  0  0  0
  130.4757  116.4008   61.8002 H   0  0  0  0  0  0  0  0  0  0  0  0
  129.2916  118.5477   62.2123 H   0  0  0  0  0  0  0  0  0  0  0  0
  129.2958  121.2527   59.7696 H   0  0  0  0  0  0  0  0  0  0  0  0
  1  2  1  0
  2  3  1  0
  3  4  1  0
  4  5  1  0
  5  6  1  0
  6  7  1  0
  7  8  1  0
  8  9  1  0
  9 10  1  0
 10 11  1  0
 11 12  1  0
 12 13  2  0
 12 14  1  0
 14 15  1  0
 15 16  1  0
 16 17  2  0
 17 18  1  0
 18 19  1  0
 19 20  2  0
 20 21  1  0
 21 22  2  0
 22 23  1  0
 23 24  2  0
 18 25  2  0
 25 26  1  0
 26 27  1  0
 27 28  1  0
 27 29  1  0
 27 30  1  0
 26 31  2  0
 31 32  1  0
 32 33  3  0
 31 16  1  0
 24 19  1  0
  1 34  1  0
  1 35  1  0
  1 36  1  0
  3 37  1  0
  3 38  1  0
  4 39  1  0
  4 40  1  0
  6 41  1  0
  6 42  1  0
  7 43  1  0
  7 44  1  0
  9 45  1  0
  9 46  1  0
 10 47  1  0
 10 48  1  0
 11 49  1  0
 14 50  1  0
 14 51  1  0
 20 52  1  0
 21 53  1  0
 22 54  1  0
 23 55  1  0
 24 56  1  0
 25 57  1  0
M  END
>  <Binding energies>  (1) 
[-6.01]

>  <Ligand effiencies>  (1) 
[-0.17676470588235293]

>  <Interactions>  (1) 
["V-B:PRO:540:N:9855, V-B:MET:535:CE:9806, V-B:TYR:539:CD2:9845, V-B:TYR:539:CZ:9848, H-A:TYR:531:OH:4794, V-B:TYR:539:C:9838, V-B:PRO:540:CB:9856, V-B:TYR:539:CE2:9847, V-B:GLU:543:CD:9879, V-A:ASP:366:CG:3212, V-A:ASP:366:CB:3211, V-A:ILE:369:CG2:3236, V-A:SER:385:CA:3406, V-A:SER:385:CB:3408, H-A:GLY:454:N:4049, V-B:ALA:541:CB:9863, V-A:ILE:369:CD1:3238, V-A:LEU:475:CD2:4258, V-A:HIS:383:CE1:3393, V-A:PRO:482:CG:4326, V-B:PRO:540:CA:9854, H-A:TYR:484:OH:4347, V-A:PRO:482:CB:4325, V-A:GLY:454:CA:4048"]

$$$$
3bc_Grossjean_2025
     RDKit          3D

 47 49  0  0  0  0  0  0  0  0999 V2000
  133.7480  125.7360   66.2020 C   0  0  0  0  0  0  0  0  0  0  0  0
  134.3240  125.5060   64.9220 O   0  0  0  0  0  0  0  0  0  0  0  0
  133.4930  125.3030   63.8360 C   0  0  0  0  0  0  0  0  0  0  0  0
  132.2640  125.9620   63.8630 C   0  0  0  0  0  0  0  0  0  0  0  0
  131.3590  125.8190   62.8140 C   0  0  0  0  0  0  0  0  0  0  0  0
  131.6710  125.0050   61.7230 C   0  0  0  0  0  0  0  0  0  0  0  0
  130.7010  124.9320   60.7060 N   0  0  0  0  0  0  0  0  0  0  0  0
  130.8690  124.7420   59.3800 C   0  0  0  0  0  0  0  0  0  0  0  0
  131.9570  124.5550   58.8310 O   0  0  0  0  0  0  0  0  0  0  0  0
  129.5690  124.7300   58.5640 C   0  0  0  0  0  0  0  0  0  0  0  0
  128.3750  123.4300   59.0250 S   0  0  0  0  0  0  0  0  0  0  0  0
  128.9130  122.7180   60.5640 C   0  0  0  0  0  0  0  0  0  0  0  0
  129.7350  121.6510   60.4130 N   0  0  0  0  0  0  0  0  0  0  0  0
  130.2230  121.0120   61.5090 C   0  0  0  0  0  0  0  0  0  0  0  0
  131.1080  119.8280   61.2560 C   0  0  0  0  0  0  0  0  0  0  0  0
  132.4240  120.0010   60.8020 C   0  0  0  0  0  0  0  0  0  0  0  0
  133.2520  118.9060   60.5650 C   0  0  0  0  0  0  0  0  0  0  0  0
  132.7700  117.6190   60.7790 C   0  0  0  0  0  0  0  0  0  0  0  0
  131.4680  117.4190   61.2260 C   0  0  0  0  0  0  0  0  0  0  0  0
  130.6440  118.5170   61.4610 C   0  0  0  0  0  0  0  0  0  0  0  0
  129.8880  121.4400   62.7980 C   0  0  0  0  0  0  0  0  0  0  0  0
  129.0600  122.5540   62.9710 C   0  0  0  0  0  0  0  0  0  0  0  0
  128.7350  122.9960   64.3970 C   0  0  0  0  0  0  0  0  0  0  0  0
  128.5600  123.2270   61.8340 C   0  0  0  0  0  0  0  0  0  0  0  0
  127.7320  124.4240   61.9910 C   0  0  0  0  0  0  0  0  0  0  0  0
  127.0760  125.3690   62.1180 N   0  0  0  0  0  0  0  0  0  0  0  0
  132.9110  124.3500   61.6820 C   0  0  0  0  0  0  0  0  0  0  0  0
  133.8130  124.4960   62.7330 C   0  0  0  0  0  0  0  0  0  0  0  0
  134.4663  125.4492   66.9842 H   0  0  0  0  0  0  0  0  0  0  0  0
  133.4992  126.8024   66.3059 H   0  0  0  0  0  0  0  0  0  0  0  0
  132.8331  125.1342   66.3059 H   0  0  0  0  0  0  0  0  0  0  0  0
  132.0071  126.6007   64.7209 H   0  0  0  0  0  0  0  0  0  0  0  0
  130.3955  126.3489   62.8450 H   0  0  0  0  0  0  0  0  0  0  0  0
  129.7470  124.9720   61.0360 H   0  0  0  0  0  0  0  0  0  0  0  0
  129.0770  125.7053   58.6932 H   0  0  0  0  0  0  0  0  0  0  0  0
  129.8626  124.5204   57.5248 H   0  0  0  0  0  0  0  0  0  0  0  0
  132.8082  121.0173   60.6304 H   0  0  0  0  0  0  0  0  0  0  0  0
  134.2820  119.0585   60.2103 H   0  0  0  0  0  0  0  0  0  0  0  0
  133.4229  116.7533   60.5935 H   0  0  0  0  0  0  0  0  0  0  0  0
  131.0912  116.3991   61.3930 H   0  0  0  0  0  0  0  0  0  0  0  0
  129.6142  118.3558   61.8125 H   0  0  0  0  0  0  0  0  0  0  0  0
  130.2755  120.9008   63.6750 H   0  0  0  0  0  0  0  0  0  0  0  0
  129.2304  122.3223   65.1116 H   0  0  0  0  0  0  0  0  0  0  0  0
  129.0939  124.0240   64.5530 H   0  0  0  0  0  0  0  0  0  0  0  0
  127.6467  122.9599   64.5530 H   0  0  0  0  0  0  0  0  0  0  0  0
  133.1712  123.7202   60.8185 H   0  0  0  0  0  0  0  0  0  0  0  0
  134.7817  123.9760   62.6986 H   0  0  0  0  0  0  0  0  0  0  0  0
  1  2  1  0
  2  3  1  0
  3  4  2  0
  4  5  1  0
  5  6  2  0
  6  7  1  0
  7  8  1  0
  8  9  2  0
  8 10  1  0
 10 11  1  0
 11 12  1  0
 12 13  2  0
 13 14  1  0
 14 15  1  0
 15 16  2  0
 16 17  1  0
 17 18  2  0
 18 19  1  0
 19 20  2  0
 14 21  2  0
 21 22  1  0
 22 23  1  0
 22 24  2  0
 24 25  1  0
 25 26  3  0
  6 27  1  0
 27 28  2  0
 28  3  1  0
 24 12  1  0
 20 15  1  0
  1 29  1  0
  1 30  1  0
  1 31  1  0
  4 32  1  0
  5 33  1  0
  7 34  1  0
 10 35  1  0
 10 36  1  0
 16 37  1  0
 17 38  1  0
 18 39  1  0
 19 40  1  0
 20 41  1  0
 21 42  1  0
 23 43  1  0
 23 44  1  0
 23 45  1  0
 27 46  1  0
 28 47  1  0
M  END
>  <Binding energies>  (1) 
[-7.72]

>  <Ligand effiencies>  (1) 
[-0.26620689655172414]

>  <Interactions>  (1) 
["V-B:TYR:539:CD2:9845, V-B:TYR:539:CZ:9848, V-B:TYR:539:CE2:9847, V-B:GLU:543:CD:9879, V-A:ASP:366:CG:3212, V-B:GLU:543:CG:9878, V-A:VAL:384:C:3396, H-A:ARG:545:NE:4923, V-A:ARG:545:CZ:4925, V-A:SER:385:CA:3406, H-A:ARG:545:NH1:4926, V-A:SER:385:CB:3408, V-A:ARG:545:CD:4922, H-A:GLY:454:N:4049, V-B:ALA:541:CB:9863, H-A:ARG:545:NH2:4927, V-A:ARG:545:CG:4921, V-A:ILE:369:CD1:3238, V-A:LEU:475:CD2:4258, V-A:HIS:383:CE1:3393, H-B:TYR:539:OH:9849, V-B:PRO:540:CA:9854"]

$$$$
3bd_Grossjean_2025
     RDKit          3D

 43 45  0  0  0  0  0  0  0  0999 V2000
  134.0200  123.5790   62.8420 C   0  0  0  0  0  0  0  0  0  0  0  0
  132.7290  122.7680   62.7460 C   0  0  0  0  0  0  0  0  0  0  0  0
  132.7460  121.5820   62.0040 C   0  0  0  0  0  0  0  0  0  0  0  0
  131.5830  120.8120   61.8880 C   0  0  0  0  0  0  0  0  0  0  0  0
  131.5330  119.5290   61.1130 C   0  0  0  0  0  0  0  0  0  0  0  0
  130.4750  118.6240   61.2910 C   0  0  0  0  0  0  0  0  0  0  0  0
  130.4250  117.4300   60.5760 C   0  0  0  0  0  0  0  0  0  0  0  0
  131.4360  117.1240   59.6700 C   0  0  0  0  0  0  0  0  0  0  0  0
  132.4960  118.0020   59.4780 C   0  0  0  0  0  0  0  0  0  0  0  0
  132.5440  119.1940   60.1950 C   0  0  0  0  0  0  0  0  0  0  0  0
  130.4320  121.1960   62.5000 N   0  0  0  0  0  0  0  0  0  0  0  0
  130.3960  122.3450   63.2220 C   0  0  0  0  0  0  0  0  0  0  0  0
  128.8220  122.7430   63.9650 S   0  0  0  0  0  0  0  0  0  0  0  0
  128.0400  124.0430   62.9640 C   0  0  0  0  0  0  0  0  0  0  0  0
  127.2790  123.4670   61.7690 C   0  0  0  0  0  0  0  0  0  0  0  0
  126.2440  122.8310   61.9690 O   0  0  0  0  0  0  0  0  0  0  0  0
  127.8300  123.6980   60.5580 N   0  0  0  0  0  0  0  0  0  0  0  0
  127.3590  123.3250   59.2850 C   0  0  0  0  0  0  0  0  0  0  0  0
  128.3030  122.7660   58.4200 C   0  0  0  0  0  0  0  0  0  0  0  0
  127.9320  122.3740   57.1360 C   0  0  0  0  0  0  0  0  0  0  0  0
  126.6180  122.5510   56.7130 C   0  0  0  0  0  0  0  0  0  0  0  0
  125.6710  123.1200   57.5620 C   0  0  0  0  0  0  0  0  0  0  0  0
  126.0380  123.5110   58.8460 C   0  0  0  0  0  0  0  0  0  0  0  0
  131.5300  123.1710   63.3730 C   0  0  0  0  0  0  0  0  0  0  0  0
  131.4790  124.4090   64.1570 C   0  0  0  0  0  0  0  0  0  0  0  0
  131.4410  125.3850   64.7770 N   0  0  0  0  0  0  0  0  0  0  0  0
  134.2747  123.7390   63.9001 H   0  0  0  0  0  0  0  0  0  0  0  0
  134.8352  123.0305   62.3475 H   0  0  0  0  0  0  0  0  0  0  0  0
  133.8797  124.5515   62.3475 H   0  0  0  0  0  0  0  0  0  0  0  0
  133.6736  121.2546   61.5117 H   0  0  0  0  0  0  0  0  0  0  0  0
  129.6734  118.8614   62.0059 H   0  0  0  0  0  0  0  0  0  0  0  0
  129.5891  116.7311   60.7269 H   0  0  0  0  0  0  0  0  0  0  0  0
  131.3959  116.1823   59.1029 H   0  0  0  0  0  0  0  0  0  0  0  0
  133.2940  117.7558   58.7621 H   0  0  0  0  0  0  0  0  0  0  0  0
  133.3861  119.8848   60.0411 H   0  0  0  0  0  0  0  0  0  0  0  0
  127.3358  124.6030   63.5968 H   0  0  0  0  0  0  0  0  0  0  0  0
  128.8347  124.6976   62.5768 H   0  0  0  0  0  0  0  0  0  0  0  0
  128.7300  124.1550   60.5550 H   0  0  0  0  0  0  0  0  0  0  0  0
  129.3428  122.6350   58.7541 H   0  0  0  0  0  0  0  0  0  0  0  0
  128.6745  121.9263   56.4591 H   0  0  0  0  0  0  0  0  0  0  0  0
  126.3246  122.2390   55.6998 H   0  0  0  0  0  0  0  0  0  0  0  0
  124.6356  123.2598   57.2180 H   0  0  0  0  0  0  0  0  0  0  0  0
  125.2940  123.9655   59.5167 H   0  0  0  0  0  0  0  0  0  0  0  0
  1  2  1  0
  2  3  2  0
  3  4  1  0
  4  5  1  0
  5  6  2  0
  6  7  1  0
  7  8  2  0
  8  9  1  0
  9 10  2  0
  4 11  2  0
 11 12  1  0
 12 13  1  0
 13 14  1  0
 14 15  1  0
 15 16  2  0
 15 17  1  0
 17 18  1  0
 18 19  2  0
 19 20  1  0
 20 21  2  0
 21 22  1  0
 22 23  2  0
 12 24  2  0
 24 25  1  0
 25 26  3  0
 24  2  1  0
 10  5  1  0
 23 18  1  0
  1 27  1  0
  1 28  1  0
  1 29  1  0
  3 30  1  0
  6 31  1  0
  7 32  1  0
  8 33  1  0
  9 34  1  0
 10 35  1  0
 14 36  1  0
 14 37  1  0
 17 38  1  0
 19 39  1  0
 20 40  1  0
 21 41  1  0
 22 42  1  0
 23 43  1  0
M  END
>  <Binding energies>  (1) 
[-8.99]

>  <Ligand effiencies>  (1) 
[-0.33296296296296296]

>  <Interactions>  (1) 
["V-B:PRO:540:CD:9858, V-B:PRO:540:N:9855, V-B:MET:535:CE:9806, V-B:TYR:539:CD2:9845, V-B:TYR:539:CZ:9848, V-B:TYR:539:C:9838, V-B:TYR:539:CE1:9846, V-B:TYR:539:CD1:9844, V-B:PRO:540:CB:9856, V-B:TYR:539:CE2:9847, V-B:GLU:543:CD:9879, V-B:TYR:539:CG:9843, V-B:ALA:541:CB:9863, V-A:ILE:369:CD1:3238, V-A:LEU:475:CD2:4258, V-A:HIS:383:CE1:3393, V-A:PRO:482:CG:4326, V-B:PRO:540:CA:9854, V-B:TYR:539:CB:9842, H-A:TYR:484:OH:4347, H-B:ALA:541:N:9862, V-A:GLY:453:C:4041, V-A:GLY:454:CA:4048, V-B:TYR:539:CA:9840"]

$$$$
3be_Grossjean_2025
     RDKit          3D

 45 47  0  0  0  0  0  0  0  0999 V2000
  134.7700  125.7100   67.2090 C   0  0  0  0  0  0  0  0  0  0  0  0
  133.5240  125.8360   66.3540 C   0  0  0  0  0  0  0  0  0  0  0  0
  132.3410  126.3770   66.8620 C   0  0  0  0  0  0  0  0  0  0  0  0
  131.2320  126.4600   66.0180 C   0  0  0  0  0  0  0  0  0  0  0  0
  131.3340  126.0050   64.7000 C   0  0  0  0  0  0  0  0  0  0  0  0
  132.5510  125.4780   64.2550 C   0  0  0  0  0  0  0  0  0  0  0  0
  132.5850  125.0280   62.9220 N   0  0  0  0  0  0  0  0  0  0  0  0
  133.5760  124.3770   62.2750 C   0  0  0  0  0  0  0  0  0  0  0  0
  134.6580  124.0700   62.7790 O   0  0  0  0  0  0  0  0  0  0  0  0
  133.2660  124.0260   60.8110 C   0  0  0  0  0  0  0  0  0  0  0  0
  132.4290  122.4230   60.5590 S   0  0  0  0  0  0  0  0  0  0  0  0
  130.7400  122.5920   61.0920 C   0  0  0  0  0  0  0  0  0  0  0  0
  129.8530  122.6750   60.0700 N   0  0  0  0  0  0  0  0  0  0  0  0
  128.5250  122.8030   60.3330 C   0  0  0  0  0  0  0  0  0  0  0  0
  127.6130  122.9030   59.1470 C   0  0  0  0  0  0  0  0  0  0  0  0
  127.9940  122.3770   57.9020 C   0  0  0  0  0  0  0  0  0  0  0  0
  127.1540  122.4680   56.7970 C   0  0  0  0  0  0  0  0  0  0  0  0
  125.9160  123.0900   56.9200 C   0  0  0  0  0  0  0  0  0  0  0  0
  125.5150  123.6210   58.1410 C   0  0  0  0  0  0  0  0  0  0  0  0
  126.3590  123.5280   59.2440 C   0  0  0  0  0  0  0  0  0  0  0  0
  128.0570  122.8540   61.6500 C   0  0  0  0  0  0  0  0  0  0  0  0
  128.9560  122.7450   62.7160 C   0  0  0  0  0  0  0  0  0  0  0  0
  128.3970  122.7890   64.1380 C   0  0  0  0  0  0  0  0  0  0  0  0
  130.3340  122.5980   62.4460 C   0  0  0  0  0  0  0  0  0  0  0  0
  131.2860  122.4280   63.5460 C   0  0  0  0  0  0  0  0  0  0  0  0
  132.0360  122.2930   64.4170 N   0  0  0  0  0  0  0  0  0  0  0  0
  133.6370  125.3920   65.0770 N   0  0  0  0  0  0  0  0  0  0  0  0
  134.4895  125.7384   68.2723 H   0  0  0  0  0  0  0  0  0  0  0  0
  135.2718  124.7565   66.9875 H   0  0  0  0  0  0  0  0  0  0  0  0
  135.4525  126.5437   66.9875 H   0  0  0  0  0  0  0  0  0  0  0  0
  132.2843  126.7294   67.9025 H   0  0  0  0  0  0  0  0  0  0  0  0
  130.2849  126.8803   66.3873 H   0  0  0  0  0  0  0  0  0  0  0  0
  130.4693  126.0606   64.0223 H   0  0  0  0  0  0  0  0  0  0  0  0
  131.7620  125.2510   62.3810 H   0  0  0  0  0  0  0  0  0  0  0  0
  132.6198  124.8160   60.4007 H   0  0  0  0  0  0  0  0  0  0  0  0
  134.2383  123.9470   60.3026 H   0  0  0  0  0  0  0  0  0  0  0  0
  128.9725  121.8851   57.7989 H   0  0  0  0  0  0  0  0  0  0  0  0
  127.4677  122.0495   55.8293 H   0  0  0  0  0  0  0  0  0  0  0  0
  125.2508  123.1622   56.0469 H   0  0  0  0  0  0  0  0  0  0  0  0
  124.5353  124.1123   58.2348 H   0  0  0  0  0  0  0  0  0  0  0  0
  126.0385  123.9510   60.2075 H   0  0  0  0  0  0  0  0  0  0  0  0
  126.9822  122.9798   61.8474 H   0  0  0  0  0  0  0  0  0  0  0  0
  129.2247  122.7238   64.8595 H   0  0  0  0  0  0  0  0  0  0  0  0
  127.8525  123.7328   64.2889 H   0  0  0  0  0  0  0  0  0  0  0  0
  127.7115  121.9420   64.2889 H   0  0  0  0  0  0  0  0  0  0  0  0
  1  2  1  0
  2  3  2  0
  3  4  1  0
  4  5  2  0
  5  6  1  0
  6  7  1  0
  7  8  1  0
  8  9  2  0
  8 10  1  0
 10 11  1  0
 11 12  1  0
 12 13  2  0
 13 14  1  0
 14 15  1  0
 15 16  2  0
 16 17  1  0
 17 18  2  0
 18 19  1  0
 19 20  2  0
 14 21  2  0
 21 22  1  0
 22 23  1  0
 22 24  2  0
 24 25  1  0
 25 26  3  0
  6 27  2  0
 27  2  1  0
 24 12  1  0
 20 15  1  0
  1 28  1  0
  1 29  1  0
  1 30  1  0
  3 31  1  0
  4 32  1  0
  5 33  1  0
  7 34  1  0
 10 35  1  0
 10 36  1  0
 16 37  1  0
 17 38  1  0
 18 39  1  0
 19 40  1  0
 20 41  1  0
 21 42  1  0
 23 43  1  0
 23 44  1  0
 23 45  1  0
M  END
>  <Binding energies>  (1) 
[-8.81]

>  <Ligand effiencies>  (1) 
[-0.31464285714285717]

>  <Interactions>  (1) 
["V-B:PRO:540:N:9855, V-B:MET:535:CE:9806, V-B:TYR:539:CD2:9845, V-B:TYR:539:CZ:9848, V-A:HIS:456:CE1:4069, V-B:TYR:539:C:9838, V-B:TYR:539:CD1:9844, V-A:GLU:543:CD:4907, V-B:PRO:540:CB:9856, V-B:TYR:539:CE2:9847, V-B:GLU:543:CD:9879, V-B:TYR:539:CG:9843, V-A:ASP:366:CG:3212, V-B:GLU:543:CG:9878, V-A:ARG:545:CZ:4925, V-B:ALA:541:C:9859, V-A:ARG:545:CD:4922, H-A:GLY:454:N:4049, V-B:ALA:541:CB:9863, H-A:ARG:545:NH2:4927, V-A:ARG:545:CG:4921, V-A:ILE:369:CD1:3238, V-A:LEU:475:CD2:4258, V-B:ALA:541:CA:9861, V-B:PRO:540:CA:9854, H-A:TYR:484:OH:4347, V-A:GLY:453:C:4041, H-A:ASP:366:OD2:3214, V-A:GLY:453:CA:4043, V-A:GLY:454:CA:4048, V-B:TYR:539:CA:9840, V-A:ARG:545:CB:4920, V-A:ILE:455:C:4051"]

$$$$
3bf_Grossjean_2025
     RDKit          3D

 42 44  0  0  0  0  0  0  0  0999 V2000
  134.2060  123.6440   62.6390 C   0  0  0  0  0  0  0  0  0  0  0  0
  132.8750  122.8980   62.5970 C   0  0  0  0  0  0  0  0  0  0  0  0
  132.8270  121.6710   61.9270 C   0  0  0  0  0  0  0  0  0  0  0  0
  131.6300  120.9480   61.8770 C   0  0  0  0  0  0  0  0  0  0  0  0
  131.5190  119.6170   61.1950 C   0  0  0  0  0  0  0  0  0  0  0  0
  130.4250  118.7730   61.4460 C   0  0  0  0  0  0  0  0  0  0  0  0
  130.3150  117.5370   60.8160 C   0  0  0  0  0  0  0  0  0  0  0  0
  131.3010  117.1260   59.9250 C   0  0  0  0  0  0  0  0  0  0  0  0
  132.3940  117.9430   59.6600 C   0  0  0  0  0  0  0  0  0  0  0  0
  132.5020  119.1790   60.2920 C   0  0  0  0  0  0  0  0  0  0  0  0
  130.5040  121.4210   62.4740 N   0  0  0  0  0  0  0  0  0  0  0  0
  130.5280  122.6200   63.1060 C   0  0  0  0  0  0  0  0  0  0  0  0
  128.9640  123.0810   63.8210 S   0  0  0  0  0  0  0  0  0  0  0  0
  128.1120  124.1910   62.6500 C   0  0  0  0  0  0  0  0  0  0  0  0
  127.3010  123.4850   61.5540 C   0  0  0  0  0  0  0  0  0  0  0  0
  126.3340  122.7780   61.8440 O   0  0  0  0  0  0  0  0  0  0  0  0
  127.7200  123.7340   60.2940 N   0  0  0  0  0  0  0  0  0  0  0  0
  127.2080  123.2410   59.0800 C   0  0  0  0  0  0  0  0  0  0  0  0
  125.8960  123.5960   58.7480 C   0  0  0  0  0  0  0  0  0  0  0  0
  125.3360  123.1500   57.5500 C   0  0  0  0  0  0  0  0  0  0  0  0
  126.1140  122.3570   56.7050 C   0  0  0  0  0  0  0  0  0  0  0  0
  127.3920  122.0060   56.9960 N   0  0  0  0  0  0  0  0  0  0  0  0
  127.9230  122.4480   58.1650 C   0  0  0  0  0  0  0  0  0  0  0  0
  131.7050  123.3940   63.2110 C   0  0  0  0  0  0  0  0  0  0  0  0
  131.7450  124.6530   63.9610 C   0  0  0  0  0  0  0  0  0  0  0  0
  131.7780  125.6480   64.5510 N   0  0  0  0  0  0  0  0  0  0  0  0
  134.5008  123.8092   63.6858 H   0  0  0  0  0  0  0  0  0  0  0  0
  134.9773  123.0467   62.1307 H   0  0  0  0  0  0  0  0  0  0  0  0
  134.0991  124.6137   62.1307 H   0  0  0  0  0  0  0  0  0  0  0  0
  133.7299  121.2746   61.4396 H   0  0  0  0  0  0  0  0  0  0  0  0
  129.6437  119.0935   62.1508 H   0  0  0  0  0  0  0  0  0  0  0  0
  129.4515  116.8874   61.0219 H   0  0  0  0  0  0  0  0  0  0  0  0
  131.2153  116.1488   59.4272 H   0  0  0  0  0  0  0  0  0  0  0  0
  133.1706  117.6143   58.9537 H   0  0  0  0  0  0  0  0  0  0  0  0
  133.3695  119.8217   60.0812 H   0  0  0  0  0  0  0  0  0  0  0  0
  127.4246  124.8292   63.2246 H   0  0  0  0  0  0  0  0  0  0  0  0
  128.9025  124.7531   62.1313 H   0  0  0  0  0  0  0  0  0  0  0  0
  128.4730  124.3990   60.1930 H   0  0  0  0  0  0  0  0  0  0  0  0
  125.3066  124.2259   59.4305 H   0  0  0  0  0  0  0  0  0  0  0  0
  124.3043  123.4175   57.2777 H   0  0  0  0  0  0  0  0  0  0  0  0
  125.6721  122.0013   55.7626 H   0  0  0  0  0  0  0  0  0  0  0  0
  128.9602  122.1731   58.4073 H   0  0  0  0  0  0  0  0  0  0  0  0
  1  2  1  0
  2  3  2  0
  3  4  1  0
  4  5  1  0
  5  6  2  0
  6  7  1  0
  7  8  2  0
  8  9  1  0
  9 10  2  0
  4 11  2  0
 11 12  1  0
 12 13  1  0
 13 14  1  0
 14 15  1  0
 15 16  2  0
 15 17  1  0
 17 18  1  0
 18 19  2  0
 19 20  1  0
 20 21  2  0
 21 22  1  0
 22 23  2  0
 12 24  2  0
 24 25  1  0
 25 26  3  0
 24  2  1  0
 10  5  1  0
 23 18  1  0
  1 27  1  0
  1 28  1  0
  1 29  1  0
  3 30  1  0
  6 31  1  0
  7 32  1  0
  8 33  1  0
  9 34  1  0
 10 35  1  0
 14 36  1  0
 14 37  1  0
 17 38  1  0
 19 39  1  0
 20 40  1  0
 21 41  1  0
 23 42  1  0
M  END
>  <Binding energies>  (1) 
[-9.16]

>  <Ligand effiencies>  (1) 
[-0.33925925925925926]

>  <Interactions>  (1) 
["V-B:PRO:540:CD:9858, V-B:PRO:540:N:9855, H-B:TYR:539:N:9841, V-B:LEU:363:CD1:8159, V-B:TYR:539:CD2:9845, V-B:TYR:539:C:9838, V-B:PRO:540:CB:9856, V-B:TYR:539:CE2:9847, V-B:GLU:543:CD:9879, V-B:TYR:539:CG:9843, V-B:ALA:541:CB:9863, V-A:ILE:369:CD1:3238, V-A:LEU:475:CD2:4258, V-A:HIS:383:CE1:3393, V-A:PRO:482:CG:4326, V-B:PRO:540:CA:9854, V-B:TYR:539:CB:9842, H-B:ALA:541:N:9862, V-A:PRO:482:CB:4325, V-A:GLY:453:C:4041, V-A:GLY:454:CA:4048, V-B:TYR:539:CA:9840"]

$$$$
3bg_Grossjean_2025
     RDKit          3D

 46 48  0  0  0  0  0  0  0  0999 V2000
  131.0050  127.4080   63.0160 C   0  0  0  0  0  0  0  0  0  0  0  0
  130.4440  125.9970   63.1840 C   0  0  0  0  0  0  0  0  0  0  0  0
  129.1500  125.7410   62.7210 C   0  0  0  0  0  0  0  0  0  0  0  0
  128.5990  124.4590   62.8480 C   0  0  0  0  0  0  0  0  0  0  0  0
  127.2180  124.1140   62.3610 C   0  0  0  0  0  0  0  0  0  0  0  0
  126.2230  123.6790   63.2520 C   0  0  0  0  0  0  0  0  0  0  0  0
  124.9400  123.3770   62.8080 C   0  0  0  0  0  0  0  0  0  0  0  0
  124.6290  123.5010   61.4580 C   0  0  0  0  0  0  0  0  0  0  0  0
  125.5960  123.9180   60.5510 C   0  0  0  0  0  0  0  0  0  0  0  0
  126.8790  124.2180   61.0000 C   0  0  0  0  0  0  0  0  0  0  0  0
  129.3200  123.4500   63.4040 N   0  0  0  0  0  0  0  0  0  0  0  0
  130.5800  123.6810   63.8560 C   0  0  0  0  0  0  0  0  0  0  0  0
  131.4310  122.2640   64.5330 S   0  0  0  0  0  0  0  0  0  0  0  0
  133.0330  122.0980   63.6780 C   0  0  0  0  0  0  0  0  0  0  0  0
  132.8570  121.7070   62.2080 C   0  0  0  0  0  0  0  0  0  0  0  0
  131.9760  122.2410   61.5320 O   0  0  0  0  0  0  0  0  0  0  0  0
  133.6860  120.7590   61.7380 N   0  0  0  0  0  0  0  0  0  0  0  0
  133.5780  120.1090   60.4310 C   0  0  0  0  0  0  0  0  0  0  0  0
  132.4820  119.0510   60.4140 C   0  0  0  0  0  0  0  0  0  0  0  0
  132.4230  118.1200   59.3710 C   0  0  0  0  0  0  0  0  0  0  0  0
  131.4160  117.1600   59.3490 C   0  0  0  0  0  0  0  0  0  0  0  0
  130.4760  117.1230   60.3780 C   0  0  0  0  0  0  0  0  0  0  0  0
  130.5400  118.0330   61.4310 C   0  0  0  0  0  0  0  0  0  0  0  0
  131.5480  118.9950   61.4520 C   0  0  0  0  0  0  0  0  0  0  0  0
  131.1850  124.9520   63.7740 C   0  0  0  0  0  0  0  0  0  0  0  0
  132.5460  125.1870   64.2610 C   0  0  0  0  0  0  0  0  0  0  0  0
  133.6210  125.3750   64.6460 N   0  0  0  0  0  0  0  0  0  0  0  0
  131.1818  127.8526   64.0065 H   0  0  0  0  0  0  0  0  0  0  0  0
  131.9532  127.3618   62.4603 H   0  0  0  0  0  0  0  0  0  0  0  0
  130.2840  128.0255   62.4603 H   0  0  0  0  0  0  0  0  0  0  0  0
  128.5635  126.5472   62.2563 H   0  0  0  0  0  0  0  0  0  0  0  0
  126.4629  123.5753   64.3205 H   0  0  0  0  0  0  0  0  0  0  0  0
  124.1737  123.0412   63.5222 H   0  0  0  0  0  0  0  0  0  0  0  0
  123.6130  123.2680   61.1066 H   0  0  0  0  0  0  0  0  0  0  0  0
  125.3486  124.0106   59.4832 H   0  0  0  0  0  0  0  0  0  0  0  0
  127.6419  124.5424   60.2769 H   0  0  0  0  0  0  0  0  0  0  0  0
  133.5649  123.0595   63.7292 H   0  0  0  0  0  0  0  0  0  0  0  0
  133.6051  121.3018   64.1767 H   0  0  0  0  0  0  0  0  0  0  0  0
  134.3750  120.3740   62.3670 H   0  0  0  0  0  0  0  0  0  0  0  0
  133.3486  120.8715   59.6720 H   0  0  0  0  0  0  0  0  0  0  0  0
  134.5357  119.6126   60.2159 H   0  0  0  0  0  0  0  0  0  0  0  0
  133.1737  118.1471   58.5674 H   0  0  0  0  0  0  0  0  0  0  0  0
  131.3619  116.4342   58.5242 H   0  0  0  0  0  0  0  0  0  0  0  0
  129.6762  116.3681   60.3583 H   0  0  0  0  0  0  0  0  0  0  0  0
  129.7982  117.9923   62.2422 H   0  0  0  0  0  0  0  0  0  0  0  0
  131.6085  119.7102   62.2855 H   0  0  0  0  0  0  0  0  0  0  0  0
  1  2  1  0
  2  3  2  0
  3  4  1  0
  4  5  1  0
  5  6  2  0
  6  7  1  0
  7  8  2  0
  8  9  1  0
  9 10  2  0
  4 11  2  0
 11 12  1  0
 12 13  1  0
 13 14  1  0
 14 15  1  0
 15 16  2  0
 15 17  1  0
 17 18  1  0
 18 19  1  0
 19 20  2  0
 20 21  1  0
 21 22  2  0
 22 23  1  0
 23 24  2  0
 12 25  2  0
 25 26  1  0
 26 27  3  0
 25  2  1  0
 10  5  1  0
 24 19  1  0
  1 28  1  0
  1 29  1  0
  1 30  1  0
  3 31  1  0
  6 32  1  0
  7 33  1  0
  8 34  1  0
  9 35  1  0
 10 36  1  0
 14 37  1  0
 14 38  1  0
 17 39  1  0
 18 40  1  0
 18 41  1  0
 20 42  1  0
 21 43  1  0
 22 44  1  0
 23 45  1  0
 24 46  1  0
M  END
>  <Binding energies>  (1) 
[-8.51]

>  <Ligand effiencies>  (1) 
[-0.30392857142857144]

>  <Interactions>  (1) 
["V-B:TYR:539:CD2:9845, V-A:GLU:543:CD:4907, V-B:PRO:540:CB:9856, V-B:TYR:539:CE2:9847, V-B:GLU:543:CD:9879, V-B:TYR:539:CG:9843, V-B:GLU:543:CG:9878, V-A:ILE:369:CG2:3236, V-A:SER:385:CA:3406, V-B:ALA:541:C:9859, V-A:SER:385:CB:3408, H-A:GLY:454:N:4049, V-B:ALA:541:CB:9863, H-A:ARG:545:NH2:4927, V-A:LEU:475:CD2:4258, V-A:HIS:383:CE1:3393, V-A:PRO:482:CG:4326, V-B:PRO:540:CA:9854, V-B:TYR:539:CB:9842, H-A:TYR:484:OH:4347, V-A:PRO:482:CB:4325, V-A:LEU:373:CD2:3280, V-A:GLY:454:CA:4048, V-B:VAL:344:CG1:7971, V-A:SER:385:C:3404, H-A:SER:385:O:3405"]

$$$$
3bk_Grossjean_2025
     RDKit          3D

 57 58  0  0  0  0  0  0  0  0999 V2000
  127.6730  122.3750   56.9700 C   0  0  0  0  0  0  0  0  0  0  0  0
  126.5100  121.6370   56.6270 O   0  0  0  0  0  0  0  0  0  0  0  0
  125.3860  122.4560   56.3360 C   0  0  0  0  0  0  0  0  0  0  0  0
  125.4640  123.7500   57.1580 C   0  0  0  0  0  0  0  0  0  0  0  0
  124.2420  124.4640   57.0300 O   0  0  0  0  0  0  0  0  0  0  0  0
  123.9060  125.2370   58.1750 C   0  0  0  0  0  0  0  0  0  0  0  0
  125.1470  125.3920   59.0640 C   0  0  0  0  0  0  0  0  0  0  0  0
  126.1220  126.1690   58.3820 O   0  0  0  0  0  0  0  0  0  0  0  0
  127.4500  125.9640   58.8470 C   0  0  0  0  0  0  0  0  0  0  0  0
  127.5390  124.6030   59.5520 C   0  0  0  0  0  0  0  0  0  0  0  0
  127.9280  124.7280   60.9580 N   0  0  0  0  0  0  0  0  0  0  0  0
  127.6920  123.8160   61.9160 C   0  0  0  0  0  0  0  0  0  0  0  0
  127.1270  122.7400   61.7130 O   0  0  0  0  0  0  0  0  0  0  0  0
  128.1940  124.1580   63.3210 C   0  0  0  0  0  0  0  0  0  0  0  0
  128.9960  122.7340   64.1240 S   0  0  0  0  0  0  0  0  0  0  0  0
  130.5260  122.3760   63.2780 C   0  0  0  0  0  0  0  0  0  0  0  0
  130.5520  121.2240   62.5610 N   0  0  0  0  0  0  0  0  0  0  0  0
  131.6770  120.8680   61.8860 C   0  0  0  0  0  0  0  0  0  0  0  0
  131.6140  119.5920   61.1020 C   0  0  0  0  0  0  0  0  0  0  0  0
  130.5470  118.6960   61.2750 C   0  0  0  0  0  0  0  0  0  0  0  0
  130.4860  117.5060   60.5540 C   0  0  0  0  0  0  0  0  0  0  0  0
  131.4930  117.1960   59.6470 C   0  0  0  0  0  0  0  0  0  0  0  0
  132.5590  118.0690   59.4530 C   0  0  0  0  0  0  0  0  0  0  0  0
  132.6160  119.2580   60.1750 C   0  0  0  0  0  0  0  0  0  0  0  0
  132.8170  121.6800   61.9130 C   0  0  0  0  0  0  0  0  0  0  0  0
  132.8080  122.8710   62.6480 C   0  0  0  0  0  0  0  0  0  0  0  0
  134.0740  123.7270   62.6510 C   0  0  0  0  0  0  0  0  0  0  0  0
  131.6420  123.2380   63.3510 C   0  0  0  0  0  0  0  0  0  0  0  0
  131.6030  124.4810   64.1280 C   0  0  0  0  0  0  0  0  0  0  0  0
  131.5720  125.4620   64.7420 N   0  0  0  0  0  0  0  0  0  0  0  0
  127.7618  122.4314   58.0650 H   0  0  0  0  0  0  0  0  0  0  0  0
  128.5604  121.8744   56.5554 H   0  0  0  0  0  0  0  0  0  0  0  0
  127.5980  123.3911   56.5554 H   0  0  0  0  0  0  0  0  0  0  0  0
  125.3810  122.7031   55.2641 H   0  0  0  0  0  0  0  0  0  0  0  0
  124.4637  121.9149   56.5939 H   0  0  0  0  0  0  0  0  0  0  0  0
  125.6358  123.5030   58.2161 H   0  0  0  0  0  0  0  0  0  0  0  0
  126.2933  124.3711   56.7884 H   0  0  0  0  0  0  0  0  0  0  0  0
  123.5548  126.2300   57.8579 H   0  0  0  0  0  0  0  0  0  0  0  0
  123.1088  124.7317   58.7399 H   0  0  0  0  0  0  0  0  0  0  0  0
  124.8666  125.8951   60.0011 H   0  0  0  0  0  0  0  0  0  0  0  0
  125.5621  124.3991   59.2919 H   0  0  0  0  0  0  0  0  0  0  0  0
  128.1443  125.9816   57.9940 H   0  0  0  0  0  0  0  0  0  0  0  0
  127.7191  126.7624   59.5542 H   0  0  0  0  0  0  0  0  0  0  0  0
  126.5556  124.1129   59.4996 H   0  0  0  0  0  0  0  0  0  0  0  0
  128.3121  124.0102   59.0412 H   0  0  0  0  0  0  0  0  0  0  0  0
  128.4510  125.5570   61.1990 H   0  0  0  0  0  0  0  0  0  0  0  0
  128.9209  124.9804   63.2480 H   0  0  0  0  0  0  0  0  0  0  0  0
  127.3256  124.4475   63.9310 H   0  0  0  0  0  0  0  0  0  0  0  0
  129.7473  118.9375   61.9907 H   0  0  0  0  0  0  0  0  0  0  0  0
  129.6440  116.8138   60.7017 H   0  0  0  0  0  0  0  0  0  0  0  0
  131.4468  116.2549   59.0793 H   0  0  0  0  0  0  0  0  0  0  0  0
  133.3526  117.8210   58.7328 H   0  0  0  0  0  0  0  0  0  0  0  0
  133.4588  119.9470   60.0173 H   0  0  0  0  0  0  0  0  0  0  0  0
  133.7185  121.3824   61.3574 H   0  0  0  0  0  0  0  0  0  0  0  0
  134.3761  123.9312   63.6888 H   0  0  0  0  0  0  0  0  0  0  0  0
  134.8817  123.1889   62.1332 H   0  0  0  0  0  0  0  0  0  0  0  0
  133.8755  124.6770   62.1332 H   0  0  0  0  0  0  0  0  0  0  0  0
  1  2  1  0
  2  3  1  0
  3  4  1  0
  4  5  1  0
  5  6  1  0
  6  7  1  0
  7  8  1  0
  8  9  1  0
  9 10  1  0
 10 11  1  0
 11 12  1  0
 12 13  2  0
 12 14  1  0
 14 15  1  0
 15 16  1  0
 16 17  2  0
 17 18  1  0
 18 19  1  0
 19 20  2  0
 20 21  1  0
 21 22  2  0
 22 23  1  0
 23 24  2  0
 18 25  2  0
 25 26  1  0
 26 27  1  0
 26 28  2  0
 28 29  1  0
 29 30  3  0
 28 16  1  0
 24 19  1  0
  1 31  1  0
  1 32  1  0
  1 33  1  0
  3 34  1  0
  3 35  1  0
  4 36  1  0
  4 37  1  0
  6 38  1  0
  6 39  1  0
  7 40  1  0
  7 41  1  0
  9 42  1  0
  9 43  1  0
 10 44  1  0
 10 45  1  0
 11 46  1  0
 14 47  1  0
 14 48  1  0
 20 49  1  0
 21 50  1  0
 22 51  1  0
 23 52  1  0
 24 53  1  0
 25 54  1  0
 27 55  1  0
 27 56  1  0
 27 57  1  0
M  END
>  <Binding energies>  (1) 
[-7.12]

>  <Ligand effiencies>  (1) 
[-0.2296774193548387]

>  <Interactions>  (1) 
["V-B:PRO:540:CD:9858, V-B:PRO:540:N:9855, V-B:TYR:531:CE2:9764, H-B:TYR:539:N:9841, V-B:LEU:363:CD1:8159, V-B:MET:535:CE:9806, V-B:TYR:539:CD2:9845, V-B:ASP:366:CG:8183, V-B:TYR:539:CZ:9848, V-B:TYR:539:C:9838, V-B:TYR:539:CE1:9846, V-B:TYR:539:CD1:9844, V-B:TYR:539:CE2:9847, V-B:ASP:366:CB:8182, V-B:GLU:543:CD:9879, V-B:TYR:539:CG:9843, H-B:TYR:531:OH:9766, V-B:GLU:543:CG:9878, V-B:ALA:541:CB:9863, V-A:ILE:369:CD1:3238, V-A:LEU:475:CD2:4258, V-A:HIS:383:CE1:3393, V-A:PRO:482:CG:4326, V-B:TYR:539:CB:9842, H-A:TYR:484:OH:4347, H-B:ALA:541:N:9862, V-A:LEU:373:CD2:3280, V-A:GLY:454:CA:4048, V-B:TYR:539:CA:9840, V-B:TYR:531:CZ:9765, V-B:ILE:538:CG2:9834"]

$$$$
3ca_Grossjean_2025
     RDKit          3D

 52 54  0  0  0  0  0  0  0  0999 V2000
  129.2810  124.6540   73.1630 C   0  0  0  0  0  0  0  0  0  0  0  0
  129.8610  126.0710   73.1440 C   0  0  0  0  0  0  0  0  0  0  0  0
  128.8150  127.0080   72.9160 O   0  0  0  0  0  0  0  0  0  0  0  0
  127.9720  126.8740   71.8610 C   0  0  0  0  0  0  0  0  0  0  0  0
  126.7430  126.8320   71.9730 O   0  0  0  0  0  0  0  0  0  0  0  0
  128.6830  126.7900   70.5400 C   0  0  0  0  0  0  0  0  0  0  0  0
  129.2470  127.9490   69.9920 C   0  0  0  0  0  0  0  0  0  0  0  0
  129.9110  127.9030   68.7700 C   0  0  0  0  0  0  0  0  0  0  0  0
  130.0200  126.7020   68.0680 C   0  0  0  0  0  0  0  0  0  0  0  0
  130.7120  126.7670   66.8440 N   0  0  0  0  0  0  0  0  0  0  0  0
  130.9480  125.7960   65.9350 C   0  0  0  0  0  0  0  0  0  0  0  0
  130.5600  124.6310   66.0190 O   0  0  0  0  0  0  0  0  0  0  0  0
  131.7510  126.2330   64.7040 C   0  0  0  0  0  0  0  0  0  0  0  0
  132.7010  124.8730   63.9470 S   0  0  0  0  0  0  0  0  0  0  0  0
  131.5820  123.6700   63.2430 C   0  0  0  0  0  0  0  0  0  0  0  0
  130.2610  123.9620   63.3500 N   0  0  0  0  0  0  0  0  0  0  0  0
  129.3580  123.1070   62.8220 C   0  0  0  0  0  0  0  0  0  0  0  0
  127.9050  123.5120   62.9670 C   0  0  0  0  0  0  0  0  0  0  0  0
  129.7290  121.9260   62.1840 C   0  0  0  0  0  0  0  0  0  0  0  0
  131.0850  121.5930   62.0760 C   0  0  0  0  0  0  0  0  0  0  0  0
  131.4350  120.3100   61.3950 C   0  0  0  0  0  0  0  0  0  0  0  0
  130.6320  119.1770   61.5750 C   0  0  0  0  0  0  0  0  0  0  0  0
  130.9550  117.9740   60.9520 C   0  0  0  0  0  0  0  0  0  0  0  0
  132.0890  117.8990   60.1470 C   0  0  0  0  0  0  0  0  0  0  0  0
  132.9020  119.0140   59.9630 C   0  0  0  0  0  0  0  0  0  0  0  0
  132.5760  120.2150   60.5880 C   0  0  0  0  0  0  0  0  0  0  0  0
  132.0440  122.4910   62.6110 C   0  0  0  0  0  0  0  0  0  0  0  0
  133.4800  122.2200   62.4830 C   0  0  0  0  0  0  0  0  0  0  0  0
  134.6130  122.0060   62.3810 N   0  0  0  0  0  0  0  0  0  0  0  0
  129.4640  125.5340   68.6140 C   0  0  0  0  0  0  0  0  0  0  0  0
  128.8020  125.5820   69.8370 C   0  0  0  0  0  0  0  0  0  0  0  0
  129.1470  124.3266   74.2046 H   0  0  0  0  0  0  0  0  0  0  0  0
  128.3085  124.6490   72.6490 H   0  0  0  0  0  0  0  0  0  0  0  0
  129.9709  123.9685   72.6490 H   0  0  0  0  0  0  0  0  0  0  0  0
  130.3401  126.2842   74.1110 H   0  0  0  0  0  0  0  0  0  0  0  0
  130.6072  126.1513   72.3398 H   0  0  0  0  0  0  0  0  0  0  0  0
  129.1644  128.9037   70.5322 H   0  0  0  0  0  0  0  0  0  0  0  0
  130.3533  128.8203   68.3543 H   0  0  0  0  0  0  0  0  0  0  0  0
  131.0330  127.6910   66.5990 H   0  0  0  0  0  0  0  0  0  0  0  0
  131.0520  126.6312   63.9538 H   0  0  0  0  0  0  0  0  0  0  0  0
  132.4746  126.9913   65.0377 H   0  0  0  0  0  0  0  0  0  0  0  0
  127.6490  123.5834   64.0344 H   0  0  0  0  0  0  0  0  0  0  0  0
  127.7468  124.4885   62.4859 H   0  0  0  0  0  0  0  0  0  0  0  0
  127.2645  122.7582   62.4859 H   0  0  0  0  0  0  0  0  0  0  0  0
  128.9609  121.2581   61.7670 H   0  0  0  0  0  0  0  0  0  0  0  0
  129.7386  119.2377   62.2138 H   0  0  0  0  0  0  0  0  0  0  0  0
  130.3183  117.0885   61.0949 H   0  0  0  0  0  0  0  0  0  0  0  0
  132.3445  116.9504   59.6522 H   0  0  0  0  0  0  0  0  0  0  0  0
  133.7972  118.9467   59.3273 H   0  0  0  0  0  0  0  0  0  0  0  0
  133.2195  121.0959   60.4469 H   0  0  0  0  0  0  0  0  0  0  0  0
  129.5519  124.5796   68.0742 H   0  0  0  0  0  0  0  0  0  0  0  0
  128.3674  124.6629   70.2570 H   0  0  0  0  0  0  0  0  0  0  0  0
  1  2  1  0
  2  3  1  0
  3  4  1  0
  4  5  2  0
  4  6  1  0
  6  7  2  0
  7  8  1  0
  8  9  2  0
  9 10  1  0
 10 11  1  0
 11 12  2  0
 11 13  1  0
 13 14  1  0
 14 15  1  0
 15 16  2  0
 16 17  1  0
 17 18  1  0
 17 19  2  0
 19 20  1  0
 20 21  1  0
 21 22  2  0
 22 23  1  0
 23 24  2  0
 24 25  1  0
 25 26  2  0
 20 27  2  0
 27 28  1  0
 28 29  3  0
  9 30  1  0
 30 31  2  0
 31  6  1  0
 27 15  1  0
 26 21  1  0
  1 32  1  0
  1 33  1  0
  1 34  1  0
  2 35  1  0
  2 36  1  0
  7 37  1  0
  8 38  1  0
 10 39  1  0
 13 40  1  0
 13 41  1  0
 18 42  1  0
 18 43  1  0
 18 44  1  0
 19 45  1  0
 22 46  1  0
 23 47  1  0
 24 48  1  0
 25 49  1  0
 26 50  1  0
 30 51  1  0
 31 52  1  0
M  END
>  <Binding energies>  (1) 
[-8.7]

>  <Ligand effiencies>  (1) 
[-0.271875]

>  <Interactions>  (1) 
["V-B:GLU:543:CB:9877, V-A:GLU:543:CB:4905, V-B:TYR:539:CD2:9845, V-B:HIS:456:CE1:9040, V-A:HIS:456:CE1:4069, V-A:GLU:543:CD:4907, V-B:TYR:539:CE2:9847, V-B:GLU:543:CD:9879, V-B:GLU:543:C:9873, V-B:GLU:543:CG:9878, V-A:HIS:456:CD2:4067, V-A:TYR:484:CZ:4346, V-A:ILE:369:CG2:3236, V-A:ARG:545:CZ:4925, V-A:SER:385:CA:3406, V-A:TYR:484:CE2:4345, H-A:GLY:454:N:4049, V-B:ALA:541:CB:9863, V-A:ILE:369:CD1:3238, V-A:LEU:475:CD2:4258, H-A:TYR:484:OH:4347, V-A:GLY:454:CA:4048, V-B:GLU:543:CA:9875, H-A:GLU:543:OE1:4908, H-A:GLU:543:OE2:4909, V-A:HIS:456:CG:4065, H-B:HIS:456:ND1:9037"]

$$$$
3cb_Grossjean_2025
     RDKit          3D

 49 51  0  0  0  0  0  0  0  0999 V2000
  129.3230  125.3630   72.8100 C   0  0  0  0  0  0  0  0  0  0  0  0
  128.8170  126.6220   72.3900 O   0  0  0  0  0  0  0  0  0  0  0  0
  128.0480  126.7300   71.2760 C   0  0  0  0  0  0  0  0  0  0  0  0
  126.8190  126.8400   71.3050 O   0  0  0  0  0  0  0  0  0  0  0  0
  128.8430  126.6990   70.0020 C   0  0  0  0  0  0  0  0  0  0  0  0
  129.3020  127.8720   69.3830 C   0  0  0  0  0  0  0  0  0  0  0  0
  130.0390  127.8080   68.2040 C   0  0  0  0  0  0  0  0  0  0  0  0
  130.3280  126.5770   67.6150 C   0  0  0  0  0  0  0  0  0  0  0  0
  131.0830  126.6290   66.4260 N   0  0  0  0  0  0  0  0  0  0  0  0
  131.2250  125.7090   65.4470 C   0  0  0  0  0  0  0  0  0  0  0  0
  130.6690  124.6100   65.4260 O   0  0  0  0  0  0  0  0  0  0  0  0
  132.1510  126.1390   64.2990 C   0  0  0  0  0  0  0  0  0  0  0  0
  133.6160  125.0780   64.0530 S   0  0  0  0  0  0  0  0  0  0  0  0
  133.2870  124.0060   62.6700 C   0  0  0  0  0  0  0  0  0  0  0  0
  133.5290  124.5860   61.4690 N   0  0  0  0  0  0  0  0  0  0  0  0
  133.3150  123.8650   60.3460 C   0  0  0  0  0  0  0  0  0  0  0  0
  133.6190  124.5730   59.0390 C   0  0  0  0  0  0  0  0  0  0  0  0
  132.8500  122.5540   60.3740 C   0  0  0  0  0  0  0  0  0  0  0  0
  132.5770  121.9390   61.6030 C   0  0  0  0  0  0  0  0  0  0  0  0
  132.0740  120.5320   61.5810 C   0  0  0  0  0  0  0  0  0  0  0  0
  132.9620  119.4700   61.3640 C   0  0  0  0  0  0  0  0  0  0  0  0
  132.5050  118.1550   61.3520 C   0  0  0  0  0  0  0  0  0  0  0  0
  131.1530  117.8940   61.5610 C   0  0  0  0  0  0  0  0  0  0  0  0
  130.2580  118.9360   61.7850 C   0  0  0  0  0  0  0  0  0  0  0  0
  130.7190  120.2500   61.7990 C   0  0  0  0  0  0  0  0  0  0  0  0
  132.7850  122.6870   62.7910 C   0  0  0  0  0  0  0  0  0  0  0  0
  132.4280  122.1280   64.0990 C   0  0  0  0  0  0  0  0  0  0  0  0
  132.1470  121.6860   65.1310 N   0  0  0  0  0  0  0  0  0  0  0  0
  129.8770  125.3990   68.2290 C   0  0  0  0  0  0  0  0  0  0  0  0
  129.1400  125.4640   69.4100 C   0  0  0  0  0  0  0  0  0  0  0  0
  129.3393  125.3225   73.9091 H   0  0  0  0  0  0  0  0  0  0  0  0
  128.6774  124.5608   72.4231 H   0  0  0  0  0  0  0  0  0  0  0  0
  130.3442  125.2307   72.4231 H   0  0  0  0  0  0  0  0  0  0  0  0
  129.0774  128.8501   69.8334 H   0  0  0  0  0  0  0  0  0  0  0  0
  130.3964  128.7356   67.7329 H   0  0  0  0  0  0  0  0  0  0  0  0
  131.5660  127.5050   66.2840 H   0  0  0  0  0  0  0  0  0  0  0  0
  131.5655  126.1340   63.3678 H   0  0  0  0  0  0  0  0  0  0  0  0
  132.5334  127.1346   64.5682 H   0  0  0  0  0  0  0  0  0  0  0  0
  134.0450  125.5650   59.2498 H   0  0  0  0  0  0  0  0  0  0  0  0
  134.3415  123.9793   58.4598 H   0  0  0  0  0  0  0  0  0  0  0  0
  132.6909  124.6880   58.4598 H   0  0  0  0  0  0  0  0  0  0  0  0
  132.6972  122.0023   59.4347 H   0  0  0  0  0  0  0  0  0  0  0  0
  134.0300  119.6772   61.2016 H   0  0  0  0  0  0  0  0  0  0  0  0
  133.2078  117.3268   61.1784 H   0  0  0  0  0  0  0  0  0  0  0  0
  130.7896  116.8558   61.5489 H   0  0  0  0  0  0  0  0  0  0  0  0
  129.1916  118.7227   61.9502 H   0  0  0  0  0  0  0  0  0  0  0  0
  130.0133  121.0735   61.9828 H   0  0  0  0  0  0  0  0  0  0  0  0
  130.1055  124.4223   67.7775 H   0  0  0  0  0  0  0  0  0  0  0  0
  128.7874  124.5355   69.8828 H   0  0  0  0  0  0  0  0  0  0  0  0
  1  2  1  0
  2  3  1  0
  3  4  2  0
  3  5  1  0
  5  6  2  0
  6  7  1  0
  7  8  2  0
  8  9  1  0
  9 10  1  0
 10 11  2  0
 10 12  1  0
 12 13  1  0
 13 14  1  0
 14 15  2  0
 15 16  1  0
 16 17  1  0
 16 18  2  0
 18 19  1  0
 19 20  1  0
 20 21  2  0
 21 22  1  0
 22 23  2  0
 23 24  1  0
 24 25  2  0
 19 26  2  0
 26 27  1  0
 27 28  3  0
  8 29  1  0
 29 30  2  0
 30  5  1  0
 26 14  1  0
 25 20  1  0
  1 31  1  0
  1 32  1  0
  1 33  1  0
  6 34  1  0
  7 35  1  0
  9 36  1  0
 12 37  1  0
 12 38  1  0
 17 39  1  0
 17 40  1  0
 17 41  1  0
 18 42  1  0
 21 43  1  0
 22 44  1  0
 23 45  1  0
 24 46  1  0
 25 47  1  0
 29 48  1  0
 30 49  1  0
M  END
>  <Binding energies>  (1) 
[-8.58]

>  <Ligand effiencies>  (1) 
[-0.2767741935483871]

>  <Interactions>  (1) 
["V-B:GLU:543:CB:9877, V-A:GLU:543:CB:4905, V-B:TYR:539:CD2:9845, V-B:HIS:456:CE1:9040, V-A:HIS:456:CE1:4069, V-A:GLU:543:CD:4907, V-B:TYR:539:CE2:9847, V-B:GLU:543:CD:9879, V-A:ASP:366:CG:3212, V-B:GLU:543:C:9873, V-A:ASP:366:CA:3209, V-A:ASP:366:CB:3211, V-A:HIS:456:CD2:4067, V-A:TYR:484:CZ:4346, V-A:ILE:369:CG2:3236, V-A:ARG:545:CZ:4925, V-A:SER:385:CA:3406, V-A:SER:385:CB:3408, V-A:TYR:484:CE2:4345, H-A:GLY:454:N:4049, V-B:ALA:541:CB:9863, H-A:ARG:545:NH2:4927, V-A:ILE:369:CD1:3238, V-A:LEU:475:CD2:4258, V-A:ILE:369:CB:3235, V-A:ASP:366:C:3207, H-A:TYR:484:OH:4347, V-A:PRO:482:CB:4325, V-A:GLY:454:CA:4048, V-B:GLU:543:CA:9875, H-A:GLU:543:OE1:4908, H-A:GLU:543:OE2:4909, H-B:HIS:456:ND1:9037"]

$$$$
3ce_Grossjean_2025
     RDKit          3D

 45 47  0  0  0  0  0  0  0  0999 V2000
  134.7860  125.7050   67.2040 C   0  0  0  0  0  0  0  0  0  0  0  0
  133.6450  125.7970   66.2090 C   0  0  0  0  0  0  0  0  0  0  0  0
  132.3610  126.1830   66.6020 C   0  0  0  0  0  0  0  0  0  0  0  0
  131.3630  126.2560   65.6310 C   0  0  0  0  0  0  0  0  0  0  0  0
  131.6670  125.9440   64.3030 C   0  0  0  0  0  0  0  0  0  0  0  0
  132.9720  125.5550   63.9790 C   0  0  0  0  0  0  0  0  0  0  0  0
  133.2250  125.2730   62.6260 N   0  0  0  0  0  0  0  0  0  0  0  0
  133.3030  124.0640   62.0250 C   0  0  0  0  0  0  0  0  0  0  0  0
  133.1520  122.9820   62.5930 O   0  0  0  0  0  0  0  0  0  0  0  0
  133.5940  124.0880   60.5250 C   0  0  0  0  0  0  0  0  0  0  0  0
  132.2930  124.9520   59.5950 S   0  0  0  0  0  0  0  0  0  0  0  0
  130.8360  123.9440   59.7520 C   0  0  0  0  0  0  0  0  0  0  0  0
  130.8840  123.0640   60.7810 N   0  0  0  0  0  0  0  0  0  0  0  0
  129.8160  122.2620   60.9970 C   0  0  0  0  0  0  0  0  0  0  0  0
  129.9310  121.3110   62.1720 C   0  0  0  0  0  0  0  0  0  0  0  0
  128.6780  122.2970   60.1940 C   0  0  0  0  0  0  0  0  0  0  0  0
  128.6210  123.1820   59.1100 C   0  0  0  0  0  0  0  0  0  0  0  0
  127.3900  123.1650   58.2630 C   0  0  0  0  0  0  0  0  0  0  0  0
  126.2530  123.8770   58.6620 C   0  0  0  0  0  0  0  0  0  0  0  0
  125.1000  123.8610   57.8810 C   0  0  0  0  0  0  0  0  0  0  0  0
  125.0770  123.1260   56.6990 C   0  0  0  0  0  0  0  0  0  0  0  0
  126.1970  122.4040   56.2930 C   0  0  0  0  0  0  0  0  0  0  0  0
  127.3480  122.4230   57.0760 C   0  0  0  0  0  0  0  0  0  0  0  0
  129.7270  124.0370   58.8780 C   0  0  0  0  0  0  0  0  0  0  0  0
  129.7180  124.9950   57.7670 C   0  0  0  0  0  0  0  0  0  0  0  0
  129.7100  125.7500   56.8910 N   0  0  0  0  0  0  0  0  0  0  0  0
  133.9560  125.4890   64.9240 N   0  0  0  0  0  0  0  0  0  0  0  0
  134.3837  125.7374   68.2273 H   0  0  0  0  0  0  0  0  0  0  0  0
  135.3287  124.7602   67.0532 H   0  0  0  0  0  0  0  0  0  0  0  0
  135.4731  126.5507   67.0532 H   0  0  0  0  0  0  0  0  0  0  0  0
  132.1425  126.4237   67.6529 H   0  0  0  0  0  0  0  0  0  0  0  0
  130.3422  126.5574   65.9086 H   0  0  0  0  0  0  0  0  0  0  0  0
  130.8924  126.0032   63.5242 H   0  0  0  0  0  0  0  0  0  0  0  0
  133.2660  126.0810   62.0230 H   0  0  0  0  0  0  0  0  0  0  0  0
  134.5520  124.6018   60.3569 H   0  0  0  0  0  0  0  0  0  0  0  0
  133.6336  123.0479   60.1691 H   0  0  0  0  0  0  0  0  0  0  0  0
  129.8623  121.8790   63.1115 H   0  0  0  0  0  0  0  0  0  0  0  0
  129.1154  120.5742   62.1285 H   0  0  0  0  0  0  0  0  0  0  0  0
  130.8987  120.7898   62.1285 H   0  0  0  0  0  0  0  0  0  0  0  0
  127.8283  121.6327   60.4104 H   0  0  0  0  0  0  0  0  0  0  0  0
  126.2702  124.4532   59.5989 H   0  0  0  0  0  0  0  0  0  0  0  0
  124.2111  124.4268   58.1968 H   0  0  0  0  0  0  0  0  0  0  0  0
  124.1673  123.1153   56.0807 H   0  0  0  0  0  0  0  0  0  0  0  0
  126.1721  121.8225   55.3596 H   0  0  0  0  0  0  0  0  0  0  0  0
  128.2322  121.8502   56.7596 H   0  0  0  0  0  0  0  0  0  0  0  0
  1  2  1  0
  2  3  2  0
  3  4  1  0
  4  5  2  0
  5  6  1  0
  6  7  1  0
  7  8  1  0
  8  9  2  0
  8 10  1  0
 10 11  1  0
 11 12  1  0
 12 13  2  0
 13 14  1  0
 14 15  1  0
 14 16  2  0
 16 17  1  0
 17 18  1  0
 18 19  2  0
 19 20  1  0
 20 21  2  0
 21 22  1  0
 22 23  2  0
 17 24  2  0
 24 25  1  0
 25 26  3  0
  6 27  2  0
 27  2  1  0
 24 12  1  0
 23 18  1  0
  1 28  1  0
  1 29  1  0
  1 30  1  0
  3 31  1  0
  4 32  1  0
  5 33  1  0
  7 34  1  0
 10 35  1  0
 10 36  1  0
 15 37  1  0
 15 38  1  0
 15 39  1  0
 16 40  1  0
 19 41  1  0
 20 42  1  0
 21 43  1  0
 22 44  1  0
 23 45  1  0
M  END
>  <Binding energies>  (1) 
[-9.26]

>  <Ligand effiencies>  (1) 
[-0.3307142857142857]

>  <Interactions>  (1) 
["V-B:PRO:540:CD:9858, V-B:PRO:540:N:9855, V-B:TYR:531:CE2:9764, V-B:LEU:363:CD1:8159, V-B:MET:535:CE:9806, V-B:TYR:539:CD2:9845, V-B:TYR:539:CZ:9848, V-B:TYR:539:C:9838, V-B:TYR:539:CD1:9844, V-B:PRO:540:CB:9856, V-B:TYR:539:CE2:9847, V-B:TYR:539:CG:9843, V-A:ASP:366:CG:3212, H-A:ARG:545:NE:4923, V-A:ILE:369:CG2:3236, V-A:ARG:545:CZ:4925, H-A:ARG:545:NH1:4926, V-A:ARG:545:CD:4922, H-A:GLY:454:N:4049, V-B:ALA:541:CB:9863, H-A:ARG:545:NH2:4927, V-A:ARG:545:CG:4921, V-A:ILE:369:CD1:3238, V-A:LEU:475:CD2:4258, H-B:TYR:539:OH:9849, V-B:PRO:540:CA:9854, H-A:TYR:484:OH:4347, V-A:GLY:453:C:4041, H-A:ASP:366:OD1:3213, H-A:ASP:366:OD2:3214, V-A:GLY:453:CA:4043, V-A:GLY:454:CA:4048, V-B:TYR:539:CA:9840, V-A:ARG:545:CB:4920, V-A:ILE:455:C:4051, V-B:TYR:531:CZ:9765, V-B:ILE:538:CA:9831"]

$$$$
3ch_Grossjean_2025
     RDKit          3D

 55 57  0  0  0  0  0  0  0  0999 V2000
  134.2090  124.1470   62.5450 C   0  0  0  0  0  0  0  0  0  0  0  0
  134.2740  124.9880   63.6920 O   0  0  0  0  0  0  0  0  0  0  0  0
  133.1040  125.4550   64.2630 C   0  0  0  0  0  0  0  0  0  0  0  0
  131.8560  125.4440   63.6180 C   0  0  0  0  0  0  0  0  0  0  0  0
  130.7080  125.9270   64.2640 C   0  0  0  0  0  0  0  0  0  0  0  0
  129.4180  125.9520   63.7020 N   0  0  0  0  0  0  0  0  0  0  0  0
  129.0320  126.2330   62.4380 C   0  0  0  0  0  0  0  0  0  0  0  0
  129.7860  126.5190   61.5090 O   0  0  0  0  0  0  0  0  0  0  0  0
  127.5300  126.1380   62.1710 C   0  0  0  0  0  0  0  0  0  0  0  0
  126.9850  124.4220   61.9230 S   0  0  0  0  0  0  0  0  0  0  0  0
  128.2850  123.3920   62.5670 C   0  0  0  0  0  0  0  0  0  0  0  0
  128.4220  123.4580   63.9150 N   0  0  0  0  0  0  0  0  0  0  0  0
  129.3880  122.7170   64.5030 C   0  0  0  0  0  0  0  0  0  0  0  0
  129.4900  122.8410   66.0110 C   0  0  0  0  0  0  0  0  0  0  0  0
  130.2470  121.8930   63.7800 C   0  0  0  0  0  0  0  0  0  0  0  0
  130.1170  121.8060   62.3860 C   0  0  0  0  0  0  0  0  0  0  0  0
  131.0670  120.9170   61.6510 C   0  0  0  0  0  0  0  0  0  0  0  0
  130.7410  119.5760   61.4210 C   0  0  0  0  0  0  0  0  0  0  0  0
  131.6250  118.7400   60.7440 C   0  0  0  0  0  0  0  0  0  0  0  0
  132.8440  119.2430   60.2970 C   0  0  0  0  0  0  0  0  0  0  0  0
  133.1870  120.5730   60.5240 C   0  0  0  0  0  0  0  0  0  0  0  0
  132.3010  121.4060   61.2020 C   0  0  0  0  0  0  0  0  0  0  0  0
  129.0950  122.5620   61.7570 C   0  0  0  0  0  0  0  0  0  0  0  0
  128.8520  122.4380   60.3170 C   0  0  0  0  0  0  0  0  0  0  0  0
  128.6610  122.3410   59.1790 N   0  0  0  0  0  0  0  0  0  0  0  0
  130.8220  126.4400   65.5570 C   0  0  0  0  0  0  0  0  0  0  0  0
  132.0580  126.4640   66.2220 C   0  0  0  0  0  0  0  0  0  0  0  0
  132.2360  126.9520   67.5050 O   0  0  0  0  0  0  0  0  0  0  0  0
  131.1310  127.5240   68.1970 C   0  0  0  0  0  0  0  0  0  0  0  0
  133.1910  125.9710   65.5630 C   0  0  0  0  0  0  0  0  0  0  0  0
  134.4040  125.9720   66.2090 O   0  0  0  0  0  0  0  0  0  0  0  0
  134.3750  125.3710   67.4970 C   0  0  0  0  0  0  0  0  0  0  0  0
  134.1279  123.0974   62.8640 H   0  0  0  0  0  0  0  0  0  0  0  0
  133.3290  124.4161   61.9424 H   0  0  0  0  0  0  0  0  0  0  0  0
  135.1199  124.2777   61.9424 H   0  0  0  0  0  0  0  0  0  0  0  0
  131.7779  125.0517   62.5933 H   0  0  0  0  0  0  0  0  0  0  0  0
  128.6840  125.6780   64.3400 H   0  0  0  0  0  0  0  0  0  0  0  0
  126.9897  126.5607   63.0309 H   0  0  0  0  0  0  0  0  0  0  0  0
  127.3145  126.6978   61.2489 H   0  0  0  0  0  0  0  0  0  0  0  0
  128.8595  122.0745   66.4854 H   0  0  0  0  0  0  0  0  0  0  0  0
  130.5359  122.6986   66.3207 H   0  0  0  0  0  0  0  0  0  0  0  0
  129.1486  123.8398   66.3207 H   0  0  0  0  0  0  0  0  0  0  0  0
  131.0239  121.3130   64.2997 H   0  0  0  0  0  0  0  0  0  0  0  0
  129.7791  119.1792   61.7777 H   0  0  0  0  0  0  0  0  0  0  0  0
  131.3617  117.6874   60.5632 H   0  0  0  0  0  0  0  0  0  0  0  0
  133.5419  118.5839   59.7599 H   0  0  0  0  0  0  0  0  0  0  0  0
  134.1524  120.9635   60.1698 H   0  0  0  0  0  0  0  0  0  0  0  0
  132.5718  122.4560   61.3866 H   0  0  0  0  0  0  0  0  0  0  0  0
  129.9279  126.8323   66.0637 H   0  0  0  0  0  0  0  0  0  0  0  0
  131.2941  127.4396   69.2816 H   0  0  0  0  0  0  0  0  0  0  0  0
  131.0355  128.5848   67.9220 H   0  0  0  0  0  0  0  0  0  0  0  0
  130.2097  126.9896   67.9220 H   0  0  0  0  0  0  0  0  0  0  0  0
  134.4128  126.1545   68.2682 H   0  0  0  0  0  0  0  0  0  0  0  0
  133.4478  124.7900   67.6097 H   0  0  0  0  0  0  0  0  0  0  0  0
  135.2420  124.7034   67.6097 H   0  0  0  0  0  0  0  0  0  0  0  0
  1  2  1  0
  2  3  1  0
  3  4  2  0
  4  5  1  0
  5  6  1  0
  6  7  1  0
  7  8  2  0
  7  9  1  0
  9 10  1  0
 10 11  1  0
 11 12  2  0
 12 13  1  0
 13 14  1  0
 13 15  2  0
 15 16  1  0
 16 17  1  0
 17 18  2  0
 18 19  1  0
 19 20  2  0
 20 21  1  0
 21 22  2  0
 16 23  2  0
 23 24  1  0
 24 25  3  0
  5 26  2  0
 26 27  1  0
 27 28  1  0
 28 29  1  0
 27 30  2  0
 30 31  1  0
 31 32  1  0
 30  3  1  0
 23 11  1  0
 22 17  1  0
  1 33  1  0
  1 34  1  0
  1 35  1  0
  4 36  1  0
  6 37  1  0
  9 38  1  0
  9 39  1  0
 14 40  1  0
 14 41  1  0
 14 42  1  0
 15 43  1  0
 18 44  1  0
 19 45  1  0
 20 46  1  0
 21 47  1  0
 22 48  1  0
 26 49  1  0
 29 50  1  0
 29 51  1  0
 29 52  1  0
 32 53  1  0
 32 54  1  0
 32 55  1  0
M  END
>  <Binding energies>  (1) 
[-7.87]

>  <Ligand effiencies>  (1) 
[-0.2384848484848485]

>  <Interactions>  (1) 
["V-B:GLU:543:CB:9877, V-A:GLU:543:CB:4905, V-B:TYR:539:CD2:9845, V-A:HIS:456:CE1:4069, V-B:TYR:539:C:9838, V-A:GLU:543:CD:4907, V-B:TYR:539:CE2:9847, V-B:GLU:543:CD:9879, V-A:ASP:366:CG:3212, V-B:GLU:543:CG:9878, V-A:TYR:484:CZ:4346, H-A:ARG:545:NE:4923, V-A:ILE:369:CG2:3236, V-A:ARG:545:CZ:4925, V-A:SER:385:CA:3406, H-A:ARG:545:NH1:4926, V-A:ARG:545:CD:4922, V-A:TYR:484:CE2:4345, H-A:GLY:454:N:4049, V-B:ALA:541:CB:9863, V-A:ARG:545:CG:4921, V-A:ILE:369:CD1:3238, V-A:LEU:475:CD2:4258, V-A:LEU:475:CD1:4257, V-B:PRO:540:CA:9854, H-A:TYR:484:OH:4347, V-A:GLY:453:C:4041, V-A:GLY:454:CA:4048, V-A:ILE:455:C:4051, H-B:GLU:543:OE2:9881, H-B:GLU:543:OE1:9880"]

$$$$
3ci_Grossjean_2025
     RDKit          3D

 39 41  0  0  0  0  0  0  0  0999 V2000
  134.7340  124.6040   62.9370 C   0  0  0  0  0  0  0  0  0  0  0  0
  133.4400  123.8990   62.5780 C   0  0  0  0  0  0  0  0  0  0  0  0
  133.4320  122.6210   62.0260 C   0  0  0  0  0  0  0  0  0  0  0  0
  132.2090  122.0050   61.7260 C   0  0  0  0  0  0  0  0  0  0  0  0
  132.2490  120.6270   61.1500 C   0  0  0  0  0  0  0  0  0  0  0  0
  133.2410  120.2630   60.2300 C   0  0  0  0  0  0  0  0  0  0  0  0
  133.2680  118.9800   59.6890 C   0  0  0  0  0  0  0  0  0  0  0  0
  132.2960  118.0560   60.0620 C   0  0  0  0  0  0  0  0  0  0  0  0
  131.2980  118.4040   60.9680 C   0  0  0  0  0  0  0  0  0  0  0  0
  131.2740  119.6870   61.5070 C   0  0  0  0  0  0  0  0  0  0  0  0
  131.0120  122.7190   61.9870 C   0  0  0  0  0  0  0  0  0  0  0  0
  129.7050  122.1420   61.6540 C   0  0  0  0  0  0  0  0  0  0  0  0
  128.6740  121.6850   61.3910 N   0  0  0  0  0  0  0  0  0  0  0  0
  131.1110  124.0120   62.5540 C   0  0  0  0  0  0  0  0  0  0  0  0
  129.6660  124.9920   62.9450 S   0  0  0  0  0  0  0  0  0  0  0  0
  130.1210  126.3000   64.1290 C   0  0  0  0  0  0  0  0  0  0  0  0
  131.0340  125.8080   65.2580 C   0  0  0  0  0  0  0  0  0  0  0  0
  130.6150  124.9550   66.0430 O   0  0  0  0  0  0  0  0  0  0  0  0
  132.2580  126.3790   65.3140 N   0  0  0  0  0  0  0  0  0  0  0  0
  133.2770  126.0960   66.2130 C   0  0  0  0  0  0  0  0  0  0  0  0
  133.1080  126.1470   67.5960 C   0  0  0  0  0  0  0  0  0  0  0  0
  134.3350  125.8080   68.1200 C   0  0  0  0  0  0  0  0  0  0  0  0
  135.1970  125.5650   67.1040 O   0  0  0  0  0  0  0  0  0  0  0  0
  134.5160  125.7520   65.9000 N   0  0  0  0  0  0  0  0  0  0  0  0
  132.3070  124.5890   62.8360 N   0  0  0  0  0  0  0  0  0  0  0  0
  134.8313  124.6570   64.0314 H   0  0  0  0  0  0  0  0  0  0  0  0
  135.5843  124.0445   62.5200 H   0  0  0  0  0  0  0  0  0  0  0  0
  134.7249  125.6218   62.5200 H   0  0  0  0  0  0  0  0  0  0  0  0
  134.3790  122.0981   61.8266 H   0  0  0  0  0  0  0  0  0  0  0  0
  134.0048  120.9966   59.9326 H   0  0  0  0  0  0  0  0  0  0  0  0
  134.0526  118.6985   58.9713 H   0  0  0  0  0  0  0  0  0  0  0  0
  132.3167  117.0416   59.6370 H   0  0  0  0  0  0  0  0  0  0  0  0
  130.5323  117.6688   61.2564 H   0  0  0  0  0  0  0  0  0  0  0  0
  130.4830  119.9650   62.2191 H   0  0  0  0  0  0  0  0  0  0  0  0
  130.6424  127.0994   63.5822 H   0  0  0  0  0  0  0  0  0  0  0  0
  129.1899  126.6544   64.5953 H   0  0  0  0  0  0  0  0  0  0  0  0
  132.4760  127.0720   64.6150 H   0  0  0  0  0  0  0  0  0  0  0  0
  132.1921  126.4028   68.1489 H   0  0  0  0  0  0  0  0  0  0  0  0
  134.5765  125.7447   69.1913 H   0  0  0  0  0  0  0  0  0  0  0  0
  1  2  1  0
  2  3  2  0
  3  4  1  0
  4  5  1  0
  5  6  2  0
  6  7  1  0
  7  8  2  0
  8  9  1  0
  9 10  2  0
  4 11  2  0
 11 12  1  0
 12 13  3  0
 11 14  1  0
 14 15  1  0
 15 16  1  0
 16 17  1  0
 17 18  2  0
 17 19  1  0
 19 20  1  0
 20 21  1  0
 21 22  2  0
 22 23  1  0
 23 24  1  0
 14 25  2  0
 25  2  1  0
 10  5  1  0
 24 20  2  0
  1 26  1  0
  1 27  1  0
  1 28  1  0
  3 29  1  0
  6 30  1  0
  7 31  1  0
  8 32  1  0
  9 33  1  0
 10 34  1  0
 16 35  1  0
 16 36  1  0
 19 37  1  0
 21 38  1  0
 22 39  1  0
M  END
>  <Binding energies>  (1) 
[-8.36]

>  <Ligand effiencies>  (1) 
[-0.3215384615384615]

>  <Interactions>  (1) 
["V-B:TYR:539:CD2:9845, V-A:HIS:456:CE1:4069, V-A:GLU:543:CD:4907, V-B:TYR:539:CE2:9847, V-A:ASP:366:CG:3212, V-A:HIS:456:CD2:4067, V-A:TYR:484:CZ:4346, H-A:ARG:545:NE:4923, V-A:ILE:369:CG2:3236, V-A:ARG:545:CZ:4925, V-A:SER:385:CA:3406, H-A:ARG:545:NH1:4926, V-A:ARG:545:CD:4922, H-A:GLY:454:N:4049, V-B:ALA:541:CB:9863, V-A:ARG:545:CG:4921, V-A:ILE:369:CD1:3238, V-A:LEU:475:CD2:4258, H-A:TYR:484:OH:4347, H-B:ALA:541:N:9862, V-A:LEU:373:CD2:3280, V-A:GLY:453:C:4041, V-A:GLY:453:CA:4043, V-A:GLY:454:CA:4048, V-A:ARG:545:CB:4920, V-A:ILE:455:C:4051, H-A:GLU:543:OE1:4908, H-A:GLU:543:OE2:4909, V-A:HIS:456:CG:4065, H-A:ILE:455:N:4054"]

$$$$
3cj_Grossjean_2025
     RDKit          3D

 39 41  0  0  0  0  0  0  0  0999 V2000
  131.7840  125.8420   57.7010 C   0  0  0  0  0  0  0  0  0  0  0  0
  130.6660  125.1910   58.4910 C   0  0  0  0  0  0  0  0  0  0  0  0
  129.4750  124.8020   57.8820 C   0  0  0  0  0  0  0  0  0  0  0  0
  128.4760  124.1830   58.6470 C   0  0  0  0  0  0  0  0  0  0  0  0
  127.2440  123.7240   57.9400 C   0  0  0  0  0  0  0  0  0  0  0  0
  125.9870  124.2120   58.3150 C   0  0  0  0  0  0  0  0  0  0  0  0
  124.8370  123.7740   57.6640 C   0  0  0  0  0  0  0  0  0  0  0  0
  124.9410  122.8390   56.6380 C   0  0  0  0  0  0  0  0  0  0  0  0
  126.1830  122.3370   56.2610 C   0  0  0  0  0  0  0  0  0  0  0  0
  127.3320  122.7770   56.9130 C   0  0  0  0  0  0  0  0  0  0  0  0
  128.7030  124.0030   60.0330 C   0  0  0  0  0  0  0  0  0  0  0  0
  127.6860  123.3880   60.8920 C   0  0  0  0  0  0  0  0  0  0  0  0
  126.8820  122.9010   61.5680 N   0  0  0  0  0  0  0  0  0  0  0  0
  129.9430  124.4240   60.5660 C   0  0  0  0  0  0  0  0  0  0  0  0
  130.4090  124.1370   62.2600 S   0  0  0  0  0  0  0  0  0  0  0  0
  129.7480  122.4850   62.6520 C   0  0  0  0  0  0  0  0  0  0  0  0
  130.7280  121.3720   62.2650 C   0  0  0  0  0  0  0  0  0  0  0  0
  131.8660  121.3730   62.7380 O   0  0  0  0  0  0  0  0  0  0  0  0
  130.2320  120.4280   61.4360 N   0  0  0  0  0  0  0  0  0  0  0  0
  130.8610  119.2570   61.0460 C   0  0  0  0  0  0  0  0  0  0  0  0
  130.3740  118.0350   61.0580 N   0  0  0  0  0  0  0  0  0  0  0  0
  131.2430  117.1640   60.5870 C   0  0  0  0  0  0  0  0  0  0  0  0
  132.4710  117.6770   60.1800 C   0  0  0  0  0  0  0  0  0  0  0  0
  132.4780  119.3970   60.4330 S   0  0  0  0  0  0  0  0  0  0  0  0
  130.9090  124.9980   59.8060 N   0  0  0  0  0  0  0  0  0  0  0  0
  132.5215  126.2714   58.3950 H   0  0  0  0  0  0  0  0  0  0  0  0
  132.2728  125.0873   57.0673 H   0  0  0  0  0  0  0  0  0  0  0  0
  131.3689  126.6396   57.0673 H   0  0  0  0  0  0  0  0  0  0  0  0
  129.3192  124.9793   56.8076 H   0  0  0  0  0  0  0  0  0  0  0  0
  125.9072  124.9467   59.1298 H   0  0  0  0  0  0  0  0  0  0  0  0
  123.8518  124.1645   57.9587 H   0  0  0  0  0  0  0  0  0  0  0  0
  124.0336  122.4939   56.1207 H   0  0  0  0  0  0  0  0  0  0  0  0
  126.2567  121.5959   55.4515 H   0  0  0  0  0  0  0  0  0  0  0  0
  128.3142  122.3782   56.6194 H   0  0  0  0  0  0  0  0  0  0  0  0
  129.5527  122.4272   63.7330 H   0  0  0  0  0  0  0  0  0  0  0  0
  128.8230  122.3415   62.0743 H   0  0  0  0  0  0  0  0  0  0  0  0
  129.2750  120.5340   61.1320 H   0  0  0  0  0  0  0  0  0  0  0  0
  131.0109  116.0909   60.5192 H   0  0  0  0  0  0  0  0  0  0  0  0
  133.3030  117.0890   59.7651 H   0  0  0  0  0  0  0  0  0  0  0  0
  1  2  1  0
  2  3  2  0
  3  4  1  0
  4  5  1  0
  5  6  2  0
  6  7  1  0
  7  8  2  0
  8  9  1  0
  9 10  2  0
  4 11  2  0
 11 12  1  0
 12 13  3  0
 11 14  1  0
 14 15  1  0
 15 16  1  0
 16 17  1  0
 17 18  2  0
 17 19  1  0
 19 20  1  0
 20 21  2  0
 21 22  1  0
 22 23  2  0
 23 24  1  0
 14 25  2  0
 25  2  1  0
 10  5  1  0
 24 20  1  0
  1 26  1  0
  1 27  1  0
  1 28  1  0
  3 29  1  0
  6 30  1  0
  7 31  1  0
  8 32  1  0
  9 33  1  0
 10 34  1  0
 16 35  1  0
 16 36  1  0
 19 37  1  0
 22 38  1  0
 23 39  1  0
M  END
>  <Binding energies>  (1) 
[-8.12]

>  <Ligand effiencies>  (1) 
[-0.3123076923076923]

>  <Interactions>  (1) 
["V-B:PRO:540:CD:9858, V-B:PRO:540:N:9855, V-B:TYR:531:CE2:9764, V-B:LEU:363:CD1:8159, V-B:MET:535:CE:9806, V-B:TYR:539:CD2:9845, V-B:TYR:539:CZ:9848, V-B:TYR:539:C:9838, V-B:PRO:540:CB:9856, V-B:TYR:539:CE2:9847, V-A:ASP:366:CB:3211, V-B:ALA:541:CB:9863, V-A:LEU:475:CD2:4258, V-A:HIS:383:CE1:3393, V-B:PRO:540:CA:9854, H-B:ALA:541:N:9862, H-B:TYR:539:O:9839, V-B:ILE:538:CA:9831"]

$$$$
3ck_Grossjean_2025
     RDKit          3D

 57 58  0  0  0  0  0  0  0  0999 V2000
  124.3960  123.8680   57.3240 C   0  0  0  0  0  0  0  0  0  0  0  0
  125.3610  123.4700   56.3620 O   0  0  0  0  0  0  0  0  0  0  0  0
  126.7010  123.6850   56.7830 C   0  0  0  0  0  0  0  0  0  0  0  0
  127.3000  122.3630   57.2820 C   0  0  0  0  0  0  0  0  0  0  0  0
  128.5190  122.6280   57.9650 O   0  0  0  0  0  0  0  0  0  0  0  0
  128.3990  122.6200   59.3820 C   0  0  0  0  0  0  0  0  0  0  0  0
  129.7470  123.0100   60.0010 C   0  0  0  0  0  0  0  0  0  0  0  0
  129.8330  124.4270   60.0300 O   0  0  0  0  0  0  0  0  0  0  0  0
  129.3780  125.0260   61.2330 C   0  0  0  0  0  0  0  0  0  0  0  0
  130.1270  126.3520   61.4640 C   0  0  0  0  0  0  0  0  0  0  0  0
  131.2170  126.2520   62.4390 N   0  0  0  0  0  0  0  0  0  0  0  0
  131.1600  125.6010   63.6150 C   0  0  0  0  0  0  0  0  0  0  0  0
  130.1650  124.9800   63.9960 O   0  0  0  0  0  0  0  0  0  0  0  0
  132.4330  125.6710   64.4730 C   0  0  0  0  0  0  0  0  0  0  0  0
  133.9580  125.0770   63.6610 S   0  0  0  0  0  0  0  0  0  0  0  0
  133.5170  124.0520   62.2660 C   0  0  0  0  0  0  0  0  0  0  0  0
  133.6890  124.6190   61.0450 N   0  0  0  0  0  0  0  0  0  0  0  0
  133.3710  123.9010   59.9450 C   0  0  0  0  0  0  0  0  0  0  0  0
  133.5870  124.6010   58.6170 C   0  0  0  0  0  0  0  0  0  0  0  0
  132.8720  122.6030   60.0140 C   0  0  0  0  0  0  0  0  0  0  0  0
  132.6810  122.0000   61.2640 C   0  0  0  0  0  0  0  0  0  0  0  0
  132.1220  120.6150   61.2900 C   0  0  0  0  0  0  0  0  0  0  0  0
  132.9240  119.5260   60.9240 C   0  0  0  0  0  0  0  0  0  0  0  0
  132.4060  118.2330   60.9370 C   0  0  0  0  0  0  0  0  0  0  0  0
  131.0820  118.0240   61.3100 C   0  0  0  0  0  0  0  0  0  0  0  0
  130.2700  119.0970   61.6690 C   0  0  0  0  0  0  0  0  0  0  0  0
  130.7890  120.3890   61.6550 C   0  0  0  0  0  0  0  0  0  0  0  0
  133.0220  122.7370   62.4270 C   0  0  0  0  0  0  0  0  0  0  0  0
  132.8820  122.1410   63.7600 C   0  0  0  0  0  0  0  0  0  0  0  0
  132.7720  121.6710   64.8120 N   0  0  0  0  0  0  0  0  0  0  0  0
  124.7965  123.7028   58.3351 H   0  0  0  0  0  0  0  0  0  0  0  0
  124.1643  124.9351   57.1912 H   0  0  0  0  0  0  0  0  0  0  0  0
  123.4794  123.2745   57.1912 H   0  0  0  0  0  0  0  0  0  0  0  0
  127.2952  124.0603   55.9368 H   0  0  0  0  0  0  0  0  0  0  0  0
  126.7148  124.4239   57.5977 H   0  0  0  0  0  0  0  0  0  0  0  0
  126.5926  121.8749   57.9686 H   0  0  0  0  0  0  0  0  0  0  0  0
  127.4936  121.6996   56.4262 H   0  0  0  0  0  0  0  0  0  0  0  0
  127.6290  123.3423   59.6907 H   0  0  0  0  0  0  0  0  0  0  0  0
  128.1104  121.6152   59.7242 H   0  0  0  0  0  0  0  0  0  0  0  0
  129.8148  122.6126   61.0244 H   0  0  0  0  0  0  0  0  0  0  0  0
  130.5718  122.5932   59.4044 H   0  0  0  0  0  0  0  0  0  0  0  0
  128.2984  125.2233   61.1585 H   0  0  0  0  0  0  0  0  0  0  0  0
  129.5701  124.3457   62.0758 H   0  0  0  0  0  0  0  0  0  0  0  0
  130.5493  126.6839   60.5041 H   0  0  0  0  0  0  0  0  0  0  0  0
  129.3966  127.0666   61.8712 H   0  0  0  0  0  0  0  0  0  0  0  0
  132.0750  126.7240   62.1950 H   0  0  0  0  0  0  0  0  0  0  0  0
  132.5895  126.7204   64.7632 H   0  0  0  0  0  0  0  0  0  0  0  0
  132.2614  124.9978   65.3258 H   0  0  0  0  0  0  0  0  0  0  0  0
  133.9070  125.6379   58.7969 H   0  0  0  0  0  0  0  0  0  0  0  0
  134.3636  124.0716   58.0455 H   0  0  0  0  0  0  0  0  0  0  0  0
  132.6471  124.6012   58.0455 H   0  0  0  0  0  0  0  0  0  0  0  0
  132.6291  122.0541   59.0922 H   0  0  0  0  0  0  0  0  0  0  0  0
  133.9692  119.6931   60.6245 H   0  0  0  0  0  0  0  0  0  0  0  0
  133.0411  117.3807   60.6536 H   0  0  0  0  0  0  0  0  0  0  0  0
  130.6732  117.0028   61.3214 H   0  0  0  0  0  0  0  0  0  0  0  0
  129.2239  118.9247   61.9621 H   0  0  0  0  0  0  0  0  0  0  0  0
  130.1474  121.2382   61.9326 H   0  0  0  0  0  0  0  0  0  0  0  0
  1  2  1  0
  2  3  1  0
  3  4  1  0
  4  5  1  0
  5  6  1  0
  6  7  1  0
  7  8  1  0
  8  9  1  0
  9 10  1  0
 10 11  1  0
 11 12  1  0
 12 13  2  0
 12 14  1  0
 14 15  1  0
 15 16  1  0
 16 17  2  0
 17 18  1  0
 18 19  1  0
 18 20  2  0
 20 21  1  0
 21 22  1  0
 22 23  2  0
 23 24  1  0
 24 25  2  0
 25 26  1  0
 26 27  2  0
 21 28  2  0
 28 29  1  0
 29 30  3  0
 28 16  1  0
 27 22  1  0
  1 31  1  0
  1 32  1  0
  1 33  1  0
  3 34  1  0
  3 35  1  0
  4 36  1  0
  4 37  1  0
  6 38  1  0
  6 39  1  0
  7 40  1  0
  7 41  1  0
  9 42  1  0
  9 43  1  0
 10 44  1  0
 10 45  1  0
 11 46  1  0
 14 47  1  0
 14 48  1  0
 19 49  1  0
 19 50  1  0
 19 51  1  0
 20 52  1  0
 23 53  1  0
 24 54  1  0
 25 55  1  0
 26 56  1  0
 27 57  1  0
M  END
>  <Binding energies>  (1) 
[-6.37]

>  <Ligand effiencies>  (1) 
[-0.20548387096774193]

>  <Interactions>  (1) 
["V-B:PRO:540:CD:9858, V-B:PRO:540:N:9855, V-B:TYR:531:CE2:9764, V-B:LEU:363:CD1:8159, V-B:MET:535:CE:9806, V-B:TYR:539:CD2:9845, V-B:TYR:539:C:9838, V-B:PRO:540:CB:9856, V-B:TYR:539:CE2:9847, V-B:TYR:539:CG:9843, V-A:ASP:366:CG:3212, V-A:ASP:366:CA:3209, V-A:ASP:366:CB:3211, H-B:TYR:531:OH:9766, V-A:ILE:369:CG2:3236, V-A:ARG:545:CZ:4925, V-A:SER:385:CA:3406, H-A:ARG:545:NH1:4926, V-A:SER:385:CB:3408, H-A:GLY:454:N:4049, V-B:ALA:541:CB:9863, H-A:ARG:545:NH2:4927, V-A:ILE:369:CD1:3238, V-A:LEU:475:CD2:4258, V-B:PRO:540:CA:9854, V-A:ILE:369:CB:3235, V-A:ASP:366:C:3207, H-A:TYR:484:OH:4347, H-A:ASP:366:OD1:3213, H-A:ASP:366:OD2:3214, V-A:GLY:454:CA:4048, V-B:TYR:539:CA:9840, V-B:TYR:531:CZ:9765"]

$$$$
4aa_Grossjean_2025
     RDKit          3D

 45 47  0  0  0  0  0  0  0  0999 V2000
  131.1920  122.7030   73.9590 C   0  0  0  0  0  0  0  0  0  0  0  0
  129.8780  122.6620   73.1720 C   0  0  0  0  0  0  0  0  0  0  0  0
  128.9370  123.5380   73.7780 O   0  0  0  0  0  0  0  0  0  0  0  0
  129.1320  124.8820   73.7820 C   0  0  0  0  0  0  0  0  0  0  0  0
  129.7740  125.4740   74.6570 O   0  0  0  0  0  0  0  0  0  0  0  0
  128.4870  125.5790   72.6200 C   0  0  0  0  0  0  0  0  0  0  0  0
  129.1170  125.5500   71.3690 C   0  0  0  0  0  0  0  0  0  0  0  0
  128.5460  126.1910   70.2730 C   0  0  0  0  0  0  0  0  0  0  0  0
  127.3320  126.8660   70.4020 C   0  0  0  0  0  0  0  0  0  0  0  0
  126.8500  127.4860   69.2330 N   0  0  0  0  0  0  0  0  0  0  0  0
  125.6400  128.0390   68.9730 C   0  0  0  0  0  0  0  0  0  0  0  0
  124.6970  128.0450   69.7650 O   0  0  0  0  0  0  0  0  0  0  0  0
  125.4970  128.6300   67.6410 C   0  0  0  0  0  0  0  0  0  0  0  0
  123.9240  129.2110   67.0890 S   0  0  0  0  0  0  0  0  0  0  0  0
  124.5850  129.6660   65.5350 C   0  0  0  0  0  0  0  0  0  0  0  0
  123.8310  130.2160   64.5820 N   0  0  0  0  0  0  0  0  0  0  0  0
  124.4660  130.5180   63.4220 C   0  0  0  0  0  0  0  0  0  0  0  0
  123.5900  131.1370   62.3490 C   0  0  0  0  0  0  0  0  0  0  0  0
  125.8220  130.2890   63.1980 C   0  0  0  0  0  0  0  0  0  0  0  0
  126.6100  129.7130   64.2020 C   0  0  0  0  0  0  0  0  0  0  0  0
  128.0850  129.4830   63.9100 C   0  0  0  0  0  0  0  0  0  0  0  0
  125.9790  129.3790   65.4300 C   0  0  0  0  0  0  0  0  0  0  0  0
  126.4730  128.7840   66.6440 C   0  0  0  0  0  0  0  0  0  0  0  0
  127.7850  128.4110   66.7940 N   0  0  0  0  0  0  0  0  0  0  0  0
  126.6960  126.9060   71.6510 C   0  0  0  0  0  0  0  0  0  0  0  0
  127.2700  126.2670   72.7480 C   0  0  0  0  0  0  0  0  0  0  0  0
  130.9740  122.6962   75.0372 H   0  0  0  0  0  0  0  0  0  0  0  0
  131.8007  121.8234   73.7024 H   0  0  0  0  0  0  0  0  0  0  0  0
  131.7447  123.6188   73.7024 H   0  0  0  0  0  0  0  0  0  0  0  0
  130.0611  122.9806   72.1352 H   0  0  0  0  0  0  0  0  0  0  0  0
  129.4800  121.6365   73.1748 H   0  0  0  0  0  0  0  0  0  0  0  0
  130.0715  125.0159   71.2517 H   0  0  0  0  0  0  0  0  0  0  0  0
  129.0556  126.1650   69.2985 H   0  0  0  0  0  0  0  0  0  0  0  0
  127.5140  127.5040   68.4720 H   0  0  0  0  0  0  0  0  0  0  0  0
  122.7793  131.7099   62.8229 H   0  0  0  0  0  0  0  0  0  0  0  0
  124.1961  131.8085   61.7231 H   0  0  0  0  0  0  0  0  0  0  0  0
  123.1595  130.3415   61.7231 H   0  0  0  0  0  0  0  0  0  0  0  0
  126.2735  130.5607   62.2324 H   0  0  0  0  0  0  0  0  0  0  0  0
  128.6373  129.3969   64.8574 H   0  0  0  0  0  0  0  0  0  0  0  0
  128.2038  128.5555   63.3307 H   0  0  0  0  0  0  0  0  0  0  0  0
  128.4806  130.3303   63.3307 H   0  0  0  0  0  0  0  0  0  0  0  0
  128.1700  127.6110   66.3130 H   0  0  0  0  0  0  0  0  0  0  0  0
  128.4120  128.9270   67.3950 H   0  0  0  0  0  0  0  0  0  0  0  0
  125.7426  127.4426   71.7649 H   0  0  0  0  0  0  0  0  0  0  0  0
  126.7644  126.3019   73.7243 H   0  0  0  0  0  0  0  0  0  0  0  0
  1  2  1  0
  2  3  1  0
  3  4  1  0
  4  5  2  0
  4  6  1  0
  6  7  2  0
  7  8  1  0
  8  9  2  0
  9 10  1  0
 10 11  1  0
 11 12  2  0
 11 13  1  0
 13 14  1  0
 14 15  1  0
 15 16  2  0
 16 17  1  0
 17 18  1  0
 17 19  2  0
 19 20  1  0
 20 21  1  0
 20 22  2  0
 22 23  1  0
 23 24  1  0
  9 25  1  0
 25 26  2  0
 26  6  1  0
 23 13  2  0
 22 15  1  0
  1 27  1  0
  1 28  1  0
  1 29  1  0
  2 30  1  0
  2 31  1  0
  7 32  1  0
  8 33  1  0
 10 34  1  0
 18 35  1  0
 18 36  1  0
 18 37  1  0
 19 38  1  0
 21 39  1  0
 21 40  1  0
 21 41  1  0
 24 42  1  0
 24 43  1  0
 25 44  1  0
 26 45  1  0
M  END
>  <Binding energies>  (1) 
[-7.35]

>  <Ligand effiencies>  (1) 
[-0.253448275862069]

>  <Interactions>  (1) 
["V-B:GLU:543:CB:9877, H-B:GLY:454:N:9020, V-B:HIS:456:CE1:9040, V-A:HIS:456:CE1:4069, V-B:GLU:543:CD:9879, V-B:LYS:547:CE:9921, V-B:GLU:543:C:9873, V-B:GLY:544:CA:9885, V-B:GLY:544:C:9883, V-B:ARG:545:CZ:9897, V-A:HIS:456:CD2:4067, V-B:ARG:545:CG:9893, H-B:LYS:547:NZ:9922, V-B:ARG:545:CD:9894, H-B:GLU:543:OE2:9881, V-A:HIS:456:CG:4065, V-A:HIS:456:CB:4064, H-B:ARG:545:N:9891, V-B:ARG:545:CA:9890, H-B:GLU:543:OE1:9880, H-B:HIS:456:ND1:9037, V-A:TYR:484:CD2:4343, V-A:ASP:473:CG:4239, V-A:TYR:484:CB:4340, V-A:TYR:484:CG:4341"]

$$$$
4ab_Grossjean_2025
     RDKit          3D

 42 44  0  0  0  0  0  0  0  0999 V2000
  130.9310  126.3080   74.2520 C   0  0  0  0  0  0  0  0  0  0  0  0
  129.7420  125.6050   74.5860 O   0  0  0  0  0  0  0  0  0  0  0  0
  129.1520  124.7680   73.6950 C   0  0  0  0  0  0  0  0  0  0  0  0
  129.1530  123.5380   73.8130 O   0  0  0  0  0  0  0  0  0  0  0  0
  128.5040  125.4850   72.5460 C   0  0  0  0  0  0  0  0  0  0  0  0
  129.1060  125.4350   71.2820 C   0  0  0  0  0  0  0  0  0  0  0  0
  128.5300  126.0920   70.1970 C   0  0  0  0  0  0  0  0  0  0  0  0
  127.3400  126.8030   70.3520 C   0  0  0  0  0  0  0  0  0  0  0  0
  126.8510  127.4340   69.1920 N   0  0  0  0  0  0  0  0  0  0  0  0
  125.6410  127.9910   68.9440 C   0  0  0  0  0  0  0  0  0  0  0  0
  124.7030  127.9940   69.7430 O   0  0  0  0  0  0  0  0  0  0  0  0
  125.4900  128.5910   67.6170 C   0  0  0  0  0  0  0  0  0  0  0  0
  123.9150  129.1850   67.0830 S   0  0  0  0  0  0  0  0  0  0  0  0
  124.5650  129.6480   65.5270 C   0  0  0  0  0  0  0  0  0  0  0  0
  123.8070  130.2060   64.5820 N   0  0  0  0  0  0  0  0  0  0  0  0
  124.4330  130.5150   63.4210 C   0  0  0  0  0  0  0  0  0  0  0  0
  123.5510  131.1440   62.3580 C   0  0  0  0  0  0  0  0  0  0  0  0
  125.7860  130.2850   63.1850 C   0  0  0  0  0  0  0  0  0  0  0  0
  126.5790  129.6980   64.1780 C   0  0  0  0  0  0  0  0  0  0  0  0
  128.0510  129.4650   63.8720 C   0  0  0  0  0  0  0  0  0  0  0  0
  125.9570  129.3560   65.4090 C   0  0  0  0  0  0  0  0  0  0  0  0
  126.4570  128.7480   66.6130 C   0  0  0  0  0  0  0  0  0  0  0  0
  127.7680  128.3670   66.7490 N   0  0  0  0  0  0  0  0  0  0  0  0
  126.7330  126.8640   71.6150 C   0  0  0  0  0  0  0  0  0  0  0  0
  127.3110  126.2090   72.6990 C   0  0  0  0  0  0  0  0  0  0  0  0
  131.4476  126.6134   75.1739 H   0  0  0  0  0  0  0  0  0  0  0  0
  131.5900  125.6542   73.6618 H   0  0  0  0  0  0  0  0  0  0  0  0
  130.6758  127.2005   73.6618 H   0  0  0  0  0  0  0  0  0  0  0  0
  130.0412  124.8723   71.1451 H   0  0  0  0  0  0  0  0  0  0  0  0
  129.0168  126.0498   69.2115 H   0  0  0  0  0  0  0  0  0  0  0  0
  127.5100  127.4570   68.4280 H   0  0  0  0  0  0  0  0  0  0  0  0
  122.7465  131.7177   62.8414 H   0  0  0  0  0  0  0  0  0  0  0  0
  124.1551  131.8163   61.7311 H   0  0  0  0  0  0  0  0  0  0  0  0
  123.1121  130.3538   61.7311 H   0  0  0  0  0  0  0  0  0  0  0  0
  126.2314  130.5644   62.2188 H   0  0  0  0  0  0  0  0  0  0  0  0
  128.6118  129.3762   64.8142 H   0  0  0  0  0  0  0  0  0  0  0  0
  128.1623  128.5381   63.2903 H   0  0  0  0  0  0  0  0  0  0  0  0
  128.4432  130.3123   63.2903 H   0  0  0  0  0  0  0  0  0  0  0  0
  128.4120  128.8720   67.3400 H   0  0  0  0  0  0  0  0  0  0  0  0
  128.1350  127.5650   66.2550 H   0  0  0  0  0  0  0  0  0  0  0  0
  125.7993  127.4299   71.7491 H   0  0  0  0  0  0  0  0  0  0  0  0
  126.8278  126.2593   73.6859 H   0  0  0  0  0  0  0  0  0  0  0  0
  1  2  1  0
  2  3  1  0
  3  4  2  0
  3  5  1  0
  5  6  2  0
  6  7  1  0
  7  8  2  0
  8  9  1  0
  9 10  1  0
 10 11  2  0
 10 12  1  0
 12 13  1  0
 13 14  1  0
 14 15  2  0
 15 16  1  0
 16 17  1  0
 16 18  2  0
 18 19  1  0
 19 20  1  0
 19 21  2  0
 21 22  1  0
 22 23  1  0
  8 24  1  0
 24 25  2  0
 25  5  1  0
 22 12  2  0
 21 14  1  0
  1 26  1  0
  1 27  1  0
  1 28  1  0
  6 29  1  0
  7 30  1  0
  9 31  1  0
 17 32  1  0
 17 33  1  0
 17 34  1  0
 18 35  1  0
 20 36  1  0
 20 37  1  0
 20 38  1  0
 23 39  1  0
 23 40  1  0
 24 41  1  0
 25 42  1  0
M  END
>  <Binding energies>  (1) 
[-7.18]

>  <Ligand effiencies>  (1) 
[-0.2564285714285714]

>  <Interactions>  (1) 
["V-B:GLU:543:CB:9877, H-B:GLY:454:N:9020, V-B:HIS:456:CE1:9040, V-A:HIS:456:CE1:4069, V-B:GLU:543:CD:9879, V-B:LYS:547:CE:9921, V-B:GLU:543:C:9873, V-B:GLY:544:CA:9885, V-B:GLY:544:C:9883, V-B:ARG:545:CZ:9897, V-A:HIS:456:CD2:4067, V-B:ARG:545:CG:9893, H-B:LYS:547:NZ:9922, V-B:ARG:545:CD:9894, H-B:GLU:543:OE2:9881, V-A:HIS:456:CG:4065, H-B:ARG:545:N:9891, V-B:ARG:545:CA:9890, H-B:GLU:543:OE1:9880, H-B:HIS:456:ND1:9037"]

$$$$
4ac_Grossjean_2025
     RDKit          3D

 40 42  0  0  0  0  0  0  0  0999 V2000
  129.7190  123.8790   73.9950 C   0  0  0  0  0  0  0  0  0  0  0  0
  128.7690  124.9380   73.9610 O   0  0  0  0  0  0  0  0  0  0  0  0
  128.4270  125.4990   72.7460 C   0  0  0  0  0  0  0  0  0  0  0  0
  127.2690  126.2760   72.7230 C   0  0  0  0  0  0  0  0  0  0  0  0
  126.8450  126.8820   71.5440 C   0  0  0  0  0  0  0  0  0  0  0  0
  127.5830  126.7260   70.3700 C   0  0  0  0  0  0  0  0  0  0  0  0
  127.0720  127.3640   69.2250 N   0  0  0  0  0  0  0  0  0  0  0  0
  125.8310  127.8600   69.0020 C   0  0  0  0  0  0  0  0  0  0  0  0
  124.9040  127.7880   69.8120 O   0  0  0  0  0  0  0  0  0  0  0  0
  125.6360  128.5030   67.7000 C   0  0  0  0  0  0  0  0  0  0  0  0
  124.0490  129.1180   67.2380 S   0  0  0  0  0  0  0  0  0  0  0  0
  124.6570  129.6610   65.6900 C   0  0  0  0  0  0  0  0  0  0  0  0
  123.8730  130.2660   64.7960 N   0  0  0  0  0  0  0  0  0  0  0  0
  124.4690  130.6360   63.6370 C   0  0  0  0  0  0  0  0  0  0  0  0
  123.5610  131.3240   62.6340 C   0  0  0  0  0  0  0  0  0  0  0  0
  125.8150  130.4150   63.3520 C   0  0  0  0  0  0  0  0  0  0  0  0
  126.6340  129.7790   64.2920 C   0  0  0  0  0  0  0  0  0  0  0  0
  128.0960  129.5610   63.9340 C   0  0  0  0  0  0  0  0  0  0  0  0
  126.0450  129.3790   65.5210 C   0  0  0  0  0  0  0  0  0  0  0  0
  126.5790  128.7200   66.6830 C   0  0  0  0  0  0  0  0  0  0  0  0
  127.8960  128.3430   66.7690 N   0  0  0  0  0  0  0  0  0  0  0  0
  128.7420  125.9360   70.3810 C   0  0  0  0  0  0  0  0  0  0  0  0
  129.1620  125.3310   71.5630 C   0  0  0  0  0  0  0  0  0  0  0  0
  129.9472  123.6246   75.0406 H   0  0  0  0  0  0  0  0  0  0  0  0
  129.3035  122.9972   73.4854 H   0  0  0  0  0  0  0  0  0  0  0  0
  130.6406  124.1967   73.4854 H   0  0  0  0  0  0  0  0  0  0  0  0
  126.6852  126.4111   73.6455 H   0  0  0  0  0  0  0  0  0  0  0  0
  125.9255  127.4857   71.5376 H   0  0  0  0  0  0  0  0  0  0  0  0
  127.7220  127.4270   68.4540 H   0  0  0  0  0  0  0  0  0  0  0  0
  122.7954  131.9041   63.1701 H   0  0  0  0  0  0  0  0  0  0  0  0
  124.1572  131.9991   62.0025 H   0  0  0  0  0  0  0  0  0  0  0  0
  123.0724  130.5674   62.0025 H   0  0  0  0  0  0  0  0  0  0  0  0
  126.2338  130.7404   62.3883 H   0  0  0  0  0  0  0  0  0  0  0  0
  128.6899  129.4724   64.8556 H   0  0  0  0  0  0  0  0  0  0  0  0
  128.1953  128.6381   63.3437 H   0  0  0  0  0  0  0  0  0  0  0  0
  128.4602  130.4148   63.3437 H   0  0  0  0  0  0  0  0  0  0  0  0
  128.5740  128.8900   67.2780 H   0  0  0  0  0  0  0  0  0  0  0  0
  128.2300  127.4990   66.3250 H   0  0  0  0  0  0  0  0  0  0  0  0
  129.3195  125.7943   69.4556 H   0  0  0  0  0  0  0  0  0  0  0  0
  130.0753  124.7179   71.5690 H   0  0  0  0  0  0  0  0  0  0  0  0
  1  2  1  0
  2  3  1  0
  3  4  2  0
  4  5  1  0
  5  6  2  0
  6  7  1  0
  7  8  1  0
  8  9  2  0
  8 10  1  0
 10 11  1  0
 11 12  1  0
 12 13  2  0
 13 14  1  0
 14 15  1  0
 14 16  2  0
 16 17  1  0
 17 18  1  0
 17 19  2  0
 19 20  1  0
 20 21  1  0
  6 22  1  0
 22 23  2  0
 23  3  1  0
 20 10  2  0
 19 12  1  0
  1 24  1  0
  1 25  1  0
  1 26  1  0
  4 27  1  0
  5 28  1  0
  7 29  1  0
 15 30  1  0
 15 31  1  0
 15 32  1  0
 16 33  1  0
 18 34  1  0
 18 35  1  0
 18 36  1  0
 21 37  1  0
 21 38  1  0
 22 39  1  0
 23 40  1  0
M  END
>  <Binding energies>  (1) 
[-6.92]

>  <Ligand effiencies>  (1) 
[-0.26615384615384613]

>  <Interactions>  (1) 
["V-B:GLU:543:CB:9877, H-B:GLY:454:N:9020, V-B:HIS:456:CE1:9040, V-A:HIS:456:CE1:4069, V-B:GLU:543:CD:9879, V-B:LYS:547:CE:9921, V-B:GLU:543:C:9873, V-B:GLY:544:CA:9885, V-B:GLY:544:C:9883, V-B:ARG:545:CZ:9897, V-A:HIS:456:CD2:4067, V-B:ARG:545:CG:9893, H-B:LYS:547:NZ:9922, V-B:ARG:545:CD:9894, H-B:GLU:543:OE2:9881, H-B:ARG:545:N:9891, H-B:GLU:543:OE1:9880, H-B:HIS:456:ND1:9037"]

$$$$
4ad_Grossjean_2025
     RDKit          3D

 36 38  0  0  0  0  0  0  0  0999 V2000
  133.2770  125.3810   65.4490 C   0  0  0  0  0  0  0  0  0  0  0  0
  132.4870  124.5330   64.4700 C   0  0  0  0  0  0  0  0  0  0  0  0
  133.0030  123.3370   63.9760 C   0  0  0  0  0  0  0  0  0  0  0  0
  132.2570  122.5720   63.0720 C   0  0  0  0  0  0  0  0  0  0  0  0
  132.8640  121.2760   62.5580 C   0  0  0  0  0  0  0  0  0  0  0  0
  130.9780  123.0600   62.6900 C   0  0  0  0  0  0  0  0  0  0  0  0
  129.9680  122.5440   61.8040 C   0  0  0  0  0  0  0  0  0  0  0  0
  130.1240  121.3590   61.1290 N   0  0  0  0  0  0  0  0  0  0  0  0
  128.8280  123.3570   61.7030 C   0  0  0  0  0  0  0  0  0  0  0  0
  127.6290  123.1480   60.8890 C   0  0  0  0  0  0  0  0  0  0  0  0
  126.5740  122.7810   61.4090 O   0  0  0  0  0  0  0  0  0  0  0  0
  127.7750  123.3970   59.5640 N   0  0  0  0  0  0  0  0  0  0  0  0
  126.8430  123.2550   58.5190 C   0  0  0  0  0  0  0  0  0  0  0  0
  127.2920  122.5640   57.3890 C   0  0  0  0  0  0  0  0  0  0  0  0
  126.4410  122.3630   56.3060 C   0  0  0  0  0  0  0  0  0  0  0  0
  125.1360  122.8450   56.3540 C   0  0  0  0  0  0  0  0  0  0  0  0
  124.6720  123.5230   57.4790 C   0  0  0  0  0  0  0  0  0  0  0  0
  125.5210  123.7270   58.5630 C   0  0  0  0  0  0  0  0  0  0  0  0
  128.9790  124.7940   62.7160 S   0  0  0  0  0  0  0  0  0  0  0  0
  130.5630  124.2980   63.2660 C   0  0  0  0  0  0  0  0  0  0  0  0
  131.2730  125.0280   64.1290 N   0  0  0  0  0  0  0  0  0  0  0  0
  133.0117  125.0963   66.4779 H   0  0  0  0  0  0  0  0  0  0  0  0
  134.3532  125.2186   65.2895 H   0  0  0  0  0  0  0  0  0  0  0  0
  133.0389  126.4430   65.2895 H   0  0  0  0  0  0  0  0  0  0  0  0
  133.9976  122.9936   64.2967 H   0  0  0  0  0  0  0  0  0  0  0  0
  133.1591  120.6460   63.4101 H   0  0  0  0  0  0  0  0  0  0  0  0
  132.1227  120.7413   61.9460 H   0  0  0  0  0  0  0  0  0  0  0  0
  133.7494  121.5032   61.9460 H   0  0  0  0  0  0  0  0  0  0  0  0
  129.3350  120.8390   60.7740 H   0  0  0  0  0  0  0  0  0  0  0  0
  131.0410  120.9690   60.9590 H   0  0  0  0  0  0  0  0  0  0  0  0
  128.6750  123.7520   59.2760 H   0  0  0  0  0  0  0  0  0  0  0  0
  128.3215  122.1779   57.3560 H   0  0  0  0  0  0  0  0  0  0  0  0
  126.7984  121.8252   55.4155 H   0  0  0  0  0  0  0  0  0  0  0  0
  124.4653  122.6892   55.4962 H   0  0  0  0  0  0  0  0  0  0  0  0
  123.6377  123.8961   57.5106 H   0  0  0  0  0  0  0  0  0  0  0  0
  125.1563  124.2582   59.4546 H   0  0  0  0  0  0  0  0  0  0  0  0
  1  2  1  0
  2  3  2  0
  3  4  1  0
  4  5  1  0
  4  6  2  0
  6  7  1  0
  7  8  1  0
  7  9  2  0
  9 10  1  0
 10 11  2  0
 10 12  1  0
 12 13  1  0
 13 14  2  0
 14 15  1  0
 15 16  2  0
 16 17  1  0
 17 18  2  0
  9 19  1  0
 19 20  1  0
 20 21  2  0
 21  2  1  0
 20  6  1  0
 18 13  1  0
  1 22  1  0
  1 23  1  0
  1 24  1  0
  3 25  1  0
  5 26  1  0
  5 27  1  0
  5 28  1  0
  8 29  1  0
  8 30  1  0
 12 31  1  0
 14 32  1  0
 15 33  1  0
 16 34  1  0
 17 35  1  0
 18 36  1  0
M  END
>  <Binding energies>  (1) 
[-6.63]

>  <Ligand effiencies>  (1) 
[-0.27625]

>  <Interactions>  (1) 
["V-B:PRO:540:CD:9858, V-B:PRO:540:N:9855, V-B:TYR:531:CE2:9764, V-B:LEU:363:CD1:8159, V-B:MET:535:CE:9806, V-B:TYR:539:CD2:9845, V-B:TYR:539:C:9838, V-B:PRO:540:CB:9856, V-B:TYR:539:CE2:9847, V-A:ARG:545:CZ:4925, V-A:LEU:475:CD2:4258, V-B:PRO:540:CA:9854, H-B:ALA:541:N:9862, H-B:TYR:539:O:9839, V-A:GLY:454:CA:4048, V-B:TYR:531:CZ:9765, V-B:ILE:538:CA:9831"]

$$$$
4ae_Grossjean_2025
     RDKit          3D

 38 40  0  0  0  0  0  0  0  0999 V2000
  132.8130  117.4990   58.5100 C   0  0  0  0  0  0  0  0  0  0  0  0
  131.7520  117.7470   59.5650 C   0  0  0  0  0  0  0  0  0  0  0  0
  130.6780  116.8710   59.7420 C   0  0  0  0  0  0  0  0  0  0  0  0
  129.7360  117.1680   60.7270 C   0  0  0  0  0  0  0  0  0  0  0  0
  129.8860  118.3200   61.5010 C   0  0  0  0  0  0  0  0  0  0  0  0
  130.9900  119.1510   61.2760 C   0  0  0  0  0  0  0  0  0  0  0  0
  131.0760  120.3060   62.0720 N   0  0  0  0  0  0  0  0  0  0  0  0
  130.1350  121.2590   62.2890 C   0  0  0  0  0  0  0  0  0  0  0  0
  129.0120  121.2430   61.7800 O   0  0  0  0  0  0  0  0  0  0  0  0
  130.5370  122.3460   63.1830 C   0  0  0  0  0  0  0  0  0  0  0  0
  129.5020  122.8200   64.5320 S   0  0  0  0  0  0  0  0  0  0  0  0
  130.6110  124.0880   65.0000 C   0  0  0  0  0  0  0  0  0  0  0  0
  130.3730  124.8840   66.0430 N   0  0  0  0  0  0  0  0  0  0  0  0
  131.3080  125.8300   66.2960 C   0  0  0  0  0  0  0  0  0  0  0  0
  131.0140  126.7290   67.4830 C   0  0  0  0  0  0  0  0  0  0  0  0
  132.4680  125.9960   65.5390 C   0  0  0  0  0  0  0  0  0  0  0  0
  132.7150  125.1580   64.4460 C   0  0  0  0  0  0  0  0  0  0  0  0
  133.9910  125.3800   63.6490 C   0  0  0  0  0  0  0  0  0  0  0  0
  131.7540  124.1540   64.1480 C   0  0  0  0  0  0  0  0  0  0  0  0
  131.6880  123.1480   63.1210 C   0  0  0  0  0  0  0  0  0  0  0  0
  132.6700  123.0020   62.1750 N   0  0  0  0  0  0  0  0  0  0  0  0
  131.9130  118.8700   60.3100 N   0  0  0  0  0  0  0  0  0  0  0  0
  133.7720  117.2748   59.0000 H   0  0  0  0  0  0  0  0  0  0  0  0
  132.5138  116.6466   57.8824 H   0  0  0  0  0  0  0  0  0  0  0  0
  132.9227  118.3957   57.8824 H   0  0  0  0  0  0  0  0  0  0  0  0
  130.5778  115.9693   59.1199 H   0  0  0  0  0  0  0  0  0  0  0  0
  128.8795  116.4980   60.8930 H   0  0  0  0  0  0  0  0  0  0  0  0
  129.1474  118.5712   62.2765 H   0  0  0  0  0  0  0  0  0  0  0  0
  131.9790  120.4620   62.4950 H   0  0  0  0  0  0  0  0  0  0  0  0
  131.1951  126.1753   68.4161 H   0  0  0  0  0  0  0  0  0  0  0  0
  131.6706  127.6108   67.4466 H   0  0  0  0  0  0  0  0  0  0  0  0
  129.9633  127.0525   67.4466 H   0  0  0  0  0  0  0  0  0  0  0  0
  133.1880  126.7852   65.8012 H   0  0  0  0  0  0  0  0  0  0  0  0
  134.8341  125.5267   64.3401 H   0  0  0  0  0  0  0  0  0  0  0  0
  134.1849  124.5021   63.0152 H   0  0  0  0  0  0  0  0  0  0  0  0
  133.8770  126.2718   63.0152 H   0  0  0  0  0  0  0  0  0  0  0  0
  132.7320  123.6110   61.3710 H   0  0  0  0  0  0  0  0  0  0  0  0
  133.3690  122.2760   62.2510 H   0  0  0  0  0  0  0  0  0  0  0  0
  1  2  1  0
  2  3  2  0
  3  4  1  0
  4  5  2  0
  5  6  1  0
  6  7  1  0
  7  8  1  0
  8  9  2  0
  8 10  1  0
 10 11  1  0
 11 12  1  0
 12 13  2  0
 13 14  1  0
 14 15  1  0
 14 16  2  0
 16 17  1  0
 17 18  1  0
 17 19  2  0
 19 20  1  0
 20 21  1  0
  6 22  2  0
 22  2  1  0
 20 10  2  0
 19 12  1  0
  1 23  1  0
  1 24  1  0
  1 25  1  0
  3 26  1  0
  4 27  1  0
  5 28  1  0
  7 29  1  0
 15 30  1  0
 15 31  1  0
 15 32  1  0
 16 33  1  0
 18 34  1  0
 18 35  1  0
 18 36  1  0
 21 37  1  0
 21 38  1  0
M  END
>  <Binding energies>  (1) 
[-6.49]

>  <Ligand effiencies>  (1) 
[-0.2596]

>  <Interactions>  (1) 
["V-B:TYR:539:CD2:9845, V-A:HIS:456:CE1:4069, V-B:TYR:539:C:9838, V-B:GLU:543:CD:9879, V-B:TYR:539:CG:9843, V-A:ASP:366:CG:3212, V-B:GLU:543:CG:9878, V-A:ARG:545:CZ:4925, V-B:ALA:541:CB:9863, V-A:LEU:475:CD2:4258, V-A:HIS:383:CE1:3393, V-A:PRO:482:CG:4326, V-B:TYR:539:CB:9842, H-A:TYR:484:OH:4347, H-B:ALA:541:N:9862, V-A:PRO:482:CB:4325, V-A:LEU:373:CD2:3280, V-A:GLY:453:C:4041, V-A:GLY:453:CA:4043, V-A:LEU:373:CG:3278, V-B:VAL:344:CG1:7971, V-A:LEU:373:CD1:3279"]

$$$$
4af_Grossjean_2025
     RDKit          3D

 35 37  0  0  0  0  0  0  0  0999 V2000
  133.2110  125.3810   65.4530 C   0  0  0  0  0  0  0  0  0  0  0  0
  132.4170  124.5300   64.4790 C   0  0  0  0  0  0  0  0  0  0  0  0
  132.9190  123.3170   64.0120 C   0  0  0  0  0  0  0  0  0  0  0  0
  132.1700  122.5490   63.1120 C   0  0  0  0  0  0  0  0  0  0  0  0
  132.7610  121.2340   62.6300 C   0  0  0  0  0  0  0  0  0  0  0  0
  130.9050  123.0520   62.7050 C   0  0  0  0  0  0  0  0  0  0  0  0
  129.8990  122.5380   61.8140 C   0  0  0  0  0  0  0  0  0  0  0  0
  130.0450  121.3430   61.1560 N   0  0  0  0  0  0  0  0  0  0  0  0
  128.7730  123.3670   61.6870 C   0  0  0  0  0  0  0  0  0  0  0  0
  127.5870  123.1710   60.8500 C   0  0  0  0  0  0  0  0  0  0  0  0
  126.4930  122.9260   61.3610 O   0  0  0  0  0  0  0  0  0  0  0  0
  127.7920  123.2950   59.5160 N   0  0  0  0  0  0  0  0  0  0  0  0
  126.8870  123.1230   58.4520 C   0  0  0  0  0  0  0  0  0  0  0  0
  125.6050  123.6970   58.3700 C   0  0  0  0  0  0  0  0  0  0  0  0
  124.7980  123.4310   57.2620 C   0  0  0  0  0  0  0  0  0  0  0  0
  125.2910  122.5900   56.2630 C   0  0  0  0  0  0  0  0  0  0  0  0
  126.5190  122.0170   56.3220 N   0  0  0  0  0  0  0  0  0  0  0  0
  127.2910  122.2860   57.4050 C   0  0  0  0  0  0  0  0  0  0  0  0
  128.9360  124.8190   62.6770 S   0  0  0  0  0  0  0  0  0  0  0  0
  130.5050  124.3060   63.2560 C   0  0  0  0  0  0  0  0  0  0  0  0
  131.2150  125.0390   64.1140 N   0  0  0  0  0  0  0  0  0  0  0  0
  132.9488  125.0999   66.4837 H   0  0  0  0  0  0  0  0  0  0  0  0
  134.2866  125.2172   65.2906 H   0  0  0  0  0  0  0  0  0  0  0  0
  132.9732  126.4426   65.2906 H   0  0  0  0  0  0  0  0  0  0  0  0
  133.9038  122.9626   64.3504 H   0  0  0  0  0  0  0  0  0  0  0  0
  133.0384  120.6169   63.4973 H   0  0  0  0  0  0  0  0  0  0  0  0
  132.0169  120.6986   62.0219 H   0  0  0  0  0  0  0  0  0  0  0  0
  133.6554  121.4350   62.0219 H   0  0  0  0  0  0  0  0  0  0  0  0
  129.2930  120.9320   60.6210 H   0  0  0  0  0  0  0  0  0  0  0  0
  130.9170  120.8330   61.1830 H   0  0  0  0  0  0  0  0  0  0  0  0
  128.7250  123.5540   59.2320 H   0  0  0  0  0  0  0  0  0  0  0  0
  125.2403  124.3521   59.1749 H   0  0  0  0  0  0  0  0  0  0  0  0
  123.7950  123.8748   57.1782 H   0  0  0  0  0  0  0  0  0  0  0  0
  124.6556  122.3828   55.3893 H   0  0  0  0  0  0  0  0  0  0  0  0
  128.2866  121.8220   57.4634 H   0  0  0  0  0  0  0  0  0  0  0  0
  1  2  1  0
  2  3  2  0
  3  4  1  0
  4  5  1  0
  4  6  2  0
  6  7  1  0
  7  8  1  0
  7  9  2  0
  9 10  1  0
 10 11  2  0
 10 12  1  0
 12 13  1  0
 13 14  2  0
 14 15  1  0
 15 16  2  0
 16 17  1  0
 17 18  2  0
  9 19  1  0
 19 20  1  0
 20 21  2  0
 21  2  1  0
 20  6  1  0
 18 13  1  0
  1 22  1  0
  1 23  1  0
  1 24  1  0
  3 25  1  0
  5 26  1  0
  5 27  1  0
  5 28  1  0
  8 29  1  0
  8 30  1  0
 12 31  1  0
 14 32  1  0
 15 33  1  0
 16 34  1  0
 18 35  1  0
M  END
>  <Binding energies>  (1) 
[-6.81]

>  <Ligand effiencies>  (1) 
[-0.28375]

>  <Interactions>  (1) 
["V-B:PRO:540:CD:9858, V-B:PRO:540:N:9855, V-B:TYR:531:CE2:9764, H-B:TYR:539:N:9841, V-B:LEU:363:CD1:8159, V-B:MET:535:CE:9806, V-B:TYR:539:CD2:9845, V-B:TYR:539:C:9838, V-B:PRO:540:CB:9856, V-B:TYR:539:CE2:9847, V-B:TYR:539:CG:9843, V-A:ARG:545:CZ:4925, V-B:ALA:541:CB:9863, V-A:LEU:475:CD2:4258, V-B:PRO:540:CA:9854, H-B:ALA:541:N:9862, H-B:TYR:539:O:9839, V-A:GLY:454:CA:4048, V-B:TYR:539:CA:9840, V-B:ILE:538:CG2:9834, V-B:ILE:538:CD1:9836"]

$$$$
4ag_Grossjean_2025
     RDKit          3D

 39 41  0  0  0  0  0  0  0  0999 V2000
  129.4920  117.1120   60.7660 C   0  0  0  0  0  0  0  0  0  0  0  0
  130.5230  118.2160   60.9170 C   0  0  0  0  0  0  0  0  0  0  0  0
  131.7500  118.1460   60.2590 C   0  0  0  0  0  0  0  0  0  0  0  0
  132.6860  119.1750   60.4110 C   0  0  0  0  0  0  0  0  0  0  0  0
  134.0100  119.0530   59.6730 C   0  0  0  0  0  0  0  0  0  0  0  0
  132.3370  120.2700   61.2470 C   0  0  0  0  0  0  0  0  0  0  0  0
  133.0400  121.4680   61.6170 C   0  0  0  0  0  0  0  0  0  0  0  0
  134.3010  121.7520   61.1550 N   0  0  0  0  0  0  0  0  0  0  0  0
  132.3220  122.3030   62.4860 C   0  0  0  0  0  0  0  0  0  0  0  0
  132.7260  123.5910   63.0490 C   0  0  0  0  0  0  0  0  0  0  0  0
  133.8850  123.7960   63.4190 O   0  0  0  0  0  0  0  0  0  0  0  0
  131.7570  124.5250   63.1530 N   0  0  0  0  0  0  0  0  0  0  0  0
  131.9400  125.8840   63.6600 C   0  0  0  0  0  0  0  0  0  0  0  0
  132.3890  125.9470   65.1150 C   0  0  0  0  0  0  0  0  0  0  0  0
  133.7260  125.7020   65.4410 C   0  0  0  0  0  0  0  0  0  0  0  0
  134.1450  125.7840   66.7670 C   0  0  0  0  0  0  0  0  0  0  0  0
  133.2280  126.1210   67.7600 C   0  0  0  0  0  0  0  0  0  0  0  0
  131.8980  126.3820   67.4400 C   0  0  0  0  0  0  0  0  0  0  0  0
  131.4790  126.3010   66.1150 C   0  0  0  0  0  0  0  0  0  0  0  0
  130.7380  121.6250   62.8630 S   0  0  0  0  0  0  0  0  0  0  0  0
  131.0500  120.2240   61.8630 C   0  0  0  0  0  0  0  0  0  0  0  0
  130.1560  119.2450   61.7190 N   0  0  0  0  0  0  0  0  0  0  0  0
  129.1726  116.7700   61.7615 H   0  0  0  0  0  0  0  0  0  0  0  0
  128.6218  117.4961   60.2136 H   0  0  0  0  0  0  0  0  0  0  0  0
  129.9346  116.2700   60.2136 H   0  0  0  0  0  0  0  0  0  0  0  0
  131.9825  117.2814   59.6200 H   0  0  0  0  0  0  0  0  0  0  0  0
  134.8304  118.9774   60.4018 H   0  0  0  0  0  0  0  0  0  0  0  0
  133.9962  118.1523   59.0417 H   0  0  0  0  0  0  0  0  0  0  0  0
  134.1611  119.9410   59.0417 H   0  0  0  0  0  0  0  0  0  0  0  0
  135.1240  121.3250   61.5550 H   0  0  0  0  0  0  0  0  0  0  0  0
  134.4470  122.3990   60.3920 H   0  0  0  0  0  0  0  0  0  0  0  0
  130.8450  124.3080   62.7780 H   0  0  0  0  0  0  0  0  0  0  0  0
  132.6995  126.3847   63.0415 H   0  0  0  0  0  0  0  0  0  0  0  0
  130.9587  126.3782   63.6078 H   0  0  0  0  0  0  0  0  0  0  0  0
  134.4468  125.4446   64.6510 H   0  0  0  0  0  0  0  0  0  0  0  0
  135.1945  125.5837   67.0286 H   0  0  0  0  0  0  0  0  0  0  0  0
  133.5578  126.1816   68.8076 H   0  0  0  0  0  0  0  0  0  0  0  0
  131.1819  126.6509   68.2305 H   0  0  0  0  0  0  0  0  0  0  0  0
  130.4319  126.5156   65.8551 H   0  0  0  0  0  0  0  0  0  0  0  0
  1  2  1  0
  2  3  2  0
  3  4  1  0
  4  5  1  0
  4  6  2  0
  6  7  1  0
  7  8  1  0
  7  9  2  0
  9 10  1  0
 10 11  2  0
 10 12  1  0
 12 13  1  0
 13 14  1  0
 14 15  2  0
 15 16  1  0
 16 17  2  0
 17 18  1  0
 18 19  2  0
  9 20  1  0
 20 21  1  0
 21 22  2  0
 22  2  1  0
 21  6  1  0
 19 14  1  0
  1 23  1  0
  1 24  1  0
  1 25  1  0
  3 26  1  0
  5 27  1  0
  5 28  1  0
  5 29  1  0
  8 30  1  0
  8 31  1  0
 12 32  1  0
 13 33  1  0
 13 34  1  0
 15 35  1  0
 16 36  1  0
 17 37  1  0
 18 38  1  0
 19 39  1  0
M  END
>  <Binding energies>  (1) 
[-7.0]

>  <Ligand effiencies>  (1) 
[-0.28]

>  <Interactions>  (1) 
["V-B:TYR:539:CD2:9845, V-A:HIS:456:CE1:4069, V-B:TYR:539:C:9838, V-A:HIS:456:CD2:4067, V-A:VAL:384:C:3396, V-A:TYR:484:CZ:4346, V-A:ILE:369:CG2:3236, V-A:ARG:545:CZ:4925, V-A:SER:385:CA:3406, V-A:ARG:545:CD:4922, H-A:GLY:454:N:4049, V-B:ALA:541:CB:9863, V-A:ARG:545:CG:4921, V-A:ILE:369:CD1:3238, V-A:LEU:475:CD2:4258, V-A:HIS:383:CE1:3393, V-A:PRO:482:CG:4326, V-B:TYR:539:CB:9842, V-A:ILE:369:CB:3235, V-A:PRO:482:CB:4325, V-A:LEU:373:CD2:3280, V-B:VAL:344:CG1:7971, V-A:SER:385:C:3404, H-A:SER:385:O:3405, V-A:ILE:369:CG1:3237"]

$$$$
4ah_Grossjean_2025
     RDKit          3D

 51 53  0  0  0  0  0  0  0  0999 V2000
  129.1710  124.0140   73.1320 C   0  0  0  0  0  0  0  0  0  0  0  0
  128.5460  125.2690   73.3680 O   0  0  0  0  0  0  0  0  0  0  0  0
  129.2510  126.4360   73.1260 C   0  0  0  0  0  0  0  0  0  0  0  0
  129.1150  127.2050   71.9600 C   0  0  0  0  0  0  0  0  0  0  0  0
  129.8600  128.3710   71.7820 C   0  0  0  0  0  0  0  0  0  0  0  0
  129.6650  129.2190   70.5290 C   0  0  0  0  0  0  0  0  0  0  0  0
  130.2040  128.6040   69.3170 N   0  0  0  0  0  0  0  0  0  0  0  0
  129.7130  127.5010   68.7140 C   0  0  0  0  0  0  0  0  0  0  0  0
  128.7570  126.8670   69.1650 O   0  0  0  0  0  0  0  0  0  0  0  0
  130.4110  127.0660   67.5050 C   0  0  0  0  0  0  0  0  0  0  0  0
  131.9240  126.1670   67.6290 S   0  0  0  0  0  0  0  0  0  0  0  0
  132.0780  126.1000   65.8870 C   0  0  0  0  0  0  0  0  0  0  0  0
  133.1050  125.4930   65.2930 N   0  0  0  0  0  0  0  0  0  0  0  0
  133.1050  125.5110   63.9380 C   0  0  0  0  0  0  0  0  0  0  0  0
  134.2840  124.8170   63.2810 C   0  0  0  0  0  0  0  0  0  0  0  0
  132.1100  126.1150   63.1720 C   0  0  0  0  0  0  0  0  0  0  0  0
  131.0340  126.7530   63.7980 C   0  0  0  0  0  0  0  0  0  0  0  0
  129.9730  127.3990   62.9190 C   0  0  0  0  0  0  0  0  0  0  0  0
  131.0010  126.7570   65.2190 C   0  0  0  0  0  0  0  0  0  0  0  0
  130.0700  127.3100   66.1660 C   0  0  0  0  0  0  0  0  0  0  0  0
  128.9510  128.0020   65.7780 N   0  0  0  0  0  0  0  0  0  0  0  0
  130.7310  128.7910   72.7880 C   0  0  0  0  0  0  0  0  0  0  0  0
  130.8920  128.0390   73.9620 C   0  0  0  0  0  0  0  0  0  0  0  0
  131.7470  128.3880   74.9920 O   0  0  0  0  0  0  0  0  0  0  0  0
  133.0880  127.9110   74.9760 C   0  0  0  0  0  0  0  0  0  0  0  0
  130.1500  126.8590   74.1150 C   0  0  0  0  0  0  0  0  0  0  0  0
  130.2830  126.1220   75.2680 O   0  0  0  0  0  0  0  0  0  0  0  0
  131.3430  125.1770   75.2310 C   0  0  0  0  0  0  0  0  0  0  0  0
  129.4089  123.5362   74.0938 H   0  0  0  0  0  0  0  0  0  0  0  0
  128.4899  123.3670   72.5598 H   0  0  0  0  0  0  0  0  0  0  0  0
  130.0978  124.1678   72.5598 H   0  0  0  0  0  0  0  0  0  0  0  0
  128.4123  126.8844   71.1767 H   0  0  0  0  0  0  0  0  0  0  0  0
  128.5871  129.3845   70.3853 H   0  0  0  0  0  0  0  0  0  0  0  0
  130.2149  130.1586   70.6863 H   0  0  0  0  0  0  0  0  0  0  0  0
  130.9350  129.1170   68.8470 H   0  0  0  0  0  0  0  0  0  0  0  0
  134.9557  124.4216   64.0571 H   0  0  0  0  0  0  0  0  0  0  0  0
  133.9198  123.9892   62.6548 H   0  0  0  0  0  0  0  0  0  0  0  0
  134.8310  125.5372   62.6548 H   0  0  0  0  0  0  0  0  0  0  0  0
  132.1707  126.0901   62.0740 H   0  0  0  0  0  0  0  0  0  0  0  0
  129.2057  127.8662   63.5538 H   0  0  0  0  0  0  0  0  0  0  0  0
  130.4403  128.1660   62.2839 H   0  0  0  0  0  0  0  0  0  0  0  0
  129.5061  126.6317   62.2839 H   0  0  0  0  0  0  0  0  0  0  0  0
  128.9500  129.0060   65.6870 H   0  0  0  0  0  0  0  0  0  0  0  0
  128.0840  127.5230   65.5740 H   0  0  0  0  0  0  0  0  0  0  0  0
  131.2991  129.7241   72.6592 H   0  0  0  0  0  0  0  0  0  0  0  0
  133.4444  127.7842   76.0089 H   0  0  0  0  0  0  0  0  0  0  0  0
  133.1270  126.9439   74.4534 H   0  0  0  0  0  0  0  0  0  0  0  0
  133.7290  128.6363   74.4534 H   0  0  0  0  0  0  0  0  0  0  0  0
  131.6368  124.9151   76.2582 H   0  0  0  0  0  0  0  0  0  0  0  0
  131.0088  124.2717   74.7031 H   0  0  0  0  0  0  0  0  0  0  0  0
  132.2042  125.6125   74.7031 H   0  0  0  0  0  0  0  0  0  0  0  0
  1  2  1  0
  2  3  1  0
  3  4  2  0
  4  5  1  0
  5  6  1  0
  6  7  1  0
  7  8  1  0
  8  9  2  0
  8 10  1  0
 10 11  1  0
 11 12  1  0
 12 13  2  0
 13 14  1  0
 14 15  1  0
 14 16  2  0
 16 17  1  0
 17 18  1  0
 17 19  2  0
 19 20  1  0
 20 21  1  0
  5 22  2  0
 22 23  1  0
 23 24  1  0
 24 25  1  0
 23 26  2  0
 26 27  1  0
 27 28  1  0
 26  3  1  0
 20 10  2  0
 19 12  1  0
  1 29  1  0
  1 30  1  0
  1 31  1  0
  4 32  1  0
  6 33  1  0
  6 34  1  0
  7 35  1  0
 15 36  1  0
 15 37  1  0
 15 38  1  0
 16 39  1  0
 18 40  1  0
 18 41  1  0
 18 42  1  0
 21 43  1  0
 21 44  1  0
 22 45  1  0
 25 46  1  0
 25 47  1  0
 25 48  1  0
 28 49  1  0
 28 50  1  0
 28 51  1  0
M  END
>  <Binding energies>  (1) 
[-6.61]

>  <Ligand effiencies>  (1) 
[-0.2132258064516129]

>  <Interactions>  (1) 
["V-A:GLU:543:CB:4905, V-B:HIS:456:CE1:9040, V-A:HIS:456:CE1:4069, V-A:GLU:543:CD:4907, V-B:GLU:543:CD:9879, V-A:ASP:366:CG:3212, V-B:GLU:543:C:9873, V-A:HIS:456:CD2:4067, H-B:LYS:547:NZ:9922, V-A:TYR:484:CZ:4346, V-A:ARG:545:CZ:4925, H-A:GLY:454:N:4049, V-A:ILE:369:CD1:3238, H-A:TYR:484:OH:4347, V-A:GLY:453:C:4041, V-A:GLY:453:CA:4043, V-A:GLY:454:CA:4048, H-A:GLU:543:OE1:4908, H-A:GLU:543:OE2:4909, H-B:GLU:543:OE2:9881, V-A:GLU:543:C:4901, H-A:LYS:547:NZ:4950, V-A:HIS:456:CG:4065, H-B:GLU:543:OE1:9880, V-A:GLY:544:C:4911, V-A:GLY:544:CA:4913, H-A:GLU:543:O:4902"]

$$$$
4ai_Grossjean_2025
     RDKit          3D

 32 34  0  0  0  0  0  0  0  0999 V2000
  133.4230  125.5100   65.1330 C   0  0  0  0  0  0  0  0  0  0  0  0
  132.6910  124.6240   64.1410 C   0  0  0  0  0  0  0  0  0  0  0  0
  133.2650  123.4410   63.6770 C   0  0  0  0  0  0  0  0  0  0  0  0
  132.5700  122.6360   62.7680 C   0  0  0  0  0  0  0  0  0  0  0  0
  133.2370  121.3540   62.2930 C   0  0  0  0  0  0  0  0  0  0  0  0
  131.2820  123.0680   62.3490 C   0  0  0  0  0  0  0  0  0  0  0  0
  130.3150  122.5010   61.4480 C   0  0  0  0  0  0  0  0  0  0  0  0
  130.5370  121.3210   60.7840 N   0  0  0  0  0  0  0  0  0  0  0  0
  129.1400  123.2580   61.3220 C   0  0  0  0  0  0  0  0  0  0  0  0
  127.9650  122.9850   60.4920 C   0  0  0  0  0  0  0  0  0  0  0  0
  126.8530  122.8400   61.0030 O   0  0  0  0  0  0  0  0  0  0  0  0
  128.1980  122.9260   59.1560 N   0  0  0  0  0  0  0  0  0  0  0  0
  127.2720  122.6940   58.1470 C   0  0  0  0  0  0  0  0  0  0  0  0
  125.9700  123.1920   58.1790 C   0  0  0  0  0  0  0  0  0  0  0  0
  125.3860  122.7430   57.0170 C   0  0  0  0  0  0  0  0  0  0  0  0
  126.2890  122.0140   56.3210 O   0  0  0  0  0  0  0  0  0  0  0  0
  127.4820  121.9910   57.0460 N   0  0  0  0  0  0  0  0  0  0  0  0
  129.2160  124.7200   62.3080 S   0  0  0  0  0  0  0  0  0  0  0  0
  130.8080  124.2980   62.8970 C   0  0  0  0  0  0  0  0  0  0  0  0
  131.4680  125.0680   63.7630 N   0  0  0  0  0  0  0  0  0  0  0  0
  133.1682  125.2016   66.1577 H   0  0  0  0  0  0  0  0  0  0  0  0
  134.5080  125.4131   64.9800 H   0  0  0  0  0  0  0  0  0  0  0  0
  133.1232  126.5572   64.9800 H   0  0  0  0  0  0  0  0  0  0  0  0
  134.2641  123.1407   64.0256 H   0  0  0  0  0  0  0  0  0  0  0  0
  133.5472  120.7577   63.1637 H   0  0  0  0  0  0  0  0  0  0  0  0
  132.5263  120.7741   61.6859 H   0  0  0  0  0  0  0  0  0  0  0  0
  134.1198  121.6032   61.6859 H   0  0  0  0  0  0  0  0  0  0  0  0
  131.4660  121.0200   60.5280 H   0  0  0  0  0  0  0  0  0  0  0  0
  129.7720  120.7130   60.5240 H   0  0  0  0  0  0  0  0  0  0  0  0
  129.1470  123.0740   58.8480 H   0  0  0  0  0  0  0  0  0  0  0  0
  125.5094  123.8102   58.9636 H   0  0  0  0  0  0  0  0  0  0  0  0
  124.3509  122.9443   56.7039 H   0  0  0  0  0  0  0  0  0  0  0  0
  1  2  1  0
  2  3  2  0
  3  4  1  0
  4  5  1  0
  4  6  2  0
  6  7  1  0
  7  8  1  0
  7  9  2  0
  9 10  1  0
 10 11  2  0
 10 12  1  0
 12 13  1  0
 13 14  1  0
 14 15  2  0
 15 16  1  0
 16 17  1  0
  9 18  1  0
 18 19  1  0
 19 20  2  0
 20  2  1  0
 19  6  1  0
 17 13  2  0
  1 21  1  0
  1 22  1  0
  1 23  1  0
  3 24  1  0
  5 25  1  0
  5 26  1  0
  5 27  1  0
  8 28  1  0
  8 29  1  0
 12 30  1  0
 14 31  1  0
 15 32  1  0
M  END
>  <Binding energies>  (1) 
[-6.6]

>  <Ligand effiencies>  (1) 
[-0.28695652173913044]

>  <Interactions>  (1) 
["V-B:PRO:540:CD:9858, V-B:PRO:540:N:9855, H-B:TYR:539:N:9841, V-B:LEU:363:CD1:8159, V-B:TYR:539:CD2:9845, V-B:TYR:539:C:9838, V-B:PRO:540:CB:9856, V-B:TYR:539:CE2:9847, V-A:ARG:545:CZ:4925, V-A:LEU:475:CD2:4258, V-B:PRO:540:CA:9854, H-B:ALA:541:N:9862, H-B:TYR:539:O:9839, V-A:GLY:454:CA:4048"]

$$$$
4aj_Grossjean_2025
     RDKit          3D

 32 34  0  0  0  0  0  0  0  0999 V2000
  127.8240  125.7530   72.7380 C   0  0  0  0  0  0  0  0  0  0  0  0
  127.7740  126.3540   71.3450 C   0  0  0  0  0  0  0  0  0  0  0  0
  128.9070  126.3840   70.5350 C   0  0  0  0  0  0  0  0  0  0  0  0
  128.8390  126.9480   69.2560 C   0  0  0  0  0  0  0  0  0  0  0  0
  130.1030  126.9570   68.4110 C   0  0  0  0  0  0  0  0  0  0  0  0
  127.5910  127.4760   68.8290 C   0  0  0  0  0  0  0  0  0  0  0  0
  127.1740  128.1130   67.6090 C   0  0  0  0  0  0  0  0  0  0  0  0
  128.0350  128.3270   66.5630 N   0  0  0  0  0  0  0  0  0  0  0  0
  125.8200  128.4840   67.5940 C   0  0  0  0  0  0  0  0  0  0  0  0
  125.0720  129.1550   66.5290 C   0  0  0  0  0  0  0  0  0  0  0  0
  124.2410  130.0260   66.7960 O   0  0  0  0  0  0  0  0  0  0  0  0
  125.3720  128.7590   65.2680 N   0  0  0  0  0  0  0  0  0  0  0  0
  124.8200  129.2410   64.0890 C   0  0  0  0  0  0  0  0  0  0  0  0
  123.7580  130.0060   63.9480 N   0  0  0  0  0  0  0  0  0  0  0  0
  123.5210  130.2770   62.6790 C   0  0  0  0  0  0  0  0  0  0  0  0
  124.4040  129.7240   61.7560 C   0  0  0  0  0  0  0  0  0  0  0  0
  125.6060  128.8010   62.6080 S   0  0  0  0  0  0  0  0  0  0  0  0
  125.0260  128.0620   69.1120 S   0  0  0  0  0  0  0  0  0  0  0  0
  126.5050  127.3820   69.7520 C   0  0  0  0  0  0  0  0  0  0  0  0
  126.5670  126.8460   70.9720 N   0  0  0  0  0  0  0  0  0  0  0  0
  127.7572  126.5563   73.4865 H   0  0  0  0  0  0  0  0  0  0  0  0
  126.9805  125.0591   72.8685 H   0  0  0  0  0  0  0  0  0  0  0  0
  128.7706  125.2081   72.8685 H   0  0  0  0  0  0  0  0  0  0  0  0
  129.8556  125.9642   70.9009 H   0  0  0  0  0  0  0  0  0  0  0  0
  130.9842  126.9633   69.0694 H   0  0  0  0  0  0  0  0  0  0  0  0
  130.1260  126.0590   67.7761 H   0  0  0  0  0  0  0  0  0  0  0  0
  130.1133  127.8552   67.7761 H   0  0  0  0  0  0  0  0  0  0  0  0
  128.3600  127.5720   65.9770 H   0  0  0  0  0  0  0  0  0  0  0  0
  128.3760  129.2520   66.3440 H   0  0  0  0  0  0  0  0  0  0  0  0
  126.0740  128.0410   65.1620 H   0  0  0  0  0  0  0  0  0  0  0  0
  122.6731  130.9048   62.3677 H   0  0  0  0  0  0  0  0  0  0  0  0
  124.3501  129.8504   60.6646 H   0  0  0  0  0  0  0  0  0  0  0  0
  1  2  1  0
  2  3  2  0
  3  4  1  0
  4  5  1  0
  4  6  2  0
  6  7  1  0
  7  8  1  0
  7  9  2  0
  9 10  1  0
 10 11  2  0
 10 12  1  0
 12 13  1  0
 13 14  2  0
 14 15  1  0
 15 16  2  0
 16 17  1  0
  9 18  1  0
 18 19  1  0
 19 20  2  0
 20  2  1  0
 19  6  1  0
 17 13  1  0
  1 21  1  0
  1 22  1  0
  1 23  1  0
  3 24  1  0
  5 25  1  0
  5 26  1  0
  5 27  1  0
  8 28  1  0
  8 29  1  0
 12 30  1  0
 15 31  1  0
 16 32  1  0
M  END
>  <Binding energies>  (1) 
[-6.32]

>  <Ligand effiencies>  (1) 
[-0.2747826086956522]

>  <Interactions>  (1) 
["V-B:GLU:543:CB:9877, H-B:TYR:484:OH:9318, H-B:GLY:454:N:9020, V-B:ASP:366:CG:8183, V-B:HIS:456:CE1:9040, V-A:HIS:456:CE1:4069, V-B:GLU:543:CD:9879, V-B:LYS:547:CE:9921, V-B:GLU:543:C:9873, V-B:GLY:544:CA:9885, V-B:GLY:544:C:9883, V-B:ARG:545:CZ:9897, H-B:ARG:545:NH2:9899, V-B:ARG:545:CG:9893, H-B:GLU:543:OE2:9881, H-B:ARG:545:N:9891, V-B:ARG:545:CB:9892, V-B:ARG:545:CA:9890, H-B:GLU:543:OE1:9880, H-B:HIS:456:ND1:9037"]

$$$$
4ak_Grossjean_2025
     RDKit          3D

 50 51  0  0  0  0  0  0  0  0999 V2000
  131.6650  125.3920   58.7380 C   0  0  0  0  0  0  0  0  0  0  0  0
  132.7180  124.6400   58.1560 O   0  0  0  0  0  0  0  0  0  0  0  0
  133.6210  124.0970   59.1110 C   0  0  0  0  0  0  0  0  0  0  0  0
  132.9560  124.0840   60.4930 C   0  0  0  0  0  0  0  0  0  0  0  0
  132.1550  122.9170   60.6200 O   0  0  0  0  0  0  0  0  0  0  0  0
  132.9040  121.7130   60.7110 C   0  0  0  0  0  0  0  0  0  0  0  0
  132.9840  121.2760   62.1790 C   0  0  0  0  0  0  0  0  0  0  0  0
  133.0700  122.4270   63.0080 O   0  0  0  0  0  0  0  0  0  0  0  0
  132.8470  122.1600   64.3860 C   0  0  0  0  0  0  0  0  0  0  0  0
  131.3600  122.3860   64.7140 C   0  0  0  0  0  0  0  0  0  0  0  0
  130.5140  122.5300   63.5290 N   0  0  0  0  0  0  0  0  0  0  0  0
  129.1730  122.6680   63.5400 C   0  0  0  0  0  0  0  0  0  0  0  0
  128.5210  122.7080   64.5860 O   0  0  0  0  0  0  0  0  0  0  0  0
  128.5260  122.7780   62.2340 C   0  0  0  0  0  0  0  0  0  0  0  0
  129.4230  122.4020   60.7630 S   0  0  0  0  0  0  0  0  0  0  0  0
  128.0270  122.7490   59.7680 C   0  0  0  0  0  0  0  0  0  0  0  0
  128.0650  122.6470   58.4380 N   0  0  0  0  0  0  0  0  0  0  0  0
  126.9150  122.9460   57.7860 C   0  0  0  0  0  0  0  0  0  0  0  0
  126.9790  122.8230   56.2740 C   0  0  0  0  0  0  0  0  0  0  0  0
  125.7420  123.3400   58.4250 C   0  0  0  0  0  0  0  0  0  0  0  0
  125.7050  123.4450   59.8200 C   0  0  0  0  0  0  0  0  0  0  0  0
  124.4020  123.8820   60.4710 C   0  0  0  0  0  0  0  0  0  0  0  0
  126.8920  123.1400   60.5390 C   0  0  0  0  0  0  0  0  0  0  0  0
  127.2020  123.1430   61.9430 C   0  0  0  0  0  0  0  0  0  0  0  0
  126.2770  123.4780   62.8990 N   0  0  0  0  0  0  0  0  0  0  0  0
  131.7391  125.3391   59.8342 H   0  0  0  0  0  0  0  0  0  0  0  0
  131.7417  126.4409   58.4155 H   0  0  0  0  0  0  0  0  0  0  0  0
  130.6978  124.9791   58.4155 H   0  0  0  0  0  0  0  0  0  0  0  0
  133.8863  123.0693   58.8220 H   0  0  0  0  0  0  0  0  0  0  0  0
  134.5310  124.7139   59.1476 H   0  0  0  0  0  0  0  0  0  0  0  0
  133.7312  124.0838   61.2734 H   0  0  0  0  0  0  0  0  0  0  0  0
  132.3243  124.9775   60.6054 H   0  0  0  0  0  0  0  0  0  0  0  0
  132.4103  120.9275   60.1201 H   0  0  0  0  0  0  0  0  0  0  0  0
  133.9186  121.8796   60.3201 H   0  0  0  0  0  0  0  0  0  0  0  0
  132.0834  120.7012   62.4408 H   0  0  0  0  0  0  0  0  0  0  0  0
  133.8742  120.6473   62.3282 H   0  0  0  0  0  0  0  0  0  0  0  0
  133.1175  121.1169   64.6066 H   0  0  0  0  0  0  0  0  0  0  0  0
  133.4656  122.8341   64.9967 H   0  0  0  0  0  0  0  0  0  0  0  0
  130.9980  121.5265   65.2973 H   0  0  0  0  0  0  0  0  0  0  0  0
  131.2932  123.3301   65.2746 H   0  0  0  0  0  0  0  0  0  0  0  0
  130.9880  122.5110   62.6370 H   0  0  0  0  0  0  0  0  0  0  0  0
  127.4712  121.8771   56.0036 H   0  0  0  0  0  0  0  0  0  0  0  0
  125.9594  122.8368   55.8615 H   0  0  0  0  0  0  0  0  0  0  0  0
  127.5528  123.6659   55.8615 H   0  0  0  0  0  0  0  0  0  0  0  0
  124.8438  123.5689   57.8327 H   0  0  0  0  0  0  0  0  0  0  0  0
  124.5088  123.8462   61.5652 H   0  0  0  0  0  0  0  0  0  0  0  0
  124.1630  124.9095   60.1593 H   0  0  0  0  0  0  0  0  0  0  0  0
  123.5918  123.2064   60.1593 H   0  0  0  0  0  0  0  0  0  0  0  0
  125.4980  124.0880   62.6960 H   0  0  0  0  0  0  0  0  0  0  0  0
  126.3420  123.1190   63.8410 H   0  0  0  0  0  0  0  0  0  0  0  0
  1  2  1  0
  2  3  1  0
  3  4  1  0
  4  5  1  0
  5  6  1  0
  6  7  1  0
  7  8  1  0
  8  9  1  0
  9 10  1  0
 10 11  1  0
 11 12  1  0
 12 13  2  0
 12 14  1  0
 14 15  1  0
 15 16  1  0
 16 17  2  0
 17 18  1  0
 18 19  1  0
 18 20  2  0
 20 21  1  0
 21 22  1  0
 21 23  2  0
 23 24  1  0
 24 25  1  0
 24 14  2  0
 23 16  1  0
  1 26  1  0
  1 27  1  0
  1 28  1  0
  3 29  1  0
  3 30  1  0
  4 31  1  0
  4 32  1  0
  6 33  1  0
  6 34  1  0
  7 35  1  0
  7 36  1  0
  9 37  1  0
  9 38  1  0
 10 39  1  0
 10 40  1  0
 11 41  1  0
 19 42  1  0
 19 43  1  0
 19 44  1  0
 20 45  1  0
 22 46  1  0
 22 47  1  0
 22 48  1  0
 25 49  1  0
 25 50  1  0
M  END
>  <Binding energies>  (1) 
[-4.92]

>  <Ligand effiencies>  (1) 
[-0.1757142857142857]

>  <Interactions>  (1) 
["V-B:PRO:540:N:9855, V-B:MET:535:CE:9806, V-B:TYR:539:CD2:9845, V-B:ASP:366:CG:8183, V-B:TYR:539:C:9838, V-B:PRO:540:CB:9856, V-B:TYR:539:CE2:9847, V-B:GLU:543:CD:9879, V-A:ASP:366:CG:3212, V-A:ASP:366:CA:3209, V-A:ASP:366:CB:3211, V-B:GLU:543:CG:9878, V-A:TYR:484:CZ:4346, V-A:ILE:369:CG2:3236, V-B:ALA:541:C:9859, V-B:ALA:541:CB:9863, V-A:ILE:369:CD1:3238, V-A:LEU:475:CD2:4258, V-A:LEU:475:CD1:4257, H-B:TYR:539:OH:9849, V-B:PRO:540:CA:9854, V-A:ILE:369:CB:3235, V-A:GLY:454:CA:4048, H-B:GLU:543:OE2:9881, V-B:PRO:540:C:9852, V-A:ILE:369:CG1:3237, H-B:GLU:543:OE1:9880, H-B:ALA:541:O:9860"]

$$$$
4al_Grossjean_2025
     RDKit          3D

 28 29  0  0  0  0  0  0  0  0999 V2000
  129.8950  116.7850   59.9580 C   0  0  0  0  0  0  0  0  0  0  0  0
  131.0790  117.0480   60.6960 O   0  0  0  0  0  0  0  0  0  0  0  0
  132.0850  117.7860   60.1590 C   0  0  0  0  0  0  0  0  0  0  0  0
  132.8330  117.3850   59.2650 O   0  0  0  0  0  0  0  0  0  0  0  0
  132.1950  119.1330   60.7600 C   0  0  0  0  0  0  0  0  0  0  0  0
  133.7480  119.9730   60.7630 S   0  0  0  0  0  0  0  0  0  0  0  0
  133.0480  121.3500   61.5820 C   0  0  0  0  0  0  0  0  0  0  0  0
  133.7720  122.4230   61.9010 N   0  0  0  0  0  0  0  0  0  0  0  0
  133.1090  123.4230   62.5340 C   0  0  0  0  0  0  0  0  0  0  0  0
  133.9520  124.6340   62.8880 C   0  0  0  0  0  0  0  0  0  0  0  0
  131.7530  123.3740   62.8510 C   0  0  0  0  0  0  0  0  0  0  0  0
  130.9960  122.2470   62.5140 C   0  0  0  0  0  0  0  0  0  0  0  0
  129.5200  122.2400   62.8800 C   0  0  0  0  0  0  0  0  0  0  0  0
  131.6570  121.1790   61.8500 C   0  0  0  0  0  0  0  0  0  0  0  0
  131.1990  119.9050   61.3700 C   0  0  0  0  0  0  0  0  0  0  0  0
  129.8980  119.4900   61.5020 N   0  0  0  0  0  0  0  0  0  0  0  0
  129.0630  116.6002   60.6534 H   0  0  0  0  0  0  0  0  0  0  0  0
  129.6576  117.6523   59.3244 H   0  0  0  0  0  0  0  0  0  0  0  0
  130.0471  115.8988   59.3244 H   0  0  0  0  0  0  0  0  0  0  0  0
  134.0175  124.7281   63.9820 H   0  0  0  0  0  0  0  0  0  0  0  0
  134.9620  124.5128   62.4693 H   0  0  0  0  0  0  0  0  0  0  0  0
  133.4877  125.5390   62.4693 H   0  0  0  0  0  0  0  0  0  0  0  0
  131.2777  124.2217   63.3663 H   0  0  0  0  0  0  0  0  0  0  0  0
  129.4137  122.2395   63.9749 H   0  0  0  0  0  0  0  0  0  0  0  0
  129.0351  123.1359   62.4649 H   0  0  0  0  0  0  0  0  0  0  0  0
  129.0436  121.3396   62.4649 H   0  0  0  0  0  0  0  0  0  0  0  0
  129.6560  118.5160   61.6120 H   0  0  0  0  0  0  0  0  0  0  0  0
  129.1320  120.1510   61.4940 H   0  0  0  0  0  0  0  0  0  0  0  0
  1  2  1  0
  2  3  1  0
  3  4  2  0
  3  5  1  0
  5  6  1  0
  6  7  1  0
  7  8  2  0
  8  9  1  0
  9 10  1  0
  9 11  2  0
 11 12  1  0
 12 13  1  0
 12 14  2  0
 14 15  1  0
 15 16  1  0
 15  5  2  0
 14  7  1  0
  1 17  1  0
  1 18  1  0
  1 19  1  0
 10 20  1  0
 10 21  1  0
 10 22  1  0
 11 23  1  0
 13 24  1  0
 13 25  1  0
 13 26  1  0
 16 27  1  0
 16 28  1  0
M  END
>  <Binding energies>  (1) 
[-5.15]

>  <Ligand effiencies>  (1) 
[-0.28611111111111115]

>  <Interactions>  (1) 
["V-B:TYR:539:CD2:9845, V-B:TYR:539:C:9838, V-A:ASP:366:CG:3212, V-A:ILE:369:CG2:3236, V-A:SER:385:CA:3406, V-A:SER:385:CB:3408, V-B:ALA:541:CB:9863, V-A:ILE:369:CD1:3238, V-A:LEU:475:CD2:4258, V-A:HIS:383:CE1:3393, V-A:PRO:482:CG:4326, V-B:TYR:539:CB:9842, H-B:TYR:539:O:9839, V-B:VAL:344:CG1:7971, V-B:TYR:539:CA:9840, V-A:SER:385:C:3404, H-A:HIS:383:ND1:3390"]

$$$$
4ba_Grossjean_2025
     RDKit          3D

 44 46  0  0  0  0  0  0  0  0999 V2000
  132.0500  117.3370   61.5640 C   0  0  0  0  0  0  0  0  0  0  0  0
  131.6190  118.6110   60.8140 C   0  0  0  0  0  0  0  0  0  0  0  0
  132.6510  119.7580   60.8270 C   0  0  0  0  0  0  0  0  0  0  0  0
  133.6140  119.7170   60.0590 O   0  0  0  0  0  0  0  0  0  0  0  0
  132.4240  120.8890   61.7880 C   0  0  0  0  0  0  0  0  0  0  0  0
  131.1150  121.2410   62.1400 C   0  0  0  0  0  0  0  0  0  0  0  0
  130.8760  122.2860   63.0270 C   0  0  0  0  0  0  0  0  0  0  0  0
  131.9390  122.9990   63.5840 C   0  0  0  0  0  0  0  0  0  0  0  0
  131.5840  124.0410   64.4620 N   0  0  0  0  0  0  0  0  0  0  0  0
  132.3470  125.0200   65.0070 C   0  0  0  0  0  0  0  0  0  0  0  0
  133.5620  125.1260   64.8360 O   0  0  0  0  0  0  0  0  0  0  0  0
  131.6300  125.9670   65.8640 C   0  0  0  0  0  0  0  0  0  0  0  0
  132.1200  126.1910   67.5420 S   0  0  0  0  0  0  0  0  0  0  0  0
  130.8280  127.3360   67.8150 C   0  0  0  0  0  0  0  0  0  0  0  0
  130.6520  127.9130   69.0020 N   0  0  0  0  0  0  0  0  0  0  0  0
  129.6180  128.7810   69.0930 C   0  0  0  0  0  0  0  0  0  0  0  0
  129.4300  129.4210   70.4570 C   0  0  0  0  0  0  0  0  0  0  0  0
  128.7680  129.0870   68.0340 C   0  0  0  0  0  0  0  0  0  0  0  0
  128.9490  128.4820   66.7790 C   0  0  0  0  0  0  0  0  0  0  0  0
  127.9900  128.8510   65.6430 C   0  0  0  0  0  0  0  0  0  0  0  0
  128.5670  128.8150   64.4400 F   0  0  0  0  0  0  0  0  0  0  0  0
  126.9650  127.9980   65.6200 F   0  0  0  0  0  0  0  0  0  0  0  0
  127.5280  130.0880   65.8280 F   0  0  0  0  0  0  0  0  0  0  0  0
  130.0270  127.5560   66.6520 C   0  0  0  0  0  0  0  0  0  0  0  0
  130.5060  126.7510   65.5540 C   0  0  0  0  0  0  0  0  0  0  0  0
  129.9110  126.7570   64.3180 N   0  0  0  0  0  0  0  0  0  0  0  0
  133.2530  122.6570   63.2310 C   0  0  0  0  0  0  0  0  0  0  0  0
  133.4900  121.6120   62.3430 C   0  0  0  0  0  0  0  0  0  0  0  0
  131.9908  117.5121   62.6484 H   0  0  0  0  0  0  0  0  0  0  0  0
  131.3828  116.5066   61.2897 H   0  0  0  0  0  0  0  0  0  0  0  0
  133.0843  117.0822   61.2897 H   0  0  0  0  0  0  0  0  0  0  0  0
  131.4237  118.3400   59.7659 H   0  0  0  0  0  0  0  0  0  0  0  0
  130.7312  118.9913   61.3405 H   0  0  0  0  0  0  0  0  0  0  0  0
  130.2676  120.6860   61.7111 H   0  0  0  0  0  0  0  0  0  0  0  0
  129.8419  122.5522   63.2912 H   0  0  0  0  0  0  0  0  0  0  0  0
  130.6110  124.0400   64.7290 H   0  0  0  0  0  0  0  0  0  0  0  0
  129.6472  128.6817   71.2420 H   0  0  0  0  0  0  0  0  0  0  0  0
  130.1150  130.2756   70.5586 H   0  0  0  0  0  0  0  0  0  0  0  0
  128.3916  129.7694   70.5586 H   0  0  0  0  0  0  0  0  0  0  0  0
  127.9494  129.8070   68.1807 H   0  0  0  0  0  0  0  0  0  0  0  0
  128.9510  126.4740   64.1850 H   0  0  0  0  0  0  0  0  0  0  0  0
  130.4190  127.0400   63.4920 H   0  0  0  0  0  0  0  0  0  0  0  0
  134.0986  123.2166   63.6574 H   0  0  0  0  0  0  0  0  0  0  0  0
  134.5239  121.3504   62.0736 H   0  0  0  0  0  0  0  0  0  0  0  0
  1  2  1  0
  2  3  1  0
  3  4  2  0
  3  5  1  0
  5  6  2  0
  6  7  1  0
  7  8  2  0
  8  9  1  0
  9 10  1  0
 10 11  2  0
 10 12  1  0
 12 13  1  0
 13 14  1  0
 14 15  2  0
 15 16  1  0
 16 17  1  0
 16 18  2  0
 18 19  1  0
 19 20  1  0
 20 21  1  0
 20 22  1  0
 20 23  1  0
 19 24  2  0
 24 25  1  0
 25 26  1  0
  8 27  1  0
 27 28  2  0
 28  5  1  0
 25 12  2  0
 24 14  1  0
  1 29  1  0
  1 30  1  0
  1 31  1  0
  2 32  1  0
  2 33  1  0
  6 34  1  0
  7 35  1  0
  9 36  1  0
 17 37  1  0
 17 38  1  0
 17 39  1  0
 18 40  1  0
 26 41  1  0
 26 42  1  0
 27 43  1  0
 28 44  1  0
M  END
>  <Binding energies>  (1) 
[-6.71]

>  <Ligand effiencies>  (1) 
[-0.21645161290322582]

>  <Interactions>  (1) 
["V-A:GLU:543:CB:4905, V-B:TYR:539:CD2:9845, V-B:HIS:456:CE1:9040, V-A:HIS:456:CE1:4069, V-A:GLU:543:CD:4907, V-A:GLU:543:CG:4906, V-B:GLU:543:CD:9879, V-A:TYR:484:CZ:4346, V-A:SER:385:CA:3406, V-A:SER:385:CB:3408, H-A:GLY:454:N:4049, V-A:LEU:475:CD2:4258, V-A:HIS:383:CE1:3393, H-A:TYR:484:OH:4347, V-A:GLY:454:CA:4048, H-B:GLU:543:OE2:9881, V-A:THR:477:CG2:4272, V-A:GLU:543:C:4901, H-B:GLU:543:OE1:9880"]

$$$$
4bb_Grossjean_2025
     RDKit          3D

 41 43  0  0  0  0  0  0  0  0999 V2000
  124.6690  123.1520   57.1810 C   0  0  0  0  0  0  0  0  0  0  0  0
  126.1320  122.7070   57.2100 C   0  0  0  0  0  0  0  0  0  0  0  0
  126.5390  121.9880   56.2950 O   0  0  0  0  0  0  0  0  0  0  0  0
  126.9900  123.1600   58.3530 C   0  0  0  0  0  0  0  0  0  0  0  0
  128.3790  123.2270   58.1860 C   0  0  0  0  0  0  0  0  0  0  0  0
  129.1980  123.6430   59.2310 C   0  0  0  0  0  0  0  0  0  0  0  0
  128.6460  124.0070   60.4610 C   0  0  0  0  0  0  0  0  0  0  0  0
  129.5650  124.4100   61.4490 N   0  0  0  0  0  0  0  0  0  0  0  0
  130.6160  125.2620   61.3670 C   0  0  0  0  0  0  0  0  0  0  0  0
  130.9640  125.8320   60.3330 O   0  0  0  0  0  0  0  0  0  0  0  0
  131.3630  125.4550   62.6130 C   0  0  0  0  0  0  0  0  0  0  0  0
  133.0870  125.0950   62.6780 S   0  0  0  0  0  0  0  0  0  0  0  0
  133.1590  125.5190   64.3730 C   0  0  0  0  0  0  0  0  0  0  0  0
  134.2990  125.4520   65.0580 N   0  0  0  0  0  0  0  0  0  0  0  0
  134.2290  125.8050   66.3630 C   0  0  0  0  0  0  0  0  0  0  0  0
  135.5390  125.7230   67.1250 C   0  0  0  0  0  0  0  0  0  0  0  0
  133.0570  126.2170   66.9920 C   0  0  0  0  0  0  0  0  0  0  0  0
  131.8530  126.2890   66.2750 C   0  0  0  0  0  0  0  0  0  0  0  0
  130.5900  126.7490   67.0100 C   0  0  0  0  0  0  0  0  0  0  0  0
  130.8550  127.4000   68.1460 F   0  0  0  0  0  0  0  0  0  0  0  0
  129.8900  127.5740   66.2310 F   0  0  0  0  0  0  0  0  0  0  0  0
  129.8380  125.6930   67.3210 F   0  0  0  0  0  0  0  0  0  0  0  0
  131.8920  125.9240   64.8950 C   0  0  0  0  0  0  0  0  0  0  0  0
  130.8840  125.8720   63.8660 C   0  0  0  0  0  0  0  0  0  0  0  0
  129.5740  126.2100   64.0940 N   0  0  0  0  0  0  0  0  0  0  0  0
  127.2560  123.9350   60.6380 C   0  0  0  0  0  0  0  0  0  0  0  0
  126.4380  123.5170   59.5910 C   0  0  0  0  0  0  0  0  0  0  0  0
  124.2995  123.2644   58.2110 H   0  0  0  0  0  0  0  0  0  0  0  0
  124.5890  124.1151   56.6556 H   0  0  0  0  0  0  0  0  0  0  0  0
  124.0663  122.3965   56.6556 H   0  0  0  0  0  0  0  0  0  0  0  0
  128.8262  122.9483   57.2204 H   0  0  0  0  0  0  0  0  0  0  0  0
  130.2877  123.6855   59.0873 H   0  0  0  0  0  0  0  0  0  0  0  0
  129.4210  123.9720   62.3480 H   0  0  0  0  0  0  0  0  0  0  0  0
  135.3358  125.7357   68.2060 H   0  0  0  0  0  0  0  0  0  0  0  0
  136.0592  124.7905   66.8606 H   0  0  0  0  0  0  0  0  0  0  0  0
  136.1714  126.5833   66.8606 H   0  0  0  0  0  0  0  0  0  0  0  0
  133.0751  126.4878   68.0580 H   0  0  0  0  0  0  0  0  0  0  0  0
  128.8770  126.1700   63.3640 H   0  0  0  0  0  0  0  0  0  0  0  0
  129.2600  126.5120   65.0060 H   0  0  0  0  0  0  0  0  0  0  0  0
  126.8112  124.2093   61.6059 H   0  0  0  0  0  0  0  0  0  0  0  0
  125.3489  123.4666   59.7370 H   0  0  0  0  0  0  0  0  0  0  0  0
  1  2  1  0
  2  3  2  0
  2  4  1  0
  4  5  2  0
  5  6  1  0
  6  7  2  0
  7  8  1  0
  8  9  1  0
  9 10  2  0
  9 11  1  0
 11 12  1  0
 12 13  1  0
 13 14  2  0
 14 15  1  0
 15 16  1  0
 15 17  2  0
 17 18  1  0
 18 19  1  0
 19 20  1  0
 19 21  1  0
 19 22  1  0
 18 23  2  0
 23 24  1  0
 24 25  1  0
  7 26  1  0
 26 27  2  0
 27  4  1  0
 24 11  2  0
 23 13  1  0
  1 28  1  0
  1 29  1  0
  1 30  1  0
  5 31  1  0
  6 32  1  0
  8 33  1  0
 16 34  1  0
 16 35  1  0
 16 36  1  0
 17 37  1  0
 25 38  1  0
 25 39  1  0
 26 40  1  0
 27 41  1  0
M  END
>  <Binding energies>  (1) 
[-7.33]

>  <Ligand effiencies>  (1) 
[-0.24433333333333335]

>  <Interactions>  (1) 
["V-B:PRO:540:CD:9858, V-B:GLU:543:CB:9877, V-B:PRO:540:N:9855, V-A:GLU:543:CB:4905, V-B:TYR:531:CE2:9764, H-B:TYR:539:N:9841, V-B:LEU:363:CD1:8159, V-B:TYR:539:CD2:9845, V-B:TYR:539:CZ:9848, V-A:HIS:456:CE1:4069, V-B:TYR:539:C:9838, V-A:GLU:543:CD:4907, V-B:PRO:540:CB:9856, V-B:TYR:539:CE2:9847, V-B:GLU:543:CD:9879, V-A:ASP:366:CG:3212, V-B:GLU:543:CG:9878, H-A:ARG:545:NE:4923, V-A:ARG:545:CZ:4925, H-A:ARG:545:NH1:4926, V-A:ARG:545:CD:4922, V-A:TYR:484:CE2:4345, H-A:GLY:454:N:4049, H-A:ARG:545:NH2:4927, V-A:ARG:545:CG:4921, V-B:PRO:540:CA:9854, H-A:TYR:484:OH:4347, V-A:GLY:453:C:4041, V-A:GLY:453:CA:4043, V-A:GLY:454:CA:4048, V-A:ARG:545:CB:4920, V-A:ILE:455:C:4051, H-B:GLU:543:OE2:9881, H-B:GLU:543:OE1:9880"]

$$$$
4bc_Grossjean_2025
     RDKit          3D

 40 42  0  0  0  0  0  0  0  0999 V2000
  130.1750  124.1030   73.5400 C   0  0  0  0  0  0  0  0  0  0  0  0
  129.0860  124.9840   73.7930 O   0  0  0  0  0  0  0  0  0  0  0  0
  128.4650  125.6100   72.7300 C   0  0  0  0  0  0  0  0  0  0  0  0
  129.1240  125.5540   71.5030 C   0  0  0  0  0  0  0  0  0  0  0  0
  128.5760  126.1560   70.3740 C   0  0  0  0  0  0  0  0  0  0  0  0
  127.3500  126.8190   70.4570 C   0  0  0  0  0  0  0  0  0  0  0  0
  126.8810  127.4100   69.2690 N   0  0  0  0  0  0  0  0  0  0  0  0
  125.6640  127.9410   68.9980 C   0  0  0  0  0  0  0  0  0  0  0  0
  124.7250  127.9500   69.7950 O   0  0  0  0  0  0  0  0  0  0  0  0
  125.5120  128.5180   67.6590 C   0  0  0  0  0  0  0  0  0  0  0  0
  123.9420  129.1070   67.1190 S   0  0  0  0  0  0  0  0  0  0  0  0
  124.5990  129.5750   65.5690 C   0  0  0  0  0  0  0  0  0  0  0  0
  123.8360  130.1360   64.6310 N   0  0  0  0  0  0  0  0  0  0  0  0
  124.4570  130.4520   63.4710 C   0  0  0  0  0  0  0  0  0  0  0  0
  123.5720  131.0950   62.4190 C   0  0  0  0  0  0  0  0  0  0  0  0
  125.8090  130.2230   63.2290 C   0  0  0  0  0  0  0  0  0  0  0  0
  126.6170  129.6320   64.2130 C   0  0  0  0  0  0  0  0  0  0  0  0
  128.0990  129.3980   63.8980 C   0  0  0  0  0  0  0  0  0  0  0  0
  128.4630  128.1200   64.0240 F   0  0  0  0  0  0  0  0  0  0  0  0
  128.3560  129.7650   62.6430 F   0  0  0  0  0  0  0  0  0  0  0  0
  128.8560  130.1120   64.7310 F   0  0  0  0  0  0  0  0  0  0  0  0
  125.9940  129.2870   65.4490 C   0  0  0  0  0  0  0  0  0  0  0  0
  126.4880  128.6850   66.6640 C   0  0  0  0  0  0  0  0  0  0  0  0
  127.7980  128.3120   66.8240 N   0  0  0  0  0  0  0  0  0  0  0  0
  126.6860  126.8920   71.6910 C   0  0  0  0  0  0  0  0  0  0  0  0
  127.2380  126.2890   72.8170 C   0  0  0  0  0  0  0  0  0  0  0  0
  130.5988  123.7601   74.4954 H   0  0  0  0  0  0  0  0  0  0  0  0
  129.8190  123.2358   72.9645 H   0  0  0  0  0  0  0  0  0  0  0  0
  130.9488  124.6323   72.9645 H   0  0  0  0  0  0  0  0  0  0  0  0
  130.0873  125.0285   71.4261 H   0  0  0  0  0  0  0  0  0  0  0  0
  129.1103  126.1093   69.4136 H   0  0  0  0  0  0  0  0  0  0  0  0
  127.5450  127.4050   68.5090 H   0  0  0  0  0  0  0  0  0  0  0  0
  122.7766  131.6729   62.9124 H   0  0  0  0  0  0  0  0  0  0  0  0
  124.1769  131.7657   61.7911 H   0  0  0  0  0  0  0  0  0  0  0  0
  123.1211  130.3125   61.7911 H   0  0  0  0  0  0  0  0  0  0  0  0
  126.2466  130.5070   62.2606 H   0  0  0  0  0  0  0  0  0  0  0  0
  128.4080  128.7700   67.4850 H   0  0  0  0  0  0  0  0  0  0  0  0
  128.1970  127.5570   66.2840 H   0  0  0  0  0  0  0  0  0  0  0  0
  125.7278  127.4267   71.7683 H   0  0  0  0  0  0  0  0  0  0  0  0
  126.7107  126.3442   73.7808 H   0  0  0  0  0  0  0  0  0  0  0  0
  1  2  1  0
  2  3  1  0
  3  4  2  0
  4  5  1  0
  5  6  2  0
  6  7  1  0
  7  8  1  0
  8  9  2  0
  8 10  1  0
 10 11  1  0
 11 12  1  0
 12 13  2  0
 13 14  1  0
 14 15  1  0
 14 16  2  0
 16 17  1  0
 17 18  1  0
 18 19  1  0
 18 20  1  0
 18 21  1  0
 17 22  2  0
 22 23  1  0
 23 24  1  0
  6 25  1  0
 25 26  2  0
 26  3  1  0
 23 10  2  0
 22 12  1  0
  1 27  1  0
  1 28  1  0
  1 29  1  0
  4 30  1  0
  5 31  1  0
  7 32  1  0
 15 33  1  0
 15 34  1  0
 15 35  1  0
 16 36  1  0
 24 37  1  0
 24 38  1  0
 25 39  1  0
 26 40  1  0
M  END
>  <Binding energies>  (1) 
[-6.39]

>  <Ligand effiencies>  (1) 
[-0.22034482758620688]

>  <Interactions>  (1) 
["V-B:GLU:543:CB:9877, H-B:GLY:454:N:9020, V-B:HIS:456:CE1:9040, V-A:HIS:456:CE1:4069, V-A:GLU:543:CD:4907, V-A:GLU:543:CG:4906, V-B:GLU:543:CD:9879, V-B:LYS:547:CE:9921, V-B:GLU:543:C:9873, V-B:GLY:544:CA:9885, V-B:GLY:544:C:9883, V-B:ARG:545:CZ:9897, V-A:HIS:456:CD2:4067, V-B:ARG:545:CG:9893, H-B:LYS:547:NZ:9922, V-B:ARG:545:CD:9894, H-B:GLU:543:OE2:9881, V-A:HIS:456:CG:4065, H-B:ARG:545:N:9891, V-B:ARG:545:CA:9890, H-B:GLU:543:OE1:9880, H-B:HIS:456:ND1:9037"]

$$$$
4bd_Grossjean_2025
     RDKit          3D

 36 38  0  0  0  0  0  0  0  0999 V2000
  133.2350  125.3710   65.4980 C   0  0  0  0  0  0  0  0  0  0  0  0
  132.5040  124.5590   64.4440 C   0  0  0  0  0  0  0  0  0  0  0  0
  133.1210  123.4840   63.8110 C   0  0  0  0  0  0  0  0  0  0  0  0
  132.4340  122.7440   62.8360 C   0  0  0  0  0  0  0  0  0  0  0  0
  133.1560  121.5710   62.1630 C   0  0  0  0  0  0  0  0  0  0  0  0
  132.5160  120.4090   62.3150 F   0  0  0  0  0  0  0  0  0  0  0  0
  133.2650  121.7980   60.8550 F   0  0  0  0  0  0  0  0  0  0  0  0
  134.3720  121.4270   62.6900 F   0  0  0  0  0  0  0  0  0  0  0  0
  131.0970  123.1410   62.5360 C   0  0  0  0  0  0  0  0  0  0  0  0
  130.1050  122.6360   61.6190 C   0  0  0  0  0  0  0  0  0  0  0  0
  130.3330  121.5580   60.8040 N   0  0  0  0  0  0  0  0  0  0  0  0
  128.8920  123.3450   61.6370 C   0  0  0  0  0  0  0  0  0  0  0  0
  127.6890  123.1170   60.8310 C   0  0  0  0  0  0  0  0  0  0  0  0
  126.6260  122.7990   61.3660 O   0  0  0  0  0  0  0  0  0  0  0  0
  127.8420  123.2930   59.4950 N   0  0  0  0  0  0  0  0  0  0  0  0
  126.9090  123.1160   58.4570 C   0  0  0  0  0  0  0  0  0  0  0  0
  125.6440  123.6740   58.6680 C   0  0  0  0  0  0  0  0  0  0  0  0
  124.6550  123.5610   57.6950 C   0  0  0  0  0  0  0  0  0  0  0  0
  124.9320  122.8960   56.5040 C   0  0  0  0  0  0  0  0  0  0  0  0
  126.1910  122.3470   56.2750 C   0  0  0  0  0  0  0  0  0  0  0  0
  127.1830  122.4580   57.2460 C   0  0  0  0  0  0  0  0  0  0  0  0
  128.9430  124.6640   62.8030 S   0  0  0  0  0  0  0  0  0  0  0  0
  130.5830  124.2620   63.2560 C   0  0  0  0  0  0  0  0  0  0  0  0
  131.2390  124.9610   64.1810 N   0  0  0  0  0  0  0  0  0  0  0  0
  132.9298  125.0320   66.4990 H   0  0  0  0  0  0  0  0  0  0  0  0
  134.3199  125.2338   65.3794 H   0  0  0  0  0  0  0  0  0  0  0  0
  132.9849  126.4356   65.3794 H   0  0  0  0  0  0  0  0  0  0  0  0
  134.1534  123.2126   64.0764 H   0  0  0  0  0  0  0  0  0  0  0  0
  129.6200  120.8660   60.6170 H   0  0  0  0  0  0  0  0  0  0  0  0
  131.2270  121.4190   60.3520 H   0  0  0  0  0  0  0  0  0  0  0  0
  128.7480  123.6150   59.1900 H   0  0  0  0  0  0  0  0  0  0  0  0
  125.4296  124.2047   59.6074 H   0  0  0  0  0  0  0  0  0  0  0  0
  123.6590  123.9953   57.8665 H   0  0  0  0  0  0  0  0  0  0  0  0
  124.1492  122.8033   55.7367 H   0  0  0  0  0  0  0  0  0  0  0  0
  126.4016  121.8267   55.3290 H   0  0  0  0  0  0  0  0  0  0  0  0
  128.1804  122.0309   57.0651 H   0  0  0  0  0  0  0  0  0  0  0  0
  1  2  1  0
  2  3  2  0
  3  4  1  0
  4  5  1  0
  5  6  1  0
  5  7  1  0
  5  8  1  0
  4  9  2  0
  9 10  1  0
 10 11  1  0
 10 12  2  0
 12 13  1  0
 13 14  2  0
 13 15  1  0
 15 16  1  0
 16 17  2  0
 17 18  1  0
 18 19  2  0
 19 20  1  0
 20 21  2  0
 12 22  1  0
 22 23  1  0
 23 24  2  0
 24  2  1  0
 23  9  1  0
 21 16  1  0
  1 25  1  0
  1 26  1  0
  1 27  1  0
  3 28  1  0
 11 29  1  0
 11 30  1  0
 15 31  1  0
 17 32  1  0
 18 33  1  0
 19 34  1  0
 20 35  1  0
 21 36  1  0
M  END
>  <Binding energies>  (1) 
[-6.22]

>  <Ligand effiencies>  (1) 
[-0.23037037037037036]

>  <Interactions>  (1) 
["V-B:PRO:540:CD:9858, V-B:PRO:540:N:9855, V-B:TYR:531:CE2:9764, V-B:LEU:363:CD1:8159, V-B:MET:535:CE:9806, V-B:TYR:539:CD2:9845, V-B:TYR:539:C:9838, V-B:PRO:540:CB:9856, V-B:TYR:539:CE2:9847, V-B:GLU:543:CD:9879, V-A:ILE:369:CG2:3236, V-A:ARG:545:CZ:4925, V-A:SER:385:CA:3406, V-A:SER:385:CB:3408, V-A:ILE:369:CD1:3238, V-A:LEU:475:CD2:4258, V-B:PRO:540:CA:9854, H-B:ALA:541:N:9862, H-B:TYR:539:O:9839, V-A:GLY:454:CA:4048, V-B:TYR:539:CA:9840, V-A:SER:385:C:3404, V-B:TYR:531:CZ:9765, V-B:ILE:538:CA:9831"]

$$$$
4be_Grossjean_2025
     RDKit          3D

 38 40  0  0  0  0  0  0  0  0999 V2000
  127.7200  126.2350   71.1770 C   0  0  0  0  0  0  0  0  0  0  0  0
  128.6940  126.9750   70.2800 C   0  0  0  0  0  0  0  0  0  0  0  0
  129.1320  128.2660   70.5850 C   0  0  0  0  0  0  0  0  0  0  0  0
  130.0270  128.8870   69.7130 C   0  0  0  0  0  0  0  0  0  0  0  0
  130.4570  128.2110   68.5690 C   0  0  0  0  0  0  0  0  0  0  0  0
  129.9830  126.9170   68.3260 C   0  0  0  0  0  0  0  0  0  0  0  0
  130.4480  126.2940   67.1540 N   0  0  0  0  0  0  0  0  0  0  0  0
  131.7250  126.1270   66.7280 C   0  0  0  0  0  0  0  0  0  0  0  0
  132.7140  126.5180   67.3510 O   0  0  0  0  0  0  0  0  0  0  0  0
  131.8730  125.4540   65.4340 C   0  0  0  0  0  0  0  0  0  0  0  0
  133.1890  125.9030   64.3490 S   0  0  0  0  0  0  0  0  0  0  0  0
  132.6500  124.7540   63.1470 C   0  0  0  0  0  0  0  0  0  0  0  0
  133.2950  124.6030   61.9920 N   0  0  0  0  0  0  0  0  0  0  0  0
  132.7840  123.6820   61.1420 C   0  0  0  0  0  0  0  0  0  0  0  0
  133.5310  123.5270   59.8300 C   0  0  0  0  0  0  0  0  0  0  0  0
  131.6570  122.9140   61.4200 C   0  0  0  0  0  0  0  0  0  0  0  0
  130.9730  123.0670   62.6360 C   0  0  0  0  0  0  0  0  0  0  0  0
  129.7390  122.1970   62.8990 C   0  0  0  0  0  0  0  0  0  0  0  0
  128.6000  122.8950   62.9030 F   0  0  0  0  0  0  0  0  0  0  0  0
  129.6320  121.2680   61.9500 F   0  0  0  0  0  0  0  0  0  0  0  0
  129.8490  121.6040   64.0870 F   0  0  0  0  0  0  0  0  0  0  0  0
  131.4830  124.0340   63.5530 C   0  0  0  0  0  0  0  0  0  0  0  0
  131.0570  124.4660   64.8620 C   0  0  0  0  0  0  0  0  0  0  0  0
  129.9540  123.9470   65.4910 N   0  0  0  0  0  0  0  0  0  0  0  0
  129.1040  126.3050   69.1720 N   0  0  0  0  0  0  0  0  0  0  0  0
  127.9729  126.4271   72.2302 H   0  0  0  0  0  0  0  0  0  0  0  0
  126.6971  126.5858   70.9757 H   0  0  0  0  0  0  0  0  0  0  0  0
  127.7837  125.1555   70.9757 H   0  0  0  0  0  0  0  0  0  0  0  0
  128.7797  128.7808   71.4910 H   0  0  0  0  0  0  0  0  0  0  0  0
  130.3917  129.9028   69.9253 H   0  0  0  0  0  0  0  0  0  0  0  0
  131.1582  128.6889   67.8691 H   0  0  0  0  0  0  0  0  0  0  0  0
  129.7220  125.9660   66.5350 H   0  0  0  0  0  0  0  0  0  0  0  0
  134.5893  123.3074   60.0344 H   0  0  0  0  0  0  0  0  0  0  0  0
  133.0901  122.7012   59.2524 H   0  0  0  0  0  0  0  0  0  0  0  0
  133.4550  124.4600   59.2524 H   0  0  0  0  0  0  0  0  0  0  0  0
  131.2997  122.1816   60.6811 H   0  0  0  0  0  0  0  0  0  0  0  0
  129.8360  122.9550   65.6320 H   0  0  0  0  0  0  0  0  0  0  0  0
  129.2140  124.5460   65.8300 H   0  0  0  0  0  0  0  0  0  0  0  0
  1  2  1  0
  2  3  2  0
  3  4  1  0
  4  5  2  0
  5  6  1  0
  6  7  1  0
  7  8  1  0
  8  9  2  0
  8 10  1  0
 10 11  1  0
 11 12  1  0
 12 13  2  0
 13 14  1  0
 14 15  1  0
 14 16  2  0
 16 17  1  0
 17 18  1  0
 18 19  1  0
 18 20  1  0
 18 21  1  0
 17 22  2  0
 22 23  1  0
 23 24  1  0
  6 25  2  0
 25  2  1  0
 23 10  2  0
 22 12  1  0
  1 26  1  0
  1 27  1  0
  1 28  1  0
  3 29  1  0
  4 30  1  0
  5 31  1  0
  7 32  1  0
 15 33  1  0
 15 34  1  0
 15 35  1  0
 16 36  1  0
 24 37  1  0
 24 38  1  0
M  END
>  <Binding energies>  (1) 
[-6.04]

>  <Ligand effiencies>  (1) 
[-0.21571428571428572]

>  <Interactions>  (1) 
["V-B:GLU:543:CB:9877, V-A:GLU:543:CB:4905, V-B:HIS:456:CE1:9040, V-A:HIS:456:CE1:4069, V-A:GLU:543:CD:4907, V-B:TYR:539:CE2:9847, V-B:GLU:543:CD:9879, V-A:ASP:366:CG:3212, V-B:GLU:543:C:9873, V-B:GLY:544:C:9883, V-B:GLU:543:CG:9878, V-A:TYR:484:CZ:4346, H-A:ARG:545:NE:4923, V-A:ILE:369:CG2:3236, V-A:ARG:545:CZ:4925, V-A:TYR:484:CE2:4345, V-B:ALA:541:CB:9863, V-A:ILE:369:CD1:3238, V-A:LEU:475:CD2:4258, V-A:LEU:475:CD1:4257, V-B:ALA:541:CA:9861, V-A:ILE:369:CB:3235, H-A:TYR:484:OH:4347, H-B:GLU:543:OE2:9881, V-A:ILE:369:CG1:3237, V-A:GLU:543:C:4901"]

$$$$
4bf_Grossjean_2025
     RDKit          3D

 35 37  0  0  0  0  0  0  0  0999 V2000
  133.2750  125.6830   65.2690 C   0  0  0  0  0  0  0  0  0  0  0  0
  132.5100  124.7760   64.3210 C   0  0  0  0  0  0  0  0  0  0  0  0
  133.0700  123.5890   63.8570 C   0  0  0  0  0  0  0  0  0  0  0  0
  132.3540  122.7620   62.9790 C   0  0  0  0  0  0  0  0  0  0  0  0
  133.0110  121.4660   62.4930 C   0  0  0  0  0  0  0  0  0  0  0  0
  133.5540  121.5790   61.2770 F   0  0  0  0  0  0  0  0  0  0  0  0
  133.9830  121.1090   63.3320 F   0  0  0  0  0  0  0  0  0  0  0  0
  132.1020  120.4930   62.4330 F   0  0  0  0  0  0  0  0  0  0  0  0
  131.0490  123.1930   62.5930 C   0  0  0  0  0  0  0  0  0  0  0  0
  130.0430  122.6260   61.7300 C   0  0  0  0  0  0  0  0  0  0  0  0
  130.2190  121.4330   61.0740 N   0  0  0  0  0  0  0  0  0  0  0  0
  128.8740  123.3970   61.6250 C   0  0  0  0  0  0  0  0  0  0  0  0
  127.6770  123.1370   60.8180 C   0  0  0  0  0  0  0  0  0  0  0  0
  126.6230  122.7930   61.3530 O   0  0  0  0  0  0  0  0  0  0  0  0
  127.8270  123.3200   59.4830 N   0  0  0  0  0  0  0  0  0  0  0  0
  126.9030  123.1120   58.4410 C   0  0  0  0  0  0  0  0  0  0  0  0
  125.5660  123.5490   58.4390 C   0  0  0  0  0  0  0  0  0  0  0  0
  124.7470  123.2620   57.3440 C   0  0  0  0  0  0  0  0  0  0  0  0
  125.2860  122.5400   56.2780 C   0  0  0  0  0  0  0  0  0  0  0  0
  126.5700  122.1020   56.2590 N   0  0  0  0  0  0  0  0  0  0  0  0
  127.3530  122.3880   57.3310 C   0  0  0  0  0  0  0  0  0  0  0  0
  128.9890  124.8620   62.5970 S   0  0  0  0  0  0  0  0  0  0  0  0
  130.5930  124.4310   63.1410 C   0  0  0  0  0  0  0  0  0  0  0  0
  131.2770  125.2130   63.9760 N   0  0  0  0  0  0  0  0  0  0  0  0
  133.0423  125.4071   66.3081 H   0  0  0  0  0  0  0  0  0  0  0  0
  134.3549  125.5703   65.0928 H   0  0  0  0  0  0  0  0  0  0  0  0
  132.9818  126.7285   65.0928 H   0  0  0  0  0  0  0  0  0  0  0  0
  134.0801  123.2978   64.1809 H   0  0  0  0  0  0  0  0  0  0  0  0
  129.4460  120.8130   60.8770 H   0  0  0  0  0  0  0  0  0  0  0  0
  131.1330  121.1340   60.7620 H   0  0  0  0  0  0  0  0  0  0  0  0
  128.7270  123.6610   59.1790 H   0  0  0  0  0  0  0  0  0  0  0  0
  125.1674  124.1136   59.2948 H   0  0  0  0  0  0  0  0  0  0  0  0
  123.6998  123.5979   57.3225 H   0  0  0  0  0  0  0  0  0  0  0  0
  124.6414  122.3162   55.4152 H   0  0  0  0  0  0  0  0  0  0  0  0
  128.3940  122.0325   57.3267 H   0  0  0  0  0  0  0  0  0  0  0  0
  1  2  1  0
  2  3  2  0
  3  4  1  0
  4  5  1  0
  5  6  1  0
  5  7  1  0
  5  8  1  0
  4  9  2  0
  9 10  1  0
 10 11  1  0
 10 12  2  0
 12 13  1  0
 13 14  2  0
 13 15  1  0
 15 16  1  0
 16 17  2  0
 17 18  1  0
 18 19  2  0
 19 20  1  0
 20 21  2  0
 12 22  1  0
 22 23  1  0
 23 24  2  0
 24  2  1  0
 23  9  1  0
 21 16  1  0
  1 25  1  0
  1 26  1  0
  1 27  1  0
  3 28  1  0
 11 29  1  0
 11 30  1  0
 15 31  1  0
 17 32  1  0
 18 33  1  0
 19 34  1  0
 21 35  1  0
M  END
>  <Binding energies>  (1) 
[-6.57]

>  <Ligand effiencies>  (1) 
[-0.24333333333333335]

>  <Interactions>  (1) 
["V-B:PRO:540:CD:9858, V-B:PRO:540:N:9855, V-B:TYR:531:CE2:9764, H-B:TYR:539:N:9841, V-B:LEU:363:CD1:8159, V-B:MET:535:CE:9806, V-B:TYR:539:CD2:9845, V-B:TYR:539:C:9838, V-B:PRO:540:CB:9856, V-B:TYR:539:CE2:9847, V-B:TYR:539:CG:9843, V-A:ILE:369:CG2:3236, V-A:ARG:545:CZ:4925, V-A:SER:385:CA:3406, V-A:SER:385:CB:3408, V-A:ILE:369:CD1:3238, V-A:LEU:475:CD2:4258, V-B:PRO:540:CA:9854, H-B:ALA:541:N:9862, H-B:TYR:539:O:9839, V-A:GLY:454:CA:4048, V-B:TYR:539:CA:9840, V-A:SER:385:C:3404, V-B:ILE:538:CG2:9834, V-B:ILE:538:CD1:9836"]

$$$$
4bg_Grossjean_2025
     RDKit          3D

 39 41  0  0  0  0  0  0  0  0999 V2000
  133.2810  126.4940   66.8530 C   0  0  0  0  0  0  0  0  0  0  0  0
  132.7870  125.8680   65.5610 C   0  0  0  0  0  0  0  0  0  0  0  0
  131.8090  126.4890   64.7900 C   0  0  0  0  0  0  0  0  0  0  0  0
  131.3570  125.8960   63.6000 C   0  0  0  0  0  0  0  0  0  0  0  0
  130.2780  126.6170   62.7860 C   0  0  0  0  0  0  0  0  0  0  0  0
  129.8990  127.7750   63.3310 F   0  0  0  0  0  0  0  0  0  0  0  0
  130.7400  126.8840   61.5640 F   0  0  0  0  0  0  0  0  0  0  0  0
  129.1950  125.8470   62.6900 F   0  0  0  0  0  0  0  0  0  0  0  0
  131.9440  124.6490   63.2310 C   0  0  0  0  0  0  0  0  0  0  0  0
  131.7380  123.7600   62.1140 C   0  0  0  0  0  0  0  0  0  0  0  0
  130.8220  124.0120   61.1230 N   0  0  0  0  0  0  0  0  0  0  0  0
  132.5610  122.6240   62.1270 C   0  0  0  0  0  0  0  0  0  0  0  0
  132.5970  121.5120   61.1770 C   0  0  0  0  0  0  0  0  0  0  0  0
  131.6840  121.3250   60.3720 O   0  0  0  0  0  0  0  0  0  0  0  0
  133.7020  120.7390   61.2150 N   0  0  0  0  0  0  0  0  0  0  0  0
  133.9480  119.5680   60.3730 C   0  0  0  0  0  0  0  0  0  0  0  0
  132.7420  118.6470   60.2420 C   0  0  0  0  0  0  0  0  0  0  0  0
  132.5030  117.9710   59.0420 C   0  0  0  0  0  0  0  0  0  0  0  0
  131.4220  117.1000   58.9370 C   0  0  0  0  0  0  0  0  0  0  0  0
  130.5910  116.8960   60.0370 C   0  0  0  0  0  0  0  0  0  0  0  0
  130.8330  117.5540   61.2410 C   0  0  0  0  0  0  0  0  0  0  0  0
  131.9130  118.4260   61.3450 C   0  0  0  0  0  0  0  0  0  0  0  0
  133.5970  122.6000   63.5510 S   0  0  0  0  0  0  0  0  0  0  0  0
  132.9430  124.1230   64.1060 C   0  0  0  0  0  0  0  0  0  0  0  0
  133.3660  124.6900   65.2360 N   0  0  0  0  0  0  0  0  0  0  0  0
  132.8536  125.9524   67.7097 H   0  0  0  0  0  0  0  0  0  0  0  0
  134.3787  126.4352   66.8927 H   0  0  0  0  0  0  0  0  0  0  0  0
  132.9686  127.5480   66.8927 H   0  0  0  0  0  0  0  0  0  0  0  0
  131.3869  127.4514   65.1151 H   0  0  0  0  0  0  0  0  0  0  0  0
  130.6040  123.3310   60.4110 H   0  0  0  0  0  0  0  0  0  0  0  0
  130.3380  124.8980   61.0680 H   0  0  0  0  0  0  0  0  0  0  0  0
  134.3720  120.9020   61.9530 H   0  0  0  0  0  0  0  0  0  0  0  0
  134.2311  119.9153   59.3684 H   0  0  0  0  0  0  0  0  0  0  0  0
  134.7474  118.9862   60.8552 H   0  0  0  0  0  0  0  0  0  0  0  0
  133.1691  118.1273   58.1806 H   0  0  0  0  0  0  0  0  0  0  0  0
  131.2248  116.5754   57.9905 H   0  0  0  0  0  0  0  0  0  0  0  0
  129.7359  116.2090   59.9539 H   0  0  0  0  0  0  0  0  0  0  0  0
  130.1738  117.3852   62.1052 H   0  0  0  0  0  0  0  0  0  0  0  0
  132.1140  118.9413   62.2958 H   0  0  0  0  0  0  0  0  0  0  0  0
  1  2  1  0
  2  3  2  0
  3  4  1  0
  4  5  1  0
  5  6  1  0
  5  7  1  0
  5  8  1  0
  4  9  2  0
  9 10  1  0
 10 11  1  0
 10 12  2  0
 12 13  1  0
 13 14  2  0
 13 15  1  0
 15 16  1  0
 16 17  1  0
 17 18  2  0
 18 19  1  0
 19 20  2  0
 20 21  1  0
 21 22  2  0
 12 23  1  0
 23 24  1  0
 24 25  2  0
 25  2  1  0
 24  9  1  0
 22 17  1  0
  1 26  1  0
  1 27  1  0
  1 28  1  0
  3 29  1  0
 11 30  1  0
 11 31  1  0
 15 32  1  0
 16 33  1  0
 16 34  1  0
 18 35  1  0
 19 36  1  0
 20 37  1  0
 21 38  1  0
 22 39  1  0
M  END
>  <Binding energies>  (1) 
[-6.38]

>  <Ligand effiencies>  (1) 
[-0.22785714285714284]

>  <Interactions>  (1) 
["V-B:TYR:539:CD2:9845, V-A:GLU:543:CD:4907, V-B:TYR:539:CE2:9847, V-B:TYR:539:CG:9843, V-A:ASP:366:CG:3212, V-A:VAL:384:C:3396, V-A:ILE:369:CG2:3236, V-A:ARG:545:CZ:4925, V-A:SER:385:CA:3406, V-A:SER:385:CB:3408, V-A:ARG:545:CD:4922, H-A:GLY:454:N:4049, V-A:ARG:545:CG:4921, V-A:ILE:369:CD1:3238, V-A:LEU:475:CD2:4258, V-A:HIS:383:CE1:3393, V-A:PRO:482:CG:4326, V-B:TYR:539:CB:9842, H-A:TYR:484:OH:4347, V-A:PRO:482:CB:4325, V-A:LEU:373:CD2:3280, V-A:GLY:454:CA:4048, V-A:LEU:373:CG:3278, V-B:VAL:344:CG1:7971, V-A:SER:385:C:3404, H-A:SER:385:O:3405, V-A:LEU:373:CD1:3279, V-A:HIS:383:CG:3389"]

$$$$
4bh_Grossjean_2025
     RDKit          3D

 51 53  0  0  0  0  0  0  0  0999 V2000
  129.4880  123.4170   73.5680 C   0  0  0  0  0  0  0  0  0  0  0  0
  128.7530  124.6080   73.8280 O   0  0  0  0  0  0  0  0  0  0  0  0
  128.9400  125.7120   73.0170 C   0  0  0  0  0  0  0  0  0  0  0  0
  128.3570  125.8610   71.7490 C   0  0  0  0  0  0  0  0  0  0  0  0
  128.5900  127.0030   70.9820 C   0  0  0  0  0  0  0  0  0  0  0  0
  127.9120  127.1670   69.6270 C   0  0  0  0  0  0  0  0  0  0  0  0
  128.7790  126.8350   68.4960 N   0  0  0  0  0  0  0  0  0  0  0  0
  129.9110  127.4880   68.1610 C   0  0  0  0  0  0  0  0  0  0  0  0
  130.3100  128.4800   68.7740 O   0  0  0  0  0  0  0  0  0  0  0  0
  130.6250  126.9770   66.9900 C   0  0  0  0  0  0  0  0  0  0  0  0
  132.1670  126.1500   67.1890 S   0  0  0  0  0  0  0  0  0  0  0  0
  132.3260  125.9410   65.4600 C   0  0  0  0  0  0  0  0  0  0  0  0
  133.3800  125.3230   64.9290 N   0  0  0  0  0  0  0  0  0  0  0  0
  133.3900  125.2200   63.5800 C   0  0  0  0  0  0  0  0  0  0  0  0
  134.6010  124.5150   62.9960 C   0  0  0  0  0  0  0  0  0  0  0  0
  132.3820  125.7140   62.7570 C   0  0  0  0  0  0  0  0  0  0  0  0
  131.2690  126.3670   63.3110 C   0  0  0  0  0  0  0  0  0  0  0  0
  130.1830  126.8910   62.3660 C   0  0  0  0  0  0  0  0  0  0  0  0
  130.0530  128.2190   62.4020 F   0  0  0  0  0  0  0  0  0  0  0  0
  130.4750  126.5540   61.1110 F   0  0  0  0  0  0  0  0  0  0  0  0
  129.0040  126.3660   62.7000 F   0  0  0  0  0  0  0  0  0  0  0  0
  131.2280  126.4950   64.7310 C   0  0  0  0  0  0  0  0  0  0  0  0
  130.2770  127.0940   65.6350 C   0  0  0  0  0  0  0  0  0  0  0  0
  129.1320  127.7130   65.2060 N   0  0  0  0  0  0  0  0  0  0  0  0
  129.3920  128.0240   71.4970 C   0  0  0  0  0  0  0  0  0  0  0  0
  129.9950  127.8990   72.7580 C   0  0  0  0  0  0  0  0  0  0  0  0
  130.8110  128.8630   73.3230 O   0  0  0  0  0  0  0  0  0  0  0  0
  130.5110  130.2390   73.1150 C   0  0  0  0  0  0  0  0  0  0  0  0
  129.7650  126.7350   73.5060 C   0  0  0  0  0  0  0  0  0  0  0  0
  130.3340  126.6080   74.7510 O   0  0  0  0  0  0  0  0  0  0  0  0
  131.7060  126.2390   74.7240 C   0  0  0  0  0  0  0  0  0  0  0  0
  129.7768  122.9490   74.5207 H   0  0  0  0  0  0  0  0  0  0  0  0
  128.8633  122.7191   72.9912 H   0  0  0  0  0  0  0  0  0  0  0  0
  130.3919  123.6625   72.9912 H   0  0  0  0  0  0  0  0  0  0  0  0
  127.7071  125.0661   71.3543 H   0  0  0  0  0  0  0  0  0  0  0  0
  127.0319  126.5079   69.5961 H   0  0  0  0  0  0  0  0  0  0  0  0
  127.6422  128.2287   69.5268 H   0  0  0  0  0  0  0  0  0  0  0  0
  128.5570  125.9820   68.0030 H   0  0  0  0  0  0  0  0  0  0  0  0
  135.2383  124.1440   63.8122 H   0  0  0  0  0  0  0  0  0  0  0  0
  134.2692  123.6689   62.3763 H   0  0  0  0  0  0  0  0  0  0  0  0
  135.1730  125.2213   62.3763 H   0  0  0  0  0  0  0  0  0  0  0  0
  132.4576  125.5922   61.6664 H   0  0  0  0  0  0  0  0  0  0  0  0
  128.2280  127.2620   65.2590 H   0  0  0  0  0  0  0  0  0  0  0  0
  129.1530  128.6430   64.8120 H   0  0  0  0  0  0  0  0  0  0  0  0
  129.5531  128.9380   70.9065 H   0  0  0  0  0  0  0  0  0  0  0  0
  130.4015  130.7415   74.0874 H   0  0  0  0  0  0  0  0  0  0  0  0
  131.3274  130.7107   72.5484 H   0  0  0  0  0  0  0  0  0  0  0  0
  129.5723  130.3281   72.5484 H   0  0  0  0  0  0  0  0  0  0  0  0
  132.0790  126.1387   75.7539 H   0  0  0  0  0  0  0  0  0  0  0  0
  131.8172  125.2790   74.1986 H   0  0  0  0  0  0  0  0  0  0  0  0
  132.2838  127.0137   74.1986 H   0  0  0  0  0  0  0  0  0  0  0  0
  1  2  1  0
  2  3  1  0
  3  4  2  0
  4  5  1  0
  5  6  1  0
  6  7  1  0
  7  8  1  0
  8  9  2  0
  8 10  1  0
 10 11  1  0
 11 12  1  0
 12 13  2  0
 13 14  1  0
 14 15  1  0
 14 16  2  0
 16 17  1  0
 17 18  1  0
 18 19  1  0
 18 20  1  0
 18 21  1  0
 17 22  2  0
 22 23  1  0
 23 24  1  0
  5 25  2  0
 25 26  1  0
 26 27  1  0
 27 28  1  0
 26 29  2  0
 29 30  1  0
 30 31  1  0
 29  3  1  0
 23 10  2  0
 22 12  1  0
  1 32  1  0
  1 33  1  0
  1 34  1  0
  4 35  1  0
  6 36  1  0
  6 37  1  0
  7 38  1  0
 15 39  1  0
 15 40  1  0
 15 41  1  0
 16 42  1  0
 24 43  1  0
 24 44  1  0
 25 45  1  0
 28 46  1  0
 28 47  1  0
 28 48  1  0
 31 49  1  0
 31 50  1  0
 31 51  1  0
M  END
>  <Binding energies>  (1) 
[-6.11]

>  <Ligand effiencies>  (1) 
[-0.1797058823529412]

>  <Interactions>  (1) 
["V-B:GLU:543:CB:9877, V-B:HIS:456:CE1:9040, V-A:HIS:456:CE1:4069, V-A:GLU:543:CD:4907, V-B:GLU:543:CD:9879, V-A:ASP:366:CG:3212, V-B:GLU:543:C:9873, V-A:HIS:456:CD2:4067, H-B:LYS:547:NZ:9922, V-A:TYR:484:CZ:4346, V-A:ARG:545:CZ:4925, H-A:GLY:454:N:4049, H-A:ARG:545:NH2:4927, V-A:ILE:369:CD1:3238, H-A:TYR:484:OH:4347, V-A:GLY:453:C:4041, V-A:GLY:453:CA:4043, V-A:GLY:454:CA:4048, H-A:GLU:543:OE1:4908, H-A:GLU:543:OE2:4909, H-B:GLU:543:OE2:9881, V-A:GLU:543:C:4901, H-A:LYS:547:NZ:4950, V-A:HIS:456:CG:4065, V-A:HIS:456:CB:4064, H-B:GLU:543:OE1:9880, V-A:GLY:544:C:4911, V-A:GLY:544:CA:4913, V-A:LYS:547:CE:4949"]

$$$$
4bi_Grossjean_2025
     RDKit          3D

 32 34  0  0  0  0  0  0  0  0999 V2000
  133.1950  125.3870   65.2330 C   0  0  0  0  0  0  0  0  0  0  0  0
  132.4820  124.5020   64.2270 C   0  0  0  0  0  0  0  0  0  0  0  0
  133.0610  123.3200   63.7730 C   0  0  0  0  0  0  0  0  0  0  0  0
  132.3880  122.5090   62.8450 C   0  0  0  0  0  0  0  0  0  0  0  0
  133.0620  121.2130   62.3810 C   0  0  0  0  0  0  0  0  0  0  0  0
  133.6790  121.3380   61.2030 F   0  0  0  0  0  0  0  0  0  0  0  0
  133.9790  120.8370   63.2720 F   0  0  0  0  0  0  0  0  0  0  0  0
  132.1500  120.2490   62.2540 F   0  0  0  0  0  0  0  0  0  0  0  0
  131.1080  122.9530   62.3980 C   0  0  0  0  0  0  0  0  0  0  0  0
  130.1480  122.4050   61.4720 C   0  0  0  0  0  0  0  0  0  0  0  0
  130.3560  121.2300   60.7960 N   0  0  0  0  0  0  0  0  0  0  0  0
  128.9810  123.1750   61.3310 C   0  0  0  0  0  0  0  0  0  0  0  0
  127.8190  122.9240   60.4740 C   0  0  0  0  0  0  0  0  0  0  0  0
  126.7050  122.7310   60.9660 O   0  0  0  0  0  0  0  0  0  0  0  0
  128.0630  122.9420   59.1400 N   0  0  0  0  0  0  0  0  0  0  0  0
  127.1520  122.7490   58.1110 C   0  0  0  0  0  0  0  0  0  0  0  0
  125.9970  123.5150   57.9630 C   0  0  0  0  0  0  0  0  0  0  0  0
  125.3760  123.0150   56.8410 C   0  0  0  0  0  0  0  0  0  0  0  0
  126.1190  122.0000   56.3390 O   0  0  0  0  0  0  0  0  0  0  0  0
  127.2420  121.8400   57.1540 N   0  0  0  0  0  0  0  0  0  0  0  0
  129.0510  124.6260   62.3290 S   0  0  0  0  0  0  0  0  0  0  0  0
  130.6280  124.1840   62.9410 C   0  0  0  0  0  0  0  0  0  0  0  0
  131.2700  124.9490   63.8240 N   0  0  0  0  0  0  0  0  0  0  0  0
  132.9360  125.0655   66.2526 H   0  0  0  0  0  0  0  0  0  0  0  0
  134.2823  125.3050   65.0878 H   0  0  0  0  0  0  0  0  0  0  0  0
  132.8835  126.4319   65.0878 H   0  0  0  0  0  0  0  0  0  0  0  0
  134.0521  123.0195   64.1437 H   0  0  0  0  0  0  0  0  0  0  0  0
  129.6070  120.5760   60.6180 H   0  0  0  0  0  0  0  0  0  0  0  0
  131.2730  120.9740   60.4560 H   0  0  0  0  0  0  0  0  0  0  0  0
  129.0130  123.1240   58.8500 H   0  0  0  0  0  0  0  0  0  0  0  0
  125.6555  124.3408   58.6044 H   0  0  0  0  0  0  0  0  0  0  0  0
  124.4282  123.3811   56.4196 H   0  0  0  0  0  0  0  0  0  0  0  0
  1  2  1  0
  2  3  2  0
  3  4  1  0
  4  5  1  0
  5  6  1  0
  5  7  1  0
  5  8  1  0
  4  9  2  0
  9 10  1  0
 10 11  1  0
 10 12  2  0
 12 13  1  0
 13 14  2  0
 13 15  1  0
 15 16  1  0
 16 17  1  0
 17 18  2  0
 18 19  1  0
 19 20  1  0
 12 21  1  0
 21 22  1  0
 22 23  2  0
 23  2  1  0
 22  9  1  0
 20 16  2  0
  1 24  1  0
  1 25  1  0
  1 26  1  0
  3 27  1  0
 11 28  1  0
 11 29  1  0
 15 30  1  0
 17 31  1  0
 18 32  1  0
M  END
>  <Binding energies>  (1) 
[-6.26]

>  <Ligand effiencies>  (1) 
[-0.24076923076923076]

>  <Interactions>  (1) 
["V-B:PRO:540:CD:9858, V-B:PRO:540:N:9855, V-B:TYR:531:CE2:9764, H-B:TYR:539:N:9841, V-B:LEU:363:CD1:8159, V-B:TYR:539:CD2:9845, V-B:TYR:539:C:9838, V-B:PRO:540:CB:9856, V-B:TYR:539:CE2:9847, V-A:ILE:369:CG2:3236, V-A:ARG:545:CZ:4925, V-A:SER:385:CA:3406, V-A:SER:385:CB:3408, V-A:ILE:369:CD1:3238, V-A:LEU:475:CD2:4258, V-B:PRO:540:CA:9854, H-B:ALA:541:N:9862, H-B:TYR:539:O:9839, V-A:GLY:454:CA:4048, V-A:SER:385:C:3404"]

$$$$
4bj_Grossjean_2025
     RDKit          3D

 32 34  0  0  0  0  0  0  0  0999 V2000
  133.2460  125.3710   65.1540 C   0  0  0  0  0  0  0  0  0  0  0  0
  132.5040  124.4890   64.1670 C   0  0  0  0  0  0  0  0  0  0  0  0
  133.0660  123.3040   63.6990 C   0  0  0  0  0  0  0  0  0  0  0  0
  132.3710  122.5020   62.7810 C   0  0  0  0  0  0  0  0  0  0  0  0
  133.0320  121.2080   62.2920 C   0  0  0  0  0  0  0  0  0  0  0  0
  133.5780  121.3260   61.0800 F   0  0  0  0  0  0  0  0  0  0  0  0
  134.0000  120.8500   63.1350 F   0  0  0  0  0  0  0  0  0  0  0  0
  132.1220  120.2350   62.2270 F   0  0  0  0  0  0  0  0  0  0  0  0
  131.0840  122.9540   62.3630 C   0  0  0  0  0  0  0  0  0  0  0  0
  130.1020  122.4150   61.4530 C   0  0  0  0  0  0  0  0  0  0  0  0
  130.2910  121.2420   60.7690 N   0  0  0  0  0  0  0  0  0  0  0  0
  128.9380  123.1930   61.3390 C   0  0  0  0  0  0  0  0  0  0  0  0
  127.7570  122.9510   60.5080 C   0  0  0  0  0  0  0  0  0  0  0  0
  126.6520  122.7600   61.0210 O   0  0  0  0  0  0  0  0  0  0  0  0
  127.9720  122.9700   59.1690 N   0  0  0  0  0  0  0  0  0  0  0  0
  127.0280  122.7820   58.1700 C   0  0  0  0  0  0  0  0  0  0  0  0
  127.1130  122.0060   57.1120 N   0  0  0  0  0  0  0  0  0  0  0  0
  126.0230  122.0680   56.3740 C   0  0  0  0  0  0  0  0  0  0  0  0
  125.0180  122.9140   56.8320 C   0  0  0  0  0  0  0  0  0  0  0  0
  125.5410  123.6660   58.3090 S   0  0  0  0  0  0  0  0  0  0  0  0
  129.0350  124.6370   62.3440 S   0  0  0  0  0  0  0  0  0  0  0  0
  130.6210  124.1850   62.9220 C   0  0  0  0  0  0  0  0  0  0  0  0
  131.2860  124.9440   63.7910 N   0  0  0  0  0  0  0  0  0  0  0  0
  132.9910  125.0679   66.1802 H   0  0  0  0  0  0  0  0  0  0  0  0
  134.3297  125.2640   64.9986 H   0  0  0  0  0  0  0  0  0  0  0  0
  132.9551  126.4204   64.9986 H   0  0  0  0  0  0  0  0  0  0  0  0
  134.0611  122.9947   64.0512 H   0  0  0  0  0  0  0  0  0  0  0  0
  129.5460  120.5720   60.6390 H   0  0  0  0  0  0  0  0  0  0  0  0
  131.1900  121.0040   60.3730 H   0  0  0  0  0  0  0  0  0  0  0  0
  128.9150  123.1450   58.8540 H   0  0  0  0  0  0  0  0  0  0  0  0
  125.9139  121.4839   55.4483 H   0  0  0  0  0  0  0  0  0  0  0  0
  124.0488  123.0801   56.3389 H   0  0  0  0  0  0  0  0  0  0  0  0
  1  2  1  0
  2  3  2  0
  3  4  1  0
  4  5  1  0
  5  6  1  0
  5  7  1  0
  5  8  1  0
  4  9  2  0
  9 10  1  0
 10 11  1  0
 10 12  2  0
 12 13  1  0
 13 14  2  0
 13 15  1  0
 15 16  1  0
 16 17  2  0
 17 18  1  0
 18 19  2  0
 19 20  1  0
 12 21  1  0
 21 22  1  0
 22 23  2  0
 23  2  1  0
 22  9  1  0
 20 16  1  0
  1 24  1  0
  1 25  1  0
  1 26  1  0
  3 27  1  0
 11 28  1  0
 11 29  1  0
 15 30  1  0
 18 31  1  0
 19 32  1  0
M  END
>  <Binding energies>  (1) 
[-5.96]

>  <Ligand effiencies>  (1) 
[-0.22923076923076924]

>  <Interactions>  (1) 
["V-B:PRO:540:CD:9858, V-B:PRO:540:N:9855, V-B:TYR:531:CE2:9764, H-B:TYR:539:N:9841, V-B:LEU:363:CD1:8159, V-B:TYR:539:CD2:9845, V-B:TYR:539:C:9838, V-B:PRO:540:CB:9856, V-B:TYR:539:CE2:9847, V-A:ILE:369:CG2:3236, V-A:ARG:545:CZ:4925, V-A:SER:385:CA:3406, V-A:SER:385:CB:3408, V-A:ILE:369:CD1:3238, V-A:LEU:475:CD2:4258, V-B:PRO:540:CA:9854, H-B:ALA:541:N:9862, H-B:TYR:539:O:9839, V-A:GLY:454:CA:4048, V-A:SER:385:C:3404, V-B:ILE:538:CA:9831, V-B:ILE:538:C:9829, V-B:ILE:538:CG2:9834"]

$$$$
4bk_Grossjean_2025
     RDKit          3D

 50 51  0  0  0  0  0  0  0  0999 V2000
  131.6570  125.0270   59.2000 C   0  0  0  0  0  0  0  0  0  0  0  0
  130.5500  124.4640   58.5130 O   0  0  0  0  0  0  0  0  0  0  0  0
  129.9590  125.3500   57.5710 C   0  0  0  0  0  0  0  0  0  0  0  0
  128.4860  124.9740   57.3690 C   0  0  0  0  0  0  0  0  0  0  0  0
  128.2500  123.6810   57.9080 O   0  0  0  0  0  0  0  0  0  0  0  0
  127.7390  122.7500   56.9640 C   0  0  0  0  0  0  0  0  0  0  0  0
  126.2250  122.5990   57.1630 C   0  0  0  0  0  0  0  0  0  0  0  0
  125.6590  123.8730   57.4370 O   0  0  0  0  0  0  0  0  0  0  0  0
  124.3990  123.8130   58.0950 C   0  0  0  0  0  0  0  0  0  0  0  0
  124.6110  123.9230   59.6140 C   0  0  0  0  0  0  0  0  0  0  0  0
  125.9440  123.5070   60.0530 N   0  0  0  0  0  0  0  0  0  0  0  0
  126.2750  123.1550   61.3130 C   0  0  0  0  0  0  0  0  0  0  0  0
  125.4530  123.1330   62.2300 O   0  0  0  0  0  0  0  0  0  0  0  0
  127.6750  122.7870   61.5320 C   0  0  0  0  0  0  0  0  0  0  0  0
  128.7050  122.3750   60.1630 S   0  0  0  0  0  0  0  0  0  0  0  0
  130.0770  122.1220   61.2150 C   0  0  0  0  0  0  0  0  0  0  0  0
  131.2650  121.7580   60.7340 N   0  0  0  0  0  0  0  0  0  0  0  0
  132.2510  121.5940   61.6460 C   0  0  0  0  0  0  0  0  0  0  0  0
  133.5960  121.1810   61.0750 C   0  0  0  0  0  0  0  0  0  0  0  0
  132.0790  121.7830   63.0150 C   0  0  0  0  0  0  0  0  0  0  0  0
  130.8300  122.1650   63.5290 C   0  0  0  0  0  0  0  0  0  0  0  0
  130.6880  122.3580   65.0420 C   0  0  0  0  0  0  0  0  0  0  0  0
  130.5750  123.6390   65.3970 F   0  0  0  0  0  0  0  0  0  0  0  0
  129.5990  121.7250   65.4770 F   0  0  0  0  0  0  0  0  0  0  0  0
  131.7600  121.8660   65.6620 F   0  0  0  0  0  0  0  0  0  0  0  0
  129.7680  122.3480   62.5930 C   0  0  0  0  0  0  0  0  0  0  0  0
  128.3860  122.7320   62.7400 C   0  0  0  0  0  0  0  0  0  0  0  0
  127.8190  123.0140   63.9570 N   0  0  0  0  0  0  0  0  0  0  0  0
  131.4955  124.9449   60.2850 H   0  0  0  0  0  0  0  0  0  0  0  0
  132.5739  124.4857   58.9237 H   0  0  0  0  0  0  0  0  0  0  0  0
  131.7596  126.0868   58.9237 H   0  0  0  0  0  0  0  0  0  0  0  0
  130.0258  126.3818   57.9463 H   0  0  0  0  0  0  0  0  0  0  0  0
  130.4916  125.2733   56.6116 H   0  0  0  0  0  0  0  0  0  0  0  0
  127.8465  125.7075   57.8818 H   0  0  0  0  0  0  0  0  0  0  0  0
  128.2518  124.9720   56.2942 H   0  0  0  0  0  0  0  0  0  0  0  0
  127.9406  123.1126   55.9452 H   0  0  0  0  0  0  0  0  0  0  0  0
  128.2271  121.7750   57.1093 H   0  0  0  0  0  0  0  0  0  0  0  0
  125.7736  122.1850   56.2493 H   0  0  0  0  0  0  0  0  0  0  0  0
  126.0296  121.9196   58.0057 H   0  0  0  0  0  0  0  0  0  0  0  0
  123.7656  124.6442   57.7516 H   0  0  0  0  0  0  0  0  0  0  0  0
  123.9070  122.8575   57.8607 H   0  0  0  0  0  0  0  0  0  0  0  0
  124.4588  124.9711   59.9110 H   0  0  0  0  0  0  0  0  0  0  0  0
  123.8888  123.2432   60.0898 H   0  0  0  0  0  0  0  0  0  0  0  0
  126.6640  123.5030   59.3470 H   0  0  0  0  0  0  0  0  0  0  0  0
  134.2936  120.9668   61.8981 H   0  0  0  0  0  0  0  0  0  0  0  0
  133.4707  120.2799   60.4566 H   0  0  0  0  0  0  0  0  0  0  0  0
  133.9980  121.9971   60.4566 H   0  0  0  0  0  0  0  0  0  0  0  0
  132.9278  121.6319   63.6982 H   0  0  0  0  0  0  0  0  0  0  0  0
  126.8370  122.8600   64.1380 H   0  0  0  0  0  0  0  0  0  0  0  0
  128.3700  123.3820   64.7200 H   0  0  0  0  0  0  0  0  0  0  0  0
  1  2  1  0
  2  3  1  0
  3  4  1  0
  4  5  1  0
  5  6  1  0
  6  7  1  0
  7  8  1  0
  8  9  1  0
  9 10  1  0
 10 11  1  0
 11 12  1  0
 12 13  2  0
 12 14  1  0
 14 15  1  0
 15 16  1  0
 16 17  2  0
 17 18  1  0
 18 19  1  0
 18 20  2  0
 20 21  1  0
 21 22  1  0
 22 23  1  0
 22 24  1  0
 22 25  1  0
 21 26  2  0
 26 27  1  0
 27 28  1  0
 27 14  2  0
 26 16  1  0
  1 29  1  0
  1 30  1  0
  1 31  1  0
  3 32  1  0
  3 33  1  0
  4 34  1  0
  4 35  1  0
  6 36  1  0
  6 37  1  0
  7 38  1  0
  7 39  1  0
  9 40  1  0
  9 41  1  0
 10 42  1  0
 10 43  1  0
 11 44  1  0
 19 45  1  0
 19 46  1  0
 19 47  1  0
 20 48  1  0
 28 49  1  0
 28 50  1  0
M  END
>  <Binding energies>  (1) 
[-4.46]

>  <Ligand effiencies>  (1) 
[-0.14387096774193547]

>  <Interactions>  (1) 
["V-B:PRO:540:CD:9858, V-B:PRO:540:N:9855, V-B:LEU:363:CD1:8159, V-B:MET:535:CE:9806, V-B:TYR:539:CD2:9845, V-B:TYR:539:CZ:9848, V-B:TYR:539:C:9838, V-B:TYR:539:CE1:9846, V-B:TYR:539:CD1:9844, V-B:PRO:540:CB:9856, V-B:TYR:539:CE2:9847, V-B:GLU:543:CD:9879, V-B:TYR:539:CG:9843, V-A:ASP:366:CG:3212, H-B:TYR:531:OH:9766, V-B:GLU:543:CG:9878, V-A:TYR:484:CZ:4346, V-A:LEU:475:CG:4256, V-A:ILE:369:CG2:3236, V-B:ALA:541:C:9859, V-A:TYR:484:CE2:4345, V-B:ALA:541:CB:9863, V-A:ILE:369:CD1:3238, V-A:LEU:475:CD2:4258, V-A:LEU:475:CD1:4257, V-B:ALA:541:CA:9861, H-B:TYR:539:OH:9849, V-B:PRO:540:CA:9854, H-B:ALA:541:N:9862, V-A:GLY:454:CA:4048, H-B:GLU:543:OE2:9881, V-B:PRO:540:C:9852, H-B:GLU:543:OE1:9880, H-B:ALA:541:O:9860, V-A:TYR:484:CE1:4344, V-A:LEU:475:CB:4255"]

$$$$
4ca_Grossjean_2025
     RDKit          3D

 52 55  0  0  0  0  0  0  0  0999 V2000
  127.9630  127.1020   72.7460 C   0  0  0  0  0  0  0  0  0  0  0  0
  129.4300  127.1080   72.3030 C   0  0  0  0  0  0  0  0  0  0  0  0
  129.8150  128.4330   71.9600 O   0  0  0  0  0  0  0  0  0  0  0  0
  129.5340  128.9510   70.7360 C   0  0  0  0  0  0  0  0  0  0  0  0
  129.1060  130.0970   70.5650 O   0  0  0  0  0  0  0  0  0  0  0  0
  129.7990  127.9920   69.6120 C   0  0  0  0  0  0  0  0  0  0  0  0
  130.9220  128.1870   68.7970 C   0  0  0  0  0  0  0  0  0  0  0  0
  131.1960  127.3120   67.7490 C   0  0  0  0  0  0  0  0  0  0  0  0
  130.3530  126.2310   67.4900 C   0  0  0  0  0  0  0  0  0  0  0  0
  130.7300  125.4060   66.4130 N   0  0  0  0  0  0  0  0  0  0  0  0
  131.7940  125.4920   65.5780 C   0  0  0  0  0  0  0  0  0  0  0  0
  132.6800  126.3420   65.6730 O   0  0  0  0  0  0  0  0  0  0  0  0
  131.8490  124.4730   64.5270 C   0  0  0  0  0  0  0  0  0  0  0  0
  131.1970  122.8630   64.8200 S   0  0  0  0  0  0  0  0  0  0  0  0
  131.5910  122.3590   63.1940 C   0  0  0  0  0  0  0  0  0  0  0  0
  131.3160  121.1300   62.7630 N   0  0  0  0  0  0  0  0  0  0  0  0
  131.6460  120.8330   61.4800 C   0  0  0  0  0  0  0  0  0  0  0  0
  131.3150  119.4430   61.0200 C   0  0  0  0  0  0  0  0  0  0  0  0
  130.1980  118.7630   61.5320 C   0  0  0  0  0  0  0  0  0  0  0  0
  129.8880  117.4710   61.1150 C   0  0  0  0  0  0  0  0  0  0  0  0
  130.6960  116.8370   60.1760 C   0  0  0  0  0  0  0  0  0  0  0  0
  131.8100  117.4860   59.6540 C   0  0  0  0  0  0  0  0  0  0  0  0
  132.1160  118.7780   60.0750 C   0  0  0  0  0  0  0  0  0  0  0  0
  132.2700  121.7650   60.6430 C   0  0  0  0  0  0  0  0  0  0  0  0
  132.5680  123.0610   61.0890 C   0  0  0  0  0  0  0  0  0  0  0  0
  133.2500  124.0320   60.1180 C   0  0  0  0  0  0  0  0  0  0  0  0
  134.3770  124.5540   60.6050 F   0  0  0  0  0  0  0  0  0  0  0  0
  133.5590  123.3980   58.9880 F   0  0  0  0  0  0  0  0  0  0  0  0
  132.4290  125.0470   59.8440 F   0  0  0  0  0  0  0  0  0  0  0  0
  132.2110  123.3890   62.4280 C   0  0  0  0  0  0  0  0  0  0  0  0
  132.3440  124.5890   63.2170 C   0  0  0  0  0  0  0  0  0  0  0  0
  132.9060  125.7390   62.7260 N   0  0  0  0  0  0  0  0  0  0  0  0
  129.2300  126.0250   68.3040 C   0  0  0  0  0  0  0  0  0  0  0  0
  128.9570  126.8990   69.3530 C   0  0  0  0  0  0  0  0  0  0  0  0
  127.9118  127.1018   73.8448 H   0  0  0  0  0  0  0  0  0  0  0  0
  127.4584  127.9981   72.3556 H   0  0  0  0  0  0  0  0  0  0  0  0
  127.4658  126.2018   72.3556 H   0  0  0  0  0  0  0  0  0  0  0  0
  130.0630  126.7433   73.1253 H   0  0  0  0  0  0  0  0  0  0  0  0
  129.5521  126.4522   71.4284 H   0  0  0  0  0  0  0  0  0  0  0  0
  131.5925  129.0381   68.9866 H   0  0  0  0  0  0  0  0  0  0  0  0
  132.0840  127.4744   67.1205 H   0  0  0  0  0  0  0  0  0  0  0  0
  130.1100  124.6250   66.2560 H   0  0  0  0  0  0  0  0  0  0  0  0
  129.5569  119.2595   62.2753 H   0  0  0  0  0  0  0  0  0  0  0  0
  129.0084  116.9539   61.5260 H   0  0  0  0  0  0  0  0  0  0  0  0
  130.4523  115.8168   59.8447 H   0  0  0  0  0  0  0  0  0  0  0  0
  132.4464  116.9813   58.9122 H   0  0  0  0  0  0  0  0  0  0  0  0
  132.9992  119.2866   59.6612 H   0  0  0  0  0  0  0  0  0  0  0  0
  132.5320  121.4753   59.6147 H   0  0  0  0  0  0  0  0  0  0  0  0
  133.9060  125.8420   62.6180 H   0  0  0  0  0  0  0  0  0  0  0  0
  132.3370  126.5290   62.4500 H   0  0  0  0  0  0  0  0  0  0  0  0
  128.5633  125.1711   68.1135 H   0  0  0  0  0  0  0  0  0  0  0  0
  128.0726  126.7313   69.9852 H   0  0  0  0  0  0  0  0  0  0  0  0
  1  2  1  0
  2  3  1  0
  3  4  1  0
  4  5  2  0
  4  6  1  0
  6  7  2  0
  7  8  1  0
  8  9  2  0
  9 10  1  0
 10 11  1  0
 11 12  2  0
 11 13  1  0
 13 14  1  0
 14 15  1  0
 15 16  2  0
 16 17  1  0
 17 18  1  0
 18 19  2  0
 19 20  1  0
 20 21  2  0
 21 22  1  0
 22 23  2  0
 17 24  2  0
 24 25  1  0
 25 26  1  0
 26 27  1  0
 26 28  1  0
 26 29  1  0
 25 30  2  0
 30 31  1  0
 31 32  1  0
  9 33  1  0
 33 34  2  0
 34  6  1  0
 31 13  2  0
 30 15  1  0
 23 18  1  0
  1 35  1  0
  1 36  1  0
  1 37  1  0
  2 38  1  0
  2 39  1  0
  7 40  1  0
  8 41  1  0
 10 42  1  0
 19 43  1  0
 20 44  1  0
 21 45  1  0
 22 46  1  0
 23 47  1  0
 24 48  1  0
 32 49  1  0
 32 50  1  0
 33 51  1  0
 34 52  1  0
M  END
>  <Binding energies>  (1) 
[-7.48]

>  <Ligand effiencies>  (1) 
[-0.20216216216216218]

>  <Interactions>  (1) 
["V-B:GLU:543:CB:9877, V-A:GLU:543:CB:4905, V-B:TYR:539:CD2:9845, V-B:TYR:539:CZ:9848, V-B:HIS:456:CE1:9040, V-A:HIS:456:CE1:4069, V-B:TYR:539:C:9838, V-A:GLU:543:CD:4907, V-B:TYR:539:CE2:9847, V-B:GLU:543:CD:9879, V-B:TYR:539:CG:9843, V-A:ASP:366:CG:3212, V-A:ASP:366:CA:3209, V-A:ASP:366:CB:3211, V-B:GLU:543:CG:9878, V-A:TYR:484:CZ:4346, H-A:ARG:545:NE:4923, V-A:ILE:369:CG2:3236, V-A:ARG:545:CZ:4925, V-A:TYR:484:CE2:4345, V-B:ALA:541:CB:9863, H-A:ARG:545:NH2:4927, V-A:ILE:369:CD1:3238, V-A:LEU:475:CD2:4258, V-A:HIS:383:CE1:3393, V-A:PRO:482:CG:4326, V-B:TYR:539:CB:9842, V-A:ILE:369:CB:3235, H-A:TYR:484:OH:4347, V-A:PRO:482:CB:4325, H-A:ASP:366:OD1:3213, H-A:ASP:366:OD2:3214, V-B:VAL:344:CG1:7971, H-B:GLU:543:OE2:9881, V-A:ILE:369:CG1:3237, V-A:GLU:543:C:4901"]

$$$$
4cb_Grossjean_2025
     RDKit          3D

 49 52  0  0  0  0  0  0  0  0999 V2000
  130.4850  128.9640   72.5650 C   0  0  0  0  0  0  0  0  0  0  0  0
  129.3770  128.5640   71.7700 O   0  0  0  0  0  0  0  0  0  0  0  0
  129.2100  129.0470   70.5120 C   0  0  0  0  0  0  0  0  0  0  0  0
  128.8180  130.1920   70.2680 O   0  0  0  0  0  0  0  0  0  0  0  0
  129.5490  128.0470   69.4420 C   0  0  0  0  0  0  0  0  0  0  0  0
  130.2350  128.4760   68.2990 C   0  0  0  0  0  0  0  0  0  0  0  0
  130.5710  127.5730   67.2940 C   0  0  0  0  0  0  0  0  0  0  0  0
  130.2230  126.2270   67.4080 C   0  0  0  0  0  0  0  0  0  0  0  0
  130.6240  125.4000   66.3410 N   0  0  0  0  0  0  0  0  0  0  0  0
  131.7300  125.4590   65.5600 C   0  0  0  0  0  0  0  0  0  0  0  0
  132.6390  126.2770   65.7080 O   0  0  0  0  0  0  0  0  0  0  0  0
  131.8030  124.4480   64.5020 C   0  0  0  0  0  0  0  0  0  0  0  0
  131.1660  122.8280   64.7780 S   0  0  0  0  0  0  0  0  0  0  0  0
  131.5770  122.3390   63.1500 C   0  0  0  0  0  0  0  0  0  0  0  0
  131.3200  121.1110   62.7080 N   0  0  0  0  0  0  0  0  0  0  0  0
  131.6660  120.8280   61.4250 C   0  0  0  0  0  0  0  0  0  0  0  0
  131.3590  119.4360   60.9530 C   0  0  0  0  0  0  0  0  0  0  0  0
  130.2600  118.7300   61.4680 C   0  0  0  0  0  0  0  0  0  0  0  0
  129.9720  117.4370   61.0370 C   0  0  0  0  0  0  0  0  0  0  0  0
  130.7810  116.8310   60.0810 C   0  0  0  0  0  0  0  0  0  0  0  0
  131.8780  117.5080   59.5570 C   0  0  0  0  0  0  0  0  0  0  0  0
  132.1630  118.7980   59.9920 C   0  0  0  0  0  0  0  0  0  0  0  0
  132.2880  121.7730   60.6020 C   0  0  0  0  0  0  0  0  0  0  0  0
  132.5660  123.0690   61.0600 C   0  0  0  0  0  0  0  0  0  0  0  0
  133.2470  124.0560   60.1030 C   0  0  0  0  0  0  0  0  0  0  0  0
  134.3630  124.5870   60.6080 F   0  0  0  0  0  0  0  0  0  0  0  0
  133.5790  123.4310   58.9740 F   0  0  0  0  0  0  0  0  0  0  0  0
  132.4180  125.0610   59.8250 F   0  0  0  0  0  0  0  0  0  0  0  0
  132.1920  123.3820   62.3980 C   0  0  0  0  0  0  0  0  0  0  0  0
  132.3040  124.5800   63.1960 C   0  0  0  0  0  0  0  0  0  0  0  0
  132.8540  125.7410   62.7160 N   0  0  0  0  0  0  0  0  0  0  0  0
  129.5380  125.7880   68.5510 C   0  0  0  0  0  0  0  0  0  0  0  0
  129.2050  126.6920   69.5550 C   0  0  0  0  0  0  0  0  0  0  0  0
  130.2252  128.8702   73.6298 H   0  0  0  0  0  0  0  0  0  0  0  0
  131.3487  128.3209   72.3403 H   0  0  0  0  0  0  0  0  0  0  0  0
  130.7387  130.0105   72.3403 H   0  0  0  0  0  0  0  0  0  0  0  0
  130.5108  129.5357   68.1943 H   0  0  0  0  0  0  0  0  0  0  0  0
  131.1145  127.9233   66.4041 H   0  0  0  0  0  0  0  0  0  0  0  0
  129.9850  124.6440   66.1430 H   0  0  0  0  0  0  0  0  0  0  0  0
  129.6167  119.2051   62.2233 H   0  0  0  0  0  0  0  0  0  0  0  0
  129.1078  116.8969   61.4511 H   0  0  0  0  0  0  0  0  0  0  0  0
  130.5522  115.8113   59.7376 H   0  0  0  0  0  0  0  0  0  0  0  0
  132.5166  117.0254   58.8025 H   0  0  0  0  0  0  0  0  0  0  0  0
  133.0327  119.3284   59.5769 H   0  0  0  0  0  0  0  0  0  0  0  0
  132.5647  121.4938   59.5746 H   0  0  0  0  0  0  0  0  0  0  0  0
  132.2820  126.5090   62.3930 H   0  0  0  0  0  0  0  0  0  0  0  0
  133.8550  125.8700   62.6730 H   0  0  0  0  0  0  0  0  0  0  0  0
  129.2638  124.7277   68.6536 H   0  0  0  0  0  0  0  0  0  0  0  0
  128.6661  126.3401   70.4470 H   0  0  0  0  0  0  0  0  0  0  0  0
  1  2  1  0
  2  3  1  0
  3  4  2  0
  3  5  1  0
  5  6  2  0
  6  7  1  0
  7  8  2  0
  8  9  1  0
  9 10  1  0
 10 11  2  0
 10 12  1  0
 12 13  1  0
 13 14  1  0
 14 15  2  0
 15 16  1  0
 16 17  1  0
 17 18  2  0
 18 19  1  0
 19 20  2  0
 20 21  1  0
 21 22  2  0
 16 23  2  0
 23 24  1  0
 24 25  1  0
 25 26  1  0
 25 27  1  0
 25 28  1  0
 24 29  2  0
 29 30  1  0
 30 31  1  0
  8 32  1  0
 32 33  2  0
 33  5  1  0
 30 12  2  0
 29 14  1  0
 22 17  1  0
  1 34  1  0
  1 35  1  0
  1 36  1  0
  6 37  1  0
  7 38  1  0
  9 39  1  0
 18 40  1  0
 19 41  1  0
 20 42  1  0
 21 43  1  0
 22 44  1  0
 23 45  1  0
 31 46  1  0
 31 47  1  0
 32 48  1  0
 33 49  1  0
M  END
>  <Binding energies>  (1) 
[-7.38]

>  <Ligand effiencies>  (1) 
[-0.205]

>  <Interactions>  (1) 
["V-B:GLU:543:CB:9877, V-A:GLU:543:CB:4905, V-B:TYR:539:CD2:9845, V-B:TYR:539:CZ:9848, V-B:HIS:456:CE1:9040, V-A:HIS:456:CE1:4069, V-B:TYR:539:C:9838, V-A:GLU:543:CD:4907, V-A:GLU:543:CG:4906, V-B:TYR:539:CE2:9847, V-B:GLU:543:CD:9879, V-B:TYR:539:CG:9843, V-A:ASP:366:CG:3212, V-A:ASP:366:CA:3209, V-A:ASP:366:CB:3211, V-A:TYR:484:CZ:4346, H-A:ARG:545:NE:4923, V-A:ILE:369:CG2:3236, V-A:ARG:545:CZ:4925, V-A:TYR:484:CE2:4345, V-B:ALA:541:CB:9863, H-A:ARG:545:NH2:4927, V-A:ILE:369:CD1:3238, V-A:LEU:475:CD2:4258, V-A:HIS:383:CE1:3393, V-A:PRO:482:CG:4326, V-B:TYR:539:CB:9842, V-A:ILE:369:CB:3235, H-A:TYR:484:OH:4347, V-A:PRO:482:CB:4325, H-A:ASP:366:OD1:3213, H-A:ASP:366:OD2:3214, V-B:VAL:344:CG1:7971, H-B:GLU:543:OE2:9881, V-A:ILE:369:CG1:3237, V-A:GLY:544:C:4911, V-A:GLY:544:CA:4913"]

$$$$
4cc_Grossjean_2025
     RDKit          3D

 47 50  0  0  0  0  0  0  0  0999 V2000
  129.7240  128.7500   71.9050 C   0  0  0  0  0  0  0  0  0  0  0  0
  128.8000  128.3990   70.8810 O   0  0  0  0  0  0  0  0  0  0  0  0
  129.2590  127.7520   69.7500 C   0  0  0  0  0  0  0  0  0  0  0  0
  129.0790  126.3700   69.7070 C   0  0  0  0  0  0  0  0  0  0  0  0
  129.5080  125.6320   68.6070 C   0  0  0  0  0  0  0  0  0  0  0  0
  130.1360  126.2690   67.5360 C   0  0  0  0  0  0  0  0  0  0  0  0
  130.5210  125.4450   66.4620 N   0  0  0  0  0  0  0  0  0  0  0  0
  131.5840  125.5620   65.6300 C   0  0  0  0  0  0  0  0  0  0  0  0
  132.4400  126.4420   65.7270 O   0  0  0  0  0  0  0  0  0  0  0  0
  131.6690  124.5510   64.5720 C   0  0  0  0  0  0  0  0  0  0  0  0
  131.0230  122.9320   64.8360 S   0  0  0  0  0  0  0  0  0  0  0  0
  131.4910  122.4350   63.2270 C   0  0  0  0  0  0  0  0  0  0  0  0
  131.2510  121.2030   62.7840 N   0  0  0  0  0  0  0  0  0  0  0  0
  131.6420  120.9120   61.5160 C   0  0  0  0  0  0  0  0  0  0  0  0
  131.3610  119.5140   61.0450 C   0  0  0  0  0  0  0  0  0  0  0  0
  130.2420  118.8090   61.5150 C   0  0  0  0  0  0  0  0  0  0  0  0
  129.9760  117.5120   61.0840 C   0  0  0  0  0  0  0  0  0  0  0  0
  130.8300  116.8990   60.1730 C   0  0  0  0  0  0  0  0  0  0  0  0
  131.9480  117.5740   59.6940 C   0  0  0  0  0  0  0  0  0  0  0  0
  132.2100  118.8700   60.1290 C   0  0  0  0  0  0  0  0  0  0  0  0
  132.2860  121.8530   60.7070 C   0  0  0  0  0  0  0  0  0  0  0  0
  132.5450  123.1540   61.1650 C   0  0  0  0  0  0  0  0  0  0  0  0
  133.2490  124.1370   60.2220 C   0  0  0  0  0  0  0  0  0  0  0  0
  132.5070  125.2070   59.9300 F   0  0  0  0  0  0  0  0  0  0  0  0
  134.3740  124.5750   60.7860 F   0  0  0  0  0  0  0  0  0  0  0  0
  133.5420  123.5280   59.0730 F   0  0  0  0  0  0  0  0  0  0  0  0
  132.1310  123.4740   62.4900 C   0  0  0  0  0  0  0  0  0  0  0  0
  132.2230  124.6720   63.2870 C   0  0  0  0  0  0  0  0  0  0  0  0
  132.8000  125.8280   62.8240 N   0  0  0  0  0  0  0  0  0  0  0  0
  130.3100  127.6610   67.5660 C   0  0  0  0  0  0  0  0  0  0  0  0
  129.8780  128.3940   68.6670 C   0  0  0  0  0  0  0  0  0  0  0  0
  129.2645  128.5754   72.8891 H   0  0  0  0  0  0  0  0  0  0  0  0
  130.6298  128.1333   71.8087 H   0  0  0  0  0  0  0  0  0  0  0  0
  129.9919  129.8125   71.8087 H   0  0  0  0  0  0  0  0  0  0  0  0
  128.5932  125.8577   70.5505 H   0  0  0  0  0  0  0  0  0  0  0  0
  129.3514  124.5435   68.5822 H   0  0  0  0  0  0  0  0  0  0  0  0
  129.9280  124.6410   66.3190 H   0  0  0  0  0  0  0  0  0  0  0  0
  129.5639  119.2891   62.2358 H   0  0  0  0  0  0  0  0  0  0  0  0
  129.0941  116.9743   61.4624 H   0  0  0  0  0  0  0  0  0  0  0  0
  130.6202  115.8752   59.8296 H   0  0  0  0  0  0  0  0  0  0  0  0
  132.6220  117.0858   58.9747 H   0  0  0  0  0  0  0  0  0  0  0  0
  133.0966  119.3990   59.7493 H   0  0  0  0  0  0  0  0  0  0  0  0
  132.5960  121.5678   59.6908 H   0  0  0  0  0  0  0  0  0  0  0  0
  132.2640  126.6720   62.6820 H   0  0  0  0  0  0  0  0  0  0  0  0
  133.7860  125.8710   62.6070 H   0  0  0  0  0  0  0  0  0  0  0  0
  130.7884  128.1733   66.7183 H   0  0  0  0  0  0  0  0  0  0  0  0
  130.0228  129.4842   68.6884 H   0  0  0  0  0  0  0  0  0  0  0  0
  1  2  1  0
  2  3  1  0
  3  4  2  0
  4  5  1  0
  5  6  2  0
  6  7  1  0
  7  8  1  0
  8  9  2  0
  8 10  1  0
 10 11  1  0
 11 12  1  0
 12 13  2  0
 13 14  1  0
 14 15  1  0
 15 16  2  0
 16 17  1  0
 17 18  2  0
 18 19  1  0
 19 20  2  0
 14 21  2  0
 21 22  1  0
 22 23  1  0
 23 24  1  0
 23 25  1  0
 23 26  1  0
 22 27  2  0
 27 28  1  0
 28 29  1  0
  6 30  1  0
 30 31  2  0
 31  3  1  0
 28 10  2  0
 27 12  1  0
 20 15  1  0
  1 32  1  0
  1 33  1  0
  1 34  1  0
  4 35  1  0
  5 36  1  0
  7 37  1  0
 16 38  1  0
 17 39  1  0
 18 40  1  0
 19 41  1  0
 20 42  1  0
 21 43  1  0
 29 44  1  0
 29 45  1  0
 30 46  1  0
 31 47  1  0
M  END
>  <Binding energies>  (1) 
[-7.66]

>  <Ligand effiencies>  (1) 
[-0.22529411764705884]

>  <Interactions>  (1) 
["V-B:GLU:543:CB:9877, V-A:GLU:543:CB:4905, V-B:TYR:539:CD2:9845, V-B:TYR:539:CZ:9848, V-B:HIS:456:CE1:9040, V-A:HIS:456:CE1:4069, V-B:TYR:539:C:9838, V-A:GLU:543:CD:4907, V-B:TYR:539:CE2:9847, V-B:GLU:543:CD:9879, V-A:ASP:366:CG:3212, V-A:ASP:366:CA:3209, V-A:ASP:366:CB:3211, V-A:TYR:484:CZ:4346, H-A:ARG:545:NE:4923, V-A:ILE:369:CG2:3236, V-A:ARG:545:CZ:4925, V-A:TYR:484:CE2:4345, V-B:ALA:541:CB:9863, H-A:ARG:545:NH2:4927, V-A:ILE:369:CD1:3238, V-A:LEU:475:CD2:4258, V-A:HIS:383:CE1:3393, V-A:PRO:482:CG:4326, V-B:TYR:539:CB:9842, V-A:ILE:369:CB:3235, H-A:TYR:484:OH:4347, V-A:PRO:482:CB:4325, H-A:ASP:366:OD1:3213, H-A:ASP:366:OD2:3214, V-B:VAL:344:CG1:7971, H-B:GLU:543:OE2:9881, V-A:ILE:369:CG1:3237"]

$$$$
4cd_Grossjean_2025
     RDKit          3D

 43 46  0  0  0  0  0  0  0  0999 V2000
  132.8090  125.9920   62.6630 N   0  0  0  0  0  0  0  0  0  0  0  0
  132.2870  124.8340   63.1830 C   0  0  0  0  0  0  0  0  0  0  0  0
  131.8090  124.7300   64.4990 C   0  0  0  0  0  0  0  0  0  0  0  0
  131.7810  125.7570   65.5450 C   0  0  0  0  0  0  0  0  0  0  0  0
  132.8210  126.1280   66.0890 O   0  0  0  0  0  0  0  0  0  0  0  0
  130.5530  126.2480   65.8430 N   0  0  0  0  0  0  0  0  0  0  0  0
  130.1770  127.1910   66.8180 C   0  0  0  0  0  0  0  0  0  0  0  0
  129.1980  128.1110   66.4350 C   0  0  0  0  0  0  0  0  0  0  0  0
  128.7490  129.0750   67.3330 C   0  0  0  0  0  0  0  0  0  0  0  0
  129.2760  129.1150   68.6220 C   0  0  0  0  0  0  0  0  0  0  0  0
  130.2430  128.1960   69.0210 C   0  0  0  0  0  0  0  0  0  0  0  0
  130.6940  127.2300   68.1250 C   0  0  0  0  0  0  0  0  0  0  0  0
  131.2020  123.1080   64.8280 S   0  0  0  0  0  0  0  0  0  0  0  0
  131.6000  122.5820   63.2100 C   0  0  0  0  0  0  0  0  0  0  0  0
  131.3640  121.3360   62.8080 N   0  0  0  0  0  0  0  0  0  0  0  0
  131.7200  121.0160   61.5360 C   0  0  0  0  0  0  0  0  0  0  0  0
  131.4440  119.6030   61.1110 C   0  0  0  0  0  0  0  0  0  0  0  0
  132.3470  118.9110   60.2880 C   0  0  0  0  0  0  0  0  0  0  0  0
  132.0980  117.6000   59.8910 C   0  0  0  0  0  0  0  0  0  0  0  0
  130.9380  116.9600   60.3130 C   0  0  0  0  0  0  0  0  0  0  0  0
  130.0280  117.6210   61.1310 C   0  0  0  0  0  0  0  0  0  0  0  0
  130.2820  118.9310   61.5270 C   0  0  0  0  0  0  0  0  0  0  0  0
  132.2920  121.9530   60.6700 C   0  0  0  0  0  0  0  0  0  0  0  0
  132.5410  123.2720   61.0840 C   0  0  0  0  0  0  0  0  0  0  0  0
  133.1750  124.2470   60.0850 C   0  0  0  0  0  0  0  0  0  0  0  0
  133.3430  123.7180   58.8710 F   0  0  0  0  0  0  0  0  0  0  0  0
  132.3970  125.3220   59.9480 F   0  0  0  0  0  0  0  0  0  0  0  0
  134.3750  124.6260   60.5240 F   0  0  0  0  0  0  0  0  0  0  0  0
  132.1840  123.6150   62.4190 C   0  0  0  0  0  0  0  0  0  0  0  0
  132.2190  126.7270   62.3000 H   0  0  0  0  0  0  0  0  0  0  0  0
  133.8060  126.1500   62.6270 H   0  0  0  0  0  0  0  0  0  0  0  0
  129.7890  125.9060   65.2800 H   0  0  0  0  0  0  0  0  0  0  0  0
  128.7797  128.0734   65.4183 H   0  0  0  0  0  0  0  0  0  0  0  0
  127.9820  129.8015   67.0265 H   0  0  0  0  0  0  0  0  0  0  0  0
  128.9251  129.8794   69.3309 H   0  0  0  0  0  0  0  0  0  0  0  0
  130.6500  128.2330   70.0423 H   0  0  0  0  0  0  0  0  0  0  0  0
  131.4533  126.4988   68.4392 H   0  0  0  0  0  0  0  0  0  0  0  0
  133.2661  119.4129   59.9514 H   0  0  0  0  0  0  0  0  0  0  0  0
  132.8162  117.0726   59.2460 H   0  0  0  0  0  0  0  0  0  0  0  0
  130.7389  115.9250   59.9981 H   0  0  0  0  0  0  0  0  0  0  0  0
  129.1118  117.1110   61.4635 H   0  0  0  0  0  0  0  0  0  0  0  0
  129.5610  119.4490   62.1765 H   0  0  0  0  0  0  0  0  0  0  0  0
  132.5520  121.6514   59.6446 H   0  0  0  0  0  0  0  0  0  0  0  0
  1  2  1  0
  2  3  2  0
  3  4  1  0
  4  5  2  0
  4  6  1  0
  6  7  1  0
  7  8  2  0
  8  9  1  0
  9 10  2  0
 10 11  1  0
 11 12  2  0
  3 13  1  0
 13 14  1  0
 14 15  2  0
 15 16  1  0
 16 17  1  0
 17 18  2  0
 18 19  1  0
 19 20  2  0
 20 21  1  0
 21 22  2  0
 16 23  2  0
 23 24  1  0
 24 25  1  0
 25 26  1  0
 25 27  1  0
 25 28  1  0
 24 29  2  0
 29  2  1  0
 12  7  1  0
 29 14  1  0
 22 17  1  0
  1 30  1  0
  1 31  1  0
  6 32  1  0
  8 33  1  0
  9 34  1  0
 10 35  1  0
 11 36  1  0
 12 37  1  0
 18 38  1  0
 19 39  1  0
 20 40  1  0
 21 41  1  0
 22 42  1  0
 23 43  1  0
M  END
>  <Binding energies>  (1) 
[-7.96]

>  <Ligand effiencies>  (1) 
[-0.24875]

>  <Interactions>  (1) 
["V-A:GLU:543:CB:4905, V-B:TYR:539:CD2:9845, V-B:TYR:539:CZ:9848, V-A:HIS:456:CE1:4069, V-B:TYR:539:C:9838, V-A:GLU:543:CD:4907, V-A:GLU:543:CG:4906, V-B:TYR:539:CE2:9847, V-B:GLU:543:CD:9879, V-A:ASP:366:CG:3212, V-A:ASP:366:CA:3209, V-A:ASP:366:CB:3211, V-A:TYR:484:CZ:4346, H-A:ARG:545:NE:4923, V-A:ILE:369:CG2:3236, V-A:ARG:545:CZ:4925, V-B:ALA:541:CB:9863, V-A:ILE:369:CD1:3238, V-A:LEU:475:CD2:4258, V-A:HIS:383:CE1:3393, V-A:PRO:482:CG:4326, V-B:TYR:539:CB:9842, V-A:ILE:369:CB:3235, H-A:TYR:484:OH:4347, V-A:PRO:482:CB:4325, H-A:ASP:366:OD1:3213, H-A:ASP:366:OD2:3214, V-B:VAL:344:CG1:7971, H-B:GLU:543:OE2:9881, V-A:ILE:369:CG1:3237"]

$$$$
4ce_Grossjean_2025
     RDKit          3D

 45 48  0  0  0  0  0  0  0  0999 V2000
  128.6290  125.9200   71.0720 C   0  0  0  0  0  0  0  0  0  0  0  0
  129.1240  126.5790   69.7980 C   0  0  0  0  0  0  0  0  0  0  0  0
  129.2140  127.9690   69.6820 C   0  0  0  0  0  0  0  0  0  0  0  0
  129.6860  128.5060   68.4840 C   0  0  0  0  0  0  0  0  0  0  0  0
  130.0530  127.6520   67.4420 C   0  0  0  0  0  0  0  0  0  0  0  0
  129.9310  126.2690   67.6230 C   0  0  0  0  0  0  0  0  0  0  0  0
  130.3390  125.4600   66.5470 N   0  0  0  0  0  0  0  0  0  0  0  0
  131.4090  125.6140   65.7270 C   0  0  0  0  0  0  0  0  0  0  0  0
  132.2260  126.5300   65.8320 O   0  0  0  0  0  0  0  0  0  0  0  0
  131.5490  124.6020   64.6780 C   0  0  0  0  0  0  0  0  0  0  0  0
  130.9150  122.9760   64.9240 S   0  0  0  0  0  0  0  0  0  0  0  0
  131.4180  122.4890   63.3240 C   0  0  0  0  0  0  0  0  0  0  0  0
  131.1970  121.2570   62.8710 N   0  0  0  0  0  0  0  0  0  0  0  0
  131.6110  120.9760   61.6080 C   0  0  0  0  0  0  0  0  0  0  0  0
  131.3420  119.5810   61.1270 C   0  0  0  0  0  0  0  0  0  0  0  0
  130.2020  118.8820   61.5560 C   0  0  0  0  0  0  0  0  0  0  0  0
  129.9490  117.5840   61.1190 C   0  0  0  0  0  0  0  0  0  0  0  0
  130.8340  116.9670   60.2420 C   0  0  0  0  0  0  0  0  0  0  0  0
  131.9710  117.6360   59.8020 C   0  0  0  0  0  0  0  0  0  0  0  0
  132.2220  118.9320   60.2440 C   0  0  0  0  0  0  0  0  0  0  0  0
  132.2640  121.9250   60.8140 C   0  0  0  0  0  0  0  0  0  0  0  0
  132.5070  123.2250   61.2840 C   0  0  0  0  0  0  0  0  0  0  0  0
  133.2250  124.2160   60.3610 C   0  0  0  0  0  0  0  0  0  0  0  0
  133.5420  123.6920   59.1760 F   0  0  0  0  0  0  0  0  0  0  0  0
  132.4410  125.2710   60.1350 F   0  0  0  0  0  0  0  0  0  0  0  0
  134.3580  124.6240   60.9330 F   0  0  0  0  0  0  0  0  0  0  0  0
  132.0630  123.5360   62.6020 C   0  0  0  0  0  0  0  0  0  0  0  0
  132.1250  124.7340   63.4030 C   0  0  0  0  0  0  0  0  0  0  0  0
  132.6950  125.8980   62.9550 N   0  0  0  0  0  0  0  0  0  0  0  0
  129.4750  125.7360   68.7940 N   0  0  0  0  0  0  0  0  0  0  0  0
  129.0323  126.4570   71.9432 H   0  0  0  0  0  0  0  0  0  0  0  0
  127.5298  125.9521   71.0982 H   0  0  0  0  0  0  0  0  0  0  0  0
  128.9660  124.8732   71.0982 H   0  0  0  0  0  0  0  0  0  0  0  0
  128.9197  128.6239   70.5154 H   0  0  0  0  0  0  0  0  0  0  0  0
  129.7686  129.5960   68.3610 H   0  0  0  0  0  0  0  0  0  0  0  0
  130.4322  128.0596   66.4933 H   0  0  0  0  0  0  0  0  0  0  0  0
  129.7740  124.6370   66.4000 H   0  0  0  0  0  0  0  0  0  0  0  0
  129.4979  119.3672   62.2480 H   0  0  0  0  0  0  0  0  0  0  0  0
  129.0527  117.0492   61.4663 H   0  0  0  0  0  0  0  0  0  0  0  0
  130.6335  115.9430   59.8939 H   0  0  0  0  0  0  0  0  0  0  0  0
  132.6684  117.1437   59.1083 H   0  0  0  0  0  0  0  0  0  0  0  0
  133.1241  119.4568   59.8964 H   0  0  0  0  0  0  0  0  0  0  0  0
  132.5933  121.6469   59.8019 H   0  0  0  0  0  0  0  0  0  0  0  0
  132.8610  126.6830   63.5690 H   0  0  0  0  0  0  0  0  0  0  0  0
  132.9690  126.0110   61.9890 H   0  0  0  0  0  0  0  0  0  0  0  0
  1  2  1  0
  2  3  2  0
  3  4  1  0
  4  5  2  0
  5  6  1  0
  6  7  1  0
  7  8  1  0
  8  9  2  0
  8 10  1  0
 10 11  1  0
 11 12  1  0
 12 13  2  0
 13 14  1  0
 14 15  1  0
 15 16  2  0
 16 17  1  0
 17 18  2  0
 18 19  1  0
 19 20  2  0
 14 21  2  0
 21 22  1  0
 22 23  1  0
 23 24  1  0
 23 25  1  0
 23 26  1  0
 22 27  2  0
 27 28  1  0
 28 29  1  0
  6 30  2  0
 30  2  1  0
 28 10  2  0
 27 12  1  0
 20 15  1  0
  1 31  1  0
  1 32  1  0
  1 33  1  0
  3 34  1  0
  4 35  1  0
  5 36  1  0
  7 37  1  0
 16 38  1  0
 17 39  1  0
 18 40  1  0
 19 41  1  0
 20 42  1  0
 21 43  1  0
 29 44  1  0
 29 45  1  0
M  END
>  <Binding energies>  (1) 
[-7.71]

>  <Ligand effiencies>  (1) 
[-0.23363636363636364]

>  <Interactions>  (1) 
["V-B:GLU:543:CB:9877, V-A:GLU:543:CB:4905, V-B:TYR:539:CD2:9845, V-B:TYR:539:CZ:9848, V-B:HIS:456:CE1:9040, V-A:HIS:456:CE1:4069, V-B:TYR:539:C:9838, V-A:GLU:543:CD:4907, V-A:GLU:543:CG:4906, V-B:TYR:539:CE2:9847, V-B:GLU:543:CD:9879, V-A:ASP:366:CG:3212, V-B:GLU:543:C:9873, V-A:ASP:366:CA:3209, V-A:ASP:366:CB:3211, V-A:TYR:484:CZ:4346, H-A:ARG:545:NE:4923, V-A:ILE:369:CG2:3236, V-A:ARG:545:CZ:4925, V-A:TYR:484:CE2:4345, V-B:ALA:541:CB:9863, H-A:ARG:545:NH2:4927, V-A:ILE:369:CD1:3238, V-A:LEU:475:CD2:4258, V-A:HIS:383:CE1:3393, V-A:PRO:482:CG:4326, V-B:TYR:539:CB:9842, V-A:ILE:369:CB:3235, H-A:TYR:484:OH:4347, V-A:PRO:482:CB:4325, H-A:ASP:366:OD1:3213, H-A:ASP:366:OD2:3214, V-B:VAL:344:CG1:7971, H-B:GLU:543:OE2:9881, V-A:ILE:369:CG1:3237"]

$$$$
4cf_Grossjean_2025
     RDKit          3D

 42 45  0  0  0  0  0  0  0  0999 V2000
  132.7860  125.9840   62.7180 N   0  0  0  0  0  0  0  0  0  0  0  0
  132.2500  124.8340   63.2380 C   0  0  0  0  0  0  0  0  0  0  0  0
  131.7540  124.7410   64.5480 C   0  0  0  0  0  0  0  0  0  0  0  0
  131.7330  125.7680   65.5930 C   0  0  0  0  0  0  0  0  0  0  0  0
  132.7820  126.1630   66.1050 O   0  0  0  0  0  0  0  0  0  0  0  0
  130.5050  126.2360   65.9240 N   0  0  0  0  0  0  0  0  0  0  0  0
  130.1360  127.1740   66.9070 C   0  0  0  0  0  0  0  0  0  0  0  0
  130.6550  127.2330   68.2150 C   0  0  0  0  0  0  0  0  0  0  0  0
  130.1890  128.2090   69.0980 C   0  0  0  0  0  0  0  0  0  0  0  0
  129.2130  129.1020   68.6540 C   0  0  0  0  0  0  0  0  0  0  0  0
  128.6920  129.0620   67.4020 N   0  0  0  0  0  0  0  0  0  0  0  0
  129.1540  128.1060   66.5550 C   0  0  0  0  0  0  0  0  0  0  0  0
  131.1360  123.1240   64.8810 S   0  0  0  0  0  0  0  0  0  0  0  0
  131.5530  122.5850   63.2710 C   0  0  0  0  0  0  0  0  0  0  0  0
  131.3200  121.3350   62.8750 N   0  0  0  0  0  0  0  0  0  0  0  0
  131.6950  121.0060   61.6110 C   0  0  0  0  0  0  0  0  0  0  0  0
  131.4270  119.5890   61.1940 C   0  0  0  0  0  0  0  0  0  0  0  0
  130.2420  118.9410   61.5740 C   0  0  0  0  0  0  0  0  0  0  0  0
  129.9850  117.6260   61.1920 C   0  0  0  0  0  0  0  0  0  0  0  0
  130.9150  116.9410   60.4180 C   0  0  0  0  0  0  0  0  0  0  0  0
  132.0980  117.5590   60.0240 C   0  0  0  0  0  0  0  0  0  0  0  0
  132.3490  118.8730   60.4090 C   0  0  0  0  0  0  0  0  0  0  0  0
  132.2760  121.9360   60.7450 C   0  0  0  0  0  0  0  0  0  0  0  0
  132.5210  123.2570   61.1510 C   0  0  0  0  0  0  0  0  0  0  0  0
  133.1660  124.2250   60.1530 C   0  0  0  0  0  0  0  0  0  0  0  0
  132.4370  125.3220   59.9390 F   0  0  0  0  0  0  0  0  0  0  0  0
  134.3540  124.6190   60.6100 F   0  0  0  0  0  0  0  0  0  0  0  0
  133.3270  123.6190   58.9760 F   0  0  0  0  0  0  0  0  0  0  0  0
  132.1500  123.6100   62.4810 C   0  0  0  0  0  0  0  0  0  0  0  0
  133.7840  126.1120   62.6190 H   0  0  0  0  0  0  0  0  0  0  0  0
  132.1980  126.7470   62.4120 H   0  0  0  0  0  0  0  0  0  0  0  0
  129.7310  125.8670   65.3900 H   0  0  0  0  0  0  0  0  0  0  0  0
  131.4226  126.5147   68.5388 H   0  0  0  0  0  0  0  0  0  0  0  0
  130.5833  128.2727   70.1229 H   0  0  0  0  0  0  0  0  0  0  0  0
  128.8499  129.8726   69.3500 H   0  0  0  0  0  0  0  0  0  0  0  0
  128.7341  128.0624   65.5392 H   0  0  0  0  0  0  0  0  0  0  0  0
  129.5028  119.4807   62.1843 H   0  0  0  0  0  0  0  0  0  0  0  0
  129.0517  117.1326   61.5010 H   0  0  0  0  0  0  0  0  0  0  0  0
  130.7142  115.9028   60.1148 H   0  0  0  0  0  0  0  0  0  0  0  0
  132.8305  117.0124   59.4119 H   0  0  0  0  0  0  0  0  0  0  0  0
  133.2839  119.3596   60.0941 H   0  0  0  0  0  0  0  0  0  0  0  0
  132.5468  121.6266   59.7247 H   0  0  0  0  0  0  0  0  0  0  0  0
  1  2  1  0
  2  3  2  0
  3  4  1  0
  4  5  2  0
  4  6  1  0
  6  7  1  0
  7  8  2  0
  8  9  1  0
  9 10  2  0
 10 11  1  0
 11 12  2  0
  3 13  1  0
 13 14  1  0
 14 15  2  0
 15 16  1  0
 16 17  1  0
 17 18  2  0
 18 19  1  0
 19 20  2  0
 20 21  1  0
 21 22  2  0
 16 23  2  0
 23 24  1  0
 24 25  1  0
 25 26  1  0
 25 27  1  0
 25 28  1  0
 24 29  2  0
 29  2  1  0
 12  7  1  0
 29 14  1  0
 22 17  1  0
  1 30  1  0
  1 31  1  0
  6 32  1  0
  8 33  1  0
  9 34  1  0
 10 35  1  0
 12 36  1  0
 18 37  1  0
 19 38  1  0
 20 39  1  0
 21 40  1  0
 22 41  1  0
 23 42  1  0
M  END
>  <Binding energies>  (1) 
[-7.68]

>  <Ligand effiencies>  (1) 
[-0.24]

>  <Interactions>  (1) 
["V-A:GLU:543:CB:4905, V-B:TYR:539:CD2:9845, V-B:TYR:539:CZ:9848, V-A:HIS:456:CE1:4069, V-B:TYR:539:C:9838, V-A:GLU:543:CD:4907, V-A:GLU:543:CG:4906, V-B:TYR:539:CE2:9847, V-B:GLU:543:CD:9879, V-A:ASP:366:CG:3212, V-A:ASP:366:CA:3209, V-A:ASP:366:CB:3211, V-A:TYR:484:CZ:4346, H-A:ARG:545:NE:4923, V-A:ILE:369:CG2:3236, V-A:ARG:545:CZ:4925, V-B:ALA:541:CB:9863, V-A:ILE:369:CD1:3238, V-A:LEU:475:CD2:4258, V-A:HIS:383:CE1:3393, V-A:PRO:482:CG:4326, V-B:TYR:539:CB:9842, V-A:ILE:369:CB:3235, H-A:TYR:484:OH:4347, V-A:PRO:482:CB:4325, H-A:ASP:366:OD1:3213, H-A:ASP:366:OD2:3214, V-B:VAL:344:CG1:7971, H-B:GLU:543:OE2:9881, V-A:ILE:369:CG1:3237"]

$$$$
4cg_Grossjean_2025
     RDKit          3D

 46 49  0  0  0  0  0  0  0  0999 V2000
  129.3420  125.6130   63.6870 N   0  0  0  0  0  0  0  0  0  0  0  0
  130.3820  124.7220   63.7550 C   0  0  0  0  0  0  0  0  0  0  0  0
  131.4620  124.8690   64.6370 C   0  0  0  0  0  0  0  0  0  0  0  0
  131.6810  125.9040   65.6470 C   0  0  0  0  0  0  0  0  0  0  0  0
  132.7760  126.4570   65.7740 O   0  0  0  0  0  0  0  0  0  0  0  0
  130.6300  126.1830   66.4460 N   0  0  0  0  0  0  0  0  0  0  0  0
  130.6140  127.1920   67.5040 C   0  0  0  0  0  0  0  0  0  0  0  0
  129.3070  127.2260   68.2890 C   0  0  0  0  0  0  0  0  0  0  0  0
  128.2480  128.0190   67.8390 C   0  0  0  0  0  0  0  0  0  0  0  0
  127.0420  128.0290   68.5350 C   0  0  0  0  0  0  0  0  0  0  0  0
  126.8970  127.2400   69.6740 C   0  0  0  0  0  0  0  0  0  0  0  0
  127.9440  126.4350   70.1180 C   0  0  0  0  0  0  0  0  0  0  0  0
  129.1490  126.4230   69.4210 C   0  0  0  0  0  0  0  0  0  0  0  0
  132.6070  123.5400   64.4780 S   0  0  0  0  0  0  0  0  0  0  0  0
  131.6440  122.8080   63.2160 C   0  0  0  0  0  0  0  0  0  0  0  0
  132.0160  121.6740   62.6290 N   0  0  0  0  0  0  0  0  0  0  0  0
  131.2020  121.1770   61.6610 C   0  0  0  0  0  0  0  0  0  0  0  0
  131.6500  119.8960   61.0170 C   0  0  0  0  0  0  0  0  0  0  0  0
  130.8850  118.7230   61.1350 C   0  0  0  0  0  0  0  0  0  0  0  0
  131.2960  117.5340   60.5420 C   0  0  0  0  0  0  0  0  0  0  0  0
  132.4850  117.4980   59.8190 C   0  0  0  0  0  0  0  0  0  0  0  0
  133.2630  118.6420   59.6890 C   0  0  0  0  0  0  0  0  0  0  0  0
  132.8480  119.8300   60.2840 C   0  0  0  0  0  0  0  0  0  0  0  0
  130.0280  121.8340   61.2750 C   0  0  0  0  0  0  0  0  0  0  0  0
  129.6270  123.0320   61.8860 C   0  0  0  0  0  0  0  0  0  0  0  0
  128.3300  123.7000   61.4140 C   0  0  0  0  0  0  0  0  0  0  0  0
  128.5100  124.9550   60.9960 F   0  0  0  0  0  0  0  0  0  0  0  0
  127.8130  123.0100   60.3970 F   0  0  0  0  0  0  0  0  0  0  0  0
  127.4510  123.7350   62.4140 F   0  0  0  0  0  0  0  0  0  0  0  0
  130.4660  123.5540   62.9130 C   0  0  0  0  0  0  0  0  0  0  0  0
  128.9670  126.0620   64.5110 H   0  0  0  0  0  0  0  0  0  0  0  0
  128.9180  125.8590   62.8030 H   0  0  0  0  0  0  0  0  0  0  0  0
  129.7450  125.7450   66.2370 H   0  0  0  0  0  0  0  0  0  0  0  0
  131.4353  126.9768   68.2034 H   0  0  0  0  0  0  0  0  0  0  0  0
  130.7270  128.1728   67.0190 H   0  0  0  0  0  0  0  0  0  0  0  0
  128.3670  128.6350   66.9355 H   0  0  0  0  0  0  0  0  0  0  0  0
  126.2082  128.6566   68.1873 H   0  0  0  0  0  0  0  0  0  0  0  0
  125.9468  127.2527   70.2281 H   0  0  0  0  0  0  0  0  0  0  0  0
  127.8189  125.8115   71.0156 H   0  0  0  0  0  0  0  0  0  0  0  0
  129.9757  125.7820   69.7612 H   0  0  0  0  0  0  0  0  0  0  0  0
  129.9451  118.7457   61.7061 H   0  0  0  0  0  0  0  0  0  0  0  0
  130.6840  116.6257   60.6439 H   0  0  0  0  0  0  0  0  0  0  0  0
  132.8105  116.5588   59.3480 H   0  0  0  0  0  0  0  0  0  0  0  0
  134.2028  118.6089   59.1183 H   0  0  0  0  0  0  0  0  0  0  0  0
  133.4679  120.7326   60.1789 H   0  0  0  0  0  0  0  0  0  0  0  0
  129.4069  121.4024   60.4763 H   0  0  0  0  0  0  0  0  0  0  0  0
  1  2  1  0
  2  3  2  0
  3  4  1  0
  4  5  2  0
  4  6  1  0
  6  7  1  0
  7  8  1  0
  8  9  2  0
  9 10  1  0
 10 11  2  0
 11 12  1  0
 12 13  2  0
  3 14  1  0
 14 15  1  0
 15 16  2  0
 16 17  1  0
 17 18  1  0
 18 19  2  0
 19 20  1  0
 20 21  2  0
 21 22  1  0
 22 23  2  0
 17 24  2  0
 24 25  1  0
 25 26  1  0
 26 27  1  0
 26 28  1  0
 26 29  1  0
 25 30  2  0
 30  2  1  0
 13  8  1  0
 30 15  1  0
 23 18  1  0
  1 31  1  0
  1 32  1  0
  6 33  1  0
  7 34  1  0
  7 35  1  0
  9 36  1  0
 10 37  1  0
 11 38  1  0
 12 39  1  0
 13 40  1  0
 19 41  1  0
 20 42  1  0
 21 43  1  0
 22 44  1  0
 23 45  1  0
 24 46  1  0
M  END
>  <Binding energies>  (1) 
[-8.29]

>  <Ligand effiencies>  (1) 
[-0.25121212121212116]

>  <Interactions>  (1) 
["V-B:GLU:543:CB:9877, V-B:TYR:539:CD2:9845, V-B:HIS:456:CE1:9040, V-A:HIS:456:CE1:4069, V-A:GLU:543:CD:4907, V-B:TYR:539:CE2:9847, V-B:GLU:543:CD:9879, V-B:GLU:543:C:9873, V-A:VAL:384:C:3396, H-A:ARG:545:NE:4923, V-A:ILE:369:CG2:3236, V-A:SER:385:CA:3406, H-A:ARG:545:NH2:4927, V-A:LEU:475:CD2:4258, V-A:HIS:383:CE1:3393, V-B:PRO:540:CA:9854, H-A:TYR:484:OH:4347, V-A:LEU:373:CD2:3280, V-A:GLY:454:CA:4048, H-B:GLU:543:OE2:9881, H-B:GLU:543:OE1:9880"]

$$$$
4ch_Grossjean_2025
     RDKit          3D

 58 61  0  0  0  0  0  0  0  0999 V2000
  127.3450  126.4450   71.0350 C   0  0  0  0  0  0  0  0  0  0  0  0
  126.8830  126.6850   69.7090 O   0  0  0  0  0  0  0  0  0  0  0  0
  127.7590  127.1940   68.7680 C   0  0  0  0  0  0  0  0  0  0  0  0
  129.0520  126.6910   68.5470 C   0  0  0  0  0  0  0  0  0  0  0  0
  129.8830  127.2540   67.5770 C   0  0  0  0  0  0  0  0  0  0  0  0
  131.2930  126.7120   67.3710 C   0  0  0  0  0  0  0  0  0  0  0  0
  131.4140  125.7580   66.2680 N   0  0  0  0  0  0  0  0  0  0  0  0
  132.5550  125.4550   65.6150 C   0  0  0  0  0  0  0  0  0  0  0  0
  133.6430  125.9520   65.9160 O   0  0  0  0  0  0  0  0  0  0  0  0
  132.4370  124.4670   64.5420 C   0  0  0  0  0  0  0  0  0  0  0  0
  131.7770  122.8710   64.8810 S   0  0  0  0  0  0  0  0  0  0  0  0
  131.9500  122.3960   63.2090 C   0  0  0  0  0  0  0  0  0  0  0  0
  131.5980  121.1830   62.7910 N   0  0  0  0  0  0  0  0  0  0  0  0
  131.7640  120.9060   61.4710 C   0  0  0  0  0  0  0  0  0  0  0  0
  131.3630  119.5270   61.0330 C   0  0  0  0  0  0  0  0  0  0  0  0
  130.2480  118.8880   61.6010 C   0  0  0  0  0  0  0  0  0  0  0  0
  129.8710  117.6090   61.2000 C   0  0  0  0  0  0  0  0  0  0  0  0
  130.6060  116.9470   60.2230 C   0  0  0  0  0  0  0  0  0  0  0  0
  131.7180  117.5550   59.6470 C   0  0  0  0  0  0  0  0  0  0  0  0
  132.0920  118.8330   60.0530 C   0  0  0  0  0  0  0  0  0  0  0  0
  132.2990  121.8430   60.5820 C   0  0  0  0  0  0  0  0  0  0  0  0
  132.6760  123.1260   61.0120 C   0  0  0  0  0  0  0  0  0  0  0  0
  133.2560  124.1040   59.9840 C   0  0  0  0  0  0  0  0  0  0  0  0
  133.5080  123.5350   58.8030 F   0  0  0  0  0  0  0  0  0  0  0  0
  132.3960  125.0990   59.7720 F   0  0  0  0  0  0  0  0  0  0  0  0
  134.4050  124.6060   60.4380 F   0  0  0  0  0  0  0  0  0  0  0  0
  132.4940  123.4310   62.3910 C   0  0  0  0  0  0  0  0  0  0  0  0
  132.7520  124.6100   63.1810 C   0  0  0  0  0  0  0  0  0  0  0  0
  133.2690  125.7640   62.6480 N   0  0  0  0  0  0  0  0  0  0  0  0
  129.4300  128.3420   66.8300 C   0  0  0  0  0  0  0  0  0  0  0  0
  128.1430  128.8660   67.0310 C   0  0  0  0  0  0  0  0  0  0  0  0
  127.6280  129.9390   66.3260 O   0  0  0  0  0  0  0  0  0  0  0  0
  127.5140  129.8550   64.9090 C   0  0  0  0  0  0  0  0  0  0  0  0
  127.3150  128.2790   67.9990 C   0  0  0  0  0  0  0  0  0  0  0  0
  126.0590  128.7920   68.2160 O   0  0  0  0  0  0  0  0  0  0  0  0
  125.1070  128.4300   67.2250 C   0  0  0  0  0  0  0  0  0  0  0  0
  126.6073  126.8282   71.7553 H   0  0  0  0  0  0  0  0  0  0  0  0
  127.4782  125.3637   71.1868 H   0  0  0  0  0  0  0  0  0  0  0  0
  128.3063  126.9577   71.1868 H   0  0  0  0  0  0  0  0  0  0  0  0
  129.4142  125.8425   69.1461 H   0  0  0  0  0  0  0  0  0  0  0  0
  131.9625  127.5608   67.1679 H   0  0  0  0  0  0  0  0  0  0  0  0
  131.5600  126.1687   68.2894 H   0  0  0  0  0  0  0  0  0  0  0  0
  130.5510  125.3550   65.9330 H   0  0  0  0  0  0  0  0  0  0  0  0
  129.6634  119.4066   62.3751 H   0  0  0  0  0  0  0  0  0  0  0  0
  128.9946  117.1240   61.6547 H   0  0  0  0  0  0  0  0  0  0  0  0
  130.3073  115.9377   59.9035 H   0  0  0  0  0  0  0  0  0  0  0  0
  132.2982  117.0283   58.8750 H   0  0  0  0  0  0  0  0  0  0  0  0
  132.9740  119.3078   59.5984 H   0  0  0  0  0  0  0  0  0  0  0  0
  132.4273  121.5700   59.5242 H   0  0  0  0  0  0  0  0  0  0  0  0
  132.6760  126.4890   62.2680 H   0  0  0  0  0  0  0  0  0  0  0  0
  134.2650  125.9290   62.6220 H   0  0  0  0  0  0  0  0  0  0  0  0
  130.0891  128.7946   66.0746 H   0  0  0  0  0  0  0  0  0  0  0  0
  126.6539  129.2212   64.6473 H   0  0  0  0  0  0  0  0  0  0  0  0
  127.3673  130.8625   64.4926 H   0  0  0  0  0  0  0  0  0  0  0  0
  128.4328  129.4164   64.4926 H   0  0  0  0  0  0  0  0  0  0  0  0
  124.1854  128.0795   67.7126 H   0  0  0  0  0  0  0  0  0  0  0  0
  124.8801  129.3046   66.5976 H   0  0  0  0  0  0  0  0  0  0  0  0
  125.5186  127.6256   66.5976 H   0  0  0  0  0  0  0  0  0  0  0  0
  1  2  1  0
  2  3  1  0
  3  4  2  0
  4  5  1  0
  5  6  1  0
  6  7  1  0
  7  8  1  0
  8  9  2  0
  8 10  1  0
 10 11  1  0
 11 12  1  0
 12 13  2  0
 13 14  1  0
 14 15  1  0
 15 16  2  0
 16 17  1  0
 17 18  2  0
 18 19  1  0
 19 20  2  0
 14 21  2  0
 21 22  1  0
 22 23  1  0
 23 24  1  0
 23 25  1  0
 23 26  1  0
 22 27  2  0
 27 28  1  0
 28 29  1  0
  5 30  2  0
 30 31  1  0
 31 32  1  0
 32 33  1  0
 31 34  2  0
 34 35  1  0
 35 36  1  0
 34  3  1  0
 28 10  2  0
 27 12  1  0
 20 15  1  0
  1 37  1  0
  1 38  1  0
  1 39  1  0
  4 40  1  0
  6 41  1  0
  6 42  1  0
  7 43  1  0
 16 44  1  0
 17 45  1  0
 18 46  1  0
 19 47  1  0
 20 48  1  0
 21 49  1  0
 29 50  1  0
 29 51  1  0
 30 52  1  0
 33 53  1  0
 33 54  1  0
 33 55  1  0
 36 56  1  0
 36 57  1  0
 36 58  1  0
M  END
>  <Binding energies>  (1) 
[-7.95]

>  <Ligand effiencies>  (1) 
[-0.20384615384615384]

>  <Interactions>  (1) 
["V-B:GLU:543:CB:9877, H-B:TYR:484:OH:9318, V-A:GLU:543:CB:4905, V-B:TYR:539:CD2:9845, V-B:TYR:539:CZ:9848, V-B:HIS:456:CE1:9040, V-A:HIS:456:CE1:4069, V-B:TYR:539:C:9838, V-A:GLU:543:CD:4907, V-A:GLU:543:CG:4906, V-B:TYR:539:CE2:9847, V-B:GLU:543:CD:9879, V-B:TYR:539:CG:9843, V-A:ASP:366:CG:3212, V-B:GLU:543:C:9873, V-A:ASP:366:CA:3209, V-A:ASP:366:CB:3211, V-B:GLY:544:C:9883, V-B:ARG:545:CG:9893, V-B:ARG:545:CD:9894, V-A:TYR:484:CZ:4346, H-A:ARG:545:NE:4923, V-A:ILE:369:CG2:3236, V-A:ARG:545:CZ:4925, H-A:GLY:454:N:4049, V-B:ALA:541:CB:9863, H-A:ARG:545:NH2:4927, V-A:ILE:369:CD1:3238, V-A:LEU:475:CD2:4258, V-A:HIS:383:CE1:3393, V-A:PRO:482:CG:4326, V-B:TYR:539:CB:9842, V-A:ILE:369:CB:3235, H-A:TYR:484:OH:4347, V-A:PRO:482:CB:4325, H-A:ASP:366:OD1:3213, H-A:ASP:366:OD2:3214, V-A:GLY:454:CA:4048, V-B:VAL:344:CG1:7971, H-B:GLU:543:OE2:9881, V-A:ILE:369:CG1:3237"]

$$$$
4ci_Grossjean_2025
     RDKit          3D

 39 42  0  0  0  0  0  0  0  0999 V2000
  132.9230  125.8580   62.7000 N   0  0  0  0  0  0  0  0  0  0  0  0
  132.3800  124.7110   63.2180 C   0  0  0  0  0  0  0  0  0  0  0  0
  131.9130  124.6080   64.5380 C   0  0  0  0  0  0  0  0  0  0  0  0
  131.8910  125.6370   65.5810 C   0  0  0  0  0  0  0  0  0  0  0  0
  132.9410  126.1240   66.0080 O   0  0  0  0  0  0  0  0  0  0  0  0
  130.6590  125.9870   66.0310 N   0  0  0  0  0  0  0  0  0  0  0  0
  130.3500  126.9240   67.0080 C   0  0  0  0  0  0  0  0  0  0  0  0
  129.4350  127.9580   66.8110 C   0  0  0  0  0  0  0  0  0  0  0  0
  129.4170  128.6520   67.9980 C   0  0  0  0  0  0  0  0  0  0  0  0
  130.2760  128.0660   68.8670 O   0  0  0  0  0  0  0  0  0  0  0  0
  130.8620  126.9720   68.2270 N   0  0  0  0  0  0  0  0  0  0  0  0
  131.2720  123.0000   64.8640 S   0  0  0  0  0  0  0  0  0  0  0  0
  131.6410  122.4740   63.2380 C   0  0  0  0  0  0  0  0  0  0  0  0
  131.3700  121.2370   62.8280 N   0  0  0  0  0  0  0  0  0  0  0  0
  131.6890  120.9220   61.5470 C   0  0  0  0  0  0  0  0  0  0  0  0
  131.3750  119.5180   61.1150 C   0  0  0  0  0  0  0  0  0  0  0  0
  130.2310  118.8570   61.5920 C   0  0  0  0  0  0  0  0  0  0  0  0
  129.9340  117.5550   61.1950 C   0  0  0  0  0  0  0  0  0  0  0  0
  130.7810  116.8930   60.3130 C   0  0  0  0  0  0  0  0  0  0  0  0
  131.9230  117.5210   59.8290 C   0  0  0  0  0  0  0  0  0  0  0  0
  132.2170  118.8220   60.2290 C   0  0  0  0  0  0  0  0  0  0  0  0
  132.2970  121.8450   60.6890 C   0  0  0  0  0  0  0  0  0  0  0  0
  132.5880  123.1520   61.1110 C   0  0  0  0  0  0  0  0  0  0  0  0
  133.2540  124.1120   60.1180 C   0  0  0  0  0  0  0  0  0  0  0  0
  133.5760  123.5300   58.9620 F   0  0  0  0  0  0  0  0  0  0  0  0
  132.4240  125.1170   59.8400 F   0  0  0  0  0  0  0  0  0  0  0  0
  134.3760  124.6010   60.6460 F   0  0  0  0  0  0  0  0  0  0  0  0
  132.2440  123.4970   62.4490 C   0  0  0  0  0  0  0  0  0  0  0  0
  133.9230  125.9980   62.6400 H   0  0  0  0  0  0  0  0  0  0  0  0
  132.3380  126.6060   62.3520 H   0  0  0  0  0  0  0  0  0  0  0  0
  129.8690  125.5170   65.6160 H   0  0  0  0  0  0  0  0  0  0  0  0
  128.8533  128.1721   65.9023 H   0  0  0  0  0  0  0  0  0  0  0  0
  128.8036  129.5405   68.2084 H   0  0  0  0  0  0  0  0  0  0  0  0
  129.5584  119.3761   62.2907 H   0  0  0  0  0  0  0  0  0  0  0  0
  129.0332  117.0528   61.5777 H   0  0  0  0  0  0  0  0  0  0  0  0
  130.5460  115.8661   59.9963 H   0  0  0  0  0  0  0  0  0  0  0  0
  132.5913  116.9926   59.1332 H   0  0  0  0  0  0  0  0  0  0  0  0
  133.1232  119.3138   59.8456 H   0  0  0  0  0  0  0  0  0  0  0  0
  132.5521  121.5405   59.6632 H   0  0  0  0  0  0  0  0  0  0  0  0
  1  2  1  0
  2  3  2  0
  3  4  1  0
  4  5  2  0
  4  6  1  0
  6  7  1  0
  7  8  1  0
  8  9  2  0
  9 10  1  0
 10 11  1  0
  3 12  1  0
 12 13  1  0
 13 14  2  0
 14 15  1  0
 15 16  1  0
 16 17  2  0
 17 18  1  0
 18 19  2  0
 19 20  1  0
 20 21  2  0
 15 22  2  0
 22 23  1  0
 23 24  1  0
 24 25  1  0
 24 26  1  0
 24 27  1  0
 23 28  2  0
 28  2  1  0
 11  7  2  0
 28 13  1  0
 21 16  1  0
  1 29  1  0
  1 30  1  0
  6 31  1  0
  8 32  1  0
  9 33  1  0
 17 34  1  0
 18 35  1  0
 19 36  1  0
 20 37  1  0
 21 38  1  0
 22 39  1  0
M  END
>  <Binding energies>  (1) 
[-7.6]

>  <Ligand effiencies>  (1) 
[-0.24516129032258063]

>  <Interactions>  (1) 
["V-A:GLU:543:CB:4905, V-B:TYR:539:CD2:9845, V-B:TYR:539:CZ:9848, V-B:TYR:539:C:9838, V-A:GLU:543:CD:4907, V-A:GLU:543:CG:4906, V-B:TYR:539:CE2:9847, V-B:GLU:543:CD:9879, V-A:ASP:366:CG:3212, V-A:ASP:366:CA:3209, V-A:ASP:366:CB:3211, V-A:TYR:484:CZ:4346, H-A:ARG:545:NE:4923, V-A:ILE:369:CG2:3236, V-A:ARG:545:CZ:4925, V-B:ALA:541:CB:9863, V-A:ILE:369:CD1:3238, V-A:LEU:475:CD2:4258, V-A:HIS:383:CE1:3393, V-A:PRO:482:CG:4326, V-B:TYR:539:CB:9842, V-A:ILE:369:CB:3235, H-A:TYR:484:OH:4347, V-A:PRO:482:CB:4325, H-A:ASP:366:OD1:3213, H-A:ASP:366:OD2:3214, V-B:VAL:344:CG1:7971, H-B:GLU:543:OE2:9881, V-A:ILE:369:CG1:3237"]

$$$$
4cj_Grossjean_2025
     RDKit          3D

 39 42  0  0  0  0  0  0  0  0999 V2000
  132.8060  125.9160   62.6830 N   0  0  0  0  0  0  0  0  0  0  0  0
  132.3050  124.7530   63.2090 C   0  0  0  0  0  0  0  0  0  0  0  0
  131.8520  124.6410   64.5330 C   0  0  0  0  0  0  0  0  0  0  0  0
  131.8080  125.6710   65.5740 C   0  0  0  0  0  0  0  0  0  0  0  0
  132.8440  126.2020   65.9810 O   0  0  0  0  0  0  0  0  0  0  0  0
  130.5710  125.9720   66.0430 N   0  0  0  0  0  0  0  0  0  0  0  0
  130.2550  126.9050   67.0220 C   0  0  0  0  0  0  0  0  0  0  0  0
  130.7200  126.9730   68.2510 N   0  0  0  0  0  0  0  0  0  0  0  0
  130.2040  127.9930   68.9080 C   0  0  0  0  0  0  0  0  0  0  0  0
  129.2980  128.7820   68.2060 C   0  0  0  0  0  0  0  0  0  0  0  0
  129.1180  128.1450   66.5990 S   0  0  0  0  0  0  0  0  0  0  0  0
  131.2640  123.0140   64.8700 S   0  0  0  0  0  0  0  0  0  0  0  0
  131.6310  122.4970   63.2410 C   0  0  0  0  0  0  0  0  0  0  0  0
  131.3870  121.2540   62.8350 N   0  0  0  0  0  0  0  0  0  0  0  0
  131.6970  120.9460   61.5500 C   0  0  0  0  0  0  0  0  0  0  0  0
  131.3970  119.5380   61.1210 C   0  0  0  0  0  0  0  0  0  0  0  0
  130.2110  118.9020   61.5230 C   0  0  0  0  0  0  0  0  0  0  0  0
  129.9300  117.5950   61.1330 C   0  0  0  0  0  0  0  0  0  0  0  0
  130.8350  116.9020   60.3360 C   0  0  0  0  0  0  0  0  0  0  0  0
  132.0180  117.5070   59.9270 C   0  0  0  0  0  0  0  0  0  0  0  0
  132.2950  118.8150   60.3170 C   0  0  0  0  0  0  0  0  0  0  0  0
  132.2740  121.8820   60.6850 C   0  0  0  0  0  0  0  0  0  0  0  0
  132.5380  123.1960   61.1030 C   0  0  0  0  0  0  0  0  0  0  0  0
  133.1690  124.1720   60.1020 C   0  0  0  0  0  0  0  0  0  0  0  0
  132.4310  125.2650   59.9000 F   0  0  0  0  0  0  0  0  0  0  0  0
  134.3590  124.5700   60.5520 F   0  0  0  0  0  0  0  0  0  0  0  0
  133.3240  123.5710   58.9220 F   0  0  0  0  0  0  0  0  0  0  0  0
  132.1980  123.5350   62.4440 C   0  0  0  0  0  0  0  0  0  0  0  0
  133.7990  126.1020   62.6440 H   0  0  0  0  0  0  0  0  0  0  0  0
  132.1950  126.6300   62.3090 H   0  0  0  0  0  0  0  0  0  0  0  0
  129.7910  125.4650   65.6530 H   0  0  0  0  0  0  0  0  0  0  0  0
  130.4745  128.2082   69.9523 H   0  0  0  0  0  0  0  0  0  0  0  0
  128.7792  129.6665   68.6041 H   0  0  0  0  0  0  0  0  0  0  0  0
  129.4931  119.4446   62.1556 H   0  0  0  0  0  0  0  0  0  0  0  0
  128.9953  117.1122   61.4543 H   0  0  0  0  0  0  0  0  0  0  0  0
  130.6135  115.8696   60.0276 H   0  0  0  0  0  0  0  0  0  0  0  0
  132.7321  116.9551   59.2981 H   0  0  0  0  0  0  0  0  0  0  0  0
  133.2319  119.2900   59.9905 H   0  0  0  0  0  0  0  0  0  0  0  0
  132.5258  121.5825   59.6570 H   0  0  0  0  0  0  0  0  0  0  0  0
  1  2  1  0
  2  3  2  0
  3  4  1  0
  4  5  2  0
  4  6  1  0
  6  7  1  0
  7  8  2  0
  8  9  1  0
  9 10  2  0
 10 11  1  0
  3 12  1  0
 12 13  1  0
 13 14  2  0
 14 15  1  0
 15 16  1  0
 16 17  2  0
 17 18  1  0
 18 19  2  0
 19 20  1  0
 20 21  2  0
 15 22  2  0
 22 23  1  0
 23 24  1  0
 24 25  1  0
 24 26  1  0
 24 27  1  0
 23 28  2  0
 28  2  1  0
 11  7  1  0
 28 13  1  0
 21 16  1  0
  1 29  1  0
  1 30  1  0
  6 31  1  0
  9 32  1  0
 10 33  1  0
 17 34  1  0
 18 35  1  0
 19 36  1  0
 20 37  1  0
 21 38  1  0
 22 39  1  0
M  END
>  <Binding energies>  (1) 
[-7.48]

>  <Ligand effiencies>  (1) 
[-0.24129032258064517]

>  <Interactions>  (1) 
["V-A:GLU:543:CB:4905, V-B:TYR:539:CD2:9845, V-B:TYR:539:CZ:9848, V-A:HIS:456:CE1:4069, V-B:TYR:539:C:9838, V-A:GLU:543:CD:4907, V-A:GLU:543:CG:4906, V-B:TYR:539:CE2:9847, V-B:GLU:543:CD:9879, V-A:ASP:366:CG:3212, V-A:ASP:366:CA:3209, V-A:ASP:366:CB:3211, V-A:TYR:484:CZ:4346, H-A:ARG:545:NE:4923, V-A:ILE:369:CG2:3236, V-A:ARG:545:CZ:4925, V-B:ALA:541:CB:9863, H-A:ARG:545:NH2:4927, V-A:ILE:369:CD1:3238, V-A:LEU:475:CD2:4258, V-A:HIS:383:CE1:3393, V-A:PRO:482:CG:4326, V-B:TYR:539:CB:9842, V-A:ILE:369:CB:3235, H-A:TYR:484:OH:4347, V-A:PRO:482:CB:4325, H-A:ASP:366:OD1:3213, H-A:ASP:366:OD2:3214, V-B:VAL:344:CG1:7971, H-B:GLU:543:OE2:9881, V-A:ILE:369:CG1:3237"]

$$$$
4ck_Grossjean_2025
     RDKit          3D

 57 59  0  0  0  0  0  0  0  0999 V2000
  130.6760  124.3090   74.3440 C   0  0  0  0  0  0  0  0  0  0  0  0
  129.4620  125.0060   74.5780 O   0  0  0  0  0  0  0  0  0  0  0  0
  128.6160  125.0660   73.4390 C   0  0  0  0  0  0  0  0  0  0  0  0
  128.5250  126.5190   72.9580 C   0  0  0  0  0  0  0  0  0  0  0  0
  127.5340  126.6110   71.9440 O   0  0  0  0  0  0  0  0  0  0  0  0
  127.9660  126.1190   70.6820 C   0  0  0  0  0  0  0  0  0  0  0  0
  129.1290  126.9830   70.1770 C   0  0  0  0  0  0  0  0  0  0  0  0
  129.0580  127.0630   68.7600 O   0  0  0  0  0  0  0  0  0  0  0  0
  130.2930  126.7990   68.1070 C   0  0  0  0  0  0  0  0  0  0  0  0
  130.2180  127.2800   66.6490 C   0  0  0  0  0  0  0  0  0  0  0  0
  130.5400  126.2130   65.7010 N   0  0  0  0  0  0  0  0  0  0  0  0
  131.7360  125.6010   65.5760 C   0  0  0  0  0  0  0  0  0  0  0  0
  132.7000  125.8720   66.2940 O   0  0  0  0  0  0  0  0  0  0  0  0
  131.8240  124.5760   64.5350 C   0  0  0  0  0  0  0  0  0  0  0  0
  131.2060  122.9550   64.8380 S   0  0  0  0  0  0  0  0  0  0  0  0
  131.6150  122.4500   63.2150 C   0  0  0  0  0  0  0  0  0  0  0  0
  131.3720  121.2130   62.7900 N   0  0  0  0  0  0  0  0  0  0  0  0
  131.7260  120.9120   61.5130 C   0  0  0  0  0  0  0  0  0  0  0  0
  131.4220  119.5140   61.0590 C   0  0  0  0  0  0  0  0  0  0  0  0
  132.2610  118.8550   60.1460 C   0  0  0  0  0  0  0  0  0  0  0  0
  131.9830  117.5590   59.7180 C   0  0  0  0  0  0  0  0  0  0  0  0
  130.8570  116.9000   60.2010 C   0  0  0  0  0  0  0  0  0  0  0  0
  130.0120  117.5270   61.1100 C   0  0  0  0  0  0  0  0  0  0  0  0
  130.2940  118.8230   61.5350 C   0  0  0  0  0  0  0  0  0  0  0  0
  132.3140  121.8580   60.6670 C   0  0  0  0  0  0  0  0  0  0  0  0
  132.5760  123.1660   61.1060 C   0  0  0  0  0  0  0  0  0  0  0  0
  133.2270  124.1510   60.1270 C   0  0  0  0  0  0  0  0  0  0  0  0
  134.4040  124.6110   60.5530 F   0  0  0  0  0  0  0  0  0  0  0  0
  133.4330  123.5520   58.9550 F   0  0  0  0  0  0  0  0  0  0  0  0
  132.4270  125.2030   59.9500 F   0  0  0  0  0  0  0  0  0  0  0  0
  132.2110  123.4910   62.4440 C   0  0  0  0  0  0  0  0  0  0  0  0
  132.3110  124.7000   63.2250 C   0  0  0  0  0  0  0  0  0  0  0  0
  132.8390  125.8640   62.7280 N   0  0  0  0  0  0  0  0  0  0  0  0
  131.1379  124.0438   75.3064 H   0  0  0  0  0  0  0  0  0  0  0  0
  130.4683  123.3926   73.7721 H   0  0  0  0  0  0  0  0  0  0  0  0
  131.3627  124.9504   73.7721 H   0  0  0  0  0  0  0  0  0  0  0  0
  129.0322  124.4380   72.6375 H   0  0  0  0  0  0  0  0  0  0  0  0
  127.6130  124.6992   73.7025 H   0  0  0  0  0  0  0  0  0  0  0  0
  128.2508  127.1699   73.8013 H   0  0  0  0  0  0  0  0  0  0  0  0
  129.4978  126.8383   72.5560 H   0  0  0  0  0  0  0  0  0  0  0  0
  128.3007  125.0766   70.7881 H   0  0  0  0  0  0  0  0  0  0  0  0
  127.1341  126.1612   69.9636 H   0  0  0  0  0  0  0  0  0  0  0  0
  129.0545  127.9921   70.6085 H   0  0  0  0  0  0  0  0  0  0  0  0
  130.0868  126.5340   70.4786 H   0  0  0  0  0  0  0  0  0  0  0  0
  131.1032  127.3312   68.6269 H   0  0  0  0  0  0  0  0  0  0  0  0
  130.4922  125.7173   68.1252 H   0  0  0  0  0  0  0  0  0  0  0  0
  129.1984  127.6394   66.4459 H   0  0  0  0  0  0  0  0  0  0  0  0
  130.9574  128.0839   66.5187 H   0  0  0  0  0  0  0  0  0  0  0  0
  129.7730  125.8750   65.1380 H   0  0  0  0  0  0  0  0  0  0  0  0
  133.1533  119.3712   59.7621 H   0  0  0  0  0  0  0  0  0  0  0  0
  132.6508  117.0588   59.0012 H   0  0  0  0  0  0  0  0  0  0  0  0
  130.6340  115.8776   59.8620 H   0  0  0  0  0  0  0  0  0  0  0  0
  129.1243  117.0015   61.4919 H   0  0  0  0  0  0  0  0  0  0  0  0
  129.6230  119.3141   62.2551 H   0  0  0  0  0  0  0  0  0  0  0  0
  132.5763  121.5719   59.6378 H   0  0  0  0  0  0  0  0  0  0  0  0
  133.8360  126.0170   62.6650 H   0  0  0  0  0  0  0  0  0  0  0  0
  132.2440  126.6130   62.4000 H   0  0  0  0  0  0  0  0  0  0  0  0
  1  2  1  0
  2  3  1  0
  3  4  1  0
  4  5  1  0
  5  6  1  0
  6  7  1  0
  7  8  1  0
  8  9  1  0
  9 10  1  0
 10 11  1  0
 11 12  1  0
 12 13  2  0
 12 14  1  0
 14 15  1  0
 15 16  1  0
 16 17  2  0
 17 18  1  0
 18 19  1  0
 19 20  2  0
 20 21  1  0
 21 22  2  0
 22 23  1  0
 23 24  2  0
 18 25  2  0
 25 26  1  0
 26 27  1  0
 27 28  1  0
 27 29  1  0
 27 30  1  0
 26 31  2  0
 31 32  1  0
 32 33  1  0
 32 14  2  0
 31 16  1  0
 24 19  1  0
  1 34  1  0
  1 35  1  0
  1 36  1  0
  3 37  1  0
  3 38  1  0
  4 39  1  0
  4 40  1  0
  6 41  1  0
  6 42  1  0
  7 43  1  0
  7 44  1  0
  9 45  1  0
  9 46  1  0
 10 47  1  0
 10 48  1  0
 11 49  1  0
 20 50  1  0
 21 51  1  0
 22 52  1  0
 23 53  1  0
 24 54  1  0
 25 55  1  0
 33 56  1  0
 33 57  1  0
M  END
>  <Binding energies>  (1) 
[-6.92]

>  <Ligand effiencies>  (1) 
[-0.1922222222222222]

>  <Interactions>  (1) 
["V-B:GLU:543:CB:9877, V-B:TYR:539:CD2:9845, V-B:TYR:539:CZ:9848, V-A:HIS:456:CE1:4069, V-B:TYR:539:C:9838, V-A:GLU:543:CD:4907, V-B:TYR:539:CE2:9847, V-A:ASP:366:CG:3212, V-B:LYS:547:CE:9921, V-B:GLU:543:C:9873, V-A:ASP:366:CA:3209, V-A:ASP:366:CB:3211, V-A:HIS:456:CD2:4067, H-B:LYS:547:NZ:9922, V-A:TYR:484:CZ:4346, V-A:ILE:369:CG2:3236, V-A:ARG:545:CZ:4925, V-B:ALA:541:CB:9863, V-A:ILE:369:CD1:3238, V-A:LEU:475:CD2:4258, V-A:HIS:383:CE1:3393, V-A:PRO:482:CG:4326, V-B:TYR:539:CB:9842, V-A:ILE:369:CB:3235, H-A:TYR:484:OH:4347, V-A:PRO:482:CB:4325, H-A:ASP:366:OD1:3213, H-A:ASP:366:OD2:3214, V-B:VAL:344:CG1:7971, H-B:GLU:543:OE2:9881, V-A:ILE:369:CG1:3237, V-A:HIS:456:CG:4065"]

$$$$
4dd_Grossjean_2025
     RDKit          3D

 43 46  0  0  0  0  0  0  0  0999 V2000
  133.7040  124.2190   60.5230 C   0  0  0  0  0  0  0  0  0  0  0  0
  132.8810  123.2730   61.3840 C   0  0  0  0  0  0  0  0  0  0  0  0
  132.6260  121.9860   60.8940 C   0  0  0  0  0  0  0  0  0  0  0  0
  131.8750  121.0680   61.6380 C   0  0  0  0  0  0  0  0  0  0  0  0
  131.5820  119.6850   61.1360 C   0  0  0  0  0  0  0  0  0  0  0  0
  132.4590  119.0420   60.2460 C   0  0  0  0  0  0  0  0  0  0  0  0
  132.1940  117.7580   59.7780 C   0  0  0  0  0  0  0  0  0  0  0  0
  131.0440  117.0960   60.1930 C   0  0  0  0  0  0  0  0  0  0  0  0
  130.1590  117.7080   61.0740 C   0  0  0  0  0  0  0  0  0  0  0  0
  130.4290  118.9920   61.5420 C   0  0  0  0  0  0  0  0  0  0  0  0
  131.3540  121.3850   62.8550 N   0  0  0  0  0  0  0  0  0  0  0  0
  131.6000  122.6060   63.3260 C   0  0  0  0  0  0  0  0  0  0  0  0
  131.0060  123.1390   64.8820 S   0  0  0  0  0  0  0  0  0  0  0  0
  131.7560  124.7240   64.6790 C   0  0  0  0  0  0  0  0  0  0  0  0
  131.6420  125.7380   65.7290 C   0  0  0  0  0  0  0  0  0  0  0  0
  132.4800  126.6350   65.8290 O   0  0  0  0  0  0  0  0  0  0  0  0
  130.5660  125.6110   66.5440 N   0  0  0  0  0  0  0  0  0  0  0  0
  130.1970  126.3750   67.6660 C   0  0  0  0  0  0  0  0  0  0  0  0
  129.3900  125.7280   68.6070 C   0  0  0  0  0  0  0  0  0  0  0  0
  128.9830  126.3940   69.7600 C   0  0  0  0  0  0  0  0  0  0  0  0
  129.3890  127.7080   69.9770 C   0  0  0  0  0  0  0  0  0  0  0  0
  130.2030  128.3600   69.0540 C   0  0  0  0  0  0  0  0  0  0  0  0
  130.6120  127.6960   67.9010 C   0  0  0  0  0  0  0  0  0  0  0  0
  132.4260  124.8120   63.4480 C   0  0  0  0  0  0  0  0  0  0  0  0
  133.0960  125.9320   63.0220 N   0  0  0  0  0  0  0  0  0  0  0  0
  132.3540  123.6120   62.6570 C   0  0  0  0  0  0  0  0  0  0  0  0
  134.2877  124.8899   61.1704 H   0  0  0  0  0  0  0  0  0  0  0  0
  134.3873  123.6361   59.8880 H   0  0  0  0  0  0  0  0  0  0  0  0
  133.0321  124.8151   59.8880 H   0  0  0  0  0  0  0  0  0  0  0  0
  133.0214  121.6922   59.9105 H   0  0  0  0  0  0  0  0  0  0  0  0
  133.3697  119.5617   59.9137 H   0  0  0  0  0  0  0  0  0  0  0  0
  132.8919  117.2690   59.0824 H   0  0  0  0  0  0  0  0  0  0  0  0
  130.8329  116.0821   59.8223 H   0  0  0  0  0  0  0  0  0  0  0  0
  129.2502  117.1808   61.3997 H   0  0  0  0  0  0  0  0  0  0  0  0
  129.7279  119.4714   62.2410 H   0  0  0  0  0  0  0  0  0  0  0  0
  129.9210  124.8700   66.3140 H   0  0  0  0  0  0  0  0  0  0  0  0
  129.0753  124.6880   68.4355 H   0  0  0  0  0  0  0  0  0  0  0  0
  128.3437  125.8844   70.4960 H   0  0  0  0  0  0  0  0  0  0  0  0
  129.0639  128.2359   70.8856 H   0  0  0  0  0  0  0  0  0  0  0  0
  130.5219  129.3970   69.2357 H   0  0  0  0  0  0  0  0  0  0  0  0
  131.2605  128.2061   67.1736 H   0  0  0  0  0  0  0  0  0  0  0  0
  134.1050  125.9740   63.0000 H   0  0  0  0  0  0  0  0  0  0  0  0
  132.5980  126.7530   62.7100 H   0  0  0  0  0  0  0  0  0  0  0  0
  1  2  1  0
  2  3  2  0
  3  4  1  0
  4  5  1  0
  5  6  2  0
  6  7  1  0
  7  8  2  0
  8  9  1  0
  9 10  2  0
  4 11  2  0
 11 12  1  0
 12 13  1  0
 13 14  1  0
 14 15  1  0
 15 16  2  0
 15 17  1  0
 17 18  1  0
 18 19  2  0
 19 20  1  0
 20 21  2  0
 21 22  1  0
 22 23  2  0
 14 24  2  0
 24 25  1  0
 24 26  1  0
 26  2  1  0
 10  5  1  0
 26 12  2  0
 23 18  1  0
  1 27  1  0
  1 28  1  0
  1 29  1  0
  3 30  1  0
  6 31  1  0
  7 32  1  0
  8 33  1  0
  9 34  1  0
 10 35  1  0
 17 36  1  0
 19 37  1  0
 20 38  1  0
 21 39  1  0
 22 40  1  0
 23 41  1  0
 25 42  1  0
 25 43  1  0
M  END
>  <Binding energies>  (1) 
[-8.77]

>  <Ligand effiencies>  (1) 
[-0.30241379310344824]

>  <Interactions>  (1) 
["V-B:GLU:543:CB:9877, V-A:GLU:543:CB:4905, V-B:TYR:539:CD2:9845, V-B:HIS:456:CE1:9040, V-A:HIS:456:CE1:4069, V-B:TYR:539:C:9838, V-A:GLU:543:CD:4907, V-B:TYR:539:CE2:9847, V-B:GLU:543:CD:9879, V-A:ASP:366:CG:3212, V-A:ASP:366:CB:3211, V-B:GLU:543:CG:9878, V-A:TYR:484:CZ:4346, H-A:ARG:545:NE:4923, V-A:ILE:369:CG2:3236, V-A:ARG:545:CZ:4925, V-A:TYR:484:CE2:4345, V-B:ALA:541:CB:9863, H-A:ARG:545:NH2:4927, V-A:ILE:369:CD1:3238, V-A:LEU:475:CD2:4258, V-A:HIS:383:CE1:3393, V-A:PRO:482:CG:4326, V-B:TYR:539:CB:9842, H-A:TYR:484:OH:4347, V-A:PRO:482:CB:4325, H-A:ASP:366:OD1:3213, H-A:ASP:366:OD2:3214, H-B:GLU:543:OE2:9881"]

$$$$
4dg_Grossjean_2025
     RDKit          3D

 46 49  0  0  0  0  0  0  0  0999 V2000
  133.6830  124.2570   60.4850 C   0  0  0  0  0  0  0  0  0  0  0  0
  132.8760  123.3270   61.3780 C   0  0  0  0  0  0  0  0  0  0  0  0
  132.5860  122.0430   60.9030 C   0  0  0  0  0  0  0  0  0  0  0  0
  131.8470  121.1390   61.6770 C   0  0  0  0  0  0  0  0  0  0  0  0
  131.5210  119.7540   61.1940 C   0  0  0  0  0  0  0  0  0  0  0  0
  132.3980  119.0620   60.3430 C   0  0  0  0  0  0  0  0  0  0  0  0
  132.0980  117.7790   59.8900 C   0  0  0  0  0  0  0  0  0  0  0  0
  130.9130  117.1670   60.2830 C   0  0  0  0  0  0  0  0  0  0  0  0
  130.0240  117.8310   61.1220 C   0  0  0  0  0  0  0  0  0  0  0  0
  130.3270  119.1130   61.5720 C   0  0  0  0  0  0  0  0  0  0  0  0
  131.3980  121.4590   62.9210 N   0  0  0  0  0  0  0  0  0  0  0  0
  131.6730  122.6820   63.3740 C   0  0  0  0  0  0  0  0  0  0  0  0
  131.1500  123.2230   64.9520 S   0  0  0  0  0  0  0  0  0  0  0  0
  131.9000  124.8000   64.7070 C   0  0  0  0  0  0  0  0  0  0  0  0
  131.7840  125.8360   65.7320 C   0  0  0  0  0  0  0  0  0  0  0  0
  132.7470  126.1610   66.4290 O   0  0  0  0  0  0  0  0  0  0  0  0
  130.5570  126.3760   65.8870 N   0  0  0  0  0  0  0  0  0  0  0  0
  130.2130  127.4390   66.8320 C   0  0  0  0  0  0  0  0  0  0  0  0
  129.5750  126.9230   68.1170 C   0  0  0  0  0  0  0  0  0  0  0  0
  129.6830  125.5690   68.4510 C   0  0  0  0  0  0  0  0  0  0  0  0
  129.1290  125.1010   69.6390 C   0  0  0  0  0  0  0  0  0  0  0  0
  128.4800  125.9880   70.4950 C   0  0  0  0  0  0  0  0  0  0  0  0
  128.3850  127.3410   70.1770 C   0  0  0  0  0  0  0  0  0  0  0  0
  128.9390  127.8100   68.9890 C   0  0  0  0  0  0  0  0  0  0  0  0
  132.5080  124.8850   63.4460 C   0  0  0  0  0  0  0  0  0  0  0  0
  133.1550  126.0030   62.9840 N   0  0  0  0  0  0  0  0  0  0  0  0
  132.4020  123.6800   62.6680 C   0  0  0  0  0  0  0  0  0  0  0  0
  134.2766  124.9411   61.1093 H   0  0  0  0  0  0  0  0  0  0  0  0
  134.3564  123.6626   59.8500 H   0  0  0  0  0  0  0  0  0  0  0  0
  132.9997  124.8399   59.8500 H   0  0  0  0  0  0  0  0  0  0  0  0
  132.9433  121.7393   59.9080 H   0  0  0  0  0  0  0  0  0  0  0  0
  133.3372  119.5408   60.0289 H   0  0  0  0  0  0  0  0  0  0  0  0
  132.7965  117.2519   59.2235 H   0  0  0  0  0  0  0  0  0  0  0  0
  130.6773  116.1527   59.9287 H   0  0  0  0  0  0  0  0  0  0  0  0
  129.0859  117.3452   61.4285 H   0  0  0  0  0  0  0  0  0  0  0  0
  129.6205  119.6340   62.2348 H   0  0  0  0  0  0  0  0  0  0  0  0
  129.8360  126.1180   65.2290 H   0  0  0  0  0  0  0  0  0  0  0  0
  131.1320  127.9842   67.0934 H   0  0  0  0  0  0  0  0  0  0  0  0
  129.4725  128.0855   66.3384 H   0  0  0  0  0  0  0  0  0  0  0  0
  130.2050  124.8751   67.7757 H   0  0  0  0  0  0  0  0  0  0  0  0
  129.2033  124.0352   69.9009 H   0  0  0  0  0  0  0  0  0  0  0  0
  128.0382  125.6164   71.4313 H   0  0  0  0  0  0  0  0  0  0  0  0
  127.8749  128.0352   70.8610 H   0  0  0  0  0  0  0  0  0  0  0  0
  128.8759  128.8789   68.7370 H   0  0  0  0  0  0  0  0  0  0  0  0
  134.1620  126.0660   62.9600 H   0  0  0  0  0  0  0  0  0  0  0  0
  132.6390  126.8040   62.6440 H   0  0  0  0  0  0  0  0  0  0  0  0
  1  2  1  0
  2  3  2  0
  3  4  1  0
  4  5  1  0
  5  6  2  0
  6  7  1  0
  7  8  2  0
  8  9  1  0
  9 10  2  0
  4 11  2  0
 11 12  1  0
 12 13  1  0
 13 14  1  0
 14 15  1  0
 15 16  2  0
 15 17  1  0
 17 18  1  0
 18 19  1  0
 19 20  2  0
 20 21  1  0
 21 22  2  0
 22 23  1  0
 23 24  2  0
 14 25  2  0
 25 26  1  0
 25 27  1  0
 27  2  1  0
 10  5  1  0
 27 12  2  0
 24 19  1  0
  1 28  1  0
  1 29  1  0
  1 30  1  0
  3 31  1  0
  6 32  1  0
  7 33  1  0
  8 34  1  0
  9 35  1  0
 10 36  1  0
 17 37  1  0
 18 38  1  0
 18 39  1  0
 20 40  1  0
 21 41  1  0
 22 42  1  0
 23 43  1  0
 24 44  1  0
 26 45  1  0
 26 46  1  0
M  END
>  <Binding energies>  (1) 
[-8.65]

>  <Ligand effiencies>  (1) 
[-0.28833333333333333]

>  <Interactions>  (1) 
["V-B:GLU:543:CB:9877, V-B:TYR:539:CD2:9845, V-B:HIS:456:CE1:9040, V-A:HIS:456:CE1:4069, V-B:TYR:539:C:9838, V-A:GLU:543:CD:4907, V-B:TYR:539:CE2:9847, V-B:GLU:543:CD:9879, V-A:ASP:366:CG:3212, V-B:GLU:543:C:9873, V-A:ASP:366:CB:3211, V-A:HIS:456:CD2:4067, V-A:TYR:484:CZ:4346, H-A:ARG:545:NE:4923, V-A:ILE:369:CG2:3236, V-A:ARG:545:CZ:4925, V-A:TYR:484:CE2:4345, V-B:ALA:541:CB:9863, V-A:ILE:369:CD1:3238, V-A:LEU:475:CD2:4258, V-A:HIS:383:CE1:3393, V-A:PRO:482:CG:4326, V-B:TYR:539:CB:9842, H-A:TYR:484:OH:4347, V-A:PRO:482:CB:4325, H-A:ASP:366:OD1:3213, H-A:ASP:366:OD2:3214, V-B:GLU:543:CA:9875, H-B:GLU:543:OE2:9881, V-A:TYR:484:CD2:4343"]

$$$$
4dj_Grossjean_2025
     RDKit          3D

 39 42  0  0  0  0  0  0  0  0999 V2000
  133.8620  124.2040   60.4790 C   0  0  0  0  0  0  0  0  0  0  0  0
  133.0360  123.2730   61.3530 C   0  0  0  0  0  0  0  0  0  0  0  0
  132.7510  121.9910   60.8670 C   0  0  0  0  0  0  0  0  0  0  0  0
  131.9950  121.0870   61.6220 C   0  0  0  0  0  0  0  0  0  0  0  0
  131.6780  119.7040   61.1290 C   0  0  0  0  0  0  0  0  0  0  0  0
  130.5350  119.0230   61.5790 C   0  0  0  0  0  0  0  0  0  0  0  0
  130.2360  117.7400   61.1260 C   0  0  0  0  0  0  0  0  0  0  0  0
  131.0820  117.1160   60.2140 C   0  0  0  0  0  0  0  0  0  0  0  0
  132.2220  117.7660   59.7550 C   0  0  0  0  0  0  0  0  0  0  0  0
  132.5170  119.0470   60.2100 C   0  0  0  0  0  0  0  0  0  0  0  0
  131.5210  121.4030   62.8580 N   0  0  0  0  0  0  0  0  0  0  0  0
  131.7900  122.6230   63.3220 C   0  0  0  0  0  0  0  0  0  0  0  0
  131.2360  123.1630   64.8910 S   0  0  0  0  0  0  0  0  0  0  0  0
  131.9950  124.7400   64.6680 C   0  0  0  0  0  0  0  0  0  0  0  0
  131.8900  125.7650   65.7080 C   0  0  0  0  0  0  0  0  0  0  0  0
  132.9030  126.2840   66.1850 O   0  0  0  0  0  0  0  0  0  0  0  0
  130.6290  126.0780   66.0940 N   0  0  0  0  0  0  0  0  0  0  0  0
  130.2570  127.0060   67.0560 C   0  0  0  0  0  0  0  0  0  0  0  0
  130.6130  127.0450   68.3220 N   0  0  0  0  0  0  0  0  0  0  0  0
  130.0690  128.0720   68.9470 C   0  0  0  0  0  0  0  0  0  0  0  0
  129.2510  128.8960   68.1810 C   0  0  0  0  0  0  0  0  0  0  0  0
  129.1960  128.2840   66.5540 S   0  0  0  0  0  0  0  0  0  0  0  0
  132.6390  124.8200   63.4240 C   0  0  0  0  0  0  0  0  0  0  0  0
  133.3110  125.9330   62.9820 N   0  0  0  0  0  0  0  0  0  0  0  0
  132.5390  123.6210   62.6360 C   0  0  0  0  0  0  0  0  0  0  0  0
  134.4567  124.8743   61.1170 H   0  0  0  0  0  0  0  0  0  0  0  0
  134.5352  123.6095   59.8439 H   0  0  0  0  0  0  0  0  0  0  0  0
  133.1915  124.8016   59.8439 H   0  0  0  0  0  0  0  0  0  0  0  0
  133.1266  121.6902   59.8778 H   0  0  0  0  0  0  0  0  0  0  0  0
  129.8644  119.5111   62.3015 H   0  0  0  0  0  0  0  0  0  0  0  0
  129.3352  117.2224   61.4875 H   0  0  0  0  0  0  0  0  0  0  0  0
  130.8475  116.1032   59.8545 H   0  0  0  0  0  0  0  0  0  0  0  0
  132.8884  117.2691   59.0346 H   0  0  0  0  0  0  0  0  0  0  0  0
  133.4218  119.5552   59.8451 H   0  0  0  0  0  0  0  0  0  0  0  0
  129.8710  125.5850   65.6440 H   0  0  0  0  0  0  0  0  0  0  0  0
  130.2522  128.2657   70.0142 H   0  0  0  0  0  0  0  0  0  0  0  0
  128.7241  129.7902   68.5454 H   0  0  0  0  0  0  0  0  0  0  0  0
  132.8260  126.7360   62.6110 H   0  0  0  0  0  0  0  0  0  0  0  0
  134.3200  125.9830   63.0140 H   0  0  0  0  0  0  0  0  0  0  0  0
  1  2  1  0
  2  3  2  0
  3  4  1  0
  4  5  1  0
  5  6  2  0
  6  7  1  0
  7  8  2  0
  8  9  1  0
  9 10  2  0
  4 11  2  0
 11 12  1  0
 12 13  1  0
 13 14  1  0
 14 15  1  0
 15 16  2  0
 15 17  1  0
 17 18  1  0
 18 19  2  0
 19 20  1  0
 20 21  2  0
 21 22  1  0
 14 23  2  0
 23 24  1  0
 23 25  1  0
 25  2  1  0
 10  5  1  0
 25 12  2  0
 22 18  1  0
  1 26  1  0
  1 27  1  0
  1 28  1  0
  3 29  1  0
  6 30  1  0
  7 31  1  0
  8 32  1  0
  9 33  1  0
 10 34  1  0
 17 35  1  0
 20 36  1  0
 21 37  1  0
 24 38  1  0
 24 39  1  0
M  END
>  <Binding energies>  (1) 
[-8.22]

>  <Ligand effiencies>  (1) 
[-0.2935714285714286]

>  <Interactions>  (1) 
["V-A:GLU:543:CB:4905, V-B:TYR:539:CD2:9845, V-A:HIS:456:CE1:4069, V-B:TYR:539:C:9838, V-A:GLU:543:CD:4907, V-A:GLU:543:CG:4906, V-B:TYR:539:CE2:9847, V-A:ASP:366:CG:3212, V-A:ASP:366:CA:3209, V-A:ASP:366:CB:3211, V-A:TYR:484:CZ:4346, H-A:ARG:545:NE:4923, V-A:ILE:369:CG2:3236, V-A:ARG:545:CZ:4925, V-B:ALA:541:CB:9863, V-A:ILE:369:CD1:3238, V-A:LEU:475:CD2:4258, V-A:HIS:383:CE1:3393, V-A:PRO:482:CG:4326, V-B:TYR:539:CB:9842, V-A:ILE:369:CB:3235, H-A:TYR:484:OH:4347, V-A:PRO:482:CB:4325, H-A:ASP:366:OD1:3213, H-A:ASP:366:OD2:3214, H-B:GLU:543:OE2:9881, V-A:ILE:369:CG1:3237"]

$$$$
4ea_Grossjean_2025
     RDKit          3D

 52 55  0  0  0  0  0  0  0  0999 V2000
  130.5560  117.4860   60.7920 C   0  0  0  0  0  0  0  0  0  0  0  0
  131.9900  117.9690   61.0230 C   0  0  0  0  0  0  0  0  0  0  0  0
  132.1610  119.2460   60.4220 O   0  0  0  0  0  0  0  0  0  0  0  0
  133.1560  120.0810   60.8190 C   0  0  0  0  0  0  0  0  0  0  0  0
  134.3370  119.9340   60.4900 O   0  0  0  0  0  0  0  0  0  0  0  0
  132.6760  121.2010   61.6960 C   0  0  0  0  0  0  0  0  0  0  0  0
  133.2410  121.3620   62.9680 C   0  0  0  0  0  0  0  0  0  0  0  0
  132.8180  122.3900   63.8060 C   0  0  0  0  0  0  0  0  0  0  0  0
  131.8230  123.2770   63.3910 C   0  0  0  0  0  0  0  0  0  0  0  0
  131.4760  124.2760   64.3210 N   0  0  0  0  0  0  0  0  0  0  0  0
  132.2380  125.2300   64.9110 C   0  0  0  0  0  0  0  0  0  0  0  0
  133.4430  125.3780   64.7090 O   0  0  0  0  0  0  0  0  0  0  0  0
  131.5260  126.1100   65.8410 C   0  0  0  0  0  0  0  0  0  0  0  0
  132.1060  126.3210   67.4950 S   0  0  0  0  0  0  0  0  0  0  0  0
  130.8000  127.4230   67.8650 C   0  0  0  0  0  0  0  0  0  0  0  0
  130.6700  127.9820   69.0690 N   0  0  0  0  0  0  0  0  0  0  0  0
  129.6140  128.8180   69.2270 C   0  0  0  0  0  0  0  0  0  0  0  0
  129.4840  129.4430   70.6030 C   0  0  0  0  0  0  0  0  0  0  0  0
  128.6950  129.1040   68.2190 C   0  0  0  0  0  0  0  0  0  0  0  0
  128.8360  128.5150   66.9580 C   0  0  0  0  0  0  0  0  0  0  0  0
  127.8520  128.8290   65.8980 C   0  0  0  0  0  0  0  0  0  0  0  0
  126.4940  128.5540   66.0940 C   0  0  0  0  0  0  0  0  0  0  0  0
  125.5680  128.8520   65.0990 C   0  0  0  0  0  0  0  0  0  0  0  0
  126.0000  129.4210   63.9030 C   0  0  0  0  0  0  0  0  0  0  0  0
  127.3490  129.6950   63.6950 C   0  0  0  0  0  0  0  0  0  0  0  0
  128.2750  129.3970   64.6920 C   0  0  0  0  0  0  0  0  0  0  0  0
  129.9310  127.6320   66.7520 C   0  0  0  0  0  0  0  0  0  0  0  0
  130.3680  126.8710   65.6100 C   0  0  0  0  0  0  0  0  0  0  0  0
  129.7010  126.9000   64.4130 N   0  0  0  0  0  0  0  0  0  0  0  0
  131.2520  123.1230   62.1180 C   0  0  0  0  0  0  0  0  0  0  0  0
  131.6760  122.0940   61.2820 C   0  0  0  0  0  0  0  0  0  0  0  0
  130.0642  117.3203   61.7619 H   0  0  0  0  0  0  0  0  0  0  0  0
  130.0000  118.2464   60.2241 H   0  0  0  0  0  0  0  0  0  0  0  0
  130.5733  116.5441   60.2241 H   0  0  0  0  0  0  0  0  0  0  0  0
  132.1827  118.0432   62.1035 H   0  0  0  0  0  0  0  0  0  0  0  0
  132.6952  117.2542   60.5738 H   0  0  0  0  0  0  0  0  0  0  0  0
  134.0258  120.6700   63.3075 H   0  0  0  0  0  0  0  0  0  0  0  0
  133.2708  122.5042   64.8019 H   0  0  0  0  0  0  0  0  0  0  0  0
  130.5010  124.2720   64.5810 H   0  0  0  0  0  0  0  0  0  0  0  0
  129.6442  128.6730   71.3721 H   0  0  0  0  0  0  0  0  0  0  0  0
  130.2361  130.2375   70.7174 H   0  0  0  0  0  0  0  0  0  0  0  0
  128.4775  129.8717   70.7174 H   0  0  0  0  0  0  0  0  0  0  0  0
  127.8596  129.7923   68.4148 H   0  0  0  0  0  0  0  0  0  0  0  0
  126.1573  128.1006   67.0380 H   0  0  0  0  0  0  0  0  0  0  0  0
  124.5002  128.6394   65.2560 H   0  0  0  0  0  0  0  0  0  0  0  0
  125.2685  129.6559   63.1158 H   0  0  0  0  0  0  0  0  0  0  0  0
  127.6820  130.1446   62.7479 H   0  0  0  0  0  0  0  0  0  0  0  0
  129.3422  129.6091   64.5303 H   0  0  0  0  0  0  0  0  0  0  0  0
  128.7700  126.5190   64.3110 H   0  0  0  0  0  0  0  0  0  0  0  0
  130.1190  127.3050   63.5860 H   0  0  0  0  0  0  0  0  0  0  0  0
  130.4680  123.8168   61.7804 H   0  0  0  0  0  0  0  0  0  0  0  0
  131.2224  121.9797   60.2864 H   0  0  0  0  0  0  0  0  0  0  0  0
  1  2  1  0
  2  3  1  0
  3  4  1  0
  4  5  2  0
  4  6  1  0
  6  7  2  0
  7  8  1  0
  8  9  2  0
  9 10  1  0
 10 11  1  0
 11 12  2  0
 11 13  1  0
 13 14  1  0
 14 15  1  0
 15 16  2  0
 16 17  1  0
 17 18  1  0
 17 19  2  0
 19 20  1  0
 20 21  1  0
 21 22  2  0
 22 23  1  0
 23 24  2  0
 24 25  1  0
 25 26  2  0
 20 27  2  0
 27 28  1  0
 28 29  1  0
  9 30  1  0
 30 31  2  0
 31  6  1  0
 28 13  2  0
 27 15  1  0
 26 21  1  0
  1 32  1  0
  1 33  1  0
  1 34  1  0
  2 35  1  0
  2 36  1  0
  7 37  1  0
  8 38  1  0
 10 39  1  0
 18 40  1  0
 18 41  1  0
 18 42  1  0
 19 43  1  0
 22 44  1  0
 23 45  1  0
 24 46  1  0
 25 47  1  0
 26 48  1  0
 29 49  1  0
 29 50  1  0
 30 51  1  0
 31 52  1  0
M  END
>  <Binding energies>  (1) 
[-7.4]

>  <Ligand effiencies>  (1) 
[-0.21764705882352942]

>  <Interactions>  (1) 
["V-A:GLU:543:CB:4905, V-B:TYR:539:CD2:9845, V-B:HIS:456:CE1:9040, V-A:HIS:456:CE1:4069, V-A:GLU:543:CD:4907, V-A:GLU:543:CG:4906, V-B:TYR:539:CE2:9847, V-B:GLU:543:CD:9879, V-B:ARG:545:CZ:9897, V-A:TYR:484:CZ:4346, V-A:ILE:369:CG2:3236, V-A:SER:385:CA:3406, V-A:SER:385:CB:3408, H-A:GLY:454:N:4049, H-A:ARG:545:NH2:4927, V-A:LEU:475:CD2:4258, V-A:HIS:383:CE1:3393, V-A:PRO:482:CG:4326, V-B:TYR:539:CB:9842, H-A:TYR:484:OH:4347, V-A:PRO:482:CB:4325, V-A:GLY:454:CA:4048, H-B:GLU:543:OE2:9881, V-A:GLU:543:C:4901, H-B:GLU:543:OE1:9880"]

$$$$
4eb_Grossjean_2025
     RDKit          3D

 49 52  0  0  0  0  0  0  0  0999 V2000
  131.8840  117.8630   59.9410 C   0  0  0  0  0  0  0  0  0  0  0  0
  131.8150  119.0170   60.7660 O   0  0  0  0  0  0  0  0  0  0  0  0
  132.8450  119.9010   60.8180 C   0  0  0  0  0  0  0  0  0  0  0  0
  133.8800  119.7790   60.1570 O   0  0  0  0  0  0  0  0  0  0  0  0
  132.5990  121.0430   61.7620 C   0  0  0  0  0  0  0  0  0  0  0  0
  131.3040  121.2580   62.2510 C   0  0  0  0  0  0  0  0  0  0  0  0
  131.0430  122.3080   63.1270 C   0  0  0  0  0  0  0  0  0  0  0  0
  132.0690  123.1630   63.5320 C   0  0  0  0  0  0  0  0  0  0  0  0
  131.6890  124.1890   64.4190 N   0  0  0  0  0  0  0  0  0  0  0  0
  132.4200  125.1900   64.9680 C   0  0  0  0  0  0  0  0  0  0  0  0
  133.6200  125.3690   64.7580 O   0  0  0  0  0  0  0  0  0  0  0  0
  131.6810  126.0870   65.8610 C   0  0  0  0  0  0  0  0  0  0  0  0
  132.2210  126.3360   67.5230 S   0  0  0  0  0  0  0  0  0  0  0  0
  130.9000  127.4380   67.8380 C   0  0  0  0  0  0  0  0  0  0  0  0
  130.7380  128.0220   69.0260 N   0  0  0  0  0  0  0  0  0  0  0  0
  129.6750  128.8550   69.1400 C   0  0  0  0  0  0  0  0  0  0  0  0
  129.5090  129.5090   70.5010 C   0  0  0  0  0  0  0  0  0  0  0  0
  128.7790  129.1150   68.1060 C   0  0  0  0  0  0  0  0  0  0  0  0
  128.9530  128.5000   66.8610 C   0  0  0  0  0  0  0  0  0  0  0  0
  127.9930  128.7870   65.7700 C   0  0  0  0  0  0  0  0  0  0  0  0
  128.4500  129.2740   64.5420 C   0  0  0  0  0  0  0  0  0  0  0  0
  127.5470  129.5420   63.5150 C   0  0  0  0  0  0  0  0  0  0  0  0
  126.1870  129.3250   63.7200 C   0  0  0  0  0  0  0  0  0  0  0  0
  125.7220  128.8420   64.9410 C   0  0  0  0  0  0  0  0  0  0  0  0
  126.6250  128.5750   65.9660 C   0  0  0  0  0  0  0  0  0  0  0  0
  130.0570  127.6190   66.7000 C   0  0  0  0  0  0  0  0  0  0  0  0
  130.5260  126.8360   65.5870 C   0  0  0  0  0  0  0  0  0  0  0  0
  129.8880  126.8360   64.3720 N   0  0  0  0  0  0  0  0  0  0  0  0
  133.3690  122.9560   63.0470 C   0  0  0  0  0  0  0  0  0  0  0  0
  133.6280  121.9050   62.1710 C   0  0  0  0  0  0  0  0  0  0  0  0
  131.9378  116.9637   60.5722 H   0  0  0  0  0  0  0  0  0  0  0  0
  130.9873  117.8121   59.3059 H   0  0  0  0  0  0  0  0  0  0  0  0
  132.7804  117.9194   59.3059 H   0  0  0  0  0  0  0  0  0  0  0  0
  130.4862  120.5913   61.9401 H   0  0  0  0  0  0  0  0  0  0  0  0
  130.0211  122.4648   63.5025 H   0  0  0  0  0  0  0  0  0  0  0  0
  130.7150  124.1650   64.6810 H   0  0  0  0  0  0  0  0  0  0  0  0
  129.6975  128.7662   71.2902 H   0  0  0  0  0  0  0  0  0  0  0  0
  130.2252  130.3381   70.5992 H   0  0  0  0  0  0  0  0  0  0  0  0
  128.4841  129.8962   70.5992 H   0  0  0  0  0  0  0  0  0  0  0  0
  127.9358  129.8027   68.2676 H   0  0  0  0  0  0  0  0  0  0  0  0
  129.5252  129.4461   64.3859 H   0  0  0  0  0  0  0  0  0  0  0  0
  127.9066  129.9229   62.5477 H   0  0  0  0  0  0  0  0  0  0  0  0
  125.4732  129.5369   62.9103 H   0  0  0  0  0  0  0  0  0  0  0  0
  124.6460  128.6724   65.0944 H   0  0  0  0  0  0  0  0  0  0  0  0
  126.2615  128.1963   66.9326 H   0  0  0  0  0  0  0  0  0  0  0  0
  130.3530  127.1370   63.5280 H   0  0  0  0  0  0  0  0  0  0  0  0
  128.9270  126.5330   64.2810 H   0  0  0  0  0  0  0  0  0  0  0  0
  134.1847  123.6247   63.3591 H   0  0  0  0  0  0  0  0  0  0  0  0
  134.6501  121.7488   61.7956 H   0  0  0  0  0  0  0  0  0  0  0  0
  1  2  1  0
  2  3  1  0
  3  4  2  0
  3  5  1  0
  5  6  2  0
  6  7  1  0
  7  8  2  0
  8  9  1  0
  9 10  1  0
 10 11  2  0
 10 12  1  0
 12 13  1  0
 13 14  1  0
 14 15  2  0
 15 16  1  0
 16 17  1  0
 16 18  2  0
 18 19  1  0
 19 20  1  0
 20 21  2  0
 21 22  1  0
 22 23  2  0
 23 24  1  0
 24 25  2  0
 19 26  2  0
 26 27  1  0
 27 28  1  0
  8 29  1  0
 29 30  2  0
 30  5  1  0
 27 12  2  0
 26 14  1  0
 25 20  1  0
  1 31  1  0
  1 32  1  0
  1 33  1  0
  6 34  1  0
  7 35  1  0
  9 36  1  0
 17 37  1  0
 17 38  1  0
 17 39  1  0
 18 40  1  0
 21 41  1  0
 22 42  1  0
 23 43  1  0
 24 44  1  0
 25 45  1  0
 28 46  1  0
 28 47  1  0
 29 48  1  0
 30 49  1  0
M  END
>  <Binding energies>  (1) 
[-7.13]

>  <Ligand effiencies>  (1) 
[-0.21606060606060606]

>  <Interactions>  (1) 
["V-A:GLU:543:CB:4905, V-B:TYR:539:CD2:9845, V-B:HIS:456:CE1:9040, V-A:HIS:456:CE1:4069, V-A:GLU:543:CD:4907, V-A:GLU:543:CG:4906, V-B:GLU:543:CD:9879, V-B:ARG:545:CZ:9897, V-A:TYR:484:CZ:4346, V-A:ILE:369:CG2:3236, V-A:SER:385:CA:3406, H-A:GLY:454:N:4049, H-A:ARG:545:NH2:4927, V-A:ARG:545:CG:4921, V-A:ILE:369:CD1:3238, V-A:LEU:475:CD2:4258, V-A:HIS:383:CE1:3393, V-B:TYR:539:CB:9842, H-A:TYR:484:OH:4347, V-A:GLY:454:CA:4048, H-B:GLU:543:OE2:9881, V-A:GLU:543:C:4901, H-B:GLU:543:OE1:9880"]

$$$$
8a_Ghoteimi_2023
     RDKit          3D

 67 71  0  0  0  0  0  0  0  0999 V2000
  134.0770  128.0110   75.4060 C   0  0  0  0  0  0  0  0  0  0  0  0
  132.8250  127.5750   74.6400 C   0  0  0  0  0  0  0  0  0  0  0  0
  131.7230  128.3820   75.0360 O   0  0  0  0  0  0  0  0  0  0  0  0
  130.4440  127.9710   74.8320 C   0  0  0  0  0  0  0  0  0  0  0  0
  129.6810  127.6460   75.7470 O   0  0  0  0  0  0  0  0  0  0  0  0
  130.0520  127.9460   73.3830 C   0  0  0  0  0  0  0  0  0  0  0  0
  130.4110  129.0200   72.5590 C   0  0  0  0  0  0  0  0  0  0  0  0
  130.0620  129.0280   71.2120 C   0  0  0  0  0  0  0  0  0  0  0  0
  129.3460  127.9650   70.6590 C   0  0  0  0  0  0  0  0  0  0  0  0
  129.0440  128.0830   69.2880 N   0  0  0  0  0  0  0  0  0  0  0  0
  128.5880  129.1450   68.5800 C   0  0  0  0  0  0  0  0  0  0  0  0
  128.3460  130.2500   69.0640 O   0  0  0  0  0  0  0  0  0  0  0  0
  128.3930  128.9030   67.1470 C   0  0  0  0  0  0  0  0  0  0  0  0
  127.1220  129.7470   66.2640 S   0  0  0  0  0  0  0  0  0  0  0  0
  127.5490  128.9330   64.7770 C   0  0  0  0  0  0  0  0  0  0  0  0
  126.8790  129.1460   63.6450 N   0  0  0  0  0  0  0  0  0  0  0  0
  127.2890  128.4580   62.5460 C   0  0  0  0  0  0  0  0  0  0  0  0
  126.5100  128.6970   61.2920 C   0  0  0  0  0  0  0  0  0  0  0  0
  125.4140  129.5720   61.2770 C   0  0  0  0  0  0  0  0  0  0  0  0
  124.6870  129.7820   60.1090 C   0  0  0  0  0  0  0  0  0  0  0  0
  125.0360  129.1280   58.9300 C   0  0  0  0  0  0  0  0  0  0  0  0
  124.2550  129.3950   57.8210 O   0  0  0  0  0  0  0  0  0  0  0  0
  124.0330  130.7490   57.4400 C   0  0  0  0  0  0  0  0  0  0  0  0
  126.1340  128.2560   58.9330 C   0  0  0  0  0  0  0  0  0  0  0  0
  126.8580  128.0450   60.1030 C   0  0  0  0  0  0  0  0  0  0  0  0
  128.3650  127.5690   62.5820 C   0  0  0  0  0  0  0  0  0  0  0  0
  129.0820  127.3550   63.7640 C   0  0  0  0  0  0  0  0  0  0  0  0
  130.2390  126.4230   63.7390 C   0  0  0  0  0  0  0  0  0  0  0  0
  131.5070  126.8680   64.1170 C   0  0  0  0  0  0  0  0  0  0  0  0
  132.5900  125.9930   64.1140 C   0  0  0  0  0  0  0  0  0  0  0  0
  132.4230  124.6590   63.7390 C   0  0  0  0  0  0  0  0  0  0  0  0
  133.5530  123.8650   63.7670 O   0  0  0  0  0  0  0  0  0  0  0  0
  133.9750  123.2160   62.5740 C   0  0  0  0  0  0  0  0  0  0  0  0
  131.1470  124.2080   63.3660 C   0  0  0  0  0  0  0  0  0  0  0  0
  130.0650  125.0860   63.3720 C   0  0  0  0  0  0  0  0  0  0  0  0
  128.6560  128.0480   64.9320 C   0  0  0  0  0  0  0  0  0  0  0  0
  129.1070  128.0370   66.3020 C   0  0  0  0  0  0  0  0  0  0  0  0
  130.1330  127.2340   66.7340 N   0  0  0  0  0  0  0  0  0  0  0  0
  128.9860  126.8820   71.4760 C   0  0  0  0  0  0  0  0  0  0  0  0
  129.3360  126.8760   72.8240 C   0  0  0  0  0  0  0  0  0  0  0  0
  133.8868  127.9448   76.4874 H   0  0  0  0  0  0  0  0  0  0  0  0
  134.9172  127.3525   75.1405 H   0  0  0  0  0  0  0  0  0  0  0  0
  134.3264  129.0489   75.1405 H   0  0  0  0  0  0  0  0  0  0  0  0
  132.9963  127.6926   73.5598 H   0  0  0  0  0  0  0  0  0  0  0  0
  132.6066  126.5203   74.8635 H   0  0  0  0  0  0  0  0  0  0  0  0
  130.9743  129.8655   72.9807 H   0  0  0  0  0  0  0  0  0  0  0  0
  130.3526  129.8787   70.5780 H   0  0  0  0  0  0  0  0  0  0  0  0
  129.2080  127.2410   68.7580 H   0  0  0  0  0  0  0  0  0  0  0  0
  125.1257  130.0983   62.1989 H   0  0  0  0  0  0  0  0  0  0  0  0
  123.8292  130.4706   60.1171 H   0  0  0  0  0  0  0  0  0  0  0  0
  123.9309  131.3715   58.3412 H   0  0  0  0  0  0  0  0  0  0  0  0
  124.8846  131.1061   56.8423 H   0  0  0  0  0  0  0  0  0  0  0  0
  123.1120  130.8154   56.8423 H   0  0  0  0  0  0  0  0  0  0  0  0
  126.4242  127.7369   58.0076 H   0  0  0  0  0  0  0  0  0  0  0  0
  127.7156  127.3563   60.0932 H   0  0  0  0  0  0  0  0  0  0  0  0
  128.6531  127.0292   61.6679 H   0  0  0  0  0  0  0  0  0  0  0  0
  131.6513  127.9159   64.4189 H   0  0  0  0  0  0  0  0  0  0  0  0
  133.5854  126.3560   64.4096 H   0  0  0  0  0  0  0  0  0  0  0  0
  134.5580  122.3193   62.8309 H   0  0  0  0  0  0  0  0  0  0  0  0
  133.0937  122.9237   61.9841 H   0  0  0  0  0  0  0  0  0  0  0  0
  134.5996  123.9029   61.9841 H   0  0  0  0  0  0  0  0  0  0  0  0
  131.0010  123.1592   63.0683 H   0  0  0  0  0  0  0  0  0  0  0  0
  129.0665  124.7239   63.0857 H   0  0  0  0  0  0  0  0  0  0  0  0
  131.0210  127.6230   67.0190 H   0  0  0  0  0  0  0  0  0  0  0  0
  130.0360  126.2300   66.7870 H   0  0  0  0  0  0  0  0  0  0  0  0
  128.4261  126.0360   71.0506 H   0  0  0  0  0  0  0  0  0  0  0  0
  129.0483  126.0238   73.4572 H   0  0  0  0  0  0  0  0  0  0  0  0
  1  2  1  0
  2  3  1  0
  3  4  1  0
  4  5  2  0
  4  6  1  0
  6  7  2  0
  7  8  1  0
  8  9  2  0
  9 10  1  0
 10 11  1  0
 11 12  2  0
 11 13  1  0
 13 14  1  0
 14 15  1  0
 15 16  2  0
 16 17  1  0
 17 18  1  0
 18 19  2  0
 19 20  1  0
 20 21  2  0
 21 22  1  0
 22 23  1  0
 21 24  1  0
 24 25  2  0
 17 26  2  0
 26 27  1  0
 27 28  1  0
 28 29  2  0
 29 30  1  0
 30 31  2  0
 31 32  1  0
 32 33  1  0
 31 34  1  0
 34 35  2  0
 27 36  2  0
 36 37  1  0
 37 38  1  0
  9 39  1  0
 39 40  2  0
 40  6  1  0
 37 13  2  0
 36 15  1  0
 25 18  1  0
 35 28  1  0
  1 41  1  0
  1 42  1  0
  1 43  1  0
  2 44  1  0
  2 45  1  0
  7 46  1  0
  8 47  1  0
 10 48  1  0
 19 49  1  0
 20 50  1  0
 23 51  1  0
 23 52  1  0
 23 53  1  0
 24 54  1  0
 25 55  1  0
 26 56  1  0
 29 57  1  0
 30 58  1  0
 33 59  1  0
 33 60  1  0
 33 61  1  0
 34 62  1  0
 35 63  1  0
 38 64  1  0
 38 65  1  0
 39 66  1  0
 40 67  1  0
M  END
>  <Binding energies>  (1) 
[-7.09]

>  <Ligand effiencies>  (1) 
[-0.16488372093023254]

>  <Interactions>  (1) 
["H-B:TYR:484:OH:9318, V-A:GLU:543:CB:4905, V-B:ASP:366:CG:8183, V-B:HIS:456:CE1:9040, V-A:HIS:456:CE1:4069, V-A:GLU:543:CD:4907, V-A:GLU:543:CG:4906, V-B:ASP:366:CB:8182, V-B:GLU:543:CD:9879, H-B:LYS:547:NZ:9922, V-A:ARG:545:CZ:4925, H-A:GLY:454:N:4049, V-A:ILE:369:CD1:3238, V-A:GLY:454:CA:4048, H-A:GLU:543:OE1:4908, H-B:GLU:543:OE2:9881, V-A:GLU:543:C:4901, H-A:LYS:547:NZ:4950, V-A:HIS:456:CG:4065, V-A:HIS:456:CB:4064, V-A:GLY:544:C:4911, V-A:LYS:547:CD:4948"]

$$$$
8b_Ghoteimi_2023
     RDKit          3D

 54 58  0  0  0  0  0  0  0  0999 V2000
  129.6230  127.2860   75.4650 C   0  0  0  0  0  0  0  0  0  0  0  0
  128.7210  126.5910   74.6100 O   0  0  0  0  0  0  0  0  0  0  0  0
  128.8390  126.7420   73.2420 C   0  0  0  0  0  0  0  0  0  0  0  0
  129.3470  127.9580   72.7910 C   0  0  0  0  0  0  0  0  0  0  0  0
  129.5000  128.2010   71.4300 C   0  0  0  0  0  0  0  0  0  0  0  0
  129.1480  127.2290   70.4810 C   0  0  0  0  0  0  0  0  0  0  0  0
  129.3080  127.4850   69.0160 C   0  0  0  0  0  0  0  0  0  0  0  0
  130.1120  126.6710   68.2100 C   0  0  0  0  0  0  0  0  0  0  0  0
  130.2440  126.9310   66.8420 C   0  0  0  0  0  0  0  0  0  0  0  0
  131.1100  126.0560   66.0190 C   0  0  0  0  0  0  0  0  0  0  0  0
  132.4940  126.2400   66.0140 C   0  0  0  0  0  0  0  0  0  0  0  0
  133.3070  125.4100   65.2470 C   0  0  0  0  0  0  0  0  0  0  0  0
  132.7520  124.3890   64.4740 C   0  0  0  0  0  0  0  0  0  0  0  0
  133.6350  123.6150   63.7460 O   0  0  0  0  0  0  0  0  0  0  0  0
  133.9930  124.0210   62.4290 C   0  0  0  0  0  0  0  0  0  0  0  0
  131.3600  124.2100   64.4770 C   0  0  0  0  0  0  0  0  0  0  0  0
  130.5470  125.0400   65.2450 C   0  0  0  0  0  0  0  0  0  0  0  0
  129.5360  128.0370   66.3000 C   0  0  0  0  0  0  0  0  0  0  0  0
  129.4400  128.5770   64.9690 C   0  0  0  0  0  0  0  0  0  0  0  0
  130.1050  128.0260   63.9040 N   0  0  0  0  0  0  0  0  0  0  0  0
  128.6090  129.7040   64.8710 C   0  0  0  0  0  0  0  0  0  0  0  0
  128.2820  130.4950   63.6830 C   0  0  0  0  0  0  0  0  0  0  0  0
  127.1520  130.4540   63.1900 O   0  0  0  0  0  0  0  0  0  0  0  0
  129.2970  131.2490   63.1900 N   0  0  0  0  0  0  0  0  0  0  0  0
  129.2660  132.0900   62.0860 C   0  0  0  0  0  0  0  0  0  0  0  0
  128.1620  132.1970   61.2410 C   0  0  0  0  0  0  0  0  0  0  0  0
  128.5300  133.1160   60.2850 C   0  0  0  0  0  0  0  0  0  0  0  0
  129.7890  133.5430   60.5420 O   0  0  0  0  0  0  0  0  0  0  0  0
  130.2450  132.8870   61.6870 N   0  0  0  0  0  0  0  0  0  0  0  0
  127.9180  130.1240   66.4400 S   0  0  0  0  0  0  0  0  0  0  0  0
  128.7450  128.7910   67.2130 C   0  0  0  0  0  0  0  0  0  0  0  0
  128.6200  128.5460   68.5170 N   0  0  0  0  0  0  0  0  0  0  0  0
  128.6400  126.0070   70.9410 C   0  0  0  0  0  0  0  0  0  0  0  0
  128.4850  125.7620   72.3030 C   0  0  0  0  0  0  0  0  0  0  0  0
  129.3620  127.0849   76.5145 H   0  0  0  0  0  0  0  0  0  0  0  0
  130.6501  126.9435   75.2705 H   0  0  0  0  0  0  0  0  0  0  0  0
  129.5537  128.3664   75.2705 H   0  0  0  0  0  0  0  0  0  0  0  0
  129.6299  128.7335   73.5180 H   0  0  0  0  0  0  0  0  0  0  0  0
  129.9022  129.1678   71.0931 H   0  0  0  0  0  0  0  0  0  0  0  0
  130.6451  125.8187   68.6565 H   0  0  0  0  0  0  0  0  0  0  0  0
  132.9430  127.0426   66.6175 H   0  0  0  0  0  0  0  0  0  0  0  0
  134.3967  125.5602   65.2502 H   0  0  0  0  0  0  0  0  0  0  0  0
  134.7196  124.8450   62.4841 H   0  0  0  0  0  0  0  0  0  0  0  0
  134.4416  123.1718   61.8927 H   0  0  0  0  0  0  0  0  0  0  0  0
  133.0943  124.3598   61.8927 H   0  0  0  0  0  0  0  0  0  0  0  0
  130.9092  123.4108   63.8703 H   0  0  0  0  0  0  0  0  0  0  0  0
  129.4567  124.8943   65.2416 H   0  0  0  0  0  0  0  0  0  0  0  0
  130.9790  128.4110   63.5730 H   0  0  0  0  0  0  0  0  0  0  0  0
  129.7460  127.2200   63.4110 H   0  0  0  0  0  0  0  0  0  0  0  0
  130.1800  131.2030   63.6760 H   0  0  0  0  0  0  0  0  0  0  0  0
  127.2040  131.6624   61.3212 H   0  0  0  0  0  0  0  0  0  0  0  0
  127.9018  133.4502   59.4462 H   0  0  0  0  0  0  0  0  0  0  0  0
  128.3594  125.2294   70.2153 H   0  0  0  0  0  0  0  0  0  0  0  0
  128.0834  124.7963   72.6438 H   0  0  0  0  0  0  0  0  0  0  0  0
  1  2  1  0
  2  3  1  0
  3  4  2  0
  4  5  1  0
  5  6  2  0
  6  7  1  0
  7  8  2  0
  8  9  1  0
  9 10  1  0
 10 11  2  0
 11 12  1  0
 12 13  2  0
 13 14  1  0
 14 15  1  0
 13 16  1  0
 16 17  2  0
  9 18  2  0
 18 19  1  0
 19 20  1  0
 19 21  2  0
 21 22  1  0
 22 23  2  0
 22 24  1  0
 24 25  1  0
 25 26  1  0
 26 27  2  0
 27 28  1  0
 28 29  1  0
 21 30  1  0
 30 31  1  0
 31 32  2  0
  6 33  1  0
 33 34  2  0
 34  3  1  0
 32  7  1  0
 17 10  1  0
 31 18  1  0
 29 25  2  0
  1 35  1  0
  1 36  1  0
  1 37  1  0
  4 38  1  0
  5 39  1  0
  8 40  1  0
 11 41  1  0
 12 42  1  0
 15 43  1  0
 15 44  1  0
 15 45  1  0
 16 46  1  0
 17 47  1  0
 20 48  1  0
 20 49  1  0
 24 50  1  0
 26 51  1  0
 27 52  1  0
 33 53  1  0
 34 54  1  0
M  END
>  <Binding energies>  (1) 
[-7.13]

>  <Ligand effiencies>  (1) 
[-0.1927027027027027]

>  <Interactions>  (1) 
["V-A:TYR:539:CD1:4872, V-B:GLU:543:CB:9877, V-A:GLU:543:CB:4905, V-B:HIS:456:CE1:9040, V-A:HIS:456:CE1:4069, V-A:GLU:543:CD:4907, V-A:GLU:543:CG:4906, V-B:GLU:543:CD:9879, V-A:ASP:366:CG:3212, V-B:GLU:543:C:9873, H-A:ALA:541:N:4890, H-B:LYS:547:NZ:9922, V-A:ARG:545:CZ:4925, H-A:GLY:454:N:4049, V-A:ILE:369:CD1:3238, V-A:GLY:454:CA:4048, H-A:GLU:543:OE1:4908, H-A:GLU:543:OE2:4909, H-B:GLU:543:OE2:9881"]

$$$$
8c_Ghoteimi_2023
     RDKit          3D

 54 58  0  0  0  0  0  0  0  0999 V2000
  130.2450  126.9280   75.7490 C   0  0  0  0  0  0  0  0  0  0  0  0
  129.1200  126.4940   74.9930 O   0  0  0  0  0  0  0  0  0  0  0  0
  129.1210  126.6720   73.6220 C   0  0  0  0  0  0  0  0  0  0  0  0
  129.5370  127.9170   73.1560 C   0  0  0  0  0  0  0  0  0  0  0  0
  129.5670  128.1870   71.7910 C   0  0  0  0  0  0  0  0  0  0  0  0
  129.1810  127.2170   70.8550 C   0  0  0  0  0  0  0  0  0  0  0  0
  129.2070  127.5020   69.3870 C   0  0  0  0  0  0  0  0  0  0  0  0
  130.1230  126.8810   68.5320 C   0  0  0  0  0  0  0  0  0  0  0  0
  130.1250  127.1640   67.1620 C   0  0  0  0  0  0  0  0  0  0  0  0
  131.1140  126.4960   66.2850 C   0  0  0  0  0  0  0  0  0  0  0  0
  132.4690  126.4950   66.6250 C   0  0  0  0  0  0  0  0  0  0  0  0
  133.3950  125.8590   65.8050 C   0  0  0  0  0  0  0  0  0  0  0  0
  132.9860  125.2190   64.6340 C   0  0  0  0  0  0  0  0  0  0  0  0
  133.9740  124.6120   63.8840 O   0  0  0  0  0  0  0  0  0  0  0  0
  133.7980  124.4830   62.4780 C   0  0  0  0  0  0  0  0  0  0  0  0
  131.6240  125.2240   64.2920 C   0  0  0  0  0  0  0  0  0  0  0  0
  130.6980  125.8610   65.1140 C   0  0  0  0  0  0  0  0  0  0  0  0
  129.1680  128.0910   66.6700 C   0  0  0  0  0  0  0  0  0  0  0  0
  128.8910  128.6000   65.3520 C   0  0  0  0  0  0  0  0  0  0  0  0
  129.6040  128.2080   64.2470 N   0  0  0  0  0  0  0  0  0  0  0  0
  127.8330  129.5230   65.3100 C   0  0  0  0  0  0  0  0  0  0  0  0
  127.2850  130.2280   64.1500 C   0  0  0  0  0  0  0  0  0  0  0  0
  127.7210  130.0130   63.0170 O   0  0  0  0  0  0  0  0  0  0  0  0
  126.2910  131.1100   64.4230 N   0  0  0  0  0  0  0  0  0  0  0  0
  125.6040  131.9000   63.5120 C   0  0  0  0  0  0  0  0  0  0  0  0
  126.0820  132.8660   62.7580 N   0  0  0  0  0  0  0  0  0  0  0  0
  125.1420  133.4030   62.0050 C   0  0  0  0  0  0  0  0  0  0  0  0
  123.8640  132.8710   62.1420 C   0  0  0  0  0  0  0  0  0  0  0  0
  123.9060  131.5980   63.3250 S   0  0  0  0  0  0  0  0  0  0  0  0
  127.1490  129.7820   66.9150 S   0  0  0  0  0  0  0  0  0  0  0  0
  128.2820  128.6580   67.6310 C   0  0  0  0  0  0  0  0  0  0  0  0
  128.2800  128.3900   68.9370 N   0  0  0  0  0  0  0  0  0  0  0  0
  128.7660  125.9660   71.3320 C   0  0  0  0  0  0  0  0  0  0  0  0
  128.7330  125.6930   72.6960 C   0  0  0  0  0  0  0  0  0  0  0  0
  130.0209  126.8415   76.8224 H   0  0  0  0  0  0  0  0  0  0  0  0
  131.1151  126.3010   75.5044 H   0  0  0  0  0  0  0  0  0  0  0  0
  130.4686  127.9769   75.5044 H   0  0  0  0  0  0  0  0  0  0  0  0
  129.8443  128.6930   73.8726 H   0  0  0  0  0  0  0  0  0  0  0  0
  129.8984  129.1759   71.4413 H   0  0  0  0  0  0  0  0  0  0  0  0
  130.8491  126.1629   68.9408 H   0  0  0  0  0  0  0  0  0  0  0  0
  132.8044  126.9985   67.5437 H   0  0  0  0  0  0  0  0  0  0  0  0
  134.4596  125.8604   66.0819 H   0  0  0  0  0  0  0  0  0  0  0  0
  132.9261  123.8439   62.2747 H   0  0  0  0  0  0  0  0  0  0  0  0
  133.6350  125.4771   62.0361 H   0  0  0  0  0  0  0  0  0  0  0  0
  134.6969  124.0283   62.0361 H   0  0  0  0  0  0  0  0  0  0  0  0
  131.2877  124.7233   63.3721 H   0  0  0  0  0  0  0  0  0  0  0  0
  129.6330  125.8637   64.8389 H   0  0  0  0  0  0  0  0  0  0  0  0
  129.2560  127.4950   63.6210 H   0  0  0  0  0  0  0  0  0  0  0  0
  130.5000  128.6140   64.0220 H   0  0  0  0  0  0  0  0  0  0  0  0
  126.0100  131.2070   65.3880 H   0  0  0  0  0  0  0  0  0  0  0  0
  125.3566  134.2259   61.3073 H   0  0  0  0  0  0  0  0  0  0  0  0
  122.9714  133.2022   61.5910 H   0  0  0  0  0  0  0  0  0  0  0  0
  128.4616  125.1878   70.6167 H   0  0  0  0  0  0  0  0  0  0  0  0
  128.4013  124.7055   73.0493 H   0  0  0  0  0  0  0  0  0  0  0  0
  1  2  1  0
  2  3  1  0
  3  4  2  0
  4  5  1  0
  5  6  2  0
  6  7  1  0
  7  8  2  0
  8  9  1  0
  9 10  1  0
 10 11  2  0
 11 12  1  0
 12 13  2  0
 13 14  1  0
 14 15  1  0
 13 16  1  0
 16 17  2  0
  9 18  2  0
 18 19  1  0
 19 20  1  0
 19 21  2  0
 21 22  1  0
 22 23  2  0
 22 24  1  0
 24 25  1  0
 25 26  2  0
 26 27  1  0
 27 28  2  0
 28 29  1  0
 21 30  1  0
 30 31  1  0
 31 32  2  0
  6 33  1  0
 33 34  2  0
 34  3  1  0
 32  7  1  0
 17 10  1  0
 31 18  1  0
 29 25  1  0
  1 35  1  0
  1 36  1  0
  1 37  1  0
  4 38  1  0
  5 39  1  0
  8 40  1  0
 11 41  1  0
 12 42  1  0
 15 43  1  0
 15 44  1  0
 15 45  1  0
 16 46  1  0
 17 47  1  0
 20 48  1  0
 20 49  1  0
 24 50  1  0
 27 51  1  0
 28 52  1  0
 33 53  1  0
 34 54  1  0
M  END
>  <Binding energies>  (1) 
[-7.11]

>  <Ligand effiencies>  (1) 
[-0.19216216216216217]

>  <Interactions>  (1) 
["H-B:TYR:484:OH:9318, V-B:GLY:454:CA:9019, V-B:HIS:456:CE1:9040, V-A:HIS:456:CE1:4069, V-A:GLU:543:CD:4907, V-A:GLU:543:CG:4906, V-B:GLU:543:CD:9879, V-A:ASP:366:CG:3212, V-B:GLU:543:C:9873, H-B:LYS:547:NZ:9922, V-A:ARG:545:CZ:4925, V-A:ARG:545:CD:4922, H-A:GLY:454:N:4049, V-A:ARG:545:CG:4921, V-A:ILE:369:CD1:3238, H-A:GLU:543:OE1:4908, H-A:GLU:543:OE2:4909, H-B:GLU:543:OE2:9881, V-B:TYR:484:CZ:9317, V-B:SER:385:CB:8379"]

$$$$
8d_Ghoteimi_2023
     RDKit          3D

 50 53  0  0  0  0  0  0  0  0999 V2000
  134.6320  125.4050   67.1790 C   0  0  0  0  0  0  0  0  0  0  0  0
  134.2370  125.9970   65.9490 O   0  0  0  0  0  0  0  0  0  0  0  0
  133.1830  125.5050   65.2470 C   0  0  0  0  0  0  0  0  0  0  0  0
  133.2480  124.5270   64.4990 O   0  0  0  0  0  0  0  0  0  0  0  0
  131.9350  126.2680   65.4720 C   0  0  0  0  0  0  0  0  0  0  0  0
  131.1430  127.0780   64.1190 S   0  0  0  0  0  0  0  0  0  0  0  0
  129.8780  127.6760   65.1670 C   0  0  0  0  0  0  0  0  0  0  0  0
  128.8790  128.4290   64.7050 N   0  0  0  0  0  0  0  0  0  0  0  0
  127.9460  128.8400   65.6060 C   0  0  0  0  0  0  0  0  0  0  0  0
  126.8390  129.6860   65.0630 C   0  0  0  0  0  0  0  0  0  0  0  0
  126.9520  131.0830   65.0130 C   0  0  0  0  0  0  0  0  0  0  0  0
  125.9180  131.8660   64.5070 C   0  0  0  0  0  0  0  0  0  0  0  0
  124.7450  131.2750   64.0390 C   0  0  0  0  0  0  0  0  0  0  0  0
  123.7740  132.1290   63.5540 O   0  0  0  0  0  0  0  0  0  0  0  0
  124.1360  133.1250   62.6030 C   0  0  0  0  0  0  0  0  0  0  0  0
  124.6220  129.8790   64.0820 C   0  0  0  0  0  0  0  0  0  0  0  0
  125.6590  129.0990   64.5890 C   0  0  0  0  0  0  0  0  0  0  0  0
  128.0200  128.5060   66.9610 C   0  0  0  0  0  0  0  0  0  0  0  0
  129.0660  127.7140   67.4450 C   0  0  0  0  0  0  0  0  0  0  0  0
  129.1110  127.3690   68.8850 C   0  0  0  0  0  0  0  0  0  0  0  0
  128.7640  126.0860   69.3110 C   0  0  0  0  0  0  0  0  0  0  0  0
  128.7970  125.7640   70.6650 C   0  0  0  0  0  0  0  0  0  0  0  0
  129.1810  126.7160   71.6110 C   0  0  0  0  0  0  0  0  0  0  0  0
  129.1840  126.3080   72.9300 O   0  0  0  0  0  0  0  0  0  0  0  0
  128.8000  124.9750   73.2460 C   0  0  0  0  0  0  0  0  0  0  0  0
  129.5340  128.0050   71.1790 C   0  0  0  0  0  0  0  0  0  0  0  0
  129.4990  128.3250   69.8240 C   0  0  0  0  0  0  0  0  0  0  0  0
  130.0490  127.2710   66.5220 C   0  0  0  0  0  0  0  0  0  0  0  0
  131.2320  126.4680   66.6660 C   0  0  0  0  0  0  0  0  0  0  0  0
  131.6330  125.9520   67.8720 N   0  0  0  0  0  0  0  0  0  0  0  0
  134.2357  125.9990   68.0158 H   0  0  0  0  0  0  0  0  0  0  0  0
  134.2359  124.3804   67.2367 H   0  0  0  0  0  0  0  0  0  0  0  0
  135.7301  125.3774   67.2367 H   0  0  0  0  0  0  0  0  0  0  0  0
  127.8699  131.5666   65.3785 H   0  0  0  0  0  0  0  0  0  0  0  0
  126.0273  132.9601   64.4761 H   0  0  0  0  0  0  0  0  0  0  0  0
  124.4658  134.0325   63.1300 H   0  0  0  0  0  0  0  0  0  0  0  0
  124.9550  132.7492   61.9722 H   0  0  0  0  0  0  0  0  0  0  0  0
  123.2668  133.3628   61.9722 H   0  0  0  0  0  0  0  0  0  0  0  0
  123.7036  129.3980   63.7142 H   0  0  0  0  0  0  0  0  0  0  0  0
  125.5493  128.0049   64.6175 H   0  0  0  0  0  0  0  0  0  0  0  0
  127.2473  128.8699   67.6542 H   0  0  0  0  0  0  0  0  0  0  0  0
  128.4634  125.3265   68.5742 H   0  0  0  0  0  0  0  0  0  0  0  0
  128.5183  124.7514   70.9920 H   0  0  0  0  0  0  0  0  0  0  0  0
  128.7648  124.8528   74.3386 H   0  0  0  0  0  0  0  0  0  0  0  0
  127.8061  124.7694   72.8218 H   0  0  0  0  0  0  0  0  0  0  0  0
  129.5322  124.2722   72.8218 H   0  0  0  0  0  0  0  0  0  0  0  0
  129.8393  128.7646   71.9137 H   0  0  0  0  0  0  0  0  0  0  0  0
  129.7785  129.3360   69.4927 H   0  0  0  0  0  0  0  0  0  0  0  0
  132.4580  125.3740   67.9510 H   0  0  0  0  0  0  0  0  0  0  0  0
  131.1210  126.1360   68.7240 H   0  0  0  0  0  0  0  0  0  0  0  0
  1  2  1  0
  2  3  1  0
  3  4  2  0
  3  5  1  0
  5  6  1  0
  6  7  1  0
  7  8  2  0
  8  9  1  0
  9 10  1  0
 10 11  2  0
 11 12  1  0
 12 13  2  0
 13 14  1  0
 14 15  1  0
 13 16  1  0
 16 17  2  0
  9 18  2  0
 18 19  1  0
 19 20  1  0
 20 21  2  0
 21 22  1  0
 22 23  2  0
 23 24  1  0
 24 25  1  0
 23 26  1  0
 26 27  2  0
 19 28  2  0
 28 29  1  0
 29 30  1  0
 29  5  2  0
 28  7  1  0
 17 10  1  0
 27 20  1  0
  1 31  1  0
  1 32  1  0
  1 33  1  0
 11 34  1  0
 12 35  1  0
 15 36  1  0
 15 37  1  0
 15 38  1  0
 16 39  1  0
 17 40  1  0
 18 41  1  0
 21 42  1  0
 22 43  1  0
 25 44  1  0
 25 45  1  0
 25 46  1  0
 26 47  1  0
 27 48  1  0
 30 49  1  0
 30 50  1  0
M  END
>  <Binding energies>  (1) 
[-6.47]

>  <Ligand effiencies>  (1) 
[-0.2021875]

>  <Interactions>  (1) 
["V-B:GLU:543:CB:9877, H-B:GLY:454:N:9020, V-B:GLY:454:CA:9019, V-B:HIS:456:CE1:9040, V-A:HIS:456:CE1:4069, V-A:GLU:543:CD:4907, V-B:LEU:475:CD1:9228, V-B:GLU:543:CD:9879, V-B:LYS:547:CE:9921, V-B:GLU:543:C:9873, V-B:ARG:545:CZ:9897, V-A:HIS:456:CD2:4067, V-A:TYR:484:CZ:4346, H-A:ARG:545:NE:4923, V-A:ARG:545:CZ:4925, H-A:ARG:545:NH1:4926, V-A:ARG:545:CD:4922, V-A:TYR:484:CE2:4345, H-A:GLY:454:N:4049, H-A:ARG:545:NH2:4927, V-A:ARG:545:CG:4921, H-A:TYR:484:OH:4347, V-A:GLY:453:C:4041, V-A:GLY:453:CA:4043, V-A:GLY:454:CA:4048, V-A:ILE:455:C:4051, H-A:HIS:456:NE2:4070, V-B:SER:385:CB:8379, V-A:GLY:454:C:4046"]

$$$$
9a_Ghoteimi_2023
     RDKit          3D

 85 91  0  0  0  0  0  0  0  0999 V2000
  128.5780  132.6460   75.0110 C   0  0  0  0  0  0  0  0  0  0  0  0
  129.0810  131.3430   74.3800 C   0  0  0  0  0  0  0  0  0  0  0  0
  128.3910  130.2400   74.9560 O   0  0  0  0  0  0  0  0  0  0  0  0
  128.8480  128.9710   74.8040 C   0  0  0  0  0  0  0  0  0  0  0  0
  129.0250  128.1940   75.7480 O   0  0  0  0  0  0  0  0  0  0  0  0
  129.1250  128.6070   73.3740 C   0  0  0  0  0  0  0  0  0  0  0  0
  128.3010  127.6720   72.7340 C   0  0  0  0  0  0  0  0  0  0  0  0
  128.5320  127.3120   71.4100 C   0  0  0  0  0  0  0  0  0  0  0  0
  129.5890  127.8780   70.6970 C   0  0  0  0  0  0  0  0  0  0  0  0
  129.7290  127.4400   69.3660 N   0  0  0  0  0  0  0  0  0  0  0  0
  129.5300  128.1000   68.1980 C   0  0  0  0  0  0  0  0  0  0  0  0
  129.1720  129.2750   68.1200 O   0  0  0  0  0  0  0  0  0  0  0  0
  129.7810  127.3160   66.9850 C   0  0  0  0  0  0  0  0  0  0  0  0
  130.3090  125.6370   67.1040 S   0  0  0  0  0  0  0  0  0  0  0  0
  130.3490  125.4790   65.3630 C   0  0  0  0  0  0  0  0  0  0  0  0
  130.6830  124.3320   64.7730 N   0  0  0  0  0  0  0  0  0  0  0  0
  130.6710  124.3110   63.4140 C   0  0  0  0  0  0  0  0  0  0  0  0
  131.0390  123.0110   62.7740 C   0  0  0  0  0  0  0  0  0  0  0  0
  130.1700  121.9160   62.8380 C   0  0  0  0  0  0  0  0  0  0  0  0
  130.5030  120.7020   62.2440 C   0  0  0  0  0  0  0  0  0  0  0  0
  131.7140  120.5420   61.5520 C   0  0  0  0  0  0  0  0  0  0  0  0
  132.0720  119.3230   60.9660 N   0  0  0  0  0  0  0  0  0  0  0  0
  133.0330  119.2560   59.8470 C   0  0  0  0  0  0  0  0  0  0  0  0
  133.0290  117.9050   59.1020 C   0  0  0  0  0  0  0  0  0  0  0  0
  133.2410  116.8440   60.0190 O   0  0  0  0  0  0  0  0  0  0  0  0
  132.2240  116.8000   61.0070 C   0  0  0  0  0  0  0  0  0  0  0  0
  132.2110  118.1170   61.8090 C   0  0  0  0  0  0  0  0  0  0  0  0
  132.5880  121.6380   61.5030 C   0  0  0  0  0  0  0  0  0  0  0  0
  132.2550  122.8500   62.1000 C   0  0  0  0  0  0  0  0  0  0  0  0
  130.3540  125.4390   62.6540 C   0  0  0  0  0  0  0  0  0  0  0  0
  130.0230  126.6510   63.2690 C   0  0  0  0  0  0  0  0  0  0  0  0
  129.7300  127.8290   62.4140 C   0  0  0  0  0  0  0  0  0  0  0  0
  128.8350  127.7270   61.3450 C   0  0  0  0  0  0  0  0  0  0  0  0
  128.5520  128.8360   60.5530 C   0  0  0  0  0  0  0  0  0  0  0  0
  129.1410  130.0820   60.8190 C   0  0  0  0  0  0  0  0  0  0  0  0
  128.8800  131.2060   60.0310 N   0  0  0  0  0  0  0  0  0  0  0  0
  129.4410  131.2740   58.6670 C   0  0  0  0  0  0  0  0  0  0  0  0
  128.7790  132.3560   57.7880 C   0  0  0  0  0  0  0  0  0  0  0  0
  128.8560  133.6190   58.4310 O   0  0  0  0  0  0  0  0  0  0  0  0
  128.1930  133.6100   59.6850 C   0  0  0  0  0  0  0  0  0  0  0  0
  128.8400  132.5610   60.6160 C   0  0  0  0  0  0  0  0  0  0  0  0
  130.0350  130.1730   61.8960 C   0  0  0  0  0  0  0  0  0  0  0  0
  130.3220  129.0640   62.6860 C   0  0  0  0  0  0  0  0  0  0  0  0
  129.9930  126.6850   64.6930 C   0  0  0  0  0  0  0  0  0  0  0  0
  129.6500  127.7130   65.6450 C   0  0  0  0  0  0  0  0  0  0  0  0
  129.2200  128.9580   65.2650 N   0  0  0  0  0  0  0  0  0  0  0  0
  130.4190  128.8190   71.3290 C   0  0  0  0  0  0  0  0  0  0  0  0
  130.1860  129.1770   72.6540 C   0  0  0  0  0  0  0  0  0  0  0  0
  128.6114  132.5594   76.1071 H   0  0  0  0  0  0  0  0  0  0  0  0
  129.2187  133.4803   74.6894 H   0  0  0  0  0  0  0  0  0  0  0  0
  127.5429  132.8334   74.6894 H   0  0  0  0  0  0  0  0  0  0  0  0
  128.8963  131.3654   73.2958 H   0  0  0  0  0  0  0  0  0  0  0  0
  130.1601  131.2381   74.5660 H   0  0  0  0  0  0  0  0  0  0  0  0
  127.4632  127.2181   73.2836 H   0  0  0  0  0  0  0  0  0  0  0  0
  127.8764  126.5758   70.9220 H   0  0  0  0  0  0  0  0  0  0  0  0
  130.0270  126.4800   69.2800 H   0  0  0  0  0  0  0  0  0  0  0  0
  129.2099  122.0161   63.3654 H   0  0  0  0  0  0  0  0  0  0  0  0
  129.8060  119.8542   62.3180 H   0  0  0  0  0  0  0  0  0  0  0  0
  132.7830  120.0495   59.1274 H   0  0  0  0  0  0  0  0  0  0  0  0
  134.0368  119.3802   60.2793 H   0  0  0  0  0  0  0  0  0  0  0  0
  132.0582  117.7669   58.6035 H   0  0  0  0  0  0  0  0  0  0  0  0
  133.8362  117.9027   58.3547 H   0  0  0  0  0  0  0  0  0  0  0  0
  131.2479  116.6608   60.5192 H   0  0  0  0  0  0  0  0  0  0  0  0
  132.4216  115.9620   61.6917 H   0  0  0  0  0  0  0  0  0  0  0  0
  131.3670  118.0864   62.5138 H   0  0  0  0  0  0  0  0  0  0  0  0
  133.1817  118.1920   62.3209 H   0  0  0  0  0  0  0  0  0  0  0  0
  133.5527  121.5377   60.9840 H   0  0  0  0  0  0  0  0  0  0  0  0
  132.9579  123.6941   62.0413 H   0  0  0  0  0  0  0  0  0  0  0  0
  130.3648  125.3734   61.5560 H   0  0  0  0  0  0  0  0  0  0  0  0
  128.3509  126.7633   61.1282 H   0  0  0  0  0  0  0  0  0  0  0  0
  127.8569  128.7346   59.7066 H   0  0  0  0  0  0  0  0  0  0  0  0
  130.5160  131.4948   58.7422 H   0  0  0  0  0  0  0  0  0  0  0  0
  129.2500  130.3027   58.1873 H   0  0  0  0  0  0  0  0  0  0  0  0
  129.2995  132.4077   56.8203 H   0  0  0  0  0  0  0  0  0  0  0  0
  127.7220  132.0955   57.6301 H   0  0  0  0  0  0  0  0  0  0  0  0
  128.2726  134.6053   60.1465 H   0  0  0  0  0  0  0  0  0  0  0  0
  127.1342  133.3537   59.5323 H   0  0  0  0  0  0  0  0  0  0  0  0
  129.8705  132.8771   60.8352 H   0  0  0  0  0  0  0  0  0  0  0  0
  128.2213  132.5056   61.5238 H   0  0  0  0  0  0  0  0  0  0  0  0
  130.5168  131.1362   62.1196 H   0  0  0  0  0  0  0  0  0  0  0  0
  131.0201  129.1609   63.5306 H   0  0  0  0  0  0  0  0  0  0  0  0
  129.2130  129.7390   65.9060 H   0  0  0  0  0  0  0  0  0  0  0  0
  128.8940  129.1370   64.3250 H   0  0  0  0  0  0  0  0  0  0  0  0
  131.2542  129.2736   70.7761 H   0  0  0  0  0  0  0  0  0  0  0  0
  130.8405  129.9144   73.1416 H   0  0  0  0  0  0  0  0  0  0  0  0
  1  2  1  0
  2  3  1  0
  3  4  1  0
  4  5  2  0
  4  6  1  0
  6  7  2  0
  7  8  1  0
  8  9  2  0
  9 10  1  0
 10 11  1  0
 11 12  2  0
 11 13  1  0
 13 14  1  0
 14 15  1  0
 15 16  2  0
 16 17  1  0
 17 18  1  0
 18 19  2  0
 19 20  1  0
 20 21  2  0
 21 22  1  0
 22 23  1  0
 23 24  1  0
 24 25  1  0
 25 26  1  0
 26 27  1  0
 21 28  1  0
 28 29  2  0
 17 30  2  0
 30 31  1  0
 31 32  1  0
 32 33  2  0
 33 34  1  0
 34 35  2  0
 35 36  1  0
 36 37  1  0
 37 38  1  0
 38 39  1  0
 39 40  1  0
 40 41  1  0
 35 42  1  0
 42 43  2  0
 31 44  2  0
 44 45  1  0
 45 46  1  0
  9 47  1  0
 47 48  2  0
 48  6  1  0
 45 13  2  0
 44 15  1  0
 29 18  1  0
 43 32  1  0
 27 22  1  0
 41 36  1  0
  1 49  1  0
  1 50  1  0
  1 51  1  0
  2 52  1  0
  2 53  1  0
  7 54  1  0
  8 55  1  0
 10 56  1  0
 19 57  1  0
 20 58  1  0
 23 59  1  0
 23 60  1  0
 24 61  1  0
 24 62  1  0
 26 63  1  0
 26 64  1  0
 27 65  1  0
 27 66  1  0
 28 67  1  0
 29 68  1  0
 30 69  1  0
 33 70  1  0
 34 71  1  0
 37 72  1  0
 37 73  1  0
 38 74  1  0
 38 75  1  0
 40 76  1  0
 40 77  1  0
 41 78  1  0
 41 79  1  0
 42 80  1  0
 43 81  1  0
 46 82  1  0
 46 83  1  0
 47 84  1  0
 48 85  1  0
M  END
>  <Binding energies>  (1) 
[-2.71]

>  <Ligand effiencies>  (1) 
[-0.053137254901960786]

>  <Interactions>  (1) 
["V-A:TYR:539:CD1:4872, V-A:GLU:543:CB:4905, V-B:TYR:539:CD2:9845, V-B:HIS:456:CE1:9040, V-A:HIS:456:CE1:4069, V-A:GLU:543:CD:4907, V-A:GLU:543:CG:4906, V-A:TYR:539:CE1:4874, V-B:TYR:539:CE2:9847, V-B:GLU:543:CD:9879, V-B:HIS:456:CD2:9038, H-B:LYS:547:NZ:9922, V-A:VAL:384:C:3396, V-A:TYR:484:CZ:4346, V-A:ILE:369:CG2:3236, V-A:SER:385:CA:3406, V-A:SER:385:CB:3408, V-A:TYR:484:CE2:4345, V-B:ALA:541:CB:9863, V-A:LEU:475:CD2:4258, V-A:HIS:383:CE1:3393, H-A:TYR:484:OH:4347, V-A:LEU:373:CD2:3280, V-A:LEU:373:CG:3278, V-A:LEU:373:CD1:3279, H-A:GLU:543:OE1:4908, H-A:GLU:543:OE2:4909, H-A:HIS:383:ND1:3390, V-A:THR:477:CG2:4272, V-A:TYR:539:C:4866, V-A:GLU:543:C:4901, H-A:HIS:456:NE2:4070, H-A:LYS:547:NZ:4950, V-A:LYS:547:CE:4949"]

$$$$
9b_Ghoteimi_2023
     RDKit          3D

 72 78  0  0  0  0  0  0  0  0999 V2000
  131.3950  125.7720   61.2970 N   0  0  0  0  0  0  0  0  0  0  0  0
  131.4800  125.1750   62.5300 C   0  0  0  0  0  0  0  0  0  0  0  0
  131.9780  123.8770   62.7280 C   0  0  0  0  0  0  0  0  0  0  0  0
  132.5080  122.9400   61.7340 C   0  0  0  0  0  0  0  0  0  0  0  0
  132.9940  123.3510   60.6780 O   0  0  0  0  0  0  0  0  0  0  0  0
  132.4130  121.6270   62.0620 N   0  0  0  0  0  0  0  0  0  0  0  0
  132.8210  120.5340   61.3080 C   0  0  0  0  0  0  0  0  0  0  0  0
  131.9960  119.4420   61.0430 C   0  0  0  0  0  0  0  0  0  0  0  0
  132.7610  118.5940   60.2770 C   0  0  0  0  0  0  0  0  0  0  0  0
  133.9840  119.1470   60.0900 O   0  0  0  0  0  0  0  0  0  0  0  0
  134.0090  120.3760   60.7490 N   0  0  0  0  0  0  0  0  0  0  0  0
  131.9120  123.4220   64.4300 S   0  0  0  0  0  0  0  0  0  0  0  0
  131.2030  124.9600   64.8610 C   0  0  0  0  0  0  0  0  0  0  0  0
  130.8630  125.2450   66.1170 N   0  0  0  0  0  0  0  0  0  0  0  0
  130.3030  126.4620   66.3430 C   0  0  0  0  0  0  0  0  0  0  0  0
  129.9120  126.7480   67.7570 C   0  0  0  0  0  0  0  0  0  0  0  0
  129.3810  125.7450   68.5780 C   0  0  0  0  0  0  0  0  0  0  0  0
  129.0060  126.0210   69.8890 C   0  0  0  0  0  0  0  0  0  0  0  0
  129.1330  127.3130   70.4230 C   0  0  0  0  0  0  0  0  0  0  0  0
  128.7620  127.6040   71.7410 N   0  0  0  0  0  0  0  0  0  0  0  0
  129.7580  128.0350   72.7430 C   0  0  0  0  0  0  0  0  0  0  0  0
  129.1370  128.6390   74.0190 C   0  0  0  0  0  0  0  0  0  0  0  0
  128.2100  127.7280   74.5850 O   0  0  0  0  0  0  0  0  0  0  0  0
  127.1520  127.4370   73.6870 C   0  0  0  0  0  0  0  0  0  0  0  0
  127.7100  126.8000   72.3970 C   0  0  0  0  0  0  0  0  0  0  0  0
  129.6840  128.3070   69.6030 C   0  0  0  0  0  0  0  0  0  0  0  0
  130.0640  128.0310   68.2930 C   0  0  0  0  0  0  0  0  0  0  0  0
  130.1090  127.3960   65.3230 C   0  0  0  0  0  0  0  0  0  0  0  0
  130.4840  127.1090   64.0050 C   0  0  0  0  0  0  0  0  0  0  0  0
  130.2850  128.1470   62.9620 C   0  0  0  0  0  0  0  0  0  0  0  0
  129.0110  128.6570   62.7090 C   0  0  0  0  0  0  0  0  0  0  0  0
  128.8240  129.6430   61.7470 C   0  0  0  0  0  0  0  0  0  0  0  0
  129.9060  130.1470   61.0080 C   0  0  0  0  0  0  0  0  0  0  0  0
  129.7440  131.1490   60.0480 N   0  0  0  0  0  0  0  0  0  0  0  0
  129.0870  132.4150   60.4280 C   0  0  0  0  0  0  0  0  0  0  0  0
  128.6200  133.2460   59.2140 C   0  0  0  0  0  0  0  0  0  0  0  0
  129.7130  133.4900   58.3430 O   0  0  0  0  0  0  0  0  0  0  0  0
  130.2780  132.2810   57.8570 C   0  0  0  0  0  0  0  0  0  0  0  0
  130.7830  131.4220   59.0360 C   0  0  0  0  0  0  0  0  0  0  0  0
  131.1850  129.6400   61.2840 C   0  0  0  0  0  0  0  0  0  0  0  0
  131.3720  128.6530   62.2470 C   0  0  0  0  0  0  0  0  0  0  0  0
  131.0410  125.8260   63.7390 C   0  0  0  0  0  0  0  0  0  0  0  0
  131.3500  125.2300   60.4450 H   0  0  0  0  0  0  0  0  0  0  0  0
  131.3730  126.7770   61.2000 H   0  0  0  0  0  0  0  0  0  0  0  0
  132.0040  121.4070   62.9580 H   0  0  0  0  0  0  0  0  0  0  0  0
  130.9581  119.2913   61.3747 H   0  0  0  0  0  0  0  0  0  0  0  0
  132.4327  117.6222   59.8796 H   0  0  0  0  0  0  0  0  0  0  0  0
  129.2590  124.7263   68.1812 H   0  0  0  0  0  0  0  0  0  0  0  0
  128.6032  125.2132   70.5177 H   0  0  0  0  0  0  0  0  0  0  0  0
  130.3606  127.1610   73.0310 H   0  0  0  0  0  0  0  0  0  0  0  0
  130.3611  128.8269   72.2748 H   0  0  0  0  0  0  0  0  0  0  0  0
  129.9337  128.8481   74.7481 H   0  0  0  0  0  0  0  0  0  0  0  0
  128.6144  129.5716   73.7597 H   0  0  0  0  0  0  0  0  0  0  0  0
  126.4517  126.7363   74.1650 H   0  0  0  0  0  0  0  0  0  0  0  0
  126.6309  128.3712   73.4304 H   0  0  0  0  0  0  0  0  0  0  0  0
  128.1327  125.8167   72.6507 H   0  0  0  0  0  0  0  0  0  0  0  0
  126.8726  126.7282   71.6873 H   0  0  0  0  0  0  0  0  0  0  0  0
  129.8185  129.3233   70.0019 H   0  0  0  0  0  0  0  0  0  0  0  0
  130.4895  128.8323   67.6709 H   0  0  0  0  0  0  0  0  0  0  0  0
  129.6555  128.3702   65.5583 H   0  0  0  0  0  0  0  0  0  0  0  0
  128.1482  128.2760   63.2750 H   0  0  0  0  0  0  0  0  0  0  0  0
  127.8127  130.0343   61.5620 H   0  0  0  0  0  0  0  0  0  0  0  0
  128.2102  132.1810   61.0496 H   0  0  0  0  0  0  0  0  0  0  0  0
  129.8293  133.0184   60.9710 H   0  0  0  0  0  0  0  0  0  0  0  0
  127.8392  132.6921   58.6722 H   0  0  0  0  0  0  0  0  0  0  0  0
  128.2188  134.2073   59.5675 H   0  0  0  0  0  0  0  0  0  0  0  0
  129.5136  131.7203   57.2991 H   0  0  0  0  0  0  0  0  0  0  0  0
  131.1240  132.5185   57.1953 H   0  0  0  0  0  0  0  0  0  0  0  0
  131.1439  130.4619   58.6387 H   0  0  0  0  0  0  0  0  0  0  0  0
  131.5812  131.9913   59.5347 H   0  0  0  0  0  0  0  0  0  0  0  0
  132.0528  130.0286   60.7309 H   0  0  0  0  0  0  0  0  0  0  0  0
  132.3833  128.2689   62.4462 H   0  0  0  0  0  0  0  0  0  0  0  0
  1  2  1  0
  2  3  2  0
  3  4  1  0
  4  5  2  0
  4  6  1  0
  6  7  1  0
  7  8  1  0
  8  9  2  0
  9 10  1  0
 10 11  1  0
  3 12  1  0
 12 13  1  0
 13 14  2  0
 14 15  1  0
 15 16  1  0
 16 17  2  0
 17 18  1  0
 18 19  2  0
 19 20  1  0
 20 21  1  0
 21 22  1  0
 22 23  1  0
 23 24  1  0
 24 25  1  0
 19 26  1  0
 26 27  2  0
 15 28  2  0
 28 29  1  0
 29 30  1  0
 30 31  2  0
 31 32  1  0
 32 33  2  0
 33 34  1  0
 34 35  1  0
 35 36  1  0
 36 37  1  0
 37 38  1  0
 38 39  1  0
 33 40  1  0
 40 41  2  0
 29 42  2  0
 42  2  1  0
 11  7  2  0
 42 13  1  0
 27 16  1  0
 41 30  1  0
 25 20  1  0
 39 34  1  0
  1 43  1  0
  1 44  1  0
  6 45  1  0
  8 46  1  0
  9 47  1  0
 17 48  1  0
 18 49  1  0
 21 50  1  0
 21 51  1  0
 22 52  1  0
 22 53  1  0
 24 54  1  0
 24 55  1  0
 25 56  1  0
 25 57  1  0
 26 58  1  0
 27 59  1  0
 28 60  1  0
 31 61  1  0
 32 62  1  0
 35 63  1  0
 35 64  1  0
 36 65  1  0
 36 66  1  0
 38 67  1  0
 38 68  1  0
 39 69  1  0
 39 70  1  0
 40 71  1  0
 41 72  1  0
M  END
>  <Binding energies>  (1) 
[-7.97]

>  <Ligand effiencies>  (1) 
[-0.1771111111111111]

>  <Interactions>  (1) 
["V-A:TYR:539:CD1:4872, V-B:GLU:543:CB:9877, V-A:GLU:543:CB:4905, V-B:TYR:539:CD2:9845, V-B:HIS:456:CE1:9040, V-A:HIS:456:CE1:4069, V-A:GLU:543:CD:4907, V-A:TYR:539:CE1:4874, V-B:GLU:543:CD:9879, V-A:ASP:366:CG:3212, V-B:LYS:547:CE:9921, V-B:GLU:543:CG:9878, V-B:HIS:456:CD2:9038, H-B:LYS:547:NZ:9922, V-A:SER:385:CA:3406, V-A:TYR:484:CE2:4345, V-A:LEU:475:CD2:4258, H-A:TYR:484:OH:4347, H-A:ASP:366:OD2:3214, V-A:TYR:539:C:4866, V-B:HIS:456:CG:9036"]

$$$$
9c_Ghoteimi_2023
     RDKit          3D

 72 78  0  0  0  0  0  0  0  0999 V2000
  131.3710  125.7300   61.3200 N   0  0  0  0  0  0  0  0  0  0  0  0
  131.4640  125.1570   62.5630 C   0  0  0  0  0  0  0  0  0  0  0  0
  131.9850  123.8720   62.7840 C   0  0  0  0  0  0  0  0  0  0  0  0
  132.5290  122.9260   61.8060 C   0  0  0  0  0  0  0  0  0  0  0  0
  133.2840  123.3090   60.9100 O   0  0  0  0  0  0  0  0  0  0  0  0
  132.1380  121.6380   61.9630 N   0  0  0  0  0  0  0  0  0  0  0  0
  132.4930  120.5550   61.1700 C   0  0  0  0  0  0  0  0  0  0  0  0
  133.5850  120.4020   60.4530 N   0  0  0  0  0  0  0  0  0  0  0  0
  133.5900  119.2460   59.8180 C   0  0  0  0  0  0  0  0  0  0  0  0
  132.4780  118.4310   60.0150 C   0  0  0  0  0  0  0  0  0  0  0  0
  131.3750  119.2310   61.0930 S   0  0  0  0  0  0  0  0  0  0  0  0
  131.9260  123.4460   64.4940 S   0  0  0  0  0  0  0  0  0  0  0  0
  131.1890  124.9780   64.8970 C   0  0  0  0  0  0  0  0  0  0  0  0
  130.8450  125.2800   66.1480 N   0  0  0  0  0  0  0  0  0  0  0  0
  130.2630  126.4900   66.3530 C   0  0  0  0  0  0  0  0  0  0  0  0
  129.8670  126.7940   67.7620 C   0  0  0  0  0  0  0  0  0  0  0  0
  130.0570  128.0670   68.3100 C   0  0  0  0  0  0  0  0  0  0  0  0
  129.6960  128.3430   69.6240 C   0  0  0  0  0  0  0  0  0  0  0  0
  129.1410  127.3480   70.4460 C   0  0  0  0  0  0  0  0  0  0  0  0
  128.7660  127.6100   71.7690 N   0  0  0  0  0  0  0  0  0  0  0  0
  129.7600  128.0090   72.7860 C   0  0  0  0  0  0  0  0  0  0  0  0
  129.1380  128.5900   74.0730 C   0  0  0  0  0  0  0  0  0  0  0  0
  128.1990  127.6730   74.6130 O   0  0  0  0  0  0  0  0  0  0  0  0
  127.1440  127.4140   73.7020 C   0  0  0  0  0  0  0  0  0  0  0  0
  127.7030  126.8000   72.4010 C   0  0  0  0  0  0  0  0  0  0  0  0
  128.9350  126.0790   69.8860 C   0  0  0  0  0  0  0  0  0  0  0  0
  129.2940  125.8060   68.5690 C   0  0  0  0  0  0  0  0  0  0  0  0
  130.0540  127.4030   65.3160 C   0  0  0  0  0  0  0  0  0  0  0  0
  130.4340  127.0990   64.0040 C   0  0  0  0  0  0  0  0  0  0  0  0
  130.2200  128.1140   62.9430 C   0  0  0  0  0  0  0  0  0  0  0  0
  128.9310  128.5640   62.6480 C   0  0  0  0  0  0  0  0  0  0  0  0
  128.7280  129.5290   61.6650 C   0  0  0  0  0  0  0  0  0  0  0  0
  129.8080  130.0680   60.9500 C   0  0  0  0  0  0  0  0  0  0  0  0
  129.6280  131.0460   59.9660 N   0  0  0  0  0  0  0  0  0  0  0  0
  129.2170  132.4060   60.3700 C   0  0  0  0  0  0  0  0  0  0  0  0
  128.6820  133.2530   59.1960 C   0  0  0  0  0  0  0  0  0  0  0  0
  129.6480  133.3080   58.1570 O   0  0  0  0  0  0  0  0  0  0  0  0
  129.9580  132.0160   57.6600 C   0  0  0  0  0  0  0  0  0  0  0  0
  130.5210  131.1330   58.7950 C   0  0  0  0  0  0  0  0  0  0  0  0
  131.0990  129.6240   61.2690 C   0  0  0  0  0  0  0  0  0  0  0  0
  131.3030  128.6590   62.2520 C   0  0  0  0  0  0  0  0  0  0  0  0
  131.0140  125.8210   63.7600 C   0  0  0  0  0  0  0  0  0  0  0  0
  130.9450  125.2480   60.5410 H   0  0  0  0  0  0  0  0  0  0  0  0
  131.7270  126.6590   61.1410 H   0  0  0  0  0  0  0  0  0  0  0  0
  131.5240  121.4310   62.7370 H   0  0  0  0  0  0  0  0  0  0  0  0
  134.4252  118.9428   59.1695 H   0  0  0  0  0  0  0  0  0  0  0  0
  132.3231  117.4409   59.5614 H   0  0  0  0  0  0  0  0  0  0  0  0
  130.4990  128.8621   67.6916 H   0  0  0  0  0  0  0  0  0  0  0  0
  129.8472  129.3557   70.0260 H   0  0  0  0  0  0  0  0  0  0  0  0
  130.3530  127.1231   73.0571 H   0  0  0  0  0  0  0  0  0  0  0  0
  130.3723  128.8060   72.3390 H   0  0  0  0  0  0  0  0  0  0  0  0
  129.9327  128.7750   74.8107 H   0  0  0  0  0  0  0  0  0  0  0  0
  128.6257  129.5335   73.8334 H   0  0  0  0  0  0  0  0  0  0  0  0
  126.4330  126.7105   74.1597 H   0  0  0  0  0  0  0  0  0  0  0  0
  126.6352  128.3596   73.4633 H   0  0  0  0  0  0  0  0  0  0  0  0
  128.1157  125.8076   72.6350 H   0  0  0  0  0  0  0  0  0  0  0  0
  126.8691  126.7504   71.6854 H   0  0  0  0  0  0  0  0  0  0  0  0
  128.4818  125.2853   70.4981 H   0  0  0  0  0  0  0  0  0  0  0  0
  129.1247  124.7999   68.1577 H   0  0  0  0  0  0  0  0  0  0  0  0
  129.5845  128.3736   65.5339 H   0  0  0  0  0  0  0  0  0  0  0  0
  128.0703  128.1532   63.1961 H   0  0  0  0  0  0  0  0  0  0  0  0
  127.7066  129.8735   61.4460 H   0  0  0  0  0  0  0  0  0  0  0  0
  128.4255  132.3211   61.1291 H   0  0  0  0  0  0  0  0  0  0  0  0
  130.1105  132.9153   60.7602 H   0  0  0  0  0  0  0  0  0  0  0  0
  127.7577  132.7982   58.8103 H   0  0  0  0  0  0  0  0  0  0  0  0
  128.4757  134.2733   59.5515 H   0  0  0  0  0  0  0  0  0  0  0  0
  129.0456  131.5525   57.2567 H   0  0  0  0  0  0  0  0  0  0  0  0
  130.7134  132.1070   56.8656 H   0  0  0  0  0  0  0  0  0  0  0  0
  130.6800  130.1182   58.4014 H   0  0  0  0  0  0  0  0  0  0  0  0
  131.4582  131.5982   59.1345 H   0  0  0  0  0  0  0  0  0  0  0  0
  131.9638  130.0443   60.7347 H   0  0  0  0  0  0  0  0  0  0  0  0
  132.3245  128.3241   62.4853 H   0  0  0  0  0  0  0  0  0  0  0  0
  1  2  1  0
  2  3  2  0
  3  4  1  0
  4  5  2  0
  4  6  1  0
  6  7  1  0
  7  8  2  0
  8  9  1  0
  9 10  2  0
 10 11  1  0
  3 12  1  0
 12 13  1  0
 13 14  2  0
 14 15  1  0
 15 16  1  0
 16 17  2  0
 17 18  1  0
 18 19  2  0
 19 20  1  0
 20 21  1  0
 21 22  1  0
 22 23  1  0
 23 24  1  0
 24 25  1  0
 19 26  1  0
 26 27  2  0
 15 28  2  0
 28 29  1  0
 29 30  1  0
 30 31  2  0
 31 32  1  0
 32 33  2  0
 33 34  1  0
 34 35  1  0
 35 36  1  0
 36 37  1  0
 37 38  1  0
 38 39  1  0
 33 40  1  0
 40 41  2  0
 29 42  2  0
 42  2  1  0
 11  7  1  0
 42 13  1  0
 27 16  1  0
 41 30  1  0
 25 20  1  0
 39 34  1  0
  1 43  1  0
  1 44  1  0
  6 45  1  0
  9 46  1  0
 10 47  1  0
 17 48  1  0
 18 49  1  0
 21 50  1  0
 21 51  1  0
 22 52  1  0
 22 53  1  0
 24 54  1  0
 24 55  1  0
 25 56  1  0
 25 57  1  0
 26 58  1  0
 27 59  1  0
 28 60  1  0
 31 61  1  0
 32 62  1  0
 35 63  1  0
 35 64  1  0
 36 65  1  0
 36 66  1  0
 38 67  1  0
 38 68  1  0
 39 69  1  0
 39 70  1  0
 40 71  1  0
 41 72  1  0
M  END
>  <Binding energies>  (1) 
[-8.3]

>  <Ligand effiencies>  (1) 
[-0.18444444444444447]

>  <Interactions>  (1) 
["V-A:TYR:539:CD1:4872, V-B:GLU:543:CB:9877, V-A:GLU:543:CB:4905, V-B:TYR:539:CD2:9845, V-B:HIS:456:CE1:9040, V-A:HIS:456:CE1:4069, V-A:GLU:543:CD:4907, V-A:TYR:539:CE1:4874, V-B:TYR:539:CE2:9847, V-B:GLU:543:CD:9879, V-A:ASP:366:CG:3212, V-B:LYS:547:CE:9921, V-B:GLU:543:CG:9878, V-B:HIS:456:CD2:9038, H-B:LYS:547:NZ:9922, V-A:VAL:384:C:3396, V-A:ILE:369:CG2:3236, V-A:SER:385:CA:3406, V-A:TYR:484:CE2:4345, V-A:LEU:475:CD2:4258, H-A:TYR:484:OH:4347, H-A:ASP:366:OD1:3213, H-A:ASP:366:OD2:3214, V-A:TYR:539:C:4866, V-B:HIS:456:CG:9036"]

$$$$
9d_Ghoteimi_2023
     RDKit          3D

 68 73  0  0  0  0  0  0  0  0999 V2000
  132.3790  126.8660   57.0310 C   0  0  0  0  0  0  0  0  0  0  0  0
  130.9820  127.1150   57.0850 O   0  0  0  0  0  0  0  0  0  0  0  0
  130.4700  128.0240   57.9550 C   0  0  0  0  0  0  0  0  0  0  0  0
  130.0240  129.1240   57.6200 O   0  0  0  0  0  0  0  0  0  0  0  0
  130.5050  127.5600   59.3600 C   0  0  0  0  0  0  0  0  0  0  0  0
  130.3330  128.7230   60.6730 S   0  0  0  0  0  0  0  0  0  0  0  0
  130.4450  127.4520   61.8670 C   0  0  0  0  0  0  0  0  0  0  0  0
  130.3430  127.7080   63.1710 N   0  0  0  0  0  0  0  0  0  0  0  0
  130.4260  126.6470   64.0160 C   0  0  0  0  0  0  0  0  0  0  0  0
  130.2840  126.9550   65.4730 C   0  0  0  0  0  0  0  0  0  0  0  0
  130.9770  126.2050   66.4280 C   0  0  0  0  0  0  0  0  0  0  0  0
  130.8500  126.4820   67.7860 C   0  0  0  0  0  0  0  0  0  0  0  0
  130.0320  127.5300   68.2390 C   0  0  0  0  0  0  0  0  0  0  0  0
  129.8810  127.8090   69.6020 N   0  0  0  0  0  0  0  0  0  0  0  0
  130.2540  129.1230   70.1630 C   0  0  0  0  0  0  0  0  0  0  0  0
  130.3510  129.1400   71.7020 C   0  0  0  0  0  0  0  0  0  0  0  0
  129.1390  128.6710   72.2700 O   0  0  0  0  0  0  0  0  0  0  0  0
  128.8600  127.3390   71.8690 C   0  0  0  0  0  0  0  0  0  0  0  0
  128.7180  127.2650   70.3340 C   0  0  0  0  0  0  0  0  0  0  0  0
  129.3270  128.2690   67.2780 C   0  0  0  0  0  0  0  0  0  0  0  0
  129.4530  127.9890   65.9200 C   0  0  0  0  0  0  0  0  0  0  0  0
  130.6420  125.3450   63.5600 C   0  0  0  0  0  0  0  0  0  0  0  0
  130.7690  125.0730   62.1930 C   0  0  0  0  0  0  0  0  0  0  0  0
  131.0260  123.6730   61.7630 C   0  0  0  0  0  0  0  0  0  0  0  0
  132.3310  123.2150   61.5690 C   0  0  0  0  0  0  0  0  0  0  0  0
  132.5680  121.8980   61.1850 C   0  0  0  0  0  0  0  0  0  0  0  0
  131.5050  120.9990   61.0000 C   0  0  0  0  0  0  0  0  0  0  0  0
  131.7150  119.6760   60.6060 N   0  0  0  0  0  0  0  0  0  0  0  0
  131.2370  118.5840   61.4760 C   0  0  0  0  0  0  0  0  0  0  0  0
  131.1780  117.2170   60.7600 C   0  0  0  0  0  0  0  0  0  0  0  0
  132.4460  116.9040   60.2040 O   0  0  0  0  0  0  0  0  0  0  0  0
  132.8590  117.8790   59.2570 C   0  0  0  0  0  0  0  0  0  0  0  0
  132.9640  119.2610   59.9390 C   0  0  0  0  0  0  0  0  0  0  0  0
  130.1990  121.4710   61.1970 C   0  0  0  0  0  0  0  0  0  0  0  0
  129.9630  122.7880   61.5790 C   0  0  0  0  0  0  0  0  0  0  0  0
  130.6440  126.1640   61.2870 C   0  0  0  0  0  0  0  0  0  0  0  0
  130.6540  126.2570   59.8510 C   0  0  0  0  0  0  0  0  0  0  0  0
  130.7770  125.1620   59.0340 N   0  0  0  0  0  0  0  0  0  0  0  0
  132.7785  126.7948   58.0534 H   0  0  0  0  0  0  0  0  0  0  0  0
  132.5627  125.9210   56.4989 H   0  0  0  0  0  0  0  0  0  0  0  0
  132.8779  127.6894   56.4989 H   0  0  0  0  0  0  0  0  0  0  0  0
  131.6322  125.3840   66.1013 H   0  0  0  0  0  0  0  0  0  0  0  0
  131.3993  125.8700   68.5166 H   0  0  0  0  0  0  0  0  0  0  0  0
  131.2326  129.4104   69.7510 H   0  0  0  0  0  0  0  0  0  0  0  0
  129.4559  129.8272   69.8853 H   0  0  0  0  0  0  0  0  0  0  0  0
  131.1787  128.4899   72.0220 H   0  0  0  0  0  0  0  0  0  0  0  0
  130.5333  130.1705   72.0408 H   0  0  0  0  0  0  0  0  0  0  0  0
  129.6823  126.6827   72.1902 H   0  0  0  0  0  0  0  0  0  0  0  0
  127.9175  127.0135   72.3335 H   0  0  0  0  0  0  0  0  0  0  0  0
  128.5899  126.2107   70.0477 H   0  0  0  0  0  0  0  0  0  0  0  0
  127.8496  127.8829   70.0617 H   0  0  0  0  0  0  0  0  0  0  0  0
  128.6631  129.0838   67.6027 H   0  0  0  0  0  0  0  0  0  0  0  0
  128.8918  128.5886   65.1882 H   0  0  0  0  0  0  0  0  0  0  0  0
  130.7134  124.5213   64.2856 H   0  0  0  0  0  0  0  0  0  0  0  0
  133.1781  123.9001   61.7208 H   0  0  0  0  0  0  0  0  0  0  0  0
  133.6014  121.5570   61.0244 H   0  0  0  0  0  0  0  0  0  0  0  0
  131.9174  118.4990   62.3361 H   0  0  0  0  0  0  0  0  0  0  0  0
  130.2115  118.8363   61.7836 H   0  0  0  0  0  0  0  0  0  0  0  0
  130.8958  116.4386   61.4842 H   0  0  0  0  0  0  0  0  0  0  0  0
  130.4321  117.2645   59.9529 H   0  0  0  0  0  0  0  0  0  0  0  0
  133.8409  117.5981   58.8485 H   0  0  0  0  0  0  0  0  0  0  0  0
  132.1198  117.9309   58.4440 H   0  0  0  0  0  0  0  0  0  0  0  0
  133.7652  119.2196   60.6916 H   0  0  0  0  0  0  0  0  0  0  0  0
  133.1750  119.9992   59.1513 H   0  0  0  0  0  0  0  0  0  0  0  0
  129.3485  120.7897   61.0472 H   0  0  0  0  0  0  0  0  0  0  0  0
  128.9309  123.1340   61.7371 H   0  0  0  0  0  0  0  0  0  0  0  0
  130.6330  125.2230   58.0370 H   0  0  0  0  0  0  0  0  0  0  0  0
  131.0200  124.2530   59.4040 H   0  0  0  0  0  0  0  0  0  0  0  0
  1  2  1  0
  2  3  1  0
  3  4  2  0
  3  5  1  0
  5  6  1  0
  6  7  1  0
  7  8  2  0
  8  9  1  0
  9 10  1  0
 10 11  2  0
 11 12  1  0
 12 13  2  0
 13 14  1  0
 14 15  1  0
 15 16  1  0
 16 17  1  0
 17 18  1  0
 18 19  1  0
 13 20  1  0
 20 21  2  0
  9 22  2  0
 22 23  1  0
 23 24  1  0
 24 25  2  0
 25 26  1  0
 26 27  2  0
 27 28  1  0
 28 29  1  0
 29 30  1  0
 30 31  1  0
 31 32  1  0
 32 33  1  0
 27 34  1  0
 34 35  2  0
 23 36  2  0
 36 37  1  0
 37 38  1  0
 37  5  2  0
 36  7  1  0
 21 10  1  0
 35 24  1  0
 19 14  1  0
 33 28  1  0
  1 39  1  0
  1 40  1  0
  1 41  1  0
 11 42  1  0
 12 43  1  0
 15 44  1  0
 15 45  1  0
 16 46  1  0
 16 47  1  0
 18 48  1  0
 18 49  1  0
 19 50  1  0
 19 51  1  0
 20 52  1  0
 21 53  1  0
 22 54  1  0
 25 55  1  0
 26 56  1  0
 29 57  1  0
 29 58  1  0
 30 59  1  0
 30 60  1  0
 32 61  1  0
 32 62  1  0
 33 63  1  0
 33 64  1  0
 34 65  1  0
 35 66  1  0
 38 67  1  0
 38 68  1  0
M  END
>  <Binding energies>  (1) 
[-7.24]

>  <Ligand effiencies>  (1) 
[-0.181]

>  <Interactions>  (1) 
["V-A:GLU:543:CB:4905, V-B:TYR:539:CD2:9845, V-B:HIS:456:CE1:9040, H-A:TYR:531:OH:4794, V-A:HIS:456:CE1:4069, V-A:GLU:543:CD:4907, V-A:GLU:543:CG:4906, V-B:TYR:539:CE2:9847, V-B:GLU:543:CD:9879, V-A:ASP:366:CB:3211, V-A:TYR:531:CZ:4793, V-A:VAL:384:C:3396, V-A:ILE:369:CG2:3236, V-A:SER:385:CA:3406, H-A:ARG:545:NH2:4927, V-A:LEU:475:CD2:4258, V-A:HIS:383:CE1:3393, H-B:TYR:539:OH:9849, V-A:ASP:366:C:3207, V-A:TYR:531:CE1:4791, V-A:LEU:373:CD2:3280, V-A:LEU:373:CG:3278, V-A:LEU:373:CD1:3279, H-A:HIS:383:ND1:3390, V-A:GLU:543:C:4901, V-A:GLY:544:C:4911, V-A:GLY:544:CA:4913, V-A:GLU:543:CA:4903"]

$$$$
RR10_Rahimova_2017
     RDKit          3D

 66 70  0  0  0  0  0  0  0  0999 V2000
  133.5920  132.1580   58.4150 C   0  0  0  0  0  0  0  0  0  0  0  0
  132.3620  131.2550   58.2200 C   0  0  1  0  0  0  0  0  0  0  0  0
  132.6200  129.8140   58.7180 C   0  0  0  0  0  0  0  0  0  0  0  0
  131.3850  128.9160   58.4810 C   0  0  0  0  0  0  0  0  0  0  0  0
  130.1160  129.4730   59.1760 C   0  0  1  0  0  0  0  0  0  0  0  0
  130.2430  129.3900   60.6370 N   0  0  0  0  0  0  0  0  0  0  0  0
  130.3300  128.2510   61.3480 C   0  0  0  0  0  0  0  0  0  0  0  0
  130.3330  127.1330   60.8280 O   0  0  0  0  0  0  0  0  0  0  0  0
  130.4130  128.3960   62.8820 C   0  0  1  0  0  0  0  0  0  0  0  0
  129.0490  128.8930   63.4270 C   0  0  0  0  0  0  0  0  0  0  0  0
  129.1000  128.9500   64.9730 C   0  0  0  0  0  0  0  0  0  0  0  0
  129.5810  127.6220   65.6000 C   0  0  0  0  0  0  0  0  0  0  0  0
  130.8600  127.1810   64.9800 N   0  0  0  0  0  0  0  0  0  0  0  0
  131.6570  125.8390   65.8170 S   0  0  0  0  0  0  0  0  0  0  0  0
  130.6290  125.0670   66.5260 O   0  0  0  0  0  0  0  0  0  0  0  0
  132.8080  126.3840   66.5490 O   0  0  0  0  0  0  0  0  0  0  0  0
  132.2850  124.7820   64.5120 C   0  0  0  0  0  0  0  0  0  0  0  0
  133.4270  125.1720   63.8050 C   0  0  0  0  0  0  0  0  0  0  0  0
  133.9650  124.3960   62.7750 C   0  0  0  0  0  0  0  0  0  0  0  0
  133.3040  123.2000   62.4840 C   0  0  0  0  0  0  0  0  0  0  0  0
  133.5110  122.1950   61.5690 N   0  0  0  0  0  0  0  0  0  0  0  0
  132.5220  121.2490   61.7460 C   0  0  0  0  0  0  0  0  0  0  0  0
  132.4100  120.0010   60.9190 C   0  0  0  0  0  0  0  0  0  0  0  0
  133.3540  119.7220   59.9220 C   0  0  0  0  0  0  0  0  0  0  0  0
  133.2530  118.5630   59.1570 C   0  0  0  0  0  0  0  0  0  0  0  0
  132.2050  117.6750   59.3850 C   0  0  0  0  0  0  0  0  0  0  0  0
  131.2590  117.9370   60.3720 C   0  0  0  0  0  0  0  0  0  0  0  0
  131.3610  119.0970   61.1360 C   0  0  0  0  0  0  0  0  0  0  0  0
  131.6970  121.5750   62.7160 N   0  0  0  0  0  0  0  0  0  0  0  0
  132.1520  122.7770   63.1900 C   0  0  0  0  0  0  0  0  0  0  0  0
  131.6370  123.5760   64.2210 C   0  0  0  0  0  0  0  0  0  0  0  0
  130.7800  127.0260   63.5050 C   0  0  0  0  0  0  0  0  0  0  0  0
  129.8790  130.9260   58.6800 C   0  0  0  0  0  0  0  0  0  0  0  0
  131.1090  131.8280   58.9220 C   0  0  0  0  0  0  0  0  0  0  0  0
  133.7792  132.2954   59.4902 H   0  0  0  0  0  0  0  0  0  0  0  0
  134.4697  131.6882   57.9471 H   0  0  0  0  0  0  0  0  0  0  0  0
  133.4067  133.1361   57.9471 H   0  0  0  0  0  0  0  0  0  0  0  0
  132.1746  131.2242   57.1365 H   0  0  0  0  0  0  0  0  0  0  0  0
  133.4794  129.3942   58.1747 H   0  0  0  0  0  0  0  0  0  0  0  0
  132.8259  129.8484   59.7980 H   0  0  0  0  0  0  0  0  0  0  0  0
  131.1968  128.8502   57.3992 H   0  0  0  0  0  0  0  0  0  0  0  0
  131.5990  127.9261   58.9102 H   0  0  0  0  0  0  0  0  0  0  0  0
  129.2375  128.8664   58.9109 H   0  0  0  0  0  0  0  0  0  0  0  0
  130.1400  130.2600   61.1390 H   0  0  0  0  0  0  0  0  0  0  0  0
  131.1886  129.1286   63.1498 H   0  0  0  0  0  0  0  0  0  0  0  0
  128.8396  129.8972   63.0299 H   0  0  0  0  0  0  0  0  0  0  0  0
  128.2544  128.2007   63.1120 H   0  0  0  0  0  0  0  0  0  0  0  0
  129.7901  129.7521   65.2736 H   0  0  0  0  0  0  0  0  0  0  0  0
  128.0781  129.1384   65.3338 H   0  0  0  0  0  0  0  0  0  0  0  0
  129.7340  127.7669   66.6796 H   0  0  0  0  0  0  0  0  0  0  0  0
  128.8174  126.8502   65.4232 H   0  0  0  0  0  0  0  0  0  0  0  0
  133.9177  126.1206   64.0684 H   0  0  0  0  0  0  0  0  0  0  0  0
  134.8624  124.7104   62.2220 H   0  0  0  0  0  0  0  0  0  0  0  0
  134.2360  122.1170   60.8700 H   0  0  0  0  0  0  0  0  0  0  0  0
  134.1815  120.4241   59.7422 H   0  0  0  0  0  0  0  0  0  0  0  0
  133.9978  118.3498   58.3760 H   0  0  0  0  0  0  0  0  0  0  0  0
  132.1240  116.7595   58.7806 H   0  0  0  0  0  0  0  0  0  0  0  0
  130.4342  117.2307   60.5478 H   0  0  0  0  0  0  0  0  0  0  0  0
  130.6130  119.3052   61.9152 H   0  0  0  0  0  0  0  0  0  0  0  0
  130.7468  123.2630   64.7864 H   0  0  0  0  0  0  0  0  0  0  0  0
  131.7520  126.6901   63.1146 H   0  0  0  0  0  0  0  0  0  0  0  0
  130.0145  126.2793   63.2471 H   0  0  0  0  0  0  0  0  0  0  0  0
  129.6627  130.9023   57.6017 H   0  0  0  0  0  0  0  0  0  0  0  0
  129.0340  131.3447   59.2463 H   0  0  0  0  0  0  0  0  0  0  0  0
  130.9021  132.8328   58.5252 H   0  0  0  0  0  0  0  0  0  0  0  0
  131.3031  131.8738   60.0038 H   0  0  0  0  0  0  0  0  0  0  0  0
  1  2  1  0
  2  3  1  0
  3  4  1  0
  4  5  1  0
  5  6  1  0
  6  7  1  0
  7  8  2  0
  7  9  1  0
  9 10  1  0
 10 11  1  0
 11 12  1  0
 12 13  1  0
 13 14  1  0
 14 15  2  0
 14 16  2  0
 14 17  1  0
 17 18  2  0
 18 19  1  0
 19 20  2  0
 20 21  1  0
 21 22  1  0
 22 23  1  0
 23 24  2  0
 24 25  1  0
 25 26  2  0
 26 27  1  0
 27 28  2  0
 22 29  2  0
 29 30  1  0
 30 31  2  0
 13 32  1  0
  5 33  1  0
 33 34  1  0
 34  2  1  0
 32  9  1  0
 31 17  1  0
 30 20  1  0
 28 23  1  0
  1 35  1  0
  1 36  1  0
  1 37  1  0
  2 38  1  6
  3 39  1  0
  3 40  1  0
  4 41  1  0
  4 42  1  0
  5 43  1  6
  6 44  1  0
  9 45  1  6
 10 46  1  0
 10 47  1  0
 11 48  1  0
 11 49  1  0
 12 50  1  0
 12 51  1  0
 18 52  1  0
 19 53  1  0
 21 54  1  0
 24 55  1  0
 25 56  1  0
 26 57  1  0
 27 58  1  0
 28 59  1  0
 31 60  1  0
 32 61  1  0
 32 62  1  0
 33 63  1  0
 33 64  1  0
 34 65  1  0
 34 66  1  0
M  END
>  <Binding energies>  (1) 
[-8.97]

>  <Ligand effiencies>  (1) 
[-0.24916666666666668]

>  <Interactions>  (1) 
["V-A:PRO:540:CA:4882, V-B:TYR:539:CD2:9845, V-A:PRO:540:CB:4884, V-A:GLU:543:CD:4907, V-A:GLU:543:CG:4906, V-B:TYR:539:CE2:9847, V-B:GLU:543:CD:9879, V-B:TYR:539:CG:9843, V-A:ASP:366:CG:3212, V-A:ASP:366:CB:3211, V-A:VAL:384:C:3396, H-A:ARG:545:NE:4923, V-A:ILE:369:CG2:3236, V-A:ARG:545:CZ:4925, V-A:SER:385:CA:3406, H-A:ARG:545:NH2:4927, V-A:ILE:369:CD1:3238, V-A:LEU:475:CD2:4258, V-A:HIS:383:CE1:3393, V-B:TYR:539:CB:9842, H-A:TYR:484:OH:4347, V-A:LEU:373:CD2:3280, V-A:LEU:373:CG:3278, H-A:SER:385:O:3405, H-A:GLU:543:OE2:4909, V-A:LEU:363:CD1:3188, V-A:LEU:363:CA:3184, V-A:LEU:363:CB:3186"]

$$$$
RR11_Rahimova_2017
     RDKit          3D

 55 60  0  0  0  0  0  0  0  0999 V2000
  134.2170  122.5000   62.2510 N   0  0  0  0  0  0  0  0  0  0  0  0
  133.5080  123.3720   63.0750 C   0  0  0  0  0  0  0  0  0  0  0  0
  132.3220  122.9500   63.6730 C   0  0  0  0  0  0  0  0  0  0  0  0
  131.6160  123.8200   64.4990 C   0  0  0  0  0  0  0  0  0  0  0  0
  132.0880  125.1180   64.7340 C   0  0  0  0  0  0  0  0  0  0  0  0
  131.3280  126.0520   65.6290 C   0  0  0  0  0  0  0  0  0  0  0  0
  131.5500  126.1920   66.9180 N   0  0  0  0  0  0  0  0  0  0  0  0
  130.6570  127.1420   67.3380 C   0  0  0  0  0  0  0  0  0  0  0  0
  130.4680  127.6740   68.6210 C   0  0  0  0  0  0  0  0  0  0  0  0
  129.4900  128.6610   68.7950 C   0  0  0  0  0  0  0  0  0  0  0  0
  129.2590  129.2540   70.1780 C   0  0  0  0  0  0  0  0  0  0  0  0
  129.3850  128.2260   71.2940 C   0  0  0  0  0  0  0  0  0  0  0  0
  129.7100  128.6500   72.5870 C   0  0  0  0  0  0  0  0  0  0  0  0
  129.8280  127.7460   73.6450 C   0  0  0  0  0  0  0  0  0  0  0  0
  129.6060  126.3880   73.3820 C   0  0  0  0  0  0  0  0  0  0  0  0
  129.6670  125.3160   74.2350 N   0  0  0  0  0  0  0  0  0  0  0  0
  129.3810  124.2670   73.4950 C   0  0  0  0  0  0  0  0  0  0  0  0
  129.3430  122.8540   74.0030 C   0  0  0  0  0  0  0  0  0  0  0  0
  130.5310  122.1530   74.2430 C   0  0  0  0  0  0  0  0  0  0  0  0
  130.4970  120.8400   74.7050 C   0  0  0  0  0  0  0  0  0  0  0  0
  129.2710  120.2180   74.9310 C   0  0  0  0  0  0  0  0  0  0  0  0
  129.2350  118.9010   75.3880 N   0  0  0  0  0  0  0  0  0  0  0  0
  128.0810  120.9040   74.7010 C   0  0  0  0  0  0  0  0  0  0  0  0
  128.1170  122.2170   74.2390 C   0  0  0  0  0  0  0  0  0  0  0  0
  129.1260  124.6130   72.1850 N   0  0  0  0  0  0  0  0  0  0  0  0
  129.2650  125.9760   72.0720 C   0  0  0  0  0  0  0  0  0  0  0  0
  129.1400  126.8760   71.0100 C   0  0  0  0  0  0  0  0  0  0  0  0
  128.7040  129.0830   67.7180 C   0  0  0  0  0  0  0  0  0  0  0  0
  128.8640  128.5680   66.4290 C   0  0  0  0  0  0  0  0  0  0  0  0
  129.8540  127.5970   66.2660 C   0  0  0  0  0  0  0  0  0  0  0  0
  130.3110  126.8740   65.1890 N   0  0  0  0  0  0  0  0  0  0  0  0
  133.2810  125.5290   64.1250 C   0  0  0  0  0  0  0  0  0  0  0  0
  133.9890  124.6610   63.3000 C   0  0  0  0  0  0  0  0  0  0  0  0
  133.9490  122.4050   61.2810 H   0  0  0  0  0  0  0  0  0  0  0  0
  135.0150  122.0050   62.6210 H   0  0  0  0  0  0  0  0  0  0  0  0
  131.9449  121.9325   63.4928 H   0  0  0  0  0  0  0  0  0  0  0  0
  130.6802  123.4858   64.9709 H   0  0  0  0  0  0  0  0  0  0  0  0
  131.0732  127.3247   69.4705 H   0  0  0  0  0  0  0  0  0  0  0  0
  130.0010  130.0482   70.3474 H   0  0  0  0  0  0  0  0  0  0  0  0
  128.2300  129.6420   70.2023 H   0  0  0  0  0  0  0  0  0  0  0  0
  129.8766  129.7210   72.7748 H   0  0  0  0  0  0  0  0  0  0  0  0
  130.0880  128.0907   74.6567 H   0  0  0  0  0  0  0  0  0  0  0  0
  131.4993  122.6437   74.0651 H   0  0  0  0  0  0  0  0  0  0  0  0
  131.4347  120.2958   74.8909 H   0  0  0  0  0  0  0  0  0  0  0  0
  128.3560  118.5030   75.6890 H   0  0  0  0  0  0  0  0  0  0  0  0
  130.0810  118.3490   75.3810 H   0  0  0  0  0  0  0  0  0  0  0  0
  127.1154  120.4099   74.8838 H   0  0  0  0  0  0  0  0  0  0  0  0
  127.1766  122.7582   74.0579 H   0  0  0  0  0  0  0  0  0  0  0  0
  128.8900  123.9410   71.4690 H   0  0  0  0  0  0  0  0  0  0  0  0
  128.8626  126.5406   69.9998 H   0  0  0  0  0  0  0  0  0  0  0  0
  127.9324  129.8475   67.8918 H   0  0  0  0  0  0  0  0  0  0  0  0
  128.2431  128.9093   65.5876 H   0  0  0  0  0  0  0  0  0  0  0  0
  129.9980  126.9050   64.2300 H   0  0  0  0  0  0  0  0  0  0  0  0
  133.6609  126.5463   64.3006 H   0  0  0  0  0  0  0  0  0  0  0  0
  134.9256  124.9908   62.8266 H   0  0  0  0  0  0  0  0  0  0  0  0
  1  2  1  0
  2  3  2  0
  3  4  1  0
  4  5  2  0
  5  6  1  0
  6  7  2  0
  7  8  1  0
  8  9  2  0
  9 10  1  0
 10 11  1  0
 11 12  1  0
 12 13  2  0
 13 14  1  0
 14 15  2  0
 15 16  1  0
 16 17  2  0
 17 18  1  0
 18 19  2  0
 19 20  1  0
 20 21  2  0
 21 22  1  0
 21 23  1  0
 23 24  2  0
 17 25  1  0
 25 26  1  0
 26 27  2  0
 10 28  2  0
 28 29  1  0
 29 30  2  0
 30 31  1  0
  5 32  1  0
 32 33  2  0
 33  2  1  0
 31  6  1  0
 30  8  1  0
 27 12  1  0
 26 15  1  0
 24 18  1  0
  1 34  1  0
  1 35  1  0
  3 36  1  0
  4 37  1  0
  9 38  1  0
 11 39  1  0
 11 40  1  0
 13 41  1  0
 14 42  1  0
 19 43  1  0
 20 44  1  0
 22 45  1  0
 22 46  1  0
 23 47  1  0
 24 48  1  0
 25 49  1  0
 27 50  1  0
 28 51  1  0
 29 52  1  0
 31 53  1  0
 32 54  1  0
 33 55  1  0
M  END
>  <Binding energies>  (1) 
[-8.33]

>  <Ligand effiencies>  (1) 
[-0.21358974358974359]

>  <Interactions>  (1) 
["V-A:GLU:543:CB:4905, V-B:HIS:456:CE1:9040, V-A:HIS:456:CE1:4069, V-A:GLU:543:CD:4907, V-A:GLU:543:CG:4906, V-B:GLU:543:CD:9879, V-A:ASP:366:CG:3212, V-B:LYS:547:CE:9921, V-B:GLU:543:C:9873, V-A:HIS:456:CD2:4067, H-B:LYS:547:NZ:9922, V-A:ARG:545:CZ:4925, V-A:ILE:369:CD1:3238, H-A:TYR:484:OH:4347, V-A:GLY:453:C:4041, V-A:GLY:453:CA:4043, V-A:GLY:454:CA:4048, H-A:SER:385:O:3405, H-B:GLU:543:OE2:9881, V-A:GLU:543:C:4901, H-A:HIS:456:NE2:4070, H-A:ASP:485:OD2:4357, V-A:ASP:473:CG:4239, H-B:GLU:543:O:9874, V-A:TYR:484:CB:4340, V-A:TYR:484:C:4336, H-A:TYR:484:O:4337"]

$$$$
RR11_Rahimova_2017-again1
     RDKit          3D

 56 61  0  0  0  0  0  0  0  0999 V2000
  128.1440  118.6110   75.1080 N   0  0  0  0  0  0  0  0  0  0  0  0
  128.4320  119.9420   74.8080 C   0  0  0  0  0  0  0  0  0  0  0  0
  129.7550  120.3780   74.7890 C   0  0  0  0  0  0  0  0  0  0  0  0
  130.0410  121.7090   74.4930 C   0  0  0  0  0  0  0  0  0  0  0  0
  129.0080  122.6130   74.2140 C   0  0  0  0  0  0  0  0  0  0  0  0
  129.3170  124.0490   73.9020 C   0  0  0  0  0  0  0  0  0  0  0  0
  129.7980  124.9100   74.7710 N   0  0  0  0  0  0  0  0  0  0  0  0
  129.9090  126.0920   74.0860 C   0  0  0  0  0  0  0  0  0  0  0  0
  130.3630  127.3390   74.5360 C   0  0  0  0  0  0  0  0  0  0  0  0
  130.3650  128.4030   73.6330 C   0  0  0  0  0  0  0  0  0  0  0  0
  129.9260  128.2460   72.3140 C   0  0  0  0  0  0  0  0  0  0  0  0
  129.9450  129.4420   71.3720 C   0  0  0  0  0  0  0  0  0  0  0  0
  129.5520  129.0740   69.9480 C   0  0  0  0  0  0  0  0  0  0  0  0
  130.2460  128.0570   69.2810 C   0  0  0  0  0  0  0  0  0  0  0  0
  129.9320  127.6770   67.9740 C   0  0  0  0  0  0  0  0  0  0  0  0
  128.8800  128.3620   67.3580 C   0  0  0  0  0  0  0  0  0  0  0  0
  128.3220  128.2540   66.0910 N   0  0  0  0  0  0  0  0  0  0  0  0
  127.2970  129.1610   65.9480 C   0  0  0  0  0  0  0  0  0  0  0  0
  126.4520  129.3790   64.7340 C   0  0  0  0  0  0  0  0  0  0  0  0
  125.4150  130.3190   64.7600 C   0  0  0  0  0  0  0  0  0  0  0  0
  124.6310  130.5320   63.6300 C   0  0  0  0  0  0  0  0  0  0  0  0
  124.8800  129.8040   62.4670 C   0  0  0  0  0  0  0  0  0  0  0  0
  124.0960  130.0210   61.3350 N   0  0  0  0  0  0  0  0  0  0  0  0
  125.9090  128.8650   62.4310 C   0  0  0  0  0  0  0  0  0  0  0  0
  126.6930  128.6520   63.5620 C   0  0  0  0  0  0  0  0  0  0  0  0
  127.2090  129.8380   67.1420 N   0  0  0  0  0  0  0  0  0  0  0  0
  128.1710  129.3720   68.0270 C   0  0  0  0  0  0  0  0  0  0  0  0
  128.4850  129.7440   69.3370 C   0  0  0  0  0  0  0  0  0  0  0  0
  129.4900  127.0040   71.8340 C   0  0  0  0  0  0  0  0  0  0  0  0
  129.4830  125.9450   72.7450 C   0  0  0  0  0  0  0  0  0  0  0  0
  129.1180  124.6210   72.6630 N   0  0  0  0  0  0  0  0  0  0  0  0
  127.6820  122.1600   74.2350 C   0  0  0  0  0  0  0  0  0  0  0  0
  127.3950  120.8300   74.5300 C   0  0  0  0  0  0  0  0  0  0  0  0
  128.7730  117.8850   74.7980 H   0  0  0  0  0  0  0  0  0  0  0  0
  127.2890  118.3870   75.5960 H   0  0  0  0  0  0  0  0  0  0  0  0
  130.5712  119.6736   75.0070 H   0  0  0  0  0  0  0  0  0  0  0  0
  131.0859  122.0526   74.4783 H   0  0  0  0  0  0  0  0  0  0  0  0
  130.7080  127.4753   75.5716 H   0  0  0  0  0  0  0  0  0  0  0  0
  130.7204  129.3891   73.9665 H   0  0  0  0  0  0  0  0  0  0  0  0
  129.2392  130.1974   71.7479 H   0  0  0  0  0  0  0  0  0  0  0  0
  130.9752  129.8266   71.3437 H   0  0  0  0  0  0  0  0  0  0  0  0
  131.0650  127.5406   69.8032 H   0  0  0  0  0  0  0  0  0  0  0  0
  130.4843  126.8793   67.4556 H   0  0  0  0  0  0  0  0  0  0  0  0
  128.5960  127.6250   65.3500 H   0  0  0  0  0  0  0  0  0  0  0  0
  125.2188  130.8922   65.6782 H   0  0  0  0  0  0  0  0  0  0  0  0
  123.8176  131.2722   63.6542 H   0  0  0  0  0  0  0  0  0  0  0  0
  123.5110  129.2770   60.9840 H   0  0  0  0  0  0  0  0  0  0  0  0
  124.1440  130.9110   60.8600 H   0  0  0  0  0  0  0  0  0  0  0  0
  126.1016  128.2933   61.5112 H   0  0  0  0  0  0  0  0  0  0  0  0
  127.5045  127.9099   63.5345 H   0  0  0  0  0  0  0  0  0  0  0  0
  126.5280  130.5660   67.3010 H   0  0  0  0  0  0  0  0  0  0  0  0
  127.9200  130.5271   69.8638 H   0  0  0  0  0  0  0  0  0  0  0  0
  129.1688  126.8693   70.7906 H   0  0  0  0  0  0  0  0  0  0  0  0
  128.7550  124.1140   71.8700 H   0  0  0  0  0  0  0  0  0  0  0  0
  126.8622  122.8602   74.0169 H   0  0  0  0  0  0  0  0  0  0  0  0
  126.3519  120.4810   74.5436 H   0  0  0  0  0  0  0  0  0  0  0  0
  1  2  1  0
  2  3  2  0
  3  4  1  0
  4  5  2  0
  5  6  1  0
  6  7  2  0
  7  8  1  0
  8  9  2  0
  9 10  1  0
 10 11  2  0
 11 12  1  0
 12 13  1  0
 13 14  2  0
 14 15  1  0
 15 16  2  0
 16 17  1  0
 17 18  1  0
 18 19  1  0
 19 20  2  0
 20 21  1  0
 21 22  2  0
 22 23  1  0
 22 24  1  0
 24 25  2  0
 18 26  2  0
 26 27  1  0
 27 28  2  0
 11 29  1  0
 29 30  2  0
 30 31  1  0
  5 32  1  0
 32 33  2  0
 33  2  1  0
 31  6  1  0
 30  8  1  0
 28 13  1  0
 27 16  1  0
 25 19  1  0
  1 34  1  0
  1 35  1  0
  3 36  1  0
  4 37  1  0
  9 38  1  0
 10 39  1  0
 12 40  1  0
 12 41  1  0
 14 42  1  0
 15 43  1  0
 17 44  1  0
 20 45  1  0
 21 46  1  0
 23 47  1  0
 23 48  1  0
 24 49  1  0
 25 50  1  0
 26 51  1  0
 28 52  1  0
 29 53  1  0
 31 54  1  0
 32 55  1  0
 33 56  1  0
M  CHG  1  26   1
M  END
>  <Binding energies>  (1) 
[-9.09]

>  <Ligand effiencies>  (1) 
[-0.22725]

>  <Interactions>  (1) 
["H-B:TYR:484:OH:9318, V-A:GLU:543:CB:4905, V-B:ASP:366:CG:8183, V-B:HIS:456:CE1:9040, V-A:HIS:456:CE1:4069, V-A:GLU:543:CD:4907, V-B:ASP:366:CB:8182, V-B:GLU:543:CD:9879, V-B:LYS:547:CE:9921, V-B:GLU:543:C:9873, V-B:GLY:544:CA:9885, V-A:HIS:456:CD2:4067, H-B:LYS:547:NZ:9922, H-B:GLU:543:OE2:9881, V-A:GLU:543:C:4901, H-A:HIS:456:NE2:4070, V-B:TYR:484:CZ:9317, H-B:ASP:366:OD2:8185, H-B:GLU:543:OE1:9880, V-B:TYR:484:CE2:9316, H-A:ASP:485:OD2:4357, H-B:GLU:543:O:9874, V-A:TYR:484:CB:4340, V-A:TYR:484:C:4336, H-A:TYR:484:O:4337, H-B:ASP:366:OD1:8184"]

$$$$
RR11_Rahimova_2017-again2
     RDKit          3D

 57 62  0  0  0  0  0  0  0  0999 V2000
  134.7460  130.7040   57.1200 N   0  0  0  0  0  0  0  0  0  0  0  0
  133.5170  130.9980   57.7070 C   0  0  0  0  0  0  0  0  0  0  0  0
  132.8830  132.2050   57.4220 C   0  0  0  0  0  0  0  0  0  0  0  0
  131.6570  132.5010   58.0140 C   0  0  0  0  0  0  0  0  0  0  0  0
  131.0600  131.5910   58.8950 C   0  0  0  0  0  0  0  0  0  0  0  0
  129.7510  131.9120   59.5390 C   0  0  0  0  0  0  0  0  0  0  0  0
  129.4400  131.7990   60.8750 N   0  0  0  0  0  0  0  0  0  0  0  0
  128.1320  132.2100   61.0960 C   0  0  0  0  0  0  0  0  0  0  0  0
  127.3680  132.2890   62.2640 C   0  0  0  0  0  0  0  0  0  0  0  0
  126.0610  132.7760   62.1340 C   0  0  0  0  0  0  0  0  0  0  0  0
  125.1820  132.8910   63.3720 C   0  0  0  0  0  0  0  0  0  0  0  0
  125.2070  131.6350   64.2320 C   0  0  0  0  0  0  0  0  0  0  0  0
  124.2410  130.6420   64.0320 C   0  0  0  0  0  0  0  0  0  0  0  0
  124.2130  129.4690   64.7900 C   0  0  0  0  0  0  0  0  0  0  0  0
  125.2050  129.3280   65.7630 C   0  0  0  0  0  0  0  0  0  0  0  0
  125.4630  128.3190   66.6810 N   0  0  0  0  0  0  0  0  0  0  0  0
  126.5640  128.6410   67.4410 C   0  0  0  0  0  0  0  0  0  0  0  0
  127.1580  127.8310   68.5480 C   0  0  0  0  0  0  0  0  0  0  0  0
  126.3330  127.2410   69.5120 C   0  0  0  0  0  0  0  0  0  0  0  0
  126.8850  126.4780   70.5380 C   0  0  0  0  0  0  0  0  0  0  0  0
  128.2660  126.3000   70.6030 C   0  0  0  0  0  0  0  0  0  0  0  0
  128.8190  125.5310   71.6260 N   0  0  0  0  0  0  0  0  0  0  0  0
  129.0970  126.8870   69.6500 C   0  0  0  0  0  0  0  0  0  0  0  0
  128.5440  127.6490   68.6250 C   0  0  0  0  0  0  0  0  0  0  0  0
  127.0040  129.8620   66.9880 N   0  0  0  0  0  0  0  0  0  0  0  0
  126.1860  130.3140   65.9600 C   0  0  0  0  0  0  0  0  0  0  0  0
  126.2140  131.4830   65.1950 C   0  0  0  0  0  0  0  0  0  0  0  0
  125.5420  133.1360   60.8850 C   0  0  0  0  0  0  0  0  0  0  0  0
  126.2990  133.0530   59.7140 C   0  0  0  0  0  0  0  0  0  0  0  0
  127.6090  132.5850   59.8480 C   0  0  0  0  0  0  0  0  0  0  0  0
  128.6210  132.3910   58.9160 N   0  0  0  0  0  0  0  0  0  0  0  0
  131.7050  130.3790   59.1720 C   0  0  0  0  0  0  0  0  0  0  0  0
  132.9300  130.0830   58.5800 C   0  0  0  0  0  0  0  0  0  0  0  0
  135.1700  129.8010   57.2790 H   0  0  0  0  0  0  0  0  0  0  0  0
  135.2320  131.4180   56.5960 H   0  0  0  0  0  0  0  0  0  0  0  0
  133.3492  132.9229   56.7311 H   0  0  0  0  0  0  0  0  0  0  0  0
  131.1558  133.4538   57.7883 H   0  0  0  0  0  0  0  0  0  0  0  0
  130.1040  131.4660   61.5580 H   0  0  0  0  0  0  0  0  0  0  0  0
  127.7741  131.9831   63.2394 H   0  0  0  0  0  0  0  0  0  0  0  0
  125.5364  133.7384   63.9772 H   0  0  0  0  0  0  0  0  0  0  0  0
  124.1467  133.0381   63.0306 H   0  0  0  0  0  0  0  0  0  0  0  0
  123.4791  130.7902   63.2525 H   0  0  0  0  0  0  0  0  0  0  0  0
  123.4480  128.6952   64.6287 H   0  0  0  0  0  0  0  0  0  0  0  0
  124.9480  127.4610   66.8130 H   0  0  0  0  0  0  0  0  0  0  0  0
  125.2432  127.3805   69.4592 H   0  0  0  0  0  0  0  0  0  0  0  0
  126.2332  126.0172   71.2948 H   0  0  0  0  0  0  0  0  0  0  0  0
  129.3000  125.9870   72.3870 H   0  0  0  0  0  0  0  0  0  0  0  0
  128.7900  124.5240   71.5610 H   0  0  0  0  0  0  0  0  0  0  0  0
  130.1867  126.7483   69.7080 H   0  0  0  0  0  0  0  0  0  0  0  0
  129.1992  128.1106   67.8716 H   0  0  0  0  0  0  0  0  0  0  0  0
  127.8080  130.3290   67.3840 H   0  0  0  0  0  0  0  0  0  0  0  0
  126.9903  132.2484   65.3417 H   0  0  0  0  0  0  0  0  0  0  0  0
  124.5044  133.4959   60.8235 H   0  0  0  0  0  0  0  0  0  0  0  0
  125.8852  133.3413   58.7364 H   0  0  0  0  0  0  0  0  0  0  0  0
  128.5850  132.5640   57.9230 H   0  0  0  0  0  0  0  0  0  0  0  0
  131.2415  129.6573   59.8607 H   0  0  0  0  0  0  0  0  0  0  0  0
  133.4332  129.1300   58.8004 H   0  0  0  0  0  0  0  0  0  0  0  0
  1  2  1  0
  2  3  2  0
  3  4  1  0
  4  5  2  0
  5  6  1  0
  6  7  1  0
  7  8  1  0
  8  9  2  0
  9 10  1  0
 10 11  1  0
 11 12  1  0
 12 13  2  0
 13 14  1  0
 14 15  2  0
 15 16  1  0
 16 17  1  0
 17 18  1  0
 18 19  2  0
 19 20  1  0
 20 21  2  0
 21 22  1  0
 21 23  1  0
 23 24  2  0
 17 25  2  0
 25 26  1  0
 26 27  2  0
 10 28  2  0
 28 29  1  0
 29 30  2  0
 30 31  1  0
  5 32  1  0
 32 33  2  0
 33  2  1  0
 31  6  2  0
 30  8  1  0
 27 12  1  0
 26 15  1  0
 24 18  1  0
  1 34  1  0
  1 35  1  0
  3 36  1  0
  4 37  1  0
  7 38  1  0
  9 39  1  0
 11 40  1  0
 11 41  1  0
 13 42  1  0
 14 43  1  0
 16 44  1  0
 19 45  1  0
 20 46  1  0
 22 47  1  0
 22 48  1  0
 23 49  1  0
 24 50  1  0
 25 51  1  0
 27 52  1  0
 28 53  1  0
 29 54  1  0
 31 55  1  0
 32 56  1  0
 33 57  1  0
M  CHG  2  25   1  31   1
M  END
>  <Binding energies>  (1) 
[-8.65]

>  <Ligand effiencies>  (1) 
[-0.21097560975609758]

>  <Interactions>  (1) 
["V-A:TYR:539:CD1:4872, V-B:GLU:543:CB:9877, H-B:TYR:484:OH:9318, V-A:PRO:540:CA:4882, V-B:GLY:454:CA:9019, V-A:PRO:540:CB:4884, V-B:HIS:456:CE1:9040, V-A:HIS:456:CE1:4069, V-A:TYR:539:CE1:4874, V-B:LEU:475:CD1:9228, V-B:GLU:543:CD:9879, V-A:ASP:366:CG:3212, V-B:GLU:543:C:9873, V-A:ASP:366:CB:3211, V-A:TYR:531:CZ:4793, V-B:GLY:544:C:9883, V-B:ARG:545:CZ:9897, V-A:HIS:456:CD2:4067, V-B:ARG:545:CG:9893, V-B:ARG:545:CD:9894, H-A:GLU:543:OE2:4909, H-B:GLU:543:OE2:9881, V-A:TYR:531:CE2:4792, H-A:HIS:456:NE2:4070, V-A:PRO:540:N:4883, V-B:TYR:484:CZ:9317, V-A:LEU:363:CD1:3188, V-A:LEU:363:CA:3184, H-B:GLU:543:OE1:9880, V-B:TYR:484:CE2:9316, V-A:LEU:363:C:3182, V-A:LEU:363:CB:3186, H-B:GLU:543:O:9874, H-A:LEU:363:O:3183, V-A:LEU:363:CG:3187, V-A:TYR:531:CD2:4790"]

$$$$
RR12_Rahimova_2017
     RDKit          3D

 51 53  0  0  0  0  0  0  0  0999 V2000
  133.6040  124.2400   58.8860 C   0  0  0  0  0  0  0  0  0  0  0  0
  132.7280  123.6840   60.0170 C   0  0  0  0  0  0  0  0  0  0  0  0
  133.3820  122.4930   60.7400 C   0  0  0  0  0  0  0  0  0  0  0  0
  132.3810  121.4900   61.0970 N   0  0  0  0  0  0  0  0  0  0  0  0
  131.2400  121.6730   61.8620 C   0  0  0  0  0  0  0  0  0  0  0  0
  130.8590  122.9900   62.5150 C   0  0  0  0  0  0  0  0  0  0  0  0
  129.5740  122.8780   63.3560 C   0  0  0  0  0  0  0  0  0  0  0  0
  128.3750  122.3530   62.5440 C   0  0  0  0  0  0  0  0  0  0  0  0
  127.7120  123.3780   61.7390 N   0  0  0  0  0  0  0  0  0  0  0  0
  126.4070  123.6960   61.8170 C   0  0  0  0  0  0  0  0  0  0  0  0
  125.6210  123.1410   62.5870 O   0  0  0  0  0  0  0  0  0  0  0  0
  125.9400  124.8150   60.8770 C   0  0  0  0  0  0  0  0  0  0  0  0
  126.8010  124.8730   59.7390 O   0  0  0  0  0  0  0  0  0  0  0  0
  126.5320  124.0730   58.6450 C   0  0  0  0  0  0  0  0  0  0  0  0
  127.6150  123.3750   58.1060 C   0  0  0  0  0  0  0  0  0  0  0  0
  127.4420  122.5410   57.0040 C   0  0  0  0  0  0  0  0  0  0  0  0
  126.1780  122.4030   56.4380 C   0  0  0  0  0  0  0  0  0  0  0  0
  125.0870  123.0930   56.9610 C   0  0  0  0  0  0  0  0  0  0  0  0
  125.2620  123.9280   58.0630 C   0  0  0  0  0  0  0  0  0  0  0  0
  130.5190  120.5860   61.9860 N   0  0  0  0  0  0  0  0  0  0  0  0
  131.1820  119.6390   61.2570 C   0  0  0  0  0  0  0  0  0  0  0  0
  130.8430  118.2950   61.0370 C   0  0  0  0  0  0  0  0  0  0  0  0
  131.6900  117.5250   60.2400 C   0  0  0  0  0  0  0  0  0  0  0  0
  132.8430  118.0680   59.6730 C   0  0  0  0  0  0  0  0  0  0  0  0
  133.2090  119.4000   59.8740 C   0  0  0  0  0  0  0  0  0  0  0  0
  132.3590  120.1730   60.6750 C   0  0  0  0  0  0  0  0  0  0  0  0
  134.4585  124.7824   59.3169 H   0  0  0  0  0  0  0  0  0  0  0  0
  133.9720  123.4098   58.2653 H   0  0  0  0  0  0  0  0  0  0  0  0
  133.0094  124.9264   58.2653 H   0  0  0  0  0  0  0  0  0  0  0  0
  132.5475  124.4848   60.7492 H   0  0  0  0  0  0  0  0  0  0  0  0
  131.7897  123.3269   59.5674 H   0  0  0  0  0  0  0  0  0  0  0  0
  134.1307  122.0353   60.0767 H   0  0  0  0  0  0  0  0  0  0  0  0
  133.8594  122.8584   61.6612 H   0  0  0  0  0  0  0  0  0  0  0  0
  131.6827  123.3111   63.1695 H   0  0  0  0  0  0  0  0  0  0  0  0
  130.6729  123.7202   61.7137 H   0  0  0  0  0  0  0  0  0  0  0  0
  129.7605  122.1893   64.1932 H   0  0  0  0  0  0  0  0  0  0  0  0
  129.3191  123.8882   63.7088 H   0  0  0  0  0  0  0  0  0  0  0  0
  128.7330  121.5608   61.8700 H   0  0  0  0  0  0  0  0  0  0  0  0
  127.6335  121.9864   63.2691 H   0  0  0  0  0  0  0  0  0  0  0  0
  128.2950  123.8800   61.0850 H   0  0  0  0  0  0  0  0  0  0  0  0
  124.9105  124.6110   60.5475 H   0  0  0  0  0  0  0  0  0  0  0  0
  125.9715  125.7771   61.4093 H   0  0  0  0  0  0  0  0  0  0  0  0
  128.6129  123.4848   58.5556 H   0  0  0  0  0  0  0  0  0  0  0  0
  128.2992  121.9947   56.5835 H   0  0  0  0  0  0  0  0  0  0  0  0
  126.0393  121.7426   55.5693 H   0  0  0  0  0  0  0  0  0  0  0  0
  124.0918  122.9794   56.5063 H   0  0  0  0  0  0  0  0  0  0  0  0
  124.4028  124.4752   58.4783 H   0  0  0  0  0  0  0  0  0  0  0  0
  129.9348  117.8610   61.4807 H   0  0  0  0  0  0  0  0  0  0  0  0
  131.4439  116.4690   60.0550 H   0  0  0  0  0  0  0  0  0  0  0  0
  133.4831  117.4273   59.0487 H   0  0  0  0  0  0  0  0  0  0  0  0
  134.1204  119.8219   59.4253 H   0  0  0  0  0  0  0  0  0  0  0  0
  1  2  1  0
  2  3  1  0
  3  4  1  0
  4  5  1  0
  5  6  1  0
  6  7  1  0
  7  8  1  0
  8  9  1  0
  9 10  1  0
 10 11  2  0
 10 12  1  0
 12 13  1  0
 13 14  1  0
 14 15  2  0
 15 16  1  0
 16 17  2  0
 17 18  1  0
 18 19  2  0
  5 20  2  0
 20 21  1  0
 21 22  2  0
 22 23  1  0
 23 24  2  0
 24 25  1  0
 25 26  2  0
 26  4  1  0
 19 14  1  0
 26 21  1  0
  1 27  1  0
  1 28  1  0
  1 29  1  0
  2 30  1  0
  2 31  1  0
  3 32  1  0
  3 33  1  0
  6 34  1  0
  6 35  1  0
  7 36  1  0
  7 37  1  0
  8 38  1  0
  8 39  1  0
  9 40  1  0
 12 41  1  0
 12 42  1  0
 15 43  1  0
 16 44  1  0
 17 45  1  0
 18 46  1  0
 19 47  1  0
 22 48  1  0
 23 49  1  0
 24 50  1  0
 25 51  1  0
M  END
>  <Binding energies>  (1) 
[-7.55]

>  <Ligand effiencies>  (1) 
[-0.2796296296296296]

>  <Interactions>  (1) 
["V-B:PRO:540:CD:9858, V-B:PRO:540:N:9855, V-B:TYR:531:CE2:9764, V-B:LEU:363:CD1:8159, V-B:MET:535:CE:9806, V-B:TYR:539:CD2:9845, V-B:TYR:539:C:9838, V-B:TYR:539:CD1:9844, V-B:PRO:540:CB:9856, V-B:TYR:539:CE2:9847, V-B:TYR:539:CG:9843, V-A:ASP:366:CG:3212, V-A:ASP:366:CA:3209, V-A:ASP:366:CB:3211, V-A:VAL:384:C:3396, V-A:ILE:369:CG2:3236, V-A:SER:385:CA:3406, V-B:ALA:541:CB:9863, V-A:ILE:369:CD1:3238, V-A:LEU:475:CD2:4258, V-B:ALA:541:CA:9861, V-A:HIS:383:CE1:3393, V-B:PRO:540:CA:9854, V-B:TYR:539:CB:9842, V-A:ILE:369:CB:3235, H-B:ALA:541:N:9862, V-B:PRO:540:C:9852"]

$$$$
RR13_Rahimova_2017
     RDKit          3D

 84 90  0  0  0  0  0  0  0  0999 V2000
  129.4430  122.3760   63.9270 Cl  0  0  0  0  0  0  0  0  0  0  0  0
  131.0430  122.5560   63.2900 C   0  0  0  0  0  0  0  0  0  0  0  0
  131.5460  121.5240   62.4950 C   0  0  0  0  0  0  0  0  0  0  0  0
  132.8340  121.5990   61.9710 C   0  0  0  0  0  0  0  0  0  0  0  0
  133.6300  122.7090   62.2410 C   0  0  0  0  0  0  0  0  0  0  0  0
  133.1350  123.7430   63.0330 C   0  0  0  0  0  0  0  0  0  0  0  0
  131.8340  123.6910   63.5610 C   0  0  0  0  0  0  0  0  0  0  0  0
  131.3180  124.8390   64.4570 C   0  0  1  0  0  0  0  0  0  0  0  0
  132.4190  125.3360   65.4060 C   0  0  0  0  0  0  0  0  0  0  0  0
  133.7100  125.3710   65.1610 N   0  0  0  0  0  0  0  0  0  0  0  0
  134.3040  125.8690   66.3160 N   0  0  0  0  0  0  0  0  0  0  0  0
  133.3420  126.1180   67.2750 N   0  0  0  0  0  0  0  0  0  0  0  0
  132.1900  125.7580   66.6980 N   0  0  0  0  0  0  0  0  0  0  0  0
  130.9270  125.9180   67.4090 C   0  0  0  0  0  0  0  0  0  0  0  0
  130.7550  127.3770   67.8690 C   0  0  0  0  0  0  0  0  0  0  0  0
  129.3150  127.8510   67.7490 C   0  0  0  0  0  0  0  0  0  0  0  0
  128.3830  127.5100   68.7330 C   0  0  0  0  0  0  0  0  0  0  0  0
  127.0630  127.9380   68.6180 C   0  0  0  0  0  0  0  0  0  0  0  0
  126.6800  128.7050   67.5200 C   0  0  0  0  0  0  0  0  0  0  0  0
  127.6030  129.0480   66.5350 C   0  0  0  0  0  0  0  0  0  0  0  0
  128.9240  128.6200   66.6490 C   0  0  0  0  0  0  0  0  0  0  0  0
  130.6870  125.9430   63.6960 N   0  0  0  0  0  0  0  0  0  0  0  0
  131.0530  125.8640   62.2700 C   0  0  0  0  0  0  0  0  0  0  0  0
  130.2940  126.9320   61.4470 C   0  0  0  0  0  0  0  0  0  0  0  0
  130.6360  128.2860   61.9130 N   0  0  0  0  0  0  0  0  0  0  0  0
  129.9940  129.3440   61.0990 C   0  0  1  0  0  0  0  0  0  0  0  0
  128.4500  129.3220   61.0770 C   0  0  0  0  0  0  0  0  0  0  0  0
  127.7880  129.6430   62.2700 C   0  0  0  0  0  0  0  0  0  0  0  0
  126.3960  129.6650   62.3380 C   0  0  0  0  0  0  0  0  0  0  0  0
  125.6410  129.3590   61.2090 C   0  0  0  0  0  0  0  0  0  0  0  0
  126.2780  129.0220   60.0190 C   0  0  0  0  0  0  0  0  0  0  0  0
  127.6740  128.9930   59.9410 C   0  0  0  0  0  0  0  0  0  0  0  0
  128.3710  128.4940   58.4370 Cl  0  0  0  0  0  0  0  0  0  0  0  0
  130.4950  130.7500   61.4380 C   0  0  0  0  0  0  0  0  0  0  0  0
  129.8310  131.6510   62.1240 N   0  0  0  0  0  0  0  0  0  0  0  0
  130.6640  132.7620   62.2040 N   0  0  0  0  0  0  0  0  0  0  0  0
  131.8580  132.5050   61.5610 N   0  0  0  0  0  0  0  0  0  0  0  0
  131.7390  131.2490   61.1150 N   0  0  0  0  0  0  0  0  0  0  0  0
  132.8250  130.6390   60.3550 C   0  0  0  0  0  0  0  0  0  0  0  0
  133.3100  131.5940   59.2490 C   0  0  0  0  0  0  0  0  0  0  0  0
  132.1860  132.0040   58.3110 C   0  0  0  0  0  0  0  0  0  0  0  0
  132.3030  133.1680   57.5470 C   0  0  0  0  0  0  0  0  0  0  0  0
  131.2770  133.5400   56.6830 C   0  0  0  0  0  0  0  0  0  0  0  0
  130.1350  132.7450   56.5850 C   0  0  0  0  0  0  0  0  0  0  0  0
  130.0130  131.5820   57.3440 C   0  0  0  0  0  0  0  0  0  0  0  0
  131.0390  131.2100   58.2080 C   0  0  0  0  0  0  0  0  0  0  0  0
  130.2640  128.3620   63.3370 C   0  0  0  0  0  0  0  0  0  0  0  0
  131.0330  127.2990   64.1550 C   0  0  0  0  0  0  0  0  0  0  0  0
  130.9200  120.6451   62.2811 H   0  0  0  0  0  0  0  0  0  0  0  0
  133.2221  120.7823   61.3446 H   0  0  0  0  0  0  0  0  0  0  0  0
  134.6484  122.7696   61.8296 H   0  0  0  0  0  0  0  0  0  0  0  0
  133.7725  124.6133   63.2482 H   0  0  0  0  0  0  0  0  0  0  0  0
  130.5094  124.4179   65.0725 H   0  0  0  0  0  0  0  0  0  0  0  0
  130.0969  125.6481   66.7396 H   0  0  0  0  0  0  0  0  0  0  0  0
  130.9273  125.2618   68.2918 H   0  0  0  0  0  0  0  0  0  0  0  0
  131.0675  127.4561   68.9207 H   0  0  0  0  0  0  0  0  0  0  0  0
  131.3748  128.0116   67.2185 H   0  0  0  0  0  0  0  0  0  0  0  0
  128.6919  126.9041   69.5975 H   0  0  0  0  0  0  0  0  0  0  0  0
  126.3263  127.6718   69.3903 H   0  0  0  0  0  0  0  0  0  0  0  0
  125.6372  129.0434   67.4299 H   0  0  0  0  0  0  0  0  0  0  0  0
  127.2907  129.6537   65.6715 H   0  0  0  0  0  0  0  0  0  0  0  0
  129.6582  128.8868   65.8746 H   0  0  0  0  0  0  0  0  0  0  0  0
  132.1353  126.0307   62.1659 H   0  0  0  0  0  0  0  0  0  0  0  0
  130.7803  124.8680   61.8911 H   0  0  0  0  0  0  0  0  0  0  0  0
  130.5698  126.8344   60.3866 H   0  0  0  0  0  0  0  0  0  0  0  0
  129.2127  126.7757   61.5753 H   0  0  0  0  0  0  0  0  0  0  0  0
  130.3162  129.0878   60.0789 H   0  0  0  0  0  0  0  0  0  0  0  0
  128.3770  129.8816   63.1678 H   0  0  0  0  0  0  0  0  0  0  0  0
  125.8947  129.9238   63.2823 H   0  0  0  0  0  0  0  0  0  0  0  0
  124.5424  129.3837   61.2578 H   0  0  0  0  0  0  0  0  0  0  0  0
  125.6777  128.7759   59.1307 H   0  0  0  0  0  0  0  0  0  0  0  0
  133.6615  130.4162   61.0337 H   0  0  0  0  0  0  0  0  0  0  0  0
  132.4578  129.7123   59.8899 H   0  0  0  0  0  0  0  0  0  0  0  0
  133.7269  132.4972   59.7185 H   0  0  0  0  0  0  0  0  0  0  0  0
  134.0696  131.0648   58.6549 H   0  0  0  0  0  0  0  0  0  0  0  0
  133.2062  133.7906   57.6283 H   0  0  0  0  0  0  0  0  0  0  0  0
  131.3663  134.4561   56.0807 H   0  0  0  0  0  0  0  0  0  0  0  0
  129.3235  133.0383   55.9028 H   0  0  0  0  0  0  0  0  0  0  0  0
  129.1092  130.9606   57.2604 H   0  0  0  0  0  0  0  0  0  0  0  0
  130.9480  130.2931   58.8088 H   0  0  0  0  0  0  0  0  0  0  0  0
  130.5095  129.3626   63.7224 H   0  0  0  0  0  0  0  0  0  0  0  0
  129.1847  128.1728   63.4333 H   0  0  0  0  0  0  0  0  0  0  0  0
  132.1141  127.4585   64.0295 H   0  0  0  0  0  0  0  0  0  0  0  0
  130.7549  127.3969   65.2148 H   0  0  0  0  0  0  0  0  0  0  0  0
  1  2  1  0
  2  3  2  0
  3  4  1  0
  4  5  2  0
  5  6  1  0
  6  7  2  0
  7  8  1  0
  8  9  1  0
  9 10  2  0
 10 11  1  0
 11 12  2  0
 12 13  1  0
 13 14  1  0
 14 15  1  0
 15 16  1  0
 16 17  2  0
 17 18  1  0
 18 19  2  0
 19 20  1  0
 20 21  2  0
  8 22  1  0
 22 23  1  0
 23 24  1  0
 24 25  1  0
 25 26  1  0
 26 27  1  0
 27 28  2  0
 28 29  1  0
 29 30  2  0
 30 31  1  0
 31 32  2  0
 32 33  1  0
 26 34  1  0
 34 35  2  0
 35 36  1  0
 36 37  2  0
 37 38  1  0
 38 39  1  0
 39 40  1  0
 40 41  1  0
 41 42  2  0
 42 43  1  0
 43 44  2  0
 44 45  1  0
 45 46  2  0
 25 47  1  0
 47 48  1  0
  7  2  1  0
 13  9  1  0
 21 16  1  0
 48 22  1  0
 32 27  1  0
 38 34  1  0
 46 41  1  0
  3 49  1  0
  4 50  1  0
  5 51  1  0
  6 52  1  0
  8 53  1  1
 14 54  1  0
 14 55  1  0
 15 56  1  0
 15 57  1  0
 17 58  1  0
 18 59  1  0
 19 60  1  0
 20 61  1  0
 21 62  1  0
 23 63  1  0
 23 64  1  0
 24 65  1  0
 24 66  1  0
 26 67  1  6
 28 68  1  0
 29 69  1  0
 30 70  1  0
 31 71  1  0
 39 72  1  0
 39 73  1  0
 40 74  1  0
 40 75  1  0
 42 76  1  0
 43 77  1  0
 44 78  1  0
 45 79  1  0
 46 80  1  0
 47 81  1  0
 47 82  1  0
 48 83  1  0
 48 84  1  0
M  END
>  <Binding energies>  (1) 
[-11.9]

>  <Ligand effiencies>  (1) 
[-0.24791666666666667]

>  <Interactions>  (1) 
["V-B:GLU:543:CB:9877, V-A:GLU:543:CB:4905, V-A:PRO:540:CA:4882, V-A:PRO:540:CB:4884, V-B:ASP:366:CG:8183, V-B:HIS:456:CE1:9040, V-A:HIS:456:CE1:4069, V-A:GLU:543:CD:4907, V-A:GLU:543:CG:4906, V-B:GLU:543:CD:9879, V-A:ASP:366:CG:3212, V-A:ASP:366:CB:3211, H-A:ALA:541:N:4890, V-A:TYR:484:CZ:4346, H-A:ARG:545:NE:4923, V-A:TYR:484:CE2:4345, H-A:GLY:454:N:4049, V-B:ALA:541:CB:9863, H-A:ARG:545:NH2:4927, V-A:ILE:369:CD1:3238, V-A:LEU:475:CD2:4258, H-A:TYR:484:OH:4347, V-A:TYR:539:C:4866, V-A:PRO:540:N:4883, V-A:LEU:363:CD1:3188, V-A:LEU:363:CA:3184, V-A:PRO:540:CG:4885, V-A:PRO:540:CD:4886, V-A:ILE:538:CB:4861"]

$$$$
RR14_Rahimova_2017
     RDKit          3D

 76 80  0  0  0  0  0  0  0  0999 V2000
  125.8190  122.0920   56.3940 C   0  0  0  0  0  0  0  0  0  0  0  0
  125.8270  123.4810   56.7050 O   0  0  0  0  0  0  0  0  0  0  0  0
  126.9790  124.0500   57.2160 C   0  0  0  0  0  0  0  0  0  0  0  0
  126.8690  125.3560   57.6940 C   0  0  0  0  0  0  0  0  0  0  0  0
  127.9800  126.0190   58.2040 C   0  0  0  0  0  0  0  0  0  0  0  0
  129.2210  125.3790   58.2360 C   0  0  0  0  0  0  0  0  0  0  0  0
  130.4540  126.1250   58.7330 C   0  0  0  0  0  0  0  0  0  0  0  0
  131.6930  125.3620   58.5810 N   0  0  0  0  0  0  0  0  0  0  0  0
  132.5910  125.7080   57.6520 N   0  0  0  0  0  0  0  0  0  0  0  0
  133.5980  124.7700   57.7700 N   0  0  0  0  0  0  0  0  0  0  0  0
  133.2860  123.8580   58.7740 N   0  0  0  0  0  0  0  0  0  0  0  0
  132.1210  124.2330   59.2470 C   0  0  0  0  0  0  0  0  0  0  0  0
  131.3530  123.5220   60.3520 C   0  0  0  0  0  0  0  0  0  0  0  0
  131.7720  123.9540   61.6960 N   0  0  0  0  0  0  0  0  0  0  0  0
  133.1510  123.5490   61.9980 C   0  0  0  0  0  0  0  0  0  0  0  0
  133.3370  122.0170   62.0740 C   0  0  0  0  0  0  0  0  0  0  0  0
  132.0100  121.2300   62.0390 C   0  0  0  0  0  0  0  0  0  0  0  0
  131.9820  120.1870   61.0090 N   0  0  0  0  0  0  0  0  0  0  0  0
  131.2890  118.9930   61.5100 C   0  0  0  0  0  0  0  0  0  0  0  0
  131.2860  117.8550   60.4670 C   0  0  0  0  0  0  0  0  0  0  0  0
  132.6180  117.5720   60.0490 O   0  0  0  0  0  0  0  0  0  0  0  0
  133.2500  118.7010   59.4590 C   0  0  0  0  0  0  0  0  0  0  0  0
  133.3130  119.8640   60.4730 C   0  0  0  0  0  0  0  0  0  0  0  0
  131.6230  125.4110   61.8280 C   0  0  0  0  0  0  0  0  0  0  0  0
  131.3440  125.9310   63.2360 C   0  0  0  0  0  0  0  0  0  0  0  0
  132.2940  125.8780   64.2020 C   0  0  0  0  0  0  0  0  0  0  0  0
  132.0380  126.3380   65.5820 C   0  0  0  0  0  0  0  0  0  0  0  0
  133.0040  126.3160   66.6020 C   0  0  0  0  0  0  0  0  0  0  0  0
  134.4170  125.8060   66.3530 C   0  0  0  0  0  0  0  0  0  0  0  0
  132.6590  126.7780   67.8750 C   0  0  0  0  0  0  0  0  0  0  0  0
  131.3750  127.2540   68.1360 C   0  0  0  0  0  0  0  0  0  0  0  0
  130.4070  127.2820   67.1280 C   0  0  0  0  0  0  0  0  0  0  0  0
  129.0140  127.8110   67.4430 C   0  0  0  0  0  0  0  0  0  0  0  0
  130.7430  126.8220   65.8450 C   0  0  0  0  0  0  0  0  0  0  0  0
  129.7990  126.8280   64.7970 N   0  0  0  0  0  0  0  0  0  0  0  0
  129.9890  126.4160   63.5180 C   0  0  0  0  0  0  0  0  0  0  0  0
  129.0670  126.4630   62.7040 O   0  0  0  0  0  0  0  0  0  0  0  0
  129.3360  124.0620   57.7870 C   0  0  0  0  0  0  0  0  0  0  0  0
  128.2230  123.4000   57.2760 C   0  0  0  0  0  0  0  0  0  0  0  0
  125.8156  121.5076   57.3259 H   0  0  0  0  0  0  0  0  0  0  0  0
  124.9195  121.8527   55.8079 H   0  0  0  0  0  0  0  0  0  0  0  0
  126.7157  121.8423   55.8079 H   0  0  0  0  0  0  0  0  0  0  0  0
  125.8947  125.8659   57.6673 H   0  0  0  0  0  0  0  0  0  0  0  0
  127.8814  127.0473   58.5821 H   0  0  0  0  0  0  0  0  0  0  0  0
  130.5486  127.0613   58.1635 H   0  0  0  0  0  0  0  0  0  0  0  0
  130.3132  126.3063   59.8088 H   0  0  0  0  0  0  0  0  0  0  0  0
  130.2808  123.7359   60.2307 H   0  0  0  0  0  0  0  0  0  0  0  0
  131.5622  122.4455   60.2659 H   0  0  0  0  0  0  0  0  0  0  0  0
  133.8104  123.9418   61.2101 H   0  0  0  0  0  0  0  0  0  0  0  0
  133.3998  123.9563   62.9891 H   0  0  0  0  0  0  0  0  0  0  0  0
  133.9524  121.6988   61.2196 H   0  0  0  0  0  0  0  0  0  0  0  0
  133.8159  121.7982   63.0398 H   0  0  0  0  0  0  0  0  0  0  0  0
  131.8590  120.7561   63.0201 H   0  0  0  0  0  0  0  0  0  0  0  0
  131.2117  121.9474   61.7983 H   0  0  0  0  0  0  0  0  0  0  0  0
  131.7973  118.6413   62.4199 H   0  0  0  0  0  0  0  0  0  0  0  0
  130.2449  119.2663   61.7224 H   0  0  0  0  0  0  0  0  0  0  0  0
  130.8454  116.9520   60.9147 H   0  0  0  0  0  0  0  0  0  0  0  0
  130.6930  118.1671   59.5946 H   0  0  0  0  0  0  0  0  0  0  0  0
  134.2712  118.4283   59.1542 H   0  0  0  0  0  0  0  0  0  0  0  0
  132.6699  119.0202   58.5806 H   0  0  0  0  0  0  0  0  0  0  0  0
  133.9730  119.5770   61.3049 H   0  0  0  0  0  0  0  0  0  0  0  0
  133.7000  120.7531   59.9536 H   0  0  0  0  0  0  0  0  0  0  0  0
  132.5546  125.8778   61.4754 H   0  0  0  0  0  0  0  0  0  0  0  0
  130.7350  125.6730   61.2340 H   0  0  0  0  0  0  0  0  0  0  0  0
  133.2877  125.4794   63.9497 H   0  0  0  0  0  0  0  0  0  0  0  0
  134.9168  125.6256   67.3162 H   0  0  0  0  0  0  0  0  0  0  0  0
  134.3726  124.8672   65.7815 H   0  0  0  0  0  0  0  0  0  0  0  0
  134.9824  126.5568   65.7815 H   0  0  0  0  0  0  0  0  0  0  0  0
  133.4088  126.7659   68.6798 H   0  0  0  0  0  0  0  0  0  0  0  0
  131.1211  127.6110   69.1450 H   0  0  0  0  0  0  0  0  0  0  0  0
  128.8792  127.8622   68.5335 H   0  0  0  0  0  0  0  0  0  0  0  0
  128.8972  128.8161   67.0115 H   0  0  0  0  0  0  0  0  0  0  0  0
  128.2595  127.1368   67.0115 H   0  0  0  0  0  0  0  0  0  0  0  0
  128.8700  127.1660   64.9940 H   0  0  0  0  0  0  0  0  0  0  0  0
  130.3067  123.5471   57.8370 H   0  0  0  0  0  0  0  0  0  0  0  0
  128.3180  122.3643   56.9179 H   0  0  0  0  0  0  0  0  0  0  0  0
  1  2  1  0
  2  3  1  0
  3  4  2  0
  4  5  1  0
  5  6  2  0
  6  7  1  0
  7  8  1  0
  8  9  1  0
  9 10  2  0
 10 11  1  0
 11 12  2  0
 12 13  1  0
 13 14  1  0
 14 15  1  0
 15 16  1  0
 16 17  1  0
 17 18  1  0
 18 19  1  0
 19 20  1  0
 20 21  1  0
 21 22  1  0
 22 23  1  0
 14 24  1  0
 24 25  1  0
 25 26  2  0
 26 27  1  0
 27 28  2  0
 28 29  1  0
 28 30  1  0
 30 31  2  0
 31 32  1  0
 32 33  1  0
 32 34  2  0
 34 35  1  0
 35 36  1  0
 36 37  2  0
  6 38  1  0
 38 39  2  0
 39  3  1  0
 12  8  1  0
 23 18  1  0
 36 25  1  0
 34 27  1  0
  1 40  1  0
  1 41  1  0
  1 42  1  0
  4 43  1  0
  5 44  1  0
  7 45  1  0
  7 46  1  0
 13 47  1  0
 13 48  1  0
 15 49  1  0
 15 50  1  0
 16 51  1  0
 16 52  1  0
 17 53  1  0
 17 54  1  0
 19 55  1  0
 19 56  1  0
 20 57  1  0
 20 58  1  0
 22 59  1  0
 22 60  1  0
 23 61  1  0
 23 62  1  0
 24 63  1  0
 24 64  1  0
 26 65  1  0
 29 66  1  0
 29 67  1  0
 29 68  1  0
 30 69  1  0
 31 70  1  0
 33 71  1  0
 33 72  1  0
 33 73  1  0
 35 74  1  0
 38 75  1  0
 39 76  1  0
M  END
>  <Binding energies>  (1) 
[-10.11]

>  <Ligand effiencies>  (1) 
[-0.25275]

>  <Interactions>  (1) 
["V-B:PRO:540:CD:9858, V-B:PRO:540:N:9855, V-B:MET:535:CE:9806, V-B:TYR:539:CD2:9845, V-B:TYR:539:CZ:9848, V-A:HIS:456:CE1:4069, V-B:TYR:539:C:9838, V-B:TYR:539:CE1:9846, V-A:GLU:543:CD:4907, V-B:PRO:540:CB:9856, V-B:TYR:539:CE2:9847, V-B:GLU:543:CD:9879, V-A:ASP:366:CG:3212, V-A:ASP:366:CB:3211, H-B:TYR:531:OH:9766, V-A:VAL:384:C:3396, V-A:ILE:369:CG2:3236, V-A:ARG:545:CZ:4925, V-A:SER:385:CA:3406, V-A:ARG:545:CD:4922, V-A:ARG:545:CG:4921, V-A:ILE:369:CD1:3238, V-A:LEU:475:CD2:4258, V-A:HIS:383:CE1:3393, H-B:TYR:539:OH:9849, V-B:TYR:539:CB:9842, V-A:LEU:373:CD2:3280, V-A:GLY:453:C:4041, V-A:GLY:453:CA:4043, V-A:GLY:454:CA:4048, H-B:GLU:543:OE2:9881, H-A:HIS:383:ND1:3390, H-B:GLU:543:OE1:9880, V-B:ILE:538:CA:9831, V-B:ILE:538:C:9829, V-B:ILE:538:CG2:9834"]

$$$$
RR15_Rahimova_2017
     RDKit          3D

 85 89  0  0  0  0  0  0  0  0999 V2000
  126.1530  127.2960   69.1030 C   0  0  0  0  0  0  0  0  0  0  0  0
  127.4920  127.6980   69.3720 O   0  0  0  0  0  0  0  0  0  0  0  0
  128.5000  127.3390   68.4950 C   0  0  0  0  0  0  0  0  0  0  0  0
  128.8360  128.0800   67.3510 C   0  0  0  0  0  0  0  0  0  0  0  0
  129.8620  127.6620   66.5070 C   0  0  0  0  0  0  0  0  0  0  0  0
  130.5800  126.4920   66.7790 C   0  0  0  0  0  0  0  0  0  0  0  0
  131.6830  126.0370   65.8640 C   0  0  0  0  0  0  0  0  0  0  0  0
  132.9130  125.7800   66.2900 N   0  0  0  0  0  0  0  0  0  0  0  0
  133.6320  125.4030   65.1750 N   0  0  0  0  0  0  0  0  0  0  0  0
  132.7300  125.4360   64.1930 N   0  0  0  0  0  0  0  0  0  0  0  0
  133.1050  125.2590   62.7910 C   0  0  0  0  0  0  0  0  0  0  0  0
  133.4490  123.8030   62.3900 C   0  0  0  0  0  0  0  0  0  0  0  0
  134.4000  123.2530   62.9510 O   0  0  0  0  0  0  0  0  0  0  0  0
  132.6820  123.1580   61.4580 N   0  0  0  0  0  0  0  0  0  0  0  0
  133.2810  122.2220   60.4850 C   0  0  0  0  0  0  0  0  0  0  0  0
  133.7910  120.9120   61.1220 C   0  0  0  0  0  0  0  0  0  0  0  0
  132.7060  120.0720   61.8370 C   0  0  0  0  0  0  0  0  0  0  0  0
  132.4130  118.7980   61.1740 N   0  0  0  0  0  0  0  0  0  0  0  0
  130.9900  118.4300   61.2090 C   0  0  0  0  0  0  0  0  0  0  0  0
  130.7230  117.1280   60.4240 C   0  0  0  0  0  0  0  0  0  0  0  0
  131.2170  117.2460   59.0940 O   0  0  0  0  0  0  0  0  0  0  0  0
  132.6170  117.4990   59.0550 C   0  0  0  0  0  0  0  0  0  0  0  0
  132.9350  118.8140   59.8000 C   0  0  0  0  0  0  0  0  0  0  0  0
  131.1870  123.1850   61.4620 C   0  0  2  0  0  0  0  0  0  0  0  0
  130.5700  124.3840   60.6780 C   0  0  0  0  0  0  0  0  0  0  0  0
  130.6060  125.5270   61.1330 O   0  0  0  0  0  0  0  0  0  0  0  0
  130.0450  124.0850   59.4760 N   0  0  0  0  0  0  0  0  0  0  0  0
  129.5070  125.0510   58.5260 C   0  0  0  0  0  0  0  0  0  0  0  0
  128.6870  124.3530   57.4250 C   0  0  2  0  0  0  0  0  0  0  0  0
  127.1790  124.6590   57.4310 C   0  0  0  0  0  0  0  0  0  0  0  0
  126.5500  123.4480   58.0770 C   0  0  0  0  0  0  0  0  0  0  0  0
  127.4750  122.3410   57.6020 C   0  0  0  0  0  0  0  0  0  0  0  0
  128.7590  122.9480   57.7050 O   0  0  0  0  0  0  0  0  0  0  0  0
  130.6480  122.9090   62.8620 C   0  0  0  0  0  0  0  0  0  0  0  0
  129.3240  123.2690   63.1410 C   0  0  0  0  0  0  0  0  0  0  0  0
  128.7790  123.0420   64.4010 C   0  0  0  0  0  0  0  0  0  0  0  0
  129.5550  122.4510   65.3940 C   0  0  0  0  0  0  0  0  0  0  0  0
  129.0250  122.2290   66.6180 F   0  0  0  0  0  0  0  0  0  0  0  0
  130.8730  122.0850   65.1340 C   0  0  0  0  0  0  0  0  0  0  0  0
  131.4180  122.3140   63.8740 C   0  0  0  0  0  0  0  0  0  0  0  0
  131.5180  125.8620   64.5660 N   0  0  0  0  0  0  0  0  0  0  0  0
  130.2440  125.7560   67.9230 C   0  0  0  0  0  0  0  0  0  0  0  0
  129.2140  126.1670   68.7850 C   0  0  0  0  0  0  0  0  0  0  0  0
  128.8480  125.4760   69.9270 O   0  0  0  0  0  0  0  0  0  0  0  0
  128.9480  126.1120   71.1970 C   0  0  0  0  0  0  0  0  0  0  0  0
  125.6205  127.1361   70.0521 H   0  0  0  0  0  0  0  0  0  0  0  0
  125.6437  128.0809   68.5245 H   0  0  0  0  0  0  0  0  0  0  0  0
  126.1602  126.3604   68.5245 H   0  0  0  0  0  0  0  0  0  0  0  0
  128.2824  129.0017   67.1184 H   0  0  0  0  0  0  0  0  0  0  0  0
  130.1107  128.2582   65.6167 H   0  0  0  0  0  0  0  0  0  0  0  0
  132.2646  125.5965   62.1667 H   0  0  0  0  0  0  0  0  0  0  0  0
  134.0220  125.8472   62.6389 H   0  0  0  0  0  0  0  0  0  0  0  0
  132.5203  121.9694   59.7317 H   0  0  0  0  0  0  0  0  0  0  0  0
  134.1531  122.7279   60.0452 H   0  0  0  0  0  0  0  0  0  0  0  0
  134.2328  120.2941   60.3264 H   0  0  0  0  0  0  0  0  0  0  0  0
  134.5149  121.2059   61.8963 H   0  0  0  0  0  0  0  0  0  0  0  0
  133.0498  119.8597   62.8601 H   0  0  0  0  0  0  0  0  0  0  0  0
  131.7788  120.6636   61.8191 H   0  0  0  0  0  0  0  0  0  0  0  0
  130.6838  118.2856   62.2556 H   0  0  0  0  0  0  0  0  0  0  0  0
  130.4123  119.2403   60.7403 H   0  0  0  0  0  0  0  0  0  0  0  0
  131.2288  116.2904   60.9266 H   0  0  0  0  0  0  0  0  0  0  0  0
  129.6388  116.9455   60.3894 H   0  0  0  0  0  0  0  0  0  0  0  0
  133.1514  116.6678   59.5382 H   0  0  0  0  0  0  0  0  0  0  0  0
  132.9394  117.5896   58.0072 H   0  0  0  0  0  0  0  0  0  0  0  0
  134.0260  118.9499   59.8343 H   0  0  0  0  0  0  0  0  0  0  0  0
  132.4526  119.6412   59.2586 H   0  0  0  0  0  0  0  0  0  0  0  0
  130.8174  122.3458   60.8544 H   0  0  0  0  0  0  0  0  0  0  0  0
  130.0790  123.1260   59.1620 H   0  0  0  0  0  0  0  0  0  0  0  0
  128.8578  125.7585   59.0627 H   0  0  0  0  0  0  0  0  0  0  0  0
  130.3479  125.5785   58.0521 H   0  0  0  0  0  0  0  0  0  0  0  0
  129.1037  124.6963   56.4666 H   0  0  0  0  0  0  0  0  0  0  0  0
  126.9686  125.5657   58.0172 H   0  0  0  0  0  0  0  0  0  0  0  0
  126.7861  124.8456   56.4207 H   0  0  0  0  0  0  0  0  0  0  0  0
  126.5515  123.5307   59.1739 H   0  0  0  0  0  0  0  0  0  0  0  0
  125.4931  123.2953   57.8130 H   0  0  0  0  0  0  0  0  0  0  0  0
  127.4007  121.4553   58.2500 H   0  0  0  0  0  0  0  0  0  0  0  0
  127.2412  121.9776   56.5904 H   0  0  0  0  0  0  0  0  0  0  0  0
  128.7092  123.7354   62.3571 H   0  0  0  0  0  0  0  0  0  0  0  0
  127.7381  123.3287   64.6117 H   0  0  0  0  0  0  0  0  0  0  0  0
  131.4814  121.6165   65.9217 H   0  0  0  0  0  0  0  0  0  0  0  0
  132.4599  122.0266   63.6695 H   0  0  0  0  0  0  0  0  0  0  0  0
  130.7999  124.8347   68.1514 H   0  0  0  0  0  0  0  0  0  0  0  0
  128.8301  125.3620   71.9930 H   0  0  0  0  0  0  0  0  0  0  0  0
  129.9328  126.5932   71.2896 H   0  0  0  0  0  0  0  0  0  0  0  0
  128.1583  126.8722   71.2896 H   0  0  0  0  0  0  0  0  0  0  0  0
  1  2  1  0
  2  3  1  0
  3  4  2  0
  4  5  1  0
  5  6  2  0
  6  7  1  0
  7  8  1  0
  8  9  2  0
  9 10  1  0
 10 11  1  0
 11 12  1  0
 12 13  2  0
 12 14  1  0
 14 15  1  0
 15 16  1  0
 16 17  1  0
 17 18  1  0
 18 19  1  0
 19 20  1  0
 20 21  1  0
 21 22  1  0
 22 23  1  0
 14 24  1  0
 24 25  1  0
 25 26  2  0
 25 27  1  0
 27 28  1  0
 28 29  1  0
 29 30  1  0
 30 31  1  0
 31 32  1  0
 32 33  1  0
 24 34  1  0
 34 35  2  0
 35 36  1  0
 36 37  2  0
 37 38  1  0
 37 39  1  0
 39 40  2  0
 10 41  1  0
  6 42  1  0
 42 43  2  0
 43 44  1  0
 44 45  1  0
 43  3  1  0
 41  7  2  0
 23 18  1  0
 33 29  1  0
 40 34  1  0
  1 46  1  0
  1 47  1  0
  1 48  1  0
  4 49  1  0
  5 50  1  0
 11 51  1  0
 11 52  1  0
 15 53  1  0
 15 54  1  0
 16 55  1  0
 16 56  1  0
 17 57  1  0
 17 58  1  0
 19 59  1  0
 19 60  1  0
 20 61  1  0
 20 62  1  0
 22 63  1  0
 22 64  1  0
 23 65  1  0
 23 66  1  0
 24 67  1  6
 27 68  1  0
 28 69  1  0
 28 70  1  0
 29 71  1  6
 30 72  1  0
 30 73  1  0
 31 74  1  0
 31 75  1  0
 32 76  1  0
 32 77  1  0
 35 78  1  0
 36 79  1  0
 39 80  1  0
 40 81  1  0
 42 82  1  0
 45 83  1  0
 45 84  1  0
 45 85  1  0
M  END
>  <Binding energies>  (1) 
[-9.35]

>  <Ligand effiencies>  (1) 
[-0.20326086956521738]

>  <Interactions>  (1) 
["V-B:PRO:540:CD:9858, V-B:GLU:543:CB:9877, V-B:PRO:540:N:9855, V-B:MET:535:CE:9806, V-B:TYR:539:CD2:9845, V-B:TYR:539:CZ:9848, V-B:HIS:456:CE1:9040, V-A:HIS:456:CE1:4069, V-B:TYR:539:C:9838, V-A:GLU:543:CD:4907, V-B:PRO:540:CB:9856, V-B:TYR:539:CE2:9847, V-B:GLU:543:CD:9879, V-B:TYR:539:CG:9843, V-A:ASP:366:CG:3212, V-B:GLU:543:CG:9878, V-B:ARG:545:CG:9893, V-A:TYR:484:CZ:4346, V-A:LEU:475:CG:4256, V-A:ILE:369:CG2:3236, V-A:ARG:545:CZ:4925, V-A:SER:385:CA:3406, V-A:SER:385:CB:3408, V-A:TYR:484:CE2:4345, H-A:GLY:454:N:4049, V-B:ALA:541:CB:9863, V-A:ILE:369:CD1:3238, V-A:LEU:475:CD2:4258, V-A:LEU:475:CD1:4257, V-A:HIS:383:CE1:3393, V-B:PRO:540:CA:9854, V-B:TYR:539:CB:9842, H-A:TYR:484:OH:4347, V-A:LEU:373:CD2:3280, V-A:LEU:373:CG:3278, V-B:VAL:344:CG1:7971, V-B:TYR:539:CA:9840, V-A:SER:385:C:3404, V-A:LEU:373:CD1:3279, V-B:GLU:543:CA:9875, H-A:HIS:383:ND1:3390, V-B:VAL:542:C:9865, V-A:TYR:484:CD2:4343"]

$$$$
RR16_Rahimova_2017
     RDKit          3D

 80 85  0  0  0  0  0  0  0  0999 V2000
  127.1230  126.7330   70.6880 O   0  0  0  0  0  0  0  0  0  0  0  0
  128.2840  126.7240   69.7910 S   0  0  0  0  0  0  0  0  0  0  0  0
  128.8640  125.4590   69.3230 O   0  0  0  0  0  0  0  0  0  0  0  0
  129.5630  127.6590   70.5680 N   0  0  0  0  0  0  0  0  0  0  0  0
  129.8810  127.4690   72.0030 C   0  0  0  0  0  0  0  0  0  0  0  0
  129.5310  128.7660   72.7780 C   0  0  0  0  0  0  0  0  0  0  0  0
  129.9280  128.8300   74.2650 C   0  0  0  0  0  0  0  0  0  0  0  0
  129.4580  127.6200   75.0900 C   0  0  0  0  0  0  0  0  0  0  0  0
  130.2460  126.3150   74.8850 C   0  0  0  0  0  0  0  0  0  0  0  0
  129.8880  125.4590   73.6540 C   0  0  0  0  0  0  0  0  0  0  0  0
  129.1750  126.1830   72.4950 C   0  0  0  0  0  0  0  0  0  0  0  0
  127.8360  127.6900   68.3530 C   0  0  0  0  0  0  0  0  0  0  0  0
  126.4950  127.9660   68.0800 C   0  0  0  0  0  0  0  0  0  0  0  0
  126.1530  128.6130   66.8960 C   0  0  0  0  0  0  0  0  0  0  0  0
  127.1520  128.9800   65.9910 C   0  0  0  0  0  0  0  0  0  0  0  0
  126.7040  129.6830   64.4060 S   0  0  0  0  0  0  0  0  0  0  0  0
  127.1420  131.0850   64.4080 O   0  0  0  0  0  0  0  0  0  0  0  0
  125.2970  129.3460   64.1560 O   0  0  0  0  0  0  0  0  0  0  0  0
  127.7010  128.7910   63.2390 N   0  0  0  0  0  0  0  0  0  0  0  0
  127.6910  127.3170   63.4220 C   0  0  0  0  0  0  0  0  0  0  0  0
  128.8080  126.6610   62.5840 C   0  0  0  0  0  0  0  0  0  0  0  0
  128.7350  127.0870   61.0960 C   0  0  0  0  0  0  0  0  0  0  0  0
  129.8640  126.4840   60.2560 C   0  0  0  0  0  0  0  0  0  0  0  0
  130.1180  126.9840   58.9710 C   0  0  0  0  0  0  0  0  0  0  0  0
  131.1420  126.4690   58.1740 C   0  0  0  0  0  0  0  0  0  0  0  0
  131.3780  126.9730   56.9210 O   0  0  0  0  0  0  0  0  0  0  0  0
  131.9250  125.4270   58.6930 C   0  0  0  0  0  0  0  0  0  0  0  0
  132.9850  124.7520   58.1600 N   0  0  0  0  0  0  0  0  0  0  0  0
  133.4120  123.8410   59.1020 N   0  0  0  0  0  0  0  0  0  0  0  0
  132.6000  123.9250   60.1740 N   0  0  0  0  0  0  0  0  0  0  0  0
  132.8720  123.1300   61.3640 C   0  0  0  0  0  0  0  0  0  0  0  0
  132.0570  121.8450   61.4100 C   0  0  0  0  0  0  0  0  0  0  0  0
  130.7340  121.8690   61.8650 C   0  0  0  0  0  0  0  0  0  0  0  0
  129.9770  120.6970   61.8880 C   0  0  0  0  0  0  0  0  0  0  0  0
  130.5390  119.4950   61.4540 C   0  0  0  0  0  0  0  0  0  0  0  0
  131.8560  119.4650   60.9980 C   0  0  0  0  0  0  0  0  0  0  0  0
  132.5500  117.9820   60.4520 Cl  0  0  0  0  0  0  0  0  0  0  0  0
  132.6150  120.6370   60.9790 C   0  0  0  0  0  0  0  0  0  0  0  0
  131.6580  124.9230   59.9870 C   0  0  0  0  0  0  0  0  0  0  0  0
  130.6300  125.4350   60.7860 C   0  0  0  0  0  0  0  0  0  0  0  0
  128.6180  128.6250   60.9300 C   0  0  0  0  0  0  0  0  0  0  0  0
  127.5150  129.2190   61.8280 C   0  0  0  0  0  0  0  0  0  0  0  0
  128.4960  128.7400   66.2860 C   0  0  0  0  0  0  0  0  0  0  0  0
  128.8380  128.0910   67.4680 C   0  0  0  0  0  0  0  0  0  0  0  0
  130.3260  127.9900   69.9710 H   0  0  0  0  0  0  0  0  0  0  0  0
  130.9543  127.3093   72.1833 H   0  0  0  0  0  0  0  0  0  0  0  0
  130.0310  129.6016   72.2664 H   0  0  0  0  0  0  0  0  0  0  0  0
  128.4318  128.8071   72.7774 H   0  0  0  0  0  0  0  0  0  0  0  0
  131.0247  128.8869   74.3282 H   0  0  0  0  0  0  0  0  0  0  0  0
  129.4331  129.7162   74.6889 H   0  0  0  0  0  0  0  0  0  0  0  0
  129.5273  127.8910   76.1538 H   0  0  0  0  0  0  0  0  0  0  0  0
  128.4358  127.4057   74.7448 H   0  0  0  0  0  0  0  0  0  0  0  0
  131.3103  126.5809   74.8044 H   0  0  0  0  0  0  0  0  0  0  0  0
  129.9846  125.6883   75.7504 H   0  0  0  0  0  0  0  0  0  0  0  0
  130.8230  125.0355   73.2584 H   0  0  0  0  0  0  0  0  0  0  0  0
  129.1661  124.7134   74.0186 H   0  0  0  0  0  0  0  0  0  0  0  0
  129.1042  125.4855   71.6474 H   0  0  0  0  0  0  0  0  0  0  0  0
  128.1939  126.4961   72.8815 H   0  0  0  0  0  0  0  0  0  0  0  0
  125.7131  127.6738   68.7965 H   0  0  0  0  0  0  0  0  0  0  0  0
  125.0988  128.8348   66.6735 H   0  0  0  0  0  0  0  0  0  0  0  0
  127.8510  127.0831   64.4849 H   0  0  0  0  0  0  0  0  0  0  0  0
  126.7190  126.9238   63.0893 H   0  0  0  0  0  0  0  0  0  0  0  0
  129.7837  126.9618   62.9932 H   0  0  0  0  0  0  0  0  0  0  0  0
  128.6781  125.5699   62.6346 H   0  0  0  0  0  0  0  0  0  0  0  0
  127.8025  126.6628   60.6954 H   0  0  0  0  0  0  0  0  0  0  0  0
  129.4950  127.8024   58.5811 H   0  0  0  0  0  0  0  0  0  0  0  0
  132.0980  126.5320   56.4650 H   0  0  0  0  0  0  0  0  0  0  0  0
  133.9407  122.8697   61.3768 H   0  0  0  0  0  0  0  0  0  0  0  0
  132.5903  123.7340   62.2391 H   0  0  0  0  0  0  0  0  0  0  0  0
  130.2890  122.8154   62.2059 H   0  0  0  0  0  0  0  0  0  0  0  0
  128.9378  120.7202   62.2480 H   0  0  0  0  0  0  0  0  0  0  0  0
  129.9423  118.5711   61.4719 H   0  0  0  0  0  0  0  0  0  0  0  0
  133.6557  120.6101   60.6237 H   0  0  0  0  0  0  0  0  0  0  0  0
  130.4304  125.0312   61.7895 H   0  0  0  0  0  0  0  0  0  0  0  0
  129.5805  129.0856   61.1975 H   0  0  0  0  0  0  0  0  0  0  0  0
  128.3544  128.8353   59.8829 H   0  0  0  0  0  0  0  0  0  0  0  0
  127.5580  130.3169   61.7748 H   0  0  0  0  0  0  0  0  0  0  0  0
  126.5378  128.8584   61.4743 H   0  0  0  0  0  0  0  0  0  0  0  0
  129.2810  129.0629   65.5864 H   0  0  0  0  0  0  0  0  0  0  0  0
  129.8942  127.8946   67.7043 H   0  0  0  0  0  0  0  0  0  0  0  0
  1  2  2  0
  2  3  2  0
  2  4  1  0
  4  5  1  0
  5  6  1  0
  6  7  1  0
  7  8  1  0
  8  9  1  0
  9 10  1  0
 10 11  1  0
  2 12  1  0
 12 13  2  0
 13 14  1  0
 14 15  2  0
 15 16  1  0
 16 17  2  0
 16 18  2  0
 16 19  1  0
 19 20  1  0
 20 21  1  0
 21 22  1  0
 22 23  1  0
 23 24  2  0
 24 25  1  0
 25 26  1  0
 25 27  2  0
 27 28  1  0
 28 29  2  0
 29 30  1  0
 30 31  1  0
 31 32  1  0
 32 33  2  0
 33 34  1  0
 34 35  2  0
 35 36  1  0
 36 37  1  0
 36 38  2  0
 30 39  1  0
 39 40  2  0
 22 41  1  0
 41 42  1  0
 15 43  1  0
 43 44  2  0
 11  5  1  0
 44 12  1  0
 42 19  1  0
 40 23  1  0
 39 27  1  0
 38 32  1  0
  4 45  1  0
  5 46  1  0
  6 47  1  0
  6 48  1  0
  7 49  1  0
  7 50  1  0
  8 51  1  0
  8 52  1  0
  9 53  1  0
  9 54  1  0
 10 55  1  0
 10 56  1  0
 11 57  1  0
 11 58  1  0
 13 59  1  0
 14 60  1  0
 20 61  1  0
 20 62  1  0
 21 63  1  0
 21 64  1  0
 22 65  1  0
 24 66  1  0
 26 67  1  0
 31 68  1  0
 31 69  1  0
 33 70  1  0
 34 71  1  0
 35 72  1  0
 38 73  1  0
 40 74  1  0
 41 75  1  0
 41 76  1  0
 42 77  1  0
 42 78  1  0
 43 79  1  0
 44 80  1  0
M  END
>  <Binding energies>  (1) 
[-7.61]

>  <Ligand effiencies>  (1) 
[-0.15854166666666666]

>  <Interactions>  (1) 
["V-B:GLU:543:CB:9877, V-B:TYR:539:CD2:9845, V-B:HIS:456:CE1:9040, H-A:TYR:531:OH:4794, V-A:HIS:456:CE1:4069, V-A:GLU:543:CD:4907, V-A:GLU:543:CG:4906, V-B:TYR:539:CE2:9847, V-B:GLU:543:CD:9879, V-A:ASP:366:CG:3212, V-A:ASP:366:CB:3211, V-B:HIS:456:CD2:9038, H-B:ARG:545:NH2:9899, V-A:HIS:456:CD2:4067, V-B:ARG:545:CG:9893, V-A:SER:385:CA:3406, V-A:SER:385:CB:3408, V-B:ALA:541:CB:9863, V-A:ILE:369:CD1:3238, V-A:LEU:475:CD2:4258, H-B:TYR:539:OH:9849, H-A:HIS:456:NE2:4070, H-A:ASP:366:O:3208"]

$$$$
RR17_Rahimova_2017
     RDKit          3D

 63 66  0  0  0  0  0  0  0  0999 V2000
  130.6150  117.1070   59.9730 C   0  0  0  0  0  0  0  0  0  0  0  0
  130.7790  117.3520   61.4760 C   0  0  0  0  0  0  0  0  0  0  0  0
  130.2000  118.6130   61.7990 O   0  0  0  0  0  0  0  0  0  0  0  0
  130.8860  119.7740   61.4910 C   0  0  0  0  0  0  0  0  0  0  0  0
  130.1550  120.9600   61.5360 C   0  0  0  0  0  0  0  0  0  0  0  0
  130.7600  122.1770   61.2400 C   0  0  0  0  0  0  0  0  0  0  0  0
  132.1170  122.2330   60.8890 C   0  0  0  0  0  0  0  0  0  0  0  0
  132.7420  123.5610   60.5760 C   0  0  0  0  0  0  0  0  0  0  0  0
  132.8890  123.9670   59.4190 O   0  0  0  0  0  0  0  0  0  0  0  0
  133.2200  124.4110   61.7740 C   0  0  0  0  0  0  0  0  0  0  0  0
  133.3500  123.4270   63.3100 S   0  0  0  0  0  0  0  0  0  0  0  0
  132.8860  124.6540   64.4990 C   0  0  0  0  0  0  0  0  0  0  0  0
  133.7180  125.3710   65.2160 N   0  0  0  0  0  0  0  0  0  0  0  0
  132.9670  126.2200   66.0190 N   0  0  0  0  0  0  0  0  0  0  0  0
  131.7060  125.9870   65.7530 C   0  0  0  0  0  0  0  0  0  0  0  0
  130.5380  126.7110   66.4050 C   0  0  0  0  0  0  0  0  0  0  0  0
  130.0390  127.8440   65.6290 N   0  0  0  0  0  0  0  0  0  0  0  0
  128.7060  128.2910   65.6680 C   0  0  0  0  0  0  0  0  0  0  0  0
  128.1930  128.6720   66.9080 C   0  0  0  0  0  0  0  0  0  0  0  0
  126.8790  129.1190   67.0200 C   0  0  0  0  0  0  0  0  0  0  0  0
  126.0620  129.1940   65.8880 C   0  0  0  0  0  0  0  0  0  0  0  0
  124.6210  129.6810   66.0280 C   0  0  0  0  0  0  0  0  0  0  0  0
  124.5300  131.0120   65.9860 F   0  0  0  0  0  0  0  0  0  0  0  0
  123.8650  129.1860   65.0470 F   0  0  0  0  0  0  0  0  0  0  0  0
  124.1310  129.2650   67.1960 F   0  0  0  0  0  0  0  0  0  0  0  0
  126.5770  128.8200   64.6420 C   0  0  0  0  0  0  0  0  0  0  0  0
  127.8910  128.3740   64.5320 C   0  0  0  0  0  0  0  0  0  0  0  0
  131.5830  124.9930   64.8040 N   0  0  0  0  0  0  0  0  0  0  0  0
  130.4030  124.4720   64.2520 C   0  0  0  0  0  0  0  0  0  0  0  0
  129.7620  125.1620   63.2230 C   0  0  0  0  0  0  0  0  0  0  0  0
  128.5890  124.6460   62.6790 C   0  0  0  0  0  0  0  0  0  0  0  0
  128.0540  123.4410   63.1620 C   0  0  0  0  0  0  0  0  0  0  0  0
  126.8980  122.8560   62.6830 O   0  0  0  0  0  0  0  0  0  0  0  0
  125.6750  123.5820   62.7440 C   0  0  0  0  0  0  0  0  0  0  0  0
  128.7080  122.7660   64.1950 C   0  0  0  0  0  0  0  0  0  0  0  0
  129.8820  123.2750   64.7430 C   0  0  0  0  0  0  0  0  0  0  0  0
  132.8510  121.0390   60.8450 C   0  0  0  0  0  0  0  0  0  0  0  0
  132.2440  119.8220   61.1430 C   0  0  0  0  0  0  0  0  0  0  0  0
  130.0096  116.2026   59.8128 H   0  0  0  0  0  0  0  0  0  0  0  0
  130.1124  117.9708   59.5134 H   0  0  0  0  0  0  0  0  0  0  0  0
  131.6052  116.9716   59.5134 H   0  0  0  0  0  0  0  0  0  0  0  0
  130.2696  116.5558   62.0386 H   0  0  0  0  0  0  0  0  0  0  0  0
  131.8464  117.3506   61.7417 H   0  0  0  0  0  0  0  0  0  0  0  0
  129.0895  120.9332   61.8082 H   0  0  0  0  0  0  0  0  0  0  0  0
  130.1690  123.1038   61.2815 H   0  0  0  0  0  0  0  0  0  0  0  0
  134.2086  124.8318   61.5380 H   0  0  0  0  0  0  0  0  0  0  0  0
  132.4774  125.2047   61.9429 H   0  0  0  0  0  0  0  0  0  0  0  0
  129.7156  125.9928   66.5382 H   0  0  0  0  0  0  0  0  0  0  0  0
  130.9042  127.1139   67.3608 H   0  0  0  0  0  0  0  0  0  0  0  0
  130.6240  128.1870   64.8820 H   0  0  0  0  0  0  0  0  0  0  0  0
  128.8305  128.6190   67.8029 H   0  0  0  0  0  0  0  0  0  0  0  0
  126.4824  129.4142   68.0026 H   0  0  0  0  0  0  0  0  0  0  0  0
  125.9413  128.8786   63.7462 H   0  0  0  0  0  0  0  0  0  0  0  0
  128.2910  128.0855   63.5487 H   0  0  0  0  0  0  0  0  0  0  0  0
  130.1801  126.1064   62.8444 H   0  0  0  0  0  0  0  0  0  0  0  0
  128.0789  125.1848   61.8669 H   0  0  0  0  0  0  0  0  0  0  0  0
  125.3982  123.7463   63.7959 H   0  0  0  0  0  0  0  0  0  0  0  0
  125.7993  124.5527   62.2416 H   0  0  0  0  0  0  0  0  0  0  0  0
  124.8824  123.0080   62.2416 H   0  0  0  0  0  0  0  0  0  0  0  0
  128.2914  121.8232   64.5792 H   0  0  0  0  0  0  0  0  0  0  0  0
  130.3939  122.7384   65.5554 H   0  0  0  0  0  0  0  0  0  0  0  0
  133.9164  121.0641   60.5725 H   0  0  0  0  0  0  0  0  0  0  0  0
  132.8324  118.8933   61.1054 H   0  0  0  0  0  0  0  0  0  0  0  0
  1  2  1  0
  2  3  1  0
  3  4  1  0
  4  5  2  0
  5  6  1  0
  6  7  2  0
  7  8  1  0
  8  9  2  0
  8 10  1  0
 10 11  1  0
 11 12  1  0
 12 13  2  0
 13 14  1  0
 14 15  2  0
 15 16  1  0
 16 17  1  0
 17 18  1  0
 18 19  2  0
 19 20  1  0
 20 21  2  0
 21 22  1  0
 22 23  1  0
 22 24  1  0
 22 25  1  0
 21 26  1  0
 26 27  2  0
 15 28  1  0
 28 29  1  0
 29 30  2  0
 30 31  1  0
 31 32  2  0
 32 33  1  0
 33 34  1  0
 32 35  1  0
 35 36  2  0
  7 37  1  0
 37 38  2  0
 38  4  1  0
 28 12  1  0
 36 29  1  0
 27 18  1  0
  1 39  1  0
  1 40  1  0
  1 41  1  0
  2 42  1  0
  2 43  1  0
  5 44  1  0
  6 45  1  0
 10 46  1  0
 10 47  1  0
 16 48  1  0
 16 49  1  0
 17 50  1  0
 19 51  1  0
 20 52  1  0
 26 53  1  0
 27 54  1  0
 30 55  1  0
 31 56  1  0
 34 57  1  0
 34 58  1  0
 34 59  1  0
 35 60  1  0
 36 61  1  0
 37 62  1  0
 38 63  1  0
M  END
>  <Binding energies>  (1) 
[-8.57]

>  <Ligand effiencies>  (1) 
[-0.21974358974358976]

>  <Interactions>  (1) 
["V-B:TYR:539:CD2:9845, V-B:GLY:454:CA:9019, V-A:GLU:543:CD:4907, V-A:GLU:543:CG:4906, V-B:TYR:539:CE2:9847, V-B:GLU:543:CD:9879, V-A:ASP:366:CG:3212, V-B:GLU:543:CG:9878, V-B:GLY:453:CA:9014, V-B:ARG:545:CZ:9897, V-B:ARG:545:CG:9893, V-B:ARG:545:CD:9894, H-A:ARG:545:NE:4923, V-A:ILE:369:CG2:3236, H-A:GLY:454:N:4049, V-B:ALA:541:CB:9863, H-A:ARG:545:NH2:4927, V-A:ILE:369:CD1:3238, V-A:LEU:475:CD2:4258, V-B:ALA:541:CA:9861, V-A:HIS:383:CE1:3393, H-B:TYR:539:OH:9849, V-A:PRO:482:CG:4326, V-B:TYR:539:CB:9842, H-A:TYR:484:OH:4347, H-B:ALA:541:N:9862, V-A:PRO:482:CB:4325, V-A:GLY:454:CA:4048, V-B:VAL:344:CG1:7971, H-A:GLU:543:OE1:4908, H-A:GLU:543:OE2:4909, V-B:TYR:484:CZ:9317, V-B:GLY:454:C:9017"]

$$$$
RR18_Rahimova_2017
     RDKit          3D

 56 61  0  0  0  0  0  0  0  0999 V2000
  130.1320  127.6360   59.8330 C   0  0  0  0  0  0  0  0  0  0  0  0
  129.9940  127.8760   61.3160 C   0  0  0  0  0  0  0  0  0  0  0  0
  130.1710  127.0900   62.4420 C   0  0  0  0  0  0  0  0  0  0  0  0
  129.8850  127.8950   63.5450 C   0  0  0  0  0  0  0  0  0  0  0  0
  129.5440  129.1440   63.0520 C   0  0  0  0  0  0  0  0  0  0  0  0
  129.1370  130.4630   63.7040 C   0  0  1  0  0  0  0  0  0  0  0  0
  128.9020  131.5770   62.6410 C   0  0  0  0  0  0  0  0  0  0  0  0
  130.0080  132.0640   61.8230 C   0  0  0  0  0  0  0  0  0  0  0  0
  130.8350  132.8670   62.2600 O   0  0  0  0  0  0  0  0  0  0  0  0
  130.0440  131.5450   60.5730 N   0  0  0  0  0  0  0  0  0  0  0  0
  130.9390  131.7890   59.5090 C   0  0  0  0  0  0  0  0  0  0  0  0
  130.5580  132.4030   58.3020 C   0  0  0  0  0  0  0  0  0  0  0  0
  131.4900  132.6090   57.2860 C   0  0  0  0  0  0  0  0  0  0  0  0
  132.8100  132.2020   57.4560 C   0  0  0  0  0  0  0  0  0  0  0  0
  133.1990  131.5830   58.6420 C   0  0  0  0  0  0  0  0  0  0  0  0
  132.2750  131.3700   59.6700 C   0  0  0  0  0  0  0  0  0  0  0  0
  132.7510  130.6830   60.9470 C   0  0  0  0  0  0  0  0  0  0  0  0
  127.6310  132.0060   62.4240 C   0  0  0  0  0  0  0  0  0  0  0  0
  126.5460  131.6210   63.1520 N   0  0  0  0  0  0  0  0  0  0  0  0
  126.7080  130.8610   64.1710 C   0  0  0  0  0  0  0  0  0  0  0  0
  125.4380  130.4090   65.2840 S   0  0  0  0  0  0  0  0  0  0  0  0
  126.5810  129.4580   66.2840 C   0  0  0  0  0  0  0  0  0  0  0  0
  126.2940  128.7520   67.4320 C   0  0  0  0  0  0  0  0  0  0  0  0
  124.9420  128.7910   68.0090 C   0  0  0  0  0  0  0  0  0  0  0  0
  123.9280  129.3650   67.6140 O   0  0  0  0  0  0  0  0  0  0  0  0
  124.9680  128.0690   69.1340 N   0  0  0  0  0  0  0  0  0  0  0  0
  126.1840  127.5060   69.3770 C   0  0  0  0  0  0  0  0  0  0  0  0
  126.5500  126.6890   70.4450 C   0  0  0  0  0  0  0  0  0  0  0  0
  127.8470  126.1860   70.4940 C   0  0  0  0  0  0  0  0  0  0  0  0
  128.7460  126.4990   69.4760 C   0  0  0  0  0  0  0  0  0  0  0  0
  128.3560  127.3210   68.4160 C   0  0  0  0  0  0  0  0  0  0  0  0
  127.0560  127.8590   68.3610 C   0  0  0  0  0  0  0  0  0  0  0  0
  127.9090  129.5660   65.6790 C   0  0  0  0  0  0  0  0  0  0  0  0
  128.9510  129.0890   66.1160 O   0  0  0  0  0  0  0  0  0  0  0  0
  127.8910  130.3030   64.5350 N   0  0  0  0  0  0  0  0  0  0  0  0
  129.6120  129.1240   61.6940 O   0  0  0  0  0  0  0  0  0  0  0  0
  130.6737  126.6939   59.6629 H   0  0  0  0  0  0  0  0  0  0  0  0
  129.1328  127.5719   59.3774 H   0  0  0  0  0  0  0  0  0  0  0  0
  130.6901  128.4673   59.3774 H   0  0  0  0  0  0  0  0  0  0  0  0
  130.4781  126.0339   62.4629 H   0  0  0  0  0  0  0  0  0  0  0  0
  129.9230  127.5956   64.6028 H   0  0  0  0  0  0  0  0  0  0  0  0
  129.9702  130.7616   64.3572 H   0  0  0  0  0  0  0  0  0  0  0  0
  129.3570  130.8350   60.3730 H   0  0  0  0  0  0  0  0  0  0  0  0
  129.5155  132.7234   58.1587 H   0  0  0  0  0  0  0  0  0  0  0  0
  131.1816  133.0941   56.3482 H   0  0  0  0  0  0  0  0  0  0  0  0
  133.5452  132.3688   56.6550 H   0  0  0  0  0  0  0  0  0  0  0  0
  134.2422  131.2589   58.7710 H   0  0  0  0  0  0  0  0  0  0  0  0
  132.3712  131.2312   61.8217 H   0  0  0  0  0  0  0  0  0  0  0  0
  132.3742  129.6498   60.9698 H   0  0  0  0  0  0  0  0  0  0  0  0
  133.8507  130.6728   60.9698 H   0  0  0  0  0  0  0  0  0  0  0  0
  127.4663  132.7161   61.6002 H   0  0  0  0  0  0  0  0  0  0  0  0
  124.1600  127.9400   69.7250 H   0  0  0  0  0  0  0  0  0  0  0  0
  125.8258  126.4456   71.2364 H   0  0  0  0  0  0  0  0  0  0  0  0
  128.1606  125.5452   71.3313 H   0  0  0  0  0  0  0  0  0  0  0  0
  129.7691  126.0962   69.5074 H   0  0  0  0  0  0  0  0  0  0  0  0
  129.0734  127.5508   67.6144 H   0  0  0  0  0  0  0  0  0  0  0  0
  1  2  1  0
  2  3  2  0
  3  4  1  0
  4  5  2  0
  5  6  1  0
  6  7  1  0
  7  8  1  0
  8  9  2  0
  8 10  1  0
 10 11  1  0
 11 12  2  0
 12 13  1  0
 13 14  2  0
 14 15  1  0
 15 16  2  0
 16 17  1  0
  7 18  2  0
 18 19  1  0
 19 20  2  0
 20 21  1  0
 21 22  1  0
 22 23  2  0
 23 24  1  0
 24 25  2  0
 24 26  1  0
 26 27  1  0
 27 28  2  0
 28 29  1  0
 29 30  2  0
 30 31  1  0
 31 32  2  0
 22 33  1  0
 33 34  2  0
 33 35  1  0
  5 36  1  0
 36  2  1  0
 35  6  1  0
 16 11  1  0
 35 20  1  0
 32 23  1  0
 32 27  1  0
  1 37  1  0
  1 38  1  0
  1 39  1  0
  3 40  1  0
  4 41  1  0
  6 42  1  1
 10 43  1  0
 12 44  1  0
 13 45  1  0
 14 46  1  0
 15 47  1  0
 17 48  1  0
 17 49  1  0
 17 50  1  0
 18 51  1  0
 26 52  1  0
 28 53  1  0
 29 54  1  0
 30 55  1  0
 31 56  1  0
M  END
>  <Binding energies>  (1) 
[-9.35]

>  <Ligand effiencies>  (1) 
[-0.24605263157894736]

>  <Interactions>  (1) 
["V-B:GLU:543:CB:9877, H-B:TYR:484:OH:9318, V-A:PRO:540:CA:4882, V-A:PRO:540:CB:4884, V-B:HIS:456:CE1:9040, V-A:HIS:456:CE1:4069, V-A:GLU:543:CD:4907, V-A:GLU:543:CG:4906, V-B:GLU:543:CD:9879, V-A:ASP:366:CG:3212, V-B:GLU:543:C:9873, V-A:TYR:531:CZ:4793, V-B:GLY:544:C:9883, H-A:ALA:541:N:4890, V-B:ARG:545:CG:9893, V-B:ARG:545:CD:9894, V-B:GLU:543:CA:9875, V-A:TYR:531:CE2:4792, V-A:PRO:540:N:4883, V-A:LEU:363:CD1:3188, V-A:LEU:363:CA:3184, V-B:ARG:545:CB:9892, V-B:ARG:545:CA:9890, H-B:ILE:455:O:9023"]

$$$$
RR19_Rahimova_2017
     RDKit          3D

 72 77  0  0  0  0  0  0  0  0999 V2000
  130.8850  128.3770   68.7500 O   0  0  0  0  0  0  0  0  0  0  0  0
  129.9680  127.7390   68.2250 C   0  0  0  0  0  0  0  0  0  0  0  0
  130.0920  126.8720   67.1880 N   0  0  0  0  0  0  0  0  0  0  0  0
  131.1760  126.2880   66.5810 C   0  0  0  0  0  0  0  0  0  0  0  0
  132.7670  126.3210   67.1610 S   0  0  0  0  0  0  0  0  0  0  0  0
  130.7560  125.6740   65.4280 N   0  0  0  0  0  0  0  0  0  0  0  0
  131.3710  124.8500   64.5420 C   0  0  0  0  0  0  0  0  0  0  0  0
  132.4660  124.3030   64.6910 O   0  0  0  0  0  0  0  0  0  0  0  0
  130.5780  124.6340   63.2290 C   0  0  2  0  0  0  0  0  0  0  0  0
  129.0420  124.8480   63.3510 C   0  0  0  0  0  0  0  0  0  0  0  0
  128.2230  124.3590   62.1670 C   0  0  0  0  0  0  0  0  0  0  0  0
  126.9040  123.8890   62.3430 C   0  0  0  0  0  0  0  0  0  0  0  0
  126.1440  123.5210   61.2410 C   0  0  0  0  0  0  0  0  0  0  0  0
  126.6710  123.6290   59.9590 C   0  0  0  0  0  0  0  0  0  0  0  0
  127.9570  124.1180   59.7690 C   0  0  0  0  0  0  0  0  0  0  0  0
  128.7320  124.4940   60.8570 C   0  0  0  0  0  0  0  0  0  0  0  0
  130.9000  123.3170   62.6130 N   0  0  0  0  0  0  0  0  0  0  0  0
  132.0000  123.1530   61.8250 C   0  0  0  0  0  0  0  0  0  0  0  0
  132.8210  124.0130   61.5000 O   0  0  0  0  0  0  0  0  0  0  0  0
  132.0040  121.7190   61.4440 C   0  0  0  0  0  0  0  0  0  0  0  0
  132.8860  120.9870   60.6470 C   0  0  0  0  0  0  0  0  0  0  0  0
  132.6440  119.6210   60.4620 C   0  0  0  0  0  0  0  0  0  0  0  0
  131.5390  119.0110   61.0700 C   0  0  0  0  0  0  0  0  0  0  0  0
  130.6670  119.7620   61.8660 C   0  0  0  0  0  0  0  0  0  0  0  0
  130.9240  121.1230   62.0360 C   0  0  0  0  0  0  0  0  0  0  0  0
  130.2010  122.1600   62.8140 C   0  0  0  0  0  0  0  0  0  0  0  0
  129.1910  122.0030   63.5010 O   0  0  0  0  0  0  0  0  0  0  0  0
  128.5170  127.9130   68.7480 C   0  0  2  0  0  0  0  0  0  0  0  0
  127.9980  126.7060   69.5810 C   0  0  0  0  0  0  0  0  0  0  0  0
  128.2060  126.8550   71.0770 C   0  0  0  0  0  0  0  0  0  0  0  0
  129.2270  127.6960   71.5700 C   0  0  0  0  0  0  0  0  0  0  0  0
  129.3500  127.9110   72.9370 C   0  0  0  0  0  0  0  0  0  0  0  0
  128.4560  127.3220   73.8220 C   0  0  0  0  0  0  0  0  0  0  0  0
  127.4230  126.5230   73.3490 C   0  0  0  0  0  0  0  0  0  0  0  0
  127.2820  126.2950   71.9860 C   0  0  0  0  0  0  0  0  0  0  0  0
  127.5480  128.2990   67.6830 N   0  0  0  0  0  0  0  0  0  0  0  0
  126.2200  128.4560   67.9460 C   0  0  0  0  0  0  0  0  0  0  0  0
  125.6480  128.2950   69.0250 O   0  0  0  0  0  0  0  0  0  0  0  0
  125.6090  128.8600   66.6550 C   0  0  0  0  0  0  0  0  0  0  0  0
  124.2850  129.1500   66.3210 C   0  0  0  0  0  0  0  0  0  0  0  0
  123.9910  129.5140   65.0020 C   0  0  0  0  0  0  0  0  0  0  0  0
  125.0130  129.5870   64.0450 C   0  0  0  0  0  0  0  0  0  0  0  0
  126.3340  129.2950   64.4010 C   0  0  0  0  0  0  0  0  0  0  0  0
  126.6060  128.9310   65.7210 C   0  0  0  0  0  0  0  0  0  0  0  0
  127.8810  128.5740   66.3870 C   0  0  0  0  0  0  0  0  0  0  0  0
  129.0030  128.5330   65.8800 O   0  0  0  0  0  0  0  0  0  0  0  0
  129.2070  126.5140   66.8600 H   0  0  0  0  0  0  0  0  0  0  0  0
  129.8370  125.9640   65.1280 H   0  0  0  0  0  0  0  0  0  0  0  0
  130.9191  125.4333   62.5547 H   0  0  0  0  0  0  0  0  0  0  0  0
  128.6946  124.3148   64.2482 H   0  0  0  0  0  0  0  0  0  0  0  0
  128.8888  125.9362   63.3988 H   0  0  0  0  0  0  0  0  0  0  0  0
  126.4777  123.8142   63.3543 H   0  0  0  0  0  0  0  0  0  0  0  0
  125.1209  123.1425   61.3827 H   0  0  0  0  0  0  0  0  0  0  0  0
  126.0667  123.3258   59.0913 H   0  0  0  0  0  0  0  0  0  0  0  0
  128.3633  124.2077   58.7507 H   0  0  0  0  0  0  0  0  0  0  0  0
  129.7431  124.8973   60.6988 H   0  0  0  0  0  0  0  0  0  0  0  0
  133.7523  121.4733   60.1747 H   0  0  0  0  0  0  0  0  0  0  0  0
  133.3241  119.0239   59.8367 H   0  0  0  0  0  0  0  0  0  0  0  0
  131.3560  117.9366   60.9209 H   0  0  0  0  0  0  0  0  0  0  0  0
  129.7978  119.2898   62.3473 H   0  0  0  0  0  0  0  0  0  0  0  0
  128.5829  128.7620   69.4443 H   0  0  0  0  0  0  0  0  0  0  0  0
  126.9205  126.5920   69.3910 H   0  0  0  0  0  0  0  0  0  0  0  0
  128.5786  125.8270   69.2644 H   0  0  0  0  0  0  0  0  0  0  0  0
  129.9251  128.1810   70.8719 H   0  0  0  0  0  0  0  0  0  0  0  0
  130.1589  128.5504   73.3202 H   0  0  0  0  0  0  0  0  0  0  0  0
  128.5667  127.4893   74.9036 H   0  0  0  0  0  0  0  0  0  0  0  0
  126.7137  126.0689   74.0566 H   0  0  0  0  0  0  0  0  0  0  0  0
  126.4504  125.6781   71.6148 H   0  0  0  0  0  0  0  0  0  0  0  0
  123.4895  129.0936   67.0786 H   0  0  0  0  0  0  0  0  0  0  0  0
  122.9542  129.7437   64.7151 H   0  0  0  0  0  0  0  0  0  0  0  0
  124.7752  129.8750   63.0103 H   0  0  0  0  0  0  0  0  0  0  0  0
  127.1416  129.3510   63.6563 H   0  0  0  0  0  0  0  0  0  0  0  0
  1  2  2  0
  2  3  1  0
  3  4  1  0
  4  5  2  0
  4  6  1  0
  6  7  1  0
  7  8  2  0
  7  9  1  0
  9 10  1  0
 10 11  1  0
 11 12  2  0
 12 13  1  0
 13 14  2  0
 14 15  1  0
 15 16  2  0
  9 17  1  0
 17 18  1  0
 18 19  2  0
 18 20  1  0
 20 21  2  0
 21 22  1  0
 22 23  2  0
 23 24  1  0
 24 25  2  0
 25 26  1  0
 26 27  2  0
  2 28  1  0
 28 29  1  0
 29 30  1  0
 30 31  2  0
 31 32  1  0
 32 33  2  0
 33 34  1  0
 34 35  2  0
 28 36  1  0
 36 37  1  0
 37 38  2  0
 37 39  1  0
 39 40  2  0
 40 41  1  0
 41 42  2  0
 42 43  1  0
 43 44  2  0
 44 45  1  0
 45 46  2  0
 16 11  1  0
 26 17  1  0
 35 30  1  0
 45 36  1  0
 25 20  1  0
 44 39  1  0
  3 47  1  0
  6 48  1  0
  9 49  1  6
 10 50  1  0
 10 51  1  0
 12 52  1  0
 13 53  1  0
 14 54  1  0
 15 55  1  0
 16 56  1  0
 21 57  1  0
 22 58  1  0
 23 59  1  0
 24 60  1  0
 28 61  1  1
 29 62  1  0
 29 63  1  0
 31 64  1  0
 32 65  1  0
 33 66  1  0
 34 67  1  0
 35 68  1  0
 40 69  1  0
 41 70  1  0
 42 71  1  0
 43 72  1  0
M  END
>  <Binding energies>  (1) 
[-11.8]

>  <Ligand effiencies>  (1) 
[-0.24583333333333335]

>  <Interactions>  (1) 
["V-B:GLU:543:CB:9877, H-B:TYR:484:OH:9318, V-A:GLU:543:CB:4905, V-B:TYR:539:CD2:9845, V-B:HIS:456:CE1:9040, V-A:HIS:456:CE1:4069, V-B:PRO:540:CB:9856, V-B:TYR:539:CE2:9847, V-B:GLU:543:CD:9879, V-B:LYS:547:CE:9921, V-B:GLU:543:C:9873, V-B:GLY:544:CA:9885, V-B:GLY:544:C:9883, V-B:ARG:545:CZ:9897, V-B:ARG:545:CG:9893, V-B:ARG:545:CD:9894, V-A:ILE:369:CG2:3236, V-A:ARG:545:CD:4922, V-B:ALA:541:CB:9863, V-A:ARG:545:CG:4921, V-A:LEU:475:CD2:4258, V-B:PRO:540:CA:9854, H-A:TYR:484:OH:4347, H-B:ALA:541:N:9862, H-B:GLU:543:OE2:9881, V-B:PRO:540:C:9852, H-B:HIS:456:ND1:9037"]

$$$$
RR19_Rahimova_2017-again1
     RDKit          3D

 71 76  0  0  0  0  0  0  0  0999 V2000
  131.6980  127.2950   67.9290 O   0  0  0  0  0  0  0  0  0  0  0  0
  130.6730  126.9640   67.3280 C   0  0  0  0  0  0  0  0  0  0  0  0
  130.6250  126.2630   66.1700 N   0  0  0  0  0  0  0  0  0  0  0  0
  131.5800  125.6220   65.4330 C   0  0  0  0  0  0  0  0  0  0  0  0
  133.2470  125.5560   65.6380 S   0  0  0  0  0  0  0  0  0  0  0  0
  130.9120  124.9100   64.4520 N   0  0  0  0  0  0  0  0  0  0  0  0
  130.6600  123.6430   64.3910 C   0  0  0  0  0  0  0  0  0  0  0  0
  130.8690  122.7360   65.2210 O   0  0  0  0  0  0  0  0  0  0  0  0
  130.0000  123.1540   63.0570 C   0  0  2  0  0  0  0  0  0  0  0  0
  128.4910  122.7940   63.2660 C   0  0  0  0  0  0  0  0  0  0  0  0
  127.5800  123.1840   62.1050 C   0  0  0  0  0  0  0  0  0  0  0  0
  126.2570  123.5570   62.3540 C   0  0  0  0  0  0  0  0  0  0  0  0
  125.4280  123.9280   61.2970 C   0  0  0  0  0  0  0  0  0  0  0  0
  125.9260  123.9210   59.9950 C   0  0  0  0  0  0  0  0  0  0  0  0
  127.2440  123.5460   59.7400 C   0  0  0  0  0  0  0  0  0  0  0  0
  128.0710  123.1740   60.7960 C   0  0  0  0  0  0  0  0  0  0  0  0
  130.7990  122.1060   62.3410 N   0  0  0  0  0  0  0  0  0  0  0  0
  132.1440  122.2340   62.1580 C   0  0  0  0  0  0  0  0  0  0  0  0
  132.8610  123.1690   62.5150 O   0  0  0  0  0  0  0  0  0  0  0  0
  132.5620  121.0060   61.4350 C   0  0  0  0  0  0  0  0  0  0  0  0
  133.8160  120.5950   60.9810 C   0  0  0  0  0  0  0  0  0  0  0  0
  133.9180  119.3670   60.3180 C   0  0  0  0  0  0  0  0  0  0  0  0
  132.7800  118.5730   60.1210 C   0  0  0  0  0  0  0  0  0  0  0  0
  131.5330  119.0030   60.5850 C   0  0  0  0  0  0  0  0  0  0  0  0
  131.4520  120.2310   61.2420 C   0  0  0  0  0  0  0  0  0  0  0  0
  130.2920  120.9390   61.8360 C   0  0  0  0  0  0  0  0  0  0  0  0
  129.1240  120.5550   61.8660 O   0  0  0  0  0  0  0  0  0  0  0  0
  129.2810  127.3600   67.9030 C   0  0  2  0  0  0  0  0  0  0  0  0
  128.6790  128.6420   67.2580 C   0  0  0  0  0  0  0  0  0  0  0  0
  127.1650  128.7210   67.3380 C   0  0  0  0  0  0  0  0  0  0  0  0
  126.5030  128.4080   68.5440 C   0  0  0  0  0  0  0  0  0  0  0  0
  125.1280  128.5750   68.6460 C   0  0  0  0  0  0  0  0  0  0  0  0
  124.4020  129.0760   67.5720 C   0  0  0  0  0  0  0  0  0  0  0  0
  125.0460  129.4240   66.3910 C   0  0  0  0  0  0  0  0  0  0  0  0
  126.4200  129.2640   66.2690 C   0  0  0  0  0  0  0  0  0  0  0  0
  129.2290  127.4060   69.3960 N   0  0  0  0  0  0  0  0  0  0  0  0
  128.9910  126.2880   70.1370 C   0  0  0  0  0  0  0  0  0  0  0  0
  128.7180  125.1610   69.7230 O   0  0  0  0  0  0  0  0  0  0  0  0
  129.1400  126.7120   71.5510 C   0  0  0  0  0  0  0  0  0  0  0  0
  129.0240  125.9890   72.7400 C   0  0  0  0  0  0  0  0  0  0  0  0
  129.2420  126.6530   73.9520 C   0  0  0  0  0  0  0  0  0  0  0  0
  129.5670  128.0160   73.9610 C   0  0  0  0  0  0  0  0  0  0  0  0
  129.6760  128.7250   72.7590 C   0  0  0  0  0  0  0  0  0  0  0  0
  129.4570  128.0430   71.5610 C   0  0  0  0  0  0  0  0  0  0  0  0
  129.5280  128.5040   70.1530 C   0  0  0  0  0  0  0  0  0  0  0  0
  129.8090  129.6340   69.7530 O   0  0  0  0  0  0  0  0  0  0  0  0
  129.6890  126.1120   65.8240 H   0  0  0  0  0  0  0  0  0  0  0  0
  130.0137  124.0032   62.3579 H   0  0  0  0  0  0  0  0  0  0  0  0
  128.4144  121.7065   63.4123 H   0  0  0  0  0  0  0  0  0  0  0  0
  128.1499  123.3708   64.1384 H   0  0  0  0  0  0  0  0  0  0  0  0
  125.8699  123.5579   63.3836 H   0  0  0  0  0  0  0  0  0  0  0  0
  124.3863  124.2248   61.4890 H   0  0  0  0  0  0  0  0  0  0  0  0
  125.2722  124.2144   59.1604 H   0  0  0  0  0  0  0  0  0  0  0  0
  127.6286  123.5440   58.7094 H   0  0  0  0  0  0  0  0  0  0  0  0
  129.1106  122.8722   60.6007 H   0  0  0  0  0  0  0  0  0  0  0  0
  134.7050  121.2228   61.1409 H   0  0  0  0  0  0  0  0  0  0  0  0
  134.8959  119.0232   59.9497 H   0  0  0  0  0  0  0  0  0  0  0  0
  132.8681  117.6084   59.5997 H   0  0  0  0  0  0  0  0  0  0  0  0
  130.6348  118.3860   60.4351 H   0  0  0  0  0  0  0  0  0  0  0  0
  128.6263  126.5279   67.6046 H   0  0  0  0  0  0  0  0  0  0  0  0
  129.0988  129.5184   67.7735 H   0  0  0  0  0  0  0  0  0  0  0  0
  128.9402  128.6135   66.1898 H   0  0  0  0  0  0  0  0  0  0  0  0
  127.0763  128.0315   69.4040 H   0  0  0  0  0  0  0  0  0  0  0  0
  124.6116  128.3097   69.5804 H   0  0  0  0  0  0  0  0  0  0  0  0
  123.3121  129.1976   67.6573 H   0  0  0  0  0  0  0  0  0  0  0  0
  124.4649  129.8280   65.5489 H   0  0  0  0  0  0  0  0  0  0  0  0
  126.9278  129.5604   65.3393 H   0  0  0  0  0  0  0  0  0  0  0  0
  128.7666  124.9197   72.7240 H   0  0  0  0  0  0  0  0  0  0  0  0
  129.1580  126.1032   74.9011 H   0  0  0  0  0  0  0  0  0  0  0  0
  129.7374  128.5315   74.9177 H   0  0  0  0  0  0  0  0  0  0  0  0
  129.9286  129.7956   72.7585 H   0  0  0  0  0  0  0  0  0  0  0  0
  1  2  2  0
  2  3  1  0
  3  4  1  0
  4  5  2  0
  4  6  1  0
  6  7  2  0
  7  8  1  0
  7  9  1  0
  9 10  1  0
 10 11  1  0
 11 12  2  0
 12 13  1  0
 13 14  2  0
 14 15  1  0
 15 16  2  0
  9 17  1  0
 17 18  1  0
 18 19  2  0
 18 20  1  0
 20 21  2  0
 21 22  1  0
 22 23  2  0
 23 24  1  0
 24 25  2  0
 25 26  1  0
 26 27  2  0
  2 28  1  0
 28 29  1  0
 29 30  1  0
 30 31  2  0
 31 32  1  0
 32 33  2  0
 33 34  1  0
 34 35  2  0
 28 36  1  0
 36 37  1  0
 37 38  2  0
 37 39  1  0
 39 40  2  0
 40 41  1  0
 41 42  2  0
 42 43  1  0
 43 44  2  0
 44 45  1  0
 45 46  2  0
 16 11  1  0
 26 17  1  0
 35 30  1  0
 45 36  1  0
 25 20  1  0
 44 39  1  0
  3 47  1  0
  9 48  1  6
 10 49  1  0
 10 50  1  0
 12 51  1  0
 13 52  1  0
 14 53  1  0
 15 54  1  0
 16 55  1  0
 21 56  1  0
 22 57  1  0
 23 58  1  0
 24 59  1  0
 28 60  1  6
 29 61  1  0
 29 62  1  0
 31 63  1  0
 32 64  1  0
 33 65  1  0
 34 66  1  0
 35 67  1  0
 40 68  1  0
 41 69  1  0
 42 70  1  0
 43 71  1  0
M  CHG  1   8  -1
M  END
>  <Binding energies>  (1) 
[-11.54]

>  <Ligand effiencies>  (1) 
[-0.245531914893617]

>  <Interactions>  (1) 
["V-B:GLU:543:CB:9877, V-A:GLU:543:CB:4905, V-B:TYR:539:CD2:9845, V-B:HIS:456:CE1:9040, V-A:HIS:456:CE1:4069, V-A:GLU:543:CD:4907, V-A:GLU:543:CG:4906, V-B:PRO:540:CB:9856, V-B:TYR:539:CE2:9847, V-B:GLU:543:CD:9879, V-B:ARG:545:CG:9893, V-B:ARG:545:CD:9894, V-A:VAL:384:C:3396, V-A:ILE:369:CG2:3236, V-A:ARG:545:CZ:4925, V-A:SER:385:CA:3406, V-A:SER:385:CB:3408, V-B:ALA:541:CB:9863, V-A:ILE:369:CD1:3238, V-A:LEU:475:CD2:4258, V-B:ALA:541:CA:9861, V-B:PRO:540:CA:9854, H-A:TYR:484:OH:4347, H-B:ALA:541:N:9862, V-A:SER:385:C:3404, H-B:GLU:543:OE2:9881, V-B:ARG:545:CB:9892"]

$$$$
RR1_Rahimova_2017
     RDKit          3D

 68 71  0  0  0  0  0  0  0  0999 V2000
  132.8500  126.2960   56.6220 C   0  0  0  0  0  0  0  0  0  0  0  0
  133.1850  125.2650   57.5450 O   0  0  0  0  0  0  0  0  0  0  0  0
  132.3270  124.9920   58.5920 C   0  0  0  0  0  0  0  0  0  0  0  0
  132.7240  124.4240   59.8130 C   0  0  0  0  0  0  0  0  0  0  0  0
  131.7840  124.1780   60.8100 C   0  0  0  0  0  0  0  0  0  0  0  0
  130.4410  124.4970   60.6090 C   0  0  0  0  0  0  0  0  0  0  0  0
  129.5610  124.1670   61.6580 N   0  0  0  0  0  0  0  0  0  0  0  0
  128.6360  123.1860   61.7220 C   0  0  0  0  0  0  0  0  0  0  0  0
  128.3540  122.4260   60.7950 O   0  0  0  0  0  0  0  0  0  0  0  0
  127.9180  123.0700   63.0760 C   0  0  0  0  0  0  0  0  0  0  0  0
  129.0050  122.7870   64.5180 S   0  0  0  0  0  0  0  0  0  0  0  0
  130.4040  122.1680   63.6460 C   0  0  0  0  0  0  0  0  0  0  0  0
  130.3520  121.2070   62.7580 N   0  0  0  0  0  0  0  0  0  0  0  0
  131.6120  121.0770   62.3550 C   0  0  0  0  0  0  0  0  0  0  0  0
  132.0240  120.0800   61.3100 C   0  0  0  0  0  0  0  0  0  0  0  0
  131.2760  118.9160   61.0710 C   0  0  0  0  0  0  0  0  0  0  0  0
  131.6850  118.0050   60.0950 C   0  0  0  0  0  0  0  0  0  0  0  0
  132.8440  118.2820   59.3720 C   0  0  0  0  0  0  0  0  0  0  0  0
  133.5910  119.3970   59.5770 N   0  0  0  0  0  0  0  0  0  0  0  0
  133.1750  120.2700   60.5300 C   0  0  0  0  0  0  0  0  0  0  0  0
  132.4780  121.8890   62.9340 N   0  0  0  0  0  0  0  0  0  0  0  0
  131.7030  122.5910   63.7670 N   0  0  0  0  0  0  0  0  0  0  0  0
  132.2750  123.6450   64.6040 C   0  0  0  0  0  0  0  0  0  0  0  0
  132.5430  124.9760   63.8810 C   0  0  0  0  0  0  0  0  0  0  0  0
  133.6880  125.2920   63.5390 O   0  0  0  0  0  0  0  0  0  0  0  0
  131.4510  125.7360   63.6690 N   0  0  0  0  0  0  0  0  0  0  0  0
  131.5910  126.8800   62.8940 N   0  0  0  0  0  0  0  0  0  0  0  0
  130.4850  127.3780   62.3000 C   0  0  0  0  0  0  0  0  0  0  0  0
  129.3440  126.9430   62.4860 O   0  0  0  0  0  0  0  0  0  0  0  0
  130.7120  128.5610   61.3800 C   0  0  0  0  0  0  0  0  0  0  0  0
  130.5940  128.4010   59.9950 C   0  0  0  0  0  0  0  0  0  0  0  0
  130.8090  129.4700   59.1320 C   0  0  0  0  0  0  0  0  0  0  0  0
  131.1570  130.7360   59.6290 C   0  0  0  0  0  0  0  0  0  0  0  0
  131.3980  131.8360   58.8250 O   0  0  0  0  0  0  0  0  0  0  0  0
  132.7040  132.0490   58.3020 C   0  0  0  0  0  0  0  0  0  0  0  0
  131.2870  130.9150   61.0130 C   0  0  0  0  0  0  0  0  0  0  0  0
  131.6520  132.1770   61.4510 O   0  0  0  0  0  0  0  0  0  0  0  0
  132.8830  132.3530   62.1440 C   0  0  0  0  0  0  0  0  0  0  0  0
  131.0600  129.8280   61.8760 C   0  0  0  0  0  0  0  0  0  0  0  0
  130.0400  125.0660   59.3900 C   0  0  0  0  0  0  0  0  0  0  0  0
  130.9830  125.3120   58.3960 C   0  0  0  0  0  0  0  0  0  0  0  0
  132.5560  127.2009   57.1739 H   0  0  0  0  0  0  0  0  0  0  0  0
  133.7218  126.5194   55.9895 H   0  0  0  0  0  0  0  0  0  0  0  0
  132.0134  125.9643   55.9895 H   0  0  0  0  0  0  0  0  0  0  0  0
  133.7814  124.1725   59.9825 H   0  0  0  0  0  0  0  0  0  0  0  0
  132.1024  123.7292   61.7625 H   0  0  0  0  0  0  0  0  0  0  0  0
  129.6190  124.7810   62.4590 H   0  0  0  0  0  0  0  0  0  0  0  0
  127.3634  124.0044   63.2472 H   0  0  0  0  0  0  0  0  0  0  0  0
  127.2743  122.1811   63.0026 H   0  0  0  0  0  0  0  0  0  0  0  0
  130.3643  118.7210   61.6548 H   0  0  0  0  0  0  0  0  0  0  0  0
  131.1060  117.0900   59.9012 H   0  0  0  0  0  0  0  0  0  0  0  0
  133.1675  117.5662   58.6019 H   0  0  0  0  0  0  0  0  0  0  0  0
  133.7737  121.1770   60.7002 H   0  0  0  0  0  0  0  0  0  0  0  0
  131.5767  123.8406   65.4311 H   0  0  0  0  0  0  0  0  0  0  0  0
  133.2551  123.2740   64.9382 H   0  0  0  0  0  0  0  0  0  0  0  0
  130.4970  125.4130   63.7480 H   0  0  0  0  0  0  0  0  0  0  0  0
  132.4900  126.9070   62.4350 H   0  0  0  0  0  0  0  0  0  0  0  0
  130.3276  127.4164   59.5833 H   0  0  0  0  0  0  0  0  0  0  0  0
  130.7052  129.3219   58.0470 H   0  0  0  0  0  0  0  0  0  0  0  0
  133.4168  132.1652   59.1317 H   0  0  0  0  0  0  0  0  0  0  0  0
  132.9970  131.1868   57.6850 H   0  0  0  0  0  0  0  0  0  0  0  0
  132.7079  132.9596   57.6850 H   0  0  0  0  0  0  0  0  0  0  0  0
  132.7003  132.3269   63.2284 H   0  0  0  0  0  0  0  0  0  0  0  0
  133.5771  131.5450   61.8695 H   0  0  0  0  0  0  0  0  0  0  0  0
  133.3228  133.3232   61.8695 H   0  0  0  0  0  0  0  0  0  0  0  0
  131.1570  129.9732   62.9621 H   0  0  0  0  0  0  0  0  0  0  0  0
  128.9825  125.3170   59.2205 H   0  0  0  0  0  0  0  0  0  0  0  0
  130.6650  125.7639   57.4449 H   0  0  0  0  0  0  0  0  0  0  0  0
  1  2  1  0
  2  3  1  0
  3  4  2  0
  4  5  1  0
  5  6  2  0
  6  7  1  0
  7  8  1  0
  8  9  2  0
  8 10  1  0
 10 11  1  0
 11 12  1  0
 12 13  2  0
 13 14  1  0
 14 15  1  0
 15 16  2  0
 16 17  1  0
 17 18  2  0
 18 19  1  0
 19 20  2  0
 14 21  2  0
 21 22  1  0
 22 23  1  0
 23 24  1  0
 24 25  2  0
 24 26  1  0
 26 27  1  0
 27 28  1  0
 28 29  2  0
 28 30  1  0
 30 31  2  0
 31 32  1  0
 32 33  2  0
 33 34  1  0
 34 35  1  0
 33 36  1  0
 36 37  1  0
 37 38  1  0
 36 39  2  0
  6 40  1  0
 40 41  2  0
 41  3  1  0
 22 12  1  0
 39 30  1  0
 20 15  1  0
  1 42  1  0
  1 43  1  0
  1 44  1  0
  4 45  1  0
  5 46  1  0
  7 47  1  0
 10 48  1  0
 10 49  1  0
 16 50  1  0
 17 51  1  0
 18 52  1  0
 20 53  1  0
 23 54  1  0
 23 55  1  0
 26 56  1  0
 27 57  1  0
 31 58  1  0
 32 59  1  0
 35 60  1  0
 35 61  1  0
 35 62  1  0
 38 63  1  0
 38 64  1  0
 38 65  1  0
 39 66  1  0
 40 67  1  0
 41 68  1  0
M  END
>  <Binding energies>  (1) 
[-7.76]

>  <Ligand effiencies>  (1) 
[-0.17636363636363636]

>  <Interactions>  (1) 
["V-A:PRO:540:CA:4882, V-B:TYR:539:CD2:9845, V-A:PRO:540:CB:4884, V-B:TYR:539:CZ:9848, V-A:PRO:540:C:4880, V-A:GLU:543:CD:4907, V-B:TYR:539:CE2:9847, V-A:ASN:362:CB:3175, V-B:GLU:543:CD:9879, V-A:ASP:366:CG:3212, V-A:ASP:366:CA:3209, V-A:ASP:366:CB:3211, V-A:TYR:531:CZ:4793, H-A:ALA:541:N:4890, V-A:ILE:369:CG2:3236, V-A:ARG:545:CZ:4925, V-A:SER:385:CA:3406, H-A:ARG:545:NH1:4926, H-A:GLY:454:N:4049, V-B:ALA:541:CB:9863, H-A:ARG:545:NH2:4927, V-A:LEU:475:CD2:4258, V-B:ALA:541:CA:9861, H-B:TYR:539:OH:9849, V-B:TYR:539:CB:9842, V-A:ASP:366:C:3207, V-A:ASN:370:CB:3244, V-A:TYR:531:CE1:4791, H-B:ALA:541:N:9862, V-A:LEU:373:CD2:3280, H-A:ASP:366:OD1:3213, H-A:ASP:366:OD2:3214, V-A:GLY:454:CA:4048, V-A:LEU:373:CG:3278, H-B:GLU:543:OE2:9881, V-A:LEU:363:CD1:3188"]

$$$$
RR20_Rahimova_2017
     RDKit          3D

 68 73  0  0  0  0  0  0  0  0999 V2000
  131.3320  123.9410   75.7100 C   0  0  0  0  0  0  0  0  0  0  0  0
  130.4820  124.6370   74.6630 C   0  0  0  0  0  0  0  0  0  0  0  0
  130.3040  126.0200   74.7200 C   0  0  0  0  0  0  0  0  0  0  0  0
  129.5320  126.6620   73.7560 C   0  0  0  0  0  0  0  0  0  0  0  0
  128.9190  125.9250   72.7350 C   0  0  0  0  0  0  0  0  0  0  0  0
  128.1010  126.6450   71.6850 C   0  0  0  0  0  0  0  0  0  0  0  0
  126.8740  126.5470   71.7520 O   0  0  0  0  0  0  0  0  0  0  0  0
  128.7390  127.3760   70.7250 N   0  0  0  0  0  0  0  0  0  0  0  0
  129.2190  128.7420   70.9870 C   0  0  0  0  0  0  0  0  0  0  0  0
  130.0000  129.1660   69.7540 C   0  0  0  0  0  0  0  0  0  0  0  0
  130.2240  127.8690   69.0390 C   0  0  0  0  0  0  0  0  0  0  0  0
  130.9600  127.6190   67.8810 C   0  0  0  0  0  0  0  0  0  0  0  0
  130.9190  126.3610   67.2660 C   0  0  0  0  0  0  0  0  0  0  0  0
  131.7200  126.0890   66.0230 C   0  0  0  0  0  0  0  0  0  0  0  0
  131.0870  126.0600   64.8610 N   0  0  0  0  0  0  0  0  0  0  0  0
  131.8830  125.8350   63.8470 C   0  0  0  0  0  0  0  0  0  0  0  0
  131.5510  125.7470   62.5040 N   0  0  0  0  0  0  0  0  0  0  0  0
  130.5150  125.0610   61.9640 C   0  0  0  0  0  0  0  0  0  0  0  0
  129.6930  124.4220   62.6230 O   0  0  0  0  0  0  0  0  0  0  0  0
  130.3370  125.1040   60.4270 C   0  0  0  0  0  0  0  0  0  0  0  0
  129.0120  124.6270   59.9870 N   0  0  0  0  0  0  0  0  0  0  0  0
  127.9710  125.6560   60.1230 C   0  0  0  0  0  0  0  0  0  0  0  0
  126.5740  125.0320   59.9070 C   0  0  0  0  0  0  0  0  0  0  0  0
  126.5120  124.1120   58.6880 C   0  0  0  0  0  0  0  0  0  0  0  0
  125.2860  123.6730   58.1770 C   0  0  0  0  0  0  0  0  0  0  0  0
  125.2310  122.8040   57.0900 C   0  0  0  0  0  0  0  0  0  0  0  0
  126.4100  122.3650   56.4960 C   0  0  0  0  0  0  0  0  0  0  0  0
  127.6380  122.8020   56.9880 C   0  0  0  0  0  0  0  0  0  0  0  0
  127.7070  123.6730   58.0810 C   0  0  0  0  0  0  0  0  0  0  0  0
  129.0520  124.1980   58.5840 C   0  0  0  0  0  0  0  0  0  0  0  0
  133.5360  125.6240   64.2740 S   0  0  0  0  0  0  0  0  0  0  0  0
  133.1090  125.8500   65.9530 C   0  0  0  0  0  0  0  0  0  0  0  0
  134.1640  125.7460   67.0330 C   0  0  0  0  0  0  0  0  0  0  0  0
  130.0780  125.3780   67.8090 C   0  0  0  0  0  0  0  0  0  0  0  0
  129.3260  125.6310   68.9560 C   0  0  0  0  0  0  0  0  0  0  0  0
  129.4410  126.8650   69.6100 C   0  0  0  0  0  0  0  0  0  0  0  0
  129.1260  124.5420   72.6670 C   0  0  0  0  0  0  0  0  0  0  0  0
  129.9000  123.8990   73.6310 C   0  0  0  0  0  0  0  0  0  0  0  0
  130.9838  124.2261   76.7137 H   0  0  0  0  0  0  0  0  0  0  0  0
  131.2452  122.8513   75.5876 H   0  0  0  0  0  0  0  0  0  0  0  0
  132.3832  124.2411   75.5876 H   0  0  0  0  0  0  0  0  0  0  0  0
  130.7736  126.6025   75.5264 H   0  0  0  0  0  0  0  0  0  0  0  0
  129.4027  127.7536   73.7963 H   0  0  0  0  0  0  0  0  0  0  0  0
  128.3680  129.4196   71.1500 H   0  0  0  0  0  0  0  0  0  0  0  0
  129.8475  128.7778   71.8891 H   0  0  0  0  0  0  0  0  0  0  0  0
  129.4157  129.8633   69.1356 H   0  0  0  0  0  0  0  0  0  0  0  0
  130.9328  129.6983   69.9918 H   0  0  0  0  0  0  0  0  0  0  0  0
  131.5789  128.4177   67.4462 H   0  0  0  0  0  0  0  0  0  0  0  0
  132.1560  126.2440   61.8640 H   0  0  0  0  0  0  0  0  0  0  0  0
  130.4661  126.1425   60.0880 H   0  0  0  0  0  0  0  0  0  0  0  0
  131.0906  124.4327   59.9894 H   0  0  0  0  0  0  0  0  0  0  0  0
  128.0218  126.0936   61.1309 H   0  0  0  0  0  0  0  0  0  0  0  0
  128.1367  126.4370   59.3663 H   0  0  0  0  0  0  0  0  0  0  0  0
  126.3092  124.4479   60.8007 H   0  0  0  0  0  0  0  0  0  0  0  0
  125.8687  125.8577   59.7318 H   0  0  0  0  0  0  0  0  0  0  0  0
  124.3508  124.0196   58.6410 H   0  0  0  0  0  0  0  0  0  0  0  0
  124.2586  122.4659   56.7024 H   0  0  0  0  0  0  0  0  0  0  0  0
  126.3727  121.6748   55.6403 H   0  0  0  0  0  0  0  0  0  0  0  0
  128.5669  122.4573   56.5102 H   0  0  0  0  0  0  0  0  0  0  0  0
  129.8003  123.3981   58.4833 H   0  0  0  0  0  0  0  0  0  0  0  0
  129.3086  125.0793   57.9778 H   0  0  0  0  0  0  0  0  0  0  0  0
  133.6831  125.7934   68.0212 H   0  0  0  0  0  0  0  0  0  0  0  0
  134.6998  124.7907   66.9314 H   0  0  0  0  0  0  0  0  0  0  0  0
  134.8760  126.5783   66.9314 H   0  0  0  0  0  0  0  0  0  0  0  0
  130.0108  124.3935   67.3230 H   0  0  0  0  0  0  0  0  0  0  0  0
  128.6431  124.8624   69.3470 H   0  0  0  0  0  0  0  0  0  0  0  0
  128.6757  123.9605   71.8491 H   0  0  0  0  0  0  0  0  0  0  0  0
  130.0522  122.8108   73.5787 H   0  0  0  0  0  0  0  0  0  0  0  0
  1  2  1  0
  2  3  2  0
  3  4  1  0
  4  5  2  0
  5  6  1  0
  6  7  2  0
  6  8  1  0
  8  9  1  0
  9 10  1  0
 10 11  1  0
 11 12  2  0
 12 13  1  0
 13 14  1  0
 14 15  1  0
 15 16  2  0
 16 17  1  0
 17 18  1  0
 18 19  2  0
 18 20  1  0
 20 21  1  0
 21 22  1  0
 22 23  1  0
 23 24  1  0
 24 25  2  0
 25 26  1  0
 26 27  2  0
 27 28  1  0
 28 29  2  0
 29 30  1  0
 16 31  1  0
 31 32  1  0
 32 33  1  0
 13 34  2  0
 34 35  1  0
 35 36  2  0
  5 37  1  0
 37 38  2  0
 38  2  1  0
 36  8  1  0
 36 11  1  0
 32 14  2  0
 30 21  1  0
 29 24  1  0
  1 39  1  0
  1 40  1  0
  1 41  1  0
  3 42  1  0
  4 43  1  0
  9 44  1  0
  9 45  1  0
 10 46  1  0
 10 47  1  0
 12 48  1  0
 17 49  1  0
 20 50  1  0
 20 51  1  0
 22 52  1  0
 22 53  1  0
 23 54  1  0
 23 55  1  0
 25 56  1  0
 26 57  1  0
 27 58  1  0
 28 59  1  0
 30 60  1  0
 30 61  1  0
 33 62  1  0
 33 63  1  0
 33 64  1  0
 34 65  1  0
 35 66  1  0
 37 67  1  0
 38 68  1  0
M  END
>  <Binding energies>  (1) 
[-9.82]

>  <Ligand effiencies>  (1) 
[-0.2517948717948718]

>  <Interactions>  (1) 
["V-B:PRO:540:CD:9858, V-B:GLU:543:CB:9877, V-B:PRO:540:N:9855, V-A:GLU:543:CB:4905, V-B:LEU:363:CD1:8159, V-B:MET:535:CE:9806, V-B:TYR:539:CD2:9845, V-B:TYR:539:CZ:9848, V-B:HIS:456:CE1:9040, V-A:HIS:456:CE1:4069, V-B:TYR:539:C:9838, V-B:TYR:539:CE1:9846, V-B:TYR:539:CD1:9844, V-A:GLU:543:CD:4907, V-B:PRO:540:CB:9856, V-B:TYR:539:CE2:9847, V-B:GLU:543:CD:9879, V-B:TYR:539:CG:9843, V-A:ASP:366:CG:3212, V-B:GLU:543:C:9873, V-A:HIS:456:CD2:4067, V-A:TYR:484:CZ:4346, V-A:ARG:545:CZ:4925, V-A:ARG:545:CD:4922, V-A:TYR:484:CE2:4345, V-A:ARG:545:CG:4921, V-B:PRO:540:CA:9854, H-A:ASP:366:OD1:3213, H-A:ASP:366:OD2:3214, V-A:GLU:543:C:4901, V-A:GLU:543:CA:4903"]

$$$$
RR20_Rahimova_2017-again1
     RDKit          3D

 68 73  0  0  0  0  0  0  0  0999 V2000
  131.0280  121.6890   74.2800 C   0  0  0  0  0  0  0  0  0  0  0  0
  130.3740  123.0500   74.1270 C   0  0  0  0  0  0  0  0  0  0  0  0
  131.0910  124.2070   74.4360 C   0  0  0  0  0  0  0  0  0  0  0  0
  130.4950  125.4560   74.2890 C   0  0  0  0  0  0  0  0  0  0  0  0
  129.1720  125.5590   73.8420 C   0  0  0  0  0  0  0  0  0  0  0  0
  128.5460  126.9260   73.6720 C   0  0  0  0  0  0  0  0  0  0  0  0
  127.7290  127.2910   74.5190 O   0  0  0  0  0  0  0  0  0  0  0  0
  128.9250  127.7050   72.6160 N   0  0  0  0  0  0  0  0  0  0  0  0
  129.6000  128.9970   72.8190 C   0  0  0  0  0  0  0  0  0  0  0  0
  129.9960  129.4950   71.4390 C   0  0  0  0  0  0  0  0  0  0  0  0
  129.8490  128.2690   70.5890 C   0  0  0  0  0  0  0  0  0  0  0  0
  130.1530  128.0950   69.2380 C   0  0  0  0  0  0  0  0  0  0  0  0
  129.7880  126.9170   68.5690 C   0  0  0  0  0  0  0  0  0  0  0  0
  130.1090  126.7320   67.1140 C   0  0  0  0  0  0  0  0  0  0  0  0
  130.7210  125.6170   66.7440 N   0  0  0  0  0  0  0  0  0  0  0  0
  130.9700  125.5440   65.4600 C   0  0  0  0  0  0  0  0  0  0  0  0
  131.6200  124.5600   64.7620 N   0  0  0  0  0  0  0  0  0  0  0  0
  132.8740  124.5720   64.4590 C   0  0  0  0  0  0  0  0  0  0  0  0
  133.7880  125.3660   64.7550 O   0  0  0  0  0  0  0  0  0  0  0  0
  133.3180  123.3810   63.5850 C   0  0  0  0  0  0  0  0  0  0  0  0
  132.8420  123.5940   62.1180 N   0  0  2  0  0  0  0  0  0  0  0  0
  131.3050  123.5710   61.9860 C   0  0  0  0  0  0  0  0  0  0  0  0
  130.7690  122.1690   62.3280 C   0  0  0  0  0  0  0  0  0  0  0  0
  131.5100  121.0480   61.6050 C   0  0  0  0  0  0  0  0  0  0  0  0
  130.9090  119.7910   61.4720 C   0  0  0  0  0  0  0  0  0  0  0  0
  131.5750  118.7320   60.8600 C   0  0  0  0  0  0  0  0  0  0  0  0
  132.8600  118.9200   60.3690 C   0  0  0  0  0  0  0  0  0  0  0  0
  133.4670  120.1680   60.4830 C   0  0  0  0  0  0  0  0  0  0  0  0
  132.8110  121.2470   61.0870 C   0  0  0  0  0  0  0  0  0  0  0  0
  133.5150  122.6090   61.1320 C   0  0  0  0  0  0  0  0  0  0  0  0
  130.4560  126.9390   64.5870 S   0  0  0  0  0  0  0  0  0  0  0  0
  129.8290  127.6290   66.0640 C   0  0  0  0  0  0  0  0  0  0  0  0
  129.1120  128.9630   66.0460 C   0  0  0  0  0  0  0  0  0  0  0  0
  129.0730  125.9420   69.2770 C   0  0  0  0  0  0  0  0  0  0  0  0
  128.7520  126.1210   70.6230 C   0  0  0  0  0  0  0  0  0  0  0  0
  129.1890  127.2660   71.3000 C   0  0  0  0  0  0  0  0  0  0  0  0
  128.4690  124.3960   73.5050 C   0  0  0  0  0  0  0  0  0  0  0  0
  129.0650  123.1470   73.6520 C   0  0  0  0  0  0  0  0  0  0  0  0
  131.1407  121.4544   75.3488 H   0  0  0  0  0  0  0  0  0  0  0  0
  130.3991  120.9241   73.8011 H   0  0  0  0  0  0  0  0  0  0  0  0
  132.0182  121.7021   73.8011 H   0  0  0  0  0  0  0  0  0  0  0  0
  132.1277  124.1316   74.7959 H   0  0  0  0  0  0  0  0  0  0  0  0
  131.0657  126.3663   74.5250 H   0  0  0  0  0  0  0  0  0  0  0  0
  128.9164  129.7121   73.2999 H   0  0  0  0  0  0  0  0  0  0  0  0
  130.4788  128.8898   73.4719 H   0  0  0  0  0  0  0  0  0  0  0  0
  129.3234  130.2961   71.0987 H   0  0  0  0  0  0  0  0  0  0  0  0
  131.0060  129.9294   71.4059 H   0  0  0  0  0  0  0  0  0  0  0  0
  130.6839  128.8891   68.6925 H   0  0  0  0  0  0  0  0  0  0  0  0
  134.4151  123.3030   63.6048 H   0  0  0  0  0  0  0  0  0  0  0  0
  132.8723  122.4560   63.9797 H   0  0  0  0  0  0  0  0  0  0  0  0
  133.1370  124.5270   61.8630 H   0  0  0  0  0  0  0  0  0  0  0  0
  130.8688  124.3067   62.6777 H   0  0  0  0  0  0  0  0  0  0  0  0
  131.0273  123.8217   60.9516 H   0  0  0  0  0  0  0  0  0  0  0  0
  130.8691  122.0116   63.4121 H   0  0  0  0  0  0  0  0  0  0  0  0
  129.7199  122.1316   61.9995 H   0  0  0  0  0  0  0  0  0  0  0  0
  129.8908  119.6365   61.8584 H   0  0  0  0  0  0  0  0  0  0  0  0
  131.0854  117.7515   60.7661 H   0  0  0  0  0  0  0  0  0  0  0  0
  133.3964  118.0865   59.8919 H   0  0  0  0  0  0  0  0  0  0  0  0
  134.4846  120.3091   60.0897 H   0  0  0  0  0  0  0  0  0  0  0  0
  134.5587  122.4561   61.4440 H   0  0  0  0  0  0  0  0  0  0  0  0
  133.4530  123.0497   60.1261 H   0  0  0  0  0  0  0  0  0  0  0  0
  128.9326  129.2968   67.0787 H   0  0  0  0  0  0  0  0  0  0  0  0
  129.7325  129.7057   65.5231 H   0  0  0  0  0  0  0  0  0  0  0  0
  128.1502  128.8553   65.5231 H   0  0  0  0  0  0  0  0  0  0  0  0
  128.7598  125.0209   68.7636 H   0  0  0  0  0  0  0  0  0  0  0  0
  128.1559  125.3629   71.1520 H   0  0  0  0  0  0  0  0  0  0  0  0
  127.4404  124.4699   73.1221 H   0  0  0  0  0  0  0  0  0  0  0  0
  128.5046  122.2363   73.3939 H   0  0  0  0  0  0  0  0  0  0  0  0
  1  2  1  0
  2  3  2  0
  3  4  1  0
  4  5  2  0
  5  6  1  0
  6  7  2  0
  6  8  1  0
  8  9  1  0
  9 10  1  0
 10 11  1  0
 11 12  2  0
 12 13  1  0
 13 14  1  0
 14 15  1  0
 15 16  2  0
 16 17  1  0
 17 18  2  0
 18 19  1  0
 18 20  1  0
 20 21  1  0
 21 22  1  0
 22 23  1  0
 23 24  1  0
 24 25  2  0
 25 26  1  0
 26 27  2  0
 27 28  1  0
 28 29  2  0
 29 30  1  0
 16 31  1  0
 31 32  1  0
 32 33  1  0
 13 34  2  0
 34 35  1  0
 35 36  2  0
  5 37  1  0
 37 38  2  0
 38  2  1  0
 36  8  1  0
 36 11  1  0
 32 14  2  0
 30 21  1  0
 29 24  1  0
  1 39  1  0
  1 40  1  0
  1 41  1  0
  3 42  1  0
  4 43  1  0
  9 44  1  0
  9 45  1  0
 10 46  1  0
 10 47  1  0
 12 48  1  0
 20 49  1  0
 20 50  1  0
 21 51  1  6
 22 52  1  0
 22 53  1  0
 23 54  1  0
 23 55  1  0
 25 56  1  0
 26 57  1  0
 27 58  1  0
 28 59  1  0
 30 60  1  0
 30 61  1  0
 33 62  1  0
 33 63  1  0
 33 64  1  0
 34 65  1  0
 35 66  1  0
 37 67  1  0
 38 68  1  0
M  CHG  2  19  -1  21   1
M  END
>  <Binding energies>  (1) 
[-9.32]

>  <Ligand effiencies>  (1) 
[-0.23897435897435898]

>  <Interactions>  (1) 
["V-B:GLU:543:CB:9877, V-A:GLU:543:CB:4905, V-B:TYR:539:CD2:9845, V-B:HIS:456:CE1:9040, V-A:HIS:456:CE1:4069, V-A:GLU:543:CD:4907, V-A:GLU:543:CG:4906, V-B:TYR:539:CE2:9847, V-B:GLU:543:CD:9879, V-B:LYS:547:CE:9921, V-B:GLU:543:C:9873, V-B:HIS:456:CD2:9038, V-A:HIS:456:CD2:4067, H-B:LYS:547:NZ:9922, V-A:ILE:369:CG2:3236, V-A:SER:385:CA:3406, H-A:ARG:545:NH1:4926, V-A:SER:385:CB:3408, V-A:TYR:484:CE2:4345, H-A:GLY:454:N:4049, V-B:ALA:541:CB:9863, H-A:ARG:545:NH2:4927, V-A:ILE:369:CD1:3238, V-A:LEU:475:CD2:4258, H-A:TYR:484:OH:4347, H-A:ASP:366:OD1:3213, H-A:ASP:366:OD2:3214, V-A:GLY:454:CA:4048, V-A:GLU:543:C:4901, V-A:HIS:456:CG:4065, V-A:HIS:456:CB:4064, V-A:ASP:473:CG:4239, V-A:TYR:484:CB:4340, V-A:ASP:473:CB:4238, V-A:TYR:484:CG:4341"]

$$$$
RR21_Rahimova_2017
     RDKit          3D

 62 67  0  0  0  0  0  0  0  0999 V2000
  124.2790  132.1620   63.3280 C   0  0  0  0  0  0  0  0  0  0  0  0
  125.2670  132.6830   64.2120 O   0  0  0  0  0  0  0  0  0  0  0  0
  126.0080  131.8090   64.9870 C   0  0  0  0  0  0  0  0  0  0  0  0
  125.6460  130.4750   65.2380 C   0  0  0  0  0  0  0  0  0  0  0  0
  126.4520  129.6580   66.0290 C   0  0  0  0  0  0  0  0  0  0  0  0
  127.6390  130.1490   66.5860 C   0  0  0  0  0  0  0  0  0  0  0  0
  128.5060  129.2670   67.4310 C   0  0  0  0  0  0  0  0  0  0  0  0
  128.5510  129.4500   68.7370 N   0  0  0  0  0  0  0  0  0  0  0  0
  129.3950  128.5290   69.2250 N   0  0  0  0  0  0  0  0  0  0  0  0
  129.6610  128.4300   70.6160 C   0  0  0  0  0  0  0  0  0  0  0  0
  130.7360  129.1240   71.1920 C   0  0  0  0  0  0  0  0  0  0  0  0
  130.9840  129.0240   72.5590 C   0  0  0  0  0  0  0  0  0  0  0  0
  130.1590  128.2300   73.3530 C   0  0  0  0  0  0  0  0  0  0  0  0
  129.0910  127.5340   72.7930 C   0  0  0  0  0  0  0  0  0  0  0  0
  128.8410  127.6330   71.4270 C   0  0  0  0  0  0  0  0  0  0  0  0
  129.8780  127.7420   68.2100 C   0  0  0  0  0  0  0  0  0  0  0  0
  129.3340  128.1990   67.0190 C   0  0  0  0  0  0  0  0  0  0  0  0
  129.5140  127.6540   65.6810 C   0  0  0  0  0  0  0  0  0  0  0  0
  130.4360  126.7580   65.2590 C   0  0  0  0  0  0  0  0  0  0  0  0
  131.7170  125.9780   66.2130 S   0  0  0  0  0  0  0  0  0  0  0  0
  132.2180  125.0850   64.7840 C   0  0  0  0  0  0  0  0  0  0  0  0
  133.1730  124.2130   64.6850 N   0  0  0  0  0  0  0  0  0  0  0  0
  133.4690  123.5490   63.4630 C   0  0  0  0  0  0  0  0  0  0  0  0
  134.3420  122.6980   63.2910 O   0  0  0  0  0  0  0  0  0  0  0  0
  132.5900  123.9660   62.3160 C   0  0  0  0  0  0  0  0  0  0  0  0
  132.8300  123.3310   60.9400 C   0  0  0  0  0  0  0  0  0  0  0  0
  132.5380  121.8330   60.8800 C   0  0  0  0  0  0  0  0  0  0  0  0
  131.2500  121.3590   61.1440 C   0  0  0  0  0  0  0  0  0  0  0  0
  130.9820  119.9950   61.0720 C   0  0  0  0  0  0  0  0  0  0  0  0
  131.9990  119.1000   60.7340 C   0  0  0  0  0  0  0  0  0  0  0  0
  131.6980  117.6150   60.6460 C   0  0  0  0  0  0  0  0  0  0  0  0
  133.2850  119.5730   60.4590 C   0  0  0  0  0  0  0  0  0  0  0  0
  133.5540  120.9370   60.5310 C   0  0  0  0  0  0  0  0  0  0  0  0
  131.6450  124.8420   62.4280 N   0  0  0  0  0  0  0  0  0  0  0  0
  131.4540  125.4100   63.6940 N   0  0  0  0  0  0  0  0  0  0  0  0
  130.4650  126.3190   63.8710 C   0  0  0  0  0  0  0  0  0  0  0  0
  129.6990  126.7100   62.9810 O   0  0  0  0  0  0  0  0  0  0  0  0
  127.9960  131.4790   66.3410 C   0  0  0  0  0  0  0  0  0  0  0  0
  127.1910  132.2990   65.5500 C   0  0  0  0  0  0  0  0  0  0  0  0
  127.5660  133.5810   65.3320 F   0  0  0  0  0  0  0  0  0  0  0  0
  123.4554  131.7277   63.9137 H   0  0  0  0  0  0  0  0  0  0  0  0
  123.8904  132.9724   62.6938 H   0  0  0  0  0  0  0  0  0  0  0  0
  124.7283  131.3835   62.6938 H   0  0  0  0  0  0  0  0  0  0  0  0
  124.7181  130.0716   64.8064 H   0  0  0  0  0  0  0  0  0  0  0  0
  126.1524  128.6165   66.2176 H   0  0  0  0  0  0  0  0  0  0  0  0
  131.3853  129.7493   70.5616 H   0  0  0  0  0  0  0  0  0  0  0  0
  131.8267  129.5690   73.0094 H   0  0  0  0  0  0  0  0  0  0  0  0
  130.3534  128.1523   74.4329 H   0  0  0  0  0  0  0  0  0  0  0  0
  128.4468  126.9079   73.4279 H   0  0  0  0  0  0  0  0  0  0  0  0
  127.9975  127.0842   70.9827 H   0  0  0  0  0  0  0  0  0  0  0  0
  130.5740  126.8975   68.3214 H   0  0  0  0  0  0  0  0  0  0  0  0
  128.8114  128.0166   64.9162 H   0  0  0  0  0  0  0  0  0  0  0  0
  132.1828  123.8378   60.2090 H   0  0  0  0  0  0  0  0  0  0  0  0
  133.9007  123.4525   60.7192 H   0  0  0  0  0  0  0  0  0  0  0  0
  130.4481  122.0639   61.4087 H   0  0  0  0  0  0  0  0  0  0  0  0
  129.9686  119.6220   61.2815 H   0  0  0  0  0  0  0  0  0  0  0  0
  131.6133  117.1973   61.6601 H   0  0  0  0  0  0  0  0  0  0  0  0
  130.7510  117.4641   60.1071 H   0  0  0  0  0  0  0  0  0  0  0  0
  132.5115  117.1073   60.1071 H   0  0  0  0  0  0  0  0  0  0  0  0
  134.0840  118.8681   60.1859 H   0  0  0  0  0  0  0  0  0  0  0  0
  134.5656  121.3103   60.3134 H   0  0  0  0  0  0  0  0  0  0  0  0
  128.9217  131.8828   66.7768 H   0  0  0  0  0  0  0  0  0  0  0  0
  1  2  1  0
  2  3  1  0
  3  4  2  0
  4  5  1  0
  5  6  2  0
  6  7  1  0
  7  8  2  0
  8  9  1  0
  9 10  1  0
 10 11  2  0
 11 12  1  0
 12 13  2  0
 13 14  1  0
 14 15  2  0
  9 16  1  0
 16 17  2  0
 17 18  1  0
 18 19  2  0
 19 20  1  0
 20 21  1  0
 21 22  2  0
 22 23  1  0
 23 24  2  0
 23 25  1  0
 25 26  1  0
 26 27  1  0
 27 28  2  0
 28 29  1  0
 29 30  2  0
 30 31  1  0
 30 32  1  0
 32 33  2  0
 25 34  2  0
 34 35  1  0
 35 36  1  0
 36 37  2  0
  6 38  1  0
 38 39  2  0
 39 40  1  0
 39  3  1  0
 17  7  1  0
 36 19  1  0
 15 10  1  0
 35 21  1  0
 33 27  1  0
  1 41  1  0
  1 42  1  0
  1 43  1  0
  4 44  1  0
  5 45  1  0
 11 46  1  0
 12 47  1  0
 13 48  1  0
 14 49  1  0
 15 50  1  0
 16 51  1  0
 18 52  1  0
 26 53  1  0
 26 54  1  0
 28 55  1  0
 29 56  1  0
 31 57  1  0
 31 58  1  0
 31 59  1  0
 32 60  1  0
 33 61  1  0
 38 62  1  0
M  END
>  <Binding energies>  (1) 
[-9.5]

>  <Ligand effiencies>  (1) 
[-0.2375]

>  <Interactions>  (1) 
["V-A:GLU:543:CB:4905, V-B:TYR:539:CD2:9845, V-B:GLY:454:CA:9019, V-B:HIS:456:CE1:9040, V-A:HIS:456:CE1:4069, V-A:GLU:543:CD:4907, V-A:GLU:543:CG:4906, V-B:LEU:475:CD1:9228, V-B:TYR:539:CE2:9847, V-B:GLU:543:CD:9879, V-A:ALA:541:CB:4891, V-A:ILE:369:CG2:3236, V-A:SER:385:CA:3406, V-A:SER:385:CB:3408, H-A:GLY:454:N:4049, V-A:ILE:369:CD1:3238, V-A:LEU:475:CD2:4258, V-A:HIS:383:CE1:3393, H-A:TYR:484:OH:4347, V-A:GLY:454:CA:4048, V-A:GLU:543:C:4901, V-B:TYR:484:CZ:9317, V-A:GLY:544:C:4911, V-B:TYR:484:CE2:9316, V-A:GLY:544:CA:4913, V-B:LEU:475:CD2:9229, V-B:LEU:475:CG:9227"]

$$$$
RR22_Rahimova_2017
     RDKit          3D

 49 54  0  0  0  0  0  0  0  0999 V2000
  126.0440  123.1590   62.2970 O   0  0  0  0  0  0  0  0  0  0  0  0
  127.1640  123.5770   62.0150 C   0  0  0  0  0  0  0  0  0  0  0  0
  128.2440  123.7390   62.8660 N   0  0  0  0  0  0  0  0  0  0  0  0
  129.5080  124.1830   62.3620 C   0  0  1  0  0  0  0  0  0  0  0  0
  129.8320  125.3430   63.1340 O   0  0  0  0  0  0  0  0  0  0  0  0
  131.0080  125.3320   63.8840 C   0  0  0  0  0  0  0  0  0  0  0  0
  131.1130  126.2930   64.8900 C   0  0  0  0  0  0  0  0  0  0  0  0
  132.2770  126.3710   65.6560 C   0  0  0  0  0  0  0  0  0  0  0  0
  133.3350  125.4960   65.4090 C   0  0  0  0  0  0  0  0  0  0  0  0
  133.2300  124.5350   64.4020 C   0  0  0  0  0  0  0  0  0  0  0  0
  132.0610  124.4290   63.6430 C   0  0  0  0  0  0  0  0  0  0  0  0
  131.8650  123.4540   62.5040 C   0  0  1  0  0  0  0  0  0  0  0  0
  132.5130  122.0840   62.4840 C   0  0  0  0  0  0  0  0  0  0  0  0
  131.4670  121.3110   61.6760 C   0  0  0  0  0  0  0  0  0  0  0  0
  131.7580  120.0210   61.0210 C   0  0  0  0  0  0  0  0  0  0  0  0
  132.9500  119.8370   60.3050 C   0  0  0  0  0  0  0  0  0  0  0  0
  133.2210  118.6170   59.6910 C   0  0  0  0  0  0  0  0  0  0  0  0
  132.3020  117.5750   59.7880 C   0  0  0  0  0  0  0  0  0  0  0  0
  131.1140  117.7420   60.4950 C   0  0  0  0  0  0  0  0  0  0  0  0
  130.8430  118.9600   61.1110 C   0  0  0  0  0  0  0  0  0  0  0  0
  130.3410  121.9200   61.6770 N   0  0  0  0  0  0  0  0  0  0  0  0
  130.4830  123.0850   62.4490 N   0  0  0  0  0  0  0  0  0  0  0  0
  129.2680  124.6490   60.9340 C   0  0  0  0  0  0  0  0  0  0  0  0
  130.1370  125.4390   60.2610 C   0  0  0  0  0  0  0  0  0  0  0  0
  130.0390  125.9440   58.8780 C   0  0  0  0  0  0  0  0  0  0  0  0
  128.8270  126.0370   58.1790 C   0  0  0  0  0  0  0  0  0  0  0  0
  128.8110  126.5240   56.8710 C   0  0  0  0  0  0  0  0  0  0  0  0
  130.0200  126.9040   56.2880 C   0  0  0  0  0  0  0  0  0  0  0  0
  131.2080  126.8170   56.9360 N   0  0  0  0  0  0  0  0  0  0  0  0
  131.2030  126.3410   58.2080 C   0  0  0  0  0  0  0  0  0  0  0  0
  127.6880  124.1010   60.3540 S   0  0  0  0  0  0  0  0  0  0  0  0
  128.1460  123.5900   63.8580 H   0  0  0  0  0  0  0  0  0  0  0  0
  130.2808  126.9871   65.0788 H   0  0  0  0  0  0  0  0  0  0  0  0
  132.3602  127.1227   66.4548 H   0  0  0  0  0  0  0  0  0  0  0  0
  134.2543  125.5635   66.0093 H   0  0  0  0  0  0  0  0  0  0  0  0
  134.0730  123.8565   64.2044 H   0  0  0  0  0  0  0  0  0  0  0  0
  132.3317  124.0448   61.7020 H   0  0  0  0  0  0  0  0  0  0  0  0
  133.4896  122.1010   61.9781 H   0  0  0  0  0  0  0  0  0  0  0  0
  132.7395  121.6626   63.4745 H   0  0  0  0  0  0  0  0  0  0  0  0
  133.6747  120.6610   60.2281 H   0  0  0  0  0  0  0  0  0  0  0  0
  134.1575  118.4767   59.1314 H   0  0  0  0  0  0  0  0  0  0  0  0
  132.5165  116.6118   59.3019 H   0  0  0  0  0  0  0  0  0  0  0  0
  130.3927  116.9145   60.5663 H   0  0  0  0  0  0  0  0  0  0  0  0
  129.9061  119.0923   61.6719 H   0  0  0  0  0  0  0  0  0  0  0  0
  131.0345  125.7448   60.8186 H   0  0  0  0  0  0  0  0  0  0  0  0
  127.8886  125.7261   58.6615 H   0  0  0  0  0  0  0  0  0  0  0  0
  127.8668  126.6063   56.3128 H   0  0  0  0  0  0  0  0  0  0  0  0
  130.0092  127.2909   55.2583 H   0  0  0  0  0  0  0  0  0  0  0  0
  132.1629  126.2633   58.7395 H   0  0  0  0  0  0  0  0  0  0  0  0
  1  2  2  0
  2  3  1  0
  3  4  1  0
  4  5  1  1
  5  6  1  0
  6  7  2  0
  7  8  1  0
  8  9  2  0
  9 10  1  0
 10 11  2  0
 11 12  1  0
 12 13  1  0
 13 14  1  0
 14 15  1  0
 15 16  2  0
 16 17  1  0
 17 18  2  0
 18 19  1  0
 19 20  2  0
 14 21  2  0
 21 22  1  0
  4 23  1  0
 23 24  2  0
 24 25  1  0
 25 26  2  0
 26 27  1  0
 27 28  2  0
 28 29  1  0
 29 30  2  0
 23 31  1  0
 31  2  1  0
 22  4  1  0
 30 25  1  0
 11  6  1  0
 22 12  1  0
 20 15  1  0
  3 32  1  0
  7 33  1  0
  8 34  1  0
  9 35  1  0
 10 36  1  0
 12 37  1  6
 13 38  1  0
 13 39  1  0
 16 40  1  0
 17 41  1  0
 18 42  1  0
 19 43  1  0
 20 44  1  0
 24 45  1  0
 26 46  1  0
 27 47  1  0
 28 48  1  0
 30 49  1  0
M  END
>  <Binding energies>  (1) 
[-9.16]

>  <Ligand effiencies>  (1) 
[-0.28625]

>  <Interactions>  (1) 
["V-B:MET:535:CE:9806, V-B:TYR:539:CD2:9845, H-A:TYR:531:OH:4794, V-A:GLU:543:CD:4907, V-B:TYR:539:CE2:9847, V-B:GLU:543:CD:9879, V-A:VAL:384:C:3396, V-A:ILE:369:CG2:3236, V-A:ARG:545:CZ:4925, V-A:SER:385:CA:3406, V-A:LEU:475:CD2:4258, V-A:HIS:383:CE1:3393, V-B:TYR:539:CB:9842, H-B:ALA:541:N:9862, V-A:LEU:373:CD2:3280, V-A:GLY:454:CA:4048, H-B:GLU:543:OE2:9881, H-B:GLU:543:OE1:9880, V-A:MET:535:CE:4834, H-B:ALA:541:O:9860"]

$$$$
RR23_Rahimova_2017
     RDKit          3D

 65 70  0  0  0  0  0  0  0  0999 V2000
  131.7570  124.6770   75.5720 C   0  0  0  0  0  0  0  0  0  0  0  0
  130.7290  125.1780   74.5740 C   0  0  0  0  0  0  0  0  0  0  0  0
  130.1760  124.3000   73.6410 C   0  0  0  0  0  0  0  0  0  0  0  0
  129.2260  124.7580   72.7320 C   0  0  0  0  0  0  0  0  0  0  0  0
  128.8300  126.1010   72.7420 C   0  0  0  0  0  0  0  0  0  0  0  0
  127.7820  126.5740   71.7600 C   0  0  0  0  0  0  0  0  0  0  0  0
  126.6360  126.1360   71.8920 O   0  0  0  0  0  0  0  0  0  0  0  0
  128.1300  127.4670   70.7860 N   0  0  0  0  0  0  0  0  0  0  0  0
  129.4950  128.0080   70.6900 C   0  0  0  0  0  0  0  0  0  0  0  0
  129.5380  128.8380   69.4170 C   0  0  0  0  0  0  0  0  0  0  0  0
  128.3030  128.3970   68.6910 C   0  0  0  0  0  0  0  0  0  0  0  0
  127.8590  128.7530   67.4170 C   0  0  0  0  0  0  0  0  0  0  0  0
  126.5880  128.3580   66.9730 C   0  0  0  0  0  0  0  0  0  0  0  0
  126.0600  128.7290   65.5780 C   0  0  2  0  0  0  0  0  0  0  0  0
  126.9330  129.6580   64.8930 N   0  0  0  0  0  0  0  0  0  0  0  0
  126.2840  130.4410   64.1280 C   0  0  0  0  0  0  0  0  0  0  0  0
  126.7680  131.4510   63.3560 N   0  0  0  0  0  0  0  0  0  0  0  0
  128.0250  131.9550   63.3210 C   0  0  0  0  0  0  0  0  0  0  0  0
  128.9830  131.5400   63.9770 O   0  0  0  0  0  0  0  0  0  0  0  0
  128.2340  133.1480   62.3730 C   0  0  0  0  0  0  0  0  0  0  0  0
  129.4080  132.8830   61.5120 N   0  0  0  0  0  0  0  0  0  0  0  0
  130.6090  132.6930   62.1830 N   0  0  0  0  0  0  0  0  0  0  0  0
  131.7110  132.4550   61.5450 N   0  0  0  0  0  0  0  0  0  0  0  0
  131.7030  132.3820   60.1500 C   0  0  0  0  0  0  0  0  0  0  0  0
  132.9080  132.1260   59.4920 C   0  0  0  0  0  0  0  0  0  0  0  0
  132.9320  132.0470   58.0980 C   0  0  0  0  0  0  0  0  0  0  0  0
  131.7580  132.2260   57.3640 C   0  0  0  0  0  0  0  0  0  0  0  0
  130.5520  132.4840   58.0200 C   0  0  0  0  0  0  0  0  0  0  0  0
  130.5280  132.5600   59.4170 C   0  0  0  0  0  0  0  0  0  0  0  0
  129.2340  132.8410   60.1460 C   0  0  0  0  0  0  0  0  0  0  0  0
  128.1530  133.0240   59.5790 O   0  0  0  0  0  0  0  0  0  0  0  0
  124.5120  130.2160   64.0530 S   0  0  0  0  0  0  0  0  0  0  0  0
  124.6010  129.2400   65.5650 C   0  0  2  0  0  0  0  0  0  0  0  0
  124.1640  130.1180   66.7560 C   0  0  0  0  0  0  0  0  0  0  0  0
  125.7590  127.6450   67.8460 C   0  0  0  0  0  0  0  0  0  0  0  0
  126.1940  127.3070   69.1280 C   0  0  0  0  0  0  0  0  0  0  0  0
  127.4940  127.6350   69.5350 C   0  0  0  0  0  0  0  0  0  0  0  0
  129.3690  126.9700   73.6990 C   0  0  0  0  0  0  0  0  0  0  0  0
  130.3180  126.5110   74.6080 C   0  0  0  0  0  0  0  0  0  0  0  0
  131.3923  124.8547   76.5945 H   0  0  0  0  0  0  0  0  0  0  0  0
  131.9184  123.5992   75.4224 H   0  0  0  0  0  0  0  0  0  0  0  0
  132.7053  125.2140   75.4224 H   0  0  0  0  0  0  0  0  0  0  0  0
  130.4906  123.2461   73.6237 H   0  0  0  0  0  0  0  0  0  0  0  0
  128.7849  124.0621   72.0032 H   0  0  0  0  0  0  0  0  0  0  0  0
  129.7167  128.6389   71.5634 H   0  0  0  0  0  0  0  0  0  0  0  0
  130.2432  127.2020   70.6665 H   0  0  0  0  0  0  0  0  0  0  0  0
  129.5013  129.9137   69.6440 H   0  0  0  0  0  0  0  0  0  0  0  0
  130.4601  128.6946   68.8346 H   0  0  0  0  0  0  0  0  0  0  0  0
  128.5089  129.3465   66.7572 H   0  0  0  0  0  0  0  0  0  0  0  0
  126.0561  127.7785   65.0243 H   0  0  0  0  0  0  0  0  0  0  0  0
  126.0950  131.9170   62.7660 H   0  0  0  0  0  0  0  0  0  0  0  0
  127.3400  133.2812   61.7460 H   0  0  0  0  0  0  0  0  0  0  0  0
  128.4043  134.0624   62.9603 H   0  0  0  0  0  0  0  0  0  0  0  0
  133.8340  131.9872   60.0692 H   0  0  0  0  0  0  0  0  0  0  0  0
  133.8789  131.8431   57.5766 H   0  0  0  0  0  0  0  0  0  0  0  0
  131.7827  132.1637   56.2660 H   0  0  0  0  0  0  0  0  0  0  0  0
  129.6270  132.6265   57.4420 H   0  0  0  0  0  0  0  0  0  0  0  0
  123.9239  128.3755   65.6301 H   0  0  0  0  0  0  0  0  0  0  0  0
  124.4169  129.6099   67.6983 H   0  0  0  0  0  0  0  0  0  0  0  0
  124.6858  131.0852   66.7094 H   0  0  0  0  0  0  0  0  0  0  0  0
  123.0777  130.2848   66.7094 H   0  0  0  0  0  0  0  0  0  0  0  0
  124.7522  127.3473   67.5177 H   0  0  0  0  0  0  0  0  0  0  0  0
  125.5167  126.7833   69.8187 H   0  0  0  0  0  0  0  0  0  0  0  0
  129.0411  128.0195   73.7324 H   0  0  0  0  0  0  0  0  0  0  0  0
  130.7439  127.1991   75.3531 H   0  0  0  0  0  0  0  0  0  0  0  0
  1  2  1  0
  2  3  2  0
  3  4  1  0
  4  5  2  0
  5  6  1  0
  6  7  2  0
  6  8  1  0
  8  9  1  0
  9 10  1  0
 10 11  1  0
 11 12  2  0
 12 13  1  0
 13 14  1  0
 14 15  1  0
 15 16  2  0
 16 17  1  0
 17 18  1  0
 18 19  2  0
 18 20  1  0
 20 21  1  0
 21 22  1  0
 22 23  2  0
 23 24  1  0
 24 25  2  0
 25 26  1  0
 26 27  2  0
 27 28  1  0
 28 29  2  0
 29 30  1  0
 30 31  2  0
 16 32  1  0
 32 33  1  0
 33 34  1  0
 13 35  2  0
 35 36  1  0
 36 37  2  0
  5 38  1  0
 38 39  2  0
 39  2  1  0
 37  8  1  0
 37 11  1  0
 33 14  1  0
 30 21  1  0
 29 24  1  0
  1 40  1  0
  1 41  1  0
  1 42  1  0
  3 43  1  0
  4 44  1  0
  9 45  1  0
  9 46  1  0
 10 47  1  0
 10 48  1  0
 12 49  1  0
 14 50  1  6
 17 51  1  0
 20 52  1  0
 20 53  1  0
 25 54  1  0
 26 55  1  0
 27 56  1  0
 28 57  1  0
 33 58  1  6
 34 59  1  0
 34 60  1  0
 34 61  1  0
 35 62  1  0
 36 63  1  0
 38 64  1  0
 39 65  1  0
M  END
>  <Binding energies>  (1) 
[-10.51]

>  <Ligand effiencies>  (1) 
[-0.26275]

>  <Interactions>  (1) 
["V-B:GLU:543:CB:9877, V-A:GLU:543:CB:4905, H-B:GLY:454:N:9020, V-A:PRO:540:CA:4882, V-B:GLY:454:CA:9019, V-A:PRO:540:CB:4884, V-B:HIS:456:CE1:9040, V-A:HIS:456:CE1:4069, V-A:PRO:540:C:4880, V-B:GLU:543:CD:9879, V-A:TYR:531:CZ:4793, V-A:ALA:541:CB:4891, H-A:ALA:541:N:4890, V-B:GLU:543:CG:9878, V-B:ARG:545:CZ:9897, V-A:HIS:456:CD2:4067, V-B:ARG:545:CG:9893, V-B:ARG:545:CD:9894, V-A:TYR:539:C:4866, V-A:TYR:531:CE2:4792, V-A:HIS:456:CG:4065, V-A:PRO:540:N:4883, V-A:HIS:456:CB:4064, V-B:TYR:484:CZ:9317, V-A:LEU:363:CD1:3188, H-B:ARG:545:N:9891, V-A:LEU:363:CA:3184"]

$$$$
RR24_Rahimova_2017
     RDKit          3D

 65 71  0  0  0  0  0  0  0  0999 V2000
  123.6450  124.4890   58.4660 C   0  0  0  0  0  0  0  0  0  0  0  0
  124.8620  123.8800   59.1770 C   0  0  2  0  0  0  0  0  0  0  0  0
  124.7230  123.8620   60.7280 C   0  0  0  0  0  0  0  0  0  0  0  0
  123.8270  123.2320   61.2980 O   0  0  0  0  0  0  0  0  0  0  0  0
  125.6680  124.6290   61.3460 O   0  0  0  0  0  0  0  0  0  0  0  0
  126.8090  124.0360   61.8380 C   0  0  0  0  0  0  0  0  0  0  0  0
  128.0120  124.1890   61.1460 C   0  0  0  0  0  0  0  0  0  0  0  0
  129.1740  123.6020   61.6390 C   0  0  0  0  0  0  0  0  0  0  0  0
  129.1400  122.8670   62.8270 C   0  0  0  0  0  0  0  0  0  0  0  0
  130.4200  122.2060   63.3550 C   0  0  1  0  0  0  0  0  0  0  0  0
  130.9970  121.1820   62.3500 C   0  0  0  0  0  0  0  0  0  0  0  0
  132.2840  121.1950   61.9560 C   0  0  0  0  0  0  0  0  0  0  0  0
  133.1820  122.1240   62.4180 N   0  0  0  0  0  0  0  0  0  0  0  0
  132.8060  123.0970   63.3140 C   0  0  0  0  0  0  0  0  0  0  0  0
  133.8140  123.9320   63.6780 N   0  0  0  0  0  0  0  0  0  0  0  0
  133.6130  125.0020   64.4940 C   0  0  0  0  0  0  0  0  0  0  0  0
  134.4630  125.8940   64.5370 O   0  0  0  0  0  0  0  0  0  0  0  0
  132.3570  125.0400   65.0780 N   0  0  0  0  0  0  0  0  0  0  0  0
  132.1170  126.1320   66.0440 C   0  0  0  0  0  0  0  0  0  0  0  0
  131.2630  124.2450   64.7810 C   0  0  0  0  0  0  0  0  0  0  0  0
  130.1520  124.3700   65.3070 O   0  0  0  0  0  0  0  0  0  0  0  0
  131.5370  123.2020   63.7870 C   0  0  0  0  0  0  0  0  0  0  0  0
  132.5460  120.1220   61.0100 C   0  0  0  0  0  0  0  0  0  0  0  0
  133.6900  119.7200   60.3210 C   0  0  0  0  0  0  0  0  0  0  0  0
  133.6170  118.6210   59.4610 C   0  0  0  0  0  0  0  0  0  0  0  0
  132.4110  117.9340   59.2980 C   0  0  0  0  0  0  0  0  0  0  0  0
  131.2680  118.3410   59.9910 C   0  0  0  0  0  0  0  0  0  0  0  0
  131.3460  119.4410   60.8470 C   0  0  0  0  0  0  0  0  0  0  0  0
  130.3120  120.0750   61.6920 C   0  0  0  0  0  0  0  0  0  0  0  0
  129.1280  119.7780   61.8420 O   0  0  0  0  0  0  0  0  0  0  0  0
  127.9370  122.7310   63.5280 C   0  0  0  0  0  0  0  0  0  0  0  0
  126.7750  123.3200   63.0370 C   0  0  0  0  0  0  0  0  0  0  0  0
  126.1430  124.5030   58.7290 N   0  0  0  0  0  0  0  0  0  0  0  0
  127.1640  123.7530   58.2290 C   0  0  0  0  0  0  0  0  0  0  0  0
  127.1930  122.5290   58.0880 O   0  0  0  0  0  0  0  0  0  0  0  0
  128.2370  124.7210   57.8910 C   0  0  0  0  0  0  0  0  0  0  0  0
  129.5090  124.5230   57.3510 C   0  0  0  0  0  0  0  0  0  0  0  0
  130.3230  125.6400   57.1310 C   0  0  0  0  0  0  0  0  0  0  0  0
  129.8620  126.9240   57.4490 C   0  0  0  0  0  0  0  0  0  0  0  0
  128.5840  127.1010   57.9900 C   0  0  0  0  0  0  0  0  0  0  0  0
  127.7870  125.9750   58.2030 C   0  0  0  0  0  0  0  0  0  0  0  0
  126.4130  125.8440   58.7480 C   0  0  0  0  0  0  0  0  0  0  0  0
  125.6740  126.7510   59.1320 O   0  0  0  0  0  0  0  0  0  0  0  0
  122.9249  124.8493   59.2154 H   0  0  0  0  0  0  0  0  0  0  0  0
  123.9710  125.3302   57.8366 H   0  0  0  0  0  0  0  0  0  0  0  0
  123.1672  123.7238   57.8366 H   0  0  0  0  0  0  0  0  0  0  0  0
  124.8936  122.8240   58.8705 H   0  0  0  0  0  0  0  0  0  0  0  0
  128.0415  124.7719   60.2136 H   0  0  0  0  0  0  0  0  0  0  0  0
  130.1214  123.7170   61.0920 H   0  0  0  0  0  0  0  0  0  0  0  0
  130.0939  121.6862   64.2679 H   0  0  0  0  0  0  0  0  0  0  0  0
  134.1400  122.0950   62.0970 H   0  0  0  0  0  0  0  0  0  0  0  0
  134.7500  123.7970   63.3260 H   0  0  0  0  0  0  0  0  0  0  0  0
  132.2030  125.7408   67.0685 H   0  0  0  0  0  0  0  0  0  0  0  0
  132.8619  126.9269   65.8913 H   0  0  0  0  0  0  0  0  0  0  0  0
  131.1075  126.5413   65.8913 H   0  0  0  0  0  0  0  0  0  0  0  0
  134.6383  120.2615   60.4529 H   0  0  0  0  0  0  0  0  0  0  0  0
  134.5119  118.2955   58.9104 H   0  0  0  0  0  0  0  0  0  0  0  0
  132.3613  117.0686   58.6208 H   0  0  0  0  0  0  0  0  0  0  0  0
  130.3181  117.8011   59.8636 H   0  0  0  0  0  0  0  0  0  0  0  0
  127.9092  122.1588   64.4670 H   0  0  0  0  0  0  0  0  0  0  0  0
  125.8308  123.2216   63.5928 H   0  0  0  0  0  0  0  0  0  0  0  0
  129.8636  123.5115   57.1039 H   0  0  0  0  0  0  0  0  0  0  0  0
  131.3293  125.5091   56.7065 H   0  0  0  0  0  0  0  0  0  0  0  0
  130.5077  127.7969   57.2726 H   0  0  0  0  0  0  0  0  0  0  0  0
  128.2151  128.1061   58.2422 H   0  0  0  0  0  0  0  0  0  0  0  0
  1  2  1  0
  2  3  1  0
  3  4  2  0
  3  5  1  0
  5  6  1  0
  6  7  2  0
  7  8  1  0
  8  9  2  0
  9 10  1  0
 10 11  1  0
 11 12  2  0
 12 13  1  0
 13 14  1  0
 14 15  1  0
 15 16  1  0
 16 17  2  0
 16 18  1  0
 18 19  1  0
 18 20  1  0
 20 21  2  0
 20 22  1  0
 12 23  1  0
 23 24  2  0
 24 25  1  0
 25 26  2  0
 26 27  1  0
 27 28  2  0
 28 29  1  0
 29 30  2  0
  9 31  1  0
 31 32  2  0
  2 33  1  0
 33 34  1  0
 34 35  2  0
 34 36  1  0
 36 37  2  0
 37 38  1  0
 38 39  2  0
 39 40  1  0
 40 41  2  0
 41 42  1  0
 42 43  2  0
 32  6  1  0
 42 33  1  0
 22 10  1  0
 28 23  1  0
 41 36  1  0
 29 11  1  0
 22 14  2  0
  1 44  1  0
  1 45  1  0
  1 46  1  0
  2 47  1  6
  7 48  1  0
  8 49  1  0
 10 50  1  1
 13 51  1  0
 15 52  1  0
 19 53  1  0
 19 54  1  0
 19 55  1  0
 24 56  1  0
 25 57  1  0
 26 58  1  0
 27 59  1  0
 31 60  1  0
 32 61  1  0
 37 62  1  0
 38 63  1  0
 39 64  1  0
 40 65  1  0
M  END
>  <Binding energies>  (1) 
[-9.94]

>  <Ligand effiencies>  (1) 
[-0.22088888888888888]

>  <Interactions>  (1) 
["V-B:LEU:363:CD1:8159, V-B:MET:535:CE:9806, V-B:TYR:539:CD2:9845, V-B:ASP:366:CG:8183, V-B:TYR:539:CZ:9848, V-B:PRO:540:CB:9856, V-B:TYR:539:CE2:9847, V-B:ASP:366:CB:8182, V-B:GLU:543:CD:9879, V-B:TYR:539:CG:9843, V-B:GLU:543:CG:9878, H-B:ARG:545:NH2:9899, V-A:VAL:384:C:3396, H-A:ARG:545:NE:4923, V-A:ILE:369:CG2:3236, V-A:ARG:545:CZ:4925, V-A:SER:385:CA:3406, V-B:ALA:541:C:9859, H-A:ARG:545:NH1:4926, V-A:SER:385:CB:3408, H-A:GLY:454:N:4049, V-B:ALA:541:CB:9863, H-A:ARG:545:NH2:4927, V-A:LEU:475:CD2:4258, V-B:ALA:541:CA:9861, V-B:PRO:540:CA:9854, V-B:TYR:539:CB:9842, H-A:TYR:484:OH:4347, H-B:ALA:541:N:9862, V-B:LEU:363:CA:8155, V-A:LEU:373:CD2:3280, V-A:GLY:453:C:4041, V-A:GLY:454:CA:4048, H-A:SER:385:O:3405"]

$$$$
RR24_Rahimova_2017-again1
     RDKit          3D

 63 69  0  0  0  0  0  0  0  0999 V2000
  124.1840  123.9100   57.5050 C   0  0  0  0  0  0  0  0  0  0  0  0
  125.3360  123.7400   58.5050 C   0  0  2  0  0  0  0  0  0  0  0  0
  124.9020  123.9390   59.9860 C   0  0  0  0  0  0  0  0  0  0  0  0
  123.8370  123.4880   60.4230 O   0  0  0  0  0  0  0  0  0  0  0  0
  125.8030  124.6720   60.7050 O   0  0  0  0  0  0  0  0  0  0  0  0
  126.8740  124.0430   61.2970 C   0  0  0  0  0  0  0  0  0  0  0  0
  126.9540  123.9850   62.6890 C   0  0  0  0  0  0  0  0  0  0  0  0
  128.0230  123.3330   63.2960 C   0  0  0  0  0  0  0  0  0  0  0  0
  129.0140  122.7290   62.5150 C   0  0  0  0  0  0  0  0  0  0  0  0
  130.1960  122.0090   63.1800 C   0  0  1  0  0  0  0  0  0  0  0  0
  130.8330  120.9740   62.2240 C   0  0  0  0  0  0  0  0  0  0  0  0
  130.3560  119.8400   61.6630 C   0  0  0  0  0  0  0  0  0  0  0  0
  129.1820  119.3510   61.8720 O   0  0  0  0  0  0  0  0  0  0  0  0
  131.3530  119.2610   60.7630 C   0  0  0  0  0  0  0  0  0  0  0  0
  131.3430  118.1200   59.9500 C   0  0  0  0  0  0  0  0  0  0  0  0
  132.4640  117.8160   59.1770 C   0  0  0  0  0  0  0  0  0  0  0  0
  133.5870  118.6440   59.2150 C   0  0  0  0  0  0  0  0  0  0  0  0
  133.5930  119.7790   60.0280 C   0  0  0  0  0  0  0  0  0  0  0  0
  132.4690  120.0840   60.7990 C   0  0  0  0  0  0  0  0  0  0  0  0
  132.1880  121.1610   61.7320 C   0  0  0  0  0  0  0  0  0  0  0  0
  132.9320  122.1270   62.1210 N   0  0  0  0  0  0  0  0  0  0  0  0
  132.5370  122.9820   63.1070 C   0  0  0  0  0  0  0  0  0  0  0  0
  133.5240  123.8420   63.4960 N   0  0  0  0  0  0  0  0  0  0  0  0
  133.2760  124.7130   64.4090 C   0  0  0  0  0  0  0  0  0  0  0  0
  134.2430  125.4440   64.6790 O   0  0  0  0  0  0  0  0  0  0  0  0
  132.0310  124.8110   65.0290 N   0  0  0  0  0  0  0  0  0  0  0  0
  131.7140  125.8050   66.0810 C   0  0  0  0  0  0  0  0  0  0  0  0
  130.9800  123.9720   64.7110 C   0  0  0  0  0  0  0  0  0  0  0  0
  129.8700  124.0090   65.2520 O   0  0  0  0  0  0  0  0  0  0  0  0
  131.2840  122.9970   63.6600 C   0  0  0  0  0  0  0  0  0  0  0  0
  128.9230  122.7790   61.1200 C   0  0  0  0  0  0  0  0  0  0  0  0
  127.8530  123.4280   60.5130 C   0  0  0  0  0  0  0  0  0  0  0  0
  126.5190  124.5750   58.1440 N   0  0  0  0  0  0  0  0  0  0  0  0
  127.6770  124.0140   57.6930 C   0  0  0  0  0  0  0  0  0  0  0  0
  127.9140  122.8160   57.5270 O   0  0  0  0  0  0  0  0  0  0  0  0
  128.5950  125.1530   57.4430 C   0  0  0  0  0  0  0  0  0  0  0  0
  129.9120  125.1810   56.9800 C   0  0  0  0  0  0  0  0  0  0  0  0
  130.5450  126.4210   56.8380 C   0  0  0  0  0  0  0  0  0  0  0  0
  129.8640  127.6030   57.1540 C   0  0  0  0  0  0  0  0  0  0  0  0
  128.5440  127.5540   57.6150 C   0  0  0  0  0  0  0  0  0  0  0  0
  127.9300  126.3080   57.7520 C   0  0  0  0  0  0  0  0  0  0  0  0
  126.5660  125.9410   58.2070 C   0  0  0  0  0  0  0  0  0  0  0  0
  125.6670  126.7040   58.5620 O   0  0  0  0  0  0  0  0  0  0  0  0
  123.2404  124.0492   58.0529 H   0  0  0  0  0  0  0  0  0  0  0  0
  124.3741  124.7898   56.8727 H   0  0  0  0  0  0  0  0  0  0  0  0
  124.1119  123.0128   56.8727 H   0  0  0  0  0  0  0  0  0  0  0  0
  125.6480  122.6880   58.4281 H   0  0  0  0  0  0  0  0  0  0  0  0
  126.1731  124.4541   63.3056 H   0  0  0  0  0  0  0  0  0  0  0  0
  128.0890  123.2924   64.3933 H   0  0  0  0  0  0  0  0  0  0  0  0
  129.7859  121.4890   64.0583 H   0  0  0  0  0  0  0  0  0  0  0  0
  130.4573  117.4683   59.9213 H   0  0  0  0  0  0  0  0  0  0  0  0
  132.4628  116.9219   58.5363 H   0  0  0  0  0  0  0  0  0  0  0  0
  134.4687  118.4019   58.6034 H   0  0  0  0  0  0  0  0  0  0  0  0
  134.4790  120.4301   60.0612 H   0  0  0  0  0  0  0  0  0  0  0  0
  131.8593  125.3494   67.0716 H   0  0  0  0  0  0  0  0  0  0  0  0
  132.3794  126.6747   65.9762 H   0  0  0  0  0  0  0  0  0  0  0  0
  130.6680  126.1289   65.9762 H   0  0  0  0  0  0  0  0  0  0  0  0
  129.6992  122.3041   60.5019 H   0  0  0  0  0  0  0  0  0  0  0  0
  127.7777  123.4570   59.4160 H   0  0  0  0  0  0  0  0  0  0  0  0
  130.4405  124.2486   56.7322 H   0  0  0  0  0  0  0  0  0  0  0  0
  131.5828  126.4674   56.4763 H   0  0  0  0  0  0  0  0  0  0  0  0
  130.3687  128.5736   57.0394 H   0  0  0  0  0  0  0  0  0  0  0  0
  128.0015  128.4779   57.8642 H   0  0  0  0  0  0  0  0  0  0  0  0
  1  2  1  0
  2  3  1  0
  3  4  2  0
  3  5  1  0
  5  6  1  0
  6  7  2  0
  7  8  1  0
  8  9  2  0
  9 10  1  0
 10 11  1  0
 11 12  2  0
 12 13  1  0
 12 14  1  0
 14 15  2  0
 15 16  1  0
 16 17  2  0
 17 18  1  0
 18 19  2  0
 19 20  1  0
 20 21  2  0
 21 22  1  0
 22 23  1  0
 23 24  2  0
 24 25  1  0
 24 26  1  0
 26 27  1  0
 26 28  1  0
 28 29  2  0
 28 30  1  0
  9 31  1  0
 31 32  2  0
  2 33  1  0
 33 34  1  0
 34 35  2  0
 34 36  1  0
 36 37  2  0
 37 38  1  0
 38 39  2  0
 39 40  1  0
 40 41  2  0
 41 42  1  0
 42 43  2  0
 32  6  1  0
 42 33  1  0
 30 10  1  0
 41 36  1  0
 20 11  1  0
 30 22  2  0
 19 14  1  0
  1 44  1  0
  1 45  1  0
  1 46  1  0
  2 47  1  1
  7 48  1  0
  8 49  1  0
 10 50  1  1
 15 51  1  0
 16 52  1  0
 17 53  1  0
 18 54  1  0
 27 55  1  0
 27 56  1  0
 27 57  1  0
 31 58  1  0
 32 59  1  0
 37 60  1  0
 38 61  1  0
 39 62  1  0
 40 63  1  0
M  CHG  2  13  -1  25  -1
M  END
>  <Binding energies>  (1) 
[-9.48]

>  <Ligand effiencies>  (1) 
[-0.22046511627906978]

>  <Interactions>  (1) 
["V-B:TYR:531:CE2:9764, V-B:LEU:363:CD1:8159, V-B:MET:535:CE:9806, V-B:TYR:539:CD2:9845, V-B:TYR:539:CZ:9848, V-B:PRO:540:CB:9856, V-B:TYR:539:CE2:9847, V-B:GLU:543:CD:9879, V-B:TYR:539:CG:9843, H-B:TYR:531:OH:9766, V-B:GLU:543:CG:9878, V-A:VAL:384:C:3396, H-A:ARG:545:NE:4923, V-A:ILE:369:CG2:3236, V-A:SER:385:CA:3406, H-A:ARG:545:NH1:4926, H-A:GLY:454:N:4049, V-B:ALA:541:CB:9863, H-A:ARG:545:NH2:4927, V-A:LEU:475:CD2:4258, V-B:PRO:540:CA:9854, V-B:TYR:539:CB:9842, H-A:TYR:484:OH:4347, H-B:ALA:541:N:9862, V-A:LEU:373:CD2:3280, V-A:GLY:454:CA:4048, V-A:LEU:373:CG:3278, V-A:LEU:373:CD1:3279, V-B:TYR:531:CZ:9765"]

$$$$
RR25_Rahimova_2017
     RDKit          3D

 63 68  0  0  0  0  0  0  0  0999 V2000
  126.5960  123.4730   62.1830 O   0  0  0  0  0  0  0  0  0  0  0  0
  127.5840  124.0870   62.5880 C   0  0  0  0  0  0  0  0  0  0  0  0
  128.4290  123.3960   63.4210 O   0  0  0  0  0  0  0  0  0  0  0  0
  129.6840  123.8800   63.7400 C   0  0  0  0  0  0  0  0  0  0  0  0
  130.6480  122.9380   64.0950 C   0  0  0  0  0  0  0  0  0  0  0  0
  131.9330  123.3570   64.4360 C   0  0  0  0  0  0  0  0  0  0  0  0
  132.2700  124.7180   64.4310 C   0  0  0  0  0  0  0  0  0  0  0  0
  133.6410  125.1610   64.7860 N   0  0  0  0  0  0  0  0  0  0  0  0
  134.4410  125.3820   63.8800 O   0  0  0  0  0  0  0  0  0  0  0  0
  133.9270  125.2900   65.9730 O   0  0  0  0  0  0  0  0  0  0  0  0
  131.2810  125.6520   64.0820 C   0  0  0  0  0  0  0  0  0  0  0  0
  129.9860  125.2500   63.7450 C   0  0  0  0  0  0  0  0  0  0  0  0
  128.8860  126.2190   63.3510 C   0  0  0  0  0  0  0  0  0  0  0  0
  127.9710  125.5630   62.2780 C   0  0  2  0  0  0  0  0  0  0  0  0
  126.7730  126.4900   61.9210 C   0  0  0  0  0  0  0  0  0  0  0  0
  125.6750  125.9370   61.8050 O   0  0  0  0  0  0  0  0  0  0  0  0
  126.8970  127.8510   61.8650 N   0  0  0  0  0  0  0  0  0  0  0  0
  128.1980  128.5290   61.6870 C   0  0  0  0  0  0  0  0  0  0  0  0
  128.2050  129.8280   62.5200 C   0  0  0  0  0  0  0  0  0  0  0  0
  127.0650  130.6860   62.1840 N   0  0  0  0  0  0  0  0  0  0  0  0
  127.1420  131.9790   62.8780 C   0  0  0  0  0  0  0  0  0  0  0  0
  127.6270  133.1290   61.9560 C   0  0  0  0  0  0  0  0  0  0  0  0
  128.8800  132.8700   61.1870 N   0  0  0  0  0  0  0  0  0  0  0  0
  130.0030  132.6390   61.9530 C   0  0  0  0  0  0  0  0  0  0  0  0
  130.0000  132.6780   63.1890 O   0  0  0  0  0  0  0  0  0  0  0  0
  131.2530  132.3120   61.1580 C   0  0  0  0  0  0  0  0  0  0  0  0
  132.4470  132.0350   61.8370 C   0  0  0  0  0  0  0  0  0  0  0  0
  133.6120  131.7230   61.1380 C   0  0  0  0  0  0  0  0  0  0  0  0
  133.6210  131.6750   59.7450 C   0  0  0  0  0  0  0  0  0  0  0  0
  132.4380  131.9480   59.0170 C   0  0  0  0  0  0  0  0  0  0  0  0
  132.3770  131.9150   57.6030 C   0  0  0  0  0  0  0  0  0  0  0  0
  131.1780  132.1910   56.9490 C   0  0  0  0  0  0  0  0  0  0  0  0
  130.0260  132.5040   57.6670 C   0  0  0  0  0  0  0  0  0  0  0  0
  130.0390  132.5480   59.0670 C   0  0  0  0  0  0  0  0  0  0  0  0
  131.2550  132.2670   59.7400 C   0  0  0  0  0  0  0  0  0  0  0  0
  128.7620  132.8840   59.8130 C   0  0  0  0  0  0  0  0  0  0  0  0
  127.7040  133.1310   59.2230 O   0  0  0  0  0  0  0  0  0  0  0  0
  125.8130  129.9870   62.4790 C   0  0  0  0  0  0  0  0  0  0  0  0
  125.6840  128.6770   61.6660 C   0  0  0  0  0  0  0  0  0  0  0  0
  130.3956  121.8674   64.1060 H   0  0  0  0  0  0  0  0  0  0  0  0
  132.6922  122.6105   64.7125 H   0  0  0  0  0  0  0  0  0  0  0  0
  131.5313  126.7231   64.0738 H   0  0  0  0  0  0  0  0  0  0  0  0
  128.2865  126.4722   64.2378 H   0  0  0  0  0  0  0  0  0  0  0  0
  129.3362  127.1333   62.9370 H   0  0  0  0  0  0  0  0  0  0  0  0
  128.5694  125.4663   61.3601 H   0  0  0  0  0  0  0  0  0  0  0  0
  129.0083  127.8678   62.0279 H   0  0  0  0  0  0  0  0  0  0  0  0
  128.3505  128.7680   60.6242 H   0  0  0  0  0  0  0  0  0  0  0  0
  128.1549  129.5685   63.5878 H   0  0  0  0  0  0  0  0  0  0  0  0
  129.1303  130.3784   62.2945 H   0  0  0  0  0  0  0  0  0  0  0  0
  126.1422  132.2328   63.2600 H   0  0  0  0  0  0  0  0  0  0  0  0
  127.8755  131.8750   63.6911 H   0  0  0  0  0  0  0  0  0  0  0  0
  126.8260  133.3400   61.2322 H   0  0  0  0  0  0  0  0  0  0  0  0
  127.8607  133.9679   62.6280 H   0  0  0  0  0  0  0  0  0  0  0  0
  132.4653  132.0641   62.9365 H   0  0  0  0  0  0  0  0  0  0  0  0
  134.5375  131.5116   61.6937 H   0  0  0  0  0  0  0  0  0  0  0  0
  134.5491  131.4245   59.2103 H   0  0  0  0  0  0  0  0  0  0  0  0
  133.2773  131.6712   57.0199 H   0  0  0  0  0  0  0  0  0  0  0  0
  131.1406  132.1613   55.8500 H   0  0  0  0  0  0  0  0  0  0  0  0
  129.0925  132.7198   57.1266 H   0  0  0  0  0  0  0  0  0  0  0  0
  125.7839  129.7452   63.5517 H   0  0  0  0  0  0  0  0  0  0  0  0
  124.9780  130.6469   62.2010 H   0  0  0  0  0  0  0  0  0  0  0  0
  124.8001  128.1187   62.0080 H   0  0  0  0  0  0  0  0  0  0  0  0
  125.5752  128.9174   60.5981 H   0  0  0  0  0  0  0  0  0  0  0  0
  1  2  2  0
  2  3  1  0
  3  4  1  0
  4  5  2  0
  5  6  1  0
  6  7  2  0
  7  8  1  0
  8  9  2  0
  8 10  1  0
  7 11  1  0
 11 12  2  0
 12 13  1  0
 13 14  1  0
 14 15  1  0
 15 16  2  0
 15 17  1  0
 17 18  1  0
 18 19  1  0
 19 20  1  0
 20 21  1  0
 21 22  1  0
 22 23  1  0
 23 24  1  0
 24 25  2  0
 24 26  1  0
 26 27  2  0
 27 28  1  0
 28 29  2  0
 29 30  1  0
 30 31  2  0
 31 32  1  0
 32 33  2  0
 33 34  1  0
 34 35  2  0
 34 36  1  0
 36 37  2  0
 20 38  1  0
 38 39  1  0
 14  2  1  0
 39 17  1  0
 12  4  1  0
 36 23  1  0
 35 26  1  0
 35 30  1  0
  5 40  1  0
  6 41  1  0
 11 42  1  0
 13 43  1  0
 13 44  1  0
 14 45  1  6
 18 46  1  0
 18 47  1  0
 19 48  1  0
 19 49  1  0
 21 50  1  0
 21 51  1  0
 22 52  1  0
 22 53  1  0
 27 54  1  0
 28 55  1  0
 29 56  1  0
 31 57  1  0
 32 58  1  0
 33 59  1  0
 38 60  1  0
 38 61  1  0
 39 62  1  0
 39 63  1  0
M  CHG  2   8   1  10  -1
M  END
>  <Binding energies>  (1) 
[-9.82]

>  <Ligand effiencies>  (1) 
[-0.2517948717948718]

>  <Interactions>  (1) 
["V-A:TYR:539:CD1:4872, V-A:PRO:540:CA:4882, V-A:ASN:362:C:3171, V-A:PRO:540:CB:4884, V-B:ASP:366:CG:8183, V-A:PRO:540:C:4880, V-A:ASN:362:CB:3175, V-A:ASN:362:CA:3173, V-B:GLU:543:CD:9879, V-A:TYR:531:CZ:4793, V-A:ALA:541:CB:4891, H-A:ALA:541:N:4890, H-B:ARG:545:NH2:9899, V-A:ARG:545:CZ:4925, H-A:ARG:545:NH1:4926, H-A:GLY:454:N:4049, H-A:ARG:545:NH2:4927, H-A:TYR:484:OH:4347, H-B:ALA:541:N:9862, V-A:GLY:453:C:4041, V-A:GLY:453:CA:4043, V-A:GLY:454:CA:4048, V-A:TYR:539:C:4866, V-A:TYR:531:CE2:4792, V-A:PRO:540:N:4883, V-A:LEU:363:CD1:3188, V-A:LEU:363:CA:3184"]

$$$$
RR26_Rahimova_2017
     RDKit          3D

 59 65  0  0  0  0  0  0  0  0999 V2000
  133.4370  120.0460   60.8260 C   0  0  0  0  0  0  0  0  0  0  0  0
  132.2780  119.0770   61.0250 C   0  0  0  0  0  0  0  0  0  0  0  0
  132.5350  117.7060   60.9140 C   0  0  0  0  0  0  0  0  0  0  0  0
  131.5220  116.7730   61.1260 C   0  0  0  0  0  0  0  0  0  0  0  0
  130.2410  117.2040   61.4590 C   0  0  0  0  0  0  0  0  0  0  0  0
  129.9740  118.5670   61.5740 C   0  0  0  0  0  0  0  0  0  0  0  0
  130.9790  119.5210   61.3550 C   0  0  0  0  0  0  0  0  0  0  0  0
  130.6020  120.9690   61.4840 C   0  0  0  0  0  0  0  0  0  0  0  0
  131.4370  121.9530   61.1590 N   0  0  0  0  0  0  0  0  0  0  0  0
  130.7150  123.0120   61.4080 C   0  0  0  0  0  0  0  0  0  0  0  0
  130.9460  124.7180   61.3020 S   0  0  0  0  0  0  0  0  0  0  0  0
  129.2640  124.9600   61.9060 C   0  0  0  0  0  0  0  0  0  0  0  0
  128.6240  126.1300   62.1280 C   0  0  0  0  0  0  0  0  0  0  0  0
  129.1290  127.4790   61.9310 C   0  0  0  0  0  0  0  0  0  0  0  0
  130.2590  127.8770   61.2340 C   0  0  0  0  0  0  0  0  0  0  0  0
  130.3200  129.2470   61.2750 N   0  0  0  0  0  0  0  0  0  0  0  0
  131.2940  130.1000   60.6960 C   0  0  0  0  0  0  0  0  0  0  0  0
  132.2830  130.7030   61.4890 C   0  0  0  0  0  0  0  0  0  0  0  0
  133.2320  131.5400   60.9080 C   0  0  0  0  0  0  0  0  0  0  0  0
  133.1980  131.7760   59.5370 C   0  0  0  0  0  0  0  0  0  0  0  0
  132.2230  131.1820   58.7380 C   0  0  0  0  0  0  0  0  0  0  0  0
  131.2720  130.3460   59.3150 C   0  0  0  0  0  0  0  0  0  0  0  0
  129.2650  129.7400   61.9420 N   0  0  0  0  0  0  0  0  0  0  0  0
  128.5540  128.7030   62.3410 C   0  0  0  0  0  0  0  0  0  0  0  0
  127.3000  128.9190   63.1320 C   0  0  0  0  0  0  0  0  0  0  0  0
  126.0990  129.2450   62.4840 C   0  0  0  0  0  0  0  0  0  0  0  0
  124.9260  129.4520   63.2120 C   0  0  0  0  0  0  0  0  0  0  0  0
  124.9470  129.3340   64.6000 C   0  0  0  0  0  0  0  0  0  0  0  0
  126.1370  128.9890   65.2580 C   0  0  0  0  0  0  0  0  0  0  0  0
  127.3080  128.7900   64.5290 C   0  0  0  0  0  0  0  0  0  0  0  0
  126.2140  128.9050   66.6350 O   0  0  0  0  0  0  0  0  0  0  0  0
  124.9480  128.7540   67.2840 C   0  0  0  0  0  0  0  0  0  0  0  0
  123.9090  129.7310   66.6810 C   0  0  0  0  0  0  0  0  0  0  0  0
  123.7550  129.4980   65.2770 O   0  0  0  0  0  0  0  0  0  0  0  0
  128.5840  123.6960   62.1750 C   0  0  0  0  0  0  0  0  0  0  0  0
  127.4420  123.5020   62.5960 O   0  0  0  0  0  0  0  0  0  0  0  0
  129.4930  122.6750   61.8580 N   0  0  0  0  0  0  0  0  0  0  0  0
  129.4050  121.3430   61.9080 N   0  0  0  0  0  0  0  0  0  0  0  0
  133.8198  120.3660   61.8063 H   0  0  0  0  0  0  0  0  0  0  0  0
  134.2400  119.5467   60.2640 H   0  0  0  0  0  0  0  0  0  0  0  0
  133.0879  120.9248   60.2640 H   0  0  0  0  0  0  0  0  0  0  0  0
  133.5474  117.3612   60.6567 H   0  0  0  0  0  0  0  0  0  0  0  0
  131.7342  115.6979   61.0304 H   0  0  0  0  0  0  0  0  0  0  0  0
  129.4403  116.4696   61.6312 H   0  0  0  0  0  0  0  0  0  0  0  0
  128.9600  118.8998   61.8405 H   0  0  0  0  0  0  0  0  0  0  0  0
  127.5934  126.0515   62.5044 H   0  0  0  0  0  0  0  0  0  0  0  0
  130.9797  127.2118   60.7359 H   0  0  0  0  0  0  0  0  0  0  0  0
  132.3083  130.5138   62.5723 H   0  0  0  0  0  0  0  0  0  0  0  0
  134.0058  132.0130   61.5305 H   0  0  0  0  0  0  0  0  0  0  0  0
  133.9481  132.4379   59.0795 H   0  0  0  0  0  0  0  0  0  0  0  0
  132.2052  131.3733   57.6549 H   0  0  0  0  0  0  0  0  0  0  0  0
  130.5008  129.8767   58.6865 H   0  0  0  0  0  0  0  0  0  0  0  0
  126.0815  129.3387   61.3881 H   0  0  0  0  0  0  0  0  0  0  0  0
  123.9904  129.7068   62.6927 H   0  0  0  0  0  0  0  0  0  0  0  0
  128.2413  128.5310   65.0505 H   0  0  0  0  0  0  0  0  0  0  0  0
  124.5937  127.7212   67.1504 H   0  0  0  0  0  0  0  0  0  0  0  0
  125.0680  128.9786   68.3541 H   0  0  0  0  0  0  0  0  0  0  0  0
  122.9403  129.5824   67.1806 H   0  0  0  0  0  0  0  0  0  0  0  0
  124.2611  130.7620   66.8332 H   0  0  0  0  0  0  0  0  0  0  0  0
  1  2  1  0
  2  3  2  0
  3  4  1  0
  4  5  2  0
  5  6  1  0
  6  7  2  0
  7  8  1  0
  8  9  1  0
  9 10  2  0
 10 11  1  0
 11 12  1  0
 12 13  2  0
 13 14  1  0
 14 15  2  0
 15 16  1  0
 16 17  1  0
 17 18  2  0
 18 19  1  0
 19 20  2  0
 20 21  1  0
 21 22  2  0
 16 23  1  0
 23 24  2  0
 24 25  1  0
 25 26  2  0
 26 27  1  0
 27 28  2  0
 28 29  1  0
 29 30  2  0
 29 31  1  0
 31 32  1  0
 32 33  1  0
 33 34  1  0
 12 35  1  0
 35 36  2  0
 35 37  1  0
 37 38  1  0
  7  2  1  0
 38  8  2  0
 37 10  1  0
 24 14  1  0
 30 25  1  0
 22 17  1  0
 34 28  1  0
  1 39  1  0
  1 40  1  0
  1 41  1  0
  3 42  1  0
  4 43  1  0
  5 44  1  0
  6 45  1  0
 13 46  1  0
 15 47  1  0
 18 48  1  0
 19 49  1  0
 20 50  1  0
 21 51  1  0
 22 52  1  0
 26 53  1  0
 27 54  1  0
 30 55  1  0
 32 56  1  0
 32 57  1  0
 33 58  1  0
 33 59  1  0
M  END
>  <Binding energies>  (1) 
[-9.42]

>  <Ligand effiencies>  (1) 
[-0.24789473684210525]

>  <Interactions>  (1) 
["H-B:TYR:484:OH:9318, H-B:GLY:454:N:9020, V-A:PRO:540:CA:4882, V-A:ASN:362:C:3171, V-B:TYR:539:CD2:9845, V-B:GLY:454:CA:9019, V-A:PRO:540:CB:4884, V-B:TYR:539:C:9838, V-A:ASN:362:CB:3175, V-B:GLU:543:CD:9879, H-B:ARG:545:NH1:9898, V-B:ARG:545:CZ:9897, H-B:ARG:545:NH2:9899, V-B:ARG:545:CG:9893, V-B:ARG:545:CD:9894, V-A:ILE:369:CG2:3236, V-A:SER:385:CA:3406, V-A:SER:385:CB:3408, V-B:ALA:541:CB:9863, V-A:LEU:475:CD2:4258, V-A:HIS:383:CE1:3393, V-A:PRO:482:CG:4326, H-B:ALA:541:N:9862, V-A:PRO:482:CB:4325, V-A:THR:477:CG2:4272, V-A:LEU:363:CA:3184, H-B:ARG:545:NE:9895"]

$$$$
RR27_Rahimova_2017
     RDKit          3D

 66 71  0  0  0  0  0  0  0  0999 V2000
  130.2850  122.1880   59.9990 O   0  0  0  0  0  0  0  0  0  0  0  0
  129.3880  122.9090   60.4460 C   0  0  0  0  0  0  0  0  0  0  0  0
  128.8210  124.0350   59.5330 C   0  0  0  0  0  0  0  0  0  0  0  0
  127.6480  123.5650   58.6520 C   0  0  0  0  0  0  0  0  0  0  0  0
  127.8500  122.7820   57.5050 C   0  0  0  0  0  0  0  0  0  0  0  0
  126.7670  122.3730   56.7330 C   0  0  0  0  0  0  0  0  0  0  0  0
  125.4780  122.7450   57.1020 C   0  0  0  0  0  0  0  0  0  0  0  0
  125.2610  123.5230   58.2360 C   0  0  0  0  0  0  0  0  0  0  0  0
  126.3450  123.9330   59.0080 C   0  0  0  0  0  0  0  0  0  0  0  0
  129.9410  124.7790   58.7800 C   0  0  0  0  0  0  0  0  0  0  0  0
  129.6940  125.4660   57.5840 C   0  0  0  0  0  0  0  0  0  0  0  0
  130.7320  126.1190   56.9230 C   0  0  0  0  0  0  0  0  0  0  0  0
  132.0200  126.0810   57.4510 C   0  0  0  0  0  0  0  0  0  0  0  0
  132.2810  125.3920   58.6330 C   0  0  0  0  0  0  0  0  0  0  0  0
  131.2440  124.7400   59.2920 C   0  0  0  0  0  0  0  0  0  0  0  0
  128.7910  122.6480   61.6440 N   0  0  0  0  0  0  0  0  0  0  0  0
  127.9110  123.6010   62.3360 C   0  0  0  0  0  0  0  0  0  0  0  0
  128.8190  124.5030   63.2000 C   0  0  0  0  0  0  0  0  0  0  0  0
  129.7290  123.6880   64.1730 C   0  0  0  0  0  0  0  0  0  0  0  0
  130.7340  124.5340   64.9770 C   0  0  0  0  0  0  0  0  0  0  0  0
  132.0170  124.5580   64.5110 N   0  0  0  0  0  0  0  0  0  0  0  0
  132.9390  125.3130   65.1700 C   0  0  0  0  0  0  0  0  0  0  0  0
  134.2530  125.4210   64.7970 O   0  0  0  0  0  0  0  0  0  0  0  0
  132.5320  126.0350   66.3090 C   0  0  0  0  0  0  0  0  0  0  0  0
  133.1770  126.8680   67.1750 N   0  0  0  0  0  0  0  0  0  0  0  0
  132.2510  127.2810   68.1150 N   0  0  0  0  0  0  0  0  0  0  0  0
  131.0580  126.7190   67.8270 N   0  0  0  0  0  0  0  0  0  0  0  0
  129.8980  126.9660   68.6790 C   0  0  0  0  0  0  0  0  0  0  0  0
  128.8330  127.8360   68.0260 C   0  0  0  0  0  0  0  0  0  0  0  0
  129.1290  128.5600   66.8660 C   0  0  0  0  0  0  0  0  0  0  0  0
  128.1490  129.3490   66.2610 C   0  0  0  0  0  0  0  0  0  0  0  0
  126.8680  129.4140   66.8090 C   0  0  0  0  0  0  0  0  0  0  0  0
  126.5640  128.6870   67.9610 C   0  0  0  0  0  0  0  0  0  0  0  0
  124.9710  128.7450   68.6260 Cl  0  0  0  0  0  0  0  0  0  0  0  0
  127.5450  127.9040   68.5700 C   0  0  0  0  0  0  0  0  0  0  0  0
  131.1810  125.9210   66.7010 C   0  0  0  0  0  0  0  0  0  0  0  0
  130.2590  125.1830   66.0780 N   0  0  0  0  0  0  0  0  0  0  0  0
  130.3800  122.4590   63.4680 C   0  0  0  0  0  0  0  0  0  0  0  0
  129.3890  121.6740   62.5710 C   0  0  0  0  0  0  0  0  0  0  0  0
  128.3647  124.7906   60.1893 H   0  0  0  0  0  0  0  0  0  0  0  0
  128.8700  122.4900   57.2147 H   0  0  0  0  0  0  0  0  0  0  0  0
  126.9291  121.7585   55.8352 H   0  0  0  0  0  0  0  0  0  0  0  0
  124.6220  122.4212   56.4917 H   0  0  0  0  0  0  0  0  0  0  0  0
  124.2386  123.8123   58.5207 H   0  0  0  0  0  0  0  0  0  0  0  0
  126.1765  124.5498   59.9031 H   0  0  0  0  0  0  0  0  0  0  0  0
  128.6770  125.4898   57.1656 H   0  0  0  0  0  0  0  0  0  0  0  0
  130.5349  126.6627   55.9873 H   0  0  0  0  0  0  0  0  0  0  0  0
  132.8384  126.5996   56.9301 H   0  0  0  0  0  0  0  0  0  0  0  0
  133.3013  125.3636   59.0430 H   0  0  0  0  0  0  0  0  0  0  0  0
  131.4488  124.1897   60.2222 H   0  0  0  0  0  0  0  0  0  0  0  0
  127.3610  124.2092   61.6028 H   0  0  0  0  0  0  0  0  0  0  0  0
  127.1719  123.0748   62.9579 H   0  0  0  0  0  0  0  0  0  0  0  0
  129.4607  125.0978   62.5334 H   0  0  0  0  0  0  0  0  0  0  0  0
  128.1659  125.1416   63.8129 H   0  0  0  0  0  0  0  0  0  0  0  0
  129.0501  123.2939   64.9436 H   0  0  0  0  0  0  0  0  0  0  0  0
  134.7400  126.0500   65.3330 H   0  0  0  0  0  0  0  0  0  0  0  0
  129.4447  125.9977   68.9377 H   0  0  0  0  0  0  0  0  0  0  0  0
  130.2593  127.5102   69.5640 H   0  0  0  0  0  0  0  0  0  0  0  0
  130.1372  128.5074   66.4292 H   0  0  0  0  0  0  0  0  0  0  0  0
  128.3873  129.9199   65.3514 H   0  0  0  0  0  0  0  0  0  0  0  0
  126.0973  130.0383   66.3332 H   0  0  0  0  0  0  0  0  0  0  0  0
  127.3052  127.3374   69.4819 H   0  0  0  0  0  0  0  0  0  0  0  0
  131.2115  122.8150   62.8420 H   0  0  0  0  0  0  0  0  0  0  0  0
  130.7212  121.7725   64.2568 H   0  0  0  0  0  0  0  0  0  0  0  0
  129.9236  120.8945   62.0082 H   0  0  0  0  0  0  0  0  0  0  0  0
  128.6154  121.1794   63.1767 H   0  0  0  0  0  0  0  0  0  0  0  0
  1  2  2  0
  2  3  1  0
  3  4  1  0
  4  5  2  0
  5  6  1  0
  6  7  2  0
  7  8  1  0
  8  9  2  0
  3 10  1  0
 10 11  2  0
 11 12  1  0
 12 13  2  0
 13 14  1  0
 14 15  2  0
  2 16  1  0
 16 17  1  0
 17 18  1  0
 18 19  1  0
 19 20  1  0
 20 21  2  0
 21 22  1  0
 22 23  1  0
 22 24  2  0
 24 25  1  0
 25 26  2  0
 26 27  1  0
 27 28  1  0
 28 29  1  0
 29 30  2  0
 30 31  1  0
 31 32  2  0
 32 33  1  0
 33 34  1  0
 33 35  2  0
 27 36  1  0
 36 37  2  0
 19 38  1  0
 38 39  1  0
  9  4  1  0
 15 10  1  0
 39 16  1  0
 37 20  1  0
 36 24  1  0
 35 29  1  0
  3 40  1  0
  5 41  1  0
  6 42  1  0
  7 43  1  0
  8 44  1  0
  9 45  1  0
 11 46  1  0
 12 47  1  0
 13 48  1  0
 14 49  1  0
 15 50  1  0
 17 51  1  0
 17 52  1  0
 18 53  1  0
 18 54  1  0
 19 55  1  0
 23 56  1  0
 28 57  1  0
 28 58  1  0
 30 59  1  0
 31 60  1  0
 32 61  1  0
 35 62  1  0
 38 63  1  0
 38 64  1  0
 39 65  1  0
 39 66  1  0
M  END
>  <Binding energies>  (1) 
[-10.58]

>  <Ligand effiencies>  (1) 
[-0.2645]

>  <Interactions>  (1) 
["V-B:PRO:540:CD:9858, V-B:GLU:543:CB:9877, V-B:PRO:540:N:9855, V-A:GLU:543:CB:4905, V-B:LEU:363:CD1:8159, V-B:MET:535:CE:9806, V-B:TYR:539:CD2:9845, V-B:TYR:539:CZ:9848, V-B:HIS:456:CE1:9040, V-A:HIS:456:CE1:4069, V-B:TYR:539:C:9838, V-A:GLU:543:CD:4907, V-A:GLU:543:CG:4906, V-B:PRO:540:CB:9856, V-B:TYR:539:CE2:9847, V-B:GLU:543:CD:9879, V-B:TYR:539:CG:9843, V-A:ASP:366:CG:3212, V-A:ASP:366:CB:3211, V-B:ARG:545:CG:9893, V-A:TYR:484:CZ:4346, H-A:ARG:545:NE:4923, V-A:ARG:545:CZ:4925, H-A:ARG:545:NH1:4926, H-A:GLY:454:N:4049, V-B:ALA:541:CB:9863, H-A:ARG:545:NH2:4927, V-A:LEU:475:CD2:4258, V-B:ALA:541:CA:9861, V-B:PRO:540:CA:9854, H-A:TYR:484:OH:4347, V-B:ARG:545:CB:9892"]

$$$$
RR27_Rahimova_2017-again1
     RDKit          3D

 66 71  0  0  0  0  0  0  0  0999 V2000
  131.0010  122.4880   60.1180 O   0  0  0  0  0  0  0  0  0  0  0  0
  129.9240  122.9800   60.4710 C   0  0  0  0  0  0  0  0  0  0  0  0
  129.3520  124.1700   59.6440 C   0  0  0  0  0  0  0  0  0  0  0  0
  128.0820  123.7870   58.8600 C   0  0  0  0  0  0  0  0  0  0  0  0
  128.0870  122.7870   57.8750 C   0  0  0  0  0  0  0  0  0  0  0  0
  126.9190  122.4680   57.1890 C   0  0  0  0  0  0  0  0  0  0  0  0
  125.7390  123.1460   57.4830 C   0  0  0  0  0  0  0  0  0  0  0  0
  125.7170  124.1380   58.4580 C   0  0  0  0  0  0  0  0  0  0  0  0
  126.8850  124.4570   59.1440 C   0  0  0  0  0  0  0  0  0  0  0  0
  130.4320  124.8460   58.7790 C   0  0  0  0  0  0  0  0  0  0  0  0
  131.7830  124.8380   59.1570 C   0  0  0  0  0  0  0  0  0  0  0  0
  132.7390  125.4740   58.3700 C   0  0  0  0  0  0  0  0  0  0  0  0
  132.3510  126.1190   57.1990 C   0  0  0  0  0  0  0  0  0  0  0  0
  131.0140  126.1370   56.8110 C   0  0  0  0  0  0  0  0  0  0  0  0
  130.0570  125.5080   57.6030 C   0  0  0  0  0  0  0  0  0  0  0  0
  129.1710  122.4020   61.4520 N   0  0  0  0  0  0  0  0  0  0  0  0
  128.0390  123.0680   62.1100 C   0  0  0  0  0  0  0  0  0  0  0  0
  128.6050  123.9240   63.2670 C   0  0  0  0  0  0  0  0  0  0  0  0
  129.6980  123.2350   64.1490 C   0  0  0  0  0  0  0  0  0  0  0  0
  130.6420  124.2270   64.8350 C   0  0  0  0  0  0  0  0  0  0  0  0
  130.2560  124.8900   65.8800 N   0  0  0  0  0  0  0  0  0  0  0  0
  131.1750  125.7480   66.4030 C   0  0  0  0  0  0  0  0  0  0  0  0
  132.4570  125.9700   65.9250 C   0  0  0  0  0  0  0  0  0  0  0  0
  133.0750  126.8740   66.6650 N   0  0  0  0  0  0  0  0  0  0  0  0
  132.1920  127.2680   67.6660 N   0  0  0  0  0  0  0  0  0  0  0  0
  131.0590  126.5640   67.4990 N   0  0  0  0  0  0  0  0  0  0  0  0
  129.9170  126.7610   68.3820 C   0  0  0  0  0  0  0  0  0  0  0  0
  128.8600  127.6910   67.8040 C   0  0  0  0  0  0  0  0  0  0  0  0
  129.1550  128.4810   66.6880 C   0  0  0  0  0  0  0  0  0  0  0  0
  128.1910  129.3420   66.1620 C   0  0  0  0  0  0  0  0  0  0  0  0
  126.9270  129.4140   66.7460 C   0  0  0  0  0  0  0  0  0  0  0  0
  126.6250  128.6250   67.8560 C   0  0  0  0  0  0  0  0  0  0  0  0
  125.0620  128.7190   68.5810 Cl  0  0  0  0  0  0  0  0  0  0  0  0
  127.5880  127.7640   68.3830 C   0  0  0  0  0  0  0  0  0  0  0  0
  132.9200  125.2300   64.7510 C   0  0  0  0  0  0  0  0  0  0  0  0
  134.0120  125.2880   64.1900 O   0  0  0  0  0  0  0  0  0  0  0  0
  131.9190  124.3920   64.3070 N   0  0  0  0  0  0  0  0  0  0  0  0
  130.4670  122.0500   63.4850 C   0  0  0  0  0  0  0  0  0  0  0  0
  129.7530  121.3520   62.3000 C   0  0  0  0  0  0  0  0  0  0  0  0
  129.0261  124.9351   60.3640 H   0  0  0  0  0  0  0  0  0  0  0  0
  129.0200  122.2521   57.6439 H   0  0  0  0  0  0  0  0  0  0  0  0
  126.9280  121.6836   56.4179 H   0  0  0  0  0  0  0  0  0  0  0  0
  124.8161  122.8951   56.9396 H   0  0  0  0  0  0  0  0  0  0  0  0
  124.7804  124.6680   58.6857 H   0  0  0  0  0  0  0  0  0  0  0  0
  126.8682  125.2413   59.9151 H   0  0  0  0  0  0  0  0  0  0  0  0
  132.0888  124.3259   60.0812 H   0  0  0  0  0  0  0  0  0  0  0  0
  133.7967  125.4669   58.6722 H   0  0  0  0  0  0  0  0  0  0  0  0
  133.1069  126.6185   56.5752 H   0  0  0  0  0  0  0  0  0  0  0  0
  130.7150  126.6459   55.8828 H   0  0  0  0  0  0  0  0  0  0  0  0
  128.9990  125.5311   57.3030 H   0  0  0  0  0  0  0  0  0  0  0  0
  127.5132  123.7122   61.3899 H   0  0  0  0  0  0  0  0  0  0  0  0
  127.3250  122.3246   62.4943 H   0  0  0  0  0  0  0  0  0  0  0  0
  129.0460  124.8325   62.8309 H   0  0  0  0  0  0  0  0  0  0  0  0
  127.7562  124.1184   63.9391 H   0  0  0  0  0  0  0  0  0  0  0  0
  129.0999  122.7555   64.9379 H   0  0  0  0  0  0  0  0  0  0  0  0
  129.4527  125.7827   68.5753 H   0  0  0  0  0  0  0  0  0  0  0  0
  130.2949  127.2306   69.3021 H   0  0  0  0  0  0  0  0  0  0  0  0
  130.1504  128.4233   66.2234 H   0  0  0  0  0  0  0  0  0  0  0  0
  128.4284  129.9641   65.2864 H   0  0  0  0  0  0  0  0  0  0  0  0
  126.1676  130.0932   66.3313 H   0  0  0  0  0  0  0  0  0  0  0  0
  127.3467  127.1405   69.2565 H   0  0  0  0  0  0  0  0  0  0  0  0
  132.1570  123.8440   63.4940 H   0  0  0  0  0  0  0  0  0  0  0  0
  131.4283  122.4376   63.1168 H   0  0  0  0  0  0  0  0  0  0  0  0
  130.5593  121.2825   64.2676 H   0  0  0  0  0  0  0  0  0  0  0  0
  130.4777  120.7608   61.7209 H   0  0  0  0  0  0  0  0  0  0  0  0
  128.9694  120.6726   62.6667 H   0  0  0  0  0  0  0  0  0  0  0  0
  1  2  2  0
  2  3  1  0
  3  4  1  0
  4  5  2  0
  5  6  1  0
  6  7  2  0
  7  8  1  0
  8  9  2  0
  3 10  1  0
 10 11  2  0
 11 12  1  0
 12 13  2  0
 13 14  1  0
 14 15  2  0
  2 16  1  0
 16 17  1  0
 17 18  1  0
 18 19  1  0
 19 20  1  0
 20 21  2  0
 21 22  1  0
 22 23  2  0
 23 24  1  0
 24 25  2  0
 25 26  1  0
 26 27  1  0
 27 28  1  0
 28 29  2  0
 29 30  1  0
 30 31  2  0
 31 32  1  0
 32 33  1  0
 32 34  2  0
 23 35  1  0
 35 36  2  0
 35 37  1  0
 19 38  1  0
 38 39  1  0
  9  4  1  0
 15 10  1  0
 39 16  1  0
 37 20  1  0
 26 22  1  0
 34 28  1  0
  3 40  1  0
  5 41  1  0
  6 42  1  0
  7 43  1  0
  8 44  1  0
  9 45  1  0
 11 46  1  0
 12 47  1  0
 13 48  1  0
 14 49  1  0
 15 50  1  0
 17 51  1  0
 17 52  1  0
 18 53  1  0
 18 54  1  0
 19 55  1  0
 27 56  1  0
 27 57  1  0
 29 58  1  0
 30 59  1  0
 31 60  1  0
 34 61  1  0
 37 62  1  0
 38 63  1  0
 38 64  1  0
 39 65  1  0
 39 66  1  0
M  END
>  <Binding energies>  (1) 
[-11.0]

>  <Ligand effiencies>  (1) 
[-0.275]

>  <Interactions>  (1) 
["V-B:PRO:540:CD:9858, V-B:GLU:543:CB:9877, V-B:PRO:540:N:9855, V-A:GLU:543:CB:4905, V-B:MET:535:CE:9806, V-B:TYR:539:CD2:9845, V-B:TYR:539:CZ:9848, V-B:HIS:456:CE1:9040, V-A:HIS:456:CE1:4069, V-B:TYR:539:C:9838, V-A:GLU:543:CD:4907, V-A:GLU:543:CG:4906, V-B:PRO:540:CB:9856, V-B:TYR:539:CE2:9847, V-B:GLU:543:CD:9879, V-B:TYR:539:CG:9843, V-A:ASP:366:CG:3212, V-A:ASP:366:CA:3209, V-A:ASP:366:CB:3211, V-B:ARG:545:CG:9893, V-A:TYR:484:CZ:4346, H-A:ARG:545:NE:4923, V-A:ARG:545:CZ:4925, H-A:ARG:545:NH1:4926, H-A:GLY:454:N:4049, V-B:ALA:541:CB:9863, H-A:ARG:545:NH2:4927, V-A:LEU:475:CD2:4258, V-B:PRO:540:CA:9854, V-A:ASP:366:C:3207, H-A:TYR:484:OH:4347, V-A:TYR:531:CE1:4791"]

$$$$
RR28_Rahimova_2017
     RDKit          3D

 82 85  0  0  0  0  0  0  0  0999 V2000
  124.1870  132.9070   61.8750 C   0  0  0  0  0  0  0  0  0  0  0  0
  125.1520  131.9260   62.5310 C   0  0  0  0  0  0  0  0  0  0  0  0
  125.8750  132.3070   63.4490 O   0  0  0  0  0  0  0  0  0  0  0  0
  125.1470  130.6680   62.0440 N   0  0  0  0  0  0  0  0  0  0  0  0
  125.9730  129.5170   62.4740 C   0  0  0  0  0  0  0  0  0  0  0  0
  125.7740  129.3200   64.0040 C   0  0  0  0  0  0  0  0  0  0  0  0
  126.8710  128.9520   64.7990 C   0  0  0  0  0  0  0  0  0  0  0  0
  126.7290  128.7630   66.1700 C   0  0  0  0  0  0  0  0  0  0  0  0
  125.4850  128.9370   66.7800 C   0  0  0  0  0  0  0  0  0  0  0  0
  125.3480  128.7210   68.2860 C   0  0  0  0  0  0  0  0  0  0  0  0
  126.3470  129.2800   68.9720 F   0  0  0  0  0  0  0  0  0  0  0  0
  124.2040  129.2440   68.7260 F   0  0  0  0  0  0  0  0  0  0  0  0
  125.3480  127.4120   68.5430 F   0  0  0  0  0  0  0  0  0  0  0  0
  124.3850  129.3020   65.9990 C   0  0  0  0  0  0  0  0  0  0  0  0
  124.5280  129.4900   64.6270 C   0  0  0  0  0  0  0  0  0  0  0  0
  127.4710  129.7260   62.0530 C   0  0  0  0  0  0  0  0  0  0  0  0
  127.6820  129.7320   60.5180 C   0  0  0  0  0  0  0  0  0  0  0  0
  127.1900  128.4350   60.0250 N   0  0  0  0  0  0  0  0  0  0  0  0
  128.0460  127.3890   59.8700 C   0  0  0  0  0  0  0  0  0  0  0  0
  129.2680  127.5230   59.9690 O   0  0  0  0  0  0  0  0  0  0  0  0
  127.4850  126.0270   59.3950 C   0  0  0  0  0  0  0  0  0  0  0  0
  126.3090  125.4490   60.2310 C   0  0  0  0  0  0  0  0  0  0  0  0
  126.7240  124.7250   61.5330 C   0  0  0  0  0  0  0  0  0  0  0  0
  126.4330  125.2570   62.6090 O   0  0  0  0  0  0  0  0  0  0  0  0
  127.2660  123.4760   61.4700 N   0  0  0  0  0  0  0  0  0  0  0  0
  127.9110  122.9370   60.2670 C   0  0  0  0  0  0  0  0  0  0  0  0
  129.3790  123.4180   60.3010 C   0  0  0  0  0  0  0  0  0  0  0  0
  130.1700  123.0190   61.5950 C   0  0  0  0  0  0  0  0  0  0  0  0
  131.3870  123.8520   61.6950 N   0  0  0  0  0  0  0  0  0  0  0  0
  132.3370  123.8250   62.6510 C   0  0  0  0  0  0  0  0  0  0  0  0
  133.4790  124.8250   62.4980 C   0  0  0  0  0  0  0  0  0  0  0  0
  132.3260  123.0580   63.6130 O   0  0  0  0  0  0  0  0  0  0  0  0
  130.6280  121.5340   61.4250 C   0  0  0  0  0  0  0  0  0  0  0  0
  129.8500  120.4440   61.8500 C   0  0  0  0  0  0  0  0  0  0  0  0
  130.2950  119.1350   61.6790 C   0  0  0  0  0  0  0  0  0  0  0  0
  131.5310  118.8830   61.0800 C   0  0  0  0  0  0  0  0  0  0  0  0
  132.0300  117.4520   60.8810 C   0  0  0  0  0  0  0  0  0  0  0  0
  132.1830  117.1840   59.5830 F   0  0  0  0  0  0  0  0  0  0  0  0
  133.2090  117.3130   61.4860 F   0  0  0  0  0  0  0  0  0  0  0  0
  131.1890  116.5500   61.3910 F   0  0  0  0  0  0  0  0  0  0  0  0
  132.3190  119.9550   60.6590 C   0  0  0  0  0  0  0  0  0  0  0  0
  131.8720  121.2620   60.8320 C   0  0  0  0  0  0  0  0  0  0  0  0
  129.2450  123.2430   62.8530 C   0  0  0  0  0  0  0  0  0  0  0  0
  127.7590  122.8240   62.6900 C   0  0  0  0  0  0  0  0  0  0  0  0
  125.7420  128.2550   60.2040 C   0  0  0  0  0  0  0  0  0  0  0  0
  125.4730  128.2340   61.7310 C   0  0  0  0  0  0  0  0  0  0  0  0
  123.6419  133.4611   62.6534 H   0  0  0  0  0  0  0  0  0  0  0  0
  124.7517  133.6137   61.2491 H   0  0  0  0  0  0  0  0  0  0  0  0
  123.4711  132.3540   61.2491 H   0  0  0  0  0  0  0  0  0  0  0  0
  124.5240  130.4760   61.2730 H   0  0  0  0  0  0  0  0  0  0  0  0
  127.8566  128.8111   64.3314 H   0  0  0  0  0  0  0  0  0  0  0  0
  127.6006  128.4752   66.7762 H   0  0  0  0  0  0  0  0  0  0  0  0
  123.4011  129.4415   66.4708 H   0  0  0  0  0  0  0  0  0  0  0  0
  123.6535  129.7753   64.0238 H   0  0  0  0  0  0  0  0  0  0  0  0
  127.8157  130.6896   62.4564 H   0  0  0  0  0  0  0  0  0  0  0  0
  128.0439  128.8783   62.4569 H   0  0  0  0  0  0  0  0  0  0  0  0
  127.1130  130.5540   60.0591 H   0  0  0  0  0  0  0  0  0  0  0  0
  128.7416  129.8797   60.2620 H   0  0  0  0  0  0  0  0  0  0  0  0
  127.1344  126.1494   58.3596 H   0  0  0  0  0  0  0  0  0  0  0  0
  128.3110  125.3092   59.5068 H   0  0  0  0  0  0  0  0  0  0  0  0
  125.6418  126.2808   60.5013 H   0  0  0  0  0  0  0  0  0  0  0  0
  125.8272  124.6893   59.5980 H   0  0  0  0  0  0  0  0  0  0  0  0
  127.8714  121.8377   60.2751 H   0  0  0  0  0  0  0  0  0  0  0  0
  127.4014  123.2815   59.3551 H   0  0  0  0  0  0  0  0  0  0  0  0
  129.9009  122.9869   59.4339 H   0  0  0  0  0  0  0  0  0  0  0  0
  129.3460  124.5174   60.2839 H   0  0  0  0  0  0  0  0  0  0  0  0
  131.4860  124.5470   60.9700 H   0  0  0  0  0  0  0  0  0  0  0  0
  133.8317  125.1339   63.4931 H   0  0  0  0  0  0  0  0  0  0  0  0
  134.3060  124.3554   61.9453 H   0  0  0  0  0  0  0  0  0  0  0  0
  133.1227  125.7068   61.9453 H   0  0  0  0  0  0  0  0  0  0  0  0
  128.8748  120.6270   62.3249 H   0  0  0  0  0  0  0  0  0  0  0  0
  129.6696  118.2958   62.0175 H   0  0  0  0  0  0  0  0  0  0  0  0
  133.2957  119.7668   60.1893 H   0  0  0  0  0  0  0  0  0  0  0  0
  132.5049  122.0974   60.4981 H   0  0  0  0  0  0  0  0  0  0  0  0
  129.6676  122.6653   63.6883 H   0  0  0  0  0  0  0  0  0  0  0  0
  129.2294  124.3303   63.0191 H   0  0  0  0  0  0  0  0  0  0  0  0
  127.6822  121.7310   62.5928 H   0  0  0  0  0  0  0  0  0  0  0  0
  127.1656  123.1250   63.5659 H   0  0  0  0  0  0  0  0  0  0  0  0
  125.1971  129.0880   59.7359 H   0  0  0  0  0  0  0  0  0  0  0  0
  125.4013  127.3214   59.7325 H   0  0  0  0  0  0  0  0  0  0  0  0
  124.3889  128.1396   61.8916 H   0  0  0  0  0  0  0  0  0  0  0  0
  126.0336  127.3830   62.1451 H   0  0  0  0  0  0  0  0  0  0  0  0
  1  2  1  0
  2  3  2  0
  2  4  1  0
  4  5  1  0
  5  6  1  0
  6  7  2  0
  7  8  1  0
  8  9  2  0
  9 10  1  0
 10 11  1  0
 10 12  1  0
 10 13  1  0
  9 14  1  0
 14 15  2  0
  5 16  1  0
 16 17  1  0
 17 18  1  0
 18 19  1  0
 19 20  2  0
 19 21  1  0
 21 22  1  0
 22 23  1  0
 23 24  2  0
 23 25  1  0
 25 26  1  0
 26 27  1  0
 27 28  1  0
 28 29  1  0
 29 30  1  0
 30 31  1  0
 30 32  2  0
 28 33  1  0
 33 34  2  0
 34 35  1  0
 35 36  2  0
 36 37  1  0
 37 38  1  0
 37 39  1  0
 37 40  1  0
 36 41  1  0
 41 42  2  0
 28 43  1  0
 43 44  1  0
 18 45  1  0
 45 46  1  0
 46  5  1  0
 15  6  1  0
 44 25  1  0
 42 33  1  0
  1 47  1  0
  1 48  1  0
  1 49  1  0
  4 50  1  0
  7 51  1  0
  8 52  1  0
 14 53  1  0
 15 54  1  0
 16 55  1  0
 16 56  1  0
 17 57  1  0
 17 58  1  0
 21 59  1  0
 21 60  1  0
 22 61  1  0
 22 62  1  0
 26 63  1  0
 26 64  1  0
 27 65  1  0
 27 66  1  0
 29 67  1  0
 31 68  1  0
 31 69  1  0
 31 70  1  0
 34 71  1  0
 35 72  1  0
 41 73  1  0
 42 74  1  0
 43 75  1  0
 43 76  1  0
 44 77  1  0
 44 78  1  0
 45 79  1  0
 45 80  1  0
 46 81  1  0
 46 82  1  0
M  END
>  <Binding energies>  (1) 
[-6.83]

>  <Ligand effiencies>  (1) 
[-0.14229166666666668]

>  <Interactions>  (1) 
["V-B:GLU:543:CB:9877, V-B:PRO:540:N:9855, V-B:TYR:539:CD2:9845, V-B:ASP:366:CG:8183, V-B:HIS:456:CE1:9040, V-B:TYR:539:CE2:9847, V-B:GLU:543:CD:9879, V-A:ASP:366:CG:3212, V-B:ARG:545:CZ:9897, H-B:ARG:545:NH2:9899, V-B:ARG:545:CG:9893, V-B:ARG:545:CD:9894, V-A:VAL:384:C:3396, V-A:SER:385:CA:3406, V-A:SER:385:CB:3408, V-B:ALA:541:CB:9863, V-A:LEU:475:CD2:4258, V-B:ALA:541:CA:9861, V-A:HIS:383:CE1:3393, V-A:PRO:482:CG:4326, V-B:PRO:540:CA:9854, V-B:TYR:539:CB:9842, V-A:PRO:482:CB:4325, H-A:ASP:366:OD2:3214, V-A:HIS:383:CG:3389, V-A:THR:477:CG2:4272, V-B:TYR:484:CZ:9317, V-B:ARG:545:CB:9892, V-B:ARG:545:CA:9890, H-B:ASP:366:OD2:8185, V-B:TYR:484:CE2:9316, V-B:ILE:455:C:9022"]

$$$$
RR29_Rahimova_2017
     RDKit          3D

 35 36  0  0  0  0  0  0  0  0999 V2000
  128.0340  126.5340   71.4640 C   0  0  0  0  0  0  0  0  0  0  0  0
  128.3700  126.7150   69.9910 C   0  0  0  0  0  0  0  0  0  0  0  0
  127.6110  127.8920   69.3390 C   0  0  0  0  0  0  0  0  0  0  0  0
  126.1020  127.5960   69.2090 C   0  0  0  0  0  0  0  0  0  0  0  0
  125.4550  128.3820   68.0790 C   0  0  0  0  0  0  0  0  0  0  0  0
  124.2690  129.1060   68.3150 C   0  0  0  0  0  0  0  0  0  0  0  0
  123.6570  129.8380   67.2880 C   0  0  0  0  0  0  0  0  0  0  0  0
  124.2570  129.8120   66.0340 C   0  0  0  0  0  0  0  0  0  0  0  0
  125.4060  129.1110   65.7990 C   0  0  0  0  0  0  0  0  0  0  0  0
  126.0410  128.3840   66.8010 C   0  0  0  0  0  0  0  0  0  0  0  0
  125.7850  129.2880   64.5060 O   0  0  0  0  0  0  0  0  0  0  0  0
  124.7160  129.9520   63.8860 C   0  0  0  0  0  0  0  0  0  0  0  0
  123.8800  130.4520   64.8960 O   0  0  0  0  0  0  0  0  0  0  0  0
  129.2050  125.9080   69.4480 N   0  0  0  0  0  0  0  0  0  0  0  0
  129.4460  126.0160   68.0960 N   0  0  0  0  0  0  0  0  0  0  0  0
  130.2540  126.9380   67.5480 C   0  0  0  0  0  0  0  0  0  0  0  0
  130.9410  127.8540   68.2330 N   0  0  0  0  0  0  0  0  0  0  0  0
  130.3810  126.9410   66.2290 N   0  0  0  0  0  0  0  0  0  0  0  0
  128.8369  126.9665   72.0791 H   0  0  0  0  0  0  0  0  0  0  0  0
  127.0852  127.0430   71.6889 H   0  0  0  0  0  0  0  0  0  0  0  0
  127.9371  125.4616   71.6889 H   0  0  0  0  0  0  0  0  0  0  0  0
  127.7459  128.7904   69.9592 H   0  0  0  0  0  0  0  0  0  0  0  0
  128.0186  128.0454   68.3289 H   0  0  0  0  0  0  0  0  0  0  0  0
  125.9677  126.5216   69.0148 H   0  0  0  0  0  0  0  0  0  0  0  0
  125.6176  127.8978   70.1493 H   0  0  0  0  0  0  0  0  0  0  0  0
  123.8177  129.0965   69.3181 H   0  0  0  0  0  0  0  0  0  0  0  0
  122.7359  130.4119   67.4676 H   0  0  0  0  0  0  0  0  0  0  0  0
  126.9697  127.8298   66.6002 H   0  0  0  0  0  0  0  0  0  0  0  0
  125.0962  130.7805   63.2703 H   0  0  0  0  0  0  0  0  0  0  0  0
  124.1609  129.2622   63.2332 H   0  0  0  0  0  0  0  0  0  0  0  0
  128.9540  125.3710   67.4950 H   0  0  0  0  0  0  0  0  0  0  0  0
  131.7480  128.2980   67.8190 H   0  0  0  0  0  0  0  0  0  0  0  0
  130.6540  128.0910   69.1720 H   0  0  0  0  0  0  0  0  0  0  0  0
  129.6720  126.5110   65.6520 H   0  0  0  0  0  0  0  0  0  0  0  0
  131.1840  127.3790   65.8020 H   0  0  0  0  0  0  0  0  0  0  0  0
  1  2  1  0
  2  3  1  0
  3  4  1  0
  4  5  1  0
  5  6  2  0
  6  7  1  0
  7  8  2  0
  8  9  1  0
  9 10  2  0
  9 11  1  0
 11 12  1  0
 12 13  1  0
  2 14  2  0
 14 15  1  0
 15 16  1  0
 16 17  1  0
 16 18  2  0
 10  5  1  0
 13  8  1  0
  1 19  1  0
  1 20  1  0
  1 21  1  0
  3 22  1  0
  3 23  1  0
  4 24  1  0
  4 25  1  0
  6 26  1  0
  7 27  1  0
 10 28  1  0
 12 29  1  0
 12 30  1  0
 15 31  1  0
 17 32  1  0
 17 33  1  0
 18 34  1  0
 18 35  1  0
M  CHG  1  18   1
M  END
>  <Binding energies>  (1) 
[-7.95]

>  <Ligand effiencies>  (1) 
[-0.3456521739130435]

>  <Interactions>  (1) 
["V-B:GLU:543:CB:9877, V-A:GLU:543:CB:4905, H-B:GLY:454:N:9020, V-B:GLY:454:CA:9019, V-B:HIS:456:CE1:9040, V-A:HIS:456:CE1:4069, V-A:GLU:543:CD:4907, V-B:GLU:543:CD:9879, V-B:GLU:543:CG:9878, V-B:ARG:545:CZ:9897, H-B:ARG:545:NH2:9899, V-B:ARG:545:CG:9893, V-B:ARG:545:CD:9894, V-A:TYR:484:CE2:4345, H-A:GLU:543:OE1:4908, H-A:GLU:543:OE2:4909, H-B:GLU:543:OE2:9881, H-A:HIS:456:NE2:4070, V-B:ARG:545:CB:9892, V-B:GLY:454:C:9017"]

$$$$
RR29_Rahimova_2017-again1
     RDKit          3D

 34 35  0  0  0  0  0  0  0  0999 V2000
  129.3850  122.9170   63.9370 C   0  0  0  0  0  0  0  0  0  0  0  0
  128.4860  122.7410   62.7220 C   0  0  0  0  0  0  0  0  0  0  0  0
  129.2070  122.1200   61.5100 C   0  0  0  0  0  0  0  0  0  0  0  0
  129.6140  123.1970   60.4820 C   0  0  0  0  0  0  0  0  0  0  0  0
  128.5370  123.4280   59.4320 C   0  0  0  0  0  0  0  0  0  0  0  0
  128.0210  124.7230   59.2290 C   0  0  0  0  0  0  0  0  0  0  0  0
  127.0290  124.9590   58.2670 C   0  0  0  0  0  0  0  0  0  0  0  0
  126.5720  123.8700   57.5330 C   0  0  0  0  0  0  0  0  0  0  0  0
  127.0680  122.6110   57.7280 C   0  0  0  0  0  0  0  0  0  0  0  0
  128.0580  122.3500   58.6680 C   0  0  0  0  0  0  0  0  0  0  0  0
  126.4700  121.7540   56.8590 O   0  0  0  0  0  0  0  0  0  0  0  0
  125.4290  122.4820   56.2650 C   0  0  0  0  0  0  0  0  0  0  0  0
  125.6490  123.8410   56.5360 O   0  0  0  0  0  0  0  0  0  0  0  0
  127.2590  123.1210   62.7890 N   0  0  0  0  0  0  0  0  0  0  0  0
  126.5360  122.9810   61.7250 N   0  0  0  0  0  0  0  0  0  0  0  0
  125.7420  123.9410   61.4200 C   0  0  0  0  0  0  0  0  0  0  0  0
  125.5440  125.1680   62.1130 N   0  0  0  0  0  0  0  0  0  0  0  0
  124.9210  123.8760   60.2740 N   0  0  0  0  0  0  0  0  0  0  0  0
  128.7890  122.8003   64.8541 H   0  0  0  0  0  0  0  0  0  0  0  0
  130.1805  122.1575   63.9176 H   0  0  0  0  0  0  0  0  0  0  0  0
  129.8354  123.9204   63.9176 H   0  0  0  0  0  0  0  0  0  0  0  0
  130.1109  121.5998   61.8597 H   0  0  0  0  0  0  0  0  0  0  0  0
  128.5165  121.4180   61.0198 H   0  0  0  0  0  0  0  0  0  0  0  0
  129.7984  124.1421   61.0138 H   0  0  0  0  0  0  0  0  0  0  0  0
  130.5186  122.8445   59.9649 H   0  0  0  0  0  0  0  0  0  0  0  0
  128.4014  125.5598   59.8332 H   0  0  0  0  0  0  0  0  0  0  0  0
  126.6268  125.9689   58.0989 H   0  0  0  0  0  0  0  0  0  0  0  0
  128.4535  121.3333   58.8093 H   0  0  0  0  0  0  0  0  0  0  0  0
  125.4262  122.3125   55.1781 H   0  0  0  0  0  0  0  0  0  0  0  0
  124.4568  122.1617   56.6677 H   0  0  0  0  0  0  0  0  0  0  0  0
  126.0430  125.3900   62.9630 H   0  0  0  0  0  0  0  0  0  0  0  0
  124.8900  125.8690   61.7990 H   0  0  0  0  0  0  0  0  0  0  0  0
  124.9220  123.0770   59.6580 H   0  0  0  0  0  0  0  0  0  0  0  0
  124.2870  124.6190   60.0180 H   0  0  0  0  0  0  0  0  0  0  0  0
  1  2  1  0
  2  3  1  0
  3  4  1  0
  4  5  1  0
  5  6  2  0
  6  7  1  0
  7  8  2  0
  8  9  1  0
  9 10  2  0
  9 11  1  0
 11 12  1  0
 12 13  1  0
  2 14  2  0
 14 15  1  0
 15 16  2  0
 16 17  1  0
 16 18  1  0
 10  5  1  0
 13  8  1  0
  1 19  1  0
  1 20  1  0
  1 21  1  0
  3 22  1  0
  3 23  1  0
  4 24  1  0
  4 25  1  0
  6 26  1  0
  7 27  1  0
 10 28  1  0
 12 29  1  0
 12 30  1  0
 17 31  1  0
 17 32  1  0
 18 33  1  0
 18 34  1  0
M  END
>  <Binding energies>  (1) 
[-6.83]

>  <Ligand effiencies>  (1) 
[-0.3104545454545455]

>  <Interactions>  (1) 
["V-B:PRO:540:CD:9858, V-B:PRO:540:N:9855, V-B:TYR:531:CE2:9764, H-B:TYR:539:N:9841, V-B:LEU:363:CD1:8159, V-B:MET:535:CE:9806, V-B:TYR:539:CD2:9845, V-B:TYR:539:C:9838, V-B:PRO:540:CB:9856, V-B:TYR:539:CE2:9847, V-B:TYR:539:CG:9843, H-B:TYR:531:OH:9766, V-B:ARG:545:CZ:9897, V-B:ALA:541:CB:9863, V-B:ALA:541:CA:9861, V-B:PRO:540:CA:9854, H-B:ALA:541:N:9862, H-B:GLU:543:OE2:9881, H-B:ASP:366:OD2:8185, H-B:GLU:543:OE1:9880, V-B:ILE:538:CG2:9834, H-B:ASP:366:OD1:8184"]

$$$$
RR2_Rahimova_2017
     RDKit          3D

 76 80  0  0  0  0  0  0  0  0999 V2000
  128.9510  126.4750   69.2330 C   0  0  0  0  0  0  0  0  0  0  0  0
  127.9000  127.3290   69.6700 O   0  0  0  0  0  0  0  0  0  0  0  0
  127.1090  127.9610   68.7290 C   0  0  0  0  0  0  0  0  0  0  0  0
  125.7090  128.0050   68.7740 C   0  0  0  0  0  0  0  0  0  0  0  0
  124.9940  128.6630   67.7780 C   0  0  0  0  0  0  0  0  0  0  0  0
  125.6580  129.2890   66.7140 C   0  0  0  0  0  0  0  0  0  0  0  0
  124.8560  129.9940   65.6370 C   0  0  0  0  0  0  0  0  0  0  0  0
  123.8060  129.4950   65.2160 O   0  0  0  0  0  0  0  0  0  0  0  0
  125.3720  131.1600   65.1850 N   0  0  0  0  0  0  0  0  0  0  0  0
  124.7250  131.8000   64.1330 N   0  0  0  0  0  0  0  0  0  0  0  0
  125.3990  132.7490   63.4520 C   0  0  0  0  0  0  0  0  0  0  0  0
  126.4840  133.2260   63.7960 O   0  0  0  0  0  0  0  0  0  0  0  0
  124.7390  133.2230   62.1500 C   0  0  0  0  0  0  0  0  0  0  0  0
  124.4730  131.9160   60.8970 S   0  0  0  0  0  0  0  0  0  0  0  0
  125.3500  130.5720   61.6360 C   0  0  0  0  0  0  0  0  0  0  0  0
  124.7780  129.6860   62.4120 N   0  0  0  0  0  0  0  0  0  0  0  0
  125.7680  128.8290   62.8690 N   0  0  0  0  0  0  0  0  0  0  0  0
  126.9010  129.2110   62.3270 C   0  0  0  0  0  0  0  0  0  0  0  0
  128.2020  128.5170   62.5680 C   0  0  0  0  0  0  0  0  0  0  0  0
  128.7030  128.4120   63.8690 C   0  0  0  0  0  0  0  0  0  0  0  0
  129.9170  127.7750   64.1030 C   0  0  0  0  0  0  0  0  0  0  0  0
  130.6360  127.2190   63.0380 C   0  0  0  0  0  0  0  0  0  0  0  0
  131.8700  126.5750   63.2130 N   0  0  0  0  0  0  0  0  0  0  0  0
  132.1750  125.2740   64.3850 S   0  0  0  0  0  0  0  0  0  0  0  0
  131.2010  125.4680   65.4660 O   0  0  0  0  0  0  0  0  0  0  0  0
  133.6150  125.2430   64.6660 O   0  0  0  0  0  0  0  0  0  0  0  0
  131.7140  123.7630   63.5400 C   0  0  0  0  0  0  0  0  0  0  0  0
  130.3880  123.3240   63.5400 C   0  0  0  0  0  0  0  0  0  0  0  0
  130.0530  122.1390   62.8910 C   0  0  0  0  0  0  0  0  0  0  0  0
  131.0400  121.3980   62.2370 C   0  0  0  0  0  0  0  0  0  0  0  0
  130.6750  120.0990   61.5420 C   0  0  0  0  0  0  0  0  0  0  0  0
  132.3660  121.8380   62.2410 C   0  0  0  0  0  0  0  0  0  0  0  0
  132.7020  123.0220   62.8920 C   0  0  0  0  0  0  0  0  0  0  0  0
  130.1330  127.3220   61.7400 C   0  0  0  0  0  0  0  0  0  0  0  0
  128.9220  127.9650   61.5050 C   0  0  0  0  0  0  0  0  0  0  0  0
  126.7070  130.3260   61.5280 N   0  0  0  0  0  0  0  0  0  0  0  0
  127.6670  131.0670   60.8100 C   0  0  0  0  0  0  0  0  0  0  0  0
  128.5670  131.8870   61.4910 C   0  0  0  0  0  0  0  0  0  0  0  0
  129.5160  132.6120   60.7760 C   0  0  0  0  0  0  0  0  0  0  0  0
  129.5740  132.5280   59.3840 C   0  0  0  0  0  0  0  0  0  0  0  0
  130.5480  133.2850   58.7630 O   0  0  0  0  0  0  0  0  0  0  0  0
  130.7150  133.1820   57.3520 C   0  0  0  0  0  0  0  0  0  0  0  0
  128.6640  131.7000   58.7070 C   0  0  0  0  0  0  0  0  0  0  0  0
  127.7150  130.9710   59.4170 C   0  0  0  0  0  0  0  0  0  0  0  0
  127.0600  129.2460   66.6790 C   0  0  0  0  0  0  0  0  0  0  0  0
  127.7730  128.5880   67.6770 C   0  0  0  0  0  0  0  0  0  0  0  0
  129.4690  126.0541   70.1074 H   0  0  0  0  0  0  0  0  0  0  0  0
  128.5318  125.6583   68.6269 H   0  0  0  0  0  0  0  0  0  0  0  0
  129.6646  127.0524   68.6269 H   0  0  0  0  0  0  0  0  0  0  0  0
  125.1725  127.5168   69.6010 H   0  0  0  0  0  0  0  0  0  0  0  0
  123.8954  128.6922   67.8261 H   0  0  0  0  0  0  0  0  0  0  0  0
  126.3680  131.3250   65.1660 H   0  0  0  0  0  0  0  0  0  0  0  0
  123.9770  131.2520   63.7310 H   0  0  0  0  0  0  0  0  0  0  0  0
  123.7607  133.6581   62.4021 H   0  0  0  0  0  0  0  0  0  0  0  0
  125.4348  133.9451   61.6979 H   0  0  0  0  0  0  0  0  0  0  0  0
  128.1349  128.8348   64.7107 H   0  0  0  0  0  0  0  0  0  0  0  0
  130.3131  127.7079   65.1270 H   0  0  0  0  0  0  0  0  0  0  0  0
  132.6330  126.8520   62.6120 H   0  0  0  0  0  0  0  0  0  0  0  0
  129.6116  123.9124   64.0508 H   0  0  0  0  0  0  0  0  0  0  0  0
  129.0111  121.7862   62.8932 H   0  0  0  0  0  0  0  0  0  0  0  0
  130.4584  119.3280   62.2961 H   0  0  0  0  0  0  0  0  0  0  0  0
  129.7864  120.2567   60.9131 H   0  0  0  0  0  0  0  0  0  0  0  0
  131.5157  119.7708   60.9131 H   0  0  0  0  0  0  0  0  0  0  0  0
  133.1432  121.2501   61.7307 H   0  0  0  0  0  0  0  0  0  0  0  0
  133.7447  123.3723   62.8952 H   0  0  0  0  0  0  0  0  0  0  0  0
  130.6970  126.8926   60.8988 H   0  0  0  0  0  0  0  0  0  0  0  0
  128.5301  128.0391   60.4798 H   0  0  0  0  0  0  0  0  0  0  0  0
  128.5269  131.9603   62.5878 H   0  0  0  0  0  0  0  0  0  0  0  0
  130.2269  133.2572   61.3130 H   0  0  0  0  0  0  0  0  0  0  0  0
  131.6323  132.6163   57.1317 H   0  0  0  0  0  0  0  0  0  0  0  0
  129.8494  132.6607   56.9174 H   0  0  0  0  0  0  0  0  0  0  0  0
  130.7923  134.1895   56.9174 H   0  0  0  0  0  0  0  0  0  0  0  0
  128.7016  131.6274   57.6100 H   0  0  0  0  0  0  0  0  0  0  0  0
  127.0053  130.3216   58.8836 H   0  0  0  0  0  0  0  0  0  0  0  0
  127.6002  129.7365   65.8559 H   0  0  0  0  0  0  0  0  0  0  0  0
  128.8719  128.5628   67.6346 H   0  0  0  0  0  0  0  0  0  0  0  0
  1  2  1  0
  2  3  1  0
  3  4  2  0
  4  5  1  0
  5  6  2  0
  6  7  1  0
  7  8  2  0
  7  9  1  0
  9 10  1  0
 10 11  1  0
 11 12  2  0
 11 13  1  0
 13 14  1  0
 14 15  1  0
 15 16  2  0
 16 17  1  0
 17 18  2  0
 18 19  1  0
 19 20  2  0
 20 21  1  0
 21 22  2  0
 22 23  1  0
 23 24  1  0
 24 25  2  0
 24 26  2  0
 24 27  1  0
 27 28  2  0
 28 29  1  0
 29 30  2  0
 30 31  1  0
 30 32  1  0
 32 33  2  0
 22 34  1  0
 34 35  2  0
 18 36  1  0
 36 37  1  0
 37 38  2  0
 38 39  1  0
 39 40  2  0
 40 41  1  0
 41 42  1  0
 40 43  1  0
 43 44  2  0
  6 45  1  0
 45 46  2  0
 46  3  1  0
 36 15  1  0
 44 37  1  0
 35 19  1  0
 33 27  1  0
  1 47  1  0
  1 48  1  0
  1 49  1  0
  4 50  1  0
  5 51  1  0
  9 52  1  0
 10 53  1  0
 13 54  1  0
 13 55  1  0
 20 56  1  0
 21 57  1  0
 23 58  1  0
 28 59  1  0
 29 60  1  0
 31 61  1  0
 31 62  1  0
 31 63  1  0
 32 64  1  0
 33 65  1  0
 34 66  1  0
 35 67  1  0
 38 68  1  0
 39 69  1  0
 42 70  1  0
 42 71  1  0
 42 72  1  0
 43 73  1  0
 44 74  1  0
 45 75  1  0
 46 76  1  0
M  END
>  <Binding energies>  (1) 
[-8.71]

>  <Ligand effiencies>  (1) 
[-0.17775510204081635]

>  <Interactions>  (1) 
["V-B:GLU:543:CB:9877, H-B:TYR:484:OH:9318, H-B:GLY:454:N:9020, V-A:PRO:540:CA:4882, V-B:TYR:539:CD2:9845, V-B:GLY:454:CA:9019, V-B:HIS:456:CE1:9040, V-A:HIS:456:CE1:4069, V-A:GLU:543:CD:4907, V-B:LEU:475:CD1:9228, V-B:GLU:543:CD:9879, V-A:ASP:366:CG:3212, H-B:ARG:545:NH1:9898, H-B:ARG:545:NH2:9899, V-B:ARG:545:CG:9893, V-B:ARG:545:CD:9894, V-A:ARG:545:CZ:4925, H-A:GLY:454:N:4049, V-B:ALA:541:CB:9863, H-A:ARG:545:NH2:4927, V-A:LEU:475:CD2:4258, H-A:TYR:484:OH:4347, H-A:ASP:366:OD1:3213, H-A:ASP:366:OD2:3214, V-A:TYR:539:C:4866, V-A:PRO:540:N:4883, H-B:ARG:545:NE:9895, V-B:SER:385:CB:8379"]

$$$$
RR30_Rahimova_2017
     RDKit          3D

 29 30  0  0  0  0  0  0  0  0999 V2000
  124.0360  129.4710   67.1780 C   0  0  0  0  0  0  0  0  0  0  0  0
  125.0360  128.7460   68.0900 C   0  0  0  0  0  0  0  0  0  0  0  0
  126.4700  128.9920   67.6770 C   0  0  0  0  0  0  0  0  0  0  0  0
  126.9150  129.7480   66.7040 N   0  0  0  0  0  0  0  0  0  0  0  0
  128.3020  129.6290   66.7310 N   0  0  0  0  0  0  0  0  0  0  0  0
  128.5760  128.8040   67.7100 C   0  0  0  0  0  0  0  0  0  0  0  0
  130.1660  128.2660   68.2510 S   0  0  0  0  0  0  0  0  0  0  0  0
  129.8950  126.4660   68.2760 C   0  0  0  0  0  0  0  0  0  0  0  0
  130.6310  125.7540   67.1380 C   0  0  0  0  0  0  0  0  0  0  0  0
  130.2270  124.6550   66.7540 O   0  0  0  0  0  0  0  0  0  0  0  0
  131.7200  126.3900   66.6500 N   0  0  0  0  0  0  0  0  0  0  0  0
  132.5450  125.9440   65.6280 C   0  0  0  0  0  0  0  0  0  0  0  0
  133.8570  125.8810   65.6100 N   0  0  0  0  0  0  0  0  0  0  0  0
  134.3460  125.3800   64.4100 N   0  0  0  0  0  0  0  0  0  0  0  0
  133.4010  125.0760   63.5500 C   0  0  0  0  0  0  0  0  0  0  0  0
  133.6830  124.5170   62.1740 C   0  0  0  0  0  0  0  0  0  0  0  0
  131.8000  125.3860   64.1620 S   0  0  0  0  0  0  0  0  0  0  0  0
  127.4640  128.3650   68.3550 O   0  0  0  0  0  0  0  0  0  0  0  0
  123.2984  130.0057   67.7945 H   0  0  0  0  0  0  0  0  0  0  0  0
  124.5737  130.1905   66.5430 H   0  0  0  0  0  0  0  0  0  0  0  0
  123.5194  128.7362   66.5430 H   0  0  0  0  0  0  0  0  0  0  0  0
  124.8983  129.1034   69.1212 H   0  0  0  0  0  0  0  0  0  0  0  0
  124.8429  127.6660   68.0108 H   0  0  0  0  0  0  0  0  0  0  0  0
  130.2557  126.0668   69.2355 H   0  0  0  0  0  0  0  0  0  0  0  0
  128.8177  126.2851   68.1465 H   0  0  0  0  0  0  0  0  0  0  0  0
  131.9720  127.2750   67.0660 H   0  0  0  0  0  0  0  0  0  0  0  0
  134.1766  123.5386   62.2698 H   0  0  0  0  0  0  0  0  0  0  0  0
  132.7369  124.3983   61.6255 H   0  0  0  0  0  0  0  0  0  0  0  0
  134.3407  125.2073   61.6255 H   0  0  0  0  0  0  0  0  0  0  0  0
  1  2  1  0
  2  3  1  0
  3  4  2  0
  4  5  1  0
  5  6  2  0
  6  7  1  0
  7  8  1  0
  8  9  1  0
  9 10  2  0
  9 11  1  0
 11 12  1  0
 12 13  2  0
 13 14  1  0
 14 15  2  0
 15 16  1  0
 15 17  1  0
  6 18  1  0
 18  3  1  0
 17 12  1  0
  1 19  1  0
  1 20  1  0
  1 21  1  0
  2 22  1  0
  2 23  1  0
  8 24  1  0
  8 25  1  0
 11 26  1  0
 16 27  1  0
 16 28  1  0
 16 29  1  0
M  END
>  <Binding energies>  (1) 
[-6.33]

>  <Ligand effiencies>  (1) 
[-0.3331578947368421]

>  <Interactions>  (1) 
["H-B:TYR:484:OH:9318, V-A:GLU:543:CB:4905, V-B:HIS:456:CE1:9040, V-A:HIS:456:CE1:4069, V-A:GLU:543:CG:4906, V-A:ASP:366:CG:3212, V-B:ARG:545:CG:9893, V-B:ARG:545:CD:9894, V-A:TYR:484:CZ:4346, H-A:ARG:545:NE:4923, V-A:ARG:545:CZ:4925, H-A:ARG:545:NH1:4926, V-A:TYR:484:CE2:4345, H-A:GLY:454:N:4049, H-A:ARG:545:NH2:4927, V-A:ILE:369:CD1:3238, H-A:TYR:484:OH:4347, H-A:GLU:543:OE1:4908"]

$$$$
RR31_Rahimova_2017
     RDKit          3D

 44 45  0  0  0  0  0  0  0  0999 V2000
  132.4200  117.5000   59.2190 C   0  0  0  0  0  0  0  0  0  0  0  0
  132.4840  118.7390   60.1030 C   0  0  0  0  0  0  0  0  0  0  0  0
  133.5790  119.5970   59.9940 C   0  0  0  0  0  0  0  0  0  0  0  0
  133.6650  120.7400   60.7860 C   0  0  0  0  0  0  0  0  0  0  0  0
  132.6540  121.0650   61.7050 C   0  0  0  0  0  0  0  0  0  0  0  0
  132.7310  122.2010   62.5130 N   0  0  0  0  0  0  0  0  0  0  0  0
  132.2930  122.1900   63.9220 C   0  0  0  0  0  0  0  0  0  0  0  0
  132.0650  123.5970   64.5230 C   0  0  0  0  0  0  0  0  0  0  0  0
  133.2670  124.4250   64.3890 N   0  0  0  0  0  0  0  0  0  0  0  0
  133.0930  125.7540   64.9820 C   0  0  0  0  0  0  0  0  0  0  0  0
  131.6550  126.0110   65.4750 C   0  0  0  0  0  0  0  0  0  0  0  0
  130.8410  126.8580   64.4830 C   0  0  0  0  0  0  0  0  0  0  0  0
  129.4930  127.2410   65.1030 N   0  0  0  0  0  0  0  0  0  0  0  0
  133.5520  124.5560   62.9610 C   0  0  0  0  0  0  0  0  0  0  0  0
  133.8280  123.1730   62.3270 C   0  0  0  0  0  0  0  0  0  0  0  0
  131.5640  120.1880   61.8110 C   0  0  0  0  0  0  0  0  0  0  0  0
  131.4660  119.0360   61.0220 C   0  0  0  0  0  0  0  0  0  0  0  0
  130.2570  118.1240   61.1870 C   0  0  0  0  0  0  0  0  0  0  0  0
  132.3736  116.6008   59.8508 H   0  0  0  0  0  0  0  0  0  0  0  0
  131.5232  117.5486   58.5839 H   0  0  0  0  0  0  0  0  0  0  0  0
  133.3171  117.4560   58.5839 H   0  0  0  0  0  0  0  0  0  0  0  0
  134.3811  119.3690   59.2767 H   0  0  0  0  0  0  0  0  0  0  0  0
  134.5401  121.3995   60.6898 H   0  0  0  0  0  0  0  0  0  0  0  0
  131.3485  121.6298   63.9859 H   0  0  0  0  0  0  0  0  0  0  0  0
  133.1030  121.7243   64.5026 H   0  0  0  0  0  0  0  0  0  0  0  0
  131.2320  124.0835   63.9945 H   0  0  0  0  0  0  0  0  0  0  0  0
  131.8310  123.4883   65.5923 H   0  0  0  0  0  0  0  0  0  0  0  0
  133.7787  125.8487   65.8369 H   0  0  0  0  0  0  0  0  0  0  0  0
  133.3089  126.4946   64.1979 H   0  0  0  0  0  0  0  0  0  0  0  0
  131.1497  125.0436   65.6119 H   0  0  0  0  0  0  0  0  0  0  0  0
  131.7181  126.5686   66.4211 H   0  0  0  0  0  0  0  0  0  0  0  0
  131.4022  127.7719   64.2384 H   0  0  0  0  0  0  0  0  0  0  0  0
  130.6643  126.2725   63.5687 H   0  0  0  0  0  0  0  0  0  0  0  0
  129.4100  128.2470   65.1590 H   0  0  0  0  0  0  0  0  0  0  0  0
  129.4160  126.8570   66.0340 H   0  0  0  0  0  0  0  0  0  0  0  0
  128.7350  126.8840   64.5400 H   0  0  0  0  0  0  0  0  0  0  0  0
  132.6866  125.0156   62.4612 H   0  0  0  0  0  0  0  0  0  0  0  0
  134.4452  125.1857   62.8361 H   0  0  0  0  0  0  0  0  0  0  0  0
  133.9884  123.3123   61.2477 H   0  0  0  0  0  0  0  0  0  0  0  0
  134.7117  122.7590   62.8346 H   0  0  0  0  0  0  0  0  0  0  0  0
  130.7652  120.4117   62.5334 H   0  0  0  0  0  0  0  0  0  0  0  0
  130.0557  117.9721   62.2577 H   0  0  0  0  0  0  0  0  0  0  0  0
  129.3803  118.5877   60.7112 H   0  0  0  0  0  0  0  0  0  0  0  0
  130.4620  117.1536   60.7112 H   0  0  0  0  0  0  0  0  0  0  0  0
  1  2  1  0
  2  3  2  0
  3  4  1  0
  4  5  2  0
  5  6  1  0
  6  7  1  0
  7  8  1  0
  8  9  1  0
  9 10  1  0
 10 11  1  0
 11 12  1  0
 12 13  1  0
  9 14  1  0
 14 15  1  0
  5 16  1  0
 16 17  2  0
 17 18  1  0
 17  2  1  0
 15  6  1  0
  1 19  1  0
  1 20  1  0
  1 21  1  0
  3 22  1  0
  4 23  1  0
  7 24  1  0
  7 25  1  0
  8 26  1  0
  8 27  1  0
 10 28  1  0
 10 29  1  0
 11 30  1  0
 11 31  1  0
 12 32  1  0
 12 33  1  0
 13 34  1  0
 13 35  1  0
 13 36  1  0
 14 37  1  0
 14 38  1  0
 15 39  1  0
 15 40  1  0
 16 41  1  0
 18 42  1  0
 18 43  1  0
 18 44  1  0
M  CHG  1  13   1
M  END
>  <Binding energies>  (1) 
[-7.89]

>  <Ligand effiencies>  (1) 
[-0.3757142857142857]

>  <Interactions>  (1) 
["V-B:TYR:539:CD2:9845, V-B:TYR:539:C:9838, V-A:GLU:543:CD:4907, V-B:TYR:539:CE2:9847, V-B:GLU:543:CD:9879, V-A:ASP:366:CG:3212, V-A:ILE:369:CG2:3236, V-A:ARG:545:CZ:4925, V-A:SER:385:CA:3406, H-A:GLY:454:N:4049, V-B:ALA:541:CB:9863, V-A:ILE:369:CD1:3238, V-A:LEU:475:CD2:4258, V-A:HIS:383:CE1:3393, V-A:PRO:482:CG:4326, V-B:TYR:539:CB:9842, H-A:TYR:484:OH:4347, V-A:PRO:482:CB:4325, V-A:LEU:373:CD2:3280, V-A:GLY:454:CA:4048, V-A:LEU:373:CD1:3279, H-A:GLU:543:OE1:4908, H-A:GLU:543:OE2:4909, H-B:GLU:543:OE2:9881, H-B:GLU:543:OE1:9880"]

$$$$
RR32_Rahimova_2017
     RDKit          3D

 37 39  0  0  0  0  0  0  0  0999 V2000
  134.3070  119.0080   59.2280 C   0  0  0  0  0  0  0  0  0  0  0  0
  133.1910  119.4540   60.1670 C   0  0  0  0  0  0  0  0  0  0  0  0
  133.3410  120.6660   60.8420 C   0  0  0  0  0  0  0  0  0  0  0  0
  132.3420  121.1070   61.7040 C   0  0  0  0  0  0  0  0  0  0  0  0
  132.4950  122.3100   62.3720 N   0  0  0  0  0  0  0  0  0  0  0  0
  132.3670  122.2890   63.8400 C   0  0  0  0  0  0  0  0  0  0  0  0
  132.3720  123.7000   64.4740 C   0  0  0  0  0  0  0  0  0  0  0  0
  133.6030  124.4070   64.1230 N   0  0  0  0  0  0  0  0  0  0  0  0
  133.6230  125.7250   64.7460 C   0  0  0  0  0  0  0  0  0  0  0  0
  133.6510  124.5340   62.6680 C   0  0  0  0  0  0  0  0  0  0  0  0
  133.6610  123.1360   62.0060 C   0  0  0  0  0  0  0  0  0  0  0  0
  131.2050  120.3990   61.9290 N   0  0  0  0  0  0  0  0  0  0  0  0
  131.0300  119.2110   61.2880 C   0  0  0  0  0  0  0  0  0  0  0  0
  129.8360  118.4940   61.5440 C   0  0  0  0  0  0  0  0  0  0  0  0
  129.6040  117.2750   60.9170 C   0  0  0  0  0  0  0  0  0  0  0  0
  130.5390  116.7470   60.0340 C   0  0  0  0  0  0  0  0  0  0  0  0
  131.7220  117.4270   59.7610 C   0  0  0  0  0  0  0  0  0  0  0  0
  132.0030  118.6790   60.3810 C   0  0  0  0  0  0  0  0  0  0  0  0
  135.1682  118.6638   59.8195 H   0  0  0  0  0  0  0  0  0  0  0  0
  133.9455  118.1852   58.5936 H   0  0  0  0  0  0  0  0  0  0  0  0
  134.6121  119.8533   58.5936 H   0  0  0  0  0  0  0  0  0  0  0  0
  134.2472  121.2715   60.6929 H   0  0  0  0  0  0  0  0  0  0  0  0
  131.4210  121.7921   64.1011 H   0  0  0  0  0  0  0  0  0  0  0  0
  133.2406  121.7504   64.2359 H   0  0  0  0  0  0  0  0  0  0  0  0
  131.5074  124.2689   64.1013 H   0  0  0  0  0  0  0  0  0  0  0  0
  132.3138  123.6021   65.5681 H   0  0  0  0  0  0  0  0  0  0  0  0
  133.6213  125.6134   65.8403 H   0  0  0  0  0  0  0  0  0  0  0  0
  134.5294  126.2644   64.4339 H   0  0  0  0  0  0  0  0  0  0  0  0
  132.7334  126.2917   64.4339 H   0  0  0  0  0  0  0  0  0  0  0  0
  132.7680  125.0922   62.3233 H   0  0  0  0  0  0  0  0  0  0  0  0
  134.5696  125.0694   62.3861 H   0  0  0  0  0  0  0  0  0  0  0  0
  133.6676  123.2667   60.9138 H   0  0  0  0  0  0  0  0  0  0  0  0
  134.5584  122.6112   62.3654 H   0  0  0  0  0  0  0  0  0  0  0  0
  129.0897  118.9028   62.2411 H   0  0  0  0  0  0  0  0  0  0  0  0
  128.6739  116.7243   61.1211 H   0  0  0  0  0  0  0  0  0  0  0  0
  130.3415  115.7812   59.5458 H   0  0  0  0  0  0  0  0  0  0  0  0
  132.4487  116.9931   59.0584 H   0  0  0  0  0  0  0  0  0  0  0  0
  1  2  1  0
  2  3  2  0
  3  4  1  0
  4  5  1  0
  5  6  1  0
  6  7  1  0
  7  8  1  0
  8  9  1  0
  8 10  1  0
 10 11  1  0
  4 12  2  0
 12 13  1  0
 13 14  2  0
 14 15  1  0
 15 16  2  0
 16 17  1  0
 17 18  2  0
 18  2  1  0
 11  5  1  0
 18 13  1  0
  1 19  1  0
  1 20  1  0
  1 21  1  0
  3 22  1  0
  6 23  1  0
  6 24  1  0
  7 25  1  0
  7 26  1  0
  9 27  1  0
  9 28  1  0
  9 29  1  0
 10 30  1  0
 10 31  1  0
 11 32  1  0
 11 33  1  0
 14 34  1  0
 15 35  1  0
 16 36  1  0
 17 37  1  0
M  END
>  <Binding energies>  (1) 
[-6.42]

>  <Ligand effiencies>  (1) 
[-0.3566666666666667]

>  <Interactions>  (1) 
["V-B:TYR:539:CD2:9845, V-B:TYR:539:C:9838, V-B:TYR:539:CE2:9847, V-A:ASP:366:CG:3212, V-A:VAL:384:C:3396, V-A:ILE:369:CG2:3236, V-A:ARG:545:CZ:4925, V-A:SER:385:CA:3406, H-A:GLY:454:N:4049, V-B:ALA:541:CB:9863, V-A:ILE:369:CD1:3238, V-A:LEU:475:CD2:4258, V-A:HIS:383:CE1:3393, V-A:PRO:482:CG:4326, V-B:TYR:539:CB:9842, H-A:TYR:484:OH:4347, V-A:PRO:482:CB:4325, V-A:LEU:373:CD2:3280, V-A:GLY:454:CA:4048, V-A:LEU:373:CG:3278, V-B:VAL:344:CG1:7971"]

$$$$
RR32_Rahimova_2017-again1
     RDKit          3D

 38 40  0  0  0  0  0  0  0  0999 V2000
  133.9880  121.5950   61.3340 C   0  0  0  0  0  0  0  0  0  0  0  0
  132.5560  121.1570   61.6070 C   0  0  0  0  0  0  0  0  0  0  0  0
  131.6710  122.0140   62.2620 C   0  0  0  0  0  0  0  0  0  0  0  0
  130.3540  121.6110   62.5070 C   0  0  0  0  0  0  0  0  0  0  0  0
  129.4520  122.4500   63.1710 N   0  0  0  0  0  0  0  0  0  0  0  0
  129.5130  122.5980   64.6390 C   0  0  0  0  0  0  0  0  0  0  0  0
  130.5150  123.6900   65.0840 C   0  0  0  0  0  0  0  0  0  0  0  0
  130.0620  125.0410   64.4970 N   0  0  0  0  0  0  0  0  0  0  0  0
  131.0370  126.1660   64.8960 C   0  0  0  0  0  0  0  0  0  0  0  0
  129.9800  124.9110   62.9620 C   0  0  0  0  0  0  0  0  0  0  0  0
  129.0170  123.7500   62.6180 C   0  0  0  0  0  0  0  0  0  0  0  0
  129.9110  120.3760   62.1430 N   0  0  0  0  0  0  0  0  0  0  0  0
  130.7510  119.5190   61.5000 C   0  0  0  0  0  0  0  0  0  0  0  0
  130.2520  118.2490   61.1220 C   0  0  0  0  0  0  0  0  0  0  0  0
  131.0760  117.3430   60.4600 C   0  0  0  0  0  0  0  0  0  0  0  0
  132.3950  117.6720   60.1630 C   0  0  0  0  0  0  0  0  0  0  0  0
  132.9140  118.9130   60.5240 C   0  0  0  0  0  0  0  0  0  0  0  0
  132.1030  119.8660   61.2000 C   0  0  0  0  0  0  0  0  0  0  0  0
  134.5108  121.7549   62.2885 H   0  0  0  0  0  0  0  0  0  0  0  0
  134.5067  120.8144   60.7581 H   0  0  0  0  0  0  0  0  0  0  0  0
  133.9813  122.5322   60.7581 H   0  0  0  0  0  0  0  0  0  0  0  0
  132.0097  123.0090   62.5865 H   0  0  0  0  0  0  0  0  0  0  0  0
  128.5121  122.8662   65.0083 H   0  0  0  0  0  0  0  0  0  0  0  0
  129.8555  121.6400   65.0573 H   0  0  0  0  0  0  0  0  0  0  0  0
  130.5337  123.7506   66.1822 H   0  0  0  0  0  0  0  0  0  0  0  0
  131.5246  123.4432   64.7238 H   0  0  0  0  0  0  0  0  0  0  0  0
  129.1400  125.2510   64.8510 H   0  0  0  0  0  0  0  0  0  0  0  0
  131.0931  126.2307   65.9927 H   0  0  0  0  0  0  0  0  0  0  0  0
  132.0356  125.9469   64.4901 H   0  0  0  0  0  0  0  0  0  0  0  0
  130.6782  127.1233   64.4901 H   0  0  0  0  0  0  0  0  0  0  0  0
  129.6000  125.8486   62.5301 H   0  0  0  0  0  0  0  0  0  0  0  0
  130.9784  124.7078   62.5473 H   0  0  0  0  0  0  0  0  0  0  0  0
  128.0230  123.9880   63.0246 H   0  0  0  0  0  0  0  0  0  0  0  0
  129.0022  123.6510   61.5226 H   0  0  0  0  0  0  0  0  0  0  0  0
  129.2111  117.9777   61.3519 H   0  0  0  0  0  0  0  0  0  0  0  0
  130.6809  116.3584   60.1692 H   0  0  0  0  0  0  0  0  0  0  0  0
  133.0333  116.9457   59.6386 H   0  0  0  0  0  0  0  0  0  0  0  0
  133.9593  119.1580   60.2844 H   0  0  0  0  0  0  0  0  0  0  0  0
  1  2  1  0
  2  3  2  0
  3  4  1  0
  4  5  1  0
  5  6  1  0
  6  7  1  0
  7  8  1  0
  8  9  1  0
  8 10  1  0
 10 11  1  0
  4 12  2  0
 12 13  1  0
 13 14  2  0
 14 15  1  0
 15 16  2  0
 16 17  1  0
 17 18  2  0
 18  2  1  0
 11  5  1  0
 18 13  1  0
  1 19  1  0
  1 20  1  0
  1 21  1  0
  3 22  1  0
  6 23  1  0
  6 24  1  0
  7 25  1  0
  7 26  1  0
  8 27  1  0
  9 28  1  0
  9 29  1  0
  9 30  1  0
 10 31  1  0
 10 32  1  0
 11 33  1  0
 11 34  1  0
 14 35  1  0
 15 36  1  0
 16 37  1  0
 17 38  1  0
M  CHG  1   8   1
M  END
>  <Binding energies>  (1) 
[-7.08]

>  <Ligand effiencies>  (1) 
[-0.3726315789473684]

>  <Interactions>  (1) 
["V-B:TYR:539:CD2:9845, V-B:TYR:539:C:9838, V-B:GLU:543:CD:9879, V-B:GLU:543:CG:9878, V-A:TYR:484:CZ:4346, V-A:ILE:369:CG2:3236, V-A:SER:385:CA:3406, V-A:SER:385:CB:3408, V-A:TYR:484:CE2:4345, V-B:ALA:541:CB:9863, V-A:ILE:369:CD1:3238, V-A:LEU:475:CD2:4258, V-A:HIS:383:CE1:3393, V-A:PRO:482:CG:4326, V-B:TYR:539:CB:9842, V-A:PRO:482:CB:4325, H-B:GLU:543:OE2:9881, H-B:GLU:543:OE1:9880"]

$$$$
RR32_Rahimova_2017-again2
     RDKit          3D

 39 41  0  0  0  0  0  0  0  0999 V2000
  133.9930  121.5100   61.5010 C   0  0  0  0  0  0  0  0  0  0  0  0
  132.5350  121.0830   61.6110 C   0  0  0  0  0  0  0  0  0  0  0  0
  131.5960  121.9350   62.1990 C   0  0  0  0  0  0  0  0  0  0  0  0
  130.2520  121.5570   62.3150 C   0  0  0  0  0  0  0  0  0  0  0  0
  129.2430  122.4050   62.8990 N   0  0  0  0  0  0  0  0  0  0  0  0
  129.1660  122.5950   64.3720 C   0  0  0  0  0  0  0  0  0  0  0  0
  130.1250  123.7250   64.8310 C   0  0  0  0  0  0  0  0  0  0  0  0
  129.7420  125.0470   64.1220 N   0  0  0  0  0  0  0  0  0  0  0  0
  130.7100  126.1810   64.5090 C   0  0  0  0  0  0  0  0  0  0  0  0
  129.7150  124.8420   62.5880 C   0  0  0  0  0  0  0  0  0  0  0  0
  128.7740  123.6550   62.2480 C   0  0  0  0  0  0  0  0  0  0  0  0
  129.8920  120.3500   61.8340 N   0  0  0  0  0  0  0  0  0  0  0  0
  130.7440  119.4470   61.2400 C   0  0  0  0  0  0  0  0  0  0  0  0
  130.2620  118.2040   60.7700 C   0  0  0  0  0  0  0  0  0  0  0  0
  131.1510  117.3160   60.1710 C   0  0  0  0  0  0  0  0  0  0  0  0
  132.4980  117.6440   60.0360 C   0  0  0  0  0  0  0  0  0  0  0  0
  132.9880  118.8670   60.4950 C   0  0  0  0  0  0  0  0  0  0  0  0
  132.1180  119.8080   61.1150 C   0  0  0  0  0  0  0  0  0  0  0  0
  134.4158  121.6338   62.5089 H   0  0  0  0  0  0  0  0  0  0  0  0
  134.5605  120.7403   60.9573 H   0  0  0  0  0  0  0  0  0  0  0  0
  134.0556  122.4642   60.9573 H   0  0  0  0  0  0  0  0  0  0  0  0
  131.9171  122.9171   62.5764 H   0  0  0  0  0  0  0  0  0  0  0  0
  128.1352  122.8621   64.6481 H   0  0  0  0  0  0  0  0  0  0  0  0
  129.4630  121.6576   64.8651 H   0  0  0  0  0  0  0  0  0  0  0  0
  130.0427  123.8559   65.9201 H   0  0  0  0  0  0  0  0  0  0  0  0
  131.1594  123.4560   64.5710 H   0  0  0  0  0  0  0  0  0  0  0  0
  128.8070  125.2940   64.4160 H   0  0  0  0  0  0  0  0  0  0  0  0
  130.7713  126.2528   65.6049 H   0  0  0  0  0  0  0  0  0  0  0  0
  131.7081  125.9669   64.0992 H   0  0  0  0  0  0  0  0  0  0  0  0
  130.3419  127.1331   64.0992 H   0  0  0  0  0  0  0  0  0  0  0  0
  129.3446  125.7562   62.1011 H   0  0  0  0  0  0  0  0  0  0  0  0
  130.7307  124.6237   62.2264 H   0  0  0  0  0  0  0  0  0  0  0  0
  127.7588  123.8869   62.6025 H   0  0  0  0  0  0  0  0  0  0  0  0
  128.7751  123.5060   61.1581 H   0  0  0  0  0  0  0  0  0  0  0  0
  128.9200  120.0920   61.9110 H   0  0  0  0  0  0  0  0  0  0  0  0
  129.1989  117.9421   60.8762 H   0  0  0  0  0  0  0  0  0  0  0  0
  130.7864  116.3464   59.8009 H   0  0  0  0  0  0  0  0  0  0  0  0
  133.1852  116.9286   59.5607 H   0  0  0  0  0  0  0  0  0  0  0  0
  134.0552  119.1061   60.3769 H   0  0  0  0  0  0  0  0  0  0  0  0
  1  2  1  0
  2  3  2  0
  3  4  1  0
  4  5  1  0
  5  6  1  0
  6  7  1  0
  7  8  1  0
  8  9  1  0
  8 10  1  0
 10 11  1  0
  4 12  2  0
 12 13  1  0
 13 14  2  0
 14 15  1  0
 15 16  2  0
 16 17  1  0
 17 18  2  0
 18  2  1  0
 11  5  1  0
 18 13  1  0
  1 19  1  0
  1 20  1  0
  1 21  1  0
  3 22  1  0
  6 23  1  0
  6 24  1  0
  7 25  1  0
  7 26  1  0
  8 27  1  0
  9 28  1  0
  9 29  1  0
  9 30  1  0
 10 31  1  0
 10 32  1  0
 11 33  1  0
 11 34  1  0
 12 35  1  0
 14 36  1  0
 15 37  1  0
 16 38  1  0
 17 39  1  0
M  CHG  2   8   1  12   1
M  END
>  <Binding energies>  (1) 
[-7.21]

>  <Ligand effiencies>  (1) 
[-0.3605]

>  <Interactions>  (1) 
["V-B:TYR:539:CD2:9845, V-B:TYR:539:C:9838, V-B:GLU:543:CD:9879, V-B:GLU:543:CG:9878, V-A:ILE:369:CG2:3236, V-A:SER:385:CA:3406, V-A:SER:385:CB:3408, V-B:ALA:541:CB:9863, V-A:ILE:369:CD1:3238, V-A:LEU:475:CD2:4258, V-A:HIS:383:CE1:3393, V-A:PRO:482:CG:4326, V-B:TYR:539:CB:9842, H-B:TYR:539:O:9839, V-A:SER:385:C:3404, H-B:GLU:543:OE2:9881, H-B:GLU:543:OE1:9880"]

$$$$
RR33_Rahimova_2017
     RDKit          3D

 36 37  0  0  0  0  0  0  0  0999 V2000
  134.4280  125.7210   67.1080 C   0  0  0  0  0  0  0  0  0  0  0  0
  133.3360  125.9830   66.0660 C   0  0  0  0  0  0  0  0  0  0  0  0
  133.8760  125.7470   64.7680 O   0  0  0  0  0  0  0  0  0  0  0  0
  133.5140  124.6040   64.0810 C   0  0  0  0  0  0  0  0  0  0  0  0
  134.2870  124.2770   62.9680 C   0  0  0  0  0  0  0  0  0  0  0  0
  133.9960  123.1460   62.2110 C   0  0  0  0  0  0  0  0  0  0  0  0
  132.9220  122.3210   62.5580 C   0  0  0  0  0  0  0  0  0  0  0  0
  132.6090  121.1070   61.7440 C   0  0  0  0  0  0  0  0  0  0  0  0
  131.5820  120.2970   61.8730 N   0  0  0  0  0  0  0  0  0  0  0  0
  131.7400  119.3790   60.9320 C   0  0  0  0  0  0  0  0  0  0  0  0
  130.7320  118.2630   60.7560 C   0  0  0  0  0  0  0  0  0  0  0  0
  131.3760  116.9650   60.8890 N   0  0  0  0  0  0  0  0  0  0  0  0
  131.8040  116.7430   62.2610 C   0  0  0  0  0  0  0  0  0  0  0  0
  132.8990  119.6430   60.2130 C   0  0  0  0  0  0  0  0  0  0  0  0
  133.6110  118.9980   59.0490 C   0  0  0  0  0  0  0  0  0  0  0  0
  133.4560  120.7580   60.7410 O   0  0  0  0  0  0  0  0  0  0  0  0
  132.1460  122.6430   63.6760 C   0  0  0  0  0  0  0  0  0  0  0  0
  132.4370  123.7760   64.4330 C   0  0  0  0  0  0  0  0  0  0  0  0
  134.0034  125.8229   68.1176 H   0  0  0  0  0  0  0  0  0  0  0  0
  134.8228  124.7026   66.9773 H   0  0  0  0  0  0  0  0  0  0  0  0
  135.2419  126.4494   66.9773 H   0  0  0  0  0  0  0  0  0  0  0  0
  132.4866  125.3066   66.2420 H   0  0  0  0  0  0  0  0  0  0  0  0
  132.9868  127.0232   66.1429 H   0  0  0  0  0  0  0  0  0  0  0  0
  135.1346  124.9187   62.6855 H   0  0  0  0  0  0  0  0  0  0  0  0
  134.6143  122.8999   61.3351 H   0  0  0  0  0  0  0  0  0  0  0  0
  129.9494  118.3585   61.5231 H   0  0  0  0  0  0  0  0  0  0  0  0
  130.2913  118.3387   59.7510 H   0  0  0  0  0  0  0  0  0  0  0  0
  132.1840  116.9300   60.2840 H   0  0  0  0  0  0  0  0  0  0  0  0
  131.0434  117.1375   62.9508 H   0  0  0  0  0  0  0  0  0  0  0  0
  131.9326  115.6645   62.4350 H   0  0  0  0  0  0  0  0  0  0  0  0
  132.7597  117.2590   62.4350 H   0  0  0  0  0  0  0  0  0  0  0  0
  134.3768  118.3043   59.4264 H   0  0  0  0  0  0  0  0  0  0  0  0
  132.8846  118.4442   58.4361 H   0  0  0  0  0  0  0  0  0  0  0  0
  134.0906  119.7754   58.4361 H   0  0  0  0  0  0  0  0  0  0  0  0
  131.3011  121.9981   63.9594 H   0  0  0  0  0  0  0  0  0  0  0  0
  131.8202  124.0224   65.3099 H   0  0  0  0  0  0  0  0  0  0  0  0
  1  2  1  0
  2  3  1  0
  3  4  1  0
  4  5  2  0
  5  6  1  0
  6  7  2  0
  7  8  1  0
  8  9  2  0
  9 10  1  0
 10 11  1  0
 11 12  1  0
 12 13  1  0
 10 14  2  0
 14 15  1  0
 14 16  1  0
  7 17  1  0
 17 18  2  0
 18  4  1  0
 16  8  1  0
  1 19  1  0
  1 20  1  0
  1 21  1  0
  2 22  1  0
  2 23  1  0
  5 24  1  0
  6 25  1  0
 11 26  1  0
 11 27  1  0
 12 28  1  0
 13 29  1  0
 13 30  1  0
 13 31  1  0
 15 32  1  0
 15 33  1  0
 15 34  1  0
 17 35  1  0
 18 36  1  0
M  END
>  <Binding energies>  (1) 
[-5.36]

>  <Ligand effiencies>  (1) 
[-0.28210526315789475]

>  <Interactions>  (1) 
["V-B:TYR:539:CD2:9845, V-B:TYR:539:CE2:9847, V-A:ASP:366:CG:3212, V-A:VAL:384:C:3396, H-A:ARG:545:NE:4923, V-A:ILE:369:CG2:3236, V-A:ARG:545:CZ:4925, V-A:SER:385:CA:3406, H-A:ARG:545:NH1:4926, V-A:SER:385:CB:3408, V-A:ARG:545:CD:4922, H-A:GLY:454:N:4049, H-A:ARG:545:NH2:4927, V-A:ARG:545:CG:4921, V-A:ILE:369:CD1:3238, V-A:LEU:475:CD2:4258, V-A:HIS:383:CE1:3393, V-B:TYR:539:CB:9842, V-A:PRO:482:CB:4325, V-A:LEU:373:CD2:3280, V-A:GLY:453:C:4041, V-A:GLY:453:CA:4043, V-A:GLY:454:CA:4048, V-A:LEU:373:CG:3278, H-A:VAL:384:O:3397, H-A:HIS:383:ND1:3390, V-A:THR:477:CG2:4272"]

$$$$
RR33_Rahimova_2017-again1
     RDKit          3D

 37 38  0  0  0  0  0  0  0  0999 V2000
  132.8540  118.1900   59.1210 C   0  0  0  0  0  0  0  0  0  0  0  0
  132.9330  119.0170   60.4070 C   0  0  0  0  0  0  0  0  0  0  0  0
  133.3900  120.3270   60.0820 O   0  0  0  0  0  0  0  0  0  0  0  0
  133.1920  121.3570   60.9820 C   0  0  0  0  0  0  0  0  0  0  0  0
  133.2080  121.0140   62.3340 C   0  0  0  0  0  0  0  0  0  0  0  0
  133.0190  121.9830   63.3150 C   0  0  0  0  0  0  0  0  0  0  0  0
  132.8090  123.3180   62.9540 C   0  0  0  0  0  0  0  0  0  0  0  0
  132.6060  124.3630   64.0050 C   0  0  0  0  0  0  0  0  0  0  0  0
  131.5370  125.1000   64.2070 N   0  0  0  0  0  0  0  0  0  0  0  0
  131.8310  125.8710   65.2430 C   0  0  0  0  0  0  0  0  0  0  0  0
  130.8350  126.8820   65.7770 C   0  0  0  0  0  0  0  0  0  0  0  0
  129.6160  126.9300   64.8410 N   0  0  0  0  0  0  0  0  0  0  0  0
  129.7120  128.0190   63.7620 C   0  0  0  0  0  0  0  0  0  0  0  0
  133.1230  125.5950   65.6740 C   0  0  0  0  0  0  0  0  0  0  0  0
  134.0260  126.1140   66.7660 C   0  0  0  0  0  0  0  0  0  0  0  0
  133.6160  124.6210   64.8740 O   0  0  0  0  0  0  0  0  0  0  0  0
  132.7930  123.6670   61.5990 C   0  0  0  0  0  0  0  0  0  0  0  0
  132.9830  122.6960   60.6200 C   0  0  0  0  0  0  0  0  0  0  0  0
  132.7522  117.1248   59.3758 H   0  0  0  0  0  0  0  0  0  0  0  0
  131.9824  118.5109   58.5316 H   0  0  0  0  0  0  0  0  0  0  0  0
  133.7706  118.3401   58.5316 H   0  0  0  0  0  0  0  0  0  0  0  0
  131.9370  119.0770   60.8700 H   0  0  0  0  0  0  0  0  0  0  0  0
  133.6289  118.5428   61.1147 H   0  0  0  0  0  0  0  0  0  0  0  0
  133.3717  119.9667   62.6279 H   0  0  0  0  0  0  0  0  0  0  0  0
  133.0348  121.6982   64.3774 H   0  0  0  0  0  0  0  0  0  0  0  0
  130.5132  126.5846   66.7860 H   0  0  0  0  0  0  0  0  0  0  0  0
  131.3048  127.8755   65.8249 H   0  0  0  0  0  0  0  0  0  0  0  0
  129.5140  126.0320   64.3920 H   0  0  0  0  0  0  0  0  0  0  0  0
  128.7890  127.0950   65.3980 H   0  0  0  0  0  0  0  0  0  0  0  0
  129.7989  129.0047   64.2426 H   0  0  0  0  0  0  0  0  0  0  0  0
  130.5976  127.8372   63.1354 H   0  0  0  0  0  0  0  0  0  0  0  0
  128.8083  127.9950   63.1354 H   0  0  0  0  0  0  0  0  0  0  0  0
  133.5947  125.8661   67.7471 H   0  0  0  0  0  0  0  0  0  0  0  0
  135.0183  125.6484   66.6734 H   0  0  0  0  0  0  0  0  0  0  0  0
  134.1232  127.2058   66.6734 H   0  0  0  0  0  0  0  0  0  0  0  0
  132.6294  124.7145   61.3059 H   0  0  0  0  0  0  0  0  0  0  0  0
  132.9692  122.9800   59.5574 H   0  0  0  0  0  0  0  0  0  0  0  0
  1  2  1  0
  2  3  1  0
  3  4  1  0
  4  5  2  0
  5  6  1  0
  6  7  2  0
  7  8  1  0
  8  9  2  0
  9 10  1  0
 10 11  1  0
 11 12  1  0
 12 13  1  0
 10 14  2  0
 14 15  1  0
 14 16  1  0
  7 17  1  0
 17 18  2  0
 18  4  1  0
 16  8  1  0
  1 19  1  0
  1 20  1  0
  1 21  1  0
  2 22  1  0
  2 23  1  0
  5 24  1  0
  6 25  1  0
 11 26  1  0
 11 27  1  0
 12 28  1  0
 12 29  1  0
 13 30  1  0
 13 31  1  0
 13 32  1  0
 15 33  1  0
 15 34  1  0
 15 35  1  0
 17 36  1  0
 18 37  1  0
M  CHG  1  12   1
M  END
>  <Binding energies>  (1) 
[-6.53]

>  <Ligand effiencies>  (1) 
[-0.3265]

>  <Interactions>  (1) 
["V-B:TYR:539:CD2:9845, V-A:GLU:543:CD:4907, V-B:TYR:539:CE2:9847, V-B:GLU:543:CD:9879, V-B:TYR:539:CG:9843, V-A:ILE:369:CG2:3236, V-A:ARG:545:CZ:4925, V-A:SER:385:CA:3406, V-A:SER:385:CB:3408, V-A:ARG:545:CD:4922, H-A:GLY:454:N:4049, V-A:ARG:545:CG:4921, V-A:ILE:369:CD1:3238, V-A:LEU:475:CD2:4258, H-A:TYR:484:OH:4347, V-A:LEU:373:CD2:3280, V-A:GLY:454:CA:4048, V-A:LEU:373:CG:3278, V-A:LEU:373:CD1:3279, H-B:GLU:543:OE2:9881, H-B:GLU:543:OE1:9880"]

$$$$
RR3_Rahimova_2017
     RDKit          3D

 63 69  0  0  0  0  0  0  0  0999 V2000
  132.0560  133.4840   56.2570 C   0  0  0  0  0  0  0  0  0  0  0  0
  130.6770  133.5210   56.4340 C   0  0  0  0  0  0  0  0  0  0  0  0
  130.0970  132.8040   57.4770 C   0  0  0  0  0  0  0  0  0  0  0  0
  130.8850  132.0440   58.3540 C   0  0  0  0  0  0  0  0  0  0  0  0
  130.2590  131.2750   59.4760 C   0  0  0  0  0  0  0  0  0  0  0  0
  130.4050  129.8840   59.5650 C   0  0  0  0  0  0  0  0  0  0  0  0
  129.8200  129.1690   60.6060 C   0  0  0  0  0  0  0  0  0  0  0  0
  129.0670  129.8300   61.5810 C   0  0  0  0  0  0  0  0  0  0  0  0
  128.4310  129.0670   62.7000 C   0  0  0  0  0  0  0  0  0  0  0  0
  128.4760  129.5430   63.9390 N   0  0  0  0  0  0  0  0  0  0  0  0
  127.8090  128.7000   64.6900 C   0  0  0  0  0  0  0  0  0  0  0  0
  127.6040  128.8340   66.1290 C   0  0  0  0  0  0  0  0  0  0  0  0
  126.4330  129.2400   66.7470 C   0  0  0  0  0  0  0  0  0  0  0  0
  126.5930  129.2440   68.1080 N   0  0  0  0  0  0  0  0  0  0  0  0
  127.8700  128.8440   68.4310 C   0  0  0  0  0  0  0  0  0  0  0  0
  128.4930  128.6930   69.6750 C   0  0  0  0  0  0  0  0  0  0  0  0
  129.8200  128.2650   69.6710 C   0  0  0  0  0  0  0  0  0  0  0  0
  130.5010  127.9980   68.4880 C   0  0  0  0  0  0  0  0  0  0  0  0
  129.8810  128.1470   67.2490 C   0  0  0  0  0  0  0  0  0  0  0  0
  128.5430  128.5770   67.1970 C   0  0  0  0  0  0  0  0  0  0  0  0
  127.3270  127.6580   63.9450 N   0  0  0  0  0  0  0  0  0  0  0  0
  127.7310  127.8490   62.6490 C   0  0  0  0  0  0  0  0  0  0  0  0
  127.4390  126.8740   61.5570 C   0  0  0  0  0  0  0  0  0  0  0  0
  128.2260  125.7310   61.4080 C   0  0  0  0  0  0  0  0  0  0  0  0
  127.9650  124.8270   60.3840 C   0  0  0  0  0  0  0  0  0  0  0  0
  126.9080  125.0390   59.4870 C   0  0  0  0  0  0  0  0  0  0  0  0
  126.6420  124.0750   58.3750 C   0  0  0  0  0  0  0  0  0  0  0  0
  125.3490  123.9190   57.8520 C   0  0  0  0  0  0  0  0  0  0  0  0
  125.1030  123.0240   56.8130 C   0  0  0  0  0  0  0  0  0  0  0  0
  126.1490  122.2740   56.2860 C   0  0  0  0  0  0  0  0  0  0  0  0
  127.4380  122.4130   56.7890 C   0  0  0  0  0  0  0  0  0  0  0  0
  127.6810  123.3070   57.8270 C   0  0  0  0  0  0  0  0  0  0  0  0
  126.1130  126.1820   59.6580 C   0  0  0  0  0  0  0  0  0  0  0  0
  126.3720  127.0890   60.6810 C   0  0  0  0  0  0  0  0  0  0  0  0
  128.9270  131.2170   61.5080 C   0  0  0  0  0  0  0  0  0  0  0  0
  129.5130  131.9300   60.4650 C   0  0  0  0  0  0  0  0  0  0  0  0
  132.2730  132.0220   58.1560 C   0  0  0  0  0  0  0  0  0  0  0  0
  132.8570  132.7370   57.1140 C   0  0  0  0  0  0  0  0  0  0  0  0
  132.5163  134.0495   55.4334 H   0  0  0  0  0  0  0  0  0  0  0  0
  130.0479  134.1136   55.7535 H   0  0  0  0  0  0  0  0  0  0  0  0
  129.0061  132.8339   57.6152 H   0  0  0  0  0  0  0  0  0  0  0  0
  130.9899  129.3500   58.8017 H   0  0  0  0  0  0  0  0  0  0  0  0
  129.9508  128.0782   60.6619 H   0  0  0  0  0  0  0  0  0  0  0  0
  125.5079  129.5190   66.2212 H   0  0  0  0  0  0  0  0  0  0  0  0
  125.8510  129.5090   68.7400 H   0  0  0  0  0  0  0  0  0  0  0  0
  127.9597  128.9026   70.6140 H   0  0  0  0  0  0  0  0  0  0  0  0
  130.3428  128.1349   70.6300 H   0  0  0  0  0  0  0  0  0  0  0  0
  131.5479  127.6632   68.5313 H   0  0  0  0  0  0  0  0  0  0  0  0
  130.4320  127.9307   66.3219 H   0  0  0  0  0  0  0  0  0  0  0  0
  126.7950  126.8740   64.2930 H   0  0  0  0  0  0  0  0  0  0  0  0
  129.0570  125.5443   62.1041 H   0  0  0  0  0  0  0  0  0  0  0  0
  128.5966  123.9329   60.2760 H   0  0  0  0  0  0  0  0  0  0  0  0
  124.5198  124.5105   58.2674 H   0  0  0  0  0  0  0  0  0  0  0  0
  124.0853  122.9110   56.4110 H   0  0  0  0  0  0  0  0  0  0  0  0
  125.9555  121.5665   55.4662 H   0  0  0  0  0  0  0  0  0  0  0  0
  128.2622  121.8185   56.3679 H   0  0  0  0  0  0  0  0  0  0  0  0
  128.7015  123.4133   58.2236 H   0  0  0  0  0  0  0  0  0  0  0  0
  125.2719  126.3641   58.9729 H   0  0  0  0  0  0  0  0  0  0  0  0
  125.7349  127.9777   60.8004 H   0  0  0  0  0  0  0  0  0  0  0  0
  128.3506  131.7498   62.2786 H   0  0  0  0  0  0  0  0  0  0  0  0
  129.3886  133.0219   60.4169 H   0  0  0  0  0  0  0  0  0  0  0  0
  132.9086  131.4321   58.8328 H   0  0  0  0  0  0  0  0  0  0  0  0
  133.9471  132.7112   56.9692 H   0  0  0  0  0  0  0  0  0  0  0  0
  1  2  2  0
  2  3  1  0
  3  4  2  0
  4  5  1  0
  5  6  2  0
  6  7  1  0
  7  8  2  0
  8  9  1  0
  9 10  1  0
 10 11  2  0
 11 12  1  0
 12 13  2  0
 13 14  1  0
 14 15  1  0
 15 16  2  0
 16 17  1  0
 17 18  2  0
 18 19  1  0
 19 20  2  0
 11 21  1  0
 21 22  1  0
 22 23  1  0
 23 24  2  0
 24 25  1  0
 25 26  2  0
 26 27  1  0
 27 28  2  0
 28 29  1  0
 29 30  2  0
 30 31  1  0
 31 32  2  0
 26 33  1  0
 33 34  2  0
  8 35  1  0
 35 36  2  0
  4 37  1  0
 37 38  2  0
 38  1  1  0
 36  5  1  0
 22  9  2  0
 34 23  1  0
 20 12  1  0
 32 27  1  0
 20 15  1  0
  1 39  1  0
  2 40  1  0
  3 41  1  0
  6 42  1  0
  7 43  1  0
 13 44  1  0
 14 45  1  0
 16 46  1  0
 17 47  1  0
 18 48  1  0
 19 49  1  0
 21 50  1  0
 24 51  1  0
 25 52  1  0
 28 53  1  0
 29 54  1  0
 30 55  1  0
 31 56  1  0
 32 57  1  0
 33 58  1  0
 34 59  1  0
 35 60  1  0
 36 61  1  0
 37 62  1  0
 38 63  1  0
M  END
>  <Binding energies>  (1) 
[-9.94]

>  <Ligand effiencies>  (1) 
[-0.2485]

>  <Interactions>  (1) 
["V-A:TYR:539:CD1:4872, V-B:PRO:540:CD:9858, V-B:PRO:540:N:9855, H-B:TYR:484:OH:9318, V-A:GLU:543:CB:4905, V-B:TYR:531:CE2:9764, V-B:LEU:363:CD1:8159, V-A:PRO:540:CA:4882, V-B:MET:535:CE:9806, V-B:TYR:539:CD2:9845, V-A:PRO:540:CB:4884, V-B:HIS:456:CE1:9040, V-A:HIS:456:CE1:4069, V-B:TYR:539:C:9838, V-B:TYR:539:CE1:9846, V-B:TYR:539:CD1:9844, V-A:GLU:543:CD:4907, V-A:GLU:543:CG:4906, V-B:PRO:540:CB:9856, V-B:GLU:543:CD:9879, V-B:TYR:539:CG:9843, V-B:TYR:539:CA:9840, H-B:GLU:543:OE2:9881, V-A:TYR:539:C:4866, V-A:TYR:531:CE2:4792, V-A:PRO:540:N:4883, V-B:TYR:484:CZ:9317, V-A:LEU:363:CD1:3188, V-A:PRO:540:CD:4886, H-B:GLU:543:OE1:9880, V-B:TYR:484:CE2:9316, V-B:ILE:538:CA:9831, V-A:ILE:538:CB:4861, V-A:ILE:538:CG2:4862, V-A:ILE:538:CA:4859"]

$$$$
RR4_Rahimova_2017
     RDKit          3D

 66 70  0  0  0  0  0  0  0  0999 V2000
  126.4750  127.5410   73.8910 C   0  0  0  0  0  0  0  0  0  0  0  0
  127.7210  127.0340   73.4260 O   0  0  0  0  0  0  0  0  0  0  0  0
  128.0860  127.2450   72.1100 C   0  0  0  0  0  0  0  0  0  0  0  0
  127.2520  126.7000   71.1350 C   0  0  0  0  0  0  0  0  0  0  0  0
  127.5400  126.8630   69.7840 C   0  0  0  0  0  0  0  0  0  0  0  0
  128.6740  127.5750   69.3650 C   0  0  0  0  0  0  0  0  0  0  0  0
  128.9830  127.7480   67.9060 C   0  0  0  0  0  0  0  0  0  0  0  0
  129.9790  127.0170   67.2500 C   0  0  0  0  0  0  0  0  0  0  0  0
  130.2260  127.2120   65.8850 C   0  0  0  0  0  0  0  0  0  0  0  0
  131.2860  126.3750   65.2460 C   0  0  0  0  0  0  0  0  0  0  0  0
  130.9530  125.4770   64.2280 C   0  0  0  0  0  0  0  0  0  0  0  0
  131.9360  124.7010   63.6190 C   0  0  0  0  0  0  0  0  0  0  0  0
  133.2700  124.8130   64.0110 C   0  0  0  0  0  0  0  0  0  0  0  0
  134.1760  124.0060   63.3510 O   0  0  0  0  0  0  0  0  0  0  0  0
  133.8190  123.4470   62.0910 C   0  0  0  0  0  0  0  0  0  0  0  0
  133.6100  125.7180   65.0280 C   0  0  0  0  0  0  0  0  0  0  0  0
  132.6240  126.4920   65.6350 C   0  0  0  0  0  0  0  0  0  0  0  0
  129.4630  128.1850   65.1930 C   0  0  0  0  0  0  0  0  0  0  0  0
  129.6800  128.4280   63.7640 C   0  0  0  0  0  0  0  0  0  0  0  0
  129.8510  128.6200   62.6360 N   0  0  0  0  0  0  0  0  0  0  0  0
  128.4930  128.9080   65.9250 C   0  0  0  0  0  0  0  0  0  0  0  0
  127.4550  130.1730   65.2240 S   0  0  0  0  0  0  0  0  0  0  0  0
  128.4440  131.7010   65.1060 C   0  0  0  0  0  0  0  0  0  0  0  0
  128.5510  132.2830   63.6900 C   0  0  0  0  0  0  0  0  0  0  0  0
  127.9800  133.3380   63.4010 O   0  0  0  0  0  0  0  0  0  0  0  0
  129.2900  131.5450   62.8290 N   0  0  0  0  0  0  0  0  0  0  0  0
  129.5750  131.8050   61.4860 C   0  0  0  0  0  0  0  0  0  0  0  0
  128.3490  131.8530   60.2480 S   0  0  0  0  0  0  0  0  0  0  0  0
  129.5250  132.2000   59.0180 C   0  0  0  0  0  0  0  0  0  0  0  0
  130.8220  132.2710   59.5490 C   0  0  0  0  0  0  0  0  0  0  0  0
  130.8460  132.0620   60.9500 C   0  0  0  0  0  0  0  0  0  0  0  0
  132.0680  132.1040   61.7470 C   0  0  0  0  0  0  0  0  0  0  0  0
  133.0370  132.1360   62.3790 N   0  0  0  0  0  0  0  0  0  0  0  0
  132.0330  132.6040   58.6690 C   0  0  0  0  0  0  0  0  0  0  0  0
  131.5780  133.2120   57.3240 C   0  0  0  0  0  0  0  0  0  0  0  0
  130.4190  132.4220   56.6910 C   0  0  0  0  0  0  0  0  0  0  0  0
  129.1470  132.4600   57.5650 C   0  0  0  0  0  0  0  0  0  0  0  0
  128.2530  128.6770   67.2370 N   0  0  0  0  0  0  0  0  0  0  0  0
  129.5060  128.1230   70.3550 C   0  0  0  0  0  0  0  0  0  0  0  0
  129.2210  127.9610   71.7080 C   0  0  0  0  0  0  0  0  0  0  0  0
  126.4678  127.5439   74.9910 H   0  0  0  0  0  0  0  0  0  0  0  0
  126.3356  128.5674   73.5207 H   0  0  0  0  0  0  0  0  0  0  0  0
  125.6586  126.9036   73.5207 H   0  0  0  0  0  0  0  0  0  0  0  0
  126.3575  126.1356   71.4370 H   0  0  0  0  0  0  0  0  0  0  0  0
  126.8672  126.4262   69.0313 H   0  0  0  0  0  0  0  0  0  0  0  0
  130.5741  126.2818   67.8115 H   0  0  0  0  0  0  0  0  0  0  0  0
  129.9057  125.3824   63.9052 H   0  0  0  0  0  0  0  0  0  0  0  0
  131.6584  123.9945   62.8229 H   0  0  0  0  0  0  0  0  0  0  0  0
  133.2331  122.5296   62.2496 H   0  0  0  0  0  0  0  0  0  0  0  0
  133.2171  124.1732   61.5250 H   0  0  0  0  0  0  0  0  0  0  0  0
  134.7310  123.2064   61.5250 H   0  0  0  0  0  0  0  0  0  0  0  0
  134.6582  125.8164   65.3467 H   0  0  0  0  0  0  0  0  0  0  0  0
  132.9005  127.2023   66.4281 H   0  0  0  0  0  0  0  0  0  0  0  0
  127.9826  132.4597   65.7552 H   0  0  0  0  0  0  0  0  0  0  0  0
  129.4665  131.4359   65.4130 H   0  0  0  0  0  0  0  0  0  0  0  0
  129.7030  130.7010   63.1960 H   0  0  0  0  0  0  0  0  0  0  0  0
  132.6734  133.3277   59.1945 H   0  0  0  0  0  0  0  0  0  0  0  0
  132.5906  131.6773   58.4683 H   0  0  0  0  0  0  0  0  0  0  0  0
  131.2484  134.2471   57.4967 H   0  0  0  0  0  0  0  0  0  0  0  0
  132.4310  133.1737   56.6305 H   0  0  0  0  0  0  0  0  0  0  0  0
  130.1874  132.8579   55.7080 H   0  0  0  0  0  0  0  0  0  0  0  0
  130.7350  131.3726   56.5969 H   0  0  0  0  0  0  0  0  0  0  0  0
  128.6726  133.4488   57.4802 H   0  0  0  0  0  0  0  0  0  0  0  0
  128.4429  131.6868   57.2239 H   0  0  0  0  0  0  0  0  0  0  0  0
  130.3994  128.6907   70.0557 H   0  0  0  0  0  0  0  0  0  0  0  0
  129.8899  128.3971   72.4646 H   0  0  0  0  0  0  0  0  0  0  0  0
  1  2  1  0
  2  3  1  0
  3  4  2  0
  4  5  1  0
  5  6  2  0
  6  7  1  0
  7  8  2  0
  8  9  1  0
  9 10  1  0
 10 11  2  0
 11 12  1  0
 12 13  2  0
 13 14  1  0
 14 15  1  0
 13 16  1  0
 16 17  2  0
  9 18  2  0
 18 19  1  0
 19 20  3  0
 18 21  1  0
 21 22  1  0
 22 23  1  0
 23 24  1  0
 24 25  2  0
 24 26  1  0
 26 27  1  0
 27 28  1  0
 28 29  1  0
 29 30  2  0
 30 31  1  0
 31 32  1  0
 32 33  3  0
 30 34  1  0
 34 35  1  0
 35 36  1  0
 36 37  1  0
 21 38  2  0
  6 39  1  0
 39 40  2  0
 40  3  1  0
 38  7  1  0
 17 10  1  0
 31 27  2  0
 37 29  1  0
  1 41  1  0
  1 42  1  0
  1 43  1  0
  4 44  1  0
  5 45  1  0
  8 46  1  0
 11 47  1  0
 12 48  1  0
 15 49  1  0
 15 50  1  0
 15 51  1  0
 16 52  1  0
 17 53  1  0
 23 54  1  0
 23 55  1  0
 26 56  1  0
 34 57  1  0
 34 58  1  0
 35 59  1  0
 35 60  1  0
 36 61  1  0
 36 62  1  0
 37 63  1  0
 37 64  1  0
 39 65  1  0
 40 66  1  0
M  END
>  <Binding energies>  (1) 
[-9.15]

>  <Ligand effiencies>  (1) 
[-0.22317073170731708]

>  <Interactions>  (1) 
["V-A:TYR:539:CD1:4872, V-B:GLU:543:CB:9877, V-A:PRO:540:CA:4882, V-A:PRO:540:CB:4884, V-B:HIS:456:CE1:9040, V-A:HIS:456:CE1:4069, V-A:PRO:540:C:4880, V-A:GLU:543:CD:4907, V-A:GLU:543:CG:4906, V-A:TYR:539:CE1:4874, V-B:GLU:543:CD:9879, V-B:LYS:547:CE:9921, V-B:GLU:543:C:9873, V-B:GLY:544:C:9883, V-A:ALA:541:CB:4891, H-A:ALA:541:N:4890, V-B:HIS:456:CD2:9038, H-B:LYS:547:NZ:9922, V-A:ARG:545:CZ:4925, V-A:ARG:545:CD:4922, H-A:GLY:454:N:4049, V-A:ILE:369:CD1:3238, V-A:GLY:454:CA:4048, H-A:GLU:543:OE2:4909, V-A:TYR:539:C:4866, V-B:HIS:456:CG:9036, V-A:PRO:540:N:4883, V-A:PRO:540:CD:4886"]

$$$$
RR5_Rahimova_2017
     RDKit          3D

 77 82  0  0  0  0  0  0  0  0999 V2000
  130.0250  127.0140   61.7420 O   0  0  0  0  0  0  0  0  0  0  0  0
  130.8480  126.3970   62.4150 C   0  0  0  0  0  0  0  0  0  0  0  0
  131.3670  127.0050   63.7330 C   0  0  0  0  0  0  0  0  0  0  0  0
  131.8400  125.9400   64.7850 C   0  0  2  0  0  0  0  0  0  0  0  0
  131.4510  126.2270   66.1810 N   0  0  0  0  0  0  0  0  0  0  0  0
  130.5580  125.4160   66.8690 C   0  0  0  0  0  0  0  0  0  0  0  0
  130.0350  124.3800   66.4530 O   0  0  0  0  0  0  0  0  0  0  0  0
  130.3390  125.9590   68.0790 O   0  0  0  0  0  0  0  0  0  0  0  0
  129.4070  125.3880   68.9920 C   0  0  0  0  0  0  0  0  0  0  0  0
  128.5430  126.4850   69.6520 C   0  0  0  0  0  0  0  0  0  0  0  0
  129.1250  127.0200   70.9480 C   0  0  0  0  0  0  0  0  0  0  0  0
  129.4560  126.3390   72.1230 C   0  0  0  0  0  0  0  0  0  0  0  0
  130.0080  127.0370   73.1990 C   0  0  0  0  0  0  0  0  0  0  0  0
  130.2270  128.4120   73.1050 C   0  0  0  0  0  0  0  0  0  0  0  0
  129.8940  129.0950   71.9340 C   0  0  0  0  0  0  0  0  0  0  0  0
  129.3430  128.3960   70.8590 C   0  0  0  0  0  0  0  0  0  0  0  0
  128.8980  128.8520   69.5320 C   0  0  0  0  0  0  0  0  0  0  0  0
  128.8880  130.1230   68.9540 C   0  0  0  0  0  0  0  0  0  0  0  0
  128.3820  130.2900   67.6640 C   0  0  0  0  0  0  0  0  0  0  0  0
  127.8930  129.1900   66.9550 C   0  0  0  0  0  0  0  0  0  0  0  0
  127.9090  127.9220   67.5360 C   0  0  0  0  0  0  0  0  0  0  0  0
  128.4160  127.7500   68.8250 C   0  0  0  0  0  0  0  0  0  0  0  0
  133.3720  125.7290   64.7030 C   0  0  0  0  0  0  0  0  0  0  0  0
  134.1240  125.7450   65.6570 O   0  0  0  0  0  0  0  0  0  0  0  0
  133.7360  125.5040   63.4070 O   0  0  0  0  0  0  0  0  0  0  0  0
  131.3350  125.1740   62.1080 N   0  0  0  0  0  0  0  0  0  0  0  0
  131.1130  124.2370   60.9650 C   0  0  0  0  0  0  0  0  0  0  0  0
  129.5790  123.9440   61.0760 C   0  0  0  0  0  0  0  0  0  0  0  0
  128.8060  123.6500   59.9410 C   0  0  0  0  0  0  0  0  0  0  0  0
  127.4420  123.3890   60.0510 C   0  0  0  0  0  0  0  0  0  0  0  0
  126.8270  123.4290   61.2970 C   0  0  0  0  0  0  0  0  0  0  0  0
  127.5690  123.7170   62.4380 C   0  0  0  0  0  0  0  0  0  0  0  0
  128.9330  123.9670   62.3280 C   0  0  0  0  0  0  0  0  0  0  0  0
  131.4860  125.0050   59.6530 C   0  0  0  0  0  0  0  0  0  0  0  0
  130.6300  125.9650   59.0900 C   0  0  0  0  0  0  0  0  0  0  0  0
  130.9730  126.6220   57.9110 C   0  0  0  0  0  0  0  0  0  0  0  0
  132.1760  126.3260   57.2780 C   0  0  0  0  0  0  0  0  0  0  0  0
  133.0430  125.3820   57.8190 C   0  0  0  0  0  0  0  0  0  0  0  0
  132.7030  124.7330   59.0010 C   0  0  0  0  0  0  0  0  0  0  0  0
  131.9960  122.9780   61.2580 C   0  0  0  0  0  0  0  0  0  0  0  0
  133.2980  123.1100   61.7760 C   0  0  0  0  0  0  0  0  0  0  0  0
  134.0900  121.9940   62.0310 C   0  0  0  0  0  0  0  0  0  0  0  0
  133.5920  120.7220   61.7770 C   0  0  0  0  0  0  0  0  0  0  0  0
  132.3050  120.5580   61.2790 C   0  0  0  0  0  0  0  0  0  0  0  0
  131.5150  121.6760   61.0250 C   0  0  0  0  0  0  0  0  0  0  0  0
  132.2178  127.6620   63.4994 H   0  0  0  0  0  0  0  0  0  0  0  0
  130.5246  127.5478   64.1865 H   0  0  0  0  0  0  0  0  0  0  0  0
  131.3083  125.0180   64.5072 H   0  0  0  0  0  0  0  0  0  0  0  0
  131.7080  127.1200   66.5740 H   0  0  0  0  0  0  0  0  0  0  0  0
  128.7517  124.6907   68.4495 H   0  0  0  0  0  0  0  0  0  0  0  0
  129.9638  124.8572   69.7783 H   0  0  0  0  0  0  0  0  0  0  0  0
  127.5879  125.9555   69.7842 H   0  0  0  0  0  0  0  0  0  0  0  0
  129.2820  125.2556   72.1998 H   0  0  0  0  0  0  0  0  0  0  0  0
  130.2709  126.5016   74.1232 H   0  0  0  0  0  0  0  0  0  0  0  0
  130.6625  128.9583   73.9546 H   0  0  0  0  0  0  0  0  0  0  0  0
  130.0651  130.1790   71.8589 H   0  0  0  0  0  0  0  0  0  0  0  0
  129.2766  130.9876   69.5121 H   0  0  0  0  0  0  0  0  0  0  0  0
  128.3682  131.2895   67.2048 H   0  0  0  0  0  0  0  0  0  0  0  0
  127.4952  129.3239   65.9382 H   0  0  0  0  0  0  0  0  0  0  0  0
  127.5217  127.0569   66.9778 H   0  0  0  0  0  0  0  0  0  0  0  0
  134.1340  126.2770   63.0020 H   0  0  0  0  0  0  0  0  0  0  0  0
  132.0750  124.8600   62.7180 H   0  0  0  0  0  0  0  0  0  0  0  0
  129.2845  123.6254   58.9508 H   0  0  0  0  0  0  0  0  0  0  0  0
  126.8525  123.1516   59.1532 H   0  0  0  0  0  0  0  0  0  0  0  0
  125.7481  123.2319   61.3812 H   0  0  0  0  0  0  0  0  0  0  0  0
  127.0794  123.7469   63.4226 H   0  0  0  0  0  0  0  0  0  0  0  0
  129.5172  124.1864   63.2339 H   0  0  0  0  0  0  0  0  0  0  0  0
  129.6770  126.2010   59.5861 H   0  0  0  0  0  0  0  0  0  0  0  0
  130.2942  127.3733   57.4812 H   0  0  0  0  0  0  0  0  0  0  0  0
  132.4434  126.8416   56.3438 H   0  0  0  0  0  0  0  0  0  0  0  0
  133.9925  125.1502   57.3144 H   0  0  0  0  0  0  0  0  0  0  0  0
  133.3959  123.9958   59.4328 H   0  0  0  0  0  0  0  0  0  0  0  0
  133.6972  124.1138   61.9832 H   0  0  0  0  0  0  0  0  0  0  0  0
  135.1066  122.1187   62.4322 H   0  0  0  0  0  0  0  0  0  0  0  0
  134.2199  119.8399   61.9712 H   0  0  0  0  0  0  0  0  0  0  0  0
  131.9120  119.5489   61.0862 H   0  0  0  0  0  0  0  0  0  0  0  0
  130.4957  121.5391   60.6349 H   0  0  0  0  0  0  0  0  0  0  0  0
  1  2  2  0
  2  3  1  0
  3  4  1  0
  4  5  1  0
  5  6  1  0
  6  7  2  0
  6  8  1  0
  8  9  1  0
  9 10  1  0
 10 11  1  0
 11 12  2  0
 12 13  1  0
 13 14  2  0
 14 15  1  0
 15 16  2  0
 16 17  1  0
 17 18  2  0
 18 19  1  0
 19 20  2  0
 20 21  1  0
 21 22  2  0
  4 23  1  0
 23 24  2  0
 23 25  1  0
  2 26  1  0
 26 27  1  0
 27 28  1  0
 28 29  2  0
 29 30  1  0
 30 31  2  0
 31 32  1  0
 32 33  2  0
 27 34  1  0
 34 35  2  0
 35 36  1  0
 36 37  2  0
 37 38  1  0
 38 39  2  0
 27 40  1  0
 40 41  2  0
 41 42  1  0
 42 43  2  0
 43 44  1  0
 44 45  2  0
 22 10  1  0
 33 28  1  0
 39 34  1  0
 45 40  1  0
 16 11  1  0
 22 17  1  0
  3 46  1  0
  3 47  1  0
  4 48  1  6
  5 49  1  0
  9 50  1  0
  9 51  1  0
 10 52  1  0
 12 53  1  0
 13 54  1  0
 14 55  1  0
 15 56  1  0
 18 57  1  0
 19 58  1  0
 20 59  1  0
 21 60  1  0
 25 61  1  0
 26 62  1  0
 29 63  1  0
 30 64  1  0
 31 65  1  0
 32 66  1  0
 33 67  1  0
 35 68  1  0
 36 69  1  0
 37 70  1  0
 38 71  1  0
 39 72  1  0
 41 73  1  0
 42 74  1  0
 43 75  1  0
 44 76  1  0
 45 77  1  0
M  END
>  <Binding energies>  (1) 
[-10.21]

>  <Ligand effiencies>  (1) 
[-0.21270833333333336]

>  <Interactions>  (1) 
["V-B:GLU:543:CB:9877, V-A:GLU:543:CB:4905, V-B:TYR:539:CD2:9845, V-B:TYR:539:CZ:9848, V-B:HIS:456:CE1:9040, V-A:HIS:456:CE1:4069, V-A:GLU:543:CD:4907, V-A:GLU:543:CG:4906, V-B:PRO:540:CB:9856, V-B:TYR:539:CE2:9847, V-B:GLU:543:CD:9879, V-A:ASP:366:CG:3212, V-A:ASP:366:CA:3209, V-A:ASP:366:CB:3211, V-A:HIS:456:CD2:4067, V-A:TYR:484:CZ:4346, H-A:ARG:545:NE:4923, V-A:ILE:369:CG2:3236, V-A:ARG:545:CZ:4925, V-A:SER:385:CA:3406, H-A:ARG:545:NH1:4926, V-A:SER:385:CB:3408, V-A:TYR:484:CE2:4345, H-A:GLY:454:N:4049, H-A:ARG:545:NH2:4927, V-A:ILE:369:CD1:3238, V-A:LEU:475:CD2:4258, V-B:PRO:540:CA:9854, V-A:ASP:366:C:3207, H-A:TYR:484:OH:4347, V-A:TYR:531:CE1:4791, H-A:ASP:366:OD1:3213, H-A:ASP:366:OD2:3214, V-A:GLY:454:CA:4048, V-A:SER:385:C:3404, V-B:GLU:543:CA:9875, H-A:GLU:543:OE1:4908, V-A:GLU:543:C:4901, V-B:TYR:484:CZ:9317, V-B:TYR:484:CE2:9316, V-A:GLU:543:CA:4903"]

$$$$
RR5_Rahimova_2017-again1
     RDKit          3D

 76 81  0  0  0  0  0  0  0  0999 V2000
  132.2200  123.4110   64.1310 O   0  0  0  0  0  0  0  0  0  0  0  0
  132.4930  124.4970   63.6210 C   0  0  0  0  0  0  0  0  0  0  0  0
  133.2310  125.5530   64.4700 C   0  0  0  0  0  0  0  0  0  0  0  0
  132.9470  125.5400   66.0080 C   0  0  2  0  0  0  0  0  0  0  0  0
  131.8970  126.5340   66.3140 N   0  0  0  0  0  0  0  0  0  0  0  0
  130.6450  126.1520   66.7850 C   0  0  0  0  0  0  0  0  0  0  0  0
  130.2540  124.9980   66.9780 O   0  0  0  0  0  0  0  0  0  0  0  0
  129.9100  127.2590   67.0020 O   0  0  0  0  0  0  0  0  0  0  0  0
  130.2890  128.2060   67.9950 C   0  0  0  0  0  0  0  0  0  0  0  0
  129.0360  128.8010   68.6660 C   0  0  0  0  0  0  0  0  0  0  0  0
  127.8810  129.0200   67.7050 C   0  0  0  0  0  0  0  0  0  0  0  0
  127.8140  129.8100   66.5550 C   0  0  0  0  0  0  0  0  0  0  0  0
  126.6370  129.8510   65.8040 C   0  0  0  0  0  0  0  0  0  0  0  0
  125.5250  129.1080   66.2040 C   0  0  0  0  0  0  0  0  0  0  0  0
  125.5860  128.3220   67.3550 C   0  0  0  0  0  0  0  0  0  0  0  0
  126.7640  128.2820   68.1040 C   0  0  0  0  0  0  0  0  0  0  0  0
  127.0990  127.5620   69.3420 C   0  0  0  0  0  0  0  0  0  0  0  0
  126.3390  126.7070   70.1420 C   0  0  0  0  0  0  0  0  0  0  0  0
  126.9030  126.1570   71.2950 C   0  0  0  0  0  0  0  0  0  0  0  0
  128.2190  126.4620   71.6450 C   0  0  0  0  0  0  0  0  0  0  0  0
  128.9780  127.3170   70.8430 C   0  0  0  0  0  0  0  0  0  0  0  0
  128.4170  127.8660   69.6860 C   0  0  0  0  0  0  0  0  0  0  0  0
  134.2590  125.7900   66.8560 C   0  0  0  0  0  0  0  0  0  0  0  0
  134.0660  125.8900   68.0900 O   0  0  0  0  0  0  0  0  0  0  0  0
  135.3430  125.8230   66.2250 O   0  0  0  0  0  0  0  0  0  0  0  0
  132.2880  124.7660   62.3140 N   0  0  0  0  0  0  0  0  0  0  0  0
  131.6280  123.9390   61.2710 C   0  0  0  0  0  0  0  0  0  0  0  0
  132.1580  122.4710   61.3360 C   0  0  0  0  0  0  0  0  0  0  0  0
  133.5290  122.2040   61.4960 C   0  0  0  0  0  0  0  0  0  0  0  0
  134.0020  120.8970   61.5670 C   0  0  0  0  0  0  0  0  0  0  0  0
  133.1080  119.8350   61.4830 C   0  0  0  0  0  0  0  0  0  0  0  0
  131.7460  120.0710   61.3290 C   0  0  0  0  0  0  0  0  0  0  0  0
  131.2740  121.3790   61.2570 C   0  0  0  0  0  0  0  0  0  0  0  0
  130.0820  123.7790   61.4260 C   0  0  0  0  0  0  0  0  0  0  0  0
  129.4540  124.0060   62.6630 C   0  0  0  0  0  0  0  0  0  0  0  0
  128.0770  123.8630   62.8060 C   0  0  0  0  0  0  0  0  0  0  0  0
  127.3050  123.4960   61.7080 C   0  0  0  0  0  0  0  0  0  0  0  0
  127.9010  123.2760   60.4700 C   0  0  0  0  0  0  0  0  0  0  0  0
  129.2780  123.4190   60.3310 C   0  0  0  0  0  0  0  0  0  0  0  0
  132.0480  124.6170   59.9210 C   0  0  0  0  0  0  0  0  0  0  0  0
  133.2700  124.3200   59.2920 C   0  0  0  0  0  0  0  0  0  0  0  0
  133.6190  124.9170   58.0850 C   0  0  0  0  0  0  0  0  0  0  0  0
  132.7440  125.8120   57.4790 C   0  0  0  0  0  0  0  0  0  0  0  0
  131.5190  126.1070   58.0670 C   0  0  0  0  0  0  0  0  0  0  0  0
  131.1720  125.5090   59.2750 C   0  0  0  0  0  0  0  0  0  0  0  0
  134.3110  125.3989   64.3290 H   0  0  0  0  0  0  0  0  0  0  0  0
  132.8557  126.5240   64.1145 H   0  0  0  0  0  0  0  0  0  0  0  0
  132.5890  124.5401   66.2944 H   0  0  0  0  0  0  0  0  0  0  0  0
  132.1230  127.5160   66.2400 H   0  0  0  0  0  0  0  0  0  0  0  0
  130.9070  127.7073   68.7561 H   0  0  0  0  0  0  0  0  0  0  0  0
  130.8614  129.0161   67.5196 H   0  0  0  0  0  0  0  0  0  0  0  0
  129.4235  129.7361   69.0966 H   0  0  0  0  0  0  0  0  0  0  0  0
  128.6879  130.3997   66.2409 H   0  0  0  0  0  0  0  0  0  0  0  0
  126.5863  130.4698   64.8959 H   0  0  0  0  0  0  0  0  0  0  0  0
  124.5993  129.1423   65.6108 H   0  0  0  0  0  0  0  0  0  0  0  0
  124.7101  127.7364   67.6711 H   0  0  0  0  0  0  0  0  0  0  0  0
  125.3015  126.4678   69.8657 H   0  0  0  0  0  0  0  0  0  0  0  0
  126.3088  125.4821   71.9286 H   0  0  0  0  0  0  0  0  0  0  0  0
  128.6595  126.0280   72.5547 H   0  0  0  0  0  0  0  0  0  0  0  0
  130.0147  127.5579   71.1209 H   0  0  0  0  0  0  0  0  0  0  0  0
  132.4910  125.7100   62.0190 H   0  0  0  0  0  0  0  0  0  0  0  0
  134.2390  123.0412   61.5662 H   0  0  0  0  0  0  0  0  0  0  0  0
  135.0782  120.7048   61.6890 H   0  0  0  0  0  0  0  0  0  0  0  0
  133.4805  118.8015   61.5387 H   0  0  0  0  0  0  0  0  0  0  0  0
  131.0437  119.2268   61.2643 H   0  0  0  0  0  0  0  0  0  0  0  0
  130.1959  121.5611   61.1368 H   0  0  0  0  0  0  0  0  0  0  0  0
  130.0606  124.3014   63.5318 H   0  0  0  0  0  0  0  0  0  0  0  0
  127.6014  124.0392   63.7821 H   0  0  0  0  0  0  0  0  0  0  0  0
  126.2169  123.3791   61.8194 H   0  0  0  0  0  0  0  0  0  0  0  0
  127.2856  122.9900   59.6042 H   0  0  0  0  0  0  0  0  0  0  0  0
  129.7442  123.2477   59.3495 H   0  0  0  0  0  0  0  0  0  0  0  0
  133.9608  123.6044   59.7617 H   0  0  0  0  0  0  0  0  0  0  0  0
  134.5837  124.6820   57.6116 H   0  0  0  0  0  0  0  0  0  0  0  0
  133.0228  126.2897   56.5282 H   0  0  0  0  0  0  0  0  0  0  0  0
  130.8272  126.8098   57.5797 H   0  0  0  0  0  0  0  0  0  0  0  0
  130.1978  125.7372   59.7319 H   0  0  0  0  0  0  0  0  0  0  0  0
  1  2  2  0
  2  3  1  0
  3  4  1  0
  4  5  1  0
  5  6  1  0
  6  7  2  0
  6  8  1  0
  8  9  1  0
  9 10  1  0
 10 11  1  0
 11 12  2  0
 12 13  1  0
 13 14  2  0
 14 15  1  0
 15 16  2  0
 16 17  1  0
 17 18  2  0
 18 19  1  0
 19 20  2  0
 20 21  1  0
 21 22  2  0
  4 23  1  0
 23 24  2  0
 23 25  1  0
  2 26  1  0
 26 27  1  0
 27 28  1  0
 28 29  2  0
 29 30  1  0
 30 31  2  0
 31 32  1  0
 32 33  2  0
 27 34  1  0
 34 35  2  0
 35 36  1  0
 36 37  2  0
 37 38  1  0
 38 39  2  0
 27 40  1  0
 40 41  2  0
 41 42  1  0
 42 43  2  0
 43 44  1  0
 44 45  2  0
 22 10  1  0
 33 28  1  0
 39 34  1  0
 45 40  1  0
 16 11  1  0
 22 17  1  0
  3 46  1  0
  3 47  1  0
  4 48  1  1
  5 49  1  0
  9 50  1  0
  9 51  1  0
 10 52  1  0
 12 53  1  0
 13 54  1  0
 14 55  1  0
 15 56  1  0
 18 57  1  0
 19 58  1  0
 20 59  1  0
 21 60  1  0
 26 61  1  0
 29 62  1  0
 30 63  1  0
 31 64  1  0
 32 65  1  0
 33 66  1  0
 35 67  1  0
 36 68  1  0
 37 69  1  0
 38 70  1  0
 39 71  1  0
 41 72  1  0
 42 73  1  0
 43 74  1  0
 44 75  1  0
 45 76  1  0
M  CHG  1  25  -1
M  END
>  <Binding energies>  (1) 
[-11.56]

>  <Ligand effiencies>  (1) 
[-0.24595744680851064]

>  <Interactions>  (1) 
["V-B:GLU:543:CB:9877, V-A:GLU:543:CB:4905, V-B:TYR:539:CD2:9845, V-B:TYR:539:CZ:9848, V-B:HIS:456:CE1:9040, V-A:HIS:456:CE1:4069, V-A:GLU:543:CD:4907, V-A:GLU:543:CG:4906, V-B:TYR:539:CE2:9847, V-B:GLU:543:CD:9879, V-A:ASP:366:CG:3212, V-B:GLU:543:C:9873, V-A:ASP:366:CA:3209, V-B:GLY:544:CA:9885, V-A:ASP:366:CB:3211, V-B:GLY:544:C:9883, V-B:ARG:545:CG:9893, V-A:TYR:484:CZ:4346, H-A:ARG:545:NE:4923, V-A:ILE:369:CG2:3236, V-A:ARG:545:CZ:4925, V-A:SER:385:CA:3406, H-A:ARG:545:NH1:4926, V-A:SER:385:CB:3408, V-A:ARG:545:CD:4922, H-A:GLY:454:N:4049, V-A:ARG:545:CG:4921, V-A:ILE:369:CD1:3238, V-A:LEU:475:CD2:4258, V-B:PRO:540:CA:9854, V-A:ILE:369:CB:3235, V-A:ASP:366:C:3207, H-A:TYR:484:OH:4347, H-A:ASP:366:OD1:3213, H-A:ASP:366:OD2:3214, V-A:SER:385:C:3404, H-A:GLU:543:OE1:4908, H-A:GLU:543:OE2:4909, V-B:ARG:545:CA:9890, H-A:ILE:455:N:4054, H-A:HIS:456:ND1:4066"]

$$$$
RR6_Rahimova_2017
     RDKit          3D

 63 66  0  0  0  0  0  0  0  0999 V2000
  133.6420  131.1540   57.8170 C   0  0  0  0  0  0  0  0  0  0  0  0
  133.1930  132.4630   58.1400 O   0  0  0  0  0  0  0  0  0  0  0  0
  131.8710  132.7720   58.1220 C   0  0  0  0  0  0  0  0  0  0  0  0
  131.2940  133.2320   57.1320 O   0  0  0  0  0  0  0  0  0  0  0  0
  131.1790  132.4990   59.4270 C   0  0  0  0  0  0  0  0  0  0  0  0
  129.8440  132.8660   59.6510 C   0  0  0  0  0  0  0  0  0  0  0  0
  129.2320  132.6050   60.8760 C   0  0  0  0  0  0  0  0  0  0  0  0
  129.9510  131.9740   61.9010 C   0  0  0  0  0  0  0  0  0  0  0  0
  129.4410  131.6900   63.1810 N   0  0  0  0  0  0  0  0  0  0  0  0
  128.5180  132.3620   63.9030 C   0  0  0  0  0  0  0  0  0  0  0  0
  127.9300  133.3800   63.5400 O   0  0  0  0  0  0  0  0  0  0  0  0
  128.2510  131.8140   65.3100 C   0  0  0  0  0  0  0  0  0  0  0  0
  127.3320  130.2390   65.3220 S   0  0  0  0  0  0  0  0  0  0  0  0
  128.4240  129.0120   66.0100 C   0  0  0  0  0  0  0  0  0  0  0  0
  128.2310  128.7700   67.3280 N   0  0  0  0  0  0  0  0  0  0  0  0
  128.9840  127.8340   67.9590 C   0  0  0  0  0  0  0  0  0  0  0  0
  128.6650  127.5830   69.4030 C   0  0  0  0  0  0  0  0  0  0  0  0
  129.4660  128.1190   70.4240 C   0  0  0  0  0  0  0  0  0  0  0  0
  129.1770  127.8760   71.7640 C   0  0  0  0  0  0  0  0  0  0  0  0
  128.0760  127.0930   72.1100 C   0  0  0  0  0  0  0  0  0  0  0  0
  127.7710  126.8220   73.5710 C   0  0  0  0  0  0  0  0  0  0  0  0
  127.2680  126.5530   71.1120 C   0  0  0  0  0  0  0  0  0  0  0  0
  127.5600  126.8010   69.7750 C   0  0  0  0  0  0  0  0  0  0  0  0
  129.9690  127.1230   67.2650 C   0  0  0  0  0  0  0  0  0  0  0  0
  130.1910  127.3580   65.9010 C   0  0  0  0  0  0  0  0  0  0  0  0
  131.2450  126.5510   65.2180 C   0  0  0  0  0  0  0  0  0  0  0  0
  132.5240  126.4500   65.7760 C   0  0  0  0  0  0  0  0  0  0  0  0
  133.5080  125.6860   65.1540 C   0  0  0  0  0  0  0  0  0  0  0  0
  133.2340  125.0050   63.9690 C   0  0  0  0  0  0  0  0  0  0  0  0
  134.2700  124.2710   63.4250 O   0  0  0  0  0  0  0  0  0  0  0  0
  133.9690  123.2060   62.5290 C   0  0  0  0  0  0  0  0  0  0  0  0
  131.9500  125.0990   63.4080 C   0  0  0  0  0  0  0  0  0  0  0  0
  130.9680  125.8630   64.0330 C   0  0  0  0  0  0  0  0  0  0  0  0
  129.4010  128.3370   65.2490 C   0  0  0  0  0  0  0  0  0  0  0  0
  129.6010  128.6540   63.8320 C   0  0  0  0  0  0  0  0  0  0  0  0
  129.7580  128.9020   62.7120 N   0  0  0  0  0  0  0  0  0  0  0  0
  131.2740  131.5920   61.6750 C   0  0  0  0  0  0  0  0  0  0  0  0
  131.8840  131.8560   60.4520 C   0  0  0  0  0  0  0  0  0  0  0  0
  133.8343  130.5933   58.7436 H   0  0  0  0  0  0  0  0  0  0  0  0
  132.8701  130.6363   57.2287 H   0  0  0  0  0  0  0  0  0  0  0  0
  134.5692  131.2191   57.2287 H   0  0  0  0  0  0  0  0  0  0  0  0
  129.2746  133.3644   58.8526 H   0  0  0  0  0  0  0  0  0  0  0  0
  128.1833  132.8946   61.0387 H   0  0  0  0  0  0  0  0  0  0  0  0
  129.8970  130.9200   63.6490 H   0  0  0  0  0  0  0  0  0  0  0  0
  129.2179  131.6556   65.8101 H   0  0  0  0  0  0  0  0  0  0  0  0
  127.6256  132.5547   65.8298 H   0  0  0  0  0  0  0  0  0  0  0  0
  130.3349  128.7402   70.1612 H   0  0  0  0  0  0  0  0  0  0  0  0
  129.8175  128.3019   72.5504 H   0  0  0  0  0  0  0  0  0  0  0  0
  128.4440  127.4200   74.2031 H   0  0  0  0  0  0  0  0  0  0  0  0
  126.7274  127.0962   73.7847 H   0  0  0  0  0  0  0  0  0  0  0  0
  127.9205  125.7534   73.7847 H   0  0  0  0  0  0  0  0  0  0  0  0
  126.4009  125.9318   71.3808 H   0  0  0  0  0  0  0  0  0  0  0  0
  126.9125  126.3761   68.9938 H   0  0  0  0  0  0  0  0  0  0  0  0
  130.5747  126.3728   67.7945 H   0  0  0  0  0  0  0  0  0  0  0  0
  132.7540  126.9781   66.7131 H   0  0  0  0  0  0  0  0  0  0  0  0
  134.5105  125.6192   65.6017 H   0  0  0  0  0  0  0  0  0  0  0  0
  133.7140  122.3038   63.1043 H   0  0  0  0  0  0  0  0  0  0  0  0
  133.1159  123.4900   61.8953 H   0  0  0  0  0  0  0  0  0  0  0  0
  134.8445  123.0015   61.8953 H   0  0  0  0  0  0  0  0  0  0  0  0
  131.7196  124.5678   62.4727 H   0  0  0  0  0  0  0  0  0  0  0  0
  129.9633  125.9259   63.5895 H   0  0  0  0  0  0  0  0  0  0  0  0
  131.8381  131.0792   62.4680 H   0  0  0  0  0  0  0  0  0  0  0  0
  132.9299  131.5567   60.2891 H   0  0  0  0  0  0  0  0  0  0  0  0
  1  2  1  0
  2  3  1  0
  3  4  2  0
  3  5  1  0
  5  6  2  0
  6  7  1  0
  7  8  2  0
  8  9  1  0
  9 10  1  0
 10 11  2  0
 10 12  1  0
 12 13  1  0
 13 14  1  0
 14 15  2  0
 15 16  1  0
 16 17  1  0
 17 18  2  0
 18 19  1  0
 19 20  2  0
 20 21  1  0
 20 22  1  0
 22 23  2  0
 16 24  2  0
 24 25  1  0
 25 26  1  0
 26 27  2  0
 27 28  1  0
 28 29  2  0
 29 30  1  0
 30 31  1  0
 29 32  1  0
 32 33  2  0
 25 34  2  0
 34 35  1  0
 35 36  3  0
  8 37  1  0
 37 38  2  0
 38  5  1  0
 34 14  1  0
 23 17  1  0
 33 26  1  0
  1 39  1  0
  1 40  1  0
  1 41  1  0
  6 42  1  0
  7 43  1  0
  9 44  1  0
 12 45  1  0
 12 46  1  0
 18 47  1  0
 19 48  1  0
 21 49  1  0
 21 50  1  0
 21 51  1  0
 22 52  1  0
 23 53  1  0
 24 54  1  0
 27 55  1  0
 28 56  1  0
 31 57  1  0
 31 58  1  0
 31 59  1  0
 32 60  1  0
 33 61  1  0
 37 62  1  0
 38 63  1  0
M  END
>  <Binding energies>  (1) 
[-8.43]

>  <Ligand effiencies>  (1) 
[-0.21615384615384614]

>  <Interactions>  (1) 
["V-B:GLU:543:CB:9877, H-B:TYR:484:OH:9318, V-A:PRO:540:CA:4882, V-A:PRO:540:CB:4884, V-B:HIS:456:CE1:9040, V-A:HIS:456:CE1:4069, V-A:GLU:543:CD:4907, V-A:GLU:543:CG:4906, V-B:LYS:547:CE:9921, V-B:GLU:543:C:9873, V-A:ASP:366:CB:3211, V-A:TYR:531:CZ:4793, V-B:GLY:544:C:9883, V-A:ALA:541:CB:4891, V-A:ARG:545:CZ:4925, H-A:GLY:454:N:4049, V-A:ILE:369:CD1:3238, V-A:GLY:454:CA:4048, H-A:GLU:543:OE2:4909, V-A:TYR:539:C:4866, V-A:TYR:531:CE2:4792, V-A:PRO:540:N:4883, V-A:LEU:363:CD1:3188, V-A:LEU:363:CA:3184, V-A:PRO:540:CD:4886"]

$$$$
RR7_Rahimova_2017
     RDKit          3D

 80 86  0  0  0  0  0  0  0  0999 V2000
  133.2480  126.1590   66.7650 C   0  0  0  0  0  0  0  0  0  0  0  0
  133.9310  125.7250   65.5930 O   0  0  0  0  0  0  0  0  0  0  0  0
  133.2320  125.0280   64.6270 C   0  0  0  0  0  0  0  0  0  0  0  0
  132.4730  125.7860   63.7370 C   0  0  0  0  0  0  0  0  0  0  0  0
  131.7400  125.1720   62.7270 C   0  0  0  0  0  0  0  0  0  0  0  0
  131.7380  123.7760   62.5900 C   0  0  0  0  0  0  0  0  0  0  0  0
  130.9520  123.0630   61.4460 C   0  0  0  0  0  0  0  0  0  0  0  0
  129.5760  122.9880   61.8840 O   0  0  0  0  0  0  0  0  0  0  0  0
  129.2580  123.1230   63.2730 C   0  0  0  0  0  0  0  0  0  0  0  0
  127.8430  123.7110   63.4070 C   0  0  1  0  0  0  0  0  0  0  0  0
  127.9560  125.1140   63.1840 O   0  0  0  0  0  0  0  0  0  0  0  0
  127.1680  125.5380   62.1100 C   0  0  1  0  0  0  0  0  0  0  0  0
  127.8100  126.6430   61.4250 N   0  0  0  0  0  0  0  0  0  0  0  0
  127.9980  126.8080   60.0640 C   0  0  0  0  0  0  0  0  0  0  0  0
  128.6560  127.8860   59.7150 N   0  0  0  0  0  0  0  0  0  0  0  0
  128.9780  128.4730   60.9090 C   0  0  0  0  0  0  0  0  0  0  0  0
  129.6920  129.6460   61.2210 C   0  0  0  0  0  0  0  0  0  0  0  0
  130.1940  130.4310   60.1660 N   0  0  0  0  0  0  0  0  0  0  0  0
  130.7440  131.6680   60.2110 C   0  0  0  0  0  0  0  0  0  0  0  0
  130.8770  132.3320   61.2420 O   0  0  0  0  0  0  0  0  0  0  0  0
  131.1800  132.2400   58.8790 C   0  0  0  0  0  0  0  0  0  0  0  0
  130.2620  132.9610   58.0990 C   0  0  0  0  0  0  0  0  0  0  0  0
  130.6430  133.5000   56.8740 C   0  0  0  0  0  0  0  0  0  0  0  0
  131.9460  133.3280   56.4190 C   0  0  0  0  0  0  0  0  0  0  0  0
  132.8730  132.6200   57.1790 C   0  0  0  0  0  0  0  0  0  0  0  0
  132.4930  132.0780   58.4050 C   0  0  0  0  0  0  0  0  0  0  0  0
  129.8800  129.9850   62.5320 N   0  0  0  0  0  0  0  0  0  0  0  0
  129.3620  129.1610   63.4800 C   0  0  0  0  0  0  0  0  0  0  0  0
  128.6580  128.0130   63.2920 N   0  0  0  0  0  0  0  0  0  0  0  0
  128.4840  127.7100   61.9980 C   0  0  0  0  0  0  0  0  0  0  0  0
  126.9470  124.2930   61.2580 C   0  0  0  0  0  0  0  0  0  0  0  0
  126.8410  123.2370   62.3450 C   0  0  2  0  0  0  0  0  0  0  0  0
  125.5220  123.1300   62.8550 O   0  0  0  0  0  0  0  0  0  0  0  0
  130.9620  123.8770   60.1250 C   0  0  0  0  0  0  0  0  0  0  0  0
  132.1280  124.5410   59.7120 C   0  0  0  0  0  0  0  0  0  0  0  0
  132.1460  125.2850   58.5370 C   0  0  0  0  0  0  0  0  0  0  0  0
  130.9940  125.3730   57.7600 C   0  0  0  0  0  0  0  0  0  0  0  0
  129.8270  124.7230   58.1500 C   0  0  0  0  0  0  0  0  0  0  0  0
  129.8110  123.9800   59.3270 C   0  0  0  0  0  0  0  0  0  0  0  0
  131.4530  121.6410   61.0650 C   0  0  0  0  0  0  0  0  0  0  0  0
  130.6220  120.5230   61.2430 C   0  0  0  0  0  0  0  0  0  0  0  0
  131.0650  119.2460   60.9140 C   0  0  0  0  0  0  0  0  0  0  0  0
  132.3510  119.0710   60.4100 C   0  0  0  0  0  0  0  0  0  0  0  0
  133.1960  120.1630   60.2390 C   0  0  0  0  0  0  0  0  0  0  0  0
  132.7510  121.4390   60.5680 C   0  0  0  0  0  0  0  0  0  0  0  0
  132.5150  123.0190   63.4790 C   0  0  0  0  0  0  0  0  0  0  0  0
  133.2490  123.6330   64.4890 C   0  0  0  0  0  0  0  0  0  0  0  0
  133.7925  125.8130   67.6560 H   0  0  0  0  0  0  0  0  0  0  0  0
  133.1937  127.2576   66.7721 H   0  0  0  0  0  0  0  0  0  0  0  0
  132.2303  125.7415   66.7721 H   0  0  0  0  0  0  0  0  0  0  0  0
  132.4535  126.8815   63.8345 H   0  0  0  0  0  0  0  0  0  0  0  0
  131.1554  125.7880   62.0279 H   0  0  0  0  0  0  0  0  0  0  0  0
  129.2949  122.1362   63.7576 H   0  0  0  0  0  0  0  0  0  0  0  0
  129.9856  123.7903   63.7581 H   0  0  0  0  0  0  0  0  0  0  0  0
  127.4764  123.4006   64.3966 H   0  0  0  0  0  0  0  0  0  0  0  0
  126.1902  125.9441   62.4084 H   0  0  0  0  0  0  0  0  0  0  0  0
  127.6212  126.0843   59.3262 H   0  0  0  0  0  0  0  0  0  0  0  0
  130.1240  130.0020   59.2550 H   0  0  0  0  0  0  0  0  0  0  0  0
  129.2322  133.1011   58.4595 H   0  0  0  0  0  0  0  0  0  0  0  0
  129.9161  134.0602   56.2675 H   0  0  0  0  0  0  0  0  0  0  0  0
  132.2465  133.7548   55.4508 H   0  0  0  0  0  0  0  0  0  0  0  0
  133.9019  132.4890   56.8128 H   0  0  0  0  0  0  0  0  0  0  0  0
  133.2257  131.5195   59.0060 H   0  0  0  0  0  0  0  0  0  0  0  0
  129.5327  129.4583   64.5252 H   0  0  0  0  0  0  0  0  0  0  0  0
  126.0220  124.3631   60.6668 H   0  0  0  0  0  0  0  0  0  0  0  0
  127.7278  124.1042   60.5066 H   0  0  0  0  0  0  0  0  0  0  0  0
  127.0673  122.2247   61.9788 H   0  0  0  0  0  0  0  0  0  0  0  0
  125.5720  122.9000   63.7860 H   0  0  0  0  0  0  0  0  0  0  0  0
  133.0386  124.4720   60.3253 H   0  0  0  0  0  0  0  0  0  0  0  0
  133.0654  125.8011   58.2233 H   0  0  0  0  0  0  0  0  0  0  0  0
  131.0064  125.9610   56.8304 H   0  0  0  0  0  0  0  0  0  0  0  0
  128.9208  124.7960   57.5307 H   0  0  0  0  0  0  0  0  0  0  0  0
  128.8873  123.4683   59.6352 H   0  0  0  0  0  0  0  0  0  0  0  0
  129.6082  120.6587   61.6476 H   0  0  0  0  0  0  0  0  0  0  0  0
  130.4025  118.3787   61.0514 H   0  0  0  0  0  0  0  0  0  0  0  0
  132.7014  118.0625   60.1452 H   0  0  0  0  0  0  0  0  0  0  0  0
  134.2126  120.0177   59.8449 H   0  0  0  0  0  0  0  0  0  0  0  0
  133.4233  122.2998   60.4375 H   0  0  0  0  0  0  0  0  0  0  0  0
  132.5445  121.9242   63.3763 H   0  0  0  0  0  0  0  0  0  0  0  0
  133.8451  123.0213   65.1821 H   0  0  0  0  0  0  0  0  0  0  0  0
  1  2  1  0
  2  3  1  0
  3  4  2  0
  4  5  1  0
  5  6  2  0
  6  7  1  0
  7  8  1  0
  8  9  1  0
  9 10  1  0
 10 11  1  0
 11 12  1  0
 12 13  1  0
 13 14  1  0
 14 15  2  0
 15 16  1  0
 16 17  2  0
 17 18  1  0
 18 19  1  0
 19 20  2  0
 19 21  1  0
 21 22  2  0
 22 23  1  0
 23 24  2  0
 24 25  1  0
 25 26  2  0
 17 27  1  0
 27 28  2  0
 28 29  1  0
 29 30  2  0
 12 31  1  0
 31 32  1  0
 32 33  1  0
  7 34  1  0
 34 35  2  0
 35 36  1  0
 36 37  2  0
 37 38  1  0
 38 39  2  0
  7 40  1  0
 40 41  2  0
 41 42  1  0
 42 43  2  0
 43 44  1  0
 44 45  2  0
  6 46  1  0
 46 47  2  0
 47  3  1  0
 32 10  1  0
 39 34  1  0
 45 40  1  0
 30 13  1  0
 30 16  1  0
 26 21  1  0
  1 48  1  0
  1 49  1  0
  1 50  1  0
  4 51  1  0
  5 52  1  0
  9 53  1  0
  9 54  1  0
 10 55  1  1
 12 56  1  1
 14 57  1  0
 18 58  1  0
 22 59  1  0
 23 60  1  0
 24 61  1  0
 25 62  1  0
 26 63  1  0
 28 64  1  0
 31 65  1  0
 31 66  1  0
 32 67  1  6
 33 68  1  0
 35 69  1  0
 36 70  1  0
 37 71  1  0
 38 72  1  0
 39 73  1  0
 41 74  1  0
 42 75  1  0
 43 76  1  0
 44 77  1  0
 45 78  1  0
 46 79  1  0
 47 80  1  0
M  END
>  <Binding energies>  (1) 
[-10.01]

>  <Ligand effiencies>  (1) 
[-0.2042857142857143]

>  <Interactions>  (1) 
["V-A:PRO:540:CA:4882, V-B:TYR:539:CD2:9845, V-A:PRO:540:CB:4884, V-B:TYR:539:CZ:9848, V-A:GLU:543:CD:4907, V-B:TYR:539:CE2:9847, V-B:GLU:543:CD:9879, V-A:ASP:366:CG:3212, V-A:ASP:366:CB:3211, H-A:ALA:541:N:4890, V-B:GLU:543:CG:9878, H-A:ARG:545:NE:4923, V-A:ILE:369:CG2:3236, V-A:ARG:545:CZ:4925, V-A:SER:385:CA:3406, H-A:ARG:545:NH1:4926, V-A:ARG:545:CD:4922, H-A:GLY:454:N:4049, V-B:ALA:541:CB:9863, H-A:ARG:545:NH2:4927, V-A:ARG:545:CG:4921, V-A:LEU:475:CD2:4258, V-B:ALA:541:CA:9861, V-B:PRO:540:CA:9854, H-A:TYR:484:OH:4347, H-B:ALA:541:N:9862, V-A:GLY:454:CA:4048, V-B:PRO:540:C:9852, V-A:TYR:539:C:4866, V-A:TYR:531:CE2:4792, V-A:PRO:540:N:4883, V-A:LEU:363:CD1:3188, V-A:PRO:540:CD:4886, H-B:GLU:543:OE1:9880, H-B:ALA:541:O:9860, V-A:ILE:538:CB:4861"]

$$$$
RR8_A_Rahimova_2017
     RDKit          3D

 73 77  0  0  0  0  0  0  0  0999 V2000
  130.0590  127.8690   63.1180 O   0  0  0  0  0  0  0  0  0  0  0  0
  130.3520  126.7150   63.4500 C   0  0  0  0  0  0  0  0  0  0  0  0
  129.8020  125.5890   62.8990 O   0  0  0  0  0  0  0  0  0  0  0  0
  130.2950  125.1660   61.6580 C   0  0  1  0  0  0  0  0  0  0  0  0
  131.6880  125.0470   61.6700 O   0  0  0  0  0  0  0  0  0  0  0  0
  132.1300  123.9210   60.9160 C   0  0  2  0  0  0  0  0  0  0  0  0
  133.1290  124.4050   59.8520 C   0  0  0  0  0  0  0  0  0  0  0  0
  132.4810  124.4220   58.5880 O   0  0  0  0  0  0  0  0  0  0  0  0
  132.5330  125.6800   57.9280 C   0  0  0  0  0  0  0  0  0  0  0  0
  131.1360  126.2770   57.8430 C   0  0  0  0  0  0  0  0  0  0  0  0
  130.6880  127.1460   58.8410 C   0  0  0  0  0  0  0  0  0  0  0  0
  129.4110  127.6980   58.7620 C   0  0  0  0  0  0  0  0  0  0  0  0
  128.5880  127.3830   57.6830 C   0  0  0  0  0  0  0  0  0  0  0  0
  129.0300  126.5220   56.6810 C   0  0  0  0  0  0  0  0  0  0  0  0
  130.3060  125.9710   56.7590 C   0  0  0  0  0  0  0  0  0  0  0  0
  130.8300  123.3130   60.3730 C   0  0  1  0  0  0  0  0  0  0  0  0
  130.8360  121.8870   60.3710 O   0  0  0  0  0  0  0  0  0  0  0  0
  131.8780  121.2730   61.1210 C   0  0  0  0  0  0  0  0  0  0  0  0
  131.6680  119.7660   61.1660 C   0  0  0  0  0  0  0  0  0  0  0  0
  132.7170  118.9090   60.8240 C   0  0  0  0  0  0  0  0  0  0  0  0
  132.5290  117.5300   60.8540 C   0  0  0  0  0  0  0  0  0  0  0  0
  131.2900  117.0100   61.2240 C   0  0  0  0  0  0  0  0  0  0  0  0
  130.2370  117.8570   61.5600 C   0  0  0  0  0  0  0  0  0  0  0  0
  130.4240  119.2370   61.5280 C   0  0  0  0  0  0  0  0  0  0  0  0
  129.7870  123.7580   61.3820 C   0  0  2  0  0  0  0  0  0  0  0  0
  128.4840  123.7220   60.8060 O   0  0  0  0  0  0  0  0  0  0  0  0
  128.2680  124.6070   59.7120 C   0  0  0  0  0  0  0  0  0  0  0  0
  127.5500  123.8760   58.5880 C   0  0  0  0  0  0  0  0  0  0  0  0
  126.1760  124.0560   58.3950 C   0  0  0  0  0  0  0  0  0  0  0  0
  125.5260  123.3920   57.3580 C   0  0  0  0  0  0  0  0  0  0  0  0
  126.2500  122.5540   56.5140 C   0  0  0  0  0  0  0  0  0  0  0  0
  127.6190  122.3740   56.6950 C   0  0  0  0  0  0  0  0  0  0  0  0
  128.2710  123.0370   57.7320 C   0  0  0  0  0  0  0  0  0  0  0  0
  131.3720  126.4040   64.5060 C   0  0  0  0  0  0  0  0  0  0  0  0
  131.0850  126.5260   65.8740 C   0  0  0  0  0  0  0  0  0  0  0  0
  132.0530  126.2310   66.8300 C   0  0  0  0  0  0  0  0  0  0  0  0
  133.3320  125.8080   66.4440 C   0  0  0  0  0  0  0  0  0  0  0  0
  134.3630  125.4930   67.4630 N   0  0  0  0  0  0  0  0  0  0  0  0
  135.5350  125.4080   67.1080 O   0  0  0  0  0  0  0  0  0  0  0  0
  134.0080  125.3280   68.6270 O   0  0  0  0  0  0  0  0  0  0  0  0
  133.6190  125.6890   65.0780 C   0  0  0  0  0  0  0  0  0  0  0  0
  132.6520  125.9840   64.1220 C   0  0  0  0  0  0  0  0  0  0  0  0
  129.9702  125.9065   60.9122 H   0  0  0  0  0  0  0  0  0  0  0  0
  132.6810  123.1519   61.4771 H   0  0  0  0  0  0  0  0  0  0  0  0
  133.4747  125.4185   60.1036 H   0  0  0  0  0  0  0  0  0  0  0  0
  133.9954  123.7280   59.8182 H   0  0  0  0  0  0  0  0  0  0  0  0
  133.1873  126.3612   58.4918 H   0  0  0  0  0  0  0  0  0  0  0  0
  132.9301  125.5402   56.9117 H   0  0  0  0  0  0  0  0  0  0  0  0
  131.3432  127.3944   59.6889 H   0  0  0  0  0  0  0  0  0  0  0  0
  129.0543  128.3796   59.5483 H   0  0  0  0  0  0  0  0  0  0  0  0
  127.5796  127.8182   57.6216 H   0  0  0  0  0  0  0  0  0  0  0  0
  128.3739  126.2787   55.8323 H   0  0  0  0  0  0  0  0  0  0  0  0
  130.6620  125.2946   55.9679 H   0  0  0  0  0  0  0  0  0  0  0  0
  130.6621  123.6305   59.3333 H   0  0  0  0  0  0  0  0  0  0  0  0
  132.8460  121.4920   60.6467 H   0  0  0  0  0  0  0  0  0  0  0  0
  131.8671  121.6701   62.1468 H   0  0  0  0  0  0  0  0  0  0  0  0
  133.6925  119.3243   60.5307 H   0  0  0  0  0  0  0  0  0  0  0  0
  133.3545  116.8539   60.5869 H   0  0  0  0  0  0  0  0  0  0  0  0
  131.1425  115.9203   61.2509 H   0  0  0  0  0  0  0  0  0  0  0  0
  129.2619  117.4382   61.8494 H   0  0  0  0  0  0  0  0  0  0  0  0
  129.5940  119.9108   61.7872 H   0  0  0  0  0  0  0  0  0  0  0  0
  129.6785  123.1404   62.2857 H   0  0  0  0  0  0  0  0  0  0  0  0
  127.6535  125.4561   60.0457 H   0  0  0  0  0  0  0  0  0  0  0  0
  129.2385  124.9718   59.3445 H   0  0  0  0  0  0  0  0  0  0  0  0
  125.6093  124.7220   59.0624 H   0  0  0  0  0  0  0  0  0  0  0  0
  124.4452  123.5289   57.2062 H   0  0  0  0  0  0  0  0  0  0  0  0
  125.7353  122.0288   55.6959 H   0  0  0  0  0  0  0  0  0  0  0  0
  128.1829  121.7113   56.0221 H   0  0  0  0  0  0  0  0  0  0  0  0
  129.3528  122.9008   57.8778 H   0  0  0  0  0  0  0  0  0  0  0  0
  130.0862  126.8577   66.1939 H   0  0  0  0  0  0  0  0  0  0  0  0
  131.8116  126.3309   67.8985 H   0  0  0  0  0  0  0  0  0  0  0  0
  134.6184  125.3592   64.7581 H   0  0  0  0  0  0  0  0  0  0  0  0
  132.8952  125.8864   63.0537 H   0  0  0  0  0  0  0  0  0  0  0  0
  1  2  2  0
  2  3  1  0
  3  4  1  0
  4  5  1  0
  5  6  1  0
  6  7  1  0
  7  8  1  0
  8  9  1  0
  9 10  1  0
 10 11  2  0
 11 12  1  0
 12 13  2  0
 13 14  1  0
 14 15  2  0
  6 16  1  0
 16 17  1  0
 17 18  1  0
 18 19  1  0
 19 20  2  0
 20 21  1  0
 21 22  2  0
 22 23  1  0
 23 24  2  0
 16 25  1  0
 25 26  1  0
 26 27  1  0
 27 28  1  0
 28 29  2  0
 29 30  1  0
 30 31  2  0
 31 32  1  0
 32 33  2  0
  2 34  1  0
 34 35  2  0
 35 36  1  0
 36 37  2  0
 37 38  1  0
 38 39  2  0
 38 40  1  0
 37 41  1  0
 41 42  2  0
 25  4  1  0
 33 28  1  0
 42 34  1  0
 15 10  1  0
 24 19  1  0
  4 43  1  6
  6 44  1  1
  7 45  1  0
  7 46  1  0
  9 47  1  0
  9 48  1  0
 11 49  1  0
 12 50  1  0
 13 51  1  0
 14 52  1  0
 15 53  1  0
 16 54  1  6
 18 55  1  0
 18 56  1  0
 20 57  1  0
 21 58  1  0
 22 59  1  0
 23 60  1  0
 24 61  1  0
 25 62  1  1
 27 63  1  0
 27 64  1  0
 29 65  1  0
 30 66  1  0
 31 67  1  0
 32 68  1  0
 33 69  1  0
 35 70  1  0
 36 71  1  0
 41 72  1  0
 42 73  1  0
M  CHG  2  38   1  40  -1
M  END
>  <Binding energies>  (1) 
[-10.33]

>  <Ligand effiencies>  (1) 
[-0.24595238095238095]

>  <Interactions>  (1) 
["V-B:PRO:540:CD:9858, V-B:PRO:540:N:9855, V-B:MET:535:CE:9806, V-B:TYR:539:CD2:9845, V-B:TYR:539:CZ:9848, V-A:HIS:456:CE1:4069, V-B:TYR:539:C:9838, V-B:TYR:539:CE1:9846, V-B:TYR:539:CD1:9844, V-A:GLU:543:CD:4907, V-B:PRO:540:CB:9856, V-B:TYR:539:CE2:9847, V-B:TYR:539:CG:9843, V-A:ASP:366:CG:3212, V-A:ASP:366:CA:3209, V-A:ASP:366:CB:3211, V-A:TYR:484:CZ:4346, V-A:ARG:545:CZ:4925, V-A:SER:385:CA:3406, V-A:SER:385:CB:3408, V-A:ARG:545:CD:4922, H-A:GLY:454:N:4049, V-B:ALA:541:CB:9863, V-A:ARG:545:CG:4921, V-A:ILE:369:CD1:3238, V-A:LEU:475:CD2:4258, V-A:HIS:383:CE1:3393, H-B:TYR:539:OH:9849, V-A:PRO:482:CG:4326, V-A:ASP:366:C:3207, H-A:TYR:484:OH:4347, V-A:PRO:482:CB:4325, V-B:TYR:539:CA:9840, V-A:ILE:455:C:4051, H-A:ILE:455:N:4054, H-A:HIS:456:ND1:4066"]

$$$$
RR8_B_Rahimova_2017
     RDKit          3D

 73 77  0  0  0  0  0  0  0  0999 V2000
  129.1300  127.0390   63.5950 O   0  0  0  0  0  0  0  0  0  0  0  0
  129.9130  126.0840   63.6120 C   0  0  0  0  0  0  0  0  0  0  0  0
  129.7930  124.9720   62.8250 O   0  0  0  0  0  0  0  0  0  0  0  0
  129.0900  123.8680   63.3390 C   0  0  2  0  0  0  0  0  0  0  0  0
  129.9000  123.0670   64.1530 O   0  0  0  0  0  0  0  0  0  0  0  0
  130.5280  122.0280   63.4030 C   0  0  2  0  0  0  0  0  0  0  0  0
  132.0560  122.1440   63.5460 C   0  0  0  0  0  0  0  0  0  0  0  0
  132.6580  122.0070   62.2650 O   0  0  0  0  0  0  0  0  0  0  0  0
  133.6060  123.0120   61.9390 C   0  0  0  0  0  0  0  0  0  0  0  0
  133.0740  123.8470   60.7840 C   0  0  0  0  0  0  0  0  0  0  0  0
  131.8820  124.5610   60.9350 C   0  0  0  0  0  0  0  0  0  0  0  0
  131.3770  125.3080   59.8740 C   0  0  0  0  0  0  0  0  0  0  0  0
  132.0680  125.3400   58.6640 C   0  0  0  0  0  0  0  0  0  0  0  0
  133.2600  124.6360   58.5080 C   0  0  0  0  0  0  0  0  0  0  0  0
  133.7640  123.8870   59.5680 C   0  0  0  0  0  0  0  0  0  0  0  0
  129.9840  122.2040   61.9810 C   0  0  1  0  0  0  0  0  0  0  0  0
  129.8160  120.9240   61.3640 O   0  0  0  0  0  0  0  0  0  0  0  0
  130.5670  119.8360   61.9080 C   0  0  0  0  0  0  0  0  0  0  0  0
  131.3870  119.1120   60.8450 C   0  0  0  0  0  0  0  0  0  0  0  0
  130.9100  117.9260   60.2790 C   0  0  0  0  0  0  0  0  0  0  0  0
  131.6460  117.2850   59.2860 C   0  0  0  0  0  0  0  0  0  0  0  0
  132.8580  117.8290   58.8650 C   0  0  0  0  0  0  0  0  0  0  0  0
  133.3420  119.0080   59.4280 C   0  0  0  0  0  0  0  0  0  0  0  0
  132.6040  119.6520   60.4190 C   0  0  0  0  0  0  0  0  0  0  0  0
  128.6710  122.9510   62.1900 C   0  0  2  0  0  0  0  0  0  0  0  0
  128.3020  123.6480   61.0030 O   0  0  0  0  0  0  0  0  0  0  0  0
  128.8590  123.1470   59.7980 C   0  0  0  0  0  0  0  0  0  0  0  0
  127.7490  123.0500   58.7660 C   0  0  0  0  0  0  0  0  0  0  0  0
  127.9960  122.4770   57.5150 C   0  0  0  0  0  0  0  0  0  0  0  0
  126.9760  122.4120   56.5690 C   0  0  0  0  0  0  0  0  0  0  0  0
  125.7160  122.9180   56.8760 C   0  0  0  0  0  0  0  0  0  0  0  0
  125.4620  123.4890   58.1220 C   0  0  0  0  0  0  0  0  0  0  0  0
  126.4800  123.5550   59.0680 C   0  0  0  0  0  0  0  0  0  0  0  0
  131.0930  126.0060   64.5380 C   0  0  0  0  0  0  0  0  0  0  0  0
  132.3640  125.6230   64.0850 C   0  0  0  0  0  0  0  0  0  0  0  0
  133.4370  125.5510   64.9670 C   0  0  0  0  0  0  0  0  0  0  0  0
  133.2650  125.8480   66.3240 C   0  0  0  0  0  0  0  0  0  0  0  0
  134.4050  125.7440   67.2680 N   0  0  0  0  0  0  0  0  0  0  0  0
  135.4980  125.3880   66.8350 O   0  0  0  0  0  0  0  0  0  0  0  0
  134.2180  126.0240   68.4500 O   0  0  0  0  0  0  0  0  0  0  0  0
  131.9970  126.2360   66.7750 C   0  0  0  0  0  0  0  0  0  0  0  0
  130.9250  126.3160   65.8930 C   0  0  0  0  0  0  0  0  0  0  0  0
  128.2401  124.2768   63.9052 H   0  0  0  0  0  0  0  0  0  0  0  0
  130.3080  121.0066   63.7471 H   0  0  0  0  0  0  0  0  0  0  0  0
  132.3122  123.1263   63.9696 H   0  0  0  0  0  0  0  0  0  0  0  0
  132.4255  121.3522   64.2142 H   0  0  0  0  0  0  0  0  0  0  0  0
  133.7726  123.6580   62.8136 H   0  0  0  0  0  0  0  0  0  0  0  0
  134.5568  122.5420   61.6475 H   0  0  0  0  0  0  0  0  0  0  0  0
  131.3422  124.5328   61.8931 H   0  0  0  0  0  0  0  0  0  0  0  0
  130.4383  125.8695   59.9901 H   0  0  0  0  0  0  0  0  0  0  0  0
  131.6682  125.9269   57.8239 H   0  0  0  0  0  0  0  0  0  0  0  0
  133.8010  124.6717   57.5509 H   0  0  0  0  0  0  0  0  0  0  0  0
  134.7036  123.3275   59.4493 H   0  0  0  0  0  0  0  0  0  0  0  0
  130.6501  122.7591   61.3041 H   0  0  0  0  0  0  0  0  0  0  0  0
  131.2499  120.2266   62.6768 H   0  0  0  0  0  0  0  0  0  0  0  0
  129.8546  119.1142   62.3340 H   0  0  0  0  0  0  0  0  0  0  0  0
  129.9542  117.4997   60.6178 H   0  0  0  0  0  0  0  0  0  0  0  0
  131.2725  116.3534   58.8358 H   0  0  0  0  0  0  0  0  0  0  0  0
  133.4386  117.3223   58.0800 H   0  0  0  0  0  0  0  0  0  0  0  0
  134.3015  119.4281   59.0920 H   0  0  0  0  0  0  0  0  0  0  0  0
  132.9788  120.5847   60.8658 H   0  0  0  0  0  0  0  0  0  0  0  0
  127.7816  122.3428   62.4116 H   0  0  0  0  0  0  0  0  0  0  0  0
  129.6431  123.8295   59.4383 H   0  0  0  0  0  0  0  0  0  0  0  0
  129.3060  122.1566   59.9692 H   0  0  0  0  0  0  0  0  0  0  0  0
  128.9936  122.0784   57.2784 H   0  0  0  0  0  0  0  0  0  0  0  0
  127.1653  121.9626   55.5830 H   0  0  0  0  0  0  0  0  0  0  0  0
  124.9120  122.8667   56.1271 H   0  0  0  0  0  0  0  0  0  0  0  0
  124.4628  123.8850   58.3559 H   0  0  0  0  0  0  0  0  0  0  0  0
  126.2870  124.0043   60.0533 H   0  0  0  0  0  0  0  0  0  0  0  0
  132.5134  125.3775   63.0232 H   0  0  0  0  0  0  0  0  0  0  0  0
  134.4298  125.2580   64.5948 H   0  0  0  0  0  0  0  0  0  0  0  0
  131.8478  126.4798   67.8372 H   0  0  0  0  0  0  0  0  0  0  0  0
  129.9364  126.6255   66.2630 H   0  0  0  0  0  0  0  0  0  0  0  0
  1  2  2  0
  2  3  1  0
  3  4  1  0
  4  5  1  0
  5  6  1  0
  6  7  1  0
  7  8  1  0
  8  9  1  0
  9 10  1  0
 10 11  2  0
 11 12  1  0
 12 13  2  0
 13 14  1  0
 14 15  2  0
  6 16  1  0
 16 17  1  0
 17 18  1  0
 18 19  1  0
 19 20  2  0
 20 21  1  0
 21 22  2  0
 22 23  1  0
 23 24  2  0
 16 25  1  0
 25 26  1  0
 26 27  1  0
 27 28  1  0
 28 29  2  0
 29 30  1  0
 30 31  2  0
 31 32  1  0
 32 33  2  0
  2 34  1  0
 34 35  2  0
 35 36  1  0
 36 37  2  0
 37 38  1  0
 38 39  2  0
 38 40  1  0
 37 41  1  0
 41 42  2  0
 25  4  1  0
 33 28  1  0
 42 34  1  0
 15 10  1  0
 24 19  1  0
  4 43  1  1
  6 44  1  1
  7 45  1  0
  7 46  1  0
  9 47  1  0
  9 48  1  0
 11 49  1  0
 12 50  1  0
 13 51  1  0
 14 52  1  0
 15 53  1  0
 16 54  1  6
 18 55  1  0
 18 56  1  0
 20 57  1  0
 21 58  1  0
 22 59  1  0
 23 60  1  0
 24 61  1  0
 25 62  1  1
 27 63  1  0
 27 64  1  0
 29 65  1  0
 30 66  1  0
 31 67  1  0
 32 68  1  0
 33 69  1  0
 35 70  1  0
 36 71  1  0
 41 72  1  0
 42 73  1  0
M  CHG  2  38   1  40  -1
M  END
>  <Binding energies>  (1) 
[-11.01]

>  <Ligand effiencies>  (1) 
[-0.2621428571428571]

>  <Interactions>  (1) 
["V-B:PRO:540:CD:9858, V-B:PRO:540:N:9855, V-B:MET:535:CE:9806, V-B:TYR:539:CD2:9845, V-B:TYR:539:CZ:9848, V-B:TYR:539:C:9838, V-B:TYR:539:CE1:9846, V-B:TYR:539:CD1:9844, V-B:PRO:540:CB:9856, V-B:TYR:539:CE2:9847, V-B:GLU:543:CD:9879, V-B:TYR:539:CG:9843, V-A:ASP:366:CG:3212, V-A:ASP:366:CA:3209, V-A:ASP:366:CB:3211, V-A:ILE:369:CG2:3236, V-A:ARG:545:CZ:4925, V-A:SER:385:CA:3406, V-A:ARG:545:CD:4922, H-A:GLY:454:N:4049, V-B:ALA:541:CB:9863, V-A:ARG:545:CG:4921, V-A:ILE:369:CD1:3238, V-A:LEU:475:CD2:4258, V-A:HIS:383:CE1:3393, V-B:PRO:540:CA:9854, V-B:TYR:539:CB:9842, V-A:ILE:369:CB:3235, V-A:ASP:366:C:3207, H-A:TYR:484:OH:4347, V-A:LEU:373:CD2:3280, V-A:LEU:373:CG:3278, V-B:TYR:539:CA:9840, V-A:LEU:373:CD1:3279, V-A:ILE:369:CG1:3237, H-A:ILE:455:N:4054, H-A:HIS:456:ND1:4066"]

$$$$
RR9_Rahimova_2017
     RDKit          3D

 64 68  0  0  0  0  0  0  0  0999 V2000
  132.5970  127.6080   75.1950 C   0  0  0  0  0  0  0  0  0  0  0  0
  131.1630  127.5850   75.7350 C   0  0  0  0  0  0  0  0  0  0  0  0
  130.4050  128.5860   75.0620 O   0  0  0  0  0  0  0  0  0  0  0  0
  130.1520  128.4510   73.7110 C   0  0  0  0  0  0  0  0  0  0  0  0
  130.9320  129.2210   72.8500 C   0  0  0  0  0  0  0  0  0  0  0  0
  130.7470  129.1530   71.4730 C   0  0  0  0  0  0  0  0  0  0  0  0
  129.7730  128.3100   70.9160 C   0  0  0  0  0  0  0  0  0  0  0  0
  129.5650  128.2360   69.4320 C   0  0  0  0  0  0  0  0  0  0  0  0
  130.2520  127.3040   68.6390 C   0  0  0  0  0  0  0  0  0  0  0  0
  130.0440  127.2300   67.2500 C   0  0  0  0  0  0  0  0  0  0  0  0
  130.7330  126.1430   66.4700 C   0  0  0  0  0  0  0  0  0  0  0  0
  130.2680  125.0040   66.4450 O   0  0  0  0  0  0  0  0  0  0  0  0
  131.8730  126.5030   65.8460 N   0  0  0  0  0  0  0  0  0  0  0  0
  132.7870  125.6000   65.1380 C   0  0  0  0  0  0  0  0  0  0  0  0
  132.4900  125.5040   63.6240 C   0  0  0  0  0  0  0  0  0  0  0  0
  132.8290  124.1580   62.9930 C   0  0  0  0  0  0  0  0  0  0  0  0
  133.1140  124.0760   61.6260 C   0  0  0  0  0  0  0  0  0  0  0  0
  133.4560  122.8500   61.0600 C   0  0  0  0  0  0  0  0  0  0  0  0
  133.5070  121.7110   61.8600 C   0  0  0  0  0  0  0  0  0  0  0  0
  133.2200  121.7850   63.2220 C   0  0  0  0  0  0  0  0  0  0  0  0
  132.8780  123.0110   63.7890 C   0  0  0  0  0  0  0  0  0  0  0  0
  129.1340  128.1670   66.7010 C   0  0  0  0  0  0  0  0  0  0  0  0
  128.6070  128.5410   65.4100 C   0  0  0  0  0  0  0  0  0  0  0  0
  128.9630  128.0280   64.0540 C   0  0  0  0  0  0  0  0  0  0  0  0
  128.0780  127.1970   63.3610 C   0  0  0  0  0  0  0  0  0  0  0  0
  128.4190  126.7060   62.1040 C   0  0  0  0  0  0  0  0  0  0  0  0
  129.6460  127.0470   61.5320 C   0  0  0  0  0  0  0  0  0  0  0  0
  130.0260  126.4970   60.1690 C   0  0  0  0  0  0  0  0  0  0  0  0
  130.5330  127.8750   62.2210 C   0  0  0  0  0  0  0  0  0  0  0  0
  130.1890  128.3670   63.4770 C   0  0  0  0  0  0  0  0  0  0  0  0
  127.7070  129.4910   65.5370 N   0  0  0  0  0  0  0  0  0  0  0  0
  127.6360  129.8220   66.8370 N   0  0  0  0  0  0  0  0  0  0  0  0
  128.4920  129.0570   67.5940 C   0  0  0  0  0  0  0  0  0  0  0  0
  128.6750  129.1270   68.9120 N   0  0  0  0  0  0  0  0  0  0  0  0
  128.9900  127.5410   71.7880 C   0  0  0  0  0  0  0  0  0  0  0  0
  129.1750  127.6060   73.1680 C   0  0  0  0  0  0  0  0  0  0  0  0
  133.3055  127.6194   76.0364 H   0  0  0  0  0  0  0  0  0  0  0  0
  132.7718  126.7125   74.5805 H   0  0  0  0  0  0  0  0  0  0  0  0
  132.7430  128.5086   74.5805 H   0  0  0  0  0  0  0  0  0  0  0  0
  130.7150  126.5969   75.5534 H   0  0  0  0  0  0  0  0  0  0  0  0
  131.1670  127.7824   76.8171 H   0  0  0  0  0  0  0  0  0  0  0  0
  131.7017  129.8892   73.2636 H   0  0  0  0  0  0  0  0  0  0  0  0
  131.3733  129.7690   70.8110 H   0  0  0  0  0  0  0  0  0  0  0  0
  130.9681  126.6170   69.1137 H   0  0  0  0  0  0  0  0  0  0  0  0
  132.1300  127.4790   65.8510 H   0  0  0  0  0  0  0  0  0  0  0  0
  133.8153  125.9675   65.2707 H   0  0  0  0  0  0  0  0  0  0  0  0
  132.6515  124.5949   65.5639 H   0  0  0  0  0  0  0  0  0  0  0  0
  131.4170  125.6930   63.4725 H   0  0  0  0  0  0  0  0  0  0  0  0
  133.1338  126.2486   63.1330 H   0  0  0  0  0  0  0  0  0  0  0  0
  133.0681  124.9785   60.9988 H   0  0  0  0  0  0  0  0  0  0  0  0
  133.6847  122.7817   59.9862 H   0  0  0  0  0  0  0  0  0  0  0  0
  133.7766  120.7430   61.4123 H   0  0  0  0  0  0  0  0  0  0  0  0
  133.2633  120.8802   63.8460 H   0  0  0  0  0  0  0  0  0  0  0  0
  132.6468  123.0757   64.8625 H   0  0  0  0  0  0  0  0  0  0  0  0
  127.1099  126.9305   63.8101 H   0  0  0  0  0  0  0  0  0  0  0  0
  127.7223  126.0498   61.5618 H   0  0  0  0  0  0  0  0  0  0  0  0
  130.6471  125.5981   60.2965 H   0  0  0  0  0  0  0  0  0  0  0  0
  129.1142  126.2367   59.6115 H   0  0  0  0  0  0  0  0  0  0  0  0
  130.5921  127.2577   59.6115 H   0  0  0  0  0  0  0  0  0  0  0  0
  131.5023  128.1385   61.7725 H   0  0  0  0  0  0  0  0  0  0  0  0
  130.8854  129.0253   64.0171 H   0  0  0  0  0  0  0  0  0  0  0  0
  127.0080  130.5480   67.1490 H   0  0  0  0  0  0  0  0  0  0  0  0
  128.2169  126.8754   71.3765 H   0  0  0  0  0  0  0  0  0  0  0  0
  128.5513  126.9913   73.8337 H   0  0  0  0  0  0  0  0  0  0  0  0
  1  2  1  0
  2  3  1  0
  3  4  1  0
  4  5  2  0
  5  6  1  0
  6  7  2  0
  7  8  1  0
  8  9  2  0
  9 10  1  0
 10 11  1  0
 11 12  2  0
 11 13  1  0
 13 14  1  0
 14 15  1  0
 15 16  1  0
 16 17  2  0
 17 18  1  0
 18 19  2  0
 19 20  1  0
 20 21  2  0
 10 22  2  0
 22 23  1  0
 23 24  1  0
 24 25  2  0
 25 26  1  0
 26 27  2  0
 27 28  1  0
 27 29  1  0
 29 30  2  0
 23 31  2  0
 31 32  1  0
 32 33  1  0
 33 34  2  0
  7 35  1  0
 35 36  2  0
 36  4  1  0
 34  8  1  0
 21 16  1  0
 33 22  1  0
 30 24  1  0
  1 37  1  0
  1 38  1  0
  1 39  1  0
  2 40  1  0
  2 41  1  0
  5 42  1  0
  6 43  1  0
  9 44  1  0
 13 45  1  0
 14 46  1  0
 14 47  1  0
 15 48  1  0
 15 49  1  0
 17 50  1  0
 18 51  1  0
 19 52  1  0
 20 53  1  0
 21 54  1  0
 25 55  1  0
 26 56  1  0
 28 57  1  0
 28 58  1  0
 28 59  1  0
 29 60  1  0
 30 61  1  0
 32 62  1  0
 35 63  1  0
 36 64  1  0
M  END
>  <Binding energies>  (1) 
[-8.68]

>  <Ligand effiencies>  (1) 
[-0.22842105263157894]

>  <Interactions>  (1) 
["H-B:TYR:484:OH:9318, V-A:GLU:543:CB:4905, V-B:HIS:456:CE1:9040, V-A:HIS:456:CE1:4069, V-A:GLU:543:CD:4907, V-A:GLU:543:CG:4906, V-B:GLU:543:CD:9879, V-A:ASP:366:CG:3212, V-A:ILE:369:CG2:3236, V-A:ARG:545:CZ:4925, V-A:ILE:369:CD1:3238, V-A:LEU:475:CD2:4258, H-A:TYR:484:OH:4347, V-A:GLY:454:CA:4048, H-A:GLU:543:OE1:4908, H-A:GLU:543:OE2:4909, V-A:GLU:543:C:4901, H-A:LYS:547:NZ:4950, V-A:GLY:544:C:4911, V-A:GLY:544:CA:4913"]

$$$$
