1a_Grossjean_2025
     RDKit          3D

 26 27  0  0  0  0  0  0  0  0999 V2000
  133.3070  126.9650   74.0790 C   0  0  0  0  0  0  0  0  0  0  0  0
  131.8720  127.4540   74.2980 C   0  0  0  0  0  0  0  0  0  0  0  0
  131.0040  126.8000   73.3810 O   0  0  0  0  0  0  0  0  0  0  0  0
  129.7640  127.2900   73.1190 C   0  0  0  0  0  0  0  0  0  0  0  0
  128.9750  127.6480   73.9990 O   0  0  0  0  0  0  0  0  0  0  0  0
  129.4410  127.3370   71.6530 C   0  0  0  0  0  0  0  0  0  0  0  0
  130.2040  128.1560   70.8110 C   0  0  0  0  0  0  0  0  0  0  0  0
  129.9280  128.2240   69.4490 C   0  0  0  0  0  0  0  0  0  0  0  0
  128.8840  127.4790   68.9000 C   0  0  0  0  0  0  0  0  0  0  0  0
  128.6920  127.6260   67.5120 N   0  0  0  0  0  0  0  0  0  0  0  0
  128.4150  128.7310   66.7870 C   0  0  0  0  0  0  0  0  0  0  0  0
  128.2750  129.8670   67.2400 O   0  0  0  0  0  0  0  0  0  0  0  0
  128.2690  128.5060   65.2810 C   0  0  0  0  0  0  0  0  0  0  0  0
  126.5940  128.8910   64.6890 S   0  0  0  0  0  0  0  0  0  0  0  0
  126.7410  130.1820   63.4740 C   0  0  0  0  0  0  0  0  0  0  0  0
  128.0220  130.5420   63.2090 N   0  0  0  0  0  0  0  0  0  0  0  0
  128.2480  131.5210   62.3020 C   0  0  0  0  0  0  0  0  0  0  0  0
  129.7040  131.8790   62.0670 C   0  0  0  0  0  0  0  0  0  0  0  0
  127.2190  132.1690   61.6210 C   0  0  0  0  0  0  0  0  0  0  0  0
  125.8960  131.7910   61.8720 C   0  0  0  0  0  0  0  0  0  0  0  0
  124.7850  132.5040   61.1030 C   0  0  0  0  0  0  0  0  0  0  0  0
  125.6350  130.7680   62.8130 C   0  0  0  0  0  0  0  0  0  0  0  0
  124.2600  130.3220   63.0560 C   0  0  0  0  0  0  0  0  0  0  0  0
  123.1740  129.9720   63.2460 N   0  0  0  0  0  0  0  0  0  0  0  0
  128.1200  126.6490   69.7340 C   0  0  0  0  0  0  0  0  0  0  0  0
  128.3970  126.5820   71.0970 C   0  0  0  0  0  0  0  0  0  0  0  0
  1  2  1  0
  2  3  1  0
  3  4  1  0
  4  5  2  0
  4  6  1  0
  6  7  2  0
  7  8  1  0
  8  9  2  0
  9 10  1  0
 10 11  1  0
 11 12  2  0
 11 13  1  0
 13 14  1  0
 14 15  1  0
 15 16  2  0
 16 17  1  0
 17 18  1  0
 17 19  2  0
 19 20  1  0
 20 21  1  0
 20 22  2  0
 22 23  1  0
 23 24  3  0
  9 25  1  0
 25 26  2  0
 26  6  1  0
 22 15  1  0
M  END
>  <Binding energies>  (1) 
[-7.28]

>  <Ligand effiencies>  (1) 
[-0.26962962962962966]

>  <Interactions>  (1) 
["H-B:GLU:543:OE2:9882, V-B:GLU:543:CD:9880, H-A:GLU:543:OE2:4910, V-A:GLU:543:CD:4908, V-A:ALA:541:CB:4892, V-A:GLU:543:CG:4907, V-A:ALA:541:CA:4890, H-B:GLY:454:N:9022, H-B:TYR:484:OH:9320, H-B:ARG:545:NH1:9899, V-B:HIS:456:CE1:9042, H-B:LYS:547:NZ:9923, V-B:HIS:456:CD2:9040, V-A:LYS:547:CE:4950, V-A:HIS:456:CB:4065, V-A:HIS:456:CD2:4068, V-A:GLY:544:C:4912, V-A:LYS:547:CD:4949, V-B:GLU:543:CB:9878, V-A:HIS:456:CE1:4070, V-A:GLU:543:CB:4906, V-A:GLU:543:C:4902"]

$$$$
1aa_Ghoteimi_2023
     RDKit          3D

 40 43  0  0  0  0  0  0  0  0999 V2000
  130.6170  117.4370   60.1730 C   0  0  0  0  0  0  0  0  0  0  0  0
  130.0340  118.3610   61.2460 C   0  0  0  0  0  0  0  0  0  0  0  0
  130.1390  119.7130   60.8160 O   0  0  0  0  0  0  0  0  0  0  0  0
  129.8680  120.7400   61.6600 C   0  0  0  0  0  0  0  0  0  0  0  0
  130.0170  120.6720   62.8840 O   0  0  0  0  0  0  0  0  0  0  0  0
  129.3670  121.9700   60.9590 C   0  0  0  0  0  0  0  0  0  0  0  0
  128.0940  122.5020   61.2110 C   0  0  0  0  0  0  0  0  0  0  0  0
  127.6560  123.6450   60.5460 C   0  0  0  0  0  0  0  0  0  0  0  0
  128.4910  124.2790   59.6140 C   0  0  0  0  0  0  0  0  0  0  0  0
  128.1570  125.4340   58.8830 N   0  0  0  0  0  0  0  0  0  0  0  0
  126.9610  125.8610   58.4160 C   0  0  0  0  0  0  0  0  0  0  0  0
  125.8930  125.2690   58.5720 O   0  0  0  0  0  0  0  0  0  0  0  0
  126.9410  127.1860   57.6380 C   0  0  0  0  0  0  0  0  0  0  0  0
  127.4020  128.2620   58.4650 O   0  0  0  0  0  0  0  0  0  0  0  0
  127.6250  128.0590   59.8200 C   0  0  0  0  0  0  0  0  0  0  0  0
  128.7650  127.4140   60.1930 N   0  0  0  0  0  0  0  0  0  0  0  0
  129.0120  127.1840   61.5090 C   0  0  0  0  0  0  0  0  0  0  0  0
  130.2910  126.4700   61.8370 C   0  0  0  0  0  0  0  0  0  0  0  0
  131.1750  126.0710   60.8240 C   0  0  0  0  0  0  0  0  0  0  0  0
  132.3610  125.4070   61.1250 C   0  0  0  0  0  0  0  0  0  0  0  0
  132.7010  125.1220   62.4460 C   0  0  0  0  0  0  0  0  0  0  0  0
  133.8960  124.4600   62.6490 O   0  0  0  0  0  0  0  0  0  0  0  0
  134.2590  123.3980   61.7730 C   0  0  0  0  0  0  0  0  0  0  0  0
  131.8300  125.5200   63.4700 C   0  0  0  0  0  0  0  0  0  0  0  0
  130.6460  126.1840   63.1660 C   0  0  0  0  0  0  0  0  0  0  0  0
  128.1140  127.6220   62.4900 C   0  0  0  0  0  0  0  0  0  0  0  0
  126.9390  128.2970   62.1350 C   0  0  0  0  0  0  0  0  0  0  0  0
  126.0270  128.7470   63.2290 C   0  0  0  0  0  0  0  0  0  0  0  0
  124.7540  129.2390   62.9250 C   0  0  0  0  0  0  0  0  0  0  0  0
  123.8950  129.6520   63.9400 C   0  0  0  0  0  0  0  0  0  0  0  0
  124.2870  129.5760   65.2760 C   0  0  0  0  0  0  0  0  0  0  0  0
  123.3690  130.0070   66.2140 O   0  0  0  0  0  0  0  0  0  0  0  0
  123.4140  129.4650   67.5290 C   0  0  0  0  0  0  0  0  0  0  0  0
  125.5600  129.0750   65.5850 C   0  0  0  0  0  0  0  0  0  0  0  0
  126.4180  128.6640   64.5690 C   0  0  0  0  0  0  0  0  0  0  0  0
  126.6840  128.5130   60.7600 C   0  0  0  0  0  0  0  0  0  0  0  0
  125.4630  129.1700   60.2910 C   0  0  0  0  0  0  0  0  0  0  0  0
  124.4980  129.6890   59.9180 N   0  0  0  0  0  0  0  0  0  0  0  0
  129.7570  123.7510   59.3590 C   0  0  0  0  0  0  0  0  0  0  0  0
  130.1930  122.6090   60.0240 C   0  0  0  0  0  0  0  0  0  0  0  0
  1  2  1  0
  2  3  1  0
  3  4  1  0
  4  5  2  0
  4  6  1  0
  6  7  2  0
  7  8  1  0
  8  9  2  0
  9 10  1  0
 10 11  1  0
 11 12  2  0
 11 13  1  0
 13 14  1  0
 14 15  1  0
 15 16  2  0
 16 17  1  0
 17 18  1  0
 18 19  2  0
 19 20  1  0
 20 21  2  0
 21 22  1  0
 22 23  1  0
 21 24  1  0
 24 25  2  0
 17 26  2  0
 26 27  1  0
 27 28  1  0
 28 29  2  0
 29 30  1  0
 30 31  2  0
 31 32  1  0
 32 33  1  0
 31 34  1  0
 34 35  2  0
 27 36  2  0
 36 37  1  0
 37 38  3  0
  9 39  1  0
 39 40  2  0
 40  6  1  0
 36 15  1  0
 25 18  1  0
 35 28  1  0
M  END
>  <Binding energies>  (2) 
[-6.98]

>  <Ligand effiencies>  (2) 
[-0.1702439024390244]

>  <Interactions>  (2) 
["V-B:ALA:541:CB:9864, V-B:TYR:539:CD2:9846, V-A:PRO:482:CG:4327, V-A:PRO:482:CB:4326, V-A:LEU:475:CD1:4258, V-A:LEU:475:CD2:4259, V-B:GLU:543:CD:9880, V-B:TYR:539:CE2:9848, V-A:GLU:543:CD:4908, V-B:PRO:540:C:9853, V-B:PRO:540:CA:9855, V-A:ARG:545:CZ:4926, H-A:TYR:484:OH:4348, V-B:ARG:545:CZ:9898, H-B:GLY:454:N:9022, V-B:GLY:453:C:9014, H-B:TYR:484:OH:9320, V-B:ILE:455:C:9024, V-B:GLY:453:CA:9016, V-B:ARG:545:CD:9895, V-B:HIS:456:CE1:9042, V-B:ARG:545:CG:9894, V-B:ARG:545:CB:9893, V-A:ASP:366:CG:3213, V-A:LEU:475:CG:4257, V-A:GLY:454:CA:4049, V-A:ILE:369:CD1:3239, V-A:GLY:453:CA:4044, V-A:GLY:453:C:4042, V-B:TYR:484:CE1:9317, V-B:TYR:484:CZ:9319, V-B:ASP:366:CG:8185, H-B:ILE:455:N:9027, V-B:ASP:366:CB:8184, H-A:GLY:454:N:4050, H-B:TYR:531:OH:9767, H-A:ARG:545:NH2:4928, V-B:TYR:539:CB:9843"]

$$$$
1b_Grossjean_2025
     RDKit          3D

 25 26  0  0  0  0  0  0  0  0999 V2000
  130.8740  125.4820   74.3760 C   0  0  0  0  0  0  0  0  0  0  0  0
  129.8040  125.9950   73.5940 O   0  0  0  0  0  0  0  0  0  0  0  0
  129.8320  127.2680   73.1230 C   0  0  0  0  0  0  0  0  0  0  0  0
  130.0900  128.2490   73.8270 O   0  0  0  0  0  0  0  0  0  0  0  0
  129.5240  127.3650   71.6550 C   0  0  0  0  0  0  0  0  0  0  0  0
  130.2690  128.1850   70.7930 C   0  0  0  0  0  0  0  0  0  0  0  0
  129.9570  128.2530   69.4390 C   0  0  0  0  0  0  0  0  0  0  0  0
  128.9010  127.5060   68.9170 C   0  0  0  0  0  0  0  0  0  0  0  0
  128.6750  127.6540   67.5350 N   0  0  0  0  0  0  0  0  0  0  0  0
  128.3760  128.7570   66.8150 C   0  0  0  0  0  0  0  0  0  0  0  0
  128.2470  129.8940   67.2680 O   0  0  0  0  0  0  0  0  0  0  0  0
  128.2040  128.5310   65.3120 C   0  0  0  0  0  0  0  0  0  0  0  0
  126.5190  128.9190   64.7490 S   0  0  0  0  0  0  0  0  0  0  0  0
  126.6590  130.1340   63.4550 C   0  0  0  0  0  0  0  0  0  0  0  0
  127.9290  130.5570   63.2370 N   0  0  0  0  0  0  0  0  0  0  0  0
  128.1500  131.4810   62.2730 C   0  0  0  0  0  0  0  0  0  0  0  0
  129.5970  131.8950   62.0760 C   0  0  0  0  0  0  0  0  0  0  0  0
  127.1240  132.0230   61.5020 C   0  0  0  0  0  0  0  0  0  0  0  0
  125.8090  131.6100   61.7350 C   0  0  0  0  0  0  0  0  0  0  0  0
  124.6990  132.2310   60.8880 C   0  0  0  0  0  0  0  0  0  0  0  0
  125.5530  130.6460   62.7360 C   0  0  0  0  0  0  0  0  0  0  0  0
  124.1790  130.2310   63.0270 C   0  0  0  0  0  0  0  0  0  0  0  0
  123.0920  129.9050   63.2540 N   0  0  0  0  0  0  0  0  0  0  0  0
  128.1520  126.6840   69.7720 C   0  0  0  0  0  0  0  0  0  0  0  0
  128.4650  126.6160   71.1260 C   0  0  0  0  0  0  0  0  0  0  0  0
  1  2  1  0
  2  3  1  0
  3  4  2  0
  3  5  1  0
  5  6  2  0
  6  7  1  0
  7  8  2  0
  8  9  1  0
  9 10  1  0
 10 11  2  0
 10 12  1  0
 12 13  1  0
 13 14  1  0
 14 15  2  0
 15 16  1  0
 16 17  1  0
 16 18  2  0
 18 19  1  0
 19 20  1  0
 19 21  2  0
 21 22  1  0
 22 23  3  0
  8 24  1  0
 24 25  2  0
 25  5  1  0
 21 14  1  0
M  END
>  <Binding energies>  (3) 
[-7.12]

>  <Ligand effiencies>  (3) 
[-0.27384615384615385]

>  <Interactions>  (3) 
["H-B:GLU:543:OE2:9882, V-B:GLU:543:CD:9880, H-A:GLU:543:OE2:4910, V-A:GLU:543:CD:4908, V-A:ALA:541:CB:4892, V-A:GLU:543:CG:4907, V-A:ALA:541:CA:4890, H-B:GLY:454:N:9022, H-B:TYR:484:OH:9320, H-B:ARG:545:NH1:9899, V-B:HIS:456:CE1:9042, H-B:LYS:547:NZ:9923, H-A:LYS:547:NZ:4951, V-B:HIS:456:CD2:9040, V-A:HIS:456:CB:4065, V-A:HIS:456:CD2:4068, V-A:GLY:544:C:4912, V-B:GLU:543:CB:9878, V-A:HIS:456:CE1:4070, V-A:GLU:543:CB:4906, V-A:GLU:543:C:4902, V-A:GLY:544:CA:4914, V-B:LYS:547:CE:9922"]

$$$$
1c_Grossjean_2025
     RDKit          3D

 23 24  0  0  0  0  0  0  0  0999 V2000
  122.4360  119.8710   72.2980 C   0  0  0  0  0  0  0  0  0  0  0  0
  123.5510  118.9860   72.2570 O   0  0  0  0  0  0  0  0  0  0  0  0
  124.8160  119.4860   72.4980 C   0  0  0  0  0  0  0  0  0  0  0  0
  125.7870  119.2120   71.5350 C   0  0  0  0  0  0  0  0  0  0  0  0
  127.0920  119.6730   71.6880 C   0  0  0  0  0  0  0  0  0  0  0  0
  127.4400  120.4290   72.8170 C   0  0  0  0  0  0  0  0  0  0  0  0
  128.7290  120.9350   73.0760 N   0  0  0  0  0  0  0  0  0  0  0  0
  129.1850  122.2030   72.9910 C   0  0  0  0  0  0  0  0  0  0  0  0
  128.5130  123.1840   72.6730 O   0  0  0  0  0  0  0  0  0  0  0  0
  130.6640  122.3920   73.3340 C   0  0  0  0  0  0  0  0  0  0  0  0
  130.8880  123.3220   74.8790 S   0  0  0  0  0  0  0  0  0  0  0  0
  131.4040  124.9770   74.4690 C   0  0  0  0  0  0  0  0  0  0  0  0
  130.4280  125.7180   73.8850 N   0  0  0  0  0  0  0  0  0  0  0  0
  130.7040  126.9940   73.5280 C   0  0  0  0  0  0  0  0  0  0  0  0
  129.5610  127.7620   72.8910 C   0  0  0  0  0  0  0  0  0  0  0  0
  131.9540  127.5760   73.7250 C   0  0  0  0  0  0  0  0  0  0  0  0
  132.9750  126.8140   74.3030 C   0  0  0  0  0  0  0  0  0  0  0  0
  134.3420  127.4690   74.4930 C   0  0  0  0  0  0  0  0  0  0  0  0
  132.7100  125.4780   74.6820 C   0  0  0  0  0  0  0  0  0  0  0  0
  133.7820  124.6470   75.2390 C   0  0  0  0  0  0  0  0  0  0  0  0
  134.6280  123.9930   75.6780 N   0  0  0  0  0  0  0  0  0  0  0  0
  126.4740  120.6960   73.7890 C   0  0  0  0  0  0  0  0  0  0  0  0
  125.1710  120.2320   73.6330 C   0  0  0  0  0  0  0  0  0  0  0  0
  1  2  1  0
  2  3  1  0
  3  4  2  0
  4  5  1  0
  5  6  2  0
  6  7  1  0
  7  8  1  0
  8  9  2  0
  8 10  1  0
 10 11  1  0
 11 12  1  0
 12 13  2  0
 13 14  1  0
 14 15  1  0
 14 16  2  0
 16 17  1  0
 17 18  1  0
 17 19  2  0
 19 20  1  0
 20 21  3  0
  6 22  1  0
 22 23  2  0
 23  3  1  0
 19 12  1  0
M  END
>  <Binding energies>  (4) 
[-7.14]

>  <Ligand effiencies>  (4) 
[-0.2975]

>  <Interactions>  (4) 
["H-B:LYS:547:NZ:9923, V-A:VAL:458:CG2:4087, V-A:VAL:457:C:4073, V-B:HIS:456:CD2:9040, V-A:LYS:547:CE:4950, V-A:HIS:456:CB:4065, V-A:HIS:456:CD2:4068, V-A:HIS:456:C:4061, H-A:VAL:457:N:4076, V-A:ASP:473:CG:4240, V-A:HIS:456:CG:4066, V-A:LYS:547:CG:4948, V-A:LYS:547:CB:4947, V-A:GLY:544:C:4912, V-A:LYS:547:CD:4949, V-B:GLU:543:C:9874, V-B:LYS:547:CE:9922, V-A:TYR:484:CB:4341, V-A:ASP:473:CB:4239, V-A:TYR:484:C:4337, V-B:GLY:544:CA:9886, V-B:VAL:542:CG1:9871, H-A:TYR:484:O:4338, V-B:VAL:542:CB:9870, V-B:VAL:542:C:9866"]

$$$$
1d_Grossjean_2025
     RDKit          3D

 21 22  0  0  0  0  0  0  0  0999 V2000
  129.5690  127.9990   73.1240 C   0  0  0  0  0  0  0  0  0  0  0  0
  130.7130  127.1670   73.6690 C   0  0  0  0  0  0  0  0  0  0  0  0
  132.0030  127.6810   73.7770 C   0  0  0  0  0  0  0  0  0  0  0  0
  133.0180  126.8700   74.2970 C   0  0  0  0  0  0  0  0  0  0  0  0
  134.4200  127.4620   74.4210 C   0  0  0  0  0  0  0  0  0  0  0  0
  132.7110  125.5480   74.6930 C   0  0  0  0  0  0  0  0  0  0  0  0
  133.7460  124.6970   75.2840 C   0  0  0  0  0  0  0  0  0  0  0  0
  134.5660  124.0270   75.7520 N   0  0  0  0  0  0  0  0  0  0  0  0
  131.3790  125.1010   74.5240 C   0  0  0  0  0  0  0  0  0  0  0  0
  130.8190  123.4710   74.9660 S   0  0  0  0  0  0  0  0  0  0  0  0
  130.7170  122.4990   73.4330 C   0  0  0  0  0  0  0  0  0  0  0  0
  129.2710  122.2830   72.9820 C   0  0  0  0  0  0  0  0  0  0  0  0
  128.6020  123.2530   72.6270 O   0  0  0  0  0  0  0  0  0  0  0  0
  128.8480  121.0010   72.9910 N   0  0  0  0  0  0  0  0  0  0  0  0
  127.5900  120.4630   72.6590 C   0  0  0  0  0  0  0  0  0  0  0  0
  126.5640  120.7110   73.5750 C   0  0  0  0  0  0  0  0  0  0  0  0
  125.2800  120.2290   73.3400 C   0  0  0  0  0  0  0  0  0  0  0  0
  125.0170  119.5030   72.1810 C   0  0  0  0  0  0  0  0  0  0  0  0
  126.0280  119.2560   71.2550 C   0  0  0  0  0  0  0  0  0  0  0  0
  127.3140  119.7360   71.4890 C   0  0  0  0  0  0  0  0  0  0  0  0
  130.3980  125.9030   74.0380 N   0  0  0  0  0  0  0  0  0  0  0  0
  1  2  1  0
  2  3  2  0
  3  4  1  0
  4  5  1  0
  4  6  2  0
  6  7  1  0
  7  8  3  0
  6  9  1  0
  9 10  1  0
 10 11  1  0
 11 12  1  0
 12 13  2  0
 12 14  1  0
 14 15  1  0
 15 16  2  0
 16 17  1  0
 17 18  2  0
 18 19  1  0
 19 20  2  0
  9 21  2  0
 21  2  1  0
 20 15  1  0
M  END
>  <Binding energies>  (5) 
[-7.48]

>  <Ligand effiencies>  (5) 
[-0.34]

>  <Interactions>  (5) 
["H-B:LYS:547:NZ:9923, V-A:VAL:458:CG2:4087, V-A:VAL:457:C:4073, V-B:HIS:456:CD2:9040, V-A:LYS:547:CE:4950, V-A:HIS:456:CB:4065, V-A:HIS:456:CD2:4068, V-A:HIS:456:C:4061, V-A:ASP:473:CG:4240, V-A:HIS:456:CG:4066, V-A:LYS:547:CG:4948, V-A:LYS:547:CB:4947, V-A:GLY:544:C:4912, V-A:LYS:547:CD:4949, V-B:GLU:543:C:9874, V-B:LYS:547:CE:9922, V-A:TYR:484:CB:4341, V-A:ASP:473:CB:4239, V-A:TYR:484:C:4337, V-B:GLY:544:CA:9886, V-B:VAL:542:CG1:9871, H-A:TYR:484:O:4338, V-B:VAL:542:CB:9870, V-A:TYR:484:CA:4339, V-B:VAL:542:C:9866"]

$$$$
1e_Grossjean_2025
     RDKit          3D

 22 23  0  0  0  0  0  0  0  0999 V2000
  123.3870  129.6970   67.3060 C   0  0  0  0  0  0  0  0  0  0  0  0
  124.3250  129.3990   66.1520 C   0  0  0  0  0  0  0  0  0  0  0  0
  125.6220  128.9240   66.3680 C   0  0  0  0  0  0  0  0  0  0  0  0
  126.4290  128.6740   65.2570 C   0  0  0  0  0  0  0  0  0  0  0  0
  125.9290  128.9040   63.9740 C   0  0  0  0  0  0  0  0  0  0  0  0
  124.6190  129.3750   63.8290 C   0  0  0  0  0  0  0  0  0  0  0  0
  124.1750  129.5980   62.5130 N   0  0  0  0  0  0  0  0  0  0  0  0
  123.7460  130.7500   61.9550 C   0  0  0  0  0  0  0  0  0  0  0  0
  123.6620  131.8310   62.5400 O   0  0  0  0  0  0  0  0  0  0  0  0
  123.3120  130.6590   60.4900 C   0  0  0  0  0  0  0  0  0  0  0  0
  123.7660  132.1490   59.5520 S   0  0  0  0  0  0  0  0  0  0  0  0
  125.2530  132.8350   60.2550 C   0  0  0  0  0  0  0  0  0  0  0  0
  126.0920  131.8960   60.7630 N   0  0  0  0  0  0  0  0  0  0  0  0
  127.2550  132.2970   61.3270 C   0  0  0  0  0  0  0  0  0  0  0  0
  128.1440  131.1920   61.8650 C   0  0  0  0  0  0  0  0  0  0  0  0
  127.6230  133.6380   61.4180 C   0  0  0  0  0  0  0  0  0  0  0  0
  126.7550  134.6150   60.9200 C   0  0  0  0  0  0  0  0  0  0  0  0
  127.1730  136.0790   61.0500 C   0  0  0  0  0  0  0  0  0  0  0  0
  125.5330  134.2200   60.3300 C   0  0  0  0  0  0  0  0  0  0  0  0
  124.5880  135.2340   59.8570 C   0  0  0  0  0  0  0  0  0  0  0  0
  123.8420  136.0370   59.4840 N   0  0  0  0  0  0  0  0  0  0  0  0
  123.8250  129.6260   64.9110 N   0  0  0  0  0  0  0  0  0  0  0  0
  1  2  1  0
  2  3  2  0
  3  4  1  0
  4  5  2  0
  5  6  1  0
  6  7  1  0
  7  8  1  0
  8  9  2  0
  8 10  1  0
 10 11  1  0
 11 12  1  0
 12 13  2  0
 13 14  1  0
 14 15  1  0
 14 16  2  0
 16 17  1  0
 17 18  1  0
 17 19  2  0
 19 20  1  0
 20 21  3  0
  6 22  2  0
 22  2  1  0
 19 12  1  0
M  END
>  <Binding energies>  (6) 
[-7.53]

>  <Ligand effiencies>  (6) 
[-0.3273913043478261]

>  <Interactions>  (6) 
["V-B:GLU:543:CD:9880, V-B:ILE:369:CD1:8211, V-A:TYR:539:CE1:4875, V-A:ALA:541:CB:4892, V-B:SER:385:CA:8379, V-A:TYR:539:CD1:4873, V-B:SER:385:CB:8381, V-B:ILE:369:CG2:8209, V-B:ARG:545:CZ:9898, V-B:LEU:475:CD2:9231, H-B:GLY:454:N:9022, H-B:ARG:545:NE:9896, V-B:GLY:453:C:9014, H-B:TYR:484:OH:9320, V-B:ILE:455:C:9024, V-B:GLY:454:CA:9021, V-B:ARG:545:CD:9895, H-B:ARG:545:NH1:9899, V-B:HIS:456:CE1:9042, V-B:ARG:545:CG:9894, V-B:ARG:545:CB:9893, V-B:TYR:484:CE1:9317, V-B:TYR:484:CZ:9319, V-B:ASP:366:CG:8185, V-B:PRO:482:CB:9298, V-B:ASP:366:CA:8182, V-B:ASP:366:CB:8184, H-B:ASP:366:OD2:8187, H-B:ASP:366:OD1:8186, H-B:SER:385:OG:8382"]

$$$$
1f_Grossjean_2025
     RDKit          3D

 21 22  0  0  0  0  0  0  0  0999 V2000
  129.5890  127.9690   73.0310 C   0  0  0  0  0  0  0  0  0  0  0  0
  130.7280  127.1660   73.6300 C   0  0  0  0  0  0  0  0  0  0  0  0
  132.0030  127.7060   73.7770 C   0  0  0  0  0  0  0  0  0  0  0  0
  133.0170  126.9140   74.3250 C   0  0  0  0  0  0  0  0  0  0  0  0
  134.4120  127.5220   74.4590 C   0  0  0  0  0  0  0  0  0  0  0  0
  132.7220  125.5900   74.7240 C   0  0  0  0  0  0  0  0  0  0  0  0
  133.7830  124.7270   75.2480 C   0  0  0  0  0  0  0  0  0  0  0  0
  134.6230  124.0470   75.6620 N   0  0  0  0  0  0  0  0  0  0  0  0
  131.3920  125.1340   74.5640 C   0  0  0  0  0  0  0  0  0  0  0  0
  130.8340  123.5010   75.0090 S   0  0  0  0  0  0  0  0  0  0  0  0
  130.7050  122.5020   73.4860 C   0  0  0  0  0  0  0  0  0  0  0  0
  129.2730  122.2860   72.9740 C   0  0  0  0  0  0  0  0  0  0  0  0
  128.5840  123.2440   72.6210 O   0  0  0  0  0  0  0  0  0  0  0  0
  128.8630  121.0000   72.9790 N   0  0  0  0  0  0  0  0  0  0  0  0
  127.6330  120.4460   72.5770 C   0  0  0  0  0  0  0  0  0  0  0  0
  127.4190  119.6840   71.4130 C   0  0  0  0  0  0  0  0  0  0  0  0
  126.1410  119.1900   71.1360 C   0  0  0  0  0  0  0  0  0  0  0  0
  125.1080  119.4690   72.0310 C   0  0  0  0  0  0  0  0  0  0  0  0
  125.2890  120.1970   73.1610 N   0  0  0  0  0  0  0  0  0  0  0  0
  126.5360  120.6700   73.4170 C   0  0  0  0  0  0  0  0  0  0  0  0
  130.4220  125.9030   74.0090 N   0  0  0  0  0  0  0  0  0  0  0  0
  1  2  1  0
  2  3  2  0
  3  4  1  0
  4  5  1  0
  4  6  2  0
  6  7  1  0
  7  8  3  0
  6  9  1  0
  9 10  1  0
 10 11  1  0
 11 12  1  0
 12 13  2  0
 12 14  1  0
 14 15  1  0
 15 16  2  0
 16 17  1  0
 17 18  2  0
 18 19  1  0
 19 20  2  0
  9 21  2  0
 21  2  1  0
 20 15  1  0
M  END
>  <Binding energies>  (7) 
[-7.17]

>  <Ligand effiencies>  (7) 
[-0.3259090909090909]

>  <Interactions>  (7) 
["H-B:LYS:547:NZ:9923, V-A:VAL:458:CG2:4087, V-A:VAL:457:C:4073, V-B:HIS:456:CD2:9040, V-A:LYS:547:CE:4950, V-A:HIS:456:CB:4065, V-A:HIS:456:CD2:4068, V-A:HIS:456:C:4061, H-A:VAL:457:N:4076, V-A:ASP:473:CG:4240, V-A:HIS:456:CG:4066, V-A:LYS:547:CG:4948, V-A:LYS:547:CB:4947, V-A:GLY:544:C:4912, V-A:LYS:547:CD:4949, V-B:GLU:543:C:9874, V-B:LYS:547:CE:9922, V-A:TYR:484:CB:4341, V-A:ASP:473:CB:4239, V-A:TYR:484:C:4337, H-B:GLY:544:N:9887, V-B:GLY:544:CA:9886, V-B:VAL:542:CG1:9871, H-A:TYR:484:O:4338, V-B:VAL:542:CB:9870, V-A:TYR:484:CA:4339, V-B:VAL:542:C:9866"]

$$$$
1g_Grossjean_2025
     RDKit          3D

 22 23  0  0  0  0  0  0  0  0999 V2000
  133.8730  125.0470   65.8700 C   0  0  0  0  0  0  0  0  0  0  0  0
  133.1210  125.1210   64.5550 C   0  0  0  0  0  0  0  0  0  0  0  0
  131.7920  125.5370   64.4970 C   0  0  0  0  0  0  0  0  0  0  0  0
  131.1440  125.5700   63.2580 C   0  0  0  0  0  0  0  0  0  0  0  0
  129.6830  126.0140   63.2210 C   0  0  0  0  0  0  0  0  0  0  0  0
  131.8540  125.1900   62.0960 C   0  0  0  0  0  0  0  0  0  0  0  0
  131.1810  125.1660   60.7950 C   0  0  0  0  0  0  0  0  0  0  0  0
  130.6460  125.1480   59.7690 N   0  0  0  0  0  0  0  0  0  0  0  0
  133.2070  124.8060   62.2460 C   0  0  0  0  0  0  0  0  0  0  0  0
  134.2490  124.3090   60.8920 S   0  0  0  0  0  0  0  0  0  0  0  0
  133.6250  122.7100   60.2900 C   0  0  0  0  0  0  0  0  0  0  0  0
  132.5650  122.1210   61.2220 C   0  0  0  0  0  0  0  0  0  0  0  0
  132.7610  122.0910   62.4380 O   0  0  0  0  0  0  0  0  0  0  0  0
  131.4510  121.6520   60.6350 N   0  0  0  0  0  0  0  0  0  0  0  0
  130.2900  121.1020   61.3340 C   0  0  0  0  0  0  0  0  0  0  0  0
  129.0210  121.9380   61.1990 C   0  0  0  0  0  0  0  0  0  0  0  0
  128.6590  122.4610   59.9530 C   0  0  0  0  0  0  0  0  0  0  0  0
  127.5010  123.2230   59.8290 C   0  0  0  0  0  0  0  0  0  0  0  0
  126.7060  123.4570   60.9490 C   0  0  0  0  0  0  0  0  0  0  0  0
  127.0580  122.9350   62.1920 C   0  0  0  0  0  0  0  0  0  0  0  0
  128.2170  122.1740   62.3180 C   0  0  0  0  0  0  0  0  0  0  0  0
  133.8210  124.7550   63.4560 N   0  0  0  0  0  0  0  0  0  0  0  0
  1  2  1  0
  2  3  2  0
  3  4  1  0
  4  5  1  0
  4  6  2  0
  6  7  1  0
  7  8  3  0
  6  9  1  0
  9 10  1  0
 10 11  1  0
 11 12  1  0
 12 13  2  0
 12 14  1  0
 14 15  1  0
 15 16  1  0
 16 17  2  0
 17 18  1  0
 18 19  2  0
 19 20  1  0
 20 21  2  0
  9 22  2  0
 22  2  1  0
 21 16  1  0
M  END
>  <Binding energies>  (8) 
[-6.5]

>  <Ligand effiencies>  (8) 
[-0.2826086956521739]

>  <Interactions>  (8) 
["V-B:ALA:541:CB:9864, V-B:TYR:539:CD2:9846, V-B:GLU:543:CG:9879, V-A:TYR:484:CZ:4347, V-B:TYR:539:C:9839, V-A:LEU:475:CD2:4259, V-B:GLU:543:CD:9880, V-A:ILE:369:CG2:3237, V-B:TYR:539:CE2:9848, V-A:GLU:543:CD:4908, V-B:PRO:540:C:9853, V-B:ALA:541:CA:9862, V-B:PRO:540:CA:9855, V-A:ARG:545:CZ:4926, H-A:TYR:484:OH:4348, V-A:GLY:454:CA:4049, V-A:ILE:369:CD1:3239, V-A:ARG:545:CG:4922, H-A:GLY:454:N:4050, V-A:ARG:545:CD:4923, V-A:TYR:484:CE2:4346, V-B:PRO:540:CB:9857, V-A:ILE:369:CB:3236, H-A:ARG:545:NH2:4928"]

$$$$
1h_Grossjean_2025
     RDKit          3D

 28 29  0  0  0  0  0  0  0  0999 V2000
  127.8370  128.8470   66.4300 C   0  0  0  0  0  0  0  0  0  0  0  0
  126.4650  128.7330   66.0720 O   0  0  0  0  0  0  0  0  0  0  0  0
  126.1080  128.7520   64.7360 C   0  0  0  0  0  0  0  0  0  0  0  0
  126.8240  128.0940   63.7240 C   0  0  0  0  0  0  0  0  0  0  0  0
  126.4120  128.1690   62.3930 C   0  0  0  0  0  0  0  0  0  0  0  0
  127.1860  127.4290   61.3060 C   0  0  0  0  0  0  0  0  0  0  0  0
  126.9960  125.9790   61.3220 N   0  0  0  0  0  0  0  0  0  0  0  0
  126.5310  125.2450   60.2950 C   0  0  0  0  0  0  0  0  0  0  0  0
  126.2330  125.7170   59.1980 O   0  0  0  0  0  0  0  0  0  0  0  0
  126.3720  123.7450   60.5460 C   0  0  0  0  0  0  0  0  0  0  0  0
  127.1170  123.2380   62.1260 S   0  0  0  0  0  0  0  0  0  0  0  0
  128.8260  122.8190   61.8230 C   0  0  0  0  0  0  0  0  0  0  0  0
  129.0560  121.5490   61.3990 N   0  0  0  0  0  0  0  0  0  0  0  0
  130.3290  121.1660   61.1460 C   0  0  0  0  0  0  0  0  0  0  0  0
  130.5050  119.7360   60.6720 C   0  0  0  0  0  0  0  0  0  0  0  0
  131.4170  122.0210   61.3050 C   0  0  0  0  0  0  0  0  0  0  0  0
  131.1940  123.3310   61.7440 C   0  0  0  0  0  0  0  0  0  0  0  0
  132.4000  124.2520   61.9100 C   0  0  0  0  0  0  0  0  0  0  0  0
  129.8720  123.7520   62.0130 C   0  0  0  0  0  0  0  0  0  0  0  0
  129.6080  125.1170   62.4770 C   0  0  0  0  0  0  0  0  0  0  0  0
  129.4000  126.1950   62.8430 N   0  0  0  0  0  0  0  0  0  0  0  0
  125.2550  128.8780   62.0690 C   0  0  0  0  0  0  0  0  0  0  0  0
  124.5160  129.5410   63.0610 C   0  0  0  0  0  0  0  0  0  0  0  0
  123.3630  130.2630   62.8130 O   0  0  0  0  0  0  0  0  0  0  0  0
  123.0040  130.5660   61.4690 C   0  0  0  0  0  0  0  0  0  0  0  0
  124.9600  129.4800   64.3900 C   0  0  0  0  0  0  0  0  0  0  0  0
  124.2440  130.1200   65.3730 O   0  0  0  0  0  0  0  0  0  0  0  0
  123.7380  129.2520   66.3780 C   0  0  0  0  0  0  0  0  0  0  0  0
  1  2  1  0
  2  3  1  0
  3  4  2  0
  4  5  1  0
  5  6  1  0
  6  7  1  0
  7  8  1  0
  8  9  2  0
  8 10  1  0
 10 11  1  0
 11 12  1  0
 12 13  2  0
 13 14  1  0
 14 15  1  0
 14 16  2  0
 16 17  1  0
 17 18  1  0
 17 19  2  0
 19 20  1  0
 20 21  3  0
  5 22  2  0
 22 23  1  0
 23 24  1  0
 24 25  1  0
 23 26  2  0
 26 27  1  0
 27 28  1  0
 26  3  1  0
 19 12  1  0
M  END
>  <Binding energies>  (9) 
[-6.02]

>  <Ligand effiencies>  (9) 
[-0.20758620689655172]

>  <Interactions>  (9) 
["V-B:TYR:539:CD2:9846, H-B:GLU:543:OE2:9882, V-A:LEU:475:CD2:4259, V-B:GLU:543:CD:9880, H-B:GLU:543:OE1:9881, V-A:GLU:543:CD:4908, V-B:PRO:540:CA:9855, V-B:ILE:369:CD1:8211, V-A:GLU:543:CG:4907, V-B:ARG:545:CZ:9898, H-B:GLY:454:N:9022, V-B:GLY:453:C:9014, H-B:TYR:484:OH:9320, V-B:GLY:453:CA:9016, V-B:ARG:545:CD:9895, H-B:ARG:545:NH1:9899, V-B:HIS:456:CE1:9042, V-B:ARG:545:CG:9894, V-B:ASP:366:CG:8185, H-B:ALA:541:N:9863, V-B:ASP:366:CA:8182, V-A:GLU:543:CB:4906, V-B:PRO:540:CB:9857"]

$$$$
1i_Grossjean_2025
     RDKit          3D

 20 21  0  0  0  0  0  0  0  0999 V2000
  129.3030  128.1160   73.6580 C   0  0  0  0  0  0  0  0  0  0  0  0
  128.0750  128.8050   74.2230 C   0  0  0  0  0  0  0  0  0  0  0  0
  126.8730  128.1240   74.4020 C   0  0  0  0  0  0  0  0  0  0  0  0
  125.7770  128.8090   74.9370 C   0  0  0  0  0  0  0  0  0  0  0  0
  124.4750  128.0360   75.1390 C   0  0  0  0  0  0  0  0  0  0  0  0
  125.9130  130.1750   75.2770 C   0  0  0  0  0  0  0  0  0  0  0  0
  124.7930  130.8970   75.8860 C   0  0  0  0  0  0  0  0  0  0  0  0
  123.9080  131.4650   76.3680 N   0  0  0  0  0  0  0  0  0  0  0  0
  127.1640  130.7920   75.0390 C   0  0  0  0  0  0  0  0  0  0  0  0
  127.5110  132.4980   75.4050 S   0  0  0  0  0  0  0  0  0  0  0  0
  127.3800  133.4320   73.8500 C   0  0  0  0  0  0  0  0  0  0  0  0
  128.6360  133.2930   72.9880 C   0  0  0  0  0  0  0  0  0  0  0  0
  128.9790  132.1760   72.5960 O   0  0  0  0  0  0  0  0  0  0  0  0
  129.2850  134.4460   72.7150 N   0  0  0  0  0  0  0  0  0  0  0  0
  130.4430  134.6020   71.9660 C   0  0  0  0  0  0  0  0  0  0  0  0
  131.7200  134.4180   72.4930 C   0  0  0  0  0  0  0  0  0  0  0  0
  132.5780  134.6630   71.4450 C   0  0  0  0  0  0  0  0  0  0  0  0
  131.8550  134.9820   70.3460 O   0  0  0  0  0  0  0  0  0  0  0  0
  130.5020  134.9410   70.6890 N   0  0  0  0  0  0  0  0  0  0  0  0
  128.2270  130.1130   74.5380 N   0  0  0  0  0  0  0  0  0  0  0  0
  1  2  1  0
  2  3  2  0
  3  4  1  0
  4  5  1  0
  4  6  2  0
  6  7  1  0
  7  8  3  0
  6  9  1  0
  9 10  1  0
 10 11  1  0
 11 12  1  0
 12 13  2  0
 12 14  1  0
 14 15  1  0
 15 16  1  0
 16 17  2  0
 17 18  1  0
 18 19  1  0
  9 20  2  0
 20  2  1  0
 19 15  2  0
M  END
>  <Binding energies>  (10) 
[-7.41]

>  <Ligand effiencies>  (10) 
[-0.35285714285714287]

>  <Interactions>  (10) 
["H-A:LYS:547:NZ:4951, V-B:HIS:456:CD2:9040, V-A:LYS:547:CE:4950, V-B:HIS:456:CG:9038, V-B:HIS:456:CB:9037, V-B:VAL:457:C:9045, V-B:VAL:458:CG2:9059, V-B:ASP:473:CB:9211, V-B:ASP:473:CG:9212, V-A:GLU:543:C:4902, V-A:GLY:544:CA:4914, H-A:GLY:544:N:4915, V-B:HIS:456:C:9033, H-B:TYR:484:N:9312, V-B:TYR:484:CA:9311, V-B:VAL:457:CA:9047, V-B:TYR:484:CB:9313, V-B:TYR:484:C:9309, V-A:VAL:542:CG1:4899, H-B:LEU:472:N:9201, H-B:TYR:484:O:9310"]

$$$$
1k_Grossjean_2025
     RDKit          3D

 25 25  0  0  0  0  0  0  0  0999 V2000
  132.8900  131.4870   61.2410 C   0  0  0  0  0  0  0  0  0  0  0  0
  131.6020  131.8060   61.7410 O   0  0  0  0  0  0  0  0  0  0  0  0
  130.5480  131.4660   60.8500 C   0  0  0  0  0  0  0  0  0  0  0  0
  129.3210  131.0190   61.6550 C   0  0  0  0  0  0  0  0  0  0  0  0
  128.8560  132.1020   62.4500 O   0  0  0  0  0  0  0  0  0  0  0  0
  127.6640  132.7010   61.9580 C   0  0  0  0  0  0  0  0  0  0  0  0
  127.9960  134.0710   61.3510 C   0  0  0  0  0  0  0  0  0  0  0  0
  127.0640  134.3700   60.3190 O   0  0  0  0  0  0  0  0  0  0  0  0
  126.3260  135.5640   60.5440 C   0  0  0  0  0  0  0  0  0  0  0  0
  124.8360  135.3130   60.2500 C   0  0  0  0  0  0  0  0  0  0  0  0
  124.1710  134.4540   61.2310 N   0  0  0  0  0  0  0  0  0  0  0  0
  124.1690  133.1100   61.2080 C   0  0  0  0  0  0  0  0  0  0  0  0
  124.7450  132.4510   60.3410 O   0  0  0  0  0  0  0  0  0  0  0  0
  123.3880  132.4290   62.3430 C   0  0  0  0  0  0  0  0  0  0  0  0
  123.2700  130.6090   62.2410 S   0  0  0  0  0  0  0  0  0  0  0  0
  124.4560  129.8800   63.3620 C   0  0  0  0  0  0  0  0  0  0  0  0
  124.0710  129.8020   64.6630 N   0  0  0  0  0  0  0  0  0  0  0  0
  124.9260  129.2690   65.5660 C   0  0  0  0  0  0  0  0  0  0  0  0
  124.4280  129.2250   66.9980 C   0  0  0  0  0  0  0  0  0  0  0  0
  126.1860  128.7880   65.2170 C   0  0  0  0  0  0  0  0  0  0  0  0
  126.5910  128.8560   63.8800 C   0  0  0  0  0  0  0  0  0  0  0  0
  127.9750  128.3240   63.5170 C   0  0  0  0  0  0  0  0  0  0  0  0
  125.7150  129.4130   62.9210 C   0  0  0  0  0  0  0  0  0  0  0  0
  126.1150  129.5000   61.5130 C   0  0  0  0  0  0  0  0  0  0  0  0
  126.4320  129.5690   60.4020 N   0  0  0  0  0  0  0  0  0  0  0  0
  1  2  1  0
  2  3  1  0
  3  4  1  0
  4  5  1  0
  5  6  1  0
  6  7  1  0
  7  8  1  0
  8  9  1  0
  9 10  1  0
 10 11  1  0
 11 12  1  0
 12 13  2  0
 12 14  1  0
 14 15  1  0
 15 16  1  0
 16 17  2  0
 17 18  1  0
 18 19  1  0
 18 20  2  0
 20 21  1  0
 21 22  1  0
 21 23  2  0
 23 24  1  0
 24 25  3  0
 23 16  1  0
M  END
>  <Binding energies>  (11) 
[-5.85]

>  <Ligand effiencies>  (11) 
[-0.22499999999999998]

>  <Interactions>  (11) 
["V-B:GLU:543:CD:9880, V-A:GLU:543:CD:4908, V-B:SER:385:C:8377, V-B:ILE:369:CD1:8211, V-A:TYR:539:CE1:4875, V-A:PRO:540:CA:4883, V-A:ALA:541:CB:4892, V-B:SER:385:CA:8379, V-A:TYR:539:CD1:4873, V-B:SER:385:CB:8381, V-B:ILE:369:CG2:8209, V-B:ARG:545:CZ:9898, V-B:LEU:475:CD2:9231, V-A:ALA:541:CA:4890, H-A:ALA:541:N:4891, H-B:GLY:454:N:9022, V-B:GLY:453:C:9014, H-B:TYR:484:OH:9320, V-A:ASN:362:CB:3176, V-B:GLY:454:CA:9021, V-B:ARG:545:CD:9895, H-B:ARG:545:NH1:9899, V-B:HIS:456:CE1:9042, V-B:ARG:545:CG:9894, V-A:PRO:540:CB:4885, V-B:TYR:484:CE1:9317, V-B:TYR:484:CZ:9319, H-B:SER:385:OG:8382, H-B:SER:385:O:8378"]

$$$$
1l_Grossjean_2025
     RDKit          3D

 17 17  0  0  0  0  0  0  0  0999 V2000
  133.5810  125.1640   66.5220 C   0  0  0  0  0  0  0  0  0  0  0  0
  133.9270  125.1180   65.1450 O   0  0  0  0  0  0  0  0  0  0  0  0
  132.8300  125.4830   64.3670 N   0  0  0  0  0  0  0  0  0  0  0  0
  132.8090  125.1390   63.0650 C   0  0  0  0  0  0  0  0  0  0  0  0
  133.5890  124.3270   62.5590 O   0  0  0  0  0  0  0  0  0  0  0  0
  131.7200  125.8240   62.2270 C   0  0  0  0  0  0  0  0  0  0  0  0
  131.3570  125.0210   60.6280 S   0  0  0  0  0  0  0  0  0  0  0  0
  130.2460  123.6580   60.9310 C   0  0  0  0  0  0  0  0  0  0  0  0
  128.9320  123.9830   61.0540 N   0  0  0  0  0  0  0  0  0  0  0  0
  128.0340  122.9970   61.2860 C   0  0  0  0  0  0  0  0  0  0  0  0
  126.5880  123.4390   61.4110 C   0  0  0  0  0  0  0  0  0  0  0  0
  128.4010  121.6580   61.4030 C   0  0  0  0  0  0  0  0  0  0  0  0
  129.7490  121.3110   61.2770 C   0  0  0  0  0  0  0  0  0  0  0  0
  130.1290  119.8360   61.4070 C   0  0  0  0  0  0  0  0  0  0  0  0
  130.7040  122.3240   61.0350 C   0  0  0  0  0  0  0  0  0  0  0  0
  132.1250  121.9880   60.8990 C   0  0  0  0  0  0  0  0  0  0  0  0
  133.2450  121.7220   60.7910 N   0  0  0  0  0  0  0  0  0  0  0  0
  1  2  1  0
  2  3  1  0
  3  4  1  0
  4  5  2  0
  4  6  1  0
  6  7  1  0
  7  8  1  0
  8  9  2  0
  9 10  1  0
 10 11  1  0
 10 12  2  0
 12 13  1  0
 13 14  1  0
 13 15  2  0
 15 16  1  0
 16 17  3  0
 15  8  1  0
M  END
>  <Binding energies>  (12) 
[-6.17]

>  <Ligand effiencies>  (12) 
[-0.3427777777777778]

>  <Interactions>  (12) 
["V-B:ALA:541:CB:9864, V-B:TYR:539:CD2:9846, V-A:TYR:484:CZ:4347, V-B:TYR:539:C:9839, V-A:LEU:475:CD1:4258, V-A:LEU:475:CD2:4259, V-B:TYR:539:CE2:9848, H-A:GLU:543:OE2:4910, V-B:PRO:540:C:9853, V-B:PRO:540:CA:9855, H-A:GLU:543:OE1:4909, V-A:ARG:545:CZ:4926, H-A:TYR:484:OH:4348, V-A:ARG:545:CG:4922, H-A:GLY:454:N:4050, V-A:ARG:545:CD:4923, H-A:ARG:545:NE:4924, V-A:ILE:455:C:4052, V-A:TYR:484:CE2:4346, V-A:HIS:456:CE1:4070"]

$$$$
1m_Grossjean_2025
     RDKit          3D

 20 20  0  0  0  0  0  0  0  0999 V2000
  133.7590  125.1240   66.3250 C   0  0  0  0  0  0  0  0  0  0  0  0
  134.1850  125.1300   64.9690 O   0  0  0  0  0  0  0  0  0  0  0  0
  133.2810  125.1150   63.9670 C   0  0  0  0  0  0  0  0  0  0  0  0
  133.4940  124.7240   62.8160 O   0  0  0  0  0  0  0  0  0  0  0  0
  131.9110  125.6480   64.4330 C   0  0  0  0  0  0  0  0  0  0  0  0
  131.0310  126.0150   63.3130 N   0  0  0  0  0  0  0  0  0  0  0  0
  129.8900  125.3860   62.9710 C   0  0  0  0  0  0  0  0  0  0  0  0
  129.4620  124.3980   63.5710 O   0  0  0  0  0  0  0  0  0  0  0  0
  129.1460  125.9750   61.7660 C   0  0  0  0  0  0  0  0  0  0  0  0
  128.9890  124.8460   60.3410 S   0  0  0  0  0  0  0  0  0  0  0  0
  130.6190  124.2810   59.9030 C   0  0  0  0  0  0  0  0  0  0  0  0
  131.1780  124.9780   58.8800 N   0  0  0  0  0  0  0  0  0  0  0  0
  132.4210  124.6410   58.4650 C   0  0  0  0  0  0  0  0  0  0  0  0
  132.9870  125.4760   57.3330 C   0  0  0  0  0  0  0  0  0  0  0  0
  133.1480  123.5980   59.0360 C   0  0  0  0  0  0  0  0  0  0  0  0
  132.5710  122.8560   60.0730 C   0  0  0  0  0  0  0  0  0  0  0  0
  133.3790  121.7070   60.6730 C   0  0  0  0  0  0  0  0  0  0  0  0
  131.2730  123.1890   60.5230 C   0  0  0  0  0  0  0  0  0  0  0  0
  130.6310  122.3940   61.5720 C   0  0  0  0  0  0  0  0  0  0  0  0
  130.1250  121.7660   62.4020 N   0  0  0  0  0  0  0  0  0  0  0  0
  1  2  1  0
  2  3  1  0
  3  4  2  0
  3  5  1  0
  5  6  1  0
  6  7  1  0
  7  8  2  0
  7  9  1  0
  9 10  1  0
 10 11  1  0
 11 12  2  0
 12 13  1  0
 13 14  1  0
 13 15  2  0
 15 16  1  0
 16 17  1  0
 16 18  2  0
 18 19  1  0
 19 20  3  0
 18 11  1  0
M  END
>  <Binding energies>  (13) 
[-5.33]

>  <Ligand effiencies>  (13) 
[-0.2538095238095238]

>  <Interactions>  (13) 
["V-A:TYR:484:CZ:4347, V-A:LEU:475:CD2:4259, V-B:GLU:543:CD:9880, V-A:ILE:369:CG2:3237, V-B:TYR:539:CE2:9848, H-A:GLU:543:OE2:4910, V-A:GLU:543:CD:4908, H-A:GLU:543:OE1:4909, V-A:ARG:545:CZ:4926, H-A:TYR:484:OH:4348, V-A:ASP:366:CG:3213, V-A:ILE:369:CD1:3239, V-A:ASP:366:CB:3212, V-A:ARG:545:CG:4922, H-A:GLY:454:N:4050, V-A:ARG:545:CD:4923, H-A:ARG:545:NE:4924, V-A:ILE:455:C:4052, V-A:TYR:484:CE2:4346, V-A:HIS:456:CE1:4070, V-A:ASP:366:C:3208, V-A:ASP:366:CA:3210, V-A:ILE:369:CB:3236, H-A:ARG:545:NH1:4927, H-A:ARG:545:NH2:4928, V-B:TYR:539:CZ:9849"]

$$$$
1n_Grossjean_2025
     RDKit          3D

 27 28  0  0  0  0  0  0  0  0999 V2000
  133.1810  126.9770   74.0540 C   0  0  0  0  0  0  0  0  0  0  0  0
  131.7590  127.5440   74.1140 C   0  0  0  0  0  0  0  0  0  0  0  0
  130.9330  126.8470   73.1890 O   0  0  0  0  0  0  0  0  0  0  0  0
  129.6810  127.2840   72.9000 C   0  0  0  0  0  0  0  0  0  0  0  0
  128.8460  127.5750   73.7610 O   0  0  0  0  0  0  0  0  0  0  0  0
  129.4160  127.3910   71.4250 C   0  0  0  0  0  0  0  0  0  0  0  0
  130.1600  128.2460   70.5970 C   0  0  0  0  0  0  0  0  0  0  0  0
  129.8870  128.3230   69.2350 C   0  0  0  0  0  0  0  0  0  0  0  0
  128.8640  127.5580   68.6730 C   0  0  0  0  0  0  0  0  0  0  0  0
  128.6700  127.7190   67.2870 N   0  0  0  0  0  0  0  0  0  0  0  0
  128.3500  128.8250   66.5820 C   0  0  0  0  0  0  0  0  0  0  0  0
  128.1700  129.9460   67.0570 O   0  0  0  0  0  0  0  0  0  0  0  0
  128.2120  128.6280   65.0660 C   0  0  0  0  0  0  0  0  0  0  0  0
  127.3430  129.7110   64.3920 C   0  0  0  0  0  0  0  0  0  0  0  0
  128.2310  131.2430   63.9810 S   0  0  0  0  0  0  0  0  0  0  0  0
  127.7390  131.7290   62.3410 C   0  0  0  0  0  0  0  0  0  0  0  0
  126.3970  131.8660   62.1950 N   0  0  0  0  0  0  0  0  0  0  0  0
  125.9090  132.2480   60.9920 C   0  0  0  0  0  0  0  0  0  0  0  0
  124.4020  132.3920   60.9070 C   0  0  0  0  0  0  0  0  0  0  0  0
  126.7290  132.5010   59.8940 C   0  0  0  0  0  0  0  0  0  0  0  0
  128.1130  132.3420   60.0280 C   0  0  0  0  0  0  0  0  0  0  0  0
  128.9900  132.6120   58.8080 C   0  0  0  0  0  0  0  0  0  0  0  0
  128.6440  131.9390   61.2740 C   0  0  0  0  0  0  0  0  0  0  0  0
  130.0840  131.7160   61.4230 C   0  0  0  0  0  0  0  0  0  0  0  0
  131.2220  131.5400   61.5380 N   0  0  0  0  0  0  0  0  0  0  0  0
  128.1220  126.6950   69.4920 C   0  0  0  0  0  0  0  0  0  0  0  0
  128.3990  126.6160   70.8540 C   0  0  0  0  0  0  0  0  0  0  0  0
  1  2  1  0
  2  3  1  0
  3  4  1  0
  4  5  2  0
  4  6  1  0
  6  7  2  0
  7  8  1  0
  8  9  2  0
  9 10  1  0
 10 11  1  0
 11 12  2  0
 11 13  1  0
 13 14  1  0
 14 15  1  0
 15 16  1  0
 16 17  2  0
 17 18  1  0
 18 19  1  0
 18 20  2  0
 20 21  1  0
 21 22  1  0
 21 23  2  0
 23 24  1  0
 24 25  3  0
  9 26  1  0
 26 27  2  0
 27  6  1  0
 23 16  1  0
M  END
>  <Binding energies>  (14) 
[-7.48]

>  <Ligand effiencies>  (14) 
[-0.2671428571428572]

>  <Interactions>  (14) 
["H-B:GLU:543:OE2:9882, V-B:GLU:543:CD:9880, H-A:GLU:543:OE2:4910, V-A:GLU:543:CD:4908, V-B:ILE:369:CD1:8211, V-A:TYR:539:CE1:4875, V-A:PRO:540:CA:4883, V-A:ALA:541:CB:4892, V-A:TYR:539:CD1:4873, V-A:GLU:543:CG:4907, H-A:ALA:541:N:4891, H-B:TYR:484:OH:9320, V-A:TYR:539:C:4867, V-B:HIS:456:CE1:9042, H-B:LYS:547:NZ:9923, V-B:HIS:456:CD2:9040, V-A:LYS:547:CE:4950, V-A:HIS:456:CB:4065, V-A:HIS:456:CD2:4068, V-A:HIS:456:CG:4066, V-A:GLY:544:C:4912, V-A:LYS:547:CD:4949, V-B:GLU:543:CB:9878, V-A:HIS:456:CE1:4070, V-A:GLU:543:CB:4906, V-A:PRO:540:N:4884, V-A:GLU:543:C:4902"]

$$$$
1q_Grossjean_2025
     RDKit          3D

 21 21  0  0  0  0  0  0  0  0999 V2000
  133.8530  125.1150   66.2890 C   0  0  0  0  0  0  0  0  0  0  0  0
  134.2410  125.1350   64.9230 O   0  0  0  0  0  0  0  0  0  0  0  0
  133.3070  125.1260   63.9410 C   0  0  0  0  0  0  0  0  0  0  0  0
  133.4850  124.7360   62.7860 O   0  0  0  0  0  0  0  0  0  0  0  0
  131.9380  125.6940   64.3710 C   0  0  0  0  0  0  0  0  0  0  0  0
  131.0800  126.0510   63.2310 N   0  0  0  0  0  0  0  0  0  0  0  0
  130.0600  125.3140   62.7500 C   0  0  0  0  0  0  0  0  0  0  0  0
  129.7260  124.2300   63.2320 O   0  0  0  0  0  0  0  0  0  0  0  0
  129.3040  125.9110   61.5550 C   0  0  0  0  0  0  0  0  0  0  0  0
  128.1070  125.0660   61.0750 C   0  0  0  0  0  0  0  0  0  0  0  0
  128.5690  123.7440   59.9150 S   0  0  0  0  0  0  0  0  0  0  0  0
  130.3460  123.6640   59.8250 C   0  0  0  0  0  0  0  0  0  0  0  0
  130.8780  124.5190   58.9140 N   0  0  0  0  0  0  0  0  0  0  0  0
  132.2210  124.5470   58.7530 C   0  0  0  0  0  0  0  0  0  0  0  0
  132.7400  125.5150   57.7050 C   0  0  0  0  0  0  0  0  0  0  0  0
  133.0840  123.7410   59.4920 C   0  0  0  0  0  0  0  0  0  0  0  0
  132.5500  122.8750   60.4510 C   0  0  0  0  0  0  0  0  0  0  0  0
  133.5180  122.0150   61.2620 C   0  0  0  0  0  0  0  0  0  0  0  0
  131.1500  122.8300   60.6400 C   0  0  0  0  0  0  0  0  0  0  0  0
  130.5770  121.9710   61.6780 C   0  0  0  0  0  0  0  0  0  0  0  0
  130.1280  121.2910   62.5010 N   0  0  0  0  0  0  0  0  0  0  0  0
  1  2  1  0
  2  3  1  0
  3  4  2  0
  3  5  1  0
  5  6  1  0
  6  7  1  0
  7  8  2  0
  7  9  1  0
  9 10  1  0
 10 11  1  0
 11 12  1  0
 12 13  2  0
 13 14  1  0
 14 15  1  0
 14 16  2  0
 16 17  1  0
 17 18  1  0
 17 19  2  0
 19 20  1  0
 20 21  3  0
 19 12  1  0
M  END
>  <Binding energies>  (15) 
[-5.72]

>  <Ligand effiencies>  (15) 
[-0.26]

>  <Interactions>  (15) 
["V-A:TYR:484:CZ:4347, V-A:LEU:475:CD2:4259, V-B:GLU:543:CD:9880, V-A:ILE:369:CG2:3237, V-B:TYR:539:CE2:9848, H-A:GLU:543:OE2:4910, V-A:GLU:543:CD:4908, H-A:GLU:543:OE1:4909, V-A:ARG:545:CZ:4926, H-A:TYR:484:OH:4348, V-A:ASP:366:CG:3213, V-A:GLY:454:CA:4049, V-A:ILE:369:CD1:3239, V-A:ASP:366:CB:3212, V-A:ARG:545:CG:4922, H-A:GLY:454:N:4050, V-A:ARG:545:CD:4923, H-A:ARG:545:NE:4924, V-A:ILE:455:C:4052, V-A:TYR:484:CE2:4346, V-A:HIS:456:CE1:4070, V-A:ASP:366:C:3208, V-A:ASP:366:CA:3210, H-A:ARG:545:NH1:4927, H-A:ARG:545:NH2:4928, V-B:TYR:539:CZ:9849"]

$$$$
2a_Grossjean_2025
     RDKit          3D

 29 30  0  0  0  0  0  0  0  0999 V2000
  133.3180  127.0020   74.1310 C   0  0  0  0  0  0  0  0  0  0  0  0
  131.8470  126.6000   73.9910 C   0  0  0  0  0  0  0  0  0  0  0  0
  131.1390  127.6340   73.3170 O   0  0  0  0  0  0  0  0  0  0  0  0
  129.8170  127.5090   73.0330 C   0  0  0  0  0  0  0  0  0  0  0  0
  128.9430  127.3920   73.8970 O   0  0  0  0  0  0  0  0  0  0  0  0
  129.5230  127.5480   71.5600 C   0  0  0  0  0  0  0  0  0  0  0  0
  130.2180  128.3970   70.6870 C   0  0  0  0  0  0  0  0  0  0  0  0
  129.9200  128.4100   69.3280 C   0  0  0  0  0  0  0  0  0  0  0  0
  128.9200  127.5830   68.8140 C   0  0  0  0  0  0  0  0  0  0  0  0
  128.6950  127.6890   67.4290 N   0  0  0  0  0  0  0  0  0  0  0  0
  128.4010  128.7730   66.6790 C   0  0  0  0  0  0  0  0  0  0  0  0
  128.2470  129.9180   67.1050 O   0  0  0  0  0  0  0  0  0  0  0  0
  128.2530  128.5140   65.1750 C   0  0  0  0  0  0  0  0  0  0  0  0
  126.5580  128.7890   64.5600 S   0  0  0  0  0  0  0  0  0  0  0  0
  126.5550  130.1340   63.3800 C   0  0  0  0  0  0  0  0  0  0  0  0
  127.7740  130.6360   63.0560 N   0  0  0  0  0  0  0  0  0  0  0  0
  127.8470  131.6620   62.1790 C   0  0  0  0  0  0  0  0  0  0  0  0
  129.2410  132.1860   61.8880 C   0  0  0  0  0  0  0  0  0  0  0  0
  126.7200  132.2230   61.5850 C   0  0  0  0  0  0  0  0  0  0  0  0
  125.4500  131.7150   61.8980 C   0  0  0  0  0  0  0  0  0  0  0  0
  124.2130  132.3470   61.2320 C   0  0  0  0  0  0  0  0  0  0  0  0
  123.5750  131.4360   60.4960 F   0  0  0  0  0  0  0  0  0  0  0  0
  123.3810  132.8120   62.1640 F   0  0  0  0  0  0  0  0  0  0  0  0
  124.5250  133.3660   60.4280 F   0  0  0  0  0  0  0  0  0  0  0  0
  125.3600  130.6410   62.8200 C   0  0  0  0  0  0  0  0  0  0  0  0
  124.0580  130.0730   63.1850 C   0  0  0  0  0  0  0  0  0  0  0  0
  123.0300  129.6250   63.4740 N   0  0  0  0  0  0  0  0  0  0  0  0
  128.2270  126.7250   69.6790 C   0  0  0  0  0  0  0  0  0  0  0  0
  128.5290  126.7100   71.0380 C   0  0  0  0  0  0  0  0  0  0  0  0
  1  2  1  0
  2  3  1  0
  3  4  1  0
  4  5  2  0
  4  6  1  0
  6  7  2  0
  7  8  1  0
  8  9  2  0
  9 10  1  0
 10 11  1  0
 11 12  2  0
 11 13  1  0
 13 14  1  0
 14 15  1  0
 15 16  2  0
 16 17  1  0
 17 18  1  0
 17 19  2  0
 19 20  1  0
 20 21  1  0
 21 22  1  0
 21 23  1  0
 21 24  1  0
 20 25  2  0
 25 26  1  0
 26 27  3  0
  9 28  1  0
 28 29  2  0
 29  6  1  0
 25 15  1  0
M  END
>  <Binding energies>  (16) 
[-7.11]

>  <Ligand effiencies>  (16) 
[-0.23700000000000002]

>  <Interactions>  (16) 
["H-B:GLU:543:OE2:9882, V-B:GLU:543:CD:9880, H-A:GLU:543:OE2:4910, V-A:GLU:543:CD:4908, V-B:ILE:369:CD1:8211, V-A:TYR:539:CE1:4875, V-A:ALA:541:CB:4892, V-A:GLU:543:CG:4907, V-B:ILE:369:CG2:8209, V-B:ARG:545:CZ:9898, V-B:LEU:475:CD2:9231, V-A:ALA:541:CA:4890, H-B:GLY:454:N:9022, V-B:GLY:453:C:9014, H-B:TYR:484:OH:9320, V-B:GLY:454:CA:9021, V-B:GLY:453:CA:9016, H-B:ARG:545:NH1:9899, V-B:HIS:456:CE1:9042, H-B:LYS:547:NZ:9923, H-A:LYS:547:NZ:4951, V-B:HIS:456:CD2:9040, V-A:HIS:456:CB:4065, V-A:HIS:456:CD2:4068, V-A:HIS:456:CG:4066, V-A:GLY:544:C:4912, V-B:GLU:543:CB:9878, H-B:ARG:545:NH2:9900, V-A:HIS:456:CE1:4070, V-A:GLU:543:CB:4906, V-A:GLU:543:C:4902, V-A:GLY:544:CA:4914"]

$$$$
2b_Grossjean_2025
     RDKit          3D

 28 29  0  0  0  0  0  0  0  0999 V2000
  130.8400  125.5290   74.1710 C   0  0  0  0  0  0  0  0  0  0  0  0
  129.7510  126.0410   73.4150 O   0  0  0  0  0  0  0  0  0  0  0  0
  129.7640  127.3150   72.9460 C   0  0  0  0  0  0  0  0  0  0  0  0
  129.9910  128.3000   73.6560 O   0  0  0  0  0  0  0  0  0  0  0  0
  129.4700  127.4080   71.4760 C   0  0  0  0  0  0  0  0  0  0  0  0
  130.1840  128.2680   70.6290 C   0  0  0  0  0  0  0  0  0  0  0  0
  129.8860  128.3310   69.2710 C   0  0  0  0  0  0  0  0  0  0  0  0
  128.8750  127.5360   68.7310 C   0  0  0  0  0  0  0  0  0  0  0  0
  128.6530  127.6840   67.3490 N   0  0  0  0  0  0  0  0  0  0  0  0
  128.3820  128.7960   66.6330 C   0  0  0  0  0  0  0  0  0  0  0  0
  128.2510  129.9290   67.0990 O   0  0  0  0  0  0  0  0  0  0  0  0
  128.2140  128.5780   65.1260 C   0  0  0  0  0  0  0  0  0  0  0  0
  126.5180  128.9030   64.5390 S   0  0  0  0  0  0  0  0  0  0  0  0
  126.5360  130.2010   63.3100 C   0  0  0  0  0  0  0  0  0  0  0  0
  127.7570  130.7140   63.0130 N   0  0  0  0  0  0  0  0  0  0  0  0
  127.8450  131.7020   62.0950 C   0  0  0  0  0  0  0  0  0  0  0  0
  129.2420  132.2300   61.8300 C   0  0  0  0  0  0  0  0  0  0  0  0
  126.7330  132.2130   61.4330 C   0  0  0  0  0  0  0  0  0  0  0  0
  125.4610  131.6930   61.7180 C   0  0  0  0  0  0  0  0  0  0  0  0
  124.2410  132.2660   60.9730 C   0  0  0  0  0  0  0  0  0  0  0  0
  123.3770  132.7880   61.8460 F   0  0  0  0  0  0  0  0  0  0  0  0
  124.6280  133.2210   60.1250 F   0  0  0  0  0  0  0  0  0  0  0  0
  123.5870  131.3430   60.2650 F   0  0  0  0  0  0  0  0  0  0  0  0
  125.3530  130.6600   62.6840 C   0  0  0  0  0  0  0  0  0  0  0  0
  124.0490  130.0830   63.0260 C   0  0  0  0  0  0  0  0  0  0  0  0
  123.0200  129.6280   63.2950 N   0  0  0  0  0  0  0  0  0  0  0  0
  128.1510  126.6790   69.5720 C   0  0  0  0  0  0  0  0  0  0  0  0
  128.4500  126.6170   70.9300 C   0  0  0  0  0  0  0  0  0  0  0  0
  1  2  1  0
  2  3  1  0
  3  4  2  0
  3  5  1  0
  5  6  2  0
  6  7  1  0
  7  8  2  0
  8  9  1  0
  9 10  1  0
 10 11  2  0
 10 12  1  0
 12 13  1  0
 13 14  1  0
 14 15  2  0
 15 16  1  0
 16 17  1  0
 16 18  2  0
 18 19  1  0
 19 20  1  0
 20 21  1  0
 20 22  1  0
 20 23  1  0
 19 24  2  0
 24 25  1  0
 25 26  3  0
  8 27  1  0
 27 28  2  0
 28  5  1  0
 24 14  1  0
M  END
>  <Binding energies>  (17) 
[-6.95]

>  <Ligand effiencies>  (17) 
[-0.2396551724137931]

>  <Interactions>  (17) 
["H-B:GLU:543:OE2:9882, V-B:GLU:543:CD:9880, H-A:GLU:543:OE2:4910, V-A:GLU:543:CD:4908, V-B:ILE:369:CD1:8211, V-A:TYR:539:CE1:4875, V-A:ALA:541:CB:4892, V-A:TYR:539:CD1:4873, V-A:GLU:543:CG:4907, V-B:ILE:369:CG2:8209, V-B:ARG:545:CZ:9898, V-A:ALA:541:CA:4890, H-B:GLY:454:N:9022, H-B:TYR:484:OH:9320, V-B:GLY:454:CA:9021, V-B:GLY:453:CA:9016, H-B:ARG:545:NH1:9899, V-B:HIS:456:CE1:9042, H-B:LYS:547:NZ:9923, H-A:LYS:547:NZ:4951, V-B:HIS:456:CD2:9040, V-A:HIS:456:CB:4065, V-A:HIS:456:CD2:4068, V-A:HIS:456:CG:4066, V-A:GLY:544:C:4912, V-B:GLU:543:CB:9878, H-B:ARG:545:NH2:9900, V-B:ASP:366:CA:8182, V-A:HIS:456:CE1:4070, V-A:GLU:543:CB:4906, V-A:GLU:543:C:4902, V-A:GLY:544:CA:4914, V-B:LYS:547:CE:9922"]

$$$$
2c_Grossjean_2025
     RDKit          3D

 26 27  0  0  0  0  0  0  0  0999 V2000
  130.3590  127.0110   73.4800 C   0  0  0  0  0  0  0  0  0  0  0  0
  129.0670  126.8600   72.8990 O   0  0  0  0  0  0  0  0  0  0  0  0
  128.9210  127.0150   71.5340 C   0  0  0  0  0  0  0  0  0  0  0  0
  129.8230  127.8710   70.9040 C   0  0  0  0  0  0  0  0  0  0  0  0
  129.7540  128.0930   69.5320 C   0  0  0  0  0  0  0  0  0  0  0  0
  128.7610  127.4580   68.7700 C   0  0  0  0  0  0  0  0  0  0  0  0
  128.6240  127.6050   67.3770 N   0  0  0  0  0  0  0  0  0  0  0  0
  128.3730  128.7270   66.6690 C   0  0  0  0  0  0  0  0  0  0  0  0
  128.1640  129.8360   67.1640 O   0  0  0  0  0  0  0  0  0  0  0  0
  128.3210  128.5330   65.1460 C   0  0  0  0  0  0  0  0  0  0  0  0
  126.6620  128.6710   64.3930 S   0  0  0  0  0  0  0  0  0  0  0  0
  126.6170  130.0940   63.3110 C   0  0  0  0  0  0  0  0  0  0  0  0
  127.8260  130.6060   62.9620 N   0  0  0  0  0  0  0  0  0  0  0  0
  127.8680  131.6870   62.1540 C   0  0  0  0  0  0  0  0  0  0  0  0
  129.2540  132.2080   61.8240 C   0  0  0  0  0  0  0  0  0  0  0  0
  126.7200  132.2970   61.6540 C   0  0  0  0  0  0  0  0  0  0  0  0
  125.4620  131.7820   61.9950 C   0  0  0  0  0  0  0  0  0  0  0  0
  124.2010  132.4670   61.4330 C   0  0  0  0  0  0  0  0  0  0  0  0
  123.3760  132.7930   62.4290 F   0  0  0  0  0  0  0  0  0  0  0  0
  124.5380  133.5740   60.7700 F   0  0  0  0  0  0  0  0  0  0  0  0
  123.5220  131.6850   60.5900 F   0  0  0  0  0  0  0  0  0  0  0  0
  125.4020  130.6500   62.8470 C   0  0  0  0  0  0  0  0  0  0  0  0
  124.1120  130.0700   63.2380 C   0  0  0  0  0  0  0  0  0  0  0  0
  123.0950  129.6130   63.5460 N   0  0  0  0  0  0  0  0  0  0  0  0
  127.8660  126.5880   69.3930 C   0  0  0  0  0  0  0  0  0  0  0  0
  127.9390  126.3690   70.7650 C   0  0  0  0  0  0  0  0  0  0  0  0
  1  2  1  0
  2  3  1  0
  3  4  2  0
  4  5  1  0
  5  6  2  0
  6  7  1  0
  7  8  1  0
  8  9  2  0
  8 10  1  0
 10 11  1  0
 11 12  1  0
 12 13  2  0
 13 14  1  0
 14 15  1  0
 14 16  2  0
 16 17  1  0
 17 18  1  0
 18 19  1  0
 18 20  1  0
 18 21  1  0
 17 22  2  0
 22 23  1  0
 23 24  3  0
  6 25  1  0
 25 26  2  0
 26  3  1  0
 22 12  1  0
M  END
>  <Binding energies>  (18) 
[-6.36]

>  <Ligand effiencies>  (18) 
[-0.23555555555555557]

>  <Interactions>  (18) 
["H-B:GLU:543:OE2:9882, V-B:GLU:543:CD:9880, H-A:GLU:543:OE2:4910, V-A:GLU:543:CD:4908, V-B:ILE:369:CD1:8211, V-A:ALA:541:CB:4892, V-A:GLU:543:CG:4907, V-B:ILE:369:CG2:8209, V-B:ARG:545:CZ:9898, V-B:LEU:475:CD2:9231, V-A:ALA:541:CA:4890, H-B:GLY:454:N:9022, V-B:GLY:453:C:9014, H-B:TYR:484:OH:9320, V-B:GLY:454:CA:9021, V-B:GLY:453:CA:9016, H-B:ARG:545:NH1:9899, V-B:HIS:456:CE1:9042, H-B:LYS:547:NZ:9923, V-B:HIS:456:CD2:9040, V-A:HIS:456:CD2:4068, V-B:GLY:544:C:9884, V-B:GLU:543:CB:9878, H-B:ARG:545:NH2:9900, V-B:ILE:369:CB:8208, V-A:HIS:456:CE1:4070, V-A:GLU:543:CB:4906, V-A:GLU:543:C:4902, V-B:GLU:543:C:9874"]

$$$$
2d_Ghoteimi_2023
     RDKit          3D

 38 42  0  0  0  0  0  0  0  0999 V2000
  133.6150  124.3050   61.0120 C   0  0  0  0  0  0  0  0  0  0  0  0
  133.6030  124.0280   62.4040 O   0  0  0  0  0  0  0  0  0  0  0  0
  133.2910  124.9940   63.2920 C   0  0  0  0  0  0  0  0  0  0  0  0
  133.9060  125.2340   64.3350 O   0  0  0  0  0  0  0  0  0  0  0  0
  132.0550  125.7880   62.8430 C   0  0  0  0  0  0  0  0  0  0  0  0
  130.5500  125.2090   63.6990 S   0  0  0  0  0  0  0  0  0  0  0  0
  129.7390  126.6200   64.4220 C   0  0  0  0  0  0  0  0  0  0  0  0
  129.8460  126.6640   65.7730 N   0  0  0  0  0  0  0  0  0  0  0  0
  129.2690  127.6830   66.4580 C   0  0  0  0  0  0  0  0  0  0  0  0
  129.4140  127.6560   67.9460 C   0  0  0  0  0  0  0  0  0  0  0  0
  130.4960  128.2880   68.5680 C   0  0  0  0  0  0  0  0  0  0  0  0
  130.6370  128.2670   69.9530 C   0  0  0  0  0  0  0  0  0  0  0  0
  129.6950  127.6210   70.7670 C   0  0  0  0  0  0  0  0  0  0  0  0
  129.8320  127.5740   72.1590 N   0  0  0  0  0  0  0  0  0  0  0  0
  131.1440  127.3510   72.7990 C   0  0  0  0  0  0  0  0  0  0  0  0
  131.0460  126.9610   74.2890 C   0  0  0  0  0  0  0  0  0  0  0  0
  130.2990  127.9380   74.9960 O   0  0  0  0  0  0  0  0  0  0  0  0
  128.9790  128.0520   74.4910 C   0  0  0  0  0  0  0  0  0  0  0  0
  129.0140  128.4670   73.0050 C   0  0  0  0  0  0  0  0  0  0  0  0
  128.6200  126.9760   70.1390 C   0  0  0  0  0  0  0  0  0  0  0  0
  128.4800  126.9960   68.7540 C   0  0  0  0  0  0  0  0  0  0  0  0
  128.5670  128.6920   65.7940 C   0  0  0  0  0  0  0  0  0  0  0  0
  128.4700  128.6880   64.3970 C   0  0  0  0  0  0  0  0  0  0  0  0
  127.7290  129.8140   63.7530 C   0  0  0  0  0  0  0  0  0  0  0  0
  128.3410  131.0580   63.5960 C   0  0  0  0  0  0  0  0  0  0  0  0
  127.6640  132.1110   62.9860 C   0  0  0  0  0  0  0  0  0  0  0  0
  126.3500  131.9480   62.5180 C   0  0  0  0  0  0  0  0  0  0  0  0
  125.6560  132.9860   61.8910 N   0  0  0  0  0  0  0  0  0  0  0  0
  124.2930  132.7890   61.3590 C   0  0  0  0  0  0  0  0  0  0  0  0
  123.5620  134.1100   61.0370 C   0  0  0  0  0  0  0  0  0  0  0  0
  124.3440  134.8950   60.1510 O   0  0  0  0  0  0  0  0  0  0  0  0
  125.6080  135.2160   60.7120 C   0  0  0  0  0  0  0  0  0  0  0  0
  126.3930  133.9240   61.0220 C   0  0  0  0  0  0  0  0  0  0  0  0
  125.7500  130.6900   62.6640 C   0  0  0  0  0  0  0  0  0  0  0  0
  126.4280  129.6370   63.2730 C   0  0  0  0  0  0  0  0  0  0  0  0
  129.0770  127.6260   63.6820 C   0  0  0  0  0  0  0  0  0  0  0  0
  129.0190  127.5870   62.2170 C   0  0  0  0  0  0  0  0  0  0  0  0
  128.9710  127.5600   61.0610 N   0  0  0  0  0  0  0  0  0  0  0  0
  1  2  1  0
  2  3  1  0
  3  4  2  0
  3  5  1  0
  5  6  1  0
  6  7  1  0
  7  8  2  0
  8  9  1  0
  9 10  1  0
 10 11  2  0
 11 12  1  0
 12 13  2  0
 13 14  1  0
 14 15  1  0
 15 16  1  0
 16 17  1  0
 17 18  1  0
 18 19  1  0
 13 20  1  0
 20 21  2  0
  9 22  2  0
 22 23  1  0
 23 24  1  0
 24 25  2  0
 25 26  1  0
 26 27  2  0
 27 28  1  0
 28 29  1  0
 29 30  1  0
 30 31  1  0
 31 32  1  0
 32 33  1  0
 27 34  1  0
 34 35  2  0
 23 36  2  0
 36 37  1  0
 37 38  3  0
 36  7  1  0
 21 10  1  0
 35 24  1  0
 19 14  1  0
 33 28  1  0
M  END
>  <Binding energies>  (19) 
[-5.01]

>  <Ligand effiencies>  (19) 
[-0.1318421052631579]

>  <Interactions>  (19) 
["V-B:GLU:543:CD:9880, V-A:GLU:543:CD:4908, V-A:ARG:545:CZ:4926, H-A:TYR:484:OH:4348, V-B:SER:385:C:8377, V-B:ILE:369:CD1:8211, V-A:ALA:541:CB:4892, V-B:SER:385:CA:8379, V-A:TYR:539:CD1:4873, V-A:GLU:543:CG:4907, V-B:ILE:369:CG2:8209, V-B:LEU:475:CD2:9231, V-B:HIS:456:CE1:9042, H-A:LYS:547:NZ:4951, V-B:HIS:456:CD2:9040, V-A:HIS:456:CD2:4068, V-A:HIS:456:CG:4066, V-A:GLY:544:C:4912, V-A:ASP:366:CG:3213, V-A:ILE:369:CD1:3239, V-B:GLU:543:CB:9878, H-A:GLY:454:N:4050, H-A:ARG:545:NE:4924, V-A:HIS:456:CE1:4070, V-A:GLU:543:CB:4906, V-A:GLU:543:CA:4904, H-A:ARG:545:NH1:4927, H-A:ARG:545:NH2:4928, V-A:GLU:543:C:4902, V-A:GLY:544:CA:4914, H-B:SER:385:OG:8382"]

$$$$
2d_Grossjean_2025
     RDKit          3D

 24 25  0  0  0  0  0  0  0  0999 V2000
  129.4310  127.7280   72.8770 C   0  0  0  0  0  0  0  0  0  0  0  0
  130.5300  126.8980   73.5120 C   0  0  0  0  0  0  0  0  0  0  0  0
  131.8190  127.3980   73.6760 C   0  0  0  0  0  0  0  0  0  0  0  0
  132.8000  126.5920   74.2740 C   0  0  0  0  0  0  0  0  0  0  0  0
  134.2190  127.1660   74.4560 C   0  0  0  0  0  0  0  0  0  0  0  0
  134.2140  128.1000   75.4080 F   0  0  0  0  0  0  0  0  0  0  0  0
  135.0630  126.1950   74.8070 F   0  0  0  0  0  0  0  0  0  0  0  0
  134.6950  127.7290   73.3440 F   0  0  0  0  0  0  0  0  0  0  0  0
  132.4440  125.2830   74.6860 C   0  0  0  0  0  0  0  0  0  0  0  0
  133.4190  124.4200   75.3570 C   0  0  0  0  0  0  0  0  0  0  0  0
  134.1900  123.7390   75.8880 N   0  0  0  0  0  0  0  0  0  0  0  0
  131.1160  124.8510   74.4560 C   0  0  0  0  0  0  0  0  0  0  0  0
  130.5090  123.2310   74.8830 S   0  0  0  0  0  0  0  0  0  0  0  0
  130.3790  122.2340   73.3610 C   0  0  0  0  0  0  0  0  0  0  0  0
  128.9310  121.9440   72.9570 C   0  0  0  0  0  0  0  0  0  0  0  0
  128.1970  122.8820   72.6450 O   0  0  0  0  0  0  0  0  0  0  0  0
  128.5600  120.6470   73.0060 N   0  0  0  0  0  0  0  0  0  0  0  0
  127.3170  120.0660   72.6950 C   0  0  0  0  0  0  0  0  0  0  0  0
  126.2440  120.4450   73.5050 C   0  0  0  0  0  0  0  0  0  0  0  0
  124.9740  119.9190   73.2790 C   0  0  0  0  0  0  0  0  0  0  0  0
  124.7800  119.0050   72.2470 C   0  0  0  0  0  0  0  0  0  0  0  0
  125.8440  118.6090   71.4410 C   0  0  0  0  0  0  0  0  0  0  0  0
  127.1140  119.1340   71.6630 C   0  0  0  0  0  0  0  0  0  0  0  0
  130.1750  125.6500   73.8970 N   0  0  0  0  0  0  0  0  0  0  0  0
  1  2  1  0
  2  3  2  0
  3  4  1  0
  4  5  1  0
  5  6  1  0
  5  7  1  0
  5  8  1  0
  4  9  2  0
  9 10  1  0
 10 11  3  0
  9 12  1  0
 12 13  1  0
 13 14  1  0
 14 15  1  0
 15 16  2  0
 15 17  1  0
 17 18  1  0
 18 19  2  0
 19 20  1  0
 20 21  2  0
 21 22  1  0
 22 23  2  0
 12 24  2  0
 24  2  1  0
 23 18  1  0
M  END
>  <Binding energies>  (20) 
[-6.98]

>  <Ligand effiencies>  (20) 
[-0.2792]

>  <Interactions>  (20) 
["H-B:LYS:547:NZ:9923, V-A:VAL:458:CG2:4087, V-A:VAL:457:CA:4075, V-A:VAL:457:C:4073, V-B:HIS:456:CD2:9040, V-A:HIS:456:CB:4065, V-A:HIS:456:CD2:4068, V-A:HIS:456:C:4061, V-A:LYS:471:CD:4219, V-A:ASP:473:CG:4240, V-A:HIS:456:CG:4066, V-A:LYS:547:CG:4948, V-A:LYS:547:CB:4947, V-A:GLY:544:C:4912, V-A:LYS:547:CD:4949, V-A:HIS:456:CA:4063, V-A:ARG:545:C:4917, V-B:LYS:547:CE:9922, V-A:ILE:546:CA:4936, V-A:ARG:545:CA:4919, V-A:TYR:484:CB:4341, V-A:ASP:473:CB:4239, V-A:TYR:484:C:4337, H-B:GLY:544:N:9887, V-B:GLY:544:CA:9886, V-B:VAL:542:CG1:9871, H-A:TYR:484:O:4338, V-A:VAL:458:CB:4085, V-B:VAL:542:CB:9870, V-A:TYR:484:CA:4339, V-B:VAL:542:C:9866"]

$$$$
2e_Grossjean_2025
     RDKit          3D

 25 26  0  0  0  0  0  0  0  0999 V2000
  123.3350  129.6290   67.0100 C   0  0  0  0  0  0  0  0  0  0  0  0
  124.4330  129.4280   65.9830 C   0  0  0  0  0  0  0  0  0  0  0  0
  125.6670  128.8720   66.3300 C   0  0  0  0  0  0  0  0  0  0  0  0
  126.6260  128.7060   65.3290 C   0  0  0  0  0  0  0  0  0  0  0  0
  126.3320  129.0960   64.0200 C   0  0  0  0  0  0  0  0  0  0  0  0
  125.0790  129.6550   63.7440 C   0  0  0  0  0  0  0  0  0  0  0  0
  124.8200  129.9900   62.4030 N   0  0  0  0  0  0  0  0  0  0  0  0
  123.6480  130.3760   61.8520 C   0  0  0  0  0  0  0  0  0  0  0  0
  122.6040  130.5710   62.4760 O   0  0  0  0  0  0  0  0  0  0  0  0
  123.6480  130.5300   60.3280 C   0  0  0  0  0  0  0  0  0  0  0  0
  123.7320  132.2770   59.8170 S   0  0  0  0  0  0  0  0  0  0  0  0
  125.2910  132.8760   60.4300 C   0  0  0  0  0  0  0  0  0  0  0  0
  126.0930  131.9220   60.9650 N   0  0  0  0  0  0  0  0  0  0  0  0
  127.2780  132.2990   61.4960 C   0  0  0  0  0  0  0  0  0  0  0  0
  128.1240  131.1820   62.0760 C   0  0  0  0  0  0  0  0  0  0  0  0
  127.7050  133.6260   61.5200 C   0  0  0  0  0  0  0  0  0  0  0  0
  126.8830  134.6250   60.9780 C   0  0  0  0  0  0  0  0  0  0  0  0
  127.3590  136.0890   61.0320 C   0  0  0  0  0  0  0  0  0  0  0  0
  126.7200  136.7440   62.0020 F   0  0  0  0  0  0  0  0  0  0  0  0
  128.6700  136.1340   61.2700 F   0  0  0  0  0  0  0  0  0  0  0  0
  127.1350  136.7450   59.8910 F   0  0  0  0  0  0  0  0  0  0  0  0
  125.6400  134.2460   60.4140 C   0  0  0  0  0  0  0  0  0  0  0  0
  124.7230  135.2470   59.8590 C   0  0  0  0  0  0  0  0  0  0  0  0
  123.9990  136.0380   59.4220 N   0  0  0  0  0  0  0  0  0  0  0  0
  124.1340  129.8130   64.7160 N   0  0  0  0  0  0  0  0  0  0  0  0
  1  2  1  0
  2  3  2  0
  3  4  1  0
  4  5  2  0
  5  6  1  0
  6  7  1  0
  7  8  1  0
  8  9  2  0
  8 10  1  0
 10 11  1  0
 11 12  1  0
 12 13  2  0
 13 14  1  0
 14 15  1  0
 14 16  2  0
 16 17  1  0
 17 18  1  0
 18 19  1  0
 18 20  1  0
 18 21  1  0
 17 22  2  0
 22 23  1  0
 23 24  3  0
  6 25  2  0
 25  2  1  0
 22 12  1  0
M  END
>  <Binding energies>  (21) 
[-7.11]

>  <Ligand effiencies>  (21) 
[-0.2734615384615385]

>  <Interactions>  (21) 
["V-B:GLU:543:CD:9880, V-B:ILE:369:CD1:8211, V-A:TYR:539:CE1:4875, V-A:PRO:540:CA:4883, V-A:ALA:541:CB:4892, V-B:SER:385:CA:8379, V-A:TYR:539:CD1:4873, V-B:ILE:369:CG2:8209, V-B:ARG:545:CZ:9898, V-A:PRO:540:C:4881, V-B:LEU:475:CD2:9231, V-A:ALA:541:CA:4890, H-B:GLY:454:N:9022, V-B:GLY:453:C:9014, H-B:TYR:484:OH:9320, V-B:ILE:455:C:9024, V-B:GLY:454:CA:9021, V-A:TYR:539:C:4867, V-B:GLY:453:CA:9016, V-B:ARG:545:CD:9895, H-B:ARG:545:NH1:9899, V-B:HIS:456:CE1:9042, V-B:ARG:545:CG:9894, V-B:ARG:545:CB:9893, V-B:TYR:484:CE1:9317, V-B:TYR:484:CZ:9319, V-B:ASP:366:CG:8185, V-B:PRO:482:CG:9299, V-B:PRO:482:CB:9298, V-B:ASP:366:CA:8182, V-B:ASP:366:CB:8184, H-B:SER:385:OG:8382, V-A:TYR:539:CB:4871, V-A:TYR:539:CG:4872, V-B:LEU:475:CG:9229, V-B:LEU:475:CD1:9230"]

$$$$
2f_Grossjean_2025
     RDKit          3D

 24 25  0  0  0  0  0  0  0  0999 V2000
  128.0290  122.5630   60.1540 C   0  0  0  0  0  0  0  0  0  0  0  0
  129.2820  123.0970   60.8210 C   0  0  0  0  0  0  0  0  0  0  0  0
  130.5340  122.5380   60.5760 C   0  0  0  0  0  0  0  0  0  0  0  0
  131.6630  123.0620   61.2240 C   0  0  0  0  0  0  0  0  0  0  0  0
  133.0370  122.4230   60.9480 C   0  0  0  0  0  0  0  0  0  0  0  0
  133.8560  123.3180   60.3930 F   0  0  0  0  0  0  0  0  0  0  0  0
  133.5770  121.9950   62.0900 F   0  0  0  0  0  0  0  0  0  0  0  0
  132.9660  121.3790   60.1200 F   0  0  0  0  0  0  0  0  0  0  0  0
  131.4890  124.1570   62.1100 C   0  0  0  0  0  0  0  0  0  0  0  0
  132.6280  124.7020   62.8540 C   0  0  0  0  0  0  0  0  0  0  0  0
  133.5280  125.1330   63.4400 N   0  0  0  0  0  0  0  0  0  0  0  0
  130.1830  124.6760   62.2780 C   0  0  0  0  0  0  0  0  0  0  0  0
  129.7830  126.0510   63.3380 S   0  0  0  0  0  0  0  0  0  0  0  0
  129.1580  127.4090   62.2920 C   0  0  0  0  0  0  0  0  0  0  0  0
  127.7680  127.9380   62.6740 C   0  0  0  0  0  0  0  0  0  0  0  0
  126.9340  128.1970   61.8050 O   0  0  0  0  0  0  0  0  0  0  0  0
  127.5750  128.1010   64.0000 N   0  0  0  0  0  0  0  0  0  0  0  0
  126.4330  128.5500   64.6900 C   0  0  0  0  0  0  0  0  0  0  0  0
  126.1710  128.3420   66.0570 C   0  0  0  0  0  0  0  0  0  0  0  0
  124.9980  128.8480   66.6200 C   0  0  0  0  0  0  0  0  0  0  0  0
  124.1150  129.5540   65.8030 C   0  0  0  0  0  0  0  0  0  0  0  0
  124.3490  129.7760   64.4850 N   0  0  0  0  0  0  0  0  0  0  0  0
  125.4940  129.2790   63.9520 C   0  0  0  0  0  0  0  0  0  0  0  0
  129.1010  124.1420   61.6600 N   0  0  0  0  0  0  0  0  0  0  0  0
  1  2  1  0
  2  3  2  0
  3  4  1  0
  4  5  1  0
  5  6  1  0
  5  7  1  0
  5  8  1  0
  4  9  2  0
  9 10  1  0
 10 11  3  0
  9 12  1  0
 12 13  1  0
 13 14  1  0
 14 15  1  0
 15 16  2  0
 15 17  1  0
 17 18  1  0
 18 19  2  0
 19 20  1  0
 20 21  2  0
 21 22  1  0
 22 23  2  0
 12 24  2  0
 24  2  1  0
 23 18  1  0
M  END
>  <Binding energies>  (22) 
[-6.09]

>  <Ligand effiencies>  (22) 
[-0.24359999999999998]

>  <Interactions>  (22) 
["V-B:TYR:539:CD2:9846, H-B:GLU:543:OE2:9882, V-B:TYR:539:C:9839, V-A:LEU:475:CD2:4259, V-B:GLU:543:CD:9880, H-B:GLU:543:OE1:9881, V-A:ILE:369:CG2:3237, V-B:TYR:539:CE2:9848, H-A:GLU:543:OE2:4910, V-A:GLU:543:CD:4908, V-B:PRO:540:CA:9855, H-A:GLU:543:OE1:4909, H-A:TYR:484:OH:4348, V-B:ARG:545:CZ:9898, H-B:GLY:454:N:9022, V-B:GLY:453:C:9014, H-B:TYR:484:OH:9320, V-B:GLY:454:CA:9021, V-B:GLY:453:CA:9016, V-B:ARG:545:CD:9895, V-B:HIS:456:CE1:9042, V-B:ARG:545:CG:9894, V-A:GLY:454:CA:4049, V-A:ILE:369:CD1:3239, V-B:TYR:484:CZ:9319, H-A:GLY:454:N:4050, H-A:ARG:545:NE:4924, V-A:ILE:369:CB:3236, H-A:ARG:545:NH1:4927, H-A:ARG:545:NH2:4928, V-B:PRO:540:N:9856"]

$$$$
2g_Grossjean_2025
     RDKit          3D

 25 26  0  0  0  0  0  0  0  0999 V2000
  129.0570  132.8220   60.7170 C   0  0  0  0  0  0  0  0  0  0  0  0
  127.8930  132.1600   61.4300 C   0  0  0  0  0  0  0  0  0  0  0  0
  126.5880  132.6230   61.2810 C   0  0  0  0  0  0  0  0  0  0  0  0
  125.5460  131.9820   61.9680 C   0  0  0  0  0  0  0  0  0  0  0  0
  124.1100  132.5140   61.7980 C   0  0  0  0  0  0  0  0  0  0  0  0
  123.2690  131.5070   61.5540 F   0  0  0  0  0  0  0  0  0  0  0  0
  123.7250  133.1390   62.9110 F   0  0  0  0  0  0  0  0  0  0  0  0
  123.9960  133.3800   60.7890 F   0  0  0  0  0  0  0  0  0  0  0  0
  125.8590  130.8690   62.7900 C   0  0  0  0  0  0  0  0  0  0  0  0
  124.8170  130.1990   63.5730 C   0  0  0  0  0  0  0  0  0  0  0  0
  123.9940  129.6710   64.1900 N   0  0  0  0  0  0  0  0  0  0  0  0
  127.2100  130.4500   62.8570 C   0  0  0  0  0  0  0  0  0  0  0  0
  127.7730  129.0620   63.8180 S   0  0  0  0  0  0  0  0  0  0  0  0
  127.0800  129.2400   65.4960 C   0  0  0  0  0  0  0  0  0  0  0  0
  128.1220  129.2580   66.6230 C   0  0  0  0  0  0  0  0  0  0  0  0
  128.2790  130.2500   67.3370 O   0  0  0  0  0  0  0  0  0  0  0  0
  128.8410  128.1290   66.7630 N   0  0  0  0  0  0  0  0  0  0  0  0
  129.8830  127.9040   67.7660 C   0  0  0  0  0  0  0  0  0  0  0  0
  129.3540  127.5690   69.1570 C   0  0  0  0  0  0  0  0  0  0  0  0
  128.2500  126.7230   69.2960 C   0  0  0  0  0  0  0  0  0  0  0  0
  127.7890  126.3850   70.5660 C   0  0  0  0  0  0  0  0  0  0  0  0
  128.4390  126.8860   71.6920 C   0  0  0  0  0  0  0  0  0  0  0  0
  129.5480  127.7190   71.5600 C   0  0  0  0  0  0  0  0  0  0  0  0
  130.0100  128.0570   70.2910 C   0  0  0  0  0  0  0  0  0  0  0  0
  128.2080  131.0970   62.2040 N   0  0  0  0  0  0  0  0  0  0  0  0
  1  2  1  0
  2  3  2  0
  3  4  1  0
  4  5  1  0
  5  6  1  0
  5  7  1  0
  5  8  1  0
  4  9  2  0
  9 10  1  0
 10 11  3  0
  9 12  1  0
 12 13  1  0
 13 14  1  0
 14 15  1  0
 15 16  2  0
 15 17  1  0
 17 18  1  0
 18 19  1  0
 19 20  2  0
 20 21  1  0
 21 22  2  0
 22 23  1  0
 23 24  2  0
 12 25  2  0
 25  2  1  0
 24 19  1  0
M  END
>  <Binding energies>  (23) 
[-6.49]

>  <Ligand effiencies>  (23) 
[-0.24961538461538463]

>  <Interactions>  (23) 
["H-B:GLU:543:OE2:9882, H-A:GLU:543:OE2:4910, V-A:GLU:543:CD:4908, V-B:ILE:369:CD1:8211, V-A:PRO:540:CA:4883, V-A:ALA:541:CB:4892, V-A:GLU:543:CG:4907, V-B:ILE:369:CG2:8209, V-A:PRO:540:C:4881, V-B:LEU:475:CD2:9231, H-B:GLY:454:N:9022, V-B:GLY:453:C:9014, H-B:TYR:484:OH:9320, V-B:GLY:454:CA:9021, H-B:ARG:545:NH1:9899, V-B:HIS:456:CE1:9042, V-B:HIS:456:CD2:9040, V-A:HIS:456:CD2:4068, V-B:GLY:544:C:9884, V-B:GLU:543:CB:9878, V-B:TYR:484:CZ:9319, H-B:ARG:545:NH2:9900, V-A:HIS:456:CE1:4070, V-A:GLU:543:CB:4906, V-B:GLU:543:C:9874"]

$$$$
2h_Grossjean_2025
     RDKit          3D

 31 32  0  0  0  0  0  0  0  0999 V2000
  131.8290  131.5960   57.3800 C   0  0  0  0  0  0  0  0  0  0  0  0
  130.9160  130.8710   58.1960 O   0  0  0  0  0  0  0  0  0  0  0  0
  129.7610  131.4900   58.6390 C   0  0  0  0  0  0  0  0  0  0  0  0
  128.6000  131.6280   57.8620 C   0  0  0  0  0  0  0  0  0  0  0  0
  127.4700  132.2580   58.3790 C   0  0  0  0  0  0  0  0  0  0  0  0
  127.4750  132.7640   59.6800 C   0  0  0  0  0  0  0  0  0  0  0  0
  126.2170  133.4330   60.2330 C   0  0  0  0  0  0  0  0  0  0  0  0
  125.4660  132.5920   61.1650 N   0  0  0  0  0  0  0  0  0  0  0  0
  124.1400  132.3780   61.1130 C   0  0  0  0  0  0  0  0  0  0  0  0
  123.3960  132.9440   60.3100 O   0  0  0  0  0  0  0  0  0  0  0  0
  123.5920  131.3620   62.1260 C   0  0  0  0  0  0  0  0  0  0  0  0
  124.4970  129.7800   62.1970 S   0  0  0  0  0  0  0  0  0  0  0  0
  124.9500  129.5230   63.8980 C   0  0  0  0  0  0  0  0  0  0  0  0
  123.9070  129.6140   64.7600 N   0  0  0  0  0  0  0  0  0  0  0  0
  124.1430  129.4530   66.0810 C   0  0  0  0  0  0  0  0  0  0  0  0
  122.9310  129.5760   66.9860 C   0  0  0  0  0  0  0  0  0  0  0  0
  125.4120  129.1930   66.5930 C   0  0  0  0  0  0  0  0  0  0  0  0
  126.5000  129.0740   65.7150 C   0  0  0  0  0  0  0  0  0  0  0  0
  127.8950  128.7770   66.2990 C   0  0  0  0  0  0  0  0  0  0  0  0
  128.4980  129.9160   66.6390 F   0  0  0  0  0  0  0  0  0  0  0  0
  127.8450  128.0090   67.3900 F   0  0  0  0  0  0  0  0  0  0  0  0
  128.6440  128.1430   65.3960 F   0  0  0  0  0  0  0  0  0  0  0  0
  126.2680  129.2330   64.3250 C   0  0  0  0  0  0  0  0  0  0  0  0
  127.3590  129.0610   63.3620 C   0  0  0  0  0  0  0  0  0  0  0  0
  128.2210  128.9210   62.6030 N   0  0  0  0  0  0  0  0  0  0  0  0
  128.6360  132.6550   60.4600 C   0  0  0  0  0  0  0  0  0  0  0  0
  128.6500  133.1530   61.7410 O   0  0  0  0  0  0  0  0  0  0  0  0
  128.3570  132.1920   62.7470 C   0  0  0  0  0  0  0  0  0  0  0  0
  129.7680  132.0020   59.9430 C   0  0  0  0  0  0  0  0  0  0  0  0
  130.9020  131.8760   60.7100 O   0  0  0  0  0  0  0  0  0  0  0  0
  131.2680  130.5320   60.9900 C   0  0  0  0  0  0  0  0  0  0  0  0
  1  2  1  0
  2  3  1  0
  3  4  2  0
  4  5  1  0
  5  6  2  0
  6  7  1  0
  7  8  1  0
  8  9  1  0
  9 10  2  0
  9 11  1  0
 11 12  1  0
 12 13  1  0
 13 14  2  0
 14 15  1  0
 15 16  1  0
 15 17  2  0
 17 18  1  0
 18 19  1  0
 19 20  1  0
 19 21  1  0
 19 22  1  0
 18 23  2  0
 23 24  1  0
 24 25  3  0
  6 26  1  0
 26 27  1  0
 27 28  1  0
 26 29  2  0
 29 30  1  0
 30 31  1  0
 29  3  1  0
 23 13  1  0
M  END
>  <Binding energies>  (24) 
[-5.74]

>  <Ligand effiencies>  (24) 
[-0.179375]

>  <Interactions>  (24) 
["V-B:GLU:543:CD:9880, V-A:GLU:543:CD:4908, V-B:ILE:369:CD1:8211, V-A:TYR:539:CE1:4875, V-A:PRO:540:CA:4883, V-A:ALA:541:CB:4892, V-A:TYR:539:CD1:4873, V-A:GLU:543:CG:4907, V-B:ARG:545:CZ:9898, H-A:ALA:541:N:4891, H-B:GLY:454:N:9022, H-B:ARG:545:NE:9896, V-B:GLY:453:C:9014, H-B:TYR:484:OH:9320, V-B:ILE:455:C:9024, V-B:GLY:454:CA:9021, V-B:GLY:453:CA:9016, V-B:ARG:545:CD:9895, H-B:ARG:545:NH1:9899, V-B:HIS:456:CE1:9042, V-B:ARG:545:CG:9894, V-B:ARG:545:CB:9893, V-A:PRO:540:CB:4885, V-B:TYR:484:CE1:9317, V-B:TYR:484:CZ:9319, H-B:ARG:545:NH2:9900, V-A:GLU:543:CB:4906, V-B:TYR:484:CE2:9318, V-A:GLU:543:CA:4904, V-A:PRO:540:N:4884"]

$$$$
2i_Grossjean_2025
     RDKit          3D

 23 24  0  0  0  0  0  0  0  0999 V2000
  129.4450  127.7330   72.7240 C   0  0  0  0  0  0  0  0  0  0  0  0
  130.5160  126.8940   73.3960 C   0  0  0  0  0  0  0  0  0  0  0  0
  131.8130  127.3700   73.5730 C   0  0  0  0  0  0  0  0  0  0  0  0
  132.7660  126.5560   74.2020 C   0  0  0  0  0  0  0  0  0  0  0  0
  134.1960  127.0980   74.3880 C   0  0  0  0  0  0  0  0  0  0  0  0
  134.9930  126.1340   74.8530 F   0  0  0  0  0  0  0  0  0  0  0  0
  134.6770  127.5320   73.2230 F   0  0  0  0  0  0  0  0  0  0  0  0
  134.2550  128.1170   75.2500 F   0  0  0  0  0  0  0  0  0  0  0  0
  132.3720  125.2670   74.6410 C   0  0  0  0  0  0  0  0  0  0  0  0
  133.3280  124.3750   75.3060 C   0  0  0  0  0  0  0  0  0  0  0  0
  134.0810  123.6710   75.8320 N   0  0  0  0  0  0  0  0  0  0  0  0
  131.0350  124.8630   74.4190 C   0  0  0  0  0  0  0  0  0  0  0  0
  130.4290  123.2600   74.9210 S   0  0  0  0  0  0  0  0  0  0  0  0
  130.4490  122.1680   73.4670 C   0  0  0  0  0  0  0  0  0  0  0  0
  129.0500  121.9440   72.8910 C   0  0  0  0  0  0  0  0  0  0  0  0
  128.3500  122.9210   72.6210 O   0  0  0  0  0  0  0  0  0  0  0  0
  128.6740  120.6550   72.7450 N   0  0  0  0  0  0  0  0  0  0  0  0
  127.4580  120.1970   72.2640 C   0  0  0  0  0  0  0  0  0  0  0  0
  126.2080  120.1220   72.8940 C   0  0  0  0  0  0  0  0  0  0  0  0
  125.3680  119.5920   71.9430 C   0  0  0  0  0  0  0  0  0  0  0  0
  126.0690  119.3690   70.8060 O   0  0  0  0  0  0  0  0  0  0  0  0
  127.3910  119.7630   71.0240 N   0  0  0  0  0  0  0  0  0  0  0  0
  130.1270  125.6670   73.8090 N   0  0  0  0  0  0  0  0  0  0  0  0
  1  2  1  0
  2  3  2  0
  3  4  1  0
  4  5  1  0
  5  6  1  0
  5  7  1  0
  5  8  1  0
  4  9  2  0
  9 10  1  0
 10 11  3  0
  9 12  1  0
 12 13  1  0
 13 14  1  0
 14 15  1  0
 15 16  2  0
 15 17  1  0
 17 18  1  0
 18 19  1  0
 19 20  2  0
 20 21  1  0
 21 22  1  0
 12 23  2  0
 23  2  1  0
 22 18  2  0
M  END
>  <Binding energies>  (25) 
[-6.62]

>  <Ligand effiencies>  (25) 
[-0.2758333333333333]

>  <Interactions>  (25) 
["H-B:LYS:547:NZ:9923, V-A:VAL:458:CG2:4087, V-A:VAL:457:CA:4075, V-A:VAL:457:C:4073, V-B:HIS:456:CD2:9040, V-A:HIS:456:CB:4065, V-A:HIS:456:CD2:4068, V-A:HIS:456:C:4061, V-A:LYS:471:CD:4219, V-A:ASP:473:CG:4240, V-A:HIS:456:CG:4066, V-A:LYS:547:CG:4948, V-A:LYS:547:CB:4947, V-A:GLY:544:C:4912, V-A:LYS:547:CD:4949, V-A:HIS:456:CA:4063, V-A:ARG:545:C:4917, V-B:GLU:543:C:9874, V-B:LYS:547:CE:9922, V-A:ARG:545:CA:4919, V-A:TYR:484:CB:4341, V-A:ASP:473:CB:4239, H-A:TYR:484:N:4340, V-A:TYR:484:C:4337, H-B:GLY:544:N:9887, V-B:GLY:544:CA:9886, V-B:VAL:542:CG1:9871, H-A:TYR:484:O:4338, V-A:VAL:458:CB:4085, H-A:SER:483:OG:4334"]

$$$$
2k_Grossjean_2025
     RDKit          3D

 28 28  0  0  0  0  0  0  0  0999 V2000
  132.9900  122.1930   61.2200 C   0  0  0  0  0  0  0  0  0  0  0  0
  131.7550  121.8670   61.8390 O   0  0  0  0  0  0  0  0  0  0  0  0
  130.8740  121.1370   60.9950 C   0  0  0  0  0  0  0  0  0  0  0  0
  129.5200  120.9560   61.6920 C   0  0  0  0  0  0  0  0  0  0  0  0
  129.5000  121.7410   62.8750 O   0  0  0  0  0  0  0  0  0  0  0  0
  128.5430  122.7940   62.8620 C   0  0  0  0  0  0  0  0  0  0  0  0
  127.5280  122.5120   61.7460 C   0  0  0  0  0  0  0  0  0  0  0  0
  126.2400  122.8560   62.2330 O   0  0  0  0  0  0  0  0  0  0  0  0
  125.4810  123.7060   61.3860 C   0  0  0  0  0  0  0  0  0  0  0  0
  126.4240  124.7350   60.7370 C   0  0  0  0  0  0  0  0  0  0  0  0
  126.9880  125.6830   61.7020 N   0  0  0  0  0  0  0  0  0  0  0  0
  128.2540  126.1410   61.7030 C   0  0  0  0  0  0  0  0  0  0  0  0
  129.0900  125.8250   60.8530 O   0  0  0  0  0  0  0  0  0  0  0  0
  128.6210  127.0840   62.8580 C   0  0  0  0  0  0  0  0  0  0  0  0
  127.2520  128.1120   63.4940 S   0  0  0  0  0  0  0  0  0  0  0  0
  126.3160  128.7700   62.1200 C   0  0  0  0  0  0  0  0  0  0  0  0
  126.8200  128.5120   60.8870 N   0  0  0  0  0  0  0  0  0  0  0  0
  126.1660  128.9830   59.8020 C   0  0  0  0  0  0  0  0  0  0  0  0
  126.7990  128.6640   58.4620 C   0  0  0  0  0  0  0  0  0  0  0  0
  124.9850  129.7140   59.8960 C   0  0  0  0  0  0  0  0  0  0  0  0
  124.4400  129.9850   61.1610 C   0  0  0  0  0  0  0  0  0  0  0  0
  123.1300  130.7910   61.2470 C   0  0  0  0  0  0  0  0  0  0  0  0
  122.1870  130.1700   61.9570 F   0  0  0  0  0  0  0  0  0  0  0  0
  123.3560  131.9710   61.8260 F   0  0  0  0  0  0  0  0  0  0  0  0
  122.6400  130.9970   60.0240 F   0  0  0  0  0  0  0  0  0  0  0  0
  125.1210  129.5040   62.3080 C   0  0  0  0  0  0  0  0  0  0  0  0
  124.5990  129.7610   63.6540 C   0  0  0  0  0  0  0  0  0  0  0  0
  124.1860  129.9630   64.7170 N   0  0  0  0  0  0  0  0  0  0  0  0
  1  2  1  0
  2  3  1  0
  3  4  1  0
  4  5  1  0
  5  6  1  0
  6  7  1  0
  7  8  1  0
  8  9  1  0
  9 10  1  0
 10 11  1  0
 11 12  1  0
 12 13  2  0
 12 14  1  0
 14 15  1  0
 15 16  1  0
 16 17  2  0
 17 18  1  0
 18 19  1  0
 18 20  2  0
 20 21  1  0
 21 22  1  0
 22 23  1  0
 22 24  1  0
 22 25  1  0
 21 26  2  0
 26 27  1  0
 27 28  3  0
 26 16  1  0
M  END
>  <Binding energies>  (26) 
[-5.05]

>  <Ligand effiencies>  (26) 
[-0.17413793103448275]

>  <Interactions>  (26) 
["V-B:ALA:541:CB:9864, V-B:TYR:539:CD2:9846, V-B:GLU:543:CG:9879, V-A:TYR:484:CZ:4347, H-B:GLU:543:OE2:9882, V-A:TYR:484:CE1:4345, V-A:LEU:475:CD2:4259, V-B:GLU:543:CD:9880, H-B:GLU:543:OE1:9881, V-B:TYR:539:CE2:9848, V-A:GLU:543:CD:4908, V-B:PRO:540:C:9853, V-B:PRO:540:CA:9855, H-A:TYR:484:OH:4348, V-B:ILE:369:CD1:8211, V-B:ILE:369:CG2:8209, V-B:ARG:545:CZ:9898, H-B:GLY:454:N:9022, V-B:GLY:453:C:9014, H-B:TYR:484:OH:9320, V-B:GLY:453:CA:9016, V-B:ASP:366:CG:8185, H-B:ALA:541:N:9863, V-B:ILE:369:CG1:8210, V-B:ILE:369:CB:8208, V-B:ASP:366:CA:8182, V-B:ASP:366:CB:8184, V-B:ASP:366:C:8180, H-B:ASP:366:OD2:8187, V-B:PRO:540:CB:9857"]

$$$$
3aa_Grossjean_2025
     RDKit          3D

 34 36  0  0  0  0  0  0  0  0999 V2000
  133.3100  126.9900   74.0820 C   0  0  0  0  0  0  0  0  0  0  0  0
  131.7860  126.8360   74.0990 C   0  0  0  0  0  0  0  0  0  0  0  0
  131.2160  127.6430   73.0760 O   0  0  0  0  0  0  0  0  0  0  0  0
  129.8920  127.5680   72.7830 C   0  0  0  0  0  0  0  0  0  0  0  0
  129.0100  127.4560   73.6400 O   0  0  0  0  0  0  0  0  0  0  0  0
  129.6070  127.6190   71.3090 C   0  0  0  0  0  0  0  0  0  0  0  0
  130.3500  128.4270   70.4350 C   0  0  0  0  0  0  0  0  0  0  0  0
  130.0620  128.4470   69.0730 C   0  0  0  0  0  0  0  0  0  0  0  0
  129.0330  127.6580   68.5560 C   0  0  0  0  0  0  0  0  0  0  0  0
  128.8270  127.7490   67.1650 N   0  0  0  0  0  0  0  0  0  0  0  0
  128.4310  128.8050   66.4210 C   0  0  0  0  0  0  0  0  0  0  0  0
  128.1450  129.9200   66.8590 O   0  0  0  0  0  0  0  0  0  0  0  0
  128.3280  128.5500   64.9170 C   0  0  0  0  0  0  0  0  0  0  0  0
  126.6820  128.9730   64.2710 S   0  0  0  0  0  0  0  0  0  0  0  0
  126.9280  130.0960   62.9130 C   0  0  0  0  0  0  0  0  0  0  0  0
  128.2270  130.2470   62.5610 N   0  0  0  0  0  0  0  0  0  0  0  0
  128.5560  131.0790   61.5390 C   0  0  0  0  0  0  0  0  0  0  0  0
  130.0130  131.1800   61.2010 C   0  0  0  0  0  0  0  0  0  0  0  0
  130.4610  130.9440   59.8910 C   0  0  0  0  0  0  0  0  0  0  0  0
  131.8120  131.0380   59.5690 C   0  0  0  0  0  0  0  0  0  0  0  0
  132.7350  131.3700   60.5550 C   0  0  0  0  0  0  0  0  0  0  0  0
  132.3170  131.6110   61.8590 C   0  0  0  0  0  0  0  0  0  0  0  0
  130.9640  131.5190   62.1780 C   0  0  0  0  0  0  0  0  0  0  0  0
  127.5690  131.7780   60.8360 C   0  0  0  0  0  0  0  0  0  0  0  0
  126.2180  131.6510   61.1940 C   0  0  0  0  0  0  0  0  0  0  0  0
  125.1630  132.4470   60.4030 C   0  0  0  0  0  0  0  0  0  0  0  0
  124.3400  131.6630   59.7040 F   0  0  0  0  0  0  0  0  0  0  0  0
  124.4120  133.1690   61.2360 F   0  0  0  0  0  0  0  0  0  0  0  0
  125.7640  133.2680   59.5420 F   0  0  0  0  0  0  0  0  0  0  0  0
  125.8820  130.7960   62.2710 C   0  0  0  0  0  0  0  0  0  0  0  0
  124.4940  130.6690   62.7250 C   0  0  0  0  0  0  0  0  0  0  0  0
  123.3980  130.5690   63.0850 N   0  0  0  0  0  0  0  0  0  0  0  0
  128.2770  126.8570   69.4260 C   0  0  0  0  0  0  0  0  0  0  0  0
  128.5660  126.8400   70.7860 C   0  0  0  0  0  0  0  0  0  0  0  0
  1  2  1  0
  2  3  1  0
  3  4  1  0
  4  5  2  0
  4  6  1  0
  6  7  2  0
  7  8  1  0
  8  9  2  0
  9 10  1  0
 10 11  1  0
 11 12  2  0
 11 13  1  0
 13 14  1  0
 14 15  1  0
 15 16  2  0
 16 17  1  0
 17 18  1  0
 18 19  2  0
 19 20  1  0
 20 21  2  0
 21 22  1  0
 22 23  2  0
 17 24  2  0
 24 25  1  0
 25 26  1  0
 26 27  1  0
 26 28  1  0
 26 29  1  0
 25 30  2  0
 30 31  1  0
 31 32  3  0
  9 33  1  0
 33 34  2  0
 34  6  1  0
 30 15  1  0
 23 18  1  0
M  END
>  <Binding energies>  (27) 
[-7.9]

>  <Ligand effiencies>  (27) 
[-0.22571428571428573]

>  <Interactions>  (27) 
["H-B:GLU:543:OE2:9882, V-B:GLU:543:CD:9880, H-A:GLU:543:OE2:4910, V-A:GLU:543:CD:4908, V-B:ILE:369:CD1:8211, V-A:TYR:539:CE1:4875, V-A:PRO:540:CA:4883, V-A:ALA:541:CB:4892, V-A:TYR:539:CD1:4873, V-A:GLU:543:CG:4907, V-B:LEU:475:CD2:9231, V-A:ALA:541:CA:4890, H-B:GLY:454:N:9022, H-B:TYR:484:OH:9320, V-A:ASN:362:CB:3176, V-B:HIS:456:CE1:9042, V-A:PRO:540:CB:4885, H-B:LYS:547:NZ:9923, V-B:HIS:456:CD2:9040, V-A:HIS:456:CB:4065, V-A:HIS:456:CD2:4068, V-A:HIS:456:CG:4066, V-A:GLY:544:C:4912, V-B:GLU:543:CB:9878, V-A:HIS:456:CE1:4070, V-A:ALA:541:C:4888, V-A:GLU:543:CB:4906, V-A:GLU:543:CA:4904, V-A:GLU:543:C:4902, V-A:GLY:544:CA:4914"]

$$$$
3ad_Grossjean_2025
     RDKit          3D

 29 31  0  0  0  0  0  0  0  0999 V2000
  123.7360  131.4230   75.9660 N   0  0  0  0  0  0  0  0  0  0  0  0
  124.6710  130.8650   75.5750 C   0  0  0  0  0  0  0  0  0  0  0  0
  125.8540  130.1540   75.0790 C   0  0  0  0  0  0  0  0  0  0  0  0
  125.7930  128.7730   74.7740 C   0  0  0  0  0  0  0  0  0  0  0  0
  124.4970  127.9490   74.8970 C   0  0  0  0  0  0  0  0  0  0  0  0
  124.7250  126.6440   75.0570 F   0  0  0  0  0  0  0  0  0  0  0  0
  123.7910  128.3670   75.9490 F   0  0  0  0  0  0  0  0  0  0  0  0
  123.7570  128.0920   73.7960 F   0  0  0  0  0  0  0  0  0  0  0  0
  126.9650  128.1290   74.3470 C   0  0  0  0  0  0  0  0  0  0  0  0
  128.1630  128.8430   74.2310 C   0  0  0  0  0  0  0  0  0  0  0  0
  129.4460  128.2010   73.7950 C   0  0  0  0  0  0  0  0  0  0  0  0
  129.8380  128.2260   72.4470 C   0  0  0  0  0  0  0  0  0  0  0  0
  131.0280  127.6330   72.0350 C   0  0  0  0  0  0  0  0  0  0  0  0
  131.8470  127.0070   72.9700 C   0  0  0  0  0  0  0  0  0  0  0  0
  131.4830  126.9720   74.3120 C   0  0  0  0  0  0  0  0  0  0  0  0
  130.2920  127.5660   74.7200 C   0  0  0  0  0  0  0  0  0  0  0  0
  128.2170  130.1650   74.5310 N   0  0  0  0  0  0  0  0  0  0  0  0
  127.0940  130.8130   74.9250 C   0  0  0  0  0  0  0  0  0  0  0  0
  127.3490  132.5410   75.2620 S   0  0  0  0  0  0  0  0  0  0  0  0
  127.4310  133.3970   73.6600 C   0  0  0  0  0  0  0  0  0  0  0  0
  128.8350  133.3530   73.0530 C   0  0  0  0  0  0  0  0  0  0  0  0
  129.2630  132.2870   72.6100 O   0  0  0  0  0  0  0  0  0  0  0  0
  129.5050  134.5260   73.0580 N   0  0  0  0  0  0  0  0  0  0  0  0
  130.7900  134.8320   72.5730 C   0  0  0  0  0  0  0  0  0  0  0  0
  130.8620  135.9130   71.6890 C   0  0  0  0  0  0  0  0  0  0  0  0
  132.0860  136.2970   71.1470 C   0  0  0  0  0  0  0  0  0  0  0  0
  133.2400  135.5970   71.4840 C   0  0  0  0  0  0  0  0  0  0  0  0
  133.1820  134.5140   72.3570 C   0  0  0  0  0  0  0  0  0  0  0  0
  131.9600  134.1260   72.9020 C   0  0  0  0  0  0  0  0  0  0  0  0
  1  2  3  0
  2  3  1  0
  3  4  2  0
  4  5  1  0
  5  6  1  0
  5  7  1  0
  5  8  1  0
  4  9  1  0
  9 10  2  0
 10 11  1  0
 11 12  2  0
 12 13  1  0
 13 14  2  0
 14 15  1  0
 15 16  2  0
 10 17  1  0
 17 18  2  0
 18 19  1  0
 19 20  1  0
 20 21  1  0
 21 22  2  0
 21 23  1  0
 23 24  1  0
 24 25  2  0
 25 26  1  0
 26 27  2  0
 27 28  1  0
 28 29  2  0
 18  3  1  0
 29 24  1  0
 16 11  1  0
M  END
>  <Binding energies>  (28) 
[-7.34]

>  <Ligand effiencies>  (28) 
[-0.24466666666666667]

>  <Interactions>  (28) 
["H-A:LYS:547:NZ:4951, V-B:LYS:547:CB:9919, V-B:LYS:547:CG:9920, V-B:HIS:456:CD2:9040, V-B:ARG:545:C:9889, V-A:LYS:547:CE:4950, V-A:HIS:456:CB:4065, V-A:HIS:456:CD2:4068, V-B:LYS:547:CD:9921, V-B:HIS:456:CG:9038, V-B:HIS:456:CB:9037, V-B:VAL:457:C:9045, V-A:HIS:456:CG:4066, V-A:GLY:544:C:4912, V-B:VAL:458:CG2:9059, V-B:ASP:473:CB:9211, V-B:ASP:473:CG:9212, V-A:HIS:456:CE1:4070, V-A:GLY:544:CA:4914, V-B:LYS:547:CE:9922, V-B:ARG:545:CA:9891, V-B:HIS:456:C:9033, H-B:VAL:457:N:9048, V-B:TYR:484:CA:9311, V-B:VAL:458:CA:9055, V-B:VAL:457:CA:9047, V-B:TYR:484:CB:9313, V-B:TYR:484:C:9309, V-B:HIS:456:CA:9035, V-A:VAL:542:CG1:4899, V-B:VAL:458:CB:9057, H-B:ASP:473:OD2:9214, H-B:LEU:472:N:9201, H-B:TYR:484:O:9310, V-B:SER:483:CB:9305"]

$$$$
3ai_Grossjean_2025
     RDKit          3D

 28 30  0  0  0  0  0  0  0  0999 V2000
  123.7810  131.3750   76.1660 N   0  0  0  0  0  0  0  0  0  0  0  0
  124.7100  130.8240   75.7530 C   0  0  0  0  0  0  0  0  0  0  0  0
  125.8870  130.1240   75.2270 C   0  0  0  0  0  0  0  0  0  0  0  0
  125.8000  128.7720   74.8130 C   0  0  0  0  0  0  0  0  0  0  0  0
  124.4810  127.9770   74.8420 C   0  0  0  0  0  0  0  0  0  0  0  0
  123.7350  128.1700   73.7530 F   0  0  0  0  0  0  0  0  0  0  0  0
  124.7400  126.6700   74.9260 F   0  0  0  0  0  0  0  0  0  0  0  0
  123.7490  128.3410   75.8950 F   0  0  0  0  0  0  0  0  0  0  0  0
  126.9650  128.1330   74.3630 C   0  0  0  0  0  0  0  0  0  0  0  0
  128.1820  128.8210   74.3300 C   0  0  0  0  0  0  0  0  0  0  0  0
  129.4590  128.1850   73.8690 C   0  0  0  0  0  0  0  0  0  0  0  0
  130.3120  127.5470   74.7840 C   0  0  0  0  0  0  0  0  0  0  0  0
  131.4970  126.9500   74.3620 C   0  0  0  0  0  0  0  0  0  0  0  0
  131.8450  126.9820   73.0160 C   0  0  0  0  0  0  0  0  0  0  0  0
  131.0160  127.6050   72.0890 C   0  0  0  0  0  0  0  0  0  0  0  0
  129.8320  128.2010   72.5140 C   0  0  0  0  0  0  0  0  0  0  0  0
  128.2620  130.1140   74.7360 N   0  0  0  0  0  0  0  0  0  0  0  0
  127.1460  130.7610   75.1520 C   0  0  0  0  0  0  0  0  0  0  0  0
  127.4410  132.4530   75.6220 S   0  0  0  0  0  0  0  0  0  0  0  0
  127.3130  133.4820   74.1200 C   0  0  0  0  0  0  0  0  0  0  0  0
  128.4790  133.3350   73.1320 C   0  0  0  0  0  0  0  0  0  0  0  0
  128.7420  132.2420   72.6240 O   0  0  0  0  0  0  0  0  0  0  0  0
  129.1600  134.4780   72.8890 N   0  0  0  0  0  0  0  0  0  0  0  0
  130.2470  134.6460   72.0420 C   0  0  0  0  0  0  0  0  0  0  0  0
  131.5700  134.5560   72.4740 C   0  0  0  0  0  0  0  0  0  0  0  0
  132.3300  134.7830   71.3500 C   0  0  0  0  0  0  0  0  0  0  0  0
  131.5080  134.9970   70.2950 O   0  0  0  0  0  0  0  0  0  0  0  0
  130.1900  134.9070   70.7470 N   0  0  0  0  0  0  0  0  0  0  0  0
  1  2  3  0
  2  3  1  0
  3  4  2  0
  4  5  1  0
  5  6  1  0
  5  7  1  0
  5  8  1  0
  4  9  1  0
  9 10  2  0
 10 11  1  0
 11 12  2  0
 12 13  1  0
 13 14  2  0
 14 15  1  0
 15 16  2  0
 10 17  1  0
 17 18  2  0
 18 19  1  0
 19 20  1  0
 20 21  1  0
 21 22  2  0
 21 23  1  0
 23 24  1  0
 24 25  1  0
 25 26  2  0
 26 27  1  0
 27 28  1  0
 18  3  1  0
 28 24  2  0
 16 11  1  0
M  END
>  <Binding energies>  (29) 
[-7.68]

>  <Ligand effiencies>  (29) 
[-0.26482758620689656]

>  <Interactions>  (29) 
["H-A:LYS:547:NZ:4951, V-B:LYS:547:CB:9919, V-B:LYS:547:CG:9920, V-B:HIS:456:CD2:9040, V-B:ARG:545:C:9889, V-A:LYS:547:CE:4950, V-A:HIS:456:CB:4065, V-A:HIS:456:CD2:4068, V-B:LYS:547:CD:9921, V-B:HIS:456:CG:9038, V-B:HIS:456:CB:9037, V-B:VAL:457:C:9045, V-A:HIS:456:CG:4066, V-A:GLY:544:C:4912, V-B:VAL:458:CG2:9059, V-B:ASP:473:CB:9211, V-B:ASP:473:CG:9212, V-A:HIS:456:CE1:4070, V-A:GLU:543:C:4902, V-A:GLY:544:CA:4914, V-B:LYS:547:CE:9922, V-B:ARG:545:CA:9891, H-A:GLY:544:N:4915, V-B:HIS:456:C:9033, H-B:VAL:457:N:9048, H-B:TYR:484:N:9312, V-B:TYR:484:CA:9311, V-B:VAL:458:CA:9055, V-B:VAL:457:CA:9047, V-B:TYR:484:CB:9313, V-B:TYR:484:C:9309, V-B:HIS:456:CA:9035, V-A:VAL:542:CG1:4899, V-B:VAL:458:CB:9057, H-B:ASP:473:OD2:9214, H-B:LEU:472:N:9201, H-B:TYR:484:O:9310"]

$$$$
3aj_Grossjean_2025
     RDKit          3D

 28 30  0  0  0  0  0  0  0  0999 V2000
  123.8790  129.4880   64.9530 N   0  0  0  0  0  0  0  0  0  0  0  0
  124.6760  129.7570   64.1590 C   0  0  0  0  0  0  0  0  0  0  0  0
  125.6880  130.0970   63.1550 C   0  0  0  0  0  0  0  0  0  0  0  0
  127.0680  130.0520   63.4730 C   0  0  0  0  0  0  0  0  0  0  0  0
  127.5890  129.6100   64.8540 C   0  0  0  0  0  0  0  0  0  0  0  0
  126.6080  129.2510   65.6860 F   0  0  0  0  0  0  0  0  0  0  0  0
  128.4060  128.5660   64.7210 F   0  0  0  0  0  0  0  0  0  0  0  0
  128.2550  130.6100   65.4320 F   0  0  0  0  0  0  0  0  0  0  0  0
  127.9950  130.4330   62.4900 C   0  0  0  0  0  0  0  0  0  0  0  0
  127.5570  130.8490   61.2290 C   0  0  0  0  0  0  0  0  0  0  0  0
  128.5030  131.2750   60.1480 C   0  0  0  0  0  0  0  0  0  0  0  0
  128.0230  131.8540   58.9630 C   0  0  0  0  0  0  0  0  0  0  0  0
  128.8970  132.2560   57.9550 C   0  0  0  0  0  0  0  0  0  0  0  0
  130.2670  132.0820   58.1210 C   0  0  0  0  0  0  0  0  0  0  0  0
  130.7680  131.5120   59.2870 C   0  0  0  0  0  0  0  0  0  0  0  0
  129.8920  131.1140   60.2910 C   0  0  0  0  0  0  0  0  0  0  0  0
  126.2340  130.8980   60.9310 N   0  0  0  0  0  0  0  0  0  0  0  0
  125.3210  130.5130   61.8540 C   0  0  0  0  0  0  0  0  0  0  0  0
  123.6400  130.6210   61.2790 S   0  0  0  0  0  0  0  0  0  0  0  0
  123.5660  131.9330   60.0120 C   0  0  0  0  0  0  0  0  0  0  0  0
  124.1100  133.2980   60.4580 C   0  0  0  0  0  0  0  0  0  0  0  0
  123.3670  134.1330   60.9800 O   0  0  0  0  0  0  0  0  0  0  0  0
  125.4290  133.4820   60.2300 N   0  0  0  0  0  0  0  0  0  0  0  0
  126.1740  134.6130   60.5390 C   0  0  0  0  0  0  0  0  0  0  0  0
  125.8830  135.8680   60.2750 N   0  0  0  0  0  0  0  0  0  0  0  0
  126.8170  136.6870   60.7180 C   0  0  0  0  0  0  0  0  0  0  0  0
  127.9020  136.0930   61.3590 C   0  0  0  0  0  0  0  0  0  0  0  0
  127.6750  134.3700   61.3750 S   0  0  0  0  0  0  0  0  0  0  0  0
  1  2  3  0
  2  3  1  0
  3  4  2  0
  4  5  1  0
  5  6  1  0
  5  7  1  0
  5  8  1  0
  4  9  1  0
  9 10  2  0
 10 11  1  0
 11 12  2  0
 12 13  1  0
 13 14  2  0
 14 15  1  0
 15 16  2  0
 10 17  1  0
 17 18  2  0
 18 19  1  0
 19 20  1  0
 20 21  1  0
 21 22  2  0
 21 23  1  0
 23 24  1  0
 24 25  2  0
 25 26  1  0
 26 27  2  0
 27 28  1  0
 18  3  1  0
 28 24  1  0
 16 11  1  0
M  END
>  <Binding energies>  (30) 
[-6.13]

>  <Ligand effiencies>  (30) 
[-0.21137931034482757]

>  <Interactions>  (30) 
["V-B:GLU:543:CD:9880, V-A:GLU:543:CD:4908, V-B:ILE:369:CD1:8211, V-A:TYR:539:CE1:4875, V-A:PRO:540:CA:4883, V-A:ALA:541:CB:4892, V-A:TYR:539:CD1:4873, V-A:GLU:543:CG:4907, V-B:ILE:369:CG2:8209, V-B:ARG:545:CZ:9898, V-A:PRO:540:C:4881, V-B:LEU:475:CD2:9231, V-A:ALA:541:CA:4890, H-B:GLY:454:N:9022, H-B:ARG:545:NE:9896, H-B:TYR:484:OH:9320, V-A:TYR:539:C:4867, H-B:ARG:545:NH1:9899, V-B:HIS:456:CE1:9042, V-A:PRO:540:CB:4885, V-B:TYR:484:CZ:9319, V-B:PRO:482:CG:9299, V-B:PRO:482:CB:9298, H-B:ARG:545:NH2:9900, V-B:ILE:369:CB:8208, V-A:GLU:543:CB:4906, V-B:TYR:484:CE2:9318, V-A:GLU:543:CA:4904, V-A:PRO:540:N:4884, H-B:SER:385:OG:8382"]

$$$$
3ak_Grossjean_2025
     RDKit          3D

 33 34  0  0  0  0  0  0  0  0999 V2000
  124.5320  127.4090   74.5040 C   0  0  0  0  0  0  0  0  0  0  0  0
  125.9500  127.3800   74.5180 O   0  0  0  0  0  0  0  0  0  0  0  0
  126.5390  128.6380   74.8190 C   0  0  0  0  0  0  0  0  0  0  0  0
  128.0570  128.5380   74.6270 C   0  0  0  0  0  0  0  0  0  0  0  0
  128.3270  127.7150   73.4970 O   0  0  0  0  0  0  0  0  0  0  0  0
  129.5230  128.0220   72.7840 C   0  0  0  0  0  0  0  0  0  0  0  0
  129.4460  127.7050   71.2800 C   0  0  0  0  0  0  0  0  0  0  0  0
  130.2850  128.6060   70.5690 O   0  0  0  0  0  0  0  0  0  0  0  0
  130.2920  128.3990   69.1630 C   0  0  0  0  0  0  0  0  0  0  0  0
  128.9820  127.7240   68.7180 C   0  0  0  0  0  0  0  0  0  0  0  0
  128.7990  127.7010   67.2660 N   0  0  0  0  0  0  0  0  0  0  0  0
  128.4260  128.7440   66.5000 C   0  0  0  0  0  0  0  0  0  0  0  0
  128.2120  129.8660   66.9600 O   0  0  0  0  0  0  0  0  0  0  0  0
  128.2600  128.5290   64.9860 C   0  0  0  0  0  0  0  0  0  0  0  0
  126.6580  129.0360   64.2590 S   0  0  0  0  0  0  0  0  0  0  0  0
  126.9690  130.2060   62.9460 C   0  0  0  0  0  0  0  0  0  0  0  0
  128.2620  130.3160   62.5530 N   0  0  0  0  0  0  0  0  0  0  0  0
  128.6000  131.1840   61.5650 C   0  0  0  0  0  0  0  0  0  0  0  0
  130.0520  131.2400   61.1930 C   0  0  0  0  0  0  0  0  0  0  0  0
  130.4610  131.0410   59.8660 C   0  0  0  0  0  0  0  0  0  0  0  0
  131.8070  131.0950   59.5140 C   0  0  0  0  0  0  0  0  0  0  0  0
  132.7650  131.3530   60.4890 C   0  0  0  0  0  0  0  0  0  0  0  0
  132.3870  131.5580   61.8110 C   0  0  0  0  0  0  0  0  0  0  0  0
  131.0400  131.5030   62.1590 C   0  0  0  0  0  0  0  0  0  0  0  0
  127.6260  131.9620   60.9300 C   0  0  0  0  0  0  0  0  0  0  0  0
  126.2810  131.8660   61.3160 C   0  0  0  0  0  0  0  0  0  0  0  0
  125.2360  132.7410   60.5940 C   0  0  0  0  0  0  0  0  0  0  0  0
  124.4560  133.3510   61.4870 F   0  0  0  0  0  0  0  0  0  0  0  0
  125.8480  133.6650   59.8520 F   0  0  0  0  0  0  0  0  0  0  0  0
  124.4430  132.0370   59.7830 F   0  0  0  0  0  0  0  0  0  0  0  0
  125.9370  130.9660   62.3530 C   0  0  0  0  0  0  0  0  0  0  0  0
  124.5470  130.8250   62.7990 C   0  0  0  0  0  0  0  0  0  0  0  0
  123.4500  130.7140   63.1520 N   0  0  0  0  0  0  0  0  0  0  0  0
  1  2  1  0
  2  3  1  0
  3  4  1  0
  4  5  1  0
  5  6  1  0
  6  7  1  0
  7  8  1  0
  8  9  1  0
  9 10  1  0
 10 11  1  0
 11 12  1  0
 12 13  2  0
 12 14  1  0
 14 15  1  0
 15 16  1  0
 16 17  2  0
 17 18  1  0
 18 19  1  0
 19 20  2  0
 20 21  1  0
 21 22  2  0
 22 23  1  0
 23 24  2  0
 18 25  2  0
 25 26  1  0
 26 27  1  0
 27 28  1  0
 27 29  1  0
 27 30  1  0
 26 31  2  0
 31 32  1  0
 32 33  3  0
 31 16  1  0
 24 19  1  0
M  END
>  <Binding energies>  (31) 
[-6.28]

>  <Ligand effiencies>  (31) 
[-0.1847058823529412]

>  <Interactions>  (31) 
["H-B:GLU:543:OE2:9882, V-B:GLU:543:CD:9880, H-A:GLU:543:OE2:4910, V-A:GLU:543:CD:4908, V-B:ILE:369:CD1:8211, V-A:TYR:539:CE1:4875, V-A:PRO:540:CA:4883, V-A:ALA:541:CB:4892, V-A:TYR:539:CD1:4873, V-A:GLU:543:CG:4907, V-B:ILE:369:CG2:8209, V-B:LEU:475:CD2:9231, V-A:ALA:541:CA:4890, H-B:GLY:454:N:9022, H-B:TYR:484:OH:9320, V-A:ASN:362:CB:3176, V-B:HIS:456:CE1:9042, V-A:PRO:540:CB:4885, H-B:LYS:547:NZ:9923, V-B:LYS:547:CG:9920, V-B:HIS:456:CD2:9040, V-B:ARG:545:C:9889, V-A:HIS:456:CD2:4068, V-B:LYS:547:CD:9921, V-B:HIS:456:CG:9038, V-B:HIS:456:CB:9037, V-B:VAL:457:C:9045, V-A:HIS:456:CE1:4070, V-A:ALA:541:C:4888, V-A:GLU:543:CB:4906, V-A:GLU:543:CA:4904, V-A:GLU:543:C:4902"]

$$$$
3bk_Grossjean_2025
     RDKit          3D

 30 31  0  0  0  0  0  0  0  0999 V2000
  125.2730  123.2810   61.7660 C   0  0  0  0  0  0  0  0  0  0  0  0
  126.3110  122.6820   62.5270 O   0  0  0  0  0  0  0  0  0  0  0  0
  127.5190  122.5090   61.7980 C   0  0  0  0  0  0  0  0  0  0  0  0
  128.7120  122.9150   62.6750 C   0  0  0  0  0  0  0  0  0  0  0  0
  129.8860  122.2730   62.1990 O   0  0  0  0  0  0  0  0  0  0  0  0
  129.7560  120.8640   62.0620 C   0  0  0  0  0  0  0  0  0  0  0  0
  130.5340  120.4010   60.8240 C   0  0  0  0  0  0  0  0  0  0  0  0
  131.3220  121.4760   60.3330 O   0  0  0  0  0  0  0  0  0  0  0  0
  132.7220  121.2840   60.4930 C   0  0  0  0  0  0  0  0  0  0  0  0
  133.3720  122.6030   60.9350 C   0  0  0  0  0  0  0  0  0  0  0  0
  132.4120  123.5150   61.5600 N   0  0  0  0  0  0  0  0  0  0  0  0
  132.7100  124.4570   62.4710 C   0  0  0  0  0  0  0  0  0  0  0  0
  133.8520  124.6770   62.8780 O   0  0  0  0  0  0  0  0  0  0  0  0
  131.5420  125.3010   62.9860 C   0  0  0  0  0  0  0  0  0  0  0  0
  131.0940  126.6270   61.8220 S   0  0  0  0  0  0  0  0  0  0  0  0
  129.3790  126.4400   61.3610 C   0  0  0  0  0  0  0  0  0  0  0  0
  128.5040  127.2710   61.9820 N   0  0  0  0  0  0  0  0  0  0  0  0
  127.1770  127.1980   61.6970 C   0  0  0  0  0  0  0  0  0  0  0  0
  126.2830  128.1660   62.4120 C   0  0  0  0  0  0  0  0  0  0  0  0
  125.3440  128.9330   61.7040 C   0  0  0  0  0  0  0  0  0  0  0  0
  124.5150  129.8370   62.3630 C   0  0  0  0  0  0  0  0  0  0  0  0
  124.6130  129.9860   63.7420 C   0  0  0  0  0  0  0  0  0  0  0  0
  125.5330  129.2350   64.4670 C   0  0  0  0  0  0  0  0  0  0  0  0
  126.3590  128.3310   63.8050 C   0  0  0  0  0  0  0  0  0  0  0  0
  126.6950  126.2770   60.7600 C   0  0  0  0  0  0  0  0  0  0  0  0
  127.5830  125.4120   60.1110 C   0  0  0  0  0  0  0  0  0  0  0  0
  127.0140  124.4210   59.0960 C   0  0  0  0  0  0  0  0  0  0  0  0
  128.9600  125.4850   60.4100 C   0  0  0  0  0  0  0  0  0  0  0  0
  129.9130  124.5940   59.7440 C   0  0  0  0  0  0  0  0  0  0  0  0
  130.6660  123.8890   59.2180 N   0  0  0  0  0  0  0  0  0  0  0  0
  1  2  1  0
  2  3  1  0
  3  4  1  0
  4  5  1  0
  5  6  1  0
  6  7  1  0
  7  8  1  0
  8  9  1  0
  9 10  1  0
 10 11  1  0
 11 12  1  0
 12 13  2  0
 12 14  1  0
 14 15  1  0
 15 16  1  0
 16 17  2  0
 17 18  1  0
 18 19  1  0
 19 20  2  0
 20 21  1  0
 21 22  2  0
 22 23  1  0
 23 24  2  0
 18 25  2  0
 25 26  1  0
 26 27  1  0
 26 28  2  0
 28 29  1  0
 29 30  3  0
 28 16  1  0
 24 19  1  0
M  END
>  <Binding energies>  (32) 
[-5.39]

>  <Ligand effiencies>  (32) 
[-0.17387096774193547]

>  <Interactions>  (32) 
["V-B:ALA:541:CB:9864, V-B:TYR:539:CD2:9846, V-B:GLU:543:CG:9879, V-A:TYR:484:CE1:4345, V-A:LEU:475:CD2:4259, V-B:GLU:543:CD:9880, V-A:ILE:369:CG2:3237, V-B:TYR:539:CE2:9848, V-B:PRO:540:C:9853, V-B:PRO:540:CA:9855, H-A:TYR:484:OH:4348, V-B:ARG:545:CZ:9898, V-A:ILE:369:CD1:3239, V-B:ASP:366:CG:8185, H-B:ALA:541:N:9863, H-A:GLY:454:N:4050, V-B:PRO:540:CB:9857, H-A:ARG:545:NH2:4928"]

$$$$
3cb_Grossjean_2025
     RDKit          3D

 30 32  0  0  0  0  0  0  0  0999 V2000
  128.2390  128.5120   74.1370 C   0  0  0  0  0  0  0  0  0  0  0  0
  128.3480  127.4350   73.2190 O   0  0  0  0  0  0  0  0  0  0  0  0
  129.4970  127.2190   72.5280 C   0  0  0  0  0  0  0  0  0  0  0  0
  130.5580  126.8800   73.0600 O   0  0  0  0  0  0  0  0  0  0  0  0
  129.3490  127.4350   71.0490 C   0  0  0  0  0  0  0  0  0  0  0  0
  130.1600  128.3380   70.3440 C   0  0  0  0  0  0  0  0  0  0  0  0
  129.9980  128.5130   68.9730 C   0  0  0  0  0  0  0  0  0  0  0  0
  129.0230  127.7970   68.2770 C   0  0  0  0  0  0  0  0  0  0  0  0
  128.9500  128.0500   66.8930 N   0  0  0  0  0  0  0  0  0  0  0  0
  127.9600  128.6100   66.1650 C   0  0  0  0  0  0  0  0  0  0  0  0
  126.8990  129.0350   66.6250 O   0  0  0  0  0  0  0  0  0  0  0  0
  128.2540  128.7080   64.6600 C   0  0  0  0  0  0  0  0  0  0  0  0
  126.9170  129.4490   63.6610 S   0  0  0  0  0  0  0  0  0  0  0  0
  127.6330  130.7400   62.6660 C   0  0  0  0  0  0  0  0  0  0  0  0
  128.8830  130.4540   62.2290 N   0  0  0  0  0  0  0  0  0  0  0  0
  129.5260  131.3630   61.4620 C   0  0  0  0  0  0  0  0  0  0  0  0
  130.9160  130.9710   60.9990 C   0  0  0  0  0  0  0  0  0  0  0  0
  128.9570  132.5830   61.1090 C   0  0  0  0  0  0  0  0  0  0  0  0
  127.6720  132.9080   61.5630 C   0  0  0  0  0  0  0  0  0  0  0  0
  127.1070  134.2320   61.1620 C   0  0  0  0  0  0  0  0  0  0  0  0
  127.8470  135.4040   61.3630 C   0  0  0  0  0  0  0  0  0  0  0  0
  127.3340  136.6410   60.9830 C   0  0  0  0  0  0  0  0  0  0  0  0
  126.0750  136.7120   60.3930 C   0  0  0  0  0  0  0  0  0  0  0  0
  125.3280  135.5570   60.1790 C   0  0  0  0  0  0  0  0  0  0  0  0
  125.8450  134.3210   60.5580 C   0  0  0  0  0  0  0  0  0  0  0  0
  126.9880  131.9700   62.3800 C   0  0  0  0  0  0  0  0  0  0  0  0
  125.6810  132.2950   62.9590 C   0  0  0  0  0  0  0  0  0  0  0  0
  124.6500  132.5510   63.4160 N   0  0  0  0  0  0  0  0  0  0  0  0
  128.2110  126.8890   68.9730 C   0  0  0  0  0  0  0  0  0  0  0  0
  128.3740  126.7140   70.3450 C   0  0  0  0  0  0  0  0  0  0  0  0
  1  2  1  0
  2  3  1  0
  3  4  2  0
  3  5  1  0
  5  6  2  0
  6  7  1  0
  7  8  2  0
  8  9  1  0
  9 10  1  0
 10 11  2  0
 10 12  1  0
 12 13  1  0
 13 14  1  0
 14 15  2  0
 15 16  1  0
 16 17  1  0
 16 18  2  0
 18 19  1  0
 19 20  1  0
 20 21  2  0
 21 22  1  0
 22 23  2  0
 23 24  1  0
 24 25  2  0
 19 26  2  0
 26 27  1  0
 27 28  3  0
  8 29  1  0
 29 30  2  0
 30  5  1  0
 26 14  1  0
 25 20  1  0
M  END
>  <Binding energies>  (33) 
[-8.06]

>  <Ligand effiencies>  (33) 
[-0.26]

>  <Interactions>  (33) 
["H-B:GLU:543:OE2:9882, V-B:GLU:543:CD:9880, H-A:GLU:543:OE2:4910, V-A:GLU:543:CD:4908, H-A:GLU:543:OE1:4909, V-A:TYR:539:CE1:4875, V-A:PRO:540:CA:4883, V-A:ALA:541:CB:4892, V-A:TYR:539:CD1:4873, V-A:GLU:543:CG:4907, V-A:PRO:540:C:4881, V-B:LEU:475:CD2:9231, V-A:ALA:541:CA:4890, H-B:GLY:454:N:9022, H-B:TYR:484:OH:9320, V-B:HIS:456:CE1:9042, H-B:LYS:547:NZ:9923, V-B:HIS:456:CD2:9040, V-A:HIS:456:CD2:4068, V-A:GLY:544:C:4912, V-B:GLU:543:CB:9878, V-B:PRO:482:CG:9299, V-B:PRO:482:CB:9298, V-A:HIS:456:CE1:4070, V-A:GLU:543:CB:4906, V-A:GLU:543:CA:4904, V-A:GLU:543:C:4902, V-A:GLY:544:CA:4914"]

$$$$
3ch_Grossjean_2025
     RDKit          3D

 32 34  0  0  0  0  0  0  0  0999 V2000
  124.3040  130.0730   59.9560 C   0  0  0  0  0  0  0  0  0  0  0  0
  125.4150  130.5290   60.7210 O   0  0  0  0  0  0  0  0  0  0  0  0
  125.7060  129.9250   61.9310 C   0  0  0  0  0  0  0  0  0  0  0  0
  126.8230  129.1030   62.1500 C   0  0  0  0  0  0  0  0  0  0  0  0
  127.0590  128.5320   63.4080 C   0  0  0  0  0  0  0  0  0  0  0  0
  128.1510  127.7010   63.7240 N   0  0  0  0  0  0  0  0  0  0  0  0
  128.9300  126.9540   62.9120 C   0  0  0  0  0  0  0  0  0  0  0  0
  128.8200  126.8770   61.6880 O   0  0  0  0  0  0  0  0  0  0  0  0
  130.0570  126.1860   63.6030 C   0  0  0  0  0  0  0  0  0  0  0  0
  131.0880  125.2680   62.4200 S   0  0  0  0  0  0  0  0  0  0  0  0
  130.1430  123.8370   61.9480 C   0  0  0  0  0  0  0  0  0  0  0  0
  128.8080  124.0620   61.8640 N   0  0  0  0  0  0  0  0  0  0  0  0
  128.0000  123.0340   61.5190 C   0  0  0  0  0  0  0  0  0  0  0  0
  126.5190  123.3540   61.4490 C   0  0  0  0  0  0  0  0  0  0  0  0
  128.4830  121.7570   61.2490 C   0  0  0  0  0  0  0  0  0  0  0  0
  129.8610  121.5050   61.3240 C   0  0  0  0  0  0  0  0  0  0  0  0
  130.3330  120.1170   61.0360 C   0  0  0  0  0  0  0  0  0  0  0  0
  129.6780  119.0190   61.6060 C   0  0  0  0  0  0  0  0  0  0  0  0
  130.1170  117.7220   61.3490 C   0  0  0  0  0  0  0  0  0  0  0  0
  131.2190  117.5200   60.5210 C   0  0  0  0  0  0  0  0  0  0  0  0
  131.8850  118.6010   59.9520 C   0  0  0  0  0  0  0  0  0  0  0  0
  131.4430  119.8960   60.2120 C   0  0  0  0  0  0  0  0  0  0  0  0
  130.7230  122.5780   61.6650 C   0  0  0  0  0  0  0  0  0  0  0  0
  132.1780  122.3960   61.6650 C   0  0  0  0  0  0  0  0  0  0  0  0
  133.3270  122.2530   61.6670 N   0  0  0  0  0  0  0  0  0  0  0  0
  126.1560  128.7730   64.4450 C   0  0  0  0  0  0  0  0  0  0  0  0
  125.0310  129.5890   64.2500 C   0  0  0  0  0  0  0  0  0  0  0  0
  124.1020  129.8730   65.2360 O   0  0  0  0  0  0  0  0  0  0  0  0
  124.2970  129.3610   66.5500 C   0  0  0  0  0  0  0  0  0  0  0  0
  124.8160  130.1570   62.9880 C   0  0  0  0  0  0  0  0  0  0  0  0
  123.7270  130.9720   62.7890 O   0  0  0  0  0  0  0  0  0  0  0  0
  124.0550  132.3440   62.6100 C   0  0  0  0  0  0  0  0  0  0  0  0
  1  2  1  0
  2  3  1  0
  3  4  2  0
  4  5  1  0
  5  6  1  0
  6  7  1  0
  7  8  2  0
  7  9  1  0
  9 10  1  0
 10 11  1  0
 11 12  2  0
 12 13  1  0
 13 14  1  0
 13 15  2  0
 15 16  1  0
 16 17  1  0
 17 18  2  0
 18 19  1  0
 19 20  2  0
 20 21  1  0
 21 22  2  0
 16 23  2  0
 23 24  1  0
 24 25  3  0
  5 26  2  0
 26 27  1  0
 27 28  1  0
 28 29  1  0
 27 30  2  0
 30 31  1  0
 31 32  1  0
 30  3  1  0
 23 11  1  0
 22 17  1  0
M  END
>  <Binding energies>  (34) 
[-7.98]

>  <Ligand effiencies>  (34) 
[-0.24181818181818182]

>  <Interactions>  (34) 
["V-B:ALA:541:CB:9864, V-B:TYR:539:CD2:9846, H-B:GLU:543:OE2:9882, V-A:PRO:482:CG:4327, V-A:PRO:482:CB:4326, V-B:TYR:539:C:9839, V-A:LEU:475:CD1:4258, V-A:LEU:475:CD2:4259, V-B:GLU:543:CD:9880, V-A:SER:385:CB:3409, H-B:GLU:543:OE1:9881, V-B:TYR:539:CE2:9848, H-A:GLU:543:OE2:4910, V-A:GLU:543:CD:4908, V-B:PRO:540:C:9853, V-B:PRO:540:CA:9855, H-A:GLU:543:OE1:4909, H-A:TYR:484:OH:4348, V-B:ILE:369:CD1:8211, V-B:ARG:545:CZ:9898, V-B:LEU:475:CD2:9231, H-B:GLY:454:N:9022, H-B:TYR:484:OH:9320, V-B:GLY:454:CA:9021, V-B:ARG:545:CD:9895, V-B:HIS:456:CE1:9042, V-B:ARG:545:CG:9894, V-A:LEU:475:CG:4257, V-B:TYR:484:CE1:9317, V-B:TYR:484:CZ:9319, V-B:ASP:366:CG:8185, V-B:ASP:366:CA:8182, V-B:ASP:366:CB:8184, H-A:GLY:454:N:4050, V-B:PRO:540:CB:9857"]

$$$$
3ci_Grossjean_2025
     RDKit          3D

 25 27  0  0  0  0  0  0  0  0999 V2000
  134.2110  124.0590   60.9090 C   0  0  0  0  0  0  0  0  0  0  0  0
  132.7730  123.5770   60.8920 C   0  0  0  0  0  0  0  0  0  0  0  0
  132.4570  122.2210   60.9070 C   0  0  0  0  0  0  0  0  0  0  0  0
  131.1120  121.8240   60.9070 C   0  0  0  0  0  0  0  0  0  0  0  0
  130.8200  120.3590   60.9400 C   0  0  0  0  0  0  0  0  0  0  0  0
  129.7830  119.8530   61.7330 C   0  0  0  0  0  0  0  0  0  0  0  0
  129.5200  118.4860   61.7670 C   0  0  0  0  0  0  0  0  0  0  0  0
  130.3000  117.6170   61.0090 C   0  0  0  0  0  0  0  0  0  0  0  0
  131.3400  118.1030   60.2220 C   0  0  0  0  0  0  0  0  0  0  0  0
  131.6000  119.4700   60.1910 C   0  0  0  0  0  0  0  0  0  0  0  0
  130.1120  122.8300   60.8800 C   0  0  0  0  0  0  0  0  0  0  0  0
  128.6900  122.4740   60.8350 C   0  0  0  0  0  0  0  0  0  0  0  0
  127.5680  122.1910   60.8010 N   0  0  0  0  0  0  0  0  0  0  0  0
  130.5220  124.1850   60.8710 C   0  0  0  0  0  0  0  0  0  0  0  0
  129.3470  125.5330   60.8580 S   0  0  0  0  0  0  0  0  0  0  0  0
  129.3340  126.3440   62.4910 C   0  0  0  0  0  0  0  0  0  0  0  0
  130.2240  125.6440   63.5240 C   0  0  0  0  0  0  0  0  0  0  0  0
  129.7510  124.7330   64.2070 O   0  0  0  0  0  0  0  0  0  0  0  0
  131.4900  126.1060   63.6170 N   0  0  0  0  0  0  0  0  0  0  0  0
  132.4990  125.6340   64.4450 C   0  0  0  0  0  0  0  0  0  0  0  0
  132.4000  125.6260   65.8360 C   0  0  0  0  0  0  0  0  0  0  0  0
  133.5900  125.0920   66.2770 C   0  0  0  0  0  0  0  0  0  0  0  0
  134.3640  124.7930   65.2050 O   0  0  0  0  0  0  0  0  0  0  0  0
  133.6620  125.1420   64.0510 N   0  0  0  0  0  0  0  0  0  0  0  0
  131.8310  124.5450   60.8700 N   0  0  0  0  0  0  0  0  0  0  0  0
  1  2  1  0
  2  3  2  0
  3  4  1  0
  4  5  1  0
  5  6  2  0
  6  7  1  0
  7  8  2  0
  8  9  1  0
  9 10  2  0
  4 11  2  0
 11 12  1  0
 12 13  3  0
 11 14  1  0
 14 15  1  0
 15 16  1  0
 16 17  1  0
 17 18  2  0
 17 19  1  0
 19 20  1  0
 20 21  1  0
 21 22  2  0
 22 23  1  0
 23 24  1  0
 14 25  2  0
 25  2  1  0
 10  5  1  0
 24 20  2  0
M  END
>  <Binding energies>  (35) 
[-7.44]

>  <Ligand effiencies>  (35) 
[-0.28615384615384615]

>  <Interactions>  (35) 
["V-B:ALA:541:CB:9864, V-B:TYR:539:CD2:9846, V-A:TYR:484:CZ:4347, V-A:PRO:482:CG:4327, V-A:PRO:482:CB:4326, V-A:LEU:475:CD1:4258, V-A:LEU:475:CD2:4259, V-B:GLU:543:CD:9880, V-A:SER:385:CB:3409, V-B:TYR:539:CE2:9848, H-A:GLU:543:OE2:4910, V-A:GLU:543:CD:4908, V-B:PRO:540:CA:9855, H-A:GLU:543:OE1:4909, V-A:ARG:545:CZ:4926, H-A:TYR:484:OH:4348, V-A:ASP:366:CG:3213, V-A:LEU:475:CG:4257, V-A:ILE:369:CD1:3239, H-B:ALA:541:N:9863, V-A:ARG:545:CG:4922, H-A:GLY:454:N:4050, V-A:ARG:545:CD:4923, H-A:ARG:545:NE:4924, V-A:ILE:455:C:4052, V-A:TYR:484:CE2:4346, V-A:HIS:456:CE1:4070, H-A:ARG:545:NH1:4927, H-A:ARG:545:NH2:4928, H-A:ILE:455:N:4055"]

$$$$
3ck_Grossjean_2025
     RDKit          3D

 30 31  0  0  0  0  0  0  0  0999 V2000
  124.0590  130.0290   62.7290 C   0  0  0  0  0  0  0  0  0  0  0  0
  124.4980  129.9590   64.0770 O   0  0  0  0  0  0  0  0  0  0  0  0
  125.6520  129.1490   64.2550 C   0  0  0  0  0  0  0  0  0  0  0  0
  126.4560  129.1070   62.9490 C   0  0  0  0  0  0  0  0  0  0  0  0
  126.4460  127.7820   62.4330 O   0  0  0  0  0  0  0  0  0  0  0  0
  127.1820  127.6270   61.2270 C   0  0  0  0  0  0  0  0  0  0  0  0
  128.6750  127.5240   61.5600 C   0  0  0  0  0  0  0  0  0  0  0  0
  128.8750  126.3730   62.3670 O   0  0  0  0  0  0  0  0  0  0  0  0
  129.4820  126.6250   63.6250 C   0  0  0  0  0  0  0  0  0  0  0  0
  130.5110  125.5210   63.9310 C   0  0  0  0  0  0  0  0  0  0  0  0
  131.5240  125.3510   62.8850 N   0  0  0  0  0  0  0  0  0  0  0  0
  132.8260  125.0840   63.0900 C   0  0  0  0  0  0  0  0  0  0  0  0
  133.3150  124.9240   64.2110 O   0  0  0  0  0  0  0  0  0  0  0  0
  133.6880  124.9810   61.8220 C   0  0  0  0  0  0  0  0  0  0  0  0
  132.7670  125.0020   60.2450 S   0  0  0  0  0  0  0  0  0  0  0  0
  131.4040  123.8510   60.3490 C   0  0  0  0  0  0  0  0  0  0  0  0
  130.1660  124.4010   60.2720 N   0  0  0  0  0  0  0  0  0  0  0  0
  129.0880  123.5890   60.3480 C   0  0  0  0  0  0  0  0  0  0  0  0
  127.7390  124.2750   60.2580 C   0  0  0  0  0  0  0  0  0  0  0  0
  129.1970  122.2090   60.5020 C   0  0  0  0  0  0  0  0  0  0  0  0
  130.4660  121.6200   60.5900 C   0  0  0  0  0  0  0  0  0  0  0  0
  130.5340  120.1400   60.7780 C   0  0  0  0  0  0  0  0  0  0  0  0
  129.6680  119.5050   61.6760 C   0  0  0  0  0  0  0  0  0  0  0  0
  129.7330  118.1260   61.8640 C   0  0  0  0  0  0  0  0  0  0  0  0
  130.6700  117.3780   61.1590 C   0  0  0  0  0  0  0  0  0  0  0  0
  131.5450  117.9960   60.2680 C   0  0  0  0  0  0  0  0  0  0  0  0
  131.4770  119.3740   60.0820 C   0  0  0  0  0  0  0  0  0  0  0  0
  131.6060  122.4600   60.4990 C   0  0  0  0  0  0  0  0  0  0  0  0
  132.9590  121.8940   60.5430 C   0  0  0  0  0  0  0  0  0  0  0  0
  134.0260  121.4470   60.5760 N   0  0  0  0  0  0  0  0  0  0  0  0
  1  2  1  0
  2  3  1  0
  3  4  1  0
  4  5  1  0
  5  6  1  0
  6  7  1  0
  7  8  1  0
  8  9  1  0
  9 10  1  0
 10 11  1  0
 11 12  1  0
 12 13  2  0
 12 14  1  0
 14 15  1  0
 15 16  1  0
 16 17  2  0
 17 18  1  0
 18 19  1  0
 18 20  2  0
 20 21  1  0
 21 22  1  0
 22 23  2  0
 23 24  1  0
 24 25  2  0
 25 26  1  0
 26 27  2  0
 21 28  2  0
 28 29  1  0
 29 30  3  0
 28 16  1  0
 27 22  1  0
M  END
>  <Binding energies>  (36) 
[-5.09]

>  <Ligand effiencies>  (36) 
[-0.16419354838709677]

>  <Interactions>  (36) 
["V-B:ALA:541:CB:9864, V-B:TYR:539:CD2:9846, V-A:TYR:484:CZ:4347, V-A:PRO:482:CG:4327, V-A:PRO:482:CB:4326, V-A:LEU:475:CD1:4258, V-A:LEU:475:CD2:4259, V-B:GLU:543:CD:9880, V-A:SER:385:CB:3409, V-A:ILE:369:CG2:3237, V-B:TYR:539:CE2:9848, V-A:GLU:543:CD:4908, V-A:ARG:545:CZ:4926, H-A:TYR:484:OH:4348, V-B:ARG:545:CZ:9898, H-B:GLY:454:N:9022, H-B:TYR:484:OH:9320, V-A:ASP:366:CG:3213, V-A:LEU:475:CG:4257, H-B:ARG:545:NH2:9900, H-A:GLY:454:N:4050, H-A:ARG:545:NE:4924, H-A:ARG:545:NH2:4928"]

$$$$
4aa_Grossjean_2025
     RDKit          3D

 26 28  0  0  0  0  0  0  0  0999 V2000
  130.8260  117.6190   60.7640 C   0  0  0  0  0  0  0  0  0  0  0  0
  129.6250  118.3020   61.4270 C   0  0  0  0  0  0  0  0  0  0  0  0
  130.0240  119.5650   61.9410 O   0  0  0  0  0  0  0  0  0  0  0  0
  130.4710  120.5480   61.1170 C   0  0  0  0  0  0  0  0  0  0  0  0
  131.4290  120.4100   60.3500 O   0  0  0  0  0  0  0  0  0  0  0  0
  129.6860  121.8230   61.2350 C   0  0  0  0  0  0  0  0  0  0  0  0
  130.2510  123.0190   60.7750 C   0  0  0  0  0  0  0  0  0  0  0  0
  129.5510  124.2180   60.8740 C   0  0  0  0  0  0  0  0  0  0  0  0
  128.2700  124.2450   61.4260 C   0  0  0  0  0  0  0  0  0  0  0  0
  127.6560  125.5110   61.4860 N   0  0  0  0  0  0  0  0  0  0  0  0
  127.7520  126.5690   60.6440 C   0  0  0  0  0  0  0  0  0  0  0  0
  128.4770  126.5980   59.6490 O   0  0  0  0  0  0  0  0  0  0  0  0
  126.9370  127.7300   61.0050 C   0  0  0  0  0  0  0  0  0  0  0  0
  126.4770  128.9120   59.7760 S   0  0  0  0  0  0  0  0  0  0  0  0
  125.6420  129.8890   60.9620 C   0  0  0  0  0  0  0  0  0  0  0  0
  125.0240  131.0240   60.6310 N   0  0  0  0  0  0  0  0  0  0  0  0
  124.4180  131.6890   61.6460 C   0  0  0  0  0  0  0  0  0  0  0  0
  123.7250  132.9800   61.2500 C   0  0  0  0  0  0  0  0  0  0  0  0
  124.4130  131.2480   62.9670 C   0  0  0  0  0  0  0  0  0  0  0  0
  125.0610  130.0560   63.3100 C   0  0  0  0  0  0  0  0  0  0  0  0
  125.0280  129.6160   64.7660 C   0  0  0  0  0  0  0  0  0  0  0  0
  125.7120  129.3330   62.2740 C   0  0  0  0  0  0  0  0  0  0  0  0
  126.4600  128.1040   62.2710 C   0  0  0  0  0  0  0  0  0  0  0  0
  126.6730  127.3750   63.4140 N   0  0  0  0  0  0  0  0  0  0  0  0
  127.6970  123.0540   61.8940 C   0  0  0  0  0  0  0  0  0  0  0  0
  128.4010  121.8550   61.7970 C   0  0  0  0  0  0  0  0  0  0  0  0
  1  2  1  0
  2  3  1  0
  3  4  1  0
  4  5  2  0
  4  6  1  0
  6  7  2  0
  7  8  1  0
  8  9  2  0
  9 10  1  0
 10 11  1  0
 11 12  2  0
 11 13  1  0
 13 14  1  0
 14 15  1  0
 15 16  2  0
 16 17  1  0
 17 18  1  0
 17 19  2  0
 19 20  1  0
 20 21  1  0
 20 22  2  0
 22 23  1  0
 23 24  1  0
  9 25  1  0
 25 26  2  0
 26  6  1  0
 23 13  2  0
 22 15  1  0
M  END
>  <Binding energies>  (37) 
[-5.89]

>  <Ligand effiencies>  (37) 
[-0.20310344827586205]

>  <Interactions>  (37) 
["V-B:ALA:541:CB:9864, V-B:TYR:539:CD2:9846, H-B:GLU:543:OE2:9882, V-A:PRO:482:CG:4327, V-A:PRO:482:CB:4326, V-B:TYR:539:C:9839, V-A:LEU:475:CD1:4258, V-A:LEU:475:CD2:4259, V-B:GLU:543:CD:9880, V-A:SER:385:CB:3409, H-B:GLU:543:OE1:9881, V-B:PRO:540:C:9853, V-B:ALA:541:CA:9862, V-B:PRO:540:CA:9855, V-B:ILE:369:CD1:8211, V-B:ILE:369:CG2:8209, V-B:ARG:545:CZ:9898, V-B:GLY:454:CA:9021, V-A:LEU:475:CG:4257"]

$$$$
4ab_Grossjean_2025
     RDKit          3D

 25 27  0  0  0  0  0  0  0  0999 V2000
  124.2920  129.5860   66.2720 C   0  0  0  0  0  0  0  0  0  0  0  0
  123.7530  129.8890   64.9930 O   0  0  0  0  0  0  0  0  0  0  0  0
  124.5400  130.3800   64.0010 C   0  0  0  0  0  0  0  0  0  0  0  0
  124.4810  131.5470   63.6000 O   0  0  0  0  0  0  0  0  0  0  0  0
  125.4850  129.3600   63.4350 C   0  0  0  0  0  0  0  0  0  0  0  0
  126.5580  128.9130   64.2180 C   0  0  0  0  0  0  0  0  0  0  0  0
  127.4520  127.9690   63.7200 C   0  0  0  0  0  0  0  0  0  0  0  0
  127.2890  127.4480   62.4360 C   0  0  0  0  0  0  0  0  0  0  0  0
  128.2550  126.5070   62.0330 N   0  0  0  0  0  0  0  0  0  0  0  0
  129.0450  126.4830   60.9320 C   0  0  0  0  0  0  0  0  0  0  0  0
  129.0060  127.3240   60.0330 O   0  0  0  0  0  0  0  0  0  0  0  0
  129.9680  125.3490   60.8500 C   0  0  0  0  0  0  0  0  0  0  0  0
  129.3990  123.7760   60.2860 S   0  0  0  0  0  0  0  0  0  0  0  0
  130.9780  123.0650   60.5260 C   0  0  0  0  0  0  0  0  0  0  0  0
  131.2230  121.7820   60.2580 N   0  0  0  0  0  0  0  0  0  0  0  0
  132.4880  121.3560   60.4900 C   0  0  0  0  0  0  0  0  0  0  0  0
  132.7440  119.8920   60.1840 C   0  0  0  0  0  0  0  0  0  0  0  0
  133.5050  122.1750   60.9760 C   0  0  0  0  0  0  0  0  0  0  0  0
  133.2450  123.5210   61.2570 C   0  0  0  0  0  0  0  0  0  0  0  0
  134.3870  124.3750   61.7870 C   0  0  0  0  0  0  0  0  0  0  0  0
  131.9280  124.0040   61.0300 C   0  0  0  0  0  0  0  0  0  0  0  0
  131.3240  125.2970   61.2110 C   0  0  0  0  0  0  0  0  0  0  0  0
  132.0280  126.3720   61.6920 N   0  0  0  0  0  0  0  0  0  0  0  0
  126.2210  127.8930   61.6430 C   0  0  0  0  0  0  0  0  0  0  0  0
  125.3290  128.8390   62.1410 C   0  0  0  0  0  0  0  0  0  0  0  0
  1  2  1  0
  2  3  1  0
  3  4  2  0
  3  5  1  0
  5  6  2  0
  6  7  1  0
  7  8  2  0
  8  9  1  0
  9 10  1  0
 10 11  2  0
 10 12  1  0
 12 13  1  0
 13 14  1  0
 14 15  2  0
 15 16  1  0
 16 17  1  0
 16 18  2  0
 18 19  1  0
 19 20  1  0
 19 21  2  0
 21 22  1  0
 22 23  1  0
  8 24  1  0
 24 25  2  0
 25  5  1  0
 22 12  2  0
 21 14  1  0
M  END
>  <Binding energies>  (38) 
[-5.74]

>  <Ligand effiencies>  (38) 
[-0.20500000000000002]

>  <Interactions>  (38) 
["V-B:TYR:539:CD2:9846, H-B:GLU:543:OE2:9882, V-A:LEU:475:CD2:4259, V-B:GLU:543:CD:9880, V-A:SER:385:CB:3409, H-B:GLU:543:OE1:9881, V-A:ILE:369:CG2:3237, V-B:TYR:539:CE2:9848, H-A:GLU:543:OE2:4910, V-A:SER:385:CA:3407, H-A:GLU:543:OE1:4909, V-A:ARG:545:CZ:4926, V-B:ARG:545:CZ:9898, H-B:GLY:454:N:9022, H-B:TYR:484:OH:9320, V-B:GLY:454:CA:9021, V-B:ARG:545:CD:9895, H-B:ARG:545:NH1:9899, V-B:HIS:456:CE1:9042, V-B:ARG:545:CG:9894, H-A:ASP:366:OD1:3214, V-A:ASP:366:CG:3213, V-A:ILE:369:CD1:3239, V-A:GLY:453:CA:4044, V-A:GLY:453:C:4042, V-B:TYR:484:CE1:9317, H-A:ASP:366:OD2:3215, V-B:TYR:484:CZ:9319, V-B:ASP:366:CG:8185"]

$$$$
4ac_Grossjean_2025
     RDKit          3D

 23 25  0  0  0  0  0  0  0  0999 V2000
  123.4080  129.6310   67.3870 C   0  0  0  0  0  0  0  0  0  0  0  0
  123.6020  130.0530   66.0410 O   0  0  0  0  0  0  0  0  0  0  0  0
  124.5980  129.4660   65.2860 C   0  0  0  0  0  0  0  0  0  0  0  0
  125.5900  128.7830   65.9890 C   0  0  0  0  0  0  0  0  0  0  0  0
  126.6350  128.1590   65.3130 C   0  0  0  0  0  0  0  0  0  0  0  0
  126.6960  128.2020   63.9200 C   0  0  0  0  0  0  0  0  0  0  0  0
  127.7950  127.5540   63.3250 N   0  0  0  0  0  0  0  0  0  0  0  0
  127.8680  126.9060   62.1380 C   0  0  0  0  0  0  0  0  0  0  0  0
  126.9110  126.7530   61.3760 O   0  0  0  0  0  0  0  0  0  0  0  0
  129.1870  126.3690   61.7960 C   0  0  0  0  0  0  0  0  0  0  0  0
  129.5960  126.0070   60.1180 S   0  0  0  0  0  0  0  0  0  0  0  0
  131.1930  125.4590   60.5750 C   0  0  0  0  0  0  0  0  0  0  0  0
  132.0720  125.0170   59.6760 N   0  0  0  0  0  0  0  0  0  0  0  0
  133.2730  124.6210   60.1610 C   0  0  0  0  0  0  0  0  0  0  0  0
  134.2590  124.1220   59.1220 C   0  0  0  0  0  0  0  0  0  0  0  0
  133.6120  124.6560   61.5130 C   0  0  0  0  0  0  0  0  0  0  0  0
  132.6870  125.1200   62.4550 C   0  0  0  0  0  0  0  0  0  0  0  0
  133.1040  125.1390   63.9180 C   0  0  0  0  0  0  0  0  0  0  0  0
  131.4170  125.5460   61.9820 C   0  0  0  0  0  0  0  0  0  0  0  0
  130.2580  126.0700   62.6540 C   0  0  0  0  0  0  0  0  0  0  0  0
  130.2210  126.2510   64.0130 N   0  0  0  0  0  0  0  0  0  0  0  0
  125.7090  128.8980   63.2060 C   0  0  0  0  0  0  0  0  0  0  0  0
  124.6660  129.5210   63.8860 C   0  0  0  0  0  0  0  0  0  0  0  0
  1  2  1  0
  2  3  1  0
  3  4  2  0
  4  5  1  0
  5  6  2  0
  6  7  1  0
  7  8  1  0
  8  9  2  0
  8 10  1  0
 10 11  1  0
 11 12  1  0
 12 13  2  0
 13 14  1  0
 14 15  1  0
 14 16  2  0
 16 17  1  0
 17 18  1  0
 17 19  2  0
 19 20  1  0
 20 21  1  0
  6 22  1  0
 22 23  2  0
 23  3  1  0
 20 10  2  0
 19 12  1  0
M  END
>  <Binding energies>  (39) 
[-5.97]

>  <Ligand effiencies>  (39) 
[-0.2296153846153846]

>  <Interactions>  (39) 
["V-A:TYR:484:CZ:4347, H-B:GLU:543:OE2:9882, V-B:GLU:543:CD:9880, H-B:GLU:543:OE1:9881, V-A:ILE:369:CG2:3237, H-A:GLU:543:OE2:4910, V-A:GLU:543:CD:4908, H-A:GLU:543:OE1:4909, V-A:ARG:545:CZ:4926, H-A:TYR:484:OH:4348, V-B:ARG:545:CZ:9898, H-B:GLY:454:N:9022, H-B:TYR:484:OH:9320, V-B:ILE:455:C:9024, V-B:ARG:545:CD:9895, V-B:HIS:456:CE1:9042, V-B:ARG:545:CG:9894, V-B:ARG:545:CB:9893, V-A:ASP:366:CG:3213, V-A:ILE:369:CD1:3239, V-B:TYR:484:CE1:9317, H-B:ARG:545:NH2:9900, V-A:ASP:366:CB:3212, H-B:ILE:455:N:9027, V-A:ASP:366:CA:3210, V-A:ILE:369:CB:3236, V-A:ILE:369:CG1:3238"]

$$$$
4ad_Grossjean_2025
     RDKit          3D

 21 23  0  0  0  0  0  0  0  0999 V2000
  122.4670  130.3860   62.1330 C   0  0  0  0  0  0  0  0  0  0  0  0
  123.7390  131.1090   61.7300 C   0  0  0  0  0  0  0  0  0  0  0  0
  123.7020  132.4200   61.2600 C   0  0  0  0  0  0  0  0  0  0  0  0
  124.8880  133.0660   60.8920 C   0  0  0  0  0  0  0  0  0  0  0  0
  124.7970  134.4960   60.3820 C   0  0  0  0  0  0  0  0  0  0  0  0
  126.1040  132.3400   61.0160 C   0  0  0  0  0  0  0  0  0  0  0  0
  127.4720  132.6850   60.7370 C   0  0  0  0  0  0  0  0  0  0  0  0
  127.8310  133.9200   60.2570 N   0  0  0  0  0  0  0  0  0  0  0  0
  128.3860  131.6530   61.0010 C   0  0  0  0  0  0  0  0  0  0  0  0
  129.8390  131.6530   60.8170 C   0  0  0  0  0  0  0  0  0  0  0  0
  130.5890  131.9480   61.7500 O   0  0  0  0  0  0  0  0  0  0  0  0
  130.2680  131.3010   59.5800 N   0  0  0  0  0  0  0  0  0  0  0  0
  131.5790  131.2430   59.0700 C   0  0  0  0  0  0  0  0  0  0  0  0
  132.6030  131.5080   59.9850 C   0  0  0  0  0  0  0  0  0  0  0  0
  133.9340  131.4650   59.5800 C   0  0  0  0  0  0  0  0  0  0  0  0
  134.2440  131.1490   58.2610 C   0  0  0  0  0  0  0  0  0  0  0  0
  133.2350  130.8700   57.3430 C   0  0  0  0  0  0  0  0  0  0  0  0
  131.9020  130.9130   57.7440 C   0  0  0  0  0  0  0  0  0  0  0  0
  127.5640  130.2160   61.6120 S   0  0  0  0  0  0  0  0  0  0  0  0
  126.0070  131.0040   61.5090 C   0  0  0  0  0  0  0  0  0  0  0  0
  124.8780  130.3870   61.8610 N   0  0  0  0  0  0  0  0  0  0  0  0
  1  2  1  0
  2  3  2  0
  3  4  1  0
  4  5  1  0
  4  6  2  0
  6  7  1  0
  7  8  1  0
  7  9  2  0
  9 10  1  0
 10 11  2  0
 10 12  1  0
 12 13  1  0
 13 14  2  0
 14 15  1  0
 15 16  2  0
 16 17  1  0
 17 18  2  0
  9 19  1  0
 19 20  1  0
 20 21  2  0
 21  2  1  0
 20  6  1  0
 18 13  1  0
M  END
>  <Binding energies>  (40) 
[-6.05]

>  <Ligand effiencies>  (40) 
[-0.2520833333333333]

>  <Interactions>  (40) 
["V-B:ILE:369:CD1:8211, V-A:TYR:539:CE1:4875, V-A:PRO:540:CA:4883, V-A:TYR:539:CD1:4873, V-B:ILE:369:CG2:8209, V-B:LEU:475:CD2:9231, H-A:ALA:541:N:4891, V-B:GLY:453:C:9014, V-A:ASN:362:CB:3176, V-A:TYR:539:C:4867, V-B:GLY:453:CA:9016, V-A:PRO:540:CB:4885, V-A:ASP:366:CG:3213, V-B:ASP:366:CG:8185, V-A:ASP:366:CB:3212, V-A:ASN:362:C:3172, V-A:LEU:363:CB:3187, V-A:LEU:363:CA:3185, V-A:LEU:363:CD1:3189, H-A:TYR:539:O:4868, V-A:LEU:363:CG:3188, V-A:LEU:363:C:3183"]

$$$$
4ae_Grossjean_2025
     RDKit          3D

 22 24  0  0  0  0  0  0  0  0999 V2000
  124.4880  129.3070   66.0830 C   0  0  0  0  0  0  0  0  0  0  0  0
  125.0220  129.2460   64.6650 C   0  0  0  0  0  0  0  0  0  0  0  0
  124.6630  130.1980   63.7070 C   0  0  0  0  0  0  0  0  0  0  0  0
  125.1870  130.0730   62.4200 C   0  0  0  0  0  0  0  0  0  0  0  0
  126.0460  129.0130   62.1240 C   0  0  0  0  0  0  0  0  0  0  0  0
  126.3710  128.0990   63.1330 C   0  0  0  0  0  0  0  0  0  0  0  0
  127.2230  127.0420   62.7690 N   0  0  0  0  0  0  0  0  0  0  0  0
  128.4810  127.1020   62.2650 C   0  0  0  0  0  0  0  0  0  0  0  0
  129.0790  128.1550   62.0370 O   0  0  0  0  0  0  0  0  0  0  0  0
  129.1090  125.8080   61.9920 C   0  0  0  0  0  0  0  0  0  0  0  0
  128.1180  124.3620   61.7880 S   0  0  0  0  0  0  0  0  0  0  0  0
  129.5360  123.3640   61.5630 C   0  0  0  0  0  0  0  0  0  0  0  0
  129.4470  122.0500   61.3500 N   0  0  0  0  0  0  0  0  0  0  0  0
  130.6210  121.3920   61.1970 C   0  0  0  0  0  0  0  0  0  0  0  0
  130.4980  119.8970   60.9630 C   0  0  0  0  0  0  0  0  0  0  0  0
  131.8700  122.0100   61.2490 C   0  0  0  0  0  0  0  0  0  0  0  0
  131.9590  123.3890   61.4720 C   0  0  0  0  0  0  0  0  0  0  0  0
  133.3430  124.0170   61.5240 C   0  0  0  0  0  0  0  0  0  0  0  0
  130.7480  124.1130   61.6390 C   0  0  0  0  0  0  0  0  0  0  0  0
  130.4760  125.5050   61.8820 C   0  0  0  0  0  0  0  0  0  0  0  0
  131.4760  126.4380   61.9950 N   0  0  0  0  0  0  0  0  0  0  0  0
  125.8570  128.2110   64.3930 N   0  0  0  0  0  0  0  0  0  0  0  0
  1  2  1  0
  2  3  2  0
  3  4  1  0
  4  5  2  0
  5  6  1  0
  6  7  1  0
  7  8  1  0
  8  9  2  0
  8 10  1  0
 10 11  1  0
 11 12  1  0
 12 13  2  0
 13 14  1  0
 14 15  1  0
 14 16  2  0
 16 17  1  0
 17 18  1  0
 17 19  2  0
 19 20  1  0
 20 21  1  0
  6 22  2  0
 22  2  1  0
 20 10  2  0
 19 12  1  0
M  END
>  <Binding energies>  (41) 
[-5.85]

>  <Ligand effiencies>  (41) 
[-0.23399999999999999]

>  <Interactions>  (41) 
["V-B:TYR:539:CD2:9846, H-B:GLU:543:OE2:9882, V-A:LEU:475:CD2:4259, V-B:GLU:543:CD:9880, H-B:GLU:543:OE1:9881, H-A:GLU:543:OE2:4910, V-A:GLU:543:CD:4908, H-A:GLU:543:OE1:4909, V-B:ARG:545:CZ:9898, H-B:ARG:545:NE:9896, V-B:ARG:545:CD:9895, V-B:HIS:456:CE1:9042, V-B:ARG:545:CG:9894, H-A:ASP:366:OD1:3214, V-A:ILE:369:CD1:3239, H-A:ASP:366:OD2:3215, V-B:TYR:484:CZ:9319, H-B:ARG:545:NH2:9900"]

$$$$
4af_Grossjean_2025
     RDKit          3D

 21 23  0  0  0  0  0  0  0  0999 V2000
  133.1100  124.3880   58.6510 C   0  0  0  0  0  0  0  0  0  0  0  0
  132.2840  124.9390   59.7990 C   0  0  0  0  0  0  0  0  0  0  0  0
  132.7670  124.9170   61.1060 C   0  0  0  0  0  0  0  0  0  0  0  0
  131.9870  125.4290   62.1500 C   0  0  0  0  0  0  0  0  0  0  0  0
  132.5560  125.3800   63.5590 C   0  0  0  0  0  0  0  0  0  0  0  0
  130.7100  125.9590   61.8240 C   0  0  0  0  0  0  0  0  0  0  0  0
  129.6720  126.5490   62.6270 C   0  0  0  0  0  0  0  0  0  0  0  0
  129.7930  126.6990   63.9850 N   0  0  0  0  0  0  0  0  0  0  0  0
  128.5430  126.9500   61.8940 C   0  0  0  0  0  0  0  0  0  0  0  0
  127.3030  127.5520   62.3880 C   0  0  0  0  0  0  0  0  0  0  0  0
  126.3820  127.8160   61.6140 O   0  0  0  0  0  0  0  0  0  0  0  0
  127.2560  127.7680   63.7250 N   0  0  0  0  0  0  0  0  0  0  0  0
  126.2440  128.3660   64.5010 C   0  0  0  0  0  0  0  0  0  0  0  0
  126.1030  128.2400   65.8940 C   0  0  0  0  0  0  0  0  0  0  0  0
  125.0400  128.8720   66.5410 C   0  0  0  0  0  0  0  0  0  0  0  0
  124.1380  129.6150   65.7770 C   0  0  0  0  0  0  0  0  0  0  0  0
  124.2470  129.7450   64.4310 N   0  0  0  0  0  0  0  0  0  0  0  0
  125.2860  129.1240   63.8170 C   0  0  0  0  0  0  0  0  0  0  0  0
  128.7410  126.5990   60.1750 S   0  0  0  0  0  0  0  0  0  0  0  0
  130.3320  125.9240   60.4490 C   0  0  0  0  0  0  0  0  0  0  0  0
  131.0720  125.4380   59.4520 N   0  0  0  0  0  0  0  0  0  0  0  0
  1  2  1  0
  2  3  2  0
  3  4  1  0
  4  5  1  0
  4  6  2  0
  6  7  1  0
  7  8  1  0
  7  9  2  0
  9 10  1  0
 10 11  2  0
 10 12  1  0
 12 13  1  0
 13 14  2  0
 14 15  1  0
 15 16  2  0
 16 17  1  0
 17 18  2  0
  9 19  1  0
 19 20  1  0
 20 21  2  0
 21  2  1  0
 20  6  1  0
 18 13  1  0
M  END
>  <Binding energies>  (42) 
[-6.25]

>  <Ligand effiencies>  (42) 
[-0.2604166666666667]

>  <Interactions>  (42) 
["H-B:GLU:543:OE2:9882, V-B:GLU:543:CD:9880, H-B:GLU:543:OE1:9881, V-A:ILE:369:CG2:3237, V-B:TYR:539:CE2:9848, H-A:GLU:543:OE2:4910, V-A:GLU:543:CD:4908, H-A:GLU:543:OE1:4909, V-A:ARG:545:CZ:4926, V-B:ARG:545:CZ:9898, H-B:GLY:454:N:9022, V-B:GLY:453:C:9014, H-B:TYR:484:OH:9320, V-B:GLY:454:CA:9021, V-B:GLY:453:CA:9016, V-B:ARG:545:CD:9895, H-B:ARG:545:NH1:9899, V-B:HIS:456:CE1:9042, V-B:ARG:545:CG:9894, V-A:ASP:366:CG:3213, V-B:TYR:484:CZ:9319, H-B:ARG:545:NH2:9900, V-A:ASP:366:CB:3212, V-A:ASP:366:CA:3210"]

$$$$
4ag_Grossjean_2025
     RDKit          3D

 22 24  0  0  0  0  0  0  0  0999 V2000
  122.0770  130.0080   62.0640 C   0  0  0  0  0  0  0  0  0  0  0  0
  123.5200  130.0230   62.5330 C   0  0  0  0  0  0  0  0  0  0  0  0
  124.5460  130.4300   61.6820 C   0  0  0  0  0  0  0  0  0  0  0  0
  125.8700  130.4370   62.1350 C   0  0  0  0  0  0  0  0  0  0  0  0
  126.9550  130.8900   61.1700 C   0  0  0  0  0  0  0  0  0  0  0  0
  126.1160  130.0190   63.4710 C   0  0  0  0  0  0  0  0  0  0  0  0
  127.3230  129.9050   64.2440 C   0  0  0  0  0  0  0  0  0  0  0  0
  128.5560  130.2260   63.7310 N   0  0  0  0  0  0  0  0  0  0  0  0
  127.1200  129.4390   65.5510 C   0  0  0  0  0  0  0  0  0  0  0  0
  128.1140  129.2170   66.6010 C   0  0  0  0  0  0  0  0  0  0  0  0
  128.2950  130.0420   67.4990 O   0  0  0  0  0  0  0  0  0  0  0  0
  128.8250  128.0730   66.5140 N   0  0  0  0  0  0  0  0  0  0  0  0
  129.8460  127.6350   67.4640 C   0  0  0  0  0  0  0  0  0  0  0  0
  129.3250  127.4280   68.8810 C   0  0  0  0  0  0  0  0  0  0  0  0
  128.2030  126.6230   69.0990 C   0  0  0  0  0  0  0  0  0  0  0  0
  127.7400  126.4110   70.3950 C   0  0  0  0  0  0  0  0  0  0  0  0
  128.4070  126.9960   71.4700 C   0  0  0  0  0  0  0  0  0  0  0  0
  129.5340  127.7860   71.2620 C   0  0  0  0  0  0  0  0  0  0  0  0
  129.9980  127.9970   69.9660 C   0  0  0  0  0  0  0  0  0  0  0  0
  125.4110  129.1370   65.8640 S   0  0  0  0  0  0  0  0  0  0  0  0
  124.9800  129.6270   64.2410 C   0  0  0  0  0  0  0  0  0  0  0  0
  123.7170  129.6210   63.8120 N   0  0  0  0  0  0  0  0  0  0  0  0
  1  2  1  0
  2  3  2  0
  3  4  1  0
  4  5  1  0
  4  6  2  0
  6  7  1  0
  7  8  1  0
  7  9  2  0
  9 10  1  0
 10 11  2  0
 10 12  1  0
 12 13  1  0
 13 14  1  0
 14 15  2  0
 15 16  1  0
 16 17  2  0
 17 18  1  0
 18 19  2  0
  9 20  1  0
 20 21  1  0
 21 22  2  0
 22  2  1  0
 21  6  1  0
 19 14  1  0
M  END
>  <Binding energies>  (43) 
[-6.44]

>  <Ligand effiencies>  (43) 
[-0.2576]

>  <Interactions>  (43) 
["H-B:GLU:543:OE2:9882, V-B:GLU:543:CD:9880, H-A:GLU:543:OE2:4910, V-A:GLU:543:CD:4908, H-A:GLU:543:OE1:4909, V-B:ILE:369:CD1:8211, V-A:GLU:543:CG:4907, V-B:ARG:545:CZ:9898, H-B:GLY:454:N:9022, V-B:GLY:453:C:9014, H-B:TYR:484:OH:9320, V-B:GLY:453:CA:9016, V-B:ARG:545:CD:9895, H-B:ARG:545:NH1:9899, V-B:HIS:456:CE1:9042, V-B:HIS:456:CD2:9040, V-A:HIS:456:CD2:4068, V-B:GLY:544:C:9884, V-B:GLU:543:CB:9878, V-B:TYR:484:CZ:9319, V-B:ASP:366:CG:8185, H-B:ARG:545:NH2:9900, V-B:ASP:366:CA:8182, V-A:HIS:456:CE1:4070, V-A:GLU:543:CB:4906, V-B:GLU:543:C:9874"]

$$$$
4ah_Grossjean_2025
     RDKit          3D

 28 30  0  0  0  0  0  0  0  0999 V2000
  123.2300  130.4270   61.7880 C   0  0  0  0  0  0  0  0  0  0  0  0
  123.3910  130.3460   63.2000 O   0  0  0  0  0  0  0  0  0  0  0  0
  124.5760  129.8590   63.7220 C   0  0  0  0  0  0  0  0  0  0  0  0
  125.8040  129.8930   63.0420 C   0  0  0  0  0  0  0  0  0  0  0  0
  126.9610  129.3810   63.6310 C   0  0  0  0  0  0  0  0  0  0  0  0
  128.2950  129.4690   62.8960 C   0  0  0  0  0  0  0  0  0  0  0  0
  128.8840  128.1640   62.5950 N   0  0  0  0  0  0  0  0  0  0  0  0
  128.1920  127.0360   62.3310 C   0  0  0  0  0  0  0  0  0  0  0  0
  126.9610  126.9900   62.3570 O   0  0  0  0  0  0  0  0  0  0  0  0
  128.9920  125.8440   62.0510 C   0  0  0  0  0  0  0  0  0  0  0  0
  128.2170  124.3760   61.4550 S   0  0  0  0  0  0  0  0  0  0  0  0
  129.7440  123.5230   61.4380 C   0  0  0  0  0  0  0  0  0  0  0  0
  129.8390  122.2530   61.0440 N   0  0  0  0  0  0  0  0  0  0  0  0
  131.0800  121.7100   61.0760 C   0  0  0  0  0  0  0  0  0  0  0  0
  131.1650  120.2640   60.6270 C   0  0  0  0  0  0  0  0  0  0  0  0
  132.2170  122.4020   61.4880 C   0  0  0  0  0  0  0  0  0  0  0  0
  132.1150  123.7340   61.9040 C   0  0  0  0  0  0  0  0  0  0  0  0
  133.3840  124.4470   62.3460 C   0  0  0  0  0  0  0  0  0  0  0  0
  130.8280  124.3370   61.8850 C   0  0  0  0  0  0  0  0  0  0  0  0
  130.3690  125.6530   62.2410 C   0  0  0  0  0  0  0  0  0  0  0  0
  131.2160  126.6240   62.7110 N   0  0  0  0  0  0  0  0  0  0  0  0
  126.9020  128.8540   64.9210 C   0  0  0  0  0  0  0  0  0  0  0  0
  125.6870  128.8020   65.6230 C   0  0  0  0  0  0  0  0  0  0  0  0
  125.5530  128.2800   66.8970 O   0  0  0  0  0  0  0  0  0  0  0  0
  126.5150  127.3460   67.3730 C   0  0  0  0  0  0  0  0  0  0  0  0
  124.5300  129.3020   65.0080 C   0  0  0  0  0  0  0  0  0  0  0  0
  123.3370  129.2750   65.6900 O   0  0  0  0  0  0  0  0  0  0  0  0
  123.3810  129.9120   66.9600 C   0  0  0  0  0  0  0  0  0  0  0  0
  1  2  1  0
  2  3  1  0
  3  4  2  0
  4  5  1  0
  5  6  1  0
  6  7  1  0
  7  8  1  0
  8  9  2  0
  8 10  1  0
 10 11  1  0
 11 12  1  0
 12 13  2  0
 13 14  1  0
 14 15  1  0
 14 16  2  0
 16 17  1  0
 17 18  1  0
 17 19  2  0
 19 20  1  0
 20 21  1  0
  5 22  2  0
 22 23  1  0
 23 24  1  0
 24 25  1  0
 23 26  2  0
 26 27  1  0
 27 28  1  0
 26  3  1  0
 20 10  2  0
 19 12  1  0
M  END
>  <Binding energies>  (44) 
[-6.88]

>  <Ligand effiencies>  (44) 
[-0.22193548387096773]

>  <Interactions>  (44) 
["V-B:TYR:539:CD2:9846, V-A:LEU:475:CD2:4259, V-B:GLU:543:CD:9880, V-B:TYR:539:CE2:9848, H-A:GLU:543:OE2:4910, V-A:GLU:543:CD:4908, H-A:GLU:543:OE1:4909, V-A:ARG:545:CZ:4926, V-B:ILE:369:CD1:8211, V-A:GLU:543:CG:4907, V-B:ARG:545:CZ:9898, H-B:GLY:454:N:9022, H-B:ARG:545:NE:9896, V-B:GLY:453:C:9014, V-B:GLY:454:C:9019, V-B:ILE:455:C:9024, V-B:GLY:454:CA:9021, V-B:GLY:453:CA:9016, V-B:ARG:545:CD:9895, H-B:ARG:545:NH1:9899, V-B:HIS:456:CE1:9042, V-B:ARG:545:CG:9894, H-A:ASP:366:OD1:3214, V-B:TYR:484:CE1:9317, H-B:HIS:456:ND1:9039, V-B:GLU:543:CB:9878, V-B:TYR:484:CZ:9319, V-B:ASP:366:CG:8185, H-B:ARG:545:NH2:9900"]

$$$$
4ai_Grossjean_2025
     RDKit          3D

 20 22  0  0  0  0  0  0  0  0999 V2000
  132.4100  124.6340   59.5130 C   0  0  0  0  0  0  0  0  0  0  0  0
  130.9840  124.8900   59.9680 C   0  0  0  0  0  0  0  0  0  0  0  0
  129.9880  123.9350   59.7750 C   0  0  0  0  0  0  0  0  0  0  0  0
  128.6810  124.1890   60.2080 C   0  0  0  0  0  0  0  0  0  0  0  0
  127.6290  123.1150   59.9760 C   0  0  0  0  0  0  0  0  0  0  0  0
  128.4230  125.4360   60.8390 C   0  0  0  0  0  0  0  0  0  0  0  0
  127.2270  126.0130   61.3920 C   0  0  0  0  0  0  0  0  0  0  0  0
  126.0230  125.3550   61.3780 N   0  0  0  0  0  0  0  0  0  0  0  0
  127.4130  127.2900   61.9450 C   0  0  0  0  0  0  0  0  0  0  0  0
  126.4200  128.1620   62.5770 C   0  0  0  0  0  0  0  0  0  0  0  0
  125.7410  128.9360   61.9000 O   0  0  0  0  0  0  0  0  0  0  0  0
  126.3080  128.0340   63.9230 N   0  0  0  0  0  0  0  0  0  0  0  0
  125.4470  128.7240   64.7670 C   0  0  0  0  0  0  0  0  0  0  0  0
  125.5160  128.6420   66.1580 C   0  0  0  0  0  0  0  0  0  0  0  0
  124.5060  129.4560   66.6160 C   0  0  0  0  0  0  0  0  0  0  0  0
  123.8630  130.0020   65.5560 O   0  0  0  0  0  0  0  0  0  0  0  0
  124.4690  129.5310   64.3900 N   0  0  0  0  0  0  0  0  0  0  0  0
  129.0860  127.8230   61.7680 S   0  0  0  0  0  0  0  0  0  0  0  0
  129.5290  126.3270   60.9760 C   0  0  0  0  0  0  0  0  0  0  0  0
  130.7750  126.0890   60.5640 N   0  0  0  0  0  0  0  0  0  0  0  0
  1  2  1  0
  2  3  2  0
  3  4  1  0
  4  5  1  0
  4  6  2  0
  6  7  1  0
  7  8  1  0
  7  9  2  0
  9 10  1  0
 10 11  2  0
 10 12  1  0
 12 13  1  0
 13 14  1  0
 14 15  2  0
 15 16  1  0
 16 17  1  0
  9 18  1  0
 18 19  1  0
 19 20  2  0
 20  2  1  0
 19  6  1  0
 17 13  2  0
M  END
>  <Binding energies>  (45) 
[-5.86]

>  <Ligand effiencies>  (45) 
[-0.25478260869565217]

>  <Interactions>  (45) 
["H-B:GLU:543:OE2:9882, V-B:GLU:543:CD:9880, H-B:GLU:543:OE1:9881, V-B:TYR:539:CE2:9848, V-A:GLU:543:CD:4908, V-B:PRO:540:CA:9855, V-B:ARG:545:CZ:9898, H-B:GLY:454:N:9022, H-B:ARG:545:NE:9896, H-B:TYR:484:OH:9320, V-B:ARG:545:CD:9895, H-B:ARG:545:NH1:9899, V-B:HIS:456:CE1:9042, V-B:ARG:545:CG:9894, V-A:ASP:366:CG:3213, V-B:TYR:484:CE1:9317, V-B:TYR:484:CZ:9319, V-B:ASP:366:CG:8185, H-B:ARG:545:NH2:9900, H-B:ASP:366:OD2:8187, H-B:ASP:366:OD1:8186"]

$$$$
4aj_Grossjean_2025
     RDKit          3D

 20 22  0  0  0  0  0  0  0  0999 V2000
  122.4270  130.4000   62.1040 C   0  0  0  0  0  0  0  0  0  0  0  0
  123.7270  131.1230   61.7980 C   0  0  0  0  0  0  0  0  0  0  0  0
  123.7240  132.4200   61.2920 C   0  0  0  0  0  0  0  0  0  0  0  0
  124.9340  133.0650   61.0120 C   0  0  0  0  0  0  0  0  0  0  0  0
  124.8780  134.4810   60.4590 C   0  0  0  0  0  0  0  0  0  0  0  0
  126.1380  132.3550   61.2630 C   0  0  0  0  0  0  0  0  0  0  0  0
  127.5230  132.7040   61.0930 C   0  0  0  0  0  0  0  0  0  0  0  0
  127.9170  133.9220   60.6020 N   0  0  0  0  0  0  0  0  0  0  0  0
  128.4170  131.6920   61.4800 C   0  0  0  0  0  0  0  0  0  0  0  0
  129.8810  131.7030   61.4330 C   0  0  0  0  0  0  0  0  0  0  0  0
  130.5420  131.9030   62.4540 O   0  0  0  0  0  0  0  0  0  0  0  0
  130.4250  131.4690   60.2130 N   0  0  0  0  0  0  0  0  0  0  0  0
  131.7770  131.4140   59.9010 C   0  0  0  0  0  0  0  0  0  0  0  0
  132.7990  131.6710   60.6890 N   0  0  0  0  0  0  0  0  0  0  0  0
  133.9470  131.5140   60.0590 C   0  0  0  0  0  0  0  0  0  0  0  0
  133.8700  131.1200   58.7260 C   0  0  0  0  0  0  0  0  0  0  0  0
  132.1970  130.9490   58.2840 S   0  0  0  0  0  0  0  0  0  0  0  0
  127.5540  130.2640   62.0530 S   0  0  0  0  0  0  0  0  0  0  0  0
  126.0060  131.0320   61.7850 C   0  0  0  0  0  0  0  0  0  0  0  0
  124.8550  130.4140   62.0520 N   0  0  0  0  0  0  0  0  0  0  0  0
  1  2  1  0
  2  3  2  0
  3  4  1  0
  4  5  1  0
  4  6  2  0
  6  7  1  0
  7  8  1  0
  7  9  2  0
  9 10  1  0
 10 11  2  0
 10 12  1  0
 12 13  1  0
 13 14  2  0
 14 15  1  0
 15 16  2  0
 16 17  1  0
  9 18  1  0
 18 19  1  0
 19 20  2  0
 20  2  1  0
 19  6  1  0
 17 13  1  0
M  END
>  <Binding energies>  (46) 
[-5.78]

>  <Ligand effiencies>  (46) 
[-0.25130434782608696]

>  <Interactions>  (46) 
["V-B:ILE:369:CD1:8211, V-A:TYR:539:CE1:4875, V-A:PRO:540:CA:4883, V-A:ALA:541:CB:4892, V-A:TYR:539:CD1:4873, V-B:ILE:369:CG2:8209, V-B:LEU:475:CD2:9231, H-A:ALA:541:N:4891, V-B:GLY:453:C:9014, V-A:ASN:362:CB:3176, V-A:TYR:539:C:4867, V-B:GLY:453:CA:9016, V-A:PRO:540:CB:4885, V-A:ASP:366:CG:3213, V-B:ASP:366:CG:8185, V-A:ASP:366:CB:3212, V-A:ASN:362:C:3172, V-A:LEU:363:CB:3187, V-A:ASN:362:CA:3174, V-A:LEU:363:CA:3185, V-A:LEU:363:CD1:3189, H-A:TYR:539:O:4868"]

$$$$
4ak_Grossjean_2025
     RDKit          3D

 25 26  0  0  0  0  0  0  0  0999 V2000
  128.8490  122.3610   62.4840 C   0  0  0  0  0  0  0  0  0  0  0  0
  130.0880  121.6700   62.4920 O   0  0  0  0  0  0  0  0  0  0  0  0
  130.5830  121.3800   61.1910 C   0  0  0  0  0  0  0  0  0  0  0  0
  131.4450  122.5500   60.6990 C   0  0  0  0  0  0  0  0  0  0  0  0
  132.7340  122.4670   61.2920 O   0  0  0  0  0  0  0  0  0  0  0  0
  133.0160  123.5230   62.2010 C   0  0  0  0  0  0  0  0  0  0  0  0
  133.1310  124.8420   61.4270 C   0  0  0  0  0  0  0  0  0  0  0  0
  131.9210  125.5740   61.5650 O   0  0  0  0  0  0  0  0  0  0  0  0
  131.5830  125.8780   62.9120 C   0  0  0  0  0  0  0  0  0  0  0  0
  130.1140  125.4950   63.1680 C   0  0  0  0  0  0  0  0  0  0  0  0
  129.1840  126.6150   63.0300 N   0  0  0  0  0  0  0  0  0  0  0  0
  129.1220  127.4530   61.9750 C   0  0  0  0  0  0  0  0  0  0  0  0
  129.8540  127.3320   60.9920 O   0  0  0  0  0  0  0  0  0  0  0  0
  128.1240  128.5180   62.0570 C   0  0  0  0  0  0  0  0  0  0  0  0
  128.1720  129.8720   60.9280 S   0  0  0  0  0  0  0  0  0  0  0  0
  126.7550  130.5910   61.6580 C   0  0  0  0  0  0  0  0  0  0  0  0
  126.2410  131.7410   61.2190 N   0  0  0  0  0  0  0  0  0  0  0  0
  125.1430  132.1900   61.8740 C   0  0  0  0  0  0  0  0  0  0  0  0
  124.5730  133.4990   61.3590 C   0  0  0  0  0  0  0  0  0  0  0  0
  124.5520  131.5240   62.9450 C   0  0  0  0  0  0  0  0  0  0  0  0
  125.0930  130.3170   63.4040 C   0  0  0  0  0  0  0  0  0  0  0  0
  124.4160  129.6280   64.5780 C   0  0  0  0  0  0  0  0  0  0  0  0
  126.2460  129.8140   62.7420 C   0  0  0  0  0  0  0  0  0  0  0  0
  127.0430  128.6340   62.9450 C   0  0  0  0  0  0  0  0  0  0  0  0
  126.7590  127.7160   63.9240 N   0  0  0  0  0  0  0  0  0  0  0  0
  1  2  1  0
  2  3  1  0
  3  4  1  0
  4  5  1  0
  5  6  1  0
  6  7  1  0
  7  8  1  0
  8  9  1  0
  9 10  1  0
 10 11  1  0
 11 12  1  0
 12 13  2  0
 12 14  1  0
 14 15  1  0
 15 16  1  0
 16 17  2  0
 17 18  1  0
 18 19  1  0
 18 20  2  0
 20 21  1  0
 21 22  1  0
 21 23  2  0
 23 24  1  0
 24 25  1  0
 24 14  2  0
 23 16  1  0
M  END
>  <Binding energies>  (47) 
[-4.51]

>  <Ligand effiencies>  (47) 
[-0.16107142857142856]

>  <Interactions>  (47) 
["V-B:ALA:541:CB:9864, V-B:TYR:539:CD2:9846, H-B:GLU:543:OE2:9882, V-A:TYR:484:CE1:4345, V-A:LEU:475:CD2:4259, V-B:GLU:543:CD:9880, H-B:GLU:543:OE1:9881, V-B:TYR:539:CE2:9848, V-A:GLU:543:CD:4908, H-A:GLU:543:OE1:4909, V-A:ARG:545:CZ:4926, H-A:TYR:484:OH:4348, V-B:ARG:545:CZ:9898, V-B:LEU:475:CD2:9231, V-B:GLY:454:CA:9021, V-A:ASP:366:CG:3213, V-A:GLY:454:CA:4049, H-A:ARG:545:NH2:4928"]

$$$$
4al_Grossjean_2025
     RDKit          3D

 16 17  0  0  0  0  0  0  0  0999 V2000
  126.0670  123.6490   59.3970 C   0  0  0  0  0  0  0  0  0  0  0  0
  125.2570  123.5270   60.5570 O   0  0  0  0  0  0  0  0  0  0  0  0
  125.8000  123.1880   61.7540 C   0  0  0  0  0  0  0  0  0  0  0  0
  125.1390  122.8650   62.7450 O   0  0  0  0  0  0  0  0  0  0  0  0
  127.2780  123.2440   61.7530 C   0  0  0  0  0  0  0  0  0  0  0  0
  128.2170  121.7500   61.7550 S   0  0  0  0  0  0  0  0  0  0  0  0
  129.7190  122.6450   61.7530 C   0  0  0  0  0  0  0  0  0  0  0  0
  130.9040  122.0340   61.7530 N   0  0  0  0  0  0  0  0  0  0  0  0
  131.9920  122.8440   61.7510 C   0  0  0  0  0  0  0  0  0  0  0  0
  133.3300  122.1280   61.7510 C   0  0  0  0  0  0  0  0  0  0  0  0
  131.9220  124.2350   61.7480 C   0  0  0  0  0  0  0  0  0  0  0  0
  130.6770  124.8740   61.7480 C   0  0  0  0  0  0  0  0  0  0  0  0
  130.6510  126.3940   61.7460 C   0  0  0  0  0  0  0  0  0  0  0  0
  129.5140  124.0570   61.7500 C   0  0  0  0  0  0  0  0  0  0  0  0
  128.1120  124.3690   61.7510 C   0  0  0  0  0  0  0  0  0  0  0  0
  127.6410  125.6570   61.7490 N   0  0  0  0  0  0  0  0  0  0  0  0
  1  2  1  0
  2  3  1  0
  3  4  2  0
  3  5  1  0
  5  6  1  0
  6  7  1  0
  7  8  2  0
  8  9  1  0
  9 10  1  0
  9 11  2  0
 11 12  1  0
 12 13  1  0
 12 14  2  0
 14 15  1  0
 15 16  1  0
 15  5  2  0
 14  7  1  0
M  END
>  <Binding energies>  (48) 
[-5.0]

>  <Ligand effiencies>  (48) 
[-0.2777777777777778]

>  <Interactions>  (48) 
["V-B:ALA:541:CB:9864, H-B:GLU:543:OE2:9882, V-A:LEU:475:CD2:4259, V-B:GLU:543:CD:9880, H-B:GLU:543:OE1:9881, V-B:PRO:540:C:9853, V-B:ALA:541:CA:9862, V-B:PRO:540:CA:9855, H-A:TYR:484:OH:4348, V-A:GLY:454:CA:4049, V-A:ILE:369:CD1:3239, H-B:ALA:541:N:9863, H-B:ARG:545:NH2:9900, H-B:ASN:362:ND2:8151, V-B:PRO:540:CB:9857"]

$$$$
4bc_Grossjean_2025
     RDKit          3D

 26 28  0  0  0  0  0  0  0  0999 V2000
  123.7780  132.3890   62.2400 C   0  0  0  0  0  0  0  0  0  0  0  0
  123.7500  131.3810   63.2450 O   0  0  0  0  0  0  0  0  0  0  0  0
  124.6180  130.3100   63.1490 C   0  0  0  0  0  0  0  0  0  0  0  0
  124.9920  129.9260   61.8620 C   0  0  0  0  0  0  0  0  0  0  0  0
  125.8620  128.8570   61.6650 C   0  0  0  0  0  0  0  0  0  0  0  0
  126.3790  128.1610   62.7600 C   0  0  0  0  0  0  0  0  0  0  0  0
  127.2380  127.0870   62.4640 N   0  0  0  0  0  0  0  0  0  0  0  0
  128.5280  127.1100   62.0500 C   0  0  0  0  0  0  0  0  0  0  0  0
  129.1600  128.1430   61.8270 O   0  0  0  0  0  0  0  0  0  0  0  0
  129.1540  125.7970   61.8660 C   0  0  0  0  0  0  0  0  0  0  0  0
  128.1560  124.3610   61.6520 S   0  0  0  0  0  0  0  0  0  0  0  0
  129.5700  123.3420   61.5210 C   0  0  0  0  0  0  0  0  0  0  0  0
  129.4640  122.0270   61.3300 N   0  0  0  0  0  0  0  0  0  0  0  0
  130.6290  121.3430   61.2460 C   0  0  0  0  0  0  0  0  0  0  0  0
  130.4860  119.8490   61.0240 C   0  0  0  0  0  0  0  0  0  0  0  0
  131.8850  121.9370   61.3480 C   0  0  0  0  0  0  0  0  0  0  0  0
  132.0020  123.3210   61.5490 C   0  0  0  0  0  0  0  0  0  0  0  0
  133.4060  123.9280   61.6570 C   0  0  0  0  0  0  0  0  0  0  0  0
  133.5570  124.7030   62.7330 F   0  0  0  0  0  0  0  0  0  0  0  0
  134.3120  122.9540   61.7350 F   0  0  0  0  0  0  0  0  0  0  0  0
  133.6570  124.6800   60.5860 F   0  0  0  0  0  0  0  0  0  0  0  0
  130.7920  124.0720   61.6410 C   0  0  0  0  0  0  0  0  0  0  0  0
  130.5200  125.4760   61.8350 C   0  0  0  0  0  0  0  0  0  0  0  0
  131.5150  126.4100   61.9760 N   0  0  0  0  0  0  0  0  0  0  0  0
  125.9970  128.5330   64.0580 C   0  0  0  0  0  0  0  0  0  0  0  0
  125.1260  129.6020   64.2500 C   0  0  0  0  0  0  0  0  0  0  0  0
  1  2  1  0
  2  3  1  0
  3  4  2  0
  4  5  1  0
  5  6  2  0
  6  7  1  0
  7  8  1  0
  8  9  2  0
  8 10  1  0
 10 11  1  0
 11 12  1  0
 12 13  2  0
 13 14  1  0
 14 15  1  0
 14 16  2  0
 16 17  1  0
 17 18  1  0
 18 19  1  0
 18 20  1  0
 18 21  1  0
 17 22  2  0
 22 23  1  0
 23 24  1  0
  6 25  1  0
 25 26  2  0
 26  3  1  0
 23 10  2  0
 22 12  1  0
M  END
>  <Binding energies>  (49) 
[-5.52]

>  <Ligand effiencies>  (49) 
[-0.19034482758620688]

>  <Interactions>  (49) 
["V-B:TYR:539:CD2:9846, H-B:GLU:543:OE2:9882, V-A:LEU:475:CD2:4259, V-B:GLU:543:CD:9880, H-B:GLU:543:OE1:9881, H-A:GLU:543:OE2:4910, V-A:GLU:543:CD:4908, H-A:GLU:543:OE1:4909, V-A:ARG:545:CZ:4926, V-B:ILE:369:CD1:8211, V-B:ARG:545:CZ:9898, V-B:LEU:475:CD2:9231, H-B:GLY:454:N:9022, H-B:TYR:484:OH:9320, V-B:GLY:454:CA:9021, H-A:ASP:366:OD1:3214, V-A:ASP:366:CG:3213, V-A:GLY:454:CA:4049, V-A:ILE:369:CD1:3239, V-A:GLY:453:CA:4044, V-A:GLY:453:C:4042, H-A:ASP:366:OD2:3215, V-B:ASP:366:CG:8185, V-A:ASP:366:CB:3212"]

$$$$
4bf_Grossjean_2025
     RDKit          3D

 24 26  0  0  0  0  0  0  0  0999 V2000
  127.1850  133.8870   61.6220 C   0  0  0  0  0  0  0  0  0  0  0  0
  127.2570  132.4020   61.9310 C   0  0  0  0  0  0  0  0  0  0  0  0
  126.3110  131.7940   62.7520 C   0  0  0  0  0  0  0  0  0  0  0  0
  126.3920  130.4210   63.0320 C   0  0  0  0  0  0  0  0  0  0  0  0
  125.3300  129.7960   63.9430 C   0  0  0  0  0  0  0  0  0  0  0  0
  124.5870  128.8750   63.3240 F   0  0  0  0  0  0  0  0  0  0  0  0
  125.9190  129.2010   64.9810 F   0  0  0  0  0  0  0  0  0  0  0  0
  124.5030  130.7420   64.3880 F   0  0  0  0  0  0  0  0  0  0  0  0
  127.4710  129.6970   62.4430 C   0  0  0  0  0  0  0  0  0  0  0  0
  127.8710  128.3130   62.5010 C   0  0  0  0  0  0  0  0  0  0  0  0
  127.1780  127.3720   63.2210 N   0  0  0  0  0  0  0  0  0  0  0  0
  129.0240  128.0160   61.7560 C   0  0  0  0  0  0  0  0  0  0  0  0
  129.7190  126.7320   61.6200 C   0  0  0  0  0  0  0  0  0  0  0  0
  129.0840  125.6900   61.4550 O   0  0  0  0  0  0  0  0  0  0  0  0
  131.0720  126.7950   61.6730 N   0  0  0  0  0  0  0  0  0  0  0  0
  132.0200  125.7560   61.6250 C   0  0  0  0  0  0  0  0  0  0  0  0
  132.4220  125.0730   60.4640 C   0  0  0  0  0  0  0  0  0  0  0  0
  133.3650  124.0460   60.5570 C   0  0  0  0  0  0  0  0  0  0  0  0
  133.8800  123.7250   61.8130 C   0  0  0  0  0  0  0  0  0  0  0  0
  133.5040  124.3640   62.9490 N   0  0  0  0  0  0  0  0  0  0  0  0
  132.5870  125.3590   62.8420 C   0  0  0  0  0  0  0  0  0  0  0  0
  129.6550  129.4550   60.9590 S   0  0  0  0  0  0  0  0  0  0  0  0
  128.3720  130.4410   61.6200 C   0  0  0  0  0  0  0  0  0  0  0  0
  128.2910  131.7440   61.3560 N   0  0  0  0  0  0  0  0  0  0  0  0
  1  2  1  0
  2  3  2  0
  3  4  1  0
  4  5  1  0
  5  6  1  0
  5  7  1  0
  5  8  1  0
  4  9  2  0
  9 10  1  0
 10 11  1  0
 10 12  2  0
 12 13  1  0
 13 14  2  0
 13 15  1  0
 15 16  1  0
 16 17  2  0
 17 18  1  0
 18 19  2  0
 19 20  1  0
 20 21  2  0
 12 22  1  0
 22 23  1  0
 23 24  2  0
 24  2  1  0
 23  9  1  0
 21 16  1  0
M  END
>  <Binding energies>  (50) 
[-5.48]

>  <Ligand effiencies>  (50) 
[-0.20296296296296298]

>  <Interactions>  (50) 
["H-B:GLU:543:OE2:9882, V-B:GLU:543:CD:9880, H-B:GLU:543:OE1:9881, H-A:GLU:543:OE2:4910, V-A:GLU:543:CD:4908, H-A:GLU:543:OE1:4909, V-A:ARG:545:CZ:4926, H-A:TYR:484:OH:4348, V-A:ALA:541:CB:4892, V-B:ARG:545:CZ:9898, V-B:LEU:475:CD2:9231, V-B:GLY:453:C:9014, V-B:GLY:454:CA:9021, H-A:ASP:366:OD1:3214, V-A:ASP:366:CG:3213, V-A:GLY:454:CA:4049, V-A:ILE:369:CD1:3239, V-A:GLY:453:C:4042, V-B:TYR:484:CZ:9319, H-A:GLY:454:N:4050"]

$$$$
4bh_Grossjean_2025
     RDKit          3D

 31 33  0  0  0  0  0  0  0  0999 V2000
  126.5050  127.3720   67.3840 C   0  0  0  0  0  0  0  0  0  0  0  0
  125.4530  128.1740   66.8580 O   0  0  0  0  0  0  0  0  0  0  0  0
  125.6130  128.7800   65.6250 C   0  0  0  0  0  0  0  0  0  0  0  0
  126.8390  128.8670   64.9480 C   0  0  0  0  0  0  0  0  0  0  0  0
  126.9280  129.4970   63.7060 C   0  0  0  0  0  0  0  0  0  0  0  0
  128.2590  129.5420   62.9640 C   0  0  0  0  0  0  0  0  0  0  0  0
  128.8000  128.2180   62.6550 N   0  0  0  0  0  0  0  0  0  0  0  0
  128.0710  127.1350   62.3140 C   0  0  0  0  0  0  0  0  0  0  0  0
  126.8400  127.1530   62.2690 O   0  0  0  0  0  0  0  0  0  0  0  0
  128.8260  125.9120   62.0420 C   0  0  0  0  0  0  0  0  0  0  0  0
  127.9920  124.4680   61.4750 S   0  0  0  0  0  0  0  0  0  0  0  0
  129.4860  123.5600   61.4550 C   0  0  0  0  0  0  0  0  0  0  0  0
  129.5180  122.2830   61.0770 N   0  0  0  0  0  0  0  0  0  0  0  0
  130.7320  121.6870   61.1010 C   0  0  0  0  0  0  0  0  0  0  0  0
  130.7460  120.2320   60.6680 C   0  0  0  0  0  0  0  0  0  0  0  0
  131.9040  122.3310   61.4880 C   0  0  0  0  0  0  0  0  0  0  0  0
  131.8760  123.6760   61.8890 C   0  0  0  0  0  0  0  0  0  0  0  0
  133.1920  124.3440   62.3040 C   0  0  0  0  0  0  0  0  0  0  0  0
  133.2380  124.6460   63.6030 F   0  0  0  0  0  0  0  0  0  0  0  0
  134.2130  123.5270   62.0480 F   0  0  0  0  0  0  0  0  0  0  0  0
  133.3550  125.4790   61.6240 F   0  0  0  0  0  0  0  0  0  0  0  0
  130.6110  124.3340   61.8780 C   0  0  0  0  0  0  0  0  0  0  0  0
  130.1980  125.6730   62.2200 C   0  0  0  0  0  0  0  0  0  0  0  0
  131.0720  126.6280   62.6720 N   0  0  0  0  0  0  0  0  0  0  0  0
  125.7760  130.0210   63.1170 C   0  0  0  0  0  0  0  0  0  0  0  0
  124.5380  129.9550   63.7750 C   0  0  0  0  0  0  0  0  0  0  0  0
  123.3600  130.4650   63.2580 O   0  0  0  0  0  0  0  0  0  0  0  0
  123.1330  130.4080   61.8530 C   0  0  0  0  0  0  0  0  0  0  0  0
  124.4710  129.3370   65.0320 C   0  0  0  0  0  0  0  0  0  0  0  0
  123.2610  129.2490   65.6790 O   0  0  0  0  0  0  0  0  0  0  0  0
  123.2750  129.7660   67.0020 C   0  0  0  0  0  0  0  0  0  0  0  0
  1  2  1  0
  2  3  1  0
  3  4  2  0
  4  5  1  0
  5  6  1  0
  6  7  1  0
  7  8  1  0
  8  9  2  0
  8 10  1  0
 10 11  1  0
 11 12  1  0
 12 13  2  0
 13 14  1  0
 14 15  1  0
 14 16  2  0
 16 17  1  0
 17 18  1  0
 18 19  1  0
 18 20  1  0
 18 21  1  0
 17 22  2  0
 22 23  1  0
 23 24  1  0
  5 25  2  0
 25 26  1  0
 26 27  1  0
 27 28  1  0
 26 29  2  0
 29 30  1  0
 30 31  1  0
 29  3  1  0
 23 10  2  0
 22 12  1  0
M  END
>  <Binding energies>  (51) 
[-6.49]

>  <Ligand effiencies>  (51) 
[-0.19088235294117648]

>  <Interactions>  (51) 
["V-B:TYR:539:CD2:9846, V-A:TYR:484:CZ:4347, V-A:LEU:475:CD2:4259, V-B:GLU:543:CD:9880, V-B:TYR:539:CE2:9848, H-A:GLU:543:OE2:4910, V-A:GLU:543:CD:4908, H-A:GLU:543:OE1:4909, V-A:ARG:545:CZ:4926, V-B:ILE:369:CD1:8211, V-A:GLU:543:CG:4907, V-B:ARG:545:CZ:9898, H-B:GLY:454:N:9022, H-B:ARG:545:NE:9896, V-B:GLY:453:C:9014, V-B:GLY:454:C:9019, V-B:ILE:455:C:9024, V-B:GLY:454:CA:9021, V-B:GLY:453:CA:9016, V-B:ARG:545:CD:9895, H-B:ARG:545:NH1:9899, V-B:HIS:456:CE1:9042, V-B:ARG:545:CG:9894, H-A:ASP:366:OD1:3214, V-A:ASP:366:CG:3213, V-A:GLY:454:CA:4049, V-A:ILE:369:CD1:3239, V-A:GLY:453:CA:4044, V-A:GLY:453:C:4042, V-B:TYR:484:CE1:9317, H-B:HIS:456:ND1:9039, V-B:GLU:543:CB:9878, V-B:ASP:366:CG:8185, H-B:ARG:545:NH2:9900"]

$$$$
4bi_Grossjean_2025
     RDKit          3D

 23 25  0  0  0  0  0  0  0  0999 V2000
  132.3800  124.7850   59.4100 C   0  0  0  0  0  0  0  0  0  0  0  0
  130.9570  125.0100   59.8890 C   0  0  0  0  0  0  0  0  0  0  0  0
  129.9760  124.0390   59.7060 C   0  0  0  0  0  0  0  0  0  0  0  0
  128.6650  124.2600   60.1590 C   0  0  0  0  0  0  0  0  0  0  0  0
  127.6210  123.1590   59.9420 C   0  0  0  0  0  0  0  0  0  0  0  0
  126.5310  123.5910   59.3050 F   0  0  0  0  0  0  0  0  0  0  0  0
  128.1470  122.1760   59.2120 F   0  0  0  0  0  0  0  0  0  0  0  0
  127.2290  122.6710   61.1190 F   0  0  0  0  0  0  0  0  0  0  0  0
  128.3970  125.5070   60.7980 C   0  0  0  0  0  0  0  0  0  0  0  0
  127.2030  126.0770   61.3740 C   0  0  0  0  0  0  0  0  0  0  0  0
  125.9990  125.4220   61.3840 N   0  0  0  0  0  0  0  0  0  0  0  0
  127.3870  127.3560   61.9260 C   0  0  0  0  0  0  0  0  0  0  0  0
  126.3980  128.2220   62.5730 C   0  0  0  0  0  0  0  0  0  0  0  0
  125.7310  129.0210   61.9100 O   0  0  0  0  0  0  0  0  0  0  0  0
  126.2700  128.0620   63.9140 N   0  0  0  0  0  0  0  0  0  0  0  0
  125.4080  128.7360   64.7680 C   0  0  0  0  0  0  0  0  0  0  0  0
  125.4840  128.6410   66.1570 C   0  0  0  0  0  0  0  0  0  0  0  0
  124.4710  129.4460   66.6270 C   0  0  0  0  0  0  0  0  0  0  0  0
  123.8200  129.9980   65.5750 O   0  0  0  0  0  0  0  0  0  0  0  0
  124.4240  129.5400   64.4020 N   0  0  0  0  0  0  0  0  0  0  0  0
  129.0500  127.9040   61.7260 S   0  0  0  0  0  0  0  0  0  0  0  0
  129.4920  126.4160   60.9230 C   0  0  0  0  0  0  0  0  0  0  0  0
  130.7350  126.2010   60.4930 N   0  0  0  0  0  0  0  0  0  0  0  0
  1  2  1  0
  2  3  2  0
  3  4  1  0
  4  5  1  0
  5  6  1  0
  5  7  1  0
  5  8  1  0
  4  9  2  0
  9 10  1  0
 10 11  1  0
 10 12  2  0
 12 13  1  0
 13 14  2  0
 13 15  1  0
 15 16  1  0
 16 17  1  0
 17 18  2  0
 18 19  1  0
 19 20  1  0
 12 21  1  0
 21 22  1  0
 22 23  2  0
 23  2  1  0
 22  9  1  0
 20 16  2  0
M  END
>  <Binding energies>  (52) 
[-5.74]

>  <Ligand effiencies>  (52) 
[-0.22076923076923077]

>  <Interactions>  (52) 
["V-B:TYR:539:CD2:9846, H-B:GLU:543:OE2:9882, V-B:TYR:539:C:9839, V-B:GLU:543:CD:9880, H-B:GLU:543:OE1:9881, V-B:TYR:539:CE2:9848, V-A:GLU:543:CD:4908, V-B:PRO:540:C:9853, V-B:PRO:540:CA:9855, V-B:ARG:545:CZ:9898, H-B:GLY:454:N:9022, H-B:ARG:545:NE:9896, H-B:TYR:484:OH:9320, V-B:ARG:545:CD:9895, H-B:ARG:545:NH1:9899, V-B:HIS:456:CE1:9042, V-B:ARG:545:CG:9894, V-A:ASP:366:CG:3213, V-B:TYR:484:CE1:9317, V-B:TYR:484:CZ:9319, V-B:ASP:366:CG:8185, H-B:ARG:545:NH2:9900, H-B:ASP:366:OD2:8187, V-B:PRO:540:CB:9857, H-B:ASP:366:OD1:8186, V-B:PRO:540:N:9856"]

$$$$
4bj_Grossjean_2025
     RDKit          3D

 23 25  0  0  0  0  0  0  0  0999 V2000
  122.0320  130.3340   62.0890 C   0  0  0  0  0  0  0  0  0  0  0  0
  123.5390  130.3550   62.2680 C   0  0  0  0  0  0  0  0  0  0  0  0
  124.1460  129.6700   63.3170 C   0  0  0  0  0  0  0  0  0  0  0  0
  125.5410  129.7030   63.4740 C   0  0  0  0  0  0  0  0  0  0  0  0
  126.1640  128.9360   64.6460 C   0  0  0  0  0  0  0  0  0  0  0  0
  127.0740  129.6500   65.3120 F   0  0  0  0  0  0  0  0  0  0  0  0
  125.2140  128.5890   65.5140 F   0  0  0  0  0  0  0  0  0  0  0  0
  126.7700  127.8390   64.1930 F   0  0  0  0  0  0  0  0  0  0  0  0
  126.2870  130.4580   62.5210 C   0  0  0  0  0  0  0  0  0  0  0  0
  127.6970  130.7210   62.3640 C   0  0  0  0  0  0  0  0  0  0  0  0
  128.6440  130.2230   63.2220 N   0  0  0  0  0  0  0  0  0  0  0  0
  128.0100  131.5240   61.2550 C   0  0  0  0  0  0  0  0  0  0  0  0
  129.3250  131.9900   60.8080 C   0  0  0  0  0  0  0  0  0  0  0  0
  129.4450  133.0620   60.2100 O   0  0  0  0  0  0  0  0  0  0  0  0
  130.3660  131.1760   61.1110 N   0  0  0  0  0  0  0  0  0  0  0  0
  131.7050  131.3890   60.8150 C   0  0  0  0  0  0  0  0  0  0  0  0
  132.6450  131.8570   61.6080 N   0  0  0  0  0  0  0  0  0  0  0  0
  133.8090  131.9230   60.9950 C   0  0  0  0  0  0  0  0  0  0  0  0
  133.8310  131.5010   59.6690 C   0  0  0  0  0  0  0  0  0  0  0  0
  132.2330  130.9960   59.2090 S   0  0  0  0  0  0  0  0  0  0  0  0
  126.5570  131.9990   60.3790 S   0  0  0  0  0  0  0  0  0  0  0  0
  125.5420  131.1100   61.4900 C   0  0  0  0  0  0  0  0  0  0  0  0
  124.2180  131.0770   61.3470 N   0  0  0  0  0  0  0  0  0  0  0  0
  1  2  1  0
  2  3  2  0
  3  4  1  0
  4  5  1  0
  5  6  1  0
  5  7  1  0
  5  8  1  0
  4  9  2  0
  9 10  1  0
 10 11  1  0
 10 12  2  0
 12 13  1  0
 13 14  2  0
 13 15  1  0
 15 16  1  0
 16 17  2  0
 17 18  1  0
 18 19  2  0
 19 20  1  0
 12 21  1  0
 21 22  1  0
 22 23  2  0
 23  2  1  0
 22  9  1  0
 20 16  1  0
M  END
>  <Binding energies>  (53) 
[-5.06]

>  <Ligand effiencies>  (53) 
[-0.1946153846153846]

>  <Interactions>  (53) 
["V-B:GLU:543:CD:9880, H-A:GLU:543:OE2:4910, V-A:GLU:543:CD:4908, H-A:GLU:543:OE1:4909, V-B:ILE:369:CD1:8211, V-A:PRO:540:CA:4883, V-A:ALA:541:CB:4892, V-A:GLU:543:CG:4907, V-B:ARG:545:CZ:9898, H-A:ALA:541:N:4891, V-B:GLY:453:C:9014, H-B:TYR:484:OH:9320, V-A:ASN:362:CB:3176, V-B:GLY:453:CA:9016, V-B:ARG:545:CD:9895, V-B:ARG:545:CG:9894, V-A:PRO:540:CB:4885, V-A:ASP:366:CG:3213, V-B:TYR:484:CZ:9319, V-B:ASP:366:CG:8185, V-B:ASP:366:CA:8182, V-A:ASN:362:C:3172, V-A:ASN:362:CA:3174, V-A:LEU:363:CA:3185"]

$$$$
4bk_Grossjean_2025
     RDKit          3D

 28 29  0  0  0  0  0  0  0  0999 V2000
  132.3590  125.4910   63.4430 C   0  0  0  0  0  0  0  0  0  0  0  0
  133.5530  124.7610   63.2110 O   0  0  0  0  0  0  0  0  0  0  0  0
  133.5540  124.0540   61.9780 C   0  0  0  0  0  0  0  0  0  0  0  0
  132.1130  123.6950   61.5930 C   0  0  0  0  0  0  0  0  0  0  0  0
  131.9140  122.2980   61.7610 O   0  0  0  0  0  0  0  0  0  0  0  0
  131.0310  121.7240   60.8060 C   0  0  0  0  0  0  0  0  0  0  0  0
  129.6790  121.4350   61.4710 C   0  0  0  0  0  0  0  0  0  0  0  0
  129.6700  121.9900   62.7790 O   0  0  0  0  0  0  0  0  0  0  0  0
  128.9580  123.2180   62.8770 C   0  0  0  0  0  0  0  0  0  0  0  0
  127.6390  123.1070   62.0950 C   0  0  0  0  0  0  0  0  0  0  0  0
  127.0690  124.4010   61.7160 N   0  0  0  0  0  0  0  0  0  0  0  0
  127.6500  125.2970   60.8910 C   0  0  0  0  0  0  0  0  0  0  0  0
  128.7370  125.0880   60.3500 O   0  0  0  0  0  0  0  0  0  0  0  0
  126.9070  126.5370   60.6620 C   0  0  0  0  0  0  0  0  0  0  0  0
  126.3900  126.9700   59.0350 S   0  0  0  0  0  0  0  0  0  0  0  0
  125.6260  128.4290   59.6190 C   0  0  0  0  0  0  0  0  0  0  0  0
  125.0020  129.2670   58.7910 N   0  0  0  0  0  0  0  0  0  0  0  0
  124.4460  130.3610   59.3610 C   0  0  0  0  0  0  0  0  0  0  0  0
  123.7390  131.3000   58.3990 C   0  0  0  0  0  0  0  0  0  0  0  0
  124.5000  130.6360   60.7250 C   0  0  0  0  0  0  0  0  0  0  0  0
  125.1570  129.7590   61.6020 C   0  0  0  0  0  0  0  0  0  0  0  0
  125.1920  130.1050   63.0940 C   0  0  0  0  0  0  0  0  0  0  0  0
  124.5170  129.2360   63.8480 F   0  0  0  0  0  0  0  0  0  0  0  0
  126.4540  130.1130   63.5250 F   0  0  0  0  0  0  0  0  0  0  0  0
  124.6530  131.3070   63.2910 F   0  0  0  0  0  0  0  0  0  0  0  0
  125.7520  128.5930   61.0340 C   0  0  0  0  0  0  0  0  0  0  0  0
  126.4880  127.4910   61.6020 C   0  0  0  0  0  0  0  0  0  0  0  0
  126.7540  127.3890   62.9430 N   0  0  0  0  0  0  0  0  0  0  0  0
  1  2  1  0
  2  3  1  0
  3  4  1  0
  4  5  1  0
  5  6  1  0
  6  7  1  0
  7  8  1  0
  8  9  1  0
  9 10  1  0
 10 11  1  0
 11 12  1  0
 12 13  2  0
 12 14  1  0
 14 15  1  0
 15 16  1  0
 16 17  2  0
 17 18  1  0
 18 19  1  0
 18 20  2  0
 20 21  1  0
 21 22  1  0
 22 23  1  0
 22 24  1  0
 22 25  1  0
 21 26  2  0
 26 27  1  0
 27 28  1  0
 27 14  2  0
 26 16  1  0
M  END
>  <Binding energies>  (54) 
[-4.74]

>  <Ligand effiencies>  (54) 
[-0.15290322580645163]

>  <Interactions>  (54) 
["V-B:ALA:541:CB:9864, V-B:TYR:539:CD2:9846, V-B:GLU:543:CG:9879, V-A:TYR:484:CZ:4347, H-B:GLU:543:OE2:9882, V-A:TYR:484:CE1:4345, V-A:LEU:475:CD2:4259, V-B:GLU:543:CD:9880, H-B:GLU:543:OE1:9881, V-B:TYR:539:CE2:9848, V-A:ARG:545:CZ:4926, H-A:TYR:484:OH:4348, V-A:TYR:539:CE1:4875, V-B:ILE:369:CG2:8209, V-B:ARG:545:CZ:9898, V-B:GLY:454:CA:9021, V-A:ILE:369:CD1:3239, V-B:ASP:366:CG:8185, V-B:ILE:369:CB:8208, V-B:ASP:366:CA:8182, V-B:ASP:366:CB:8184, H-A:GLY:454:N:4050, V-B:ASP:366:C:8180, H-B:ASP:366:OD2:8187, H-A:ARG:545:NH2:4928"]

$$$$
4cd_Grossjean_2025
     RDKit          3D

 29 32  0  0  0  0  0  0  0  0999 V2000
  131.5260  126.7170   61.8830 N   0  0  0  0  0  0  0  0  0  0  0  0
  130.5720  125.7340   61.7960 C   0  0  0  0  0  0  0  0  0  0  0  0
  129.1960  125.9850   61.9210 C   0  0  0  0  0  0  0  0  0  0  0  0
  128.5190  127.2600   62.1730 C   0  0  0  0  0  0  0  0  0  0  0  0
  129.0870  128.3290   61.9440 O   0  0  0  0  0  0  0  0  0  0  0  0
  127.2560  127.1620   62.6540 N   0  0  0  0  0  0  0  0  0  0  0  0
  126.3640  128.1780   63.0440 C   0  0  0  0  0  0  0  0  0  0  0  0
  125.7490  128.8850   62.0070 C   0  0  0  0  0  0  0  0  0  0  0  0
  124.8400  129.9000   62.2910 C   0  0  0  0  0  0  0  0  0  0  0  0
  124.5380  130.2050   63.6150 C   0  0  0  0  0  0  0  0  0  0  0  0
  125.1320  129.5000   64.6580 C   0  0  0  0  0  0  0  0  0  0  0  0
  126.0430  128.4830   64.3780 C   0  0  0  0  0  0  0  0  0  0  0  0
  128.2620  124.5010   61.7470 S   0  0  0  0  0  0  0  0  0  0  0  0
  129.7150  123.5580   61.5190 C   0  0  0  0  0  0  0  0  0  0  0  0
  129.6670  122.2420   61.3240 N   0  0  0  0  0  0  0  0  0  0  0  0
  130.8510  121.5930   61.1710 C   0  0  0  0  0  0  0  0  0  0  0  0
  130.7640  120.1100   60.9560 C   0  0  0  0  0  0  0  0  0  0  0  0
  131.6910  119.4480   60.1340 C   0  0  0  0  0  0  0  0  0  0  0  0
  131.6170  118.0730   59.9310 C   0  0  0  0  0  0  0  0  0  0  0  0
  130.6120  117.3370   60.5490 C   0  0  0  0  0  0  0  0  0  0  0  0
  129.6840  117.9670   61.3710 C   0  0  0  0  0  0  0  0  0  0  0  0
  129.7620  119.3420   61.5730 C   0  0  0  0  0  0  0  0  0  0  0  0
  132.0740  122.2700   61.1940 C   0  0  0  0  0  0  0  0  0  0  0  0
  132.1350  123.6590   61.3950 C   0  0  0  0  0  0  0  0  0  0  0  0
  133.5100  124.3370   61.4120 C   0  0  0  0  0  0  0  0  0  0  0  0
  133.6800  125.1500   62.4580 F   0  0  0  0  0  0  0  0  0  0  0  0
  134.4690  123.4130   61.4660 F   0  0  0  0  0  0  0  0  0  0  0  0
  133.6660  125.0700   60.3090 F   0  0  0  0  0  0  0  0  0  0  0  0
  130.9020  124.3480   61.5690 C   0  0  0  0  0  0  0  0  0  0  0  0
  1  2  1  0
  2  3  2  0
  3  4  1  0
  4  5  2  0
  4  6  1  0
  6  7  1  0
  7  8  2  0
  8  9  1  0
  9 10  2  0
 10 11  1  0
 11 12  2  0
  3 13  1  0
 13 14  1  0
 14 15  2  0
 15 16  1  0
 16 17  1  0
 17 18  2  0
 18 19  1  0
 19 20  2  0
 20 21  1  0
 21 22  2  0
 16 23  2  0
 23 24  1  0
 24 25  1  0
 25 26  1  0
 25 27  1  0
 25 28  1  0
 24 29  2  0
 29  2  1  0
 12  7  1  0
 29 14  1  0
 22 17  1  0
M  END
>  <Binding energies>  (55) 
[-7.17]

>  <Ligand effiencies>  (55) 
[-0.2240625]

>  <Interactions>  (55) 
["V-B:ALA:541:CB:9864, V-B:TYR:539:CD2:9846, H-B:GLU:543:OE2:9882, V-A:PRO:482:CG:4327, V-A:PRO:482:CB:4326, V-A:LEU:475:CD1:4258, V-A:LEU:475:CD2:4259, V-B:GLU:543:CD:9880, V-A:SER:385:CB:3409, H-B:GLU:543:OE1:9881, V-B:TYR:539:CE2:9848, H-A:GLU:543:OE2:4910, V-A:GLU:543:CD:4908, H-A:GLU:543:OE1:4909, V-A:ARG:545:CZ:4926, V-B:ARG:545:CZ:9898, H-A:ASP:366:OD1:3214, V-A:ASP:366:CG:3213, V-A:LEU:475:CG:4257, V-A:GLY:454:CA:4049, V-A:ILE:369:CD1:3239, V-A:GLY:453:CA:4044, V-A:GLY:453:C:4042, H-A:ASP:366:OD2:3215, V-B:ASP:366:CG:8185, V-A:ASP:366:CB:3212, V-A:ASP:366:CA:3210"]

$$$$
4cg_Grossjean_2025
     RDKit          3D

 30 33  0  0  0  0  0  0  0  0999 V2000
  130.9870  126.9930   62.3340 N   0  0  0  0  0  0  0  0  0  0  0  0
  130.1210  125.9890   61.9850 C   0  0  0  0  0  0  0  0  0  0  0  0
  128.7530  126.2000   61.7560 C   0  0  0  0  0  0  0  0  0  0  0  0
  128.0070  127.4570   61.7870 C   0  0  0  0  0  0  0  0  0  0  0  0
  128.3570  128.4290   61.1150 O   0  0  0  0  0  0  0  0  0  0  0  0
  126.9450  127.4950   62.6200 N   0  0  0  0  0  0  0  0  0  0  0  0
  126.0460  128.6330   62.7960 C   0  0  0  0  0  0  0  0  0  0  0  0
  125.6030  128.8400   64.2400 C   0  0  0  0  0  0  0  0  0  0  0  0
  124.3820  129.4640   64.5090 C   0  0  0  0  0  0  0  0  0  0  0  0
  123.9590  129.6260   65.8260 C   0  0  0  0  0  0  0  0  0  0  0  0
  124.7540  129.1550   66.8680 C   0  0  0  0  0  0  0  0  0  0  0  0
  125.9650  128.5170   66.6060 C   0  0  0  0  0  0  0  0  0  0  0  0
  126.3870  128.3530   65.2890 C   0  0  0  0  0  0  0  0  0  0  0  0
  127.9390  124.7040   61.3080 S   0  0  0  0  0  0  0  0  0  0  0  0
  129.4290  123.8010   61.4510 C   0  0  0  0  0  0  0  0  0  0  0  0
  129.4730  122.4930   61.2190 N   0  0  0  0  0  0  0  0  0  0  0  0
  130.6770  121.8760   61.3510 C   0  0  0  0  0  0  0  0  0  0  0  0
  130.6920  120.3980   61.0840 C   0  0  0  0  0  0  0  0  0  0  0  0
  129.7480  119.5470   61.6810 C   0  0  0  0  0  0  0  0  0  0  0  0
  129.7590  118.1770   61.4380 C   0  0  0  0  0  0  0  0  0  0  0  0
  130.7200  117.6340   60.5910 C   0  0  0  0  0  0  0  0  0  0  0  0
  131.6690  118.4520   59.9890 C   0  0  0  0  0  0  0  0  0  0  0  0
  131.6540  119.8220   60.2350 C   0  0  0  0  0  0  0  0  0  0  0  0
  131.8260  122.5770   61.7330 C   0  0  0  0  0  0  0  0  0  0  0  0
  131.7910  123.9580   61.9810 C   0  0  0  0  0  0  0  0  0  0  0  0
  133.0880  124.6630   62.3970 C   0  0  0  0  0  0  0  0  0  0  0  0
  133.1400  124.9350   63.7030 F   0  0  0  0  0  0  0  0  0  0  0  0
  134.1340  123.8890   62.1080 F   0  0  0  0  0  0  0  0  0  0  0  0
  133.2020  125.8180   61.7450 F   0  0  0  0  0  0  0  0  0  0  0  0
  130.5360  124.6160   61.8310 C   0  0  0  0  0  0  0  0  0  0  0  0
  1  2  1  0
  2  3  2  0
  3  4  1  0
  4  5  2  0
  4  6  1  0
  6  7  1  0
  7  8  1  0
  8  9  2  0
  9 10  1  0
 10 11  2  0
 11 12  1  0
 12 13  2  0
  3 14  1  0
 14 15  1  0
 15 16  2  0
 16 17  1  0
 17 18  1  0
 18 19  2  0
 19 20  1  0
 20 21  2  0
 21 22  1  0
 22 23  2  0
 17 24  2  0
 24 25  1  0
 25 26  1  0
 26 27  1  0
 26 28  1  0
 26 29  1  0
 25 30  2  0
 30  2  1  0
 13  8  1  0
 30 15  1  0
 23 18  1  0
M  END
>  <Binding energies>  (56) 
[-7.84]

>  <Ligand effiencies>  (56) 
[-0.23757575757575758]

>  <Interactions>  (56) 
["V-B:ALA:541:CB:9864, V-B:TYR:539:CD2:9846, V-A:TYR:484:CZ:4347, H-B:GLU:543:OE2:9882, V-A:PRO:482:CG:4327, V-A:PRO:482:CB:4326, V-A:LEU:475:CD1:4258, V-A:LEU:475:CD2:4259, V-B:GLU:543:CD:9880, V-A:SER:385:CB:3409, H-B:GLU:543:OE1:9881, V-B:TYR:539:CE2:9848, H-A:GLU:543:OE2:4910, V-A:GLU:543:CD:4908, H-A:GLU:543:OE1:4909, V-A:ARG:545:CZ:4926, V-B:ARG:545:CZ:9898, V-B:GLY:453:C:9014, V-B:GLY:454:CA:9021, V-B:GLY:453:CA:9016, V-B:ARG:545:CD:9895, V-B:HIS:456:CE1:9042, V-B:ARG:545:CG:9894, H-A:ASP:366:OD1:3214, V-A:ASP:366:CG:3213, V-A:LEU:475:CG:4257, V-A:GLY:454:CA:4049, V-A:ILE:369:CD1:3239, V-A:GLY:453:CA:4044, V-A:GLY:453:C:4042, V-B:TYR:484:CE1:9317, V-B:TYR:484:CZ:9319"]

$$$$
4ch_Grossjean_2025
     RDKit          3D

 36 39  0  0  0  0  0  0  0  0999 V2000
  124.3330  132.4560   60.7010 C   0  0  0  0  0  0  0  0  0  0  0  0
  125.4690  133.0340   61.3350 O   0  0  0  0  0  0  0  0  0  0  0  0
  126.4720  132.2090   61.8110 C   0  0  0  0  0  0  0  0  0  0  0  0
  126.2440  131.0780   62.6100 C   0  0  0  0  0  0  0  0  0  0  0  0
  127.3060  130.2890   63.0540 C   0  0  0  0  0  0  0  0  0  0  0  0
  127.0400  129.0800   63.9440 C   0  0  0  0  0  0  0  0  0  0  0  0
  127.7490  127.8660   63.5360 N   0  0  0  0  0  0  0  0  0  0  0  0
  127.6820  127.2910   62.3180 C   0  0  0  0  0  0  0  0  0  0  0  0
  127.0150  127.7670   61.3960 O   0  0  0  0  0  0  0  0  0  0  0  0
  128.4800  126.0790   62.1360 C   0  0  0  0  0  0  0  0  0  0  0  0
  127.6920  124.5520   61.7500 S   0  0  0  0  0  0  0  0  0  0  0  0
  129.2290  123.7250   61.6830 C   0  0  0  0  0  0  0  0  0  0  0  0
  129.3070  122.4240   61.4160 N   0  0  0  0  0  0  0  0  0  0  0  0
  130.5470  121.8690   61.3790 C   0  0  0  0  0  0  0  0  0  0  0  0
  130.5990  120.3980   61.0810 C   0  0  0  0  0  0  0  0  0  0  0  0
  129.6730  119.5140   61.6590 C   0  0  0  0  0  0  0  0  0  0  0  0
  129.7170  118.1490   61.3880 C   0  0  0  0  0  0  0  0  0  0  0  0
  130.6920  117.6460   60.5330 C   0  0  0  0  0  0  0  0  0  0  0  0
  131.6240  118.4980   59.9510 C   0  0  0  0  0  0  0  0  0  0  0  0
  131.5770  119.8620   60.2260 C   0  0  0  0  0  0  0  0  0  0  0  0
  131.7000  122.6200   61.6280 C   0  0  0  0  0  0  0  0  0  0  0  0
  131.6300  123.9940   61.9120 C   0  0  0  0  0  0  0  0  0  0  0  0
  132.9320  124.7570   62.1750 C   0  0  0  0  0  0  0  0  0  0  0  0
  134.0250  124.0200   61.9590 F   0  0  0  0  0  0  0  0  0  0  0  0
  133.0040  125.8180   61.3730 F   0  0  0  0  0  0  0  0  0  0  0  0
  132.9700  125.1620   63.4440 F   0  0  0  0  0  0  0  0  0  0  0  0
  130.3360  124.5880   61.9400 C   0  0  0  0  0  0  0  0  0  0  0  0
  129.8760  125.9340   62.1850 C   0  0  0  0  0  0  0  0  0  0  0  0
  130.7290  126.9740   62.4510 N   0  0  0  0  0  0  0  0  0  0  0  0
  128.6130  130.6390   62.7130 C   0  0  0  0  0  0  0  0  0  0  0  0
  128.8710  131.7660   61.9160 C   0  0  0  0  0  0  0  0  0  0  0  0
  130.1390  132.1700   61.5390 O   0  0  0  0  0  0  0  0  0  0  0  0
  131.0600  131.2060   61.0390 C   0  0  0  0  0  0  0  0  0  0  0  0
  127.7910  132.5390   61.4660 C   0  0  0  0  0  0  0  0  0  0  0  0
  128.0300  133.6530   60.6980 O   0  0  0  0  0  0  0  0  0  0  0  0
  127.8080  134.8820   61.3760 C   0  0  0  0  0  0  0  0  0  0  0  0
  1  2  1  0
  2  3  1  0
  3  4  2  0
  4  5  1  0
  5  6  1  0
  6  7  1  0
  7  8  1  0
  8  9  2  0
  8 10  1  0
 10 11  1  0
 11 12  1  0
 12 13  2  0
 13 14  1  0
 14 15  1  0
 15 16  2  0
 16 17  1  0
 17 18  2  0
 18 19  1  0
 19 20  2  0
 14 21  2  0
 21 22  1  0
 22 23  1  0
 23 24  1  0
 23 25  1  0
 23 26  1  0
 22 27  2  0
 27 28  1  0
 28 29  1  0
  5 30  2  0
 30 31  1  0
 31 32  1  0
 32 33  1  0
 31 34  2  0
 34 35  1  0
 35 36  1  0
 34  3  1  0
 28 10  2  0
 27 12  1  0
 20 15  1  0
M  END
>  <Binding energies>  (57) 
[-7.5]

>  <Ligand effiencies>  (57) 
[-0.19230769230769232]

>  <Interactions>  (57) 
["V-B:ALA:541:CB:9864, V-B:TYR:539:CD2:9846, H-B:GLU:543:OE2:9882, V-A:PRO:482:CG:4327, V-A:PRO:482:CB:4326, V-A:LEU:475:CD1:4258, V-A:LEU:475:CD2:4259, V-B:GLU:543:CD:9880, V-A:SER:385:CB:3409, H-B:GLU:543:OE1:9881, V-B:TYR:539:CE2:9848, H-A:GLU:543:OE2:4910, V-A:GLU:543:CD:4908, H-A:GLU:543:OE1:4909, V-A:ARG:545:CZ:4926, V-B:ILE:369:CD1:8211, V-A:PRO:540:CA:4883, V-A:ALA:541:CB:4892, V-A:GLU:543:CG:4907, V-B:LEU:475:CD2:9231, V-A:ALA:541:CA:4890, H-A:ALA:541:N:4891, H-A:ASP:366:OD1:3214, V-A:ASP:366:CG:3213, V-A:LEU:475:CG:4257, V-A:GLY:454:CA:4049, V-A:ILE:369:CD1:3239, V-A:GLY:453:CA:4044, V-A:GLY:453:C:4042"]

$$$$
4cj_Grossjean_2025
     RDKit          3D

 28 31  0  0  0  0  0  0  0  0999 V2000
  130.7690  126.9840   62.3200 N   0  0  0  0  0  0  0  0  0  0  0  0
  129.9280  125.9520   61.9880 C   0  0  0  0  0  0  0  0  0  0  0  0
  128.5510  126.1220   61.7710 C   0  0  0  0  0  0  0  0  0  0  0  0
  127.7610  127.3530   61.8370 C   0  0  0  0  0  0  0  0  0  0  0  0
  127.9270  128.2550   61.0130 O   0  0  0  0  0  0  0  0  0  0  0  0
  126.8670  127.4180   62.8550 N   0  0  0  0  0  0  0  0  0  0  0  0
  126.0020  128.4660   63.1400 C   0  0  0  0  0  0  0  0  0  0  0  0
  125.4310  129.2940   62.2920 N   0  0  0  0  0  0  0  0  0  0  0  0
  124.6640  130.1690   62.9110 C   0  0  0  0  0  0  0  0  0  0  0  0
  124.6000  130.0600   64.2970 C   0  0  0  0  0  0  0  0  0  0  0  0
  125.6030  128.7340   64.8070 S   0  0  0  0  0  0  0  0  0  0  0  0
  127.7800  124.5940   61.3520 S   0  0  0  0  0  0  0  0  0  0  0  0
  129.3020  123.7420   61.4720 C   0  0  0  0  0  0  0  0  0  0  0  0
  129.3850  122.4340   61.2430 N   0  0  0  0  0  0  0  0  0  0  0  0
  130.6100  121.8600   61.3520 C   0  0  0  0  0  0  0  0  0  0  0  0
  130.6720  120.3850   61.0740 C   0  0  0  0  0  0  0  0  0  0  0  0
  129.7510  119.5040   61.6640 C   0  0  0  0  0  0  0  0  0  0  0  0
  129.8060  118.1350   61.4150 C   0  0  0  0  0  0  0  0  0  0  0  0
  130.7880  117.6260   60.5700 C   0  0  0  0  0  0  0  0  0  0  0  0
  131.7120  118.4760   59.9750 C   0  0  0  0  0  0  0  0  0  0  0  0
  131.6530  119.8440   60.2260 C   0  0  0  0  0  0  0  0  0  0  0  0
  131.7420  122.5980   61.7160 C   0  0  0  0  0  0  0  0  0  0  0  0
  131.6650  123.9780   61.9630 C   0  0  0  0  0  0  0  0  0  0  0  0
  132.9450  124.7260   62.3540 C   0  0  0  0  0  0  0  0  0  0  0  0
  134.0520  124.0070   62.1610 F   0  0  0  0  0  0  0  0  0  0  0  0
  133.0570  125.8360   61.6260 F   0  0  0  0  0  0  0  0  0  0  0  0
  132.9000  125.0510   63.6470 F   0  0  0  0  0  0  0  0  0  0  0  0
  130.3870  124.5930   61.8320 C   0  0  0  0  0  0  0  0  0  0  0  0
  1  2  1  0
  2  3  2  0
  3  4  1  0
  4  5  2  0
  4  6  1  0
  6  7  1  0
  7  8  2  0
  8  9  1  0
  9 10  2  0
 10 11  1  0
  3 12  1  0
 12 13  1  0
 13 14  2  0
 14 15  1  0
 15 16  1  0
 16 17  2  0
 17 18  1  0
 18 19  2  0
 19 20  1  0
 20 21  2  0
 15 22  2  0
 22 23  1  0
 23 24  1  0
 24 25  1  0
 24 26  1  0
 24 27  1  0
 23 28  2  0
 28  2  1  0
 11  7  1  0
 28 13  1  0
 21 16  1  0
M  END
>  <Binding energies>  (58) 
[-6.89]

>  <Ligand effiencies>  (58) 
[-0.22225806451612903]

>  <Interactions>  (58) 
["V-B:ALA:541:CB:9864, V-B:TYR:539:CD2:9846, V-A:TYR:484:CZ:4347, H-B:GLU:543:OE2:9882, V-A:PRO:482:CG:4327, V-A:PRO:482:CB:4326, V-A:LEU:475:CD1:4258, V-A:LEU:475:CD2:4259, V-B:GLU:543:CD:9880, V-A:SER:385:CB:3409, H-B:GLU:543:OE1:9881, V-B:TYR:539:CE2:9848, H-A:GLU:543:OE2:4910, V-A:GLU:543:CD:4908, H-A:GLU:543:OE1:4909, V-A:ARG:545:CZ:4926, V-B:ARG:545:CZ:9898, V-B:GLY:454:CA:9021, H-A:ASP:366:OD1:3214, V-A:ASP:366:CG:3213, V-A:LEU:475:CG:4257, V-A:GLY:454:CA:4049, V-A:ILE:369:CD1:3239, V-A:GLY:453:CA:4044, V-A:GLY:453:C:4042, H-B:ARG:545:NH2:9900"]

$$$$
4ck_Grossjean_2025
     RDKit          3D

 33 35  0  0  0  0  0  0  0  0999 V2000
  123.4600  129.6020   67.3730 C   0  0  0  0  0  0  0  0  0  0  0  0
  123.7520  129.9240   66.0230 O   0  0  0  0  0  0  0  0  0  0  0  0
  124.7930  129.1350   65.4660 C   0  0  0  0  0  0  0  0  0  0  0  0
  124.7910  129.3060   63.9410 C   0  0  0  0  0  0  0  0  0  0  0  0
  124.5540  130.6710   63.6280 O   0  0  0  0  0  0  0  0  0  0  0  0
  125.2120  131.1050   62.4450 C   0  0  0  0  0  0  0  0  0  0  0  0
  125.8240  129.8890   61.7370 C   0  0  0  0  0  0  0  0  0  0  0  0
  126.9920  130.3060   61.0410 O   0  0  0  0  0  0  0  0  0  0  0  0
  128.1500  130.3890   61.8620 C   0  0  0  0  0  0  0  0  0  0  0  0
  128.0010  129.4420   63.0620 C   0  0  0  0  0  0  0  0  0  0  0  0
  128.5730  128.1220   62.7950 N   0  0  0  0  0  0  0  0  0  0  0  0
  127.8770  127.0010   62.5130 C   0  0  0  0  0  0  0  0  0  0  0  0
  126.6480  126.9860   62.4220 O   0  0  0  0  0  0  0  0  0  0  0  0
  128.6710  125.7900   62.3070 C   0  0  0  0  0  0  0  0  0  0  0  0
  127.8900  124.2980   61.7890 S   0  0  0  0  0  0  0  0  0  0  0  0
  129.4240  123.4630   61.7330 C   0  0  0  0  0  0  0  0  0  0  0  0
  129.5070  122.1840   61.3770 N   0  0  0  0  0  0  0  0  0  0  0  0
  130.7430  121.6200   61.3640 C   0  0  0  0  0  0  0  0  0  0  0  0
  130.8040  120.1810   60.9400 C   0  0  0  0  0  0  0  0  0  0  0  0
  129.8500  119.2560   61.3940 C   0  0  0  0  0  0  0  0  0  0  0  0
  129.9020  117.9190   61.0070 C   0  0  0  0  0  0  0  0  0  0  0  0
  130.9130  117.4870   60.1550 C   0  0  0  0  0  0  0  0  0  0  0  0
  131.8680  118.3820   59.6860 C   0  0  0  0  0  0  0  0  0  0  0  0
  131.8110  119.7180   60.0750 C   0  0  0  0  0  0  0  0  0  0  0  0
  131.8900  122.3460   61.6990 C   0  0  0  0  0  0  0  0  0  0  0  0
  131.8140  123.6960   62.0770 C   0  0  0  0  0  0  0  0  0  0  0  0
  133.1120  124.4310   62.4370 C   0  0  0  0  0  0  0  0  0  0  0  0
  133.2200  124.6940   63.7400 F   0  0  0  0  0  0  0  0  0  0  0  0
  134.1620  123.6870   62.0900 F   0  0  0  0  0  0  0  0  0  0  0  0
  133.1630  125.5950   61.7890 F   0  0  0  0  0  0  0  0  0  0  0  0
  130.5230  124.2960   62.0970 C   0  0  0  0  0  0  0  0  0  0  0  0
  130.0610  125.6260   62.4130 C   0  0  0  0  0  0  0  0  0  0  0  0
  130.9080  126.6380   62.7890 N   0  0  0  0  0  0  0  0  0  0  0  0
  1  2  1  0
  2  3  1  0
  3  4  1  0
  4  5  1  0
  5  6  1  0
  6  7  1  0
  7  8  1  0
  8  9  1  0
  9 10  1  0
 10 11  1  0
 11 12  1  0
 12 13  2  0
 12 14  1  0
 14 15  1  0
 15 16  1  0
 16 17  2  0
 17 18  1  0
 18 19  1  0
 19 20  2  0
 20 21  1  0
 21 22  2  0
 22 23  1  0
 23 24  2  0
 18 25  2  0
 25 26  1  0
 26 27  1  0
 27 28  1  0
 27 29  1  0
 27 30  1  0
 26 31  2  0
 31 32  1  0
 32 33  1  0
 32 14  2  0
 31 16  1  0
 24 19  1  0
M  END
>  <Binding energies>  (59) 
[-6.47]

>  <Ligand effiencies>  (59) 
[-0.17972222222222223]

>  <Interactions>  (59) 
["V-B:ALA:541:CB:9864, V-B:TYR:539:CD2:9846, V-A:TYR:484:CZ:4347, V-A:PRO:482:CG:4327, V-A:PRO:482:CB:4326, V-B:TYR:539:C:9839, V-A:LEU:475:CD1:4258, V-A:LEU:475:CD2:4259, V-B:GLU:543:CD:9880, V-A:SER:385:CB:3409, V-B:TYR:539:CE2:9848, H-A:GLU:543:OE2:4910, V-A:GLU:543:CD:4908, H-A:GLU:543:OE1:4909, V-A:ARG:545:CZ:4926, V-B:ARG:545:CZ:9898, H-B:GLY:454:N:9022, H-B:TYR:484:OH:9320, V-B:ILE:455:C:9024, V-B:ARG:545:CD:9895, V-B:HIS:456:CE1:9042, V-B:ARG:545:CG:9894, V-B:ARG:545:CB:9893, H-A:ASP:366:OD1:3214, V-A:ASP:366:CG:3213, V-A:GLY:454:CA:4049, V-A:ILE:369:CD1:3239, V-A:GLY:453:CA:4044, V-A:GLY:453:C:4042, V-B:TYR:484:CE1:9317, H-B:ARG:545:NH2:9900, V-B:TYR:539:CB:9843"]

$$$$
4dd_Grossjean_2025
     RDKit          3D

 26 29  0  0  0  0  0  0  0  0999 V2000
  133.4540  124.3660   61.4550 C   0  0  0  0  0  0  0  0  0  0  0  0
  132.0950  123.6830   61.4160 C   0  0  0  0  0  0  0  0  0  0  0  0
  132.0580  122.2990   61.2100 C   0  0  0  0  0  0  0  0  0  0  0  0
  130.8390  121.6110   61.1640 C   0  0  0  0  0  0  0  0  0  0  0  0
  130.7690  120.1300   60.9400 C   0  0  0  0  0  0  0  0  0  0  0  0
  129.7770  119.3540   61.5620 C   0  0  0  0  0  0  0  0  0  0  0  0
  129.7040  117.9790   61.3560 C   0  0  0  0  0  0  0  0  0  0  0  0
  130.6270  117.3570   60.5230 C   0  0  0  0  0  0  0  0  0  0  0  0
  131.6190  118.1000   59.8920 C   0  0  0  0  0  0  0  0  0  0  0  0
  131.6870  119.4760   60.1000 C   0  0  0  0  0  0  0  0  0  0  0  0
  129.6460  122.2520   61.3030 N   0  0  0  0  0  0  0  0  0  0  0  0
  129.6810  123.5690   61.5050 C   0  0  0  0  0  0  0  0  0  0  0  0
  128.2240  124.5130   61.7170 S   0  0  0  0  0  0  0  0  0  0  0  0
  129.1590  125.9980   61.9100 C   0  0  0  0  0  0  0  0  0  0  0  0
  128.4830  127.2730   62.1570 C   0  0  0  0  0  0  0  0  0  0  0  0
  129.0580  128.3410   61.9400 O   0  0  0  0  0  0  0  0  0  0  0  0
  127.2130  127.1760   62.6200 N   0  0  0  0  0  0  0  0  0  0  0  0
  126.3190  128.1920   63.0030 C   0  0  0  0  0  0  0  0  0  0  0  0
  125.7070  128.8940   61.9600 C   0  0  0  0  0  0  0  0  0  0  0  0
  124.7950  129.9090   62.2360 C   0  0  0  0  0  0  0  0  0  0  0  0
  124.4870  130.2190   63.5580 C   0  0  0  0  0  0  0  0  0  0  0  0
  125.0790  129.5200   64.6060 C   0  0  0  0  0  0  0  0  0  0  0  0
  125.9920  128.5040   64.3340 C   0  0  0  0  0  0  0  0  0  0  0  0
  130.5360  125.7460   61.8040 C   0  0  0  0  0  0  0  0  0  0  0  0
  131.5010  126.7170   61.9080 N   0  0  0  0  0  0  0  0  0  0  0  0
  130.8600  124.3630   61.5750 C   0  0  0  0  0  0  0  0  0  0  0  0
  1  2  1  0
  2  3  2  0
  3  4  1  0
  4  5  1  0
  5  6  2  0
  6  7  1  0
  7  8  2  0
  8  9  1  0
  9 10  2  0
  4 11  2  0
 11 12  1  0
 12 13  1  0
 13 14  1  0
 14 15  1  0
 15 16  2  0
 15 17  1  0
 17 18  1  0
 18 19  2  0
 19 20  1  0
 20 21  2  0
 21 22  1  0
 22 23  2  0
 14 24  2  0
 24 25  1  0
 24 26  1  0
 26  2  1  0
 10  5  1  0
 26 12  2  0
 23 18  1  0
M  END
>  <Binding energies>  (60) 
[-7.5]

>  <Ligand effiencies>  (60) 
[-0.25862068965517243]

>  <Interactions>  (60) 
["V-B:ALA:541:CB:9864, V-B:TYR:539:CD2:9846, H-B:GLU:543:OE2:9882, V-A:PRO:482:CG:4327, V-A:PRO:482:CB:4326, V-A:LEU:475:CD1:4258, V-A:LEU:475:CD2:4259, V-B:GLU:543:CD:9880, V-A:SER:385:CB:3409, H-B:GLU:543:OE1:9881, V-B:TYR:539:CE2:9848, H-A:GLU:543:OE2:4910, V-A:GLU:543:CD:4908, H-A:GLU:543:OE1:4909, V-A:ARG:545:CZ:4926, V-B:ARG:545:CZ:9898, H-A:ASP:366:OD1:3214, V-A:ASP:366:CG:3213, V-A:LEU:475:CG:4257, V-A:ILE:369:CD1:3239, H-A:ASP:366:OD2:3215, V-B:ASP:366:CG:8185"]

$$$$
4dg_Grossjean_2025
     RDKit          3D

 27 30  0  0  0  0  0  0  0  0999 V2000
  133.1640  124.4180   62.3440 C   0  0  0  0  0  0  0  0  0  0  0  0
  131.8790  123.6820   61.9970 C   0  0  0  0  0  0  0  0  0  0  0  0
  131.9690  122.3330   61.6340 C   0  0  0  0  0  0  0  0  0  0  0  0
  130.8230  121.5990   61.3030 C   0  0  0  0  0  0  0  0  0  0  0  0
  130.8870  120.1500   60.9110 C   0  0  0  0  0  0  0  0  0  0  0  0
  131.8720  119.6860   60.0230 C   0  0  0  0  0  0  0  0  0  0  0  0
  131.9330  118.3450   59.6530 C   0  0  0  0  0  0  0  0  0  0  0  0
  131.0080  117.4440   60.1680 C   0  0  0  0  0  0  0  0  0  0  0  0
  130.0200  117.8760   61.0470 C   0  0  0  0  0  0  0  0  0  0  0  0
  129.9620  119.2170   61.4130 C   0  0  0  0  0  0  0  0  0  0  0  0
  129.5810  122.1530   61.3380 N   0  0  0  0  0  0  0  0  0  0  0  0
  129.4940  123.4380   61.6830 C   0  0  0  0  0  0  0  0  0  0  0  0
  127.9610  124.2740   61.7610 S   0  0  0  0  0  0  0  0  0  0  0  0
  128.7520  125.7690   62.2570 C   0  0  0  0  0  0  0  0  0  0  0  0
  127.9640  126.9820   62.4690 C   0  0  0  0  0  0  0  0  0  0  0  0
  126.7470  127.0000   62.2700 O   0  0  0  0  0  0  0  0  0  0  0  0
  128.6550  128.0750   62.8530 N   0  0  0  0  0  0  0  0  0  0  0  0
  128.0750  129.3850   63.1430 C   0  0  0  0  0  0  0  0  0  0  0  0
  126.8670  129.3210   64.0710 C   0  0  0  0  0  0  0  0  0  0  0  0
  125.6050  129.6870   63.5930 C   0  0  0  0  0  0  0  0  0  0  0  0
  124.4940  129.5990   64.4280 C   0  0  0  0  0  0  0  0  0  0  0  0
  124.6460  129.1350   65.7320 C   0  0  0  0  0  0  0  0  0  0  0  0
  125.8980  128.7530   66.2100 C   0  0  0  0  0  0  0  0  0  0  0  0
  127.0090  128.8390   65.3750 C   0  0  0  0  0  0  0  0  0  0  0  0
  130.1430  125.6080   62.3360 C   0  0  0  0  0  0  0  0  0  0  0  0
  131.0090  126.6120   62.6860 N   0  0  0  0  0  0  0  0  0  0  0  0
  130.5920  124.2770   62.0240 C   0  0  0  0  0  0  0  0  0  0  0  0
  1  2  1  0
  2  3  2  0
  3  4  1  0
  4  5  1  0
  5  6  2  0
  6  7  1  0
  7  8  2  0
  8  9  1  0
  9 10  2  0
  4 11  2  0
 11 12  1  0
 12 13  1  0
 13 14  1  0
 14 15  1  0
 15 16  2  0
 15 17  1  0
 17 18  1  0
 18 19  1  0
 19 20  2  0
 20 21  1  0
 21 22  2  0
 22 23  1  0
 23 24  2  0
 14 25  2  0
 25 26  1  0
 25 27  1  0
 27  2  1  0
 10  5  1  0
 27 12  2  0
 24 19  1  0
M  END
>  <Binding energies>  (61) 
[-7.95]

>  <Ligand effiencies>  (61) 
[-0.265]

>  <Interactions>  (61) 
["V-B:ALA:541:CB:9864, V-B:TYR:539:CD2:9846, V-A:PRO:482:CG:4327, V-A:PRO:482:CB:4326, V-A:LEU:475:CD1:4258, V-A:LEU:475:CD2:4259, V-B:GLU:543:CD:9880, V-A:SER:385:CB:3409, V-B:TYR:539:CE2:9848, H-A:GLU:543:OE2:4910, V-A:GLU:543:CD:4908, H-A:GLU:543:OE1:4909, V-A:GLU:543:CG:4907, V-B:ARG:545:CZ:9898, V-B:ARG:545:CD:9895, V-B:HIS:456:CE1:9042, V-B:ARG:545:CG:9894, H-A:ASP:366:OD1:3214, V-A:LEU:475:CG:4257, V-B:TYR:484:CZ:9319, H-B:ARG:545:NH2:9900"]

$$$$
4dj_Grossjean_2025
     RDKit          3D

 25 28  0  0  0  0  0  0  0  0999 V2000
  133.3980  124.3480   61.7720 C   0  0  0  0  0  0  0  0  0  0  0  0
  132.0440  123.6700   61.6290 C   0  0  0  0  0  0  0  0  0  0  0  0
  132.0190  122.2910   61.3890 C   0  0  0  0  0  0  0  0  0  0  0  0
  130.8050  121.6070   61.2460 C   0  0  0  0  0  0  0  0  0  0  0  0
  130.7480  120.1270   60.9930 C   0  0  0  0  0  0  0  0  0  0  0  0
  131.6740  119.5050   60.1390 C   0  0  0  0  0  0  0  0  0  0  0  0
  131.6260  118.1350   59.9010 C   0  0  0  0  0  0  0  0  0  0  0  0
  130.6440  117.3620   60.5120 C   0  0  0  0  0  0  0  0  0  0  0  0
  129.7120  117.9520   61.3590 C   0  0  0  0  0  0  0  0  0  0  0  0
  129.7640  119.3220   61.5950 C   0  0  0  0  0  0  0  0  0  0  0  0
  129.6060  122.2420   61.3490 N   0  0  0  0  0  0  0  0  0  0  0  0
  129.6280  123.5550   61.5760 C   0  0  0  0  0  0  0  0  0  0  0  0
  128.1610  124.4960   61.7240 S   0  0  0  0  0  0  0  0  0  0  0  0
  129.0830  125.9770   61.9930 C   0  0  0  0  0  0  0  0  0  0  0  0
  128.3920  127.2510   62.1980 C   0  0  0  0  0  0  0  0  0  0  0  0
  128.9860  128.3220   62.0440 O   0  0  0  0  0  0  0  0  0  0  0  0
  127.0910  127.1570   62.5670 N   0  0  0  0  0  0  0  0  0  0  0  0
  126.2180  128.2050   62.8240 C   0  0  0  0  0  0  0  0  0  0  0  0
  125.4970  128.8860   61.9590 N   0  0  0  0  0  0  0  0  0  0  0  0
  124.7760  129.8160   62.5550 C   0  0  0  0  0  0  0  0  0  0  0  0
  124.9050  129.9030   63.9380 C   0  0  0  0  0  0  0  0  0  0  0  0
  126.0350  128.6960   64.4770 S   0  0  0  0  0  0  0  0  0  0  0  0
  130.4630  125.7260   61.9620 C   0  0  0  0  0  0  0  0  0  0  0  0
  131.4190  126.6950   62.1390 N   0  0  0  0  0  0  0  0  0  0  0  0
  130.8010  124.3480   61.7280 C   0  0  0  0  0  0  0  0  0  0  0  0
  1  2  1  0
  2  3  2  0
  3  4  1  0
  4  5  1  0
  5  6  2  0
  6  7  1  0
  7  8  2  0
  8  9  1  0
  9 10  2  0
  4 11  2  0
 11 12  1  0
 12 13  1  0
 13 14  1  0
 14 15  1  0
 15 16  2  0
 15 17  1  0
 17 18  1  0
 18 19  2  0
 19 20  1  0
 20 21  2  0
 21 22  1  0
 14 23  2  0
 23 24  1  0
 23 25  1  0
 25  2  1  0
 10  5  1  0
 25 12  2  0
 22 18  1  0
M  END
>  <Binding energies>  (62) 
[-6.96]

>  <Ligand effiencies>  (62) 
[-0.24857142857142858]

>  <Interactions>  (62) 
["V-B:ALA:541:CB:9864, V-B:TYR:539:CD2:9846, H-B:GLU:543:OE2:9882, V-A:PRO:482:CG:4327, V-A:PRO:482:CB:4326, V-A:LEU:475:CD1:4258, V-A:LEU:475:CD2:4259, V-B:GLU:543:CD:9880, V-A:SER:385:CB:3409, H-B:GLU:543:OE1:9881, V-B:TYR:539:CE2:9848, H-A:GLU:543:OE2:4910, V-A:GLU:543:CD:4908, H-A:GLU:543:OE1:4909, V-A:ARG:545:CZ:4926, V-B:ARG:545:CZ:9898, H-A:ASP:366:OD1:3214, V-A:LEU:475:CG:4257, H-A:ASP:366:OD2:3215, H-B:ARG:545:NH2:9900"]

$$$$
4ea_Grossjean_2025
     RDKit          3D

 31 34  0  0  0  0  0  0  0  0999 V2000
  131.6370  117.3460   58.7680 C   0  0  0  0  0  0  0  0  0  0  0  0
  130.9070  117.5390   60.1000 C   0  0  0  0  0  0  0  0  0  0  0  0
  130.9100  118.9170   60.4460 O   0  0  0  0  0  0  0  0  0  0  0  0
  130.0450  119.4120   61.3680 C   0  0  0  0  0  0  0  0  0  0  0  0
  129.3840  118.7000   62.1310 O   0  0  0  0  0  0  0  0  0  0  0  0
  129.9710  120.9110   61.3680 C   0  0  0  0  0  0  0  0  0  0  0  0
  128.7790  121.5370   61.7550 C   0  0  0  0  0  0  0  0  0  0  0  0
  128.6790  122.9250   61.7660 C   0  0  0  0  0  0  0  0  0  0  0  0
  129.7650  123.7160   61.3910 C   0  0  0  0  0  0  0  0  0  0  0  0
  129.5490  125.1070   61.4400 N   0  0  0  0  0  0  0  0  0  0  0  0
  130.2770  126.1280   60.9260 C   0  0  0  0  0  0  0  0  0  0  0  0
  131.3200  125.9840   60.2870 O   0  0  0  0  0  0  0  0  0  0  0  0
  129.7390  127.4680   61.1780 C   0  0  0  0  0  0  0  0  0  0  0  0
  130.2100  128.8280   60.1550 S   0  0  0  0  0  0  0  0  0  0  0  0
  129.2050  129.9270   61.0700 C   0  0  0  0  0  0  0  0  0  0  0  0
  129.1200  131.2230   60.7660 N   0  0  0  0  0  0  0  0  0  0  0  0
  128.3060  131.9680   61.5540 C   0  0  0  0  0  0  0  0  0  0  0  0
  128.2240  133.4390   61.1900 C   0  0  0  0  0  0  0  0  0  0  0  0
  127.5820  131.4530   62.6260 C   0  0  0  0  0  0  0  0  0  0  0  0
  127.6730  130.0930   62.9420 C   0  0  0  0  0  0  0  0  0  0  0  0
  126.8980  129.5600   64.0840 C   0  0  0  0  0  0  0  0  0  0  0  0
  125.5000  129.5990   64.0650 C   0  0  0  0  0  0  0  0  0  0  0  0
  124.7700  129.0960   65.1380 C   0  0  0  0  0  0  0  0  0  0  0  0
  125.4390  128.5570   66.2350 C   0  0  0  0  0  0  0  0  0  0  0  0
  126.8310  128.5180   66.2670 C   0  0  0  0  0  0  0  0  0  0  0  0
  127.5590  129.0210   65.1930 C   0  0  0  0  0  0  0  0  0  0  0  0
  128.5180  129.2770   62.1390 C   0  0  0  0  0  0  0  0  0  0  0  0
  128.8400  127.8740   62.1780 C   0  0  0  0  0  0  0  0  0  0  0  0
  128.3080  127.0260   63.1150 N   0  0  0  0  0  0  0  0  0  0  0  0
  130.9640  123.0980   61.0020 C   0  0  0  0  0  0  0  0  0  0  0  0
  131.0620  121.7100   60.9920 C   0  0  0  0  0  0  0  0  0  0  0  0
  1  2  1  0
  2  3  1  0
  3  4  1  0
  4  5  2  0
  4  6  1  0
  6  7  2  0
  7  8  1  0
  8  9  2  0
  9 10  1  0
 10 11  1  0
 11 12  2  0
 11 13  1  0
 13 14  1  0
 14 15  1  0
 15 16  2  0
 16 17  1  0
 17 18  1  0
 17 19  2  0
 19 20  1  0
 20 21  1  0
 21 22  2  0
 22 23  1  0
 23 24  2  0
 24 25  1  0
 25 26  2  0
 20 27  2  0
 27 28  1  0
 28 29  1  0
  9 30  1  0
 30 31  2  0
 31  6  1  0
 28 13  2  0
 27 15  1  0
 26 21  1  0
M  END
>  <Binding energies>  (63) 
[-7.33]

>  <Ligand effiencies>  (63) 
[-0.21558823529411764]

>  <Interactions>  (63) 
["V-B:ALA:541:CB:9864, V-B:TYR:539:CD2:9846, H-B:GLU:543:OE2:9882, V-A:LEU:475:CD1:4258, V-A:LEU:475:CD2:4259, V-B:GLU:543:CD:9880, V-A:SER:385:CB:3409, H-B:GLU:543:OE1:9881, V-B:TYR:539:CE2:9848, H-A:GLU:543:OE2:4910, V-A:GLU:543:CD:4908, V-B:PRO:540:C:9853, V-B:PRO:540:CA:9855, H-A:GLU:543:OE1:4909, V-A:ALA:541:CB:4892, V-A:GLU:543:CG:4907, V-B:ARG:545:CZ:9898, V-B:ARG:545:CD:9895, V-B:HIS:456:CE1:9042, V-B:ARG:545:CG:9894, V-B:TYR:539:CB:9843, V-B:TYR:539:CG:9844, V-A:LEU:373:CD1:3280"]

$$$$
4eb_Grossjean_2025
     RDKit          3D

 30 33  0  0  0  0  0  0  0  0999 V2000
  131.2430  117.8140   59.7570 C   0  0  0  0  0  0  0  0  0  0  0  0
  131.1100  119.1230   60.2910 O   0  0  0  0  0  0  0  0  0  0  0  0
  130.1450  119.4100   61.2040 C   0  0  0  0  0  0  0  0  0  0  0  0
  129.5750  118.5520   61.8830 O   0  0  0  0  0  0  0  0  0  0  0  0
  129.8420  120.8780   61.3050 C   0  0  0  0  0  0  0  0  0  0  0  0
  130.8270  121.8050   60.9400 C   0  0  0  0  0  0  0  0  0  0  0  0
  130.5770  123.1720   61.0220 C   0  0  0  0  0  0  0  0  0  0  0  0
  129.3410  123.6400   61.4690 C   0  0  0  0  0  0  0  0  0  0  0  0
  129.2010  125.0410   61.5110 N   0  0  0  0  0  0  0  0  0  0  0  0
  130.0980  126.0210   61.2440 C   0  0  0  0  0  0  0  0  0  0  0  0
  131.2630  125.8200   60.8970 O   0  0  0  0  0  0  0  0  0  0  0  0
  129.5940  127.3890   61.3940 C   0  0  0  0  0  0  0  0  0  0  0  0
  130.1900  128.6800   60.3490 S   0  0  0  0  0  0  0  0  0  0  0  0
  129.1620  129.8560   61.1350 C   0  0  0  0  0  0  0  0  0  0  0  0
  129.1490  131.1390   60.7670 N   0  0  0  0  0  0  0  0  0  0  0  0
  128.3090  131.9480   61.4560 C   0  0  0  0  0  0  0  0  0  0  0  0
  128.3100  133.4020   61.0200 C   0  0  0  0  0  0  0  0  0  0  0  0
  127.4890  131.5110   62.4930 C   0  0  0  0  0  0  0  0  0  0  0  0
  127.5060  130.1650   62.8770 C   0  0  0  0  0  0  0  0  0  0  0  0
  126.6280  129.7150   63.9820 C   0  0  0  0  0  0  0  0  0  0  0  0
  127.1870  129.2140   65.1620 C   0  0  0  0  0  0  0  0  0  0  0  0
  126.3620  128.7920   66.2030 C   0  0  0  0  0  0  0  0  0  0  0  0
  124.9790  128.8690   66.0600 C   0  0  0  0  0  0  0  0  0  0  0  0
  124.4130  129.3640   64.8870 C   0  0  0  0  0  0  0  0  0  0  0  0
  125.2390  129.7850   63.8480 C   0  0  0  0  0  0  0  0  0  0  0  0
  128.3750  129.2830   62.1780 C   0  0  0  0  0  0  0  0  0  0  0  0
  128.6410  127.8740   62.3040 C   0  0  0  0  0  0  0  0  0  0  0  0
  128.0100  127.0900   63.2370 N   0  0  0  0  0  0  0  0  0  0  0  0
  128.3480  122.7180   61.8360 C   0  0  0  0  0  0  0  0  0  0  0  0
  128.6000  121.3520   61.7540 C   0  0  0  0  0  0  0  0  0  0  0  0
  1  2  1  0
  2  3  1  0
  3  4  2  0
  3  5  1  0
  5  6  2  0
  6  7  1  0
  7  8  2  0
  8  9  1  0
  9 10  1  0
 10 11  2  0
 10 12  1  0
 12 13  1  0
 13 14  1  0
 14 15  2  0
 15 16  1  0
 16 17  1  0
 16 18  2  0
 18 19  1  0
 19 20  1  0
 20 21  2  0
 21 22  1  0
 22 23  2  0
 23 24  1  0
 24 25  2  0
 19 26  2  0
 26 27  1  0
 27 28  1  0
  8 29  1  0
 29 30  2  0
 30  5  1  0
 27 12  2  0
 26 14  1  0
 25 20  1  0
M  END
>  <Binding energies>  (64) 
[-7.04]

>  <Ligand effiencies>  (64) 
[-0.21333333333333335]

>  <Interactions>  (64) 
["V-B:ALA:541:CB:9864, V-B:TYR:539:CD2:9846, H-B:GLU:543:OE2:9882, V-A:LEU:475:CD1:4258, V-A:LEU:475:CD2:4259, V-B:GLU:543:CD:9880, V-A:SER:385:CB:3409, H-B:GLU:543:OE1:9881, V-B:TYR:539:CE2:9848, H-A:GLU:543:OE2:4910, V-A:GLU:543:CD:4908, V-B:PRO:540:C:9853, V-B:ALA:541:CA:9862, V-B:PRO:540:CA:9855, H-A:GLU:543:OE1:4909, V-A:ALA:541:CB:4892, V-B:ARG:545:CZ:9898, V-B:ARG:545:CD:9895, V-B:HIS:456:CE1:9042, V-B:ARG:545:CG:9894, V-B:TYR:484:CZ:9319, V-B:TYR:539:CB:9843"]

$$$$
8b_Ghoteimi_2023
     RDKit          3D

 34 38  0  0  0  0  0  0  0  0999 V2000
  124.0040  136.7130   58.7490 C   0  0  0  0  0  0  0  0  0  0  0  0
  124.8940  136.7410   59.8600 O   0  0  0  0  0  0  0  0  0  0  0  0
  125.5230  135.5730   60.2490 C   0  0  0  0  0  0  0  0  0  0  0  0
  124.7540  134.4120   60.2180 C   0  0  0  0  0  0  0  0  0  0  0  0
  125.3030  133.1900   60.5930 C   0  0  0  0  0  0  0  0  0  0  0  0
  126.6380  133.0970   61.0110 C   0  0  0  0  0  0  0  0  0  0  0  0
  127.2330  131.7860   61.4180 C   0  0  0  0  0  0  0  0  0  0  0  0
  126.8760  131.1550   62.6140 C   0  0  0  0  0  0  0  0  0  0  0  0
  127.4470  129.9290   62.9700 C   0  0  0  0  0  0  0  0  0  0  0  0
  127.0540  129.2910   64.2480 C   0  0  0  0  0  0  0  0  0  0  0  0
  125.7560  128.8090   64.4240 C   0  0  0  0  0  0  0  0  0  0  0  0
  125.3920  128.2010   65.6230 C   0  0  0  0  0  0  0  0  0  0  0  0
  126.3160  128.0690   66.6610 C   0  0  0  0  0  0  0  0  0  0  0  0
  125.8660  127.4510   67.8120 O   0  0  0  0  0  0  0  0  0  0  0  0
  126.7600  126.6270   68.5520 C   0  0  0  0  0  0  0  0  0  0  0  0
  127.6190  128.5580   66.4820 C   0  0  0  0  0  0  0  0  0  0  0  0
  127.9820  129.1650   65.2830 C   0  0  0  0  0  0  0  0  0  0  0  0
  128.3880  129.3460   62.0810 C   0  0  0  0  0  0  0  0  0  0  0  0
  129.1460  128.1220   62.1260 C   0  0  0  0  0  0  0  0  0  0  0  0
  129.0500  127.2380   63.1690 N   0  0  0  0  0  0  0  0  0  0  0  0
  129.9780  127.9280   61.0130 C   0  0  0  0  0  0  0  0  0  0  0  0
  130.8740  126.8050   60.7300 C   0  0  0  0  0  0  0  0  0  0  0  0
  130.8590  126.2490   59.6290 O   0  0  0  0  0  0  0  0  0  0  0  0
  131.6920  126.4420   61.7500 N   0  0  0  0  0  0  0  0  0  0  0  0
  132.6350  125.4230   61.7560 C   0  0  0  0  0  0  0  0  0  0  0  0
  132.8400  124.5690   60.6730 C   0  0  0  0  0  0  0  0  0  0  0  0
  133.8400  123.7130   61.0760 C   0  0  0  0  0  0  0  0  0  0  0  0
  134.2200  124.0370   62.3340 O   0  0  0  0  0  0  0  0  0  0  0  0
  133.4510  125.1240   62.7540 N   0  0  0  0  0  0  0  0  0  0  0  0
  129.8390  129.2670   59.8720 S   0  0  0  0  0  0  0  0  0  0  0  0
  128.6710  130.0750   60.8910 C   0  0  0  0  0  0  0  0  0  0  0  0
  128.1300  131.2450   60.5510 N   0  0  0  0  0  0  0  0  0  0  0  0
  127.4070  134.2690   61.0380 C   0  0  0  0  0  0  0  0  0  0  0  0
  126.8600  135.4940   60.6640 C   0  0  0  0  0  0  0  0  0  0  0  0
  1  2  1  0
  2  3  1  0
  3  4  2  0
  4  5  1  0
  5  6  2  0
  6  7  1  0
  7  8  2  0
  8  9  1  0
  9 10  1  0
 10 11  2  0
 11 12  1  0
 12 13  2  0
 13 14  1  0
 14 15  1  0
 13 16  1  0
 16 17  2  0
  9 18  2  0
 18 19  1  0
 19 20  1  0
 19 21  2  0
 21 22  1  0
 22 23  2  0
 22 24  1  0
 24 25  1  0
 25 26  1  0
 26 27  2  0
 27 28  1  0
 28 29  1  0
 21 30  1  0
 30 31  1  0
 31 32  2  0
  6 33  1  0
 33 34  2  0
 34  3  1  0
 32  7  1  0
 17 10  1  0
 31 18  1  0
 29 25  2  0
M  END
>  <Binding energies>  (65) 
[-6.97]

>  <Ligand effiencies>  (65) 
[-0.18837837837837837]

>  <Interactions>  (65) 
["H-B:GLU:543:OE2:9882, V-B:GLU:543:CD:9880, H-B:GLU:543:OE1:9881, H-A:GLU:543:OE2:4910, V-A:GLU:543:CD:4908, H-A:GLU:543:OE1:4909, V-A:ARG:545:CZ:4926, H-A:TYR:484:OH:4348, V-A:TYR:539:CE1:4875, V-A:ALA:541:CB:4892, V-B:SER:385:CA:8379, V-A:TYR:539:CD1:4873, V-B:SER:385:CB:8381, V-A:GLU:543:CG:4907, V-B:ILE:369:CG2:8209, V-B:ARG:545:CZ:9898, V-B:LEU:475:CD2:9231, H-B:ARG:545:NE:9896, V-B:ARG:545:CD:9895, V-B:HIS:456:CE1:9042, V-B:ARG:545:CG:9894, V-A:ASP:366:CG:3213, V-A:ILE:369:CD1:3239, H-B:HIS:456:ND1:9039, V-B:GLU:543:CB:9878, H-A:GLY:454:N:4050, V-A:GLU:543:CB:4906, H-A:ARG:545:NH2:4928, V-B:GLU:543:C:9874, H-B:SER:385:OG:8382, V-B:VAL:384:C:8369, V-B:HIS:383:CD2:8364, V-B:ARG:545:CA:9891"]

$$$$
9d_Ghoteimi_2023
     RDKit          3D

 38 43  0  0  0  0  0  0  0  0999 V2000
  132.5780  124.7370   60.9820 C   0  0  0  0  0  0  0  0  0  0  0  0
  131.1800  124.4890   60.9400 O   0  0  0  0  0  0  0  0  0  0  0  0
  130.2940  125.5130   60.8300 C   0  0  0  0  0  0  0  0  0  0  0  0
  129.8180  125.9010   59.7590 O   0  0  0  0  0  0  0  0  0  0  0  0
  129.9580  126.1270   62.1330 C   0  0  0  0  0  0  0  0  0  0  0  0
  130.4730  125.3490   63.6290 S   0  0  0  0  0  0  0  0  0  0  0  0
  129.7590  126.6260   64.5850 C   0  0  0  0  0  0  0  0  0  0  0  0
  129.8460  126.6340   65.9150 N   0  0  0  0  0  0  0  0  0  0  0  0
  129.2730  127.6800   66.5650 C   0  0  0  0  0  0  0  0  0  0  0  0
  129.4040  127.6810   68.0540 C   0  0  0  0  0  0  0  0  0  0  0  0
  130.4540  128.3670   68.6740 C   0  0  0  0  0  0  0  0  0  0  0  0
  130.5870  128.3720   70.0600 C   0  0  0  0  0  0  0  0  0  0  0  0
  129.6650  127.6990   70.8790 C   0  0  0  0  0  0  0  0  0  0  0  0
  129.7960  127.6800   72.2720 N   0  0  0  0  0  0  0  0  0  0  0  0
  131.1060  127.4630   72.9180 C   0  0  0  0  0  0  0  0  0  0  0  0
  131.0120  127.1280   74.4210 C   0  0  0  0  0  0  0  0  0  0  0  0
  130.2720  128.1310   75.0970 O   0  0  0  0  0  0  0  0  0  0  0  0
  128.9500  128.2290   74.5930 C   0  0  0  0  0  0  0  0  0  0  0  0
  128.9780  128.5960   73.0940 C   0  0  0  0  0  0  0  0  0  0  0  0
  128.6240  127.0000   70.2510 C   0  0  0  0  0  0  0  0  0  0  0  0
  128.4940  126.9930   68.8650 C   0  0  0  0  0  0  0  0  0  0  0  0
  128.5890  128.6940   65.8890 C   0  0  0  0  0  0  0  0  0  0  0  0
  128.4790  128.6800   64.4940 C   0  0  0  0  0  0  0  0  0  0  0  0
  127.7170  129.7690   63.8270 C   0  0  0  0  0  0  0  0  0  0  0  0
  128.2360  131.0630   63.7570 C   0  0  0  0  0  0  0  0  0  0  0  0
  127.5270  132.0750   63.1140 C   0  0  0  0  0  0  0  0  0  0  0  0
  126.2870  131.8140   62.5100 C   0  0  0  0  0  0  0  0  0  0  0  0
  125.5520  132.8140   61.8680 N   0  0  0  0  0  0  0  0  0  0  0  0
  124.1780  132.5180   61.4190 C   0  0  0  0  0  0  0  0  0  0  0  0
  123.3580  133.7840   61.0920 C   0  0  0  0  0  0  0  0  0  0  0  0
  124.0450  134.5750   60.1340 O   0  0  0  0  0  0  0  0  0  0  0  0
  125.3190  134.9860   60.6100 C   0  0  0  0  0  0  0  0  0  0  0  0
  126.1880  133.7480   60.9200 C   0  0  0  0  0  0  0  0  0  0  0  0
  125.7750  130.5110   62.5880 C   0  0  0  0  0  0  0  0  0  0  0  0
  126.4830  129.5010   63.2320 C   0  0  0  0  0  0  0  0  0  0  0  0
  129.1080  127.6150   63.7900 C   0  0  0  0  0  0  0  0  0  0  0  0
  129.2560  127.3110   62.3910 C   0  0  0  0  0  0  0  0  0  0  0  0
  128.7720  128.1230   61.3970 N   0  0  0  0  0  0  0  0  0  0  0  0
  1  2  1  0
  2  3  1  0
  3  4  2  0
  3  5  1  0
  5  6  1  0
  6  7  1  0
  7  8  2  0
  8  9  1  0
  9 10  1  0
 10 11  2  0
 11 12  1  0
 12 13  2  0
 13 14  1  0
 14 15  1  0
 15 16  1  0
 16 17  1  0
 17 18  1  0
 18 19  1  0
 13 20  1  0
 20 21  2  0
  9 22  2  0
 22 23  1  0
 23 24  1  0
 24 25  2  0
 25 26  1  0
 26 27  2  0
 27 28  1  0
 28 29  1  0
 29 30  1  0
 30 31  1  0
 31 32  1  0
 32 33  1  0
 27 34  1  0
 34 35  2  0
 23 36  2  0
 36 37  1  0
 37 38  1  0
 37  5  2  0
 36  7  1  0
 21 10  1  0
 35 24  1  0
 19 14  1  0
 33 28  1  0
M  END
>  <Binding energies>  (66) 
[-3.37]

>  <Ligand effiencies>  (66) 
[-0.08425]

>  <Interactions>  (66) 
["V-A:TYR:484:CZ:4347, V-B:GLU:543:CD:9880, V-A:GLU:543:CD:4908, H-A:GLU:543:OE1:4909, V-B:SER:385:C:8377, V-B:ILE:369:CD1:8211, V-A:TYR:539:CE1:4875, V-A:ALA:541:CB:4892, V-B:SER:385:CA:8379, V-A:TYR:539:CD1:4873, V-A:GLU:543:CG:4907, V-B:ILE:369:CG2:8209, V-B:LEU:475:CD2:9231, V-B:HIS:456:CE1:9042, H-A:LYS:547:NZ:4951, V-B:HIS:456:CD2:9040, V-A:HIS:456:CD2:4068, V-A:HIS:456:CG:4066, V-A:GLY:544:C:4912, V-A:ASP:366:CG:3213, V-B:GLU:543:CB:9878, V-B:ILE:369:CG1:8210, V-B:ILE:369:CB:8208, V-A:HIS:456:CE1:4070, V-A:GLU:543:CB:4906, V-A:GLU:543:CA:4904, V-A:GLU:543:C:4902, V-A:GLY:544:CA:4914, H-B:SER:385:OG:8382"]

$$$$
RR10_Rahimova_2017
     RDKit          3D

 34 38  0  0  0  0  0  0  0  0999 V2000
  134.4830  124.5720   75.2520 C   0  0  0  0  0  0  0  0  0  0  0  0
  133.0810  124.8100   75.8380 C   0  0  1  0  0  0  0  0  0  0  0  0
  132.7600  126.3170   75.9720 C   0  0  0  0  0  0  0  0  0  0  0  0
  131.3620  126.5330   76.5940 C   0  0  0  0  0  0  0  0  0  0  0  0
  130.2430  125.8460   75.7700 C   0  0  1  0  0  0  0  0  0  0  0  0
  130.0730  126.5090   74.4700 N   0  0  0  0  0  0  0  0  0  0  0  0
  129.1100  127.4000   74.1690 C   0  0  0  0  0  0  0  0  0  0  0  0
  128.2640  127.7760   74.9840 O   0  0  0  0  0  0  0  0  0  0  0  0
  129.0920  127.9400   72.7240 C   0  0  1  0  0  0  0  0  0  0  0  0
  130.5120  128.4300   72.3400 C   0  0  0  0  0  0  0  0  0  0  0  0
  130.5190  128.8870   70.8610 C   0  0  0  0  0  0  0  0  0  0  0  0
  129.9450  127.8140   69.9070 C   0  0  0  0  0  0  0  0  0  0  0  0
  128.6120  127.3510   70.3800 N   0  0  0  0  0  0  0  0  0  0  0  0
  127.7290  126.3490   69.2160 S   0  0  0  0  0  0  0  0  0  0  0  0
  126.3700  126.1420   69.7300 O   0  0  0  0  0  0  0  0  0  0  0  0
  128.5750  125.1970   68.8780 O   0  0  0  0  0  0  0  0  0  0  0  0
  127.5740  127.3670   67.7480 C   0  0  0  0  0  0  0  0  0  0  0  0
  128.7030  128.0250   67.2490 C   0  0  0  0  0  0  0  0  0  0  0  0
  128.6480  128.8350   66.1110 C   0  0  0  0  0  0  0  0  0  0  0  0
  127.4030  128.9550   65.4890 C   0  0  0  0  0  0  0  0  0  0  0  0
  126.9510  129.6400   64.3860 N   0  0  0  0  0  0  0  0  0  0  0  0
  125.6030  129.3810   64.2480 C   0  0  0  0  0  0  0  0  0  0  0  0
  124.7530  129.9640   63.1560 C   0  0  0  0  0  0  0  0  0  0  0  0
  125.3290  130.7590   62.1560 C   0  0  0  0  0  0  0  0  0  0  0  0
  124.5430  131.2970   61.1410 C   0  0  0  0  0  0  0  0  0  0  0  0
  123.1740  131.0440   61.1210 C   0  0  0  0  0  0  0  0  0  0  0  0
  122.5860  130.2560   62.1070 C   0  0  0  0  0  0  0  0  0  0  0  0
  123.3740  129.7180   63.1210 C   0  0  0  0  0  0  0  0  0  0  0  0
  125.1590  128.5710   65.1830 N   0  0  0  0  0  0  0  0  0  0  0  0
  126.2480  128.2920   65.9670 C   0  0  0  0  0  0  0  0  0  0  0  0
  126.3330  127.4840   67.1100 C   0  0  0  0  0  0  0  0  0  0  0  0
  128.6280  126.8160   71.7650 C   0  0  0  0  0  0  0  0  0  0  0  0
  130.5870  124.3380   75.6300 C   0  0  0  0  0  0  0  0  0  0  0  0
  131.9810  124.1180   75.0000 C   0  0  0  0  0  0  0  0  0  0  0  0
  2  1  1  6
  2  3  1  0
  3  4  1  0
  4  5  1  0
  5  6  1  6
  6  7  1  0
  7  8  2  0
  9  7  1  1
  9 10  1  0
 10 11  1  0
 11 12  1  0
 12 13  1  0
 13 14  1  0
 14 15  2  0
 14 16  2  0
 14 17  1  0
 17 18  2  0
 18 19  1  0
 19 20  2  0
 20 21  1  0
 21 22  1  0
 22 23  1  0
 23 24  2  0
 24 25  1  0
 25 26  2  0
 26 27  1  0
 27 28  2  0
 22 29  2  0
 29 30  1  0
 30 31  2  0
 13 32  1  0
  5 33  1  0
 33 34  1  0
 34  2  1  0
 32  9  1  0
 31 17  1  0
 30 20  1  0
 28 23  1  0
M  END
>  <Binding energies>  (67) 
[-8.37]

>  <Ligand effiencies>  (67) 
[-0.23249999999999998]

>  <Interactions>  (67) 
["V-B:GLU:543:CD:9880, V-A:GLU:543:CD:4908, V-B:ILE:369:CD1:8211, V-A:GLU:543:CG:4907, V-B:ARG:545:CZ:9898, H-B:ARG:545:NE:9896, V-B:GLY:453:C:9014, H-B:TYR:484:OH:9320, V-B:GLY:453:CA:9016, V-B:ARG:545:CD:9895, V-B:HIS:456:CE1:9042, V-B:ARG:545:CG:9894, H-B:LYS:547:NZ:9923, V-A:VAL:458:CG2:4087, V-A:VAL:457:CA:4075, V-A:VAL:457:C:4073, V-B:HIS:456:CD2:9040, V-A:LYS:547:CE:4950, V-A:HIS:456:CB:4065, V-A:HIS:456:CD2:4068, V-A:HIS:456:C:4061, V-A:LYS:471:CD:4219, V-A:GLY:544:C:4912, V-A:HIS:456:CA:4063, V-B:GLU:543:CB:9878, V-B:ASP:366:CG:8185, H-B:ARG:545:NH2:9900, V-B:ASP:366:CA:8182, V-A:HIS:456:CE1:4070, V-A:GLU:543:CB:4906, V-A:GLU:543:C:4902, V-B:GLU:543:C:9874, V-A:GLY:544:CA:4914, V-B:LYS:547:CE:9922, H-B:ARG:545:N:9892"]

$$$$
RR12_Rahimova_2017
     RDKit          3D

 26 28  0  0  0  0  0  0  0  0999 V2000
  125.7830  134.4290   60.6160 C   0  0  0  0  0  0  0  0  0  0  0  0
  127.2600  134.0160   60.5770 C   0  0  0  0  0  0  0  0  0  0  0  0
  127.4510  132.5410   60.1760 C   0  0  0  0  0  0  0  0  0  0  0  0
  128.8420  132.1320   60.3560 N   0  0  0  0  0  0  0  0  0  0  0  0
  129.4850  131.8270   61.5460 C   0  0  0  0  0  0  0  0  0  0  0  0
  128.8270  131.9200   62.9120 C   0  0  0  0  0  0  0  0  0  0  0  0
  127.4820  131.1710   62.9680 C   0  0  0  0  0  0  0  0  0  0  0  0
  126.2740  132.1230   63.0520 C   0  0  0  0  0  0  0  0  0  0  0  0
  125.0740  131.6130   62.3900 N   0  0  0  0  0  0  0  0  0  0  0  0
  124.2240  130.7140   62.9180 C   0  0  0  0  0  0  0  0  0  0  0  0
  124.3770  130.2150   64.0350 O   0  0  0  0  0  0  0  0  0  0  0  0
  123.0260  130.3370   62.0380 C   0  0  0  0  0  0  0  0  0  0  0  0
  123.0190  131.1530   60.8660 O   0  0  0  0  0  0  0  0  0  0  0  0
  123.7260  130.7430   59.7520 C   0  0  0  0  0  0  0  0  0  0  0  0
  123.3360  131.2980   58.5310 C   0  0  0  0  0  0  0  0  0  0  0  0
  123.9910  130.9480   57.3530 C   0  0  0  0  0  0  0  0  0  0  0  0
  125.0450  130.0390   57.3950 C   0  0  0  0  0  0  0  0  0  0  0  0
  125.4460  129.4750   58.6040 C   0  0  0  0  0  0  0  0  0  0  0  0
  124.7890  129.8250   59.7810 C   0  0  0  0  0  0  0  0  0  0  0  0
  130.7330  131.4640   61.3840 N   0  0  0  0  0  0  0  0  0  0  0  0
  130.9360  131.4990   60.0330 C   0  0  0  0  0  0  0  0  0  0  0  0
  132.0970  131.1900   59.3070 C   0  0  0  0  0  0  0  0  0  0  0  0
  132.0500  131.2990   57.9170 C   0  0  0  0  0  0  0  0  0  0  0  0
  130.8870  131.7030   57.2600 C   0  0  0  0  0  0  0  0  0  0  0  0
  129.7170  132.0180   57.9540 C   0  0  0  0  0  0  0  0  0  0  0  0
  129.7650  131.9100   59.3500 C   0  0  0  0  0  0  0  0  0  0  0  0
  1  2  1  0
  2  3  1  0
  3  4  1  0
  4  5  1  0
  5  6  1  0
  6  7  1  0
  7  8  1  0
  8  9  1  0
  9 10  1  0
 10 11  2  0
 10 12  1  0
 12 13  1  0
 13 14  1  0
 14 15  2  0
 15 16  1  0
 16 17  2  0
 17 18  1  0
 18 19  2  0
  5 20  2  0
 20 21  1  0
 21 22  2  0
 22 23  1  0
 23 24  2  0
 24 25  1  0
 25 26  2  0
 26  4  1  0
 19 14  1  0
 26 21  1  0
M  END
>  <Binding energies>  (68) 
[-6.1]

>  <Ligand effiencies>  (68) 
[-0.22592592592592592]

>  <Interactions>  (68) 
["V-B:ILE:369:CD1:8211, V-A:TYR:539:CE1:4875, V-A:PRO:540:CA:4883, V-A:ALA:541:CB:4892, V-A:TYR:539:CD1:4873, V-A:GLU:543:CG:4907, V-B:ILE:369:CG2:8209, V-B:LEU:475:CD2:9231, H-A:ALA:541:N:4891, H-B:GLY:454:N:9022, V-B:GLY:453:C:9014, H-B:TYR:484:OH:9320, V-B:GLY:454:CA:9021, V-A:TYR:539:C:4867, V-B:GLY:453:CA:9016, V-A:PRO:540:CB:4885, V-B:ASP:366:CG:8185, V-B:ILE:369:CB:8208, V-B:ASP:366:CA:8182, V-B:ASP:366:CB:8184, V-A:TYR:539:CZ:4877, V-B:ASP:366:C:8180, V-A:PRO:540:N:4884"]

$$$$
RR13_Rahimova_2017
     RDKit          3D

 48 54  0  0  0  0  0  0  0  0999 V2000
  131.5990  130.5630   57.3120 Cl  0  0  0  0  0  0  0  0  0  0  0  0
  132.1140  130.8900   58.9320 C   0  0  0  0  0  0  0  0  0  0  0  0
  133.3610  131.4940   59.1090 C   0  0  0  0  0  0  0  0  0  0  0  0
  133.8420  131.7640   60.3870 C   0  0  0  0  0  0  0  0  0  0  0  0
  133.0780  131.4270   61.5010 C   0  0  0  0  0  0  0  0  0  0  0  0
  131.8330  130.8230   61.3340 C   0  0  0  0  0  0  0  0  0  0  0  0
  131.3260  130.5550   60.0520 C   0  0  0  0  0  0  0  0  0  0  0  0
  129.9540  129.8630   59.8940 C   0  0  1  0  0  0  0  0  0  0  0  0
  129.0490  130.6450   58.9300 C   0  0  0  0  0  0  0  0  0  0  0  0
  128.5100  130.1940   57.8190 N   0  0  0  0  0  0  0  0  0  0  0  0
  127.8010  131.2620   57.2770 N   0  0  0  0  0  0  0  0  0  0  0  0
  127.9410  132.3780   58.0790 N   0  0  0  0  0  0  0  0  0  0  0  0
  128.7350  131.9790   59.0780 N   0  0  0  0  0  0  0  0  0  0  0  0
  129.0780  132.8950   60.1590 C   0  0  0  0  0  0  0  0  0  0  0  0
  128.0140  132.8320   61.2710 C   0  0  0  0  0  0  0  0  0  0  0  0
  126.7410  133.5720   60.8910 C   0  0  0  0  0  0  0  0  0  0  0  0
  125.5330  132.8770   60.7930 C   0  0  0  0  0  0  0  0  0  0  0  0
  124.3690  133.5540   60.4370 C   0  0  0  0  0  0  0  0  0  0  0  0
  124.4180  134.9230   60.1810 C   0  0  0  0  0  0  0  0  0  0  0  0
  125.6190  135.6210   60.2760 C   0  0  0  0  0  0  0  0  0  0  0  0
  126.7840  134.9450   60.6320 C   0  0  0  0  0  0  0  0  0  0  0  0
  130.0550  128.4280   59.5350 N   0  0  0  0  0  0  0  0  0  0  0  0
  129.9730  127.5860   60.7430 C   0  0  0  0  0  0  0  0  0  0  0  0
  129.9440  126.0860   60.3660 C   0  0  0  0  0  0  0  0  0  0  0  0
  131.1730  125.7070   59.6500 N   0  0  0  0  0  0  0  0  0  0  0  0
  131.2240  124.2590   59.3410 C   0  0  1  0  0  0  0  0  0  0  0  0
  132.2000  123.4280   60.2030 C   0  0  0  0  0  0  0  0  0  0  0  0
  132.7490  122.2780   59.6200 C   0  0  0  0  0  0  0  0  0  0  0  0
  133.6520  121.4770   60.3180 C   0  0  0  0  0  0  0  0  0  0  0  0
  134.0160  121.8130   61.6190 C   0  0  0  0  0  0  0  0  0  0  0  0
  133.4700  122.9420   62.2220 C   0  0  0  0  0  0  0  0  0  0  0  0
  132.5610  123.7500   61.5320 C   0  0  0  0  0  0  0  0  0  0  0  0
  131.8860  125.0920   62.3930 Cl  0  0  0  0  0  0  0  0  0  0  0  0
  129.8440  123.5980   59.3240 C   0  0  0  0  0  0  0  0  0  0  0  0
  129.0250  123.5690   58.2980 N   0  0  0  0  0  0  0  0  0  0  0  0
  127.9080  122.8570   58.7210 N   0  0  0  0  0  0  0  0  0  0  0  0
  128.0770  122.4410   60.0260 N   0  0  0  0  0  0  0  0  0  0  0  0
  129.2890  122.8920   60.3710 N   0  0  0  0  0  0  0  0  0  0  0  0
  129.8020  122.6520   61.7150 C   0  0  0  0  0  0  0  0  0  0  0  0
  129.2630  121.3190   62.2660 C   0  0  0  0  0  0  0  0  0  0  0  0
  129.8250  120.1200   61.5180 C   0  0  0  0  0  0  0  0  0  0  0  0
  129.2580  118.8560   61.7000 C   0  0  0  0  0  0  0  0  0  0  0  0
  129.7670  117.7590   61.0090 C   0  0  0  0  0  0  0  0  0  0  0  0
  130.8430  117.9310   60.1390 C   0  0  0  0  0  0  0  0  0  0  0  0
  131.4120  119.1900   59.9530 C   0  0  0  0  0  0  0  0  0  0  0  0
  130.9020  120.2860   60.6420 C   0  0  0  0  0  0  0  0  0  0  0  0
  131.2470  126.5460   58.4410 C   0  0  0  0  0  0  0  0  0  0  0  0
  131.2870  128.0440   58.8240 C   0  0  0  0  0  0  0  0  0  0  0  0
  1  2  1  0
  2  3  2  0
  3  4  1  0
  4  5  2  0
  5  6  1  0
  6  7  2  0
  7  8  1  0
  8  9  1  0
  9 10  2  0
 10 11  1  0
 11 12  2  0
 12 13  1  0
 13 14  1  0
 14 15  1  0
 15 16  1  0
 16 17  2  0
 17 18  1  0
 18 19  2  0
 19 20  1  0
 20 21  2  0
  8 22  1  6
 22 23  1  0
 23 24  1  0
 24 25  1  0
 26 25  1  1
 26 27  1  0
 27 28  2  0
 28 29  1  0
 29 30  2  0
 30 31  1  0
 31 32  2  0
 32 33  1  0
 26 34  1  0
 34 35  2  0
 35 36  1  0
 36 37  2  0
 37 38  1  0
 38 39  1  0
 39 40  1  0
 40 41  1  0
 41 42  2  0
 42 43  1  0
 43 44  2  0
 44 45  1  0
 45 46  2  0
 25 47  1  0
 47 48  1  0
  7  2  1  0
 13  9  1  0
 21 16  1  0
 48 22  1  0
 32 27  1  0
 38 34  1  0
 46 41  1  0
M  END
>  <Binding energies>  (69) 
[-10.9]

>  <Ligand effiencies>  (69) 
[-0.22708333333333333]

>  <Interactions>  (69) 
["V-B:ALA:541:CB:9864, V-B:TYR:539:CD2:9846, V-A:PRO:482:CG:4327, V-A:TYR:484:CE1:4345, V-A:PRO:482:CB:4326, V-B:TYR:539:C:9839, V-A:LEU:475:CD1:4258, V-A:LEU:475:CD2:4259, V-A:SER:385:CB:3409, V-A:ILE:369:CG2:3237, V-B:TYR:539:CE2:9848, V-A:GLU:543:CD:4908, V-B:PRO:540:C:9853, V-A:SER:385:C:3405, V-B:ALA:541:CA:9862, V-B:ILE:369:CD1:8211, V-A:TYR:539:CE1:4875, V-A:PRO:540:CA:4883, V-A:ALA:541:CB:4892, V-B:SER:385:CA:8379, V-A:TYR:539:CD1:4873, V-B:SER:385:CB:8381, V-B:ILE:369:CG2:8209, V-A:PRO:540:C:4881, V-B:LEU:475:CD2:9231, V-A:ASN:362:CB:3176, V-A:TYR:539:C:4867, V-A:PRO:540:CB:4885, V-A:ASP:366:CG:3213, V-A:GLY:454:CA:4049, V-A:ILE:369:CD1:3239, V-A:ASP:366:CB:3212, V-A:ASN:362:C:3172, V-A:PRO:540:N:4884, V-A:ILE:369:CB:3236, V-A:ASN:362:CA:3174, V-A:LEU:363:CA:3185, V-B:TYR:539:CB:9843, V-B:TYR:539:CG:9844"]

$$$$
RR14_Rahimova_2017
     RDKit          3D

 39 43  0  0  0  0  0  0  0  0999 V2000
  131.1430  117.4830   59.6700 C   0  0  0  0  0  0  0  0  0  0  0  0
  130.7250  118.3980   60.6760 O   0  0  0  0  0  0  0  0  0  0  0  0
  131.1620  119.7070   60.6190 C   0  0  0  0  0  0  0  0  0  0  0  0
  132.4520  119.9120   60.1260 C   0  0  0  0  0  0  0  0  0  0  0  0
  132.9870  121.1940   60.0540 C   0  0  0  0  0  0  0  0  0  0  0  0
  132.2350  122.2900   60.4820 C   0  0  0  0  0  0  0  0  0  0  0  0
  132.8420  123.6880   60.4660 C   0  0  0  0  0  0  0  0  0  0  0  0
  132.8180  124.3440   61.7730 N   0  0  0  0  0  0  0  0  0  0  0  0
  133.9410  124.4670   62.4890 N   0  0  0  0  0  0  0  0  0  0  0  0
  133.5480  125.0950   63.6550 N   0  0  0  0  0  0  0  0  0  0  0  0
  132.1790  125.3380   63.6280 N   0  0  0  0  0  0  0  0  0  0  0  0
  131.7560  124.8670   62.4790 C   0  0  0  0  0  0  0  0  0  0  0  0
  130.3090  124.8830   62.0030 C   0  0  0  0  0  0  0  0  0  0  0  0
  130.0940  125.8190   60.8880 N   0  0  0  0  0  0  0  0  0  0  0  0
  130.3350  125.1870   59.5850 C   0  0  0  0  0  0  0  0  0  0  0  0
  129.0690  125.0910   58.7060 C   0  0  0  0  0  0  0  0  0  0  0  0
  128.2110  123.8400   58.9900 C   0  0  0  0  0  0  0  0  0  0  0  0
  127.4450  123.9320   60.2380 N   0  0  0  0  0  0  0  0  0  0  0  0
  127.8370  122.8560   61.1570 C   0  0  0  0  0  0  0  0  0  0  0  0
  127.0120  122.8920   62.4610 C   0  0  0  0  0  0  0  0  0  0  0  0
  125.6200  122.8670   62.1610 O   0  0  0  0  0  0  0  0  0  0  0  0
  125.2210  123.9750   61.3620 C   0  0  0  0  0  0  0  0  0  0  0  0
  125.9900  123.9700   60.0240 C   0  0  0  0  0  0  0  0  0  0  0  0
  128.7330  126.3720   60.9480 C   0  0  0  0  0  0  0  0  0  0  0  0
  128.6300  127.8820   61.1510 C   0  0  0  0  0  0  0  0  0  0  0  0
  127.7430  128.4110   62.0290 C   0  0  0  0  0  0  0  0  0  0  0  0
  127.5960  129.8690   62.2150 C   0  0  0  0  0  0  0  0  0  0  0  0
  126.7010  130.4510   63.1290 C   0  0  0  0  0  0  0  0  0  0  0  0
  125.7990  129.6010   64.0140 C   0  0  0  0  0  0  0  0  0  0  0  0
  126.6420  131.8430   63.2290 C   0  0  0  0  0  0  0  0  0  0  0  0
  127.4560  132.6500   62.4360 C   0  0  0  0  0  0  0  0  0  0  0  0
  128.3500  132.0810   61.5250 C   0  0  0  0  0  0  0  0  0  0  0  0
  129.2290  132.9880   60.6730 C   0  0  0  0  0  0  0  0  0  0  0  0
  128.4190  130.6830   61.4160 C   0  0  0  0  0  0  0  0  0  0  0  0
  129.3040  130.0640   60.5080 N   0  0  0  0  0  0  0  0  0  0  0  0
  129.4720  128.7330   60.3040 C   0  0  0  0  0  0  0  0  0  0  0  0
  130.2750  128.3280   59.4640 O   0  0  0  0  0  0  0  0  0  0  0  0
  130.9330  122.0990   60.9490 C   0  0  0  0  0  0  0  0  0  0  0  0
  130.3990  120.8160   61.0210 C   0  0  0  0  0  0  0  0  0  0  0  0
  1  2  1  0
  2  3  1  0
  3  4  2  0
  4  5  1  0
  5  6  2  0
  6  7  1  0
  7  8  1  0
  8  9  1  0
  9 10  2  0
 10 11  1  0
 11 12  2  0
 12 13  1  0
 13 14  1  0
 14 15  1  0
 15 16  1  0
 16 17  1  0
 17 18  1  0
 18 19  1  0
 19 20  1  0
 20 21  1  0
 21 22  1  0
 22 23  1  0
 14 24  1  0
 24 25  1  0
 25 26  2  0
 26 27  1  0
 27 28  2  0
 28 29  1  0
 28 30  1  0
 30 31  2  0
 31 32  1  0
 32 33  1  0
 32 34  2  0
 34 35  1  0
 35 36  1  0
 36 37  2  0
  6 38  1  0
 38 39  2  0
 39  3  1  0
 12  8  1  0
 23 18  1  0
 36 25  1  0
 34 27  1  0
M  END
>  <Binding energies>  (70) 
[-8.2]

>  <Ligand effiencies>  (70) 
[-0.205]

>  <Interactions>  (70) 
["V-B:ALA:541:CB:9864, V-B:TYR:539:CD2:9846, V-B:GLU:543:CG:9879, V-A:LEU:475:CD2:4259, V-B:GLU:543:CD:9880, V-A:SER:385:CB:3409, V-A:ILE:369:CG2:3237, V-B:TYR:539:CE2:9848, V-B:PRO:540:C:9853, V-B:ALA:541:CA:9862, V-B:PRO:540:CA:9855, H-A:TYR:484:OH:4348, V-A:PRO:540:CA:4883, V-A:ALA:541:CB:4892, V-A:PRO:540:C:4881, V-B:LEU:475:CD2:9231, V-A:ALA:541:CA:4890, V-A:TYR:539:C:4867, V-B:TYR:484:CZ:9319, H-B:ALA:541:N:9863, H-A:GLY:454:N:4050, H-A:ARG:545:NE:4924, V-B:PRO:540:CB:9857, H-A:ARG:545:NH1:4927, H-A:ARG:545:NH2:4928, V-B:TYR:539:CB:9843"]

$$$$
RR15_Rahimova_2017
     RDKit          3D

 45 49  0  0  0  0  0  0  0  0999 V2000
  131.8080  127.4660   76.0060 C   0  0  0  0  0  0  0  0  0  0  0  0
  130.6530  128.1130   75.4830 O   0  0  0  0  0  0  0  0  0  0  0  0
  130.3150  127.9330   74.1520 C   0  0  0  0  0  0  0  0  0  0  0  0
  131.2530  127.9000   73.1090 C   0  0  0  0  0  0  0  0  0  0  0  0
  130.8450  127.7170   71.7900 C   0  0  0  0  0  0  0  0  0  0  0  0
  129.4910  127.5660   71.4740 C   0  0  0  0  0  0  0  0  0  0  0  0
  129.0500  127.3750   70.0490 C   0  0  0  0  0  0  0  0  0  0  0  0
  128.0770  126.5440   69.7010 N   0  0  0  0  0  0  0  0  0  0  0  0
  127.9700  126.6360   68.3290 N   0  0  0  0  0  0  0  0  0  0  0  0
  128.8770  127.5570   68.0030 N   0  0  0  0  0  0  0  0  0  0  0  0
  129.2170  127.8530   66.6130 C   0  0  0  0  0  0  0  0  0  0  0  0
  128.2040  128.7670   65.8770 C   0  0  0  0  0  0  0  0  0  0  0  0
  127.8710  129.8220   66.4210 O   0  0  0  0  0  0  0  0  0  0  0  0
  127.7340  128.4030   64.6450 N   0  0  0  0  0  0  0  0  0  0  0  0
  126.2950  128.1700   64.4110 C   0  0  0  0  0  0  0  0  0  0  0  0
  125.3940  129.3220   64.9080 C   0  0  0  0  0  0  0  0  0  0  0  0
  124.1050  129.5410   64.0820 C   0  0  0  0  0  0  0  0  0  0  0  0
  124.1500  130.7250   63.2190 N   0  0  0  0  0  0  0  0  0  0  0  0
  125.4560  131.4000   63.2160 C   0  0  0  0  0  0  0  0  0  0  0  0
  125.4760  132.5870   62.2290 C   0  0  0  0  0  0  0  0  0  0  0  0
  125.0900  132.1520   60.9290 O   0  0  0  0  0  0  0  0  0  0  0  0
  123.7820  131.5920   60.9110 C   0  0  0  0  0  0  0  0  0  0  0  0
  123.7170  130.3750   61.8600 C   0  0  0  0  0  0  0  0  0  0  0  0
  128.5780  128.3980   63.4110 C   0  0  2  0  0  0  0  0  0  0  0  0
  128.1810  129.4860   62.3640 C   0  0  0  0  0  0  0  0  0  0  0  0
  127.1350  129.3980   61.7220 O   0  0  0  0  0  0  0  0  0  0  0  0
  129.0310  130.5220   62.2520 N   0  0  0  0  0  0  0  0  0  0  0  0
  128.8190  131.7010   61.4190 C   0  0  0  0  0  0  0  0  0  0  0  0
  130.1350  132.1670   60.7690 C   0  0  2  0  0  0  0  0  0  0  0  0
  130.5180  131.4470   59.4650 C   0  0  0  0  0  0  0  0  0  0  0  0
  131.5720  130.4480   59.8780 C   0  0  0  0  0  0  0  0  0  0  0  0
  132.2690  131.1970   61.0010 C   0  0  0  0  0  0  0  0  0  0  0  0
  131.1800  131.8100   61.6840 O   0  0  0  0  0  0  0  0  0  0  0  0
  128.7800  126.9750   62.9020 C   0  0  0  0  0  0  0  0  0  0  0  0
  129.9060  126.2710   63.3430 C   0  0  0  0  0  0  0  0  0  0  0  0
  130.1420  124.9690   62.9110 C   0  0  0  0  0  0  0  0  0  0  0  0
  129.2500  124.3590   62.0340 C   0  0  0  0  0  0  0  0  0  0  0  0
  129.4780  123.0940   61.6150 F   0  0  0  0  0  0  0  0  0  0  0  0
  128.1230  125.0440   61.5860 C   0  0  0  0  0  0  0  0  0  0  0  0
  127.8890  126.3460   62.0180 C   0  0  0  0  0  0  0  0  0  0  0  0
  129.5990  128.0140   69.0330 N   0  0  0  0  0  0  0  0  0  0  0  0
  128.5570  127.5970   72.5180 C   0  0  0  0  0  0  0  0  0  0  0  0
  128.9530  127.7770   73.8540 C   0  0  0  0  0  0  0  0  0  0  0  0
  128.0690  127.8120   74.9190 O   0  0  0  0  0  0  0  0  0  0  0  0
  126.9450  128.6830   74.8710 C   0  0  0  0  0  0  0  0  0  0  0  0
  1  2  1  0
  2  3  1  0
  3  4  2  0
  4  5  1  0
  5  6  2  0
  6  7  1  0
  7  8  1  0
  8  9  2  0
  9 10  1  0
 10 11  1  0
 11 12  1  0
 12 13  2  0
 12 14  1  0
 14 15  1  0
 15 16  1  0
 16 17  1  0
 17 18  1  0
 18 19  1  0
 19 20  1  0
 20 21  1  0
 21 22  1  0
 22 23  1  0
 24 14  1  1
 24 25  1  0
 25 26  2  0
 25 27  1  0
 27 28  1  0
 29 28  1  1
 29 30  1  0
 30 31  1  0
 31 32  1  0
 32 33  1  0
 24 34  1  0
 34 35  2  0
 35 36  1  0
 36 37  2  0
 37 38  1  0
 37 39  1  0
 39 40  2  0
 10 41  1  0
  6 42  1  0
 42 43  2  0
 43 44  1  0
 44 45  1  0
 43  3  1  0
 41  7  2  0
 23 18  1  0
 33 29  1  0
 40 34  1  0
M  END
>  <Binding energies>  (71) 
[-9.13]

>  <Ligand effiencies>  (71) 
[-0.19847826086956524]

>  <Interactions>  (71) 
["V-B:GLU:543:CD:9880, V-A:GLU:543:CD:4908, H-A:GLU:543:OE1:4909, V-B:ILE:369:CD1:8211, V-A:PRO:540:CA:4883, V-A:ALA:541:CB:4892, V-A:GLU:543:CG:4907, V-B:ARG:545:CZ:9898, V-A:PRO:540:C:4881, V-B:LEU:475:CD2:9231, H-A:ALA:541:N:4891, H-B:GLY:454:N:9022, V-B:GLY:453:C:9014, H-B:TYR:484:OH:9320, V-B:GLY:453:CA:9016, V-B:HIS:456:CE1:9042, V-A:PRO:540:CB:4885, H-B:LYS:547:NZ:9923, H-A:LYS:547:NZ:4951, V-B:HIS:456:CD2:9040, V-A:LYS:547:CE:4950, V-A:HIS:456:CD2:4068, V-A:HIS:456:CG:4066, V-A:GLY:544:C:4912, V-A:LYS:547:CD:4949, V-B:ASP:366:CG:8185, V-A:HIS:456:CE1:4070, V-A:GLU:543:CB:4906"]

$$$$
RR17_Rahimova_2017
     RDKit          3D

 38 41  0  0  0  0  0  0  0  0999 V2000
  127.7890  136.3420   61.3580 C   0  0  0  0  0  0  0  0  0  0  0  0
  126.7470  136.4050   60.2370 C   0  0  0  0  0  0  0  0  0  0  0  0
  125.5730  135.7200   60.6650 O   0  0  0  0  0  0  0  0  0  0  0  0
  125.5230  134.3410   60.5730 C   0  0  0  0  0  0  0  0  0  0  0  0
  124.2960  133.7430   60.8570 C   0  0  0  0  0  0  0  0  0  0  0  0
  124.1490  132.3610   60.7920 C   0  0  0  0  0  0  0  0  0  0  0  0
  125.2330  131.5440   60.4420 C   0  0  0  0  0  0  0  0  0  0  0  0
  125.0440  130.0560   60.3790 C   0  0  0  0  0  0  0  0  0  0  0  0
  124.7740  129.4670   59.3280 O   0  0  0  0  0  0  0  0  0  0  0  0
  125.1860  129.2750   61.7040 C   0  0  0  0  0  0  0  0  0  0  0  0
  124.3710  130.1300   63.1000 S   0  0  0  0  0  0  0  0  0  0  0  0
  125.3430  129.5130   64.4450 C   0  0  0  0  0  0  0  0  0  0  0  0
  124.8750  128.8700   65.4890 N   0  0  0  0  0  0  0  0  0  0  0  0
  125.9500  128.5500   66.3090 N   0  0  0  0  0  0  0  0  0  0  0  0
  127.0290  129.0080   65.7270 C   0  0  0  0  0  0  0  0  0  0  0  0
  128.4380  128.8630   66.2820 C   0  0  0  0  0  0  0  0  0  0  0  0
  128.6260  127.6750   67.1120 N   0  0  0  0  0  0  0  0  0  0  0  0
  129.0250  127.7200   68.4600 C   0  0  0  0  0  0  0  0  0  0  0  0
  128.2930  126.9600   69.3720 C   0  0  0  0  0  0  0  0  0  0  0  0
  128.6310  126.9620   70.7220 C   0  0  0  0  0  0  0  0  0  0  0  0
  129.7110  127.7240   71.1760 C   0  0  0  0  0  0  0  0  0  0  0  0
  130.0660  127.7210   72.6630 C   0  0  0  0  0  0  0  0  0  0  0  0
  129.4560  126.7350   73.3250 F   0  0  0  0  0  0  0  0  0  0  0  0
  131.3810  127.5750   72.8270 F   0  0  0  0  0  0  0  0  0  0  0  0
  129.6930  128.8810   73.2030 F   0  0  0  0  0  0  0  0  0  0  0  0
  130.4520  128.4810   70.2620 C   0  0  0  0  0  0  0  0  0  0  0  0
  130.1140  128.4770   68.9120 C   0  0  0  0  0  0  0  0  0  0  0  0
  126.7140  129.6430   64.5430 N   0  0  0  0  0  0  0  0  0  0  0  0
  127.5910  130.2520   63.6330 C   0  0  0  0  0  0  0  0  0  0  0  0
  127.8440  131.6200   63.7310 C   0  0  0  0  0  0  0  0  0  0  0  0
  128.7120  132.2230   62.8260 C   0  0  0  0  0  0  0  0  0  0  0  0
  129.3290  131.4610   61.8200 C   0  0  0  0  0  0  0  0  0  0  0  0
  130.2030  131.9740   60.8810 O   0  0  0  0  0  0  0  0  0  0  0  0
  131.4590  131.3360   60.6800 C   0  0  0  0  0  0  0  0  0  0  0  0
  129.0620  130.0930   61.7360 C   0  0  0  0  0  0  0  0  0  0  0  0
  128.1960  129.4830   62.6390 C   0  0  0  0  0  0  0  0  0  0  0  0
  126.4670  132.1470   60.1550 C   0  0  0  0  0  0  0  0  0  0  0  0
  126.6110  133.5300   60.2200 C   0  0  0  0  0  0  0  0  0  0  0  0
  1  2  1  0
  2  3  1  0
  3  4  1  0
  4  5  2  0
  5  6  1  0
  6  7  2  0
  7  8  1  0
  8  9  2  0
  8 10  1  0
 10 11  1  0
 11 12  1  0
 12 13  2  0
 13 14  1  0
 14 15  2  0
 15 16  1  0
 16 17  1  0
 17 18  1  0
 18 19  2  0
 19 20  1  0
 20 21  2  0
 21 22  1  0
 22 23  1  0
 22 24  1  0
 22 25  1  0
 21 26  1  0
 26 27  2  0
 15 28  1  0
 28 29  1  0
 29 30  2  0
 30 31  1  0
 31 32  2  0
 32 33  1  0
 33 34  1  0
 32 35  1  0
 35 36  2  0
  7 37  1  0
 37 38  2  0
 38  4  1  0
 28 12  1  0
 36 29  1  0
 27 18  1  0
M  END
>  <Binding energies>  (72) 
[-8.33]

>  <Ligand effiencies>  (72) 
[-0.21358974358974359]

>  <Interactions>  (72) 
["H-B:GLU:543:OE2:9882, V-B:GLU:543:CD:9880, H-A:GLU:543:OE2:4910, V-A:GLU:543:CD:4908, V-B:ILE:369:CD1:8211, V-A:TYR:539:CE1:4875, V-A:PRO:540:CA:4883, V-A:ALA:541:CB:4892, V-A:TYR:539:CD1:4873, V-A:GLU:543:CG:4907, V-B:ILE:369:CG2:8209, V-B:ARG:545:CZ:9898, V-B:LEU:475:CD2:9231, H-A:ALA:541:N:4891, H-B:GLY:454:N:9022, H-B:ARG:545:NE:9896, H-B:TYR:484:OH:9320, V-B:HIS:456:CE1:9042, V-A:PRO:540:CB:4885, V-B:HIS:456:CD2:9040, V-A:LYS:547:CE:4950, V-A:HIS:456:CD2:4068, V-A:HIS:456:CG:4066, V-A:GLY:544:C:4912, V-B:TYR:484:CZ:9319, V-B:ASP:366:CG:8185, V-B:PRO:482:CG:9299, V-B:PRO:482:CB:9298, H-B:ARG:545:NH2:9900, V-A:HIS:456:CE1:4070, V-A:GLU:543:CB:4906, V-B:TYR:484:CE2:9318, V-A:GLU:543:CA:4904, V-A:GLU:543:C:4902, V-A:GLY:544:CA:4914, V-B:LYS:547:CE:9922, H-B:SER:385:OG:8382, V-A:TYR:539:CB:4871"]

$$$$
RR19_Rahimova_2017
     RDKit          3D

 46 51  0  0  0  0  0  0  0  0999 V2000
  124.9460  128.2620   61.4630 O   0  0  0  0  0  0  0  0  0  0  0  0
  126.0290  128.3940   62.0420 C   0  0  0  0  0  0  0  0  0  0  0  0
  127.1110  127.5860   61.9010 N   0  0  0  0  0  0  0  0  0  0  0  0
  127.4310  126.5980   61.0030 C   0  0  0  0  0  0  0  0  0  0  0  0
  126.5880  126.2530   59.5760 S   0  0  0  0  0  0  0  0  0  0  0  0
  128.5470  125.9390   61.4550 N   0  0  0  0  0  0  0  0  0  0  0  0
  129.3510  124.9970   60.9010 C   0  0  0  0  0  0  0  0  0  0  0  0
  129.3480  124.6330   59.7220 O   0  0  0  0  0  0  0  0  0  0  0  0
  130.3300  124.3370   61.9050 C   0  0  2  0  0  0  0  0  0  0  0  0
  131.6770  125.0930   62.0950 C   0  0  0  0  0  0  0  0  0  0  0  0
  132.1200  125.2740   63.5380 C   0  0  0  0  0  0  0  0  0  0  0  0
  131.1780  125.5420   64.5560 C   0  0  0  0  0  0  0  0  0  0  0  0
  131.5910  125.6270   65.8790 C   0  0  0  0  0  0  0  0  0  0  0  0
  132.9260  125.4300   66.2100 C   0  0  0  0  0  0  0  0  0  0  0  0
  133.8580  125.1360   65.2230 C   0  0  0  0  0  0  0  0  0  0  0  0
  133.4660  125.0450   63.8950 C   0  0  0  0  0  0  0  0  0  0  0  0
  130.5500  122.9010   61.5810 N   0  0  0  0  0  0  0  0  0  0  0  0
  129.6860  121.9370   62.0080 C   0  0  0  0  0  0  0  0  0  0  0  0
  128.6790  122.0920   62.7030 O   0  0  0  0  0  0  0  0  0  0  0  0
  130.2080  120.6630   61.4570 C   0  0  0  0  0  0  0  0  0  0  0  0
  129.7370  119.3550   61.5740 C   0  0  0  0  0  0  0  0  0  0  0  0
  130.4390  118.3300   60.9300 C   0  0  0  0  0  0  0  0  0  0  0  0
  131.5900  118.6220   60.1850 C   0  0  0  0  0  0  0  0  0  0  0  0
  132.0460  119.9410   60.0800 C   0  0  0  0  0  0  0  0  0  0  0  0
  131.3320  120.9480   60.7310 C   0  0  0  0  0  0  0  0  0  0  0  0
  131.5580  122.4130   60.7960 C   0  0  0  0  0  0  0  0  0  0  0  0
  132.4590  123.0510   60.2500 O   0  0  0  0  0  0  0  0  0  0  0  0
  126.2240  129.5620   63.0440 C   0  0  2  0  0  0  0  0  0  0  0  0
  125.5470  129.3280   64.4250 C   0  0  0  0  0  0  0  0  0  0  0  0
  126.4660  128.7110   65.4640 C   0  0  0  0  0  0  0  0  0  0  0  0
  127.8050  129.1460   65.5730 C   0  0  0  0  0  0  0  0  0  0  0  0
  128.6140  128.6540   66.5900 C   0  0  0  0  0  0  0  0  0  0  0  0
  128.1040  127.7560   67.5180 C   0  0  0  0  0  0  0  0  0  0  0  0
  126.7770  127.3490   67.4470 C   0  0  0  0  0  0  0  0  0  0  0  0
  125.9520  127.8280   66.4380 C   0  0  0  0  0  0  0  0  0  0  0  0
  125.8620  130.8930   62.4780 N   0  0  0  0  0  0  0  0  0  0  0  0
  126.8080  131.7490   61.9970 C   0  0  0  0  0  0  0  0  0  0  0  0
  128.0270  131.5770   61.9730 O   0  0  0  0  0  0  0  0  0  0  0  0
  126.0560  132.9310   61.5080 C   0  0  0  0  0  0  0  0  0  0  0  0
  126.4990  134.1180   60.9220 C   0  0  0  0  0  0  0  0  0  0  0  0
  125.5490  135.0760   60.5490 C   0  0  0  0  0  0  0  0  0  0  0  0
  124.1850  134.8380   60.7620 C   0  0  0  0  0  0  0  0  0  0  0  0
  123.7610  133.6410   61.3490 C   0  0  0  0  0  0  0  0  0  0  0  0
  124.7240  132.6990   61.7150 C   0  0  0  0  0  0  0  0  0  0  0  0
  124.5860  131.3620   62.3420 C   0  0  0  0  0  0  0  0  0  0  0  0
  123.5430  130.7960   62.6710 O   0  0  0  0  0  0  0  0  0  0  0  0
  1  2  2  0
  2  3  1  0
  3  4  1  0
  4  5  2  0
  4  6  1  0
  6  7  1  0
  7  8  2  0
  7  9  1  0
  9 10  1  6
 10 11  1  0
 11 12  2  0
 12 13  1  0
 13 14  2  0
 14 15  1  0
 15 16  2  0
  9 17  1  0
 17 18  1  0
 18 19  2  0
 18 20  1  0
 20 21  2  0
 21 22  1  0
 22 23  2  0
 23 24  1  0
 24 25  2  0
 25 26  1  0
 26 27  2  0
  2 28  1  0
 28 29  1  1
 29 30  1  0
 30 31  2  0
 31 32  1  0
 32 33  2  0
 33 34  1  0
 34 35  2  0
 28 36  1  0
 36 37  1  0
 37 38  2  0
 37 39  1  0
 39 40  2  0
 40 41  1  0
 41 42  2  0
 42 43  1  0
 43 44  2  0
 44 45  1  0
 45 46  2  0
 16 11  1  0
 26 17  1  0
 35 30  1  0
 45 36  1  0
 25 20  1  0
 44 39  1  0
M  END
>  <Binding energies>  (73) 
[-10.12]

>  <Ligand effiencies>  (73) 
[-0.21083333333333332]

>  <Interactions>  (73) 
["V-B:ALA:541:CB:9864, V-B:TYR:539:CD2:9846, V-A:TYR:484:CZ:4347, H-B:GLU:543:OE2:9882, V-A:TYR:484:CE1:4345, V-A:PRO:482:CB:4326, V-A:LEU:475:CD1:4258, V-A:LEU:475:CD2:4259, V-B:GLU:543:CD:9880, V-A:SER:385:CB:3409, H-B:GLU:543:OE1:9881, V-B:TYR:539:CE2:9848, V-A:GLU:543:CD:4908, V-A:ARG:545:CZ:4926, H-A:TYR:484:OH:4348, V-B:SER:385:C:8377, V-B:ILE:369:CD1:8211, V-A:TYR:539:CE1:4875, V-B:SER:385:CA:8379, V-A:TYR:539:CD1:4873, V-B:SER:385:CB:8381, V-A:GLU:543:CG:4907, V-B:ILE:369:CG2:8209, V-B:ARG:545:CZ:9898, V-B:LEU:475:CD2:9231, H-B:GLY:454:N:9022, V-B:ARG:545:CD:9895, V-B:HIS:456:CE1:9042, V-B:ARG:545:CG:9894, V-A:LEU:475:CG:4257, V-A:GLY:454:CA:4049, V-A:GLY:453:CA:4044, V-A:GLY:453:C:4042, V-B:GLU:543:CB:9878, V-B:ASP:366:CG:8185, H-B:ALA:541:N:9863, H-B:ARG:545:NH2:9900, V-A:ARG:545:CG:4922, V-A:ARG:545:CD:4923, V-A:TYR:484:CE2:4346, V-A:HIS:456:CE1:4070, V-A:GLU:543:CB:4906"]

$$$$
RR1_Rahimova_2017
     RDKit          3D

 41 44  0  0  0  0  0  0  0  0999 V2000
  129.5010  118.4050   74.8780 C   0  0  0  0  0  0  0  0  0  0  0  0
  128.7680  119.5530   75.2910 O   0  0  0  0  0  0  0  0  0  0  0  0
  129.3050  120.8070   75.0790 C   0  0  0  0  0  0  0  0  0  0  0  0
  129.5810  121.3470   73.8120 C   0  0  0  0  0  0  0  0  0  0  0  0
  130.1310  122.6200   73.6960 C   0  0  0  0  0  0  0  0  0  0  0  0
  130.4070  123.3770   74.8360 C   0  0  0  0  0  0  0  0  0  0  0  0
  131.0040  124.6330   74.6170 N   0  0  0  0  0  0  0  0  0  0  0  0
  130.6950  125.8320   75.1540 C   0  0  0  0  0  0  0  0  0  0  0  0
  129.7460  126.0380   75.9110 O   0  0  0  0  0  0  0  0  0  0  0  0
  131.6340  126.9780   74.7440 C   0  0  0  0  0  0  0  0  0  0  0  0
  131.2390  127.7820   73.1510 S   0  0  0  0  0  0  0  0  0  0  0  0
  129.4990  127.9320   73.3820 C   0  0  0  0  0  0  0  0  0  0  0  0
  128.9400  128.6970   74.2850 N   0  0  0  0  0  0  0  0  0  0  0  0
  127.6370  128.5130   74.0950 C   0  0  0  0  0  0  0  0  0  0  0  0
  126.5970  129.2190   74.9170 C   0  0  0  0  0  0  0  0  0  0  0  0
  126.9180  130.3360   75.7050 C   0  0  0  0  0  0  0  0  0  0  0  0
  125.9300  130.9710   76.4610 C   0  0  0  0  0  0  0  0  0  0  0  0
  124.6310  130.4690   76.4100 C   0  0  0  0  0  0  0  0  0  0  0  0
  124.2850  129.3930   75.6600 N   0  0  0  0  0  0  0  0  0  0  0  0
  125.2600  128.7910   74.9320 C   0  0  0  0  0  0  0  0  0  0  0  0
  127.3200  127.6690   73.1310 N   0  0  0  0  0  0  0  0  0  0  0  0
  128.5170  127.2920   72.6710 N   0  0  0  0  0  0  0  0  0  0  0  0
  128.6220  126.3550   71.5530 C   0  0  0  0  0  0  0  0  0  0  0  0
  127.6560  126.6240   70.3860 C   0  0  0  0  0  0  0  0  0  0  0  0
  126.4330  126.6220   70.5640 O   0  0  0  0  0  0  0  0  0  0  0  0
  128.2490  126.8480   69.1980 N   0  0  0  0  0  0  0  0  0  0  0  0
  127.4510  127.2430   68.1330 N   0  0  0  0  0  0  0  0  0  0  0  0
  127.9640  128.1340   67.2570 C   0  0  0  0  0  0  0  0  0  0  0  0
  129.1310  128.5400   67.2850 O   0  0  0  0  0  0  0  0  0  0  0  0
  127.0150  128.6120   66.1770 C   0  0  0  0  0  0  0  0  0  0  0  0
  127.5010  128.8970   64.8960 C   0  0  0  0  0  0  0  0  0  0  0  0
  126.6490  129.3490   63.8930 C   0  0  0  0  0  0  0  0  0  0  0  0
  125.2810  129.5370   64.1440 C   0  0  0  0  0  0  0  0  0  0  0  0
  124.3840  129.9970   63.1960 O   0  0  0  0  0  0  0  0  0  0  0  0
  124.5680  129.6480   61.8290 C   0  0  0  0  0  0  0  0  0  0  0  0
  124.7760  129.2640   65.4220 C   0  0  0  0  0  0  0  0  0  0  0  0
  123.4230  129.4860   65.6230 O   0  0  0  0  0  0  0  0  0  0  0  0
  122.9220  129.6260   66.9480 C   0  0  0  0  0  0  0  0  0  0  0  0
  125.6460  128.8010   66.4250 C   0  0  0  0  0  0  0  0  0  0  0  0
  130.1320  122.8410   76.1040 C   0  0  0  0  0  0  0  0  0  0  0  0
  129.5820  121.5680   76.2150 C   0  0  0  0  0  0  0  0  0  0  0  0
  1  2  1  0
  2  3  1  0
  3  4  2  0
  4  5  1  0
  5  6  2  0
  6  7  1  0
  7  8  1  0
  8  9  2  0
  8 10  1  0
 10 11  1  0
 11 12  1  0
 12 13  2  0
 13 14  1  0
 14 15  1  0
 15 16  2  0
 16 17  1  0
 17 18  2  0
 18 19  1  0
 19 20  2  0
 14 21  2  0
 21 22  1  0
 22 23  1  0
 23 24  1  0
 24 25  2  0
 24 26  1  0
 26 27  1  0
 27 28  1  0
 28 29  2  0
 28 30  1  0
 30 31  2  0
 31 32  1  0
 32 33  2  0
 33 34  1  0
 34 35  1  0
 33 36  1  0
 36 37  1  0
 37 38  1  0
 36 39  2  0
  6 40  1  0
 40 41  2  0
 41  3  1  0
 22 12  1  0
 39 30  1  0
 20 15  1  0
M  END
>  <Binding energies>  (74) 
[-7.82]

>  <Ligand effiencies>  (74) 
[-0.17772727272727273]

>  <Interactions>  (74) 
["H-B:GLU:543:OE2:9882, V-B:GLU:543:CD:9880, V-A:GLU:543:CD:4908, V-B:ARG:545:CZ:9898, H-B:GLY:454:N:9022, H-B:ARG:545:NE:9896, V-B:GLY:453:C:9014, H-B:TYR:484:OH:9320, V-B:GLY:454:C:9019, V-B:ILE:455:C:9024, V-B:GLY:454:CA:9021, V-B:GLY:453:CA:9016, V-B:ARG:545:CD:9895, H-B:ARG:545:NH1:9899, V-B:HIS:456:CE1:9042, V-B:ARG:545:CG:9894, V-B:ARG:545:CB:9893, H-B:LYS:547:NZ:9923, H-A:LYS:547:NZ:4951, V-B:HIS:456:CD2:9040, V-A:HIS:456:CB:4065, V-A:HIS:456:CD2:4068, V-B:GLY:544:C:9884, V-B:HIS:456:CG:9038, V-B:HIS:456:CB:9037, V-B:VAL:457:C:9045, V-A:ASP:473:CG:4240, V-B:VAL:458:CG2:9059, H-B:HIS:456:ND1:9039, V-B:GLU:543:CB:9878, V-B:TYR:484:CZ:9319, V-B:ASP:366:CG:8185, V-A:HIS:456:CE1:4070, V-B:GLU:543:C:9874, V-B:LYS:547:CE:9922, V-B:HIS:456:C:9033, H-B:HIS:456:NE2:9043, H-A:HIS:456:NE2:4071, H-B:ARG:545:N:9892, V-A:LYS:471:CE:4220, H-B:VAL:457:N:9048, V-B:LYS:471:CB:9189, H-A:ASP:473:OD1:4241, V-A:ASP:473:CB:4239, V-A:TYR:484:C:4337, V-A:PRO:486:CD:4366, V-A:ASP:485:CA:4353"]

$$$$
RR22_Rahimova_2017
     RDKit          3D

 31 36  0  0  0  0  0  0  0  0999 V2000
  128.2140  129.1000   65.8890 O   0  0  0  0  0  0  0  0  0  0  0  0
  127.8430  129.2310   64.7250 C   0  0  0  0  0  0  0  0  0  0  0  0
  127.3630  130.3770   64.1160 N   0  0  0  0  0  0  0  0  0  0  0  0
  127.0280  130.3770   62.7250 C   0  0  1  0  0  0  0  0  0  0  0  0
  125.6690  130.8190   62.6660 O   0  0  0  0  0  0  0  0  0  0  0  0
  125.3790  131.9760   61.9420 C   0  0  0  0  0  0  0  0  0  0  0  0
  124.1480  132.5800   62.2010 C   0  0  0  0  0  0  0  0  0  0  0  0
  123.7700  133.7170   61.4870 C   0  0  0  0  0  0  0  0  0  0  0  0
  124.6180  134.2430   60.5110 C   0  0  0  0  0  0  0  0  0  0  0  0
  125.8490  133.6380   60.2510 C   0  0  0  0  0  0  0  0  0  0  0  0
  126.2520  132.5120   60.9760 C   0  0  0  0  0  0  0  0  0  0  0  0
  127.5420  131.7600   60.7420 C   0  0  1  0  0  0  0  0  0  0  0  0
  128.8110  132.4450   60.2770 C   0  0  0  0  0  0  0  0  0  0  0  0
  129.8550  131.5350   60.9300 C   0  0  0  0  0  0  0  0  0  0  0  0
  131.2670  131.5020   60.5010 C   0  0  0  0  0  0  0  0  0  0  0  0
  132.2950  131.8090   61.4050 C   0  0  0  0  0  0  0  0  0  0  0  0
  133.6250  131.7760   60.9950 C   0  0  0  0  0  0  0  0  0  0  0  0
  133.9350  131.4370   59.6810 C   0  0  0  0  0  0  0  0  0  0  0  0
  132.9270  131.1300   58.7710 C   0  0  0  0  0  0  0  0  0  0  0  0
  131.5960  131.1610   59.1800 C   0  0  0  0  0  0  0  0  0  0  0  0
  129.3410  130.8530   61.8840 N   0  0  0  0  0  0  0  0  0  0  0  0
  127.9870  131.2140   61.9890 N   0  0  0  0  0  0  0  0  0  0  0  0
  127.0440  128.9240   62.2740 C   0  0  0  0  0  0  0  0  0  0  0  0
  126.4550  128.5000   61.1310 C   0  0  0  0  0  0  0  0  0  0  0  0
  126.4120  127.1360   60.5690 C   0  0  0  0  0  0  0  0  0  0  0  0
  126.4050  125.9800   61.3620 C   0  0  0  0  0  0  0  0  0  0  0  0
  126.3640  124.7210   60.7600 C   0  0  0  0  0  0  0  0  0  0  0  0
  126.3380  124.6510   59.3670 C   0  0  0  0  0  0  0  0  0  0  0  0
  126.3540  125.7520   58.5750 N   0  0  0  0  0  0  0  0  0  0  0  0
  126.3920  126.9670   59.1790 C   0  0  0  0  0  0  0  0  0  0  0  0
  127.8330  127.9020   63.4840 S   0  0  0  0  0  0  0  0  0  0  0  0
  1  2  2  0
  2  3  1  0
  4  3  1  1
  4  5  1  0
  5  6  1  0
  6  7  2  0
  7  8  1  0
  8  9  2  0
  9 10  1  0
 10 11  2  0
 11 12  1  0
 12 13  1  1
 13 14  1  0
 14 15  1  0
 15 16  2  0
 16 17  1  0
 17 18  2  0
 18 19  1  0
 19 20  2  0
 14 21  2  0
 21 22  1  0
  4 23  1  0
 23 24  2  0
 24 25  1  0
 25 26  2  0
 26 27  1  0
 27 28  2  0
 28 29  1  0
 29 30  2  0
 23 31  1  0
 31  2  1  0
 22  4  1  0
 30 25  1  0
 11  6  1  0
 22 12  1  0
 20 15  1  0
M  END
>  <Binding energies>  (75) 
[-7.85]

>  <Ligand effiencies>  (75) 
[-0.2453125]

>  <Interactions>  (75) 
["V-B:GLU:543:CD:9880, V-A:GLU:543:CD:4908, V-B:SER:385:C:8377, V-B:ILE:369:CD1:8211, V-A:TYR:539:CE1:4875, V-A:PRO:540:CA:4883, V-A:TYR:539:CD1:4873, V-A:GLU:543:CG:4907, V-B:ILE:369:CG2:8209, V-A:PRO:540:C:4881, V-B:LEU:475:CD2:9231, V-A:ALA:541:CA:4890, H-B:TYR:484:OH:9320, V-A:ASN:362:CB:3176, V-B:GLY:454:CA:9021, V-A:PRO:540:CB:4885, V-A:ASP:366:CG:3213, V-B:TYR:484:CZ:9319, V-B:ASP:366:CG:8185, V-A:ASN:362:C:3172, V-A:ALA:541:C:4888, H-B:TYR:531:OH:9767, V-A:LEU:363:CB:3187, V-A:ASN:362:CA:3174, V-A:LEU:363:CA:3185"]

$$$$
RR24_Rahimova_2017
     RDKit          3D

 43 49  0  0  0  0  0  0  0  0999 V2000
  124.5160  130.0950   58.1360 C   0  0  0  0  0  0  0  0  0  0  0  0
  125.4740  130.9180   59.0090 C   0  0  2  0  0  0  0  0  0  0  0  0
  126.9250  130.9720   58.4460 C   0  0  0  0  0  0  0  0  0  0  0  0
  127.7490  131.8050   58.8360 O   0  0  0  0  0  0  0  0  0  0  0  0
  127.1470  130.0310   57.4820 O   0  0  0  0  0  0  0  0  0  0  0  0
  127.3820  128.7250   57.8490 C   0  0  0  0  0  0  0  0  0  0  0  0
  128.4420  128.4370   58.7110 C   0  0  0  0  0  0  0  0  0  0  0  0
  128.6840  127.1210   59.0960 C   0  0  0  0  0  0  0  0  0  0  0  0
  127.8640  126.0900   58.6280 C   0  0  0  0  0  0  0  0  0  0  0  0
  128.1480  124.6410   59.0400 C   0  0  1  0  0  0  0  0  0  0  0  0
  129.6190  124.4410   59.4730 C   0  0  0  0  0  0  0  0  0  0  0  0
  129.9640  123.8510   60.6320 C   0  0  0  0  0  0  0  0  0  0  0  0
  129.0290  123.3840   61.5220 N   0  0  0  0  0  0  0  0  0  0  0  0
  127.6820  123.4980   61.2690 C   0  0  0  0  0  0  0  0  0  0  0  0
  126.8910  122.9790   62.2440 N   0  0  0  0  0  0  0  0  0  0  0  0
  125.5340  123.0700   62.2050 C   0  0  0  0  0  0  0  0  0  0  0  0
  124.8880  122.8780   63.2370 O   0  0  0  0  0  0  0  0  0  0  0  0
  125.0330  123.5450   61.0030 N   0  0  0  0  0  0  0  0  0  0  0  0
  123.5610  123.5780   60.8740 C   0  0  0  0  0  0  0  0  0  0  0  0
  125.7440  124.0960   59.9500 C   0  0  0  0  0  0  0  0  0  0  0  0
  125.2250  124.5490   58.9250 O   0  0  0  0  0  0  0  0  0  0  0  0
  127.1980  124.0780   60.1400 C   0  0  0  0  0  0  0  0  0  0  0  0
  131.4090  123.7990   60.7760 C   0  0  0  0  0  0  0  0  0  0  0  0
  132.2480  123.3040   61.7760 C   0  0  0  0  0  0  0  0  0  0  0  0
  133.6330  123.4060   61.6150 C   0  0  0  0  0  0  0  0  0  0  0  0
  134.1670  123.9950   60.4650 C   0  0  0  0  0  0  0  0  0  0  0  0
  133.3210  124.4880   59.4680 C   0  0  0  0  0  0  0  0  0  0  0  0
  131.9390  124.3850   59.6340 C   0  0  0  0  0  0  0  0  0  0  0  0
  130.8320  124.8130   58.7530 C   0  0  0  0  0  0  0  0  0  0  0  0
  130.8700  125.3620   57.6530 O   0  0  0  0  0  0  0  0  0  0  0  0
  126.7920  126.3850   57.7790 C   0  0  0  0  0  0  0  0  0  0  0  0
  126.5480  127.7000   57.3950 C   0  0  0  0  0  0  0  0  0  0  0  0
  125.4350  130.4930   60.4400 N   0  0  0  0  0  0  0  0  0  0  0  0
  124.2600  130.4080   61.1260 C   0  0  0  0  0  0  0  0  0  0  0  0
  123.1290  130.6590   60.7070 O   0  0  0  0  0  0  0  0  0  0  0  0
  124.6320  129.9490   62.4880 C   0  0  0  0  0  0  0  0  0  0  0  0
  123.8440  129.6910   63.6110 C   0  0  0  0  0  0  0  0  0  0  0  0
  124.4740  129.2580   64.7840 C   0  0  0  0  0  0  0  0  0  0  0  0
  125.8640  129.0900   64.8190 C   0  0  0  0  0  0  0  0  0  0  0  0
  126.6350  129.3540   63.6820 C   0  0  0  0  0  0  0  0  0  0  0  0
  125.9900  129.7860   62.5230 C   0  0  0  0  0  0  0  0  0  0  0  0
  126.5260  130.1360   61.1840 C   0  0  0  0  0  0  0  0  0  0  0  0
  127.7020  130.1050   60.8200 O   0  0  0  0  0  0  0  0  0  0  0  0
  2  1  1  6
  2  3  1  0
  3  4  2  0
  3  5  1  0
  5  6  1  0
  6  7  2  0
  7  8  1  0
  8  9  2  0
 10  9  1  1
 10 11  1  0
 11 12  2  0
 12 13  1  0
 13 14  1  0
 14 15  1  0
 15 16  1  0
 16 17  2  0
 16 18  1  0
 18 19  1  0
 18 20  1  0
 20 21  2  0
 20 22  1  0
 12 23  1  0
 23 24  2  0
 24 25  1  0
 25 26  2  0
 26 27  1  0
 27 28  2  0
 28 29  1  0
 29 30  2  0
  9 31  1  0
 31 32  2  0
  2 33  1  0
 33 34  1  0
 34 35  2  0
 34 36  1  0
 36 37  2  0
 37 38  1  0
 38 39  2  0
 39 40  1  0
 40 41  2  0
 41 42  1  0
 42 43  2  0
 32  6  1  0
 42 33  1  0
 22 10  1  0
 28 23  1  0
 41 36  1  0
 29 11  1  0
 22 14  2  0
M  END
>  <Binding energies>  (76) 
[-8.14]

>  <Ligand effiencies>  (76) 
[-0.1808888888888889]

>  <Interactions>  (76) 
["V-B:ALA:541:CB:9864, V-B:GLU:543:CG:9879, V-B:GLU:543:CD:9880, H-B:GLU:543:OE1:9881, V-A:ILE:369:CG2:3237, V-B:TYR:539:CE2:9848, V-B:PRO:540:C:9853, V-B:PRO:540:CA:9855, H-A:TYR:484:OH:4348, V-A:TYR:539:CE1:4875, V-B:ARG:545:CZ:9898, V-B:GLY:453:C:9014, V-B:GLY:453:CA:9016, V-B:ARG:545:CD:9895, V-A:ASP:366:CG:3213, V-A:GLY:454:CA:4049, V-A:ILE:369:CD1:3239, V-B:ASP:366:CG:8185, H-B:ALA:541:N:9863, H-B:ARG:545:NH2:9900, V-A:ASP:366:CB:3212, V-B:ASP:366:CA:8182, V-B:ASP:366:CB:8184, H-B:TYR:531:OH:9767, H-B:ASN:362:ND2:8151, V-B:PRO:540:CB:9857, V-B:ASN:362:CB:8148, V-A:ASP:366:CA:3210, V-A:ILE:369:CB:3236, H-B:TYR:539:OH:9850, V-B:ASN:362:CA:8146, V-B:ASN:362:C:8144, V-B:LEU:363:CA:8157, V-B:TYR:531:CZ:9766"]

$$$$
RR25_Rahimova_2017
     RDKit          3D

 39 44  0  0  0  0  0  0  0  0999 V2000
  122.6840  130.4370   61.5790 O   0  0  0  0  0  0  0  0  0  0  0  0
  123.6510  130.0150   62.2140 C   0  0  0  0  0  0  0  0  0  0  0  0
  123.6480  130.2670   63.5640 O   0  0  0  0  0  0  0  0  0  0  0  0
  124.5360  129.6390   64.4180 C   0  0  0  0  0  0  0  0  0  0  0  0
  124.1390  129.5030   65.7470 C   0  0  0  0  0  0  0  0  0  0  0  0
  124.9890  128.8870   66.6630 C   0  0  0  0  0  0  0  0  0  0  0  0
  126.2450  128.4040   66.2670 C   0  0  0  0  0  0  0  0  0  0  0  0
  127.1450  127.7420   67.2440 N   0  0  0  0  0  0  0  0  0  0  0  0
  126.6850  126.8560   67.9590 O   0  0  0  0  0  0  0  0  0  0  0  0
  128.3160  128.1040   67.3020 O   0  0  0  0  0  0  0  0  0  0  0  0
  126.6310  128.5620   64.9260 C   0  0  0  0  0  0  0  0  0  0  0  0
  125.7940  129.1840   63.9960 C   0  0  0  0  0  0  0  0  0  0  0  0
  126.1610  129.3690   62.5350 C   0  0  0  0  0  0  0  0  0  0  0  0
  124.8840  129.2470   61.6550 C   0  0  2  0  0  0  0  0  0  0  0  0
  125.2050  129.5290   60.1590 C   0  0  0  0  0  0  0  0  0  0  0  0
  124.6640  130.5220   59.6660 O   0  0  0  0  0  0  0  0  0  0  0  0
  126.1290  128.7990   59.4630 N   0  0  0  0  0  0  0  0  0  0  0  0
  126.5620  127.4490   59.8800 C   0  0  0  0  0  0  0  0  0  0  0  0
  128.0650  127.2870   59.5720 C   0  0  0  0  0  0  0  0  0  0  0  0
  128.3560  127.5670   58.1630 N   0  0  0  0  0  0  0  0  0  0  0  0
  129.7610  127.2860   57.8370 C   0  0  0  0  0  0  0  0  0  0  0  0
  129.9740  125.8540   57.2760 C   0  0  0  0  0  0  0  0  0  0  0  0
  130.3640  124.8120   58.2700 N   0  0  0  0  0  0  0  0  0  0  0  0
  131.7090  124.7590   58.5710 C   0  0  0  0  0  0  0  0  0  0  0  0
  132.5510  125.4910   58.0370 O   0  0  0  0  0  0  0  0  0  0  0  0
  132.0790  123.7390   59.6300 C   0  0  0  0  0  0  0  0  0  0  0  0
  133.4160  123.6190   60.0320 C   0  0  0  0  0  0  0  0  0  0  0  0
  133.7910  122.6980   61.0080 C   0  0  0  0  0  0  0  0  0  0  0  0
  132.8460  121.8730   61.6160 C   0  0  0  0  0  0  0  0  0  0  0  0
  131.4830  121.9590   61.2430 C   0  0  0  0  0  0  0  0  0  0  0  0
  130.4720  121.1540   61.8190 C   0  0  0  0  0  0  0  0  0  0  0  0
  129.1480  121.2920   61.4070 C   0  0  0  0  0  0  0  0  0  0  0  0
  128.7960  122.2170   60.4270 C   0  0  0  0  0  0  0  0  0  0  0  0
  129.7620  123.0350   59.8280 C   0  0  0  0  0  0  0  0  0  0  0  0
  131.1130  122.9010   60.2430 C   0  0  0  0  0  0  0  0  0  0  0  0
  129.3380  124.0360   58.7710 C   0  0  0  0  0  0  0  0  0  0  0  0
  128.1620  124.1490   58.4090 O   0  0  0  0  0  0  0  0  0  0  0  0
  127.9950  128.9500   57.8470 C   0  0  0  0  0  0  0  0  0  0  0  0
  126.4900  129.2170   58.0890 C   0  0  0  0  0  0  0  0  0  0  0  0
  1  2  2  0
  2  3  1  0
  3  4  1  0
  4  5  2  0
  5  6  1  0
  6  7  2  0
  7  8  1  0
  8  9  2  0
  8 10  1  0
  7 11  1  0
 11 12  2  0
 12 13  1  0
 13 14  1  0
 14 15  1  6
 15 16  2  0
 15 17  1  0
 17 18  1  0
 18 19  1  0
 19 20  1  0
 20 21  1  0
 21 22  1  0
 22 23  1  0
 23 24  1  0
 24 25  2  0
 24 26  1  0
 26 27  2  0
 27 28  1  0
 28 29  2  0
 29 30  1  0
 30 31  2  0
 31 32  1  0
 32 33  2  0
 33 34  1  0
 34 35  2  0
 34 36  1  0
 36 37  2  0
 20 38  1  0
 38 39  1  0
 14  2  1  0
 39 17  1  0
 12  4  1  0
 36 23  1  0
 35 26  1  0
 35 30  1  0
M  CHG  2   8   1  10  -1
M  END
>  <Binding energies>  (77) 
[-8.96]

>  <Ligand effiencies>  (77) 
[-0.22974358974358977]

>  <Interactions>  (77) 
["V-B:ALA:541:CB:9864, V-B:TYR:539:CD2:9846, V-B:TYR:539:C:9839, V-A:LEU:475:CD2:4259, V-B:GLU:543:CD:9880, V-A:ILE:369:CG2:3237, V-B:TYR:539:CE2:9848, V-B:PRO:540:CA:9855, V-B:ARG:545:CZ:9898, H-B:GLY:454:N:9022, V-B:GLY:453:CA:9016, V-B:ARG:545:CD:9895, H-B:ARG:545:NH1:9899, V-B:HIS:456:CE1:9042, V-B:ARG:545:CG:9894, V-A:GLY:454:CA:4049, V-A:ILE:369:CD1:3239, V-B:GLU:543:CB:9878, V-B:TYR:484:CZ:9319, V-B:ASP:366:CG:8185, V-B:ASP:366:CB:8184, H-B:TYR:539:OH:9850, V-B:TYR:539:CZ:9849"]

$$$$
RR27_Rahimova_2017
     RDKit          3D

 39 44  0  0  0  0  0  0  0  0999 V2000
  129.1450  122.5720   62.9130 O   0  0  0  0  0  0  0  0  0  0  0  0
  129.0670  122.3980   61.6930 C   0  0  0  0  0  0  0  0  0  0  0  0
  130.3450  121.9460   60.9280 C   0  0  0  0  0  0  0  0  0  0  0  0
  130.5380  120.4190   60.9220 C   0  0  0  0  0  0  0  0  0  0  0  0
  131.5790  119.8060   60.2060 C   0  0  0  0  0  0  0  0  0  0  0  0
  131.7260  118.4230   60.2240 C   0  0  0  0  0  0  0  0  0  0  0  0
  130.8340  117.6440   60.9570 C   0  0  0  0  0  0  0  0  0  0  0  0
  129.7950  118.2370   61.6690 C   0  0  0  0  0  0  0  0  0  0  0  0
  129.6480  119.6200   61.6510 C   0  0  0  0  0  0  0  0  0  0  0  0
  131.5840  122.7560   61.3570 C   0  0  0  0  0  0  0  0  0  0  0  0
  132.8530  122.1690   61.4460 C   0  0  0  0  0  0  0  0  0  0  0  0
  133.9500  122.9270   61.8490 C   0  0  0  0  0  0  0  0  0  0  0  0
  133.7810  124.2710   62.1680 C   0  0  0  0  0  0  0  0  0  0  0  0
  132.5240  124.8640   62.0950 C   0  0  0  0  0  0  0  0  0  0  0  0
  131.4280  124.1060   61.6940 C   0  0  0  0  0  0  0  0  0  0  0  0
  127.8710  122.4450   61.0400 N   0  0  0  0  0  0  0  0  0  0  0  0
  127.7480  122.4990   59.5750 C   0  0  0  0  0  0  0  0  0  0  0  0
  127.8100  123.9900   59.1760 C   0  0  0  0  0  0  0  0  0  0  0  0
  126.7420  124.8570   59.9150 C   0  0  0  0  0  0  0  0  0  0  0  0
  126.8340  126.3690   59.6380 C   0  0  0  0  0  0  0  0  0  0  0  0
  127.7230  126.7570   58.6780 N   0  0  0  0  0  0  0  0  0  0  0  0
  127.8240  128.0810   58.3750 C   0  0  0  0  0  0  0  0  0  0  0  0
  128.6740  128.5920   57.4290 O   0  0  0  0  0  0  0  0  0  0  0  0
  127.0070  128.9970   59.0660 C   0  0  0  0  0  0  0  0  0  0  0  0
  126.8540  130.3510   59.0090 N   0  0  0  0  0  0  0  0  0  0  0  0
  125.8970  130.6960   59.9450 N   0  0  0  0  0  0  0  0  0  0  0  0
  125.4640  129.5750   60.5600 N   0  0  0  0  0  0  0  0  0  0  0  0
  124.4610  129.6500   61.6200 C   0  0  0  0  0  0  0  0  0  0  0  0
  125.0040  129.3110   63.0010 C   0  0  0  0  0  0  0  0  0  0  0  0
  126.2820  128.7590   63.1400 C   0  0  0  0  0  0  0  0  0  0  0  0
  126.7830  128.4590   64.4070 C   0  0  0  0  0  0  0  0  0  0  0  0
  126.0140  128.7140   65.5420 C   0  0  0  0  0  0  0  0  0  0  0  0
  124.7420  129.2740   65.4110 C   0  0  0  0  0  0  0  0  0  0  0  0
  123.7980  129.6150   66.8160 Cl  0  0  0  0  0  0  0  0  0  0  0  0
  124.2370  129.5670   64.1440 C   0  0  0  0  0  0  0  0  0  0  0  0
  126.1350  128.4770   60.0470 C   0  0  0  0  0  0  0  0  0  0  0  0
  126.0220  127.1850   60.3690 N   0  0  0  0  0  0  0  0  0  0  0  0
  126.6610  124.5110   61.4340 C   0  0  0  0  0  0  0  0  0  0  0  0
  126.6810  122.9870   61.7140 C   0  0  0  0  0  0  0  0  0  0  0  0
  1  2  2  0
  2  3  1  0
  3  4  1  0
  4  5  2  0
  5  6  1  0
  6  7  2  0
  7  8  1  0
  8  9  2  0
  3 10  1  0
 10 11  2  0
 11 12  1  0
 12 13  2  0
 13 14  1  0
 14 15  2  0
  2 16  1  0
 16 17  1  0
 17 18  1  0
 18 19  1  0
 19 20  1  0
 20 21  2  0
 21 22  1  0
 22 23  1  0
 22 24  2  0
 24 25  1  0
 25 26  2  0
 26 27  1  0
 27 28  1  0
 28 29  1  0
 29 30  2  0
 30 31  1  0
 31 32  2  0
 32 33  1  0
 33 34  1  0
 33 35  2  0
 27 36  1  0
 36 37  2  0
 19 38  1  0
 38 39  1  0
  9  4  1  0
 15 10  1  0
 39 16  1  0
 37 20  1  0
 36 24  1  0
 35 29  1  0
M  END
>  <Binding energies>  (78) 
[-9.25]

>  <Ligand effiencies>  (78) 
[-0.23125]

>  <Interactions>  (78) 
["V-B:ALA:541:CB:9864, V-B:TYR:539:CD2:9846, V-A:PRO:482:CG:4327, V-A:PRO:482:CB:4326, V-B:TYR:539:C:9839, V-A:LEU:475:CD1:4258, V-A:LEU:475:CD2:4259, V-B:GLU:543:CD:9880, V-A:SER:385:CB:3409, V-B:TYR:539:CE2:9848, V-B:PRO:540:C:9853, V-B:PRO:540:CA:9855, H-A:TYR:484:OH:4348, V-B:ARG:545:CZ:9898, V-B:GLY:454:CA:9021, V-B:GLY:453:CA:9016, V-B:ARG:545:CD:9895, V-B:HIS:456:CE1:9042, V-B:ARG:545:CG:9894, V-A:LEU:475:CG:4257, V-A:GLY:454:CA:4049, V-A:ILE:369:CD1:3239, V-A:GLY:453:CA:4044, V-A:GLY:453:C:4042, V-B:TYR:484:CE1:9317, V-B:TYR:484:CZ:9319, V-B:ASP:366:CG:8185, H-B:ARG:545:NH2:9900, V-B:PRO:540:CB:9857, V-B:PRO:540:N:9856"]

$$$$
RR28_Rahimova_2017
     RDKit          3D

 46 49  0  0  0  0  0  0  0  0999 V2000
  125.5970  134.6080   60.6580 C   0  0  0  0  0  0  0  0  0  0  0  0
  126.7750  133.7760   61.1520 C   0  0  0  0  0  0  0  0  0  0  0  0
  127.6950  134.3240   61.7570 O   0  0  0  0  0  0  0  0  0  0  0  0
  126.7280  132.4550   60.8840 N   0  0  0  0  0  0  0  0  0  0  0  0
  127.7220  131.4140   61.2300 C   0  0  0  0  0  0  0  0  0  0  0  0
  127.2280  130.6740   62.5060 C   0  0  0  0  0  0  0  0  0  0  0  0
  128.1510  130.3430   63.5100 C   0  0  0  0  0  0  0  0  0  0  0  0
  127.7460  129.6780   64.6630 C   0  0  0  0  0  0  0  0  0  0  0  0
  126.4060  129.3270   64.8390 C   0  0  0  0  0  0  0  0  0  0  0  0
  125.9810  128.5930   66.1100 C   0  0  0  0  0  0  0  0  0  0  0  0
  124.9480  129.1830   66.7150 F   0  0  0  0  0  0  0  0  0  0  0  0
  125.6290  127.3390   65.8240 F   0  0  0  0  0  0  0  0  0  0  0  0
  127.0040  128.5670   66.9650 F   0  0  0  0  0  0  0  0  0  0  0  0
  125.4770  129.6500   63.8460 C   0  0  0  0  0  0  0  0  0  0  0  0
  125.8840  130.3150   62.6930 C   0  0  0  0  0  0  0  0  0  0  0  0
  129.1520  132.0470   61.3800 C   0  0  0  0  0  0  0  0  0  0  0  0
  129.7130  132.6150   60.0520 C   0  0  0  0  0  0  0  0  0  0  0  0
  129.7490  131.4920   59.1000 N   0  0  0  0  0  0  0  0  0  0  0  0
  130.8810  130.7520   58.9520 C   0  0  0  0  0  0  0  0  0  0  0  0
  131.9510  131.0840   59.4660 O   0  0  0  0  0  0  0  0  0  0  0  0
  130.8660  129.5490   57.9780 C   0  0  0  0  0  0  0  0  0  0  0  0
  131.2390  128.1720   58.5930 C   0  0  0  0  0  0  0  0  0  0  0  0
  130.0910  127.4570   59.3450 C   0  0  0  0  0  0  0  0  0  0  0  0
  129.1990  128.1540   59.8360 O   0  0  0  0  0  0  0  0  0  0  0  0
  130.0170  126.0960   59.3290 N   0  0  0  0  0  0  0  0  0  0  0  0
  131.1680  125.2290   59.0510 C   0  0  0  0  0  0  0  0  0  0  0  0
  131.9050  125.0320   60.3940 C   0  0  0  0  0  0  0  0  0  0  0  0
  131.0200  124.4450   61.5490 C   0  0  0  0  0  0  0  0  0  0  0  0
  131.6960  124.6780   62.8430 N   0  0  0  0  0  0  0  0  0  0  0  0
  133.0190  124.7370   63.0920 C   0  0  0  0  0  0  0  0  0  0  0  0
  133.4240  124.9740   64.5430 C   0  0  0  0  0  0  0  0  0  0  0  0
  133.8890  124.6100   62.2310 O   0  0  0  0  0  0  0  0  0  0  0  0
  130.9340  122.9000   61.3330 C   0  0  0  0  0  0  0  0  0  0  0  0
  129.8470  122.1280   61.7780 C   0  0  0  0  0  0  0  0  0  0  0  0
  129.8080  120.7530   61.5650 C   0  0  0  0  0  0  0  0  0  0  0  0
  130.8580  120.1120   60.9040 C   0  0  0  0  0  0  0  0  0  0  0  0
  130.8290  118.6040   60.6590 C   0  0  0  0  0  0  0  0  0  0  0  0
  131.9960  118.0500   60.9940 F   0  0  0  0  0  0  0  0  0  0  0  0
  129.8690  118.0580   61.4050 F   0  0  0  0  0  0  0  0  0  0  0  0
  130.5850  118.3060   59.3810 F   0  0  0  0  0  0  0  0  0  0  0  0
  131.9490  120.8630   60.4630 C   0  0  0  0  0  0  0  0  0  0  0  0
  131.9840  122.2370   60.6780 C   0  0  0  0  0  0  0  0  0  0  0  0
  129.6110  125.1550   61.5270 C   0  0  0  0  0  0  0  0  0  0  0  0
  128.9950  125.4050   60.1240 C   0  0  0  0  0  0  0  0  0  0  0  0
  128.4150  130.9790   58.7550 C   0  0  0  0  0  0  0  0  0  0  0  0
  127.8060  130.3880   60.0530 C   0  0  0  0  0  0  0  0  0  0  0  0
  1  2  1  0
  2  3  2  0
  2  4  1  0
  4  5  1  0
  5  6  1  0
  6  7  2  0
  7  8  1  0
  8  9  2  0
  9 10  1  0
 10 11  1  0
 10 12  1  0
 10 13  1  0
  9 14  1  0
 14 15  2  0
  5 16  1  0
 16 17  1  0
 17 18  1  0
 18 19  1  0
 19 20  2  0
 19 21  1  0
 21 22  1  0
 22 23  1  0
 23 24  2  0
 23 25  1  0
 25 26  1  0
 26 27  1  0
 27 28  1  0
 28 29  1  0
 29 30  1  0
 30 31  1  0
 30 32  2  0
 28 33  1  0
 33 34  2  0
 34 35  1  0
 35 36  2  0
 36 37  1  0
 37 38  1  0
 37 39  1  0
 37 40  1  0
 36 41  1  0
 41 42  2  0
 28 43  1  0
 43 44  1  0
 18 45  1  0
 45 46  1  0
 46  5  1  0
 15  6  1  0
 44 25  1  0
 42 33  1  0
M  END
>  <Binding energies>  (79) 
[-7.91]

>  <Ligand effiencies>  (79) 
[-0.16479166666666667]

>  <Interactions>  (79) 
["V-B:ALA:541:CB:9864, V-B:TYR:539:CD2:9846, V-A:TYR:484:CZ:4347, V-A:PRO:482:CG:4327, V-A:PRO:482:CB:4326, V-B:TYR:539:C:9839, V-A:LEU:475:CD1:4258, V-A:LEU:475:CD2:4259, V-B:GLU:543:CD:9880, V-A:SER:385:CB:3409, V-B:TYR:539:CE2:9848, V-A:GLU:543:CD:4908, V-A:ARG:545:CZ:4926, H-A:TYR:484:OH:4348, V-A:TYR:539:CE1:4875, V-A:PRO:540:CA:4883, V-A:ALA:541:CB:4892, V-A:TYR:539:CD1:4873, V-A:GLU:543:CG:4907, V-B:ARG:545:CZ:9898, V-A:PRO:540:C:4881, V-B:LEU:475:CD2:9231, V-A:TYR:539:C:4867, V-B:ARG:545:CD:9895, V-B:HIS:456:CE1:9042, V-B:ARG:545:CG:9894, V-A:ASP:366:CG:3213, V-A:LEU:475:CG:4257, V-A:GLY:454:CA:4049, V-B:TYR:484:CE1:9317, V-B:TYR:484:CZ:9319, V-A:ASP:366:CB:3212, H-A:GLY:454:N:4050, V-A:ARG:545:CD:4923, V-A:TYR:484:CE2:4346, V-A:PRO:540:N:4884, H-A:ARG:545:NH2:4928, V-B:TYR:539:CB:9843, V-B:TYR:539:CG:9844, V-B:TYR:539:CA:9841"]

$$$$
RR29_Rahimova_2017
     RDKit          3D

 18 19  0  0  0  0  0  0  0  0999 V2000
  133.7730  124.0350   61.6980 C   0  0  0  0  0  0  0  0  0  0  0  0
  132.5260  124.9040   61.7770 C   0  0  0  0  0  0  0  0  0  0  0  0
  131.5960  124.7360   60.5560 C   0  0  0  0  0  0  0  0  0  0  0  0
  130.9580  123.3320   60.5130 C   0  0  0  0  0  0  0  0  0  0  0  0
  129.4380  123.3880   60.4890 C   0  0  0  0  0  0  0  0  0  0  0  0
  128.7660  123.7580   59.3070 C   0  0  0  0  0  0  0  0  0  0  0  0
  127.3660  123.8150   59.2620 C   0  0  0  0  0  0  0  0  0  0  0  0
  126.6730  123.5070   60.4270 C   0  0  0  0  0  0  0  0  0  0  0  0
  127.3190  123.1510   61.5780 C   0  0  0  0  0  0  0  0  0  0  0  0
  128.7060  123.0750   61.6480 C   0  0  0  0  0  0  0  0  0  0  0  0
  126.4020  122.8740   62.5410 O   0  0  0  0  0  0  0  0  0  0  0  0
  125.1660  123.2770   62.0140 C   0  0  0  0  0  0  0  0  0  0  0  0
  125.3300  123.4640   60.6340 O   0  0  0  0  0  0  0  0  0  0  0  0
  132.3730  125.6670   62.7960 N   0  0  0  0  0  0  0  0  0  0  0  0
  131.2890  126.5170   62.8290 N   0  0  0  0  0  0  0  0  0  0  0  0
  130.1390  126.2430   63.4660 C   0  0  0  0  0  0  0  0  0  0  0  0
  129.8980  125.1310   64.1620 N   0  0  0  0  0  0  0  0  0  0  0  0
  129.1690  127.1440   63.4010 N   0  0  0  0  0  0  0  0  0  0  0  0
  1  2  1  0
  2  3  1  0
  3  4  1  0
  4  5  1  0
  5  6  2  0
  6  7  1  0
  7  8  2  0
  8  9  1  0
  9 10  2  0
  9 11  1  0
 11 12  1  0
 12 13  1  0
  2 14  2  0
 14 15  1  0
 15 16  1  0
 16 17  1  0
 16 18  2  0
 10  5  1  0
 13  8  1  0
M  CHG  1  18   1
M  END
>  <Binding energies>  (80) 
[-6.75]

>  <Ligand effiencies>  (80) 
[-0.29347826086956524]

>  <Interactions>  (80) 
["V-B:GLU:543:CG:9879, V-A:TYR:484:CZ:4347, H-B:GLU:543:OE2:9882, V-B:GLU:543:CD:9880, H-B:GLU:543:OE1:9881, V-B:TYR:539:CE2:9848, H-A:GLU:543:OE2:4910, V-A:GLU:543:CD:4908, V-B:PRO:540:C:9853, V-B:PRO:540:CA:9855, H-A:GLU:543:OE1:4909, V-A:ARG:545:CZ:4926, H-A:TYR:484:OH:4348, H-A:ASP:366:OD1:3214, V-A:ILE:369:CD1:3239, H-B:ALA:541:N:9863, V-B:PRO:540:CB:9857, V-B:ASN:362:CB:8148, H-A:ARG:545:NH2:4928"]

$$$$
RR30_Rahimova_2017
     RDKit          3D

 18 19  0  0  0  0  0  0  0  0999 V2000
  128.6100  126.7950   71.5510 C   0  0  0  0  0  0  0  0  0  0  0  0
  129.8490  127.7020   71.5280 C   0  0  0  0  0  0  0  0  0  0  0  0
  130.5720  127.7180   72.8570 C   0  0  0  0  0  0  0  0  0  0  0  0
  130.2950  128.4300   73.9210 N   0  0  0  0  0  0  0  0  0  0  0  0
  131.2570  128.0900   74.8690 N   0  0  0  0  0  0  0  0  0  0  0  0
  132.0370  127.2110   74.2930 C   0  0  0  0  0  0  0  0  0  0  0  0
  133.4350  126.3940   74.9910 S   0  0  0  0  0  0  0  0  0  0  0  0
  132.5900  125.1330   75.9970 C   0  0  0  0  0  0  0  0  0  0  0  0
  131.2450  124.7180   75.3950 C   0  0  0  0  0  0  0  0  0  0  0  0
  130.2400  125.3860   75.6480 O   0  0  0  0  0  0  0  0  0  0  0  0
  131.2570  123.5990   74.6370 N   0  0  0  0  0  0  0  0  0  0  0  0
  130.1690  123.0290   73.9920 C   0  0  0  0  0  0  0  0  0  0  0  0
  129.3760  123.5730   73.0970 N   0  0  0  0  0  0  0  0  0  0  0  0
  128.3850  122.6990   72.6690 N   0  0  0  0  0  0  0  0  0  0  0  0
  128.4470  121.5200   73.2430 C   0  0  0  0  0  0  0  0  0  0  0  0
  127.4750  120.4010   72.9430 C   0  0  0  0  0  0  0  0  0  0  0  0
  129.7610  121.3860   74.3790 S   0  0  0  0  0  0  0  0  0  0  0  0
  131.6600  126.9250   73.0210 O   0  0  0  0  0  0  0  0  0  0  0  0
  1  2  1  0
  2  3  1  0
  3  4  2  0
  4  5  1  0
  5  6  2  0
  6  7  1  0
  7  8  1  0
  8  9  1  0
  9 10  2  0
  9 11  1  0
 11 12  1  0
 12 13  2  0
 13 14  1  0
 14 15  2  0
 15 16  1  0
 15 17  1  0
  6 18  1  0
 18  3  1  0
 17 12  1  0
M  END
>  <Binding energies>  (81) 
[-6.01]

>  <Ligand effiencies>  (81) 
[-0.3163157894736842]

>  <Interactions>  (81) 
["H-B:LYS:547:NZ:9923, H-A:LYS:547:NZ:4951, V-A:VAL:458:CG2:4087, V-B:HIS:456:CD2:9040, V-A:HIS:456:CB:4065, V-A:HIS:456:CD2:4068, V-A:LYS:471:CD:4219, V-A:ASP:473:CG:4240, V-A:HIS:456:CE1:4070, V-B:LYS:547:CE:9922, H-A:ASP:473:OD1:4241, V-A:ASP:473:CB:4239, V-B:GLY:544:CA:9886"]

$$$$
RR31_Rahimova_2017
     RDKit          3D

 18 19  0  0  0  0  0  0  0  0999 V2000
  131.4950  126.9510   76.7320 C   0  0  0  0  0  0  0  0  0  0  0  0
  131.1060  127.0920   75.2670 C   0  0  0  0  0  0  0  0  0  0  0  0
  129.7680  127.3090   74.9350 C   0  0  0  0  0  0  0  0  0  0  0  0
  129.3810  127.4450   73.6040 C   0  0  0  0  0  0  0  0  0  0  0  0
  130.3220  127.3770   72.5630 C   0  0  0  0  0  0  0  0  0  0  0  0
  129.9480  127.5010   71.2230 N   0  0  0  0  0  0  0  0  0  0  0  0
  128.6510  127.0040   70.7240 C   0  0  0  0  0  0  0  0  0  0  0  0
  128.5840  126.8530   69.1860 C   0  0  0  0  0  0  0  0  0  0  0  0
  128.9120  128.1160   68.5210 N   0  0  0  0  0  0  0  0  0  0  0  0
  128.8220  128.0140   67.0610 C   0  0  0  0  0  0  0  0  0  0  0  0
  128.2220  129.2740   66.4050 C   0  0  0  0  0  0  0  0  0  0  0  0
  127.8550  129.0450   64.9300 C   0  0  0  0  0  0  0  0  0  0  0  0
  128.6290  127.8420   64.3780 N   0  0  0  0  0  0  0  0  0  0  0  0
  130.2780  128.4710   68.9070 C   0  0  0  0  0  0  0  0  0  0  0  0
  130.3810  128.6730   70.4360 C   0  0  0  0  0  0  0  0  0  0  0  0
  131.6620  127.1500   72.9100 C   0  0  0  0  0  0  0  0  0  0  0  0
  132.0640  127.0100   74.2440 C   0  0  0  0  0  0  0  0  0  0  0  0
  133.5350  126.7610   74.5540 C   0  0  0  0  0  0  0  0  0  0  0  0
  1  2  1  0
  2  3  2  0
  3  4  1  0
  4  5  2  0
  5  6  1  0
  6  7  1  0
  7  8  1  0
  8  9  1  0
  9 10  1  0
 10 11  1  0
 11 12  1  0
 12 13  1  0
  9 14  1  0
 14 15  1  0
  5 16  1  0
 16 17  2  0
 17 18  1  0
 17  2  1  0
 15  6  1  0
M  CHG  1  13   1
M  END
>  <Binding energies>  (82) 
[-6.64]

>  <Ligand effiencies>  (82) 
[-0.3161904761904762]

>  <Interactions>  (82) 
["H-B:GLU:543:OE2:9882, V-B:GLU:543:CD:9880, H-B:GLU:543:OE1:9881, H-A:GLU:543:OE2:4910, V-A:GLU:543:CD:4908, H-A:GLU:543:OE1:4909, V-A:GLU:543:CG:4907, V-B:HIS:456:CE1:9042, V-A:VAL:458:CG2:4087, V-B:HIS:456:CD2:9040, V-A:HIS:456:CB:4065, V-A:HIS:456:CD2:4068, V-A:HIS:456:CG:4066, V-A:GLY:544:C:4912, V-B:GLU:543:CB:9878, V-B:TYR:484:CZ:9319, V-A:HIS:456:CE1:4070, V-A:GLU:543:CB:4906, V-A:GLU:543:CA:4904, V-A:GLU:543:C:4902, V-A:GLY:544:CA:4914, V-B:LYS:547:CE:9922"]

$$$$
RR32_Rahimova_2017
     RDKit          3D

 18 20  0  0  0  0  0  0  0  0999 V2000
  130.0450  127.7650   71.2790 C   0  0  0  0  0  0  0  0  0  0  0  0
  129.9740  127.8760   72.7990 C   0  0  0  0  0  0  0  0  0  0  0  0
  128.7970  128.3600   73.3710 C   0  0  0  0  0  0  0  0  0  0  0  0
  128.6950  128.4720   74.7540 C   0  0  0  0  0  0  0  0  0  0  0  0
  127.5250  128.9530   75.3180 N   0  0  0  0  0  0  0  0  0  0  0  0
  127.4220  130.4090   75.5200 C   0  0  0  0  0  0  0  0  0  0  0  0
  126.1630  130.8270   76.3160 C   0  0  0  0  0  0  0  0  0  0  0  0
  124.9560  130.3640   75.6330 N   0  0  0  0  0  0  0  0  0  0  0  0
  123.7680  130.7860   76.3680 C   0  0  0  0  0  0  0  0  0  0  0  0
  125.0120  128.9060   75.5560 C   0  0  0  0  0  0  0  0  0  0  0  0
  126.2550  128.4580   74.7510 C   0  0  0  0  0  0  0  0  0  0  0  0
  129.7060  128.1290   75.5930 N   0  0  0  0  0  0  0  0  0  0  0  0
  130.8680  127.6560   75.0650 C   0  0  0  0  0  0  0  0  0  0  0  0
  131.9060  127.3080   75.9630 C   0  0  0  0  0  0  0  0  0  0  0  0
  133.1150  126.8200   75.4810 C   0  0  0  0  0  0  0  0  0  0  0  0
  133.3190  126.6670   74.1150 C   0  0  0  0  0  0  0  0  0  0  0  0
  132.3190  127.0000   73.2050 C   0  0  0  0  0  0  0  0  0  0  0  0
  131.0640  127.5040   73.6540 C   0  0  0  0  0  0  0  0  0  0  0  0
  1  2  1  0
  2  3  2  0
  3  4  1  0
  4  5  1  0
  5  6  1  0
  6  7  1  0
  7  8  1  0
  8  9  1  0
  8 10  1  0
 10 11  1  0
  4 12  2  0
 12 13  1  0
 13 14  2  0
 14 15  1  0
 15 16  2  0
 16 17  1  0
 17 18  2  0
 18  2  1  0
 11  5  1  0
 18 13  1  0
M  END
>  <Binding energies>  (83) 
[-5.92]

>  <Ligand effiencies>  (83) 
[-0.3288888888888889]

>  <Interactions>  (83) 
["H-A:LYS:547:NZ:4951, V-A:VAL:458:CG2:4087, V-B:HIS:456:CD2:9040, V-A:LYS:547:CE:4950, V-A:HIS:456:CB:4065, V-A:HIS:456:CD2:4068, V-B:HIS:456:CG:9038, V-B:HIS:456:CB:9037, V-B:VAL:457:C:9045, V-A:HIS:456:CG:4066, V-A:GLY:544:C:4912, V-A:LYS:547:CD:4949, V-B:VAL:458:CG2:9059, V-A:HIS:456:CE1:4070, V-B:HIS:456:C:9033, V-B:VAL:457:CA:9047, V-B:LYS:471:CB:9189, V-B:LYS:471:C:9185"]

$$$$
RR5_Rahimova_2017
     RDKit          3D

 45 50  0  0  0  0  0  0  0  0999 V2000
  128.2490  132.2870   63.5820 O   0  0  0  0  0  0  0  0  0  0  0  0
  128.6430  131.5530   62.6760 C   0  0  0  0  0  0  0  0  0  0  0  0
  130.1450  131.5000   62.3370 C   0  0  0  0  0  0  0  0  0  0  0  0
  130.4670  130.7930   60.9720 C   0  0  2  0  0  0  0  0  0  0  0  0
  130.3600  129.3200   60.9930 N   0  0  0  0  0  0  0  0  0  0  0  0
  129.4820  128.6430   60.1580 C   0  0  0  0  0  0  0  0  0  0  0  0
  128.7490  129.1420   59.3000 O   0  0  0  0  0  0  0  0  0  0  0  0
  129.5480  127.3320   60.4470 O   0  0  0  0  0  0  0  0  0  0  0  0
  130.7990  126.6610   60.5730 C   0  0  0  0  0  0  0  0  0  0  0  0
  130.7360  125.5870   61.6810 C   0  0  0  0  0  0  0  0  0  0  0  0
  129.5490  124.6490   61.5540 C   0  0  0  0  0  0  0  0  0  0  0  0
  128.1830  124.9420   61.5290 C   0  0  0  0  0  0  0  0  0  0  0  0
  127.2530  123.9110   61.3800 C   0  0  0  0  0  0  0  0  0  0  0  0
  127.6860  122.5900   61.2570 C   0  0  0  0  0  0  0  0  0  0  0  0
  129.0500  122.2940   61.2850 C   0  0  0  0  0  0  0  0  0  0  0  0
  129.9770  123.3260   61.4350 C   0  0  0  0  0  0  0  0  0  0  0  0
  131.4470  123.3050   61.5040 C   0  0  0  0  0  0  0  0  0  0  0  0
  132.3550  122.2440   61.4490 C   0  0  0  0  0  0  0  0  0  0  0  0
  133.7220  122.4990   61.5630 C   0  0  0  0  0  0  0  0  0  0  0  0
  134.1790  123.8080   61.7280 C   0  0  0  0  0  0  0  0  0  0  0  0
  133.2700  124.8650   61.7790 C   0  0  0  0  0  0  0  0  0  0  0  0
  131.9000  124.6150   61.6620 C   0  0  0  0  0  0  0  0  0  0  0  0
  131.8670  131.2070   60.4560 C   0  0  0  0  0  0  0  0  0  0  0  0
  132.5930  132.0160   60.9970 O   0  0  0  0  0  0  0  0  0  0  0  0
  132.1610  130.5110   59.3180 O   0  0  0  0  0  0  0  0  0  0  0  0
  127.8520  130.7360   61.9450 N   0  0  0  0  0  0  0  0  0  0  0  0
  126.3830  130.4690   61.9350 C   0  0  0  0  0  0  0  0  0  0  0  0
  126.2500  129.4220   60.7780 C   0  0  0  0  0  0  0  0  0  0  0  0
  125.8800  129.8080   59.4790 C   0  0  0  0  0  0  0  0  0  0  0  0
  125.7660  128.8680   58.4580 C   0  0  0  0  0  0  0  0  0  0  0  0
  126.0090  127.5250   58.7210 C   0  0  0  0  0  0  0  0  0  0  0  0
  126.3780  127.1140   59.9970 C   0  0  0  0  0  0  0  0  0  0  0  0
  126.5020  128.0560   61.0150 C   0  0  0  0  0  0  0  0  0  0  0  0
  126.0070  129.8720   63.3330 C   0  0  0  0  0  0  0  0  0  0  0  0
  124.6770  129.8260   63.7820 C   0  0  0  0  0  0  0  0  0  0  0  0
  124.3680  129.3090   65.0380 C   0  0  0  0  0  0  0  0  0  0  0  0
  125.3840  128.8340   65.8610 C   0  0  0  0  0  0  0  0  0  0  0  0
  126.7080  128.8650   65.4360 C   0  0  0  0  0  0  0  0  0  0  0  0
  127.0140  129.3740   64.1780 C   0  0  0  0  0  0  0  0  0  0  0  0
  125.6940  131.8350   61.6010 C   0  0  0  0  0  0  0  0  0  0  0  0
  124.3530  132.0740   61.9520 C   0  0  0  0  0  0  0  0  0  0  0  0
  123.7330  133.2840   61.6510 C   0  0  0  0  0  0  0  0  0  0  0  0
  124.4470  134.2810   60.9970 C   0  0  0  0  0  0  0  0  0  0  0  0
  125.7780  134.0800   60.6510 C   0  0  0  0  0  0  0  0  0  0  0  0
  126.3940  132.8690   60.9530 C   0  0  0  0  0  0  0  0  0  0  0  0
  1  2  2  0
  2  3  1  0
  4  3  1  1
  4  5  1  0
  5  6  1  0
  6  7  2  0
  6  8  1  0
  8  9  1  0
  9 10  1  0
 10 11  1  0
 11 12  2  0
 12 13  1  0
 13 14  2  0
 14 15  1  0
 15 16  2  0
 16 17  1  0
 17 18  2  0
 18 19  1  0
 19 20  2  0
 20 21  1  0
 21 22  2  0
  4 23  1  0
 23 24  2  0
 23 25  1  0
  2 26  1  0
 26 27  1  0
 27 28  1  0
 28 29  2  0
 29 30  1  0
 30 31  2  0
 31 32  1  0
 32 33  2  0
 27 34  1  0
 34 35  2  0
 35 36  1  0
 36 37  2  0
 37 38  1  0
 38 39  2  0
 27 40  1  0
 40 41  2  0
 41 42  1  0
 42 43  2  0
 43 44  1  0
 44 45  2  0
 22 10  1  0
 33 28  1  0
 39 34  1  0
 45 40  1  0
 16 11  1  0
 22 17  1  0
M  END
>  <Binding energies>  (84) 
[-10.14]

>  <Ligand effiencies>  (84) 
[-0.21125000000000002]

>  <Interactions>  (84) 
["V-A:LEU:475:CD2:4259, V-B:GLU:543:CD:9880, V-A:GLU:543:CD:4908, V-B:PRO:540:C:9853, V-B:PRO:540:CA:9855, H-A:GLU:543:OE1:4909, V-A:ARG:545:CZ:4926, V-B:ILE:369:CD1:8211, V-A:TYR:539:CE1:4875, V-A:PRO:540:CA:4883, V-A:ALA:541:CB:4892, V-A:TYR:539:CD1:4873, V-A:GLU:543:CG:4907, V-B:ILE:369:CG2:8209, V-B:ARG:545:CZ:9898, V-B:LEU:475:CD2:9231, V-A:ALA:541:CA:4890, H-A:ALA:541:N:4891, H-B:TYR:484:OH:9320, V-B:ARG:545:CD:9895, V-B:HIS:456:CE1:9042, V-B:ARG:545:CG:9894, V-A:PRO:540:CB:4885, H-A:ASP:366:OD1:3214, V-A:ASP:366:CG:3213, V-A:GLY:454:CA:4049, V-A:ILE:369:CD1:3239, V-A:GLY:453:CA:4044, V-A:GLY:453:C:4042, V-B:ASP:366:CG:8185, V-B:ASP:366:CB:8184"]

$$$$
