1a_Ghoteimi_2023
     RDKit          3D

 40 43  0  0  0  0  0  0  0  0999 V2000
  134.1540  127.3040   74.1470 C   0  0  0  0  0  0  0  0  0  0  0  0
  133.1130  126.4260   74.8480 C   0  0  0  0  0  0  0  0  0  0  0  0
  131.8370  127.0490   74.7630 O   0  0  0  0  0  0  0  0  0  0  0  0
  130.7680  126.3910   74.2470 C   0  0  0  0  0  0  0  0  0  0  0  0
  130.1890  125.4690   74.8310 O   0  0  0  0  0  0  0  0  0  0  0  0
  130.3540  126.9010   72.8970 C   0  0  0  0  0  0  0  0  0  0  0  0
  129.1180  126.5670   72.3240 C   0  0  0  0  0  0  0  0  0  0  0  0
  128.7630  127.0520   71.0680 C   0  0  0  0  0  0  0  0  0  0  0  0
  129.6410  127.8880   70.3610 C   0  0  0  0  0  0  0  0  0  0  0  0
  129.3880  128.4300   69.0870 N   0  0  0  0  0  0  0  0  0  0  0  0
  128.8390  127.8540   67.9950 C   0  0  0  0  0  0  0  0  0  0  0  0
  128.4280  126.6960   67.9270 O   0  0  0  0  0  0  0  0  0  0  0  0
  128.7300  128.7520   66.7630 C   0  0  0  0  0  0  0  0  0  0  0  0
  127.1100  128.5950   65.9570 S   0  0  0  0  0  0  0  0  0  0  0  0
  127.4370  128.4210   64.2170 C   0  0  0  0  0  0  0  0  0  0  0  0
  128.5600  127.7180   63.9370 N   0  0  0  0  0  0  0  0  0  0  0  0
  128.9210  127.5090   62.6430 C   0  0  0  0  0  0  0  0  0  0  0  0
  130.1660  126.7030   62.4150 C   0  0  0  0  0  0  0  0  0  0  0  0
  130.7190  126.5610   61.1310 C   0  0  0  0  0  0  0  0  0  0  0  0
  131.8740  125.8140   60.9220 C   0  0  0  0  0  0  0  0  0  0  0  0
  132.5120  125.1830   61.9870 C   0  0  0  0  0  0  0  0  0  0  0  0
  133.6540  124.4640   61.6880 O   0  0  0  0  0  0  0  0  0  0  0  0
  133.8580  124.0090   60.3550 C   0  0  0  0  0  0  0  0  0  0  0  0
  131.9710  125.3110   63.2740 C   0  0  0  0  0  0  0  0  0  0  0  0
  130.8160  126.0590   63.4790 C   0  0  0  0  0  0  0  0  0  0  0  0
  128.1420  128.0170   61.5960 C   0  0  0  0  0  0  0  0  0  0  0  0
  126.9900  128.7690   61.8620 C   0  0  0  0  0  0  0  0  0  0  0  0
  126.2260  129.3050   60.6950 C   0  0  0  0  0  0  0  0  0  0  0  0
  125.9520  128.4990   59.5850 C   0  0  0  0  0  0  0  0  0  0  0  0
  125.2260  129.0020   58.5090 C   0  0  0  0  0  0  0  0  0  0  0  0
  124.7550  130.3150   58.5220 C   0  0  0  0  0  0  0  0  0  0  0  0
  124.0450  130.7260   57.4120 O   0  0  0  0  0  0  0  0  0  0  0  0
  123.0460  131.7290   57.5580 C   0  0  0  0  0  0  0  0  0  0  0  0
  125.0210  131.1240   59.6380 C   0  0  0  0  0  0  0  0  0  0  0  0
  125.7480  130.6190   60.7130 C   0  0  0  0  0  0  0  0  0  0  0  0
  126.6180  128.9780   63.2120 C   0  0  0  0  0  0  0  0  0  0  0  0
  125.4140  129.7430   63.5520 C   0  0  0  0  0  0  0  0  0  0  0  0
  124.4640  130.3470   63.8190 N   0  0  0  0  0  0  0  0  0  0  0  0
  130.8730  128.2180   70.9260 C   0  0  0  0  0  0  0  0  0  0  0  0
  131.2270  127.7320   72.1830 C   0  0  0  0  0  0  0  0  0  0  0  0
  1  2  1  0
  2  3  1  0
  3  4  1  0
  4  5  2  0
  4  6  1  0
  6  7  2  0
  7  8  1  0
  8  9  2  0
  9 10  1  0
 10 11  1  0
 11 12  2  0
 11 13  1  0
 13 14  1  0
 14 15  1  0
 15 16  2  0
 16 17  1  0
 17 18  1  0
 18 19  2  0
 19 20  1  0
 20 21  2  0
 21 22  1  0
 22 23  1  0
 21 24  1  0
 24 25  2  0
 17 26  2  0
 26 27  1  0
 27 28  1  0
 28 29  2  0
 29 30  1  0
 30 31  2  0
 31 32  1  0
 32 33  1  0
 31 34  1  0
 34 35  2  0
 27 36  2  0
 36 37  1  0
 37 38  3  0
  9 39  1  0
 39 40  2  0
 40  6  1  0
 36 15  1  0
 25 18  1  0
 35 28  1  0
M  END
>  <Binding energies>  (1) 
[-6.8]

>  <Ligand effiencies>  (1) 
[-0.16585365853658537]

>  <Interactions>  (1) 
["V-B:GLU:543:CD:9880, V-A:ILE:369:CG2:3237, V-A:GLU:543:CD:4908, V-A:ARG:545:CZ:4926, V-A:TYR:539:CE1:4875, V-A:GLU:543:CG:4907, V-B:ILE:369:CG2:8209, H-B:GLY:454:N:9022, H-B:TYR:484:OH:9320, V-B:HIS:456:CE1:9042, H-B:LYS:547:NZ:9923, V-A:VAL:458:CG2:4087, V-A:VAL:457:C:4073, V-B:HIS:456:CD2:9040, V-A:HIS:456:CB:4065, V-A:HIS:456:CD2:4068, V-A:HIS:456:CG:4066, V-A:GLY:544:C:4912, V-A:ARG:545:C:4917, V-A:ASP:366:CG:3213, V-A:ILE:369:CD1:3239, V-B:ASP:366:CG:8185, V-B:ILE:369:CB:8208, V-B:ASP:366:CA:8182, V-B:ASP:366:CB:8184, H-A:GLY:454:N:4050, V-A:HIS:456:CE1:4070, V-A:GLU:543:CB:4906, V-A:TYR:539:CZ:4877, V-B:ASP:366:C:8180, V-B:ILE:369:CA:8206, V-A:GLU:543:C:4902, V-A:GLY:544:CA:4914, H-B:HIS:456:NE2:9043, H-A:GLU:543:O:4903, H-A:TYR:539:OH:4878, V-B:ILE:369:C:8204"]

$$$$
1b_Ghoteimi_2023
     RDKit          3D

 34 37  0  0  0  0  0  0  0  0999 V2000
  124.1160  129.5770   66.6180 C   0  0  0  0  0  0  0  0  0  0  0  0
  124.0410  129.9290   65.2410 O   0  0  0  0  0  0  0  0  0  0  0  0
  125.0220  129.4800   64.3780 C   0  0  0  0  0  0  0  0  0  0  0  0
  124.7690  129.6250   63.0150 C   0  0  0  0  0  0  0  0  0  0  0  0
  125.6980  129.2000   62.0710 C   0  0  0  0  0  0  0  0  0  0  0  0
  126.9150  128.6200   62.4610 C   0  0  0  0  0  0  0  0  0  0  0  0
  127.9160  128.1600   61.4380 C   0  0  0  0  0  0  0  0  0  0  0  0
  128.9360  127.2480   61.7280 C   0  0  0  0  0  0  0  0  0  0  0  0
  129.8410  126.8490   60.7370 C   0  0  0  0  0  0  0  0  0  0  0  0
  130.9080  125.8750   61.1190 C   0  0  0  0  0  0  0  0  0  0  0  0
  131.1050  124.7140   60.3670 C   0  0  0  0  0  0  0  0  0  0  0  0
  132.0920  123.7990   60.7240 C   0  0  0  0  0  0  0  0  0  0  0  0
  132.8970  124.0250   61.8410 C   0  0  0  0  0  0  0  0  0  0  0  0
  133.8500  123.0640   62.1190 O   0  0  0  0  0  0  0  0  0  0  0  0
  133.8720  121.8660   61.3510 C   0  0  0  0  0  0  0  0  0  0  0  0
  132.6970  125.1860   62.6030 C   0  0  0  0  0  0  0  0  0  0  0  0
  131.7090  126.0980   62.2440 C   0  0  0  0  0  0  0  0  0  0  0  0
  129.6920  127.3810   59.4330 C   0  0  0  0  0  0  0  0  0  0  0  0
  130.5530  126.9230   58.3380 C   0  0  0  0  0  0  0  0  0  0  0  0
  131.2330  126.5610   57.4750 N   0  0  0  0  0  0  0  0  0  0  0  0
  128.6540  128.3140   59.2130 C   0  0  0  0  0  0  0  0  0  0  0  0
  128.3220  129.0910   57.6450 S   0  0  0  0  0  0  0  0  0  0  0  0
  128.2970  130.8960   57.9070 C   0  0  0  0  0  0  0  0  0  0  0  0
  129.5730  131.4810   58.5290 C   0  0  0  0  0  0  0  0  0  0  0  0
  130.1910  132.3870   57.9650 O   0  0  0  0  0  0  0  0  0  0  0  0
  129.9340  130.9210   59.7050 N   0  0  0  0  0  0  0  0  0  0  0  0
  131.0350  131.2470   60.4890 C   0  0  0  0  0  0  0  0  0  0  0  0
  132.3500  131.1270   60.0430 C   0  0  0  0  0  0  0  0  0  0  0  0
  133.1260  131.5440   61.1010 C   0  0  0  0  0  0  0  0  0  0  0  0
  132.3190  131.8990   62.1290 O   0  0  0  0  0  0  0  0  0  0  0  0
  130.9960  131.7070   61.7300 N   0  0  0  0  0  0  0  0  0  0  0  0
  127.7830  128.6720   60.1870 N   0  0  0  0  0  0  0  0  0  0  0  0
  127.1590  128.4770   63.8360 C   0  0  0  0  0  0  0  0  0  0  0  0
  126.2310  128.8990   64.7840 C   0  0  0  0  0  0  0  0  0  0  0  0
  1  2  1  0
  2  3  1  0
  3  4  2  0
  4  5  1  0
  5  6  2  0
  6  7  1  0
  7  8  2  0
  8  9  1  0
  9 10  1  0
 10 11  2  0
 11 12  1  0
 12 13  2  0
 13 14  1  0
 14 15  1  0
 13 16  1  0
 16 17  2  0
  9 18  2  0
 18 19  1  0
 19 20  3  0
 18 21  1  0
 21 22  1  0
 22 23  1  0
 23 24  1  0
 24 25  2  0
 24 26  1  0
 26 27  1  0
 27 28  1  0
 28 29  2  0
 29 30  1  0
 30 31  1  0
 21 32  2  0
  6 33  1  0
 33 34  2  0
 34  3  1  0
 32  7  1  0
 17 10  1  0
 31 27  2  0
M  END
>  <Binding energies>  (2) 
[-7.37]

>  <Ligand effiencies>  (2) 
[-0.21057142857142858]

>  <Interactions>  (2) 
["V-A:LEU:475:CD2:4259, V-B:GLU:543:CD:9880, V-A:ILE:369:CG2:3237, V-A:GLU:543:CD:4908, V-A:ARG:545:CZ:4926, H-A:TYR:484:OH:4348, V-A:PRO:540:CA:4883, V-B:ARG:545:CZ:9898, H-A:ALA:541:N:4891, H-B:GLY:454:N:9022, H-B:TYR:484:OH:9320, V-A:ASN:362:CB:3176, V-B:ARG:545:CD:9895, V-B:HIS:456:CE1:9042, V-B:ARG:545:CG:9894, V-A:PRO:540:CB:4885, V-A:GLY:454:CA:4049, V-A:ILE:369:CD1:3239, V-B:TYR:484:CE1:9317, V-B:TYR:484:CZ:9319, H-A:GLY:454:N:4050"]

$$$$
1c_Ghoteimi_2023
     RDKit          3D

 34 37  0  0  0  0  0  0  0  0999 V2000
  123.8490  129.6240   66.3990 C   0  0  0  0  0  0  0  0  0  0  0  0
  124.1720  130.0380   65.0760 O   0  0  0  0  0  0  0  0  0  0  0  0
  125.2070  129.4120   64.4070 C   0  0  0  0  0  0  0  0  0  0  0  0
  125.0280  129.1950   63.0430 C   0  0  0  0  0  0  0  0  0  0  0  0
  126.0170  128.5690   62.2900 C   0  0  0  0  0  0  0  0  0  0  0  0
  127.2160  128.1390   62.8800 C   0  0  0  0  0  0  0  0  0  0  0  0
  128.2830  127.4590   62.0730 C   0  0  0  0  0  0  0  0  0  0  0  0
  128.4810  126.0740   62.0950 C   0  0  0  0  0  0  0  0  0  0  0  0
  129.4730  125.4810   61.3040 C   0  0  0  0  0  0  0  0  0  0  0  0
  129.5830  123.9930   61.3260 C   0  0  0  0  0  0  0  0  0  0  0  0
  128.4360  123.1940   61.3270 C   0  0  0  0  0  0  0  0  0  0  0  0
  128.5410  121.8070   61.3700 C   0  0  0  0  0  0  0  0  0  0  0  0
  129.7920  121.1930   61.4160 C   0  0  0  0  0  0  0  0  0  0  0  0
  129.8000  119.8110   61.4560 O   0  0  0  0  0  0  0  0  0  0  0  0
  130.7220  119.0980   60.6390 C   0  0  0  0  0  0  0  0  0  0  0  0
  130.9460  121.9910   61.4220 C   0  0  0  0  0  0  0  0  0  0  0  0
  130.8390  123.3790   61.3790 C   0  0  0  0  0  0  0  0  0  0  0  0
  130.2870  126.3190   60.5060 C   0  0  0  0  0  0  0  0  0  0  0  0
  131.3650  125.7630   59.6800 C   0  0  0  0  0  0  0  0  0  0  0  0
  132.2150  125.3230   59.0290 N   0  0  0  0  0  0  0  0  0  0  0  0
  130.0220  127.7040   60.5170 C   0  0  0  0  0  0  0  0  0  0  0  0
  130.8520  128.8510   59.4390 S   0  0  0  0  0  0  0  0  0  0  0  0
  131.5600  130.1090   60.5520 C   0  0  0  0  0  0  0  0  0  0  0  0
  130.5290  131.1680   60.9580 C   0  0  0  0  0  0  0  0  0  0  0  0
  130.5100  132.2530   60.3740 O   0  0  0  0  0  0  0  0  0  0  0  0
  129.6680  130.7920   61.9290 N   0  0  0  0  0  0  0  0  0  0  0  0
  128.5570  131.4930   62.3680 C   0  0  0  0  0  0  0  0  0  0  0  0
  128.3410  132.0000   63.5630 N   0  0  0  0  0  0  0  0  0  0  0  0
  127.1900  132.6410   63.6150 C   0  0  0  0  0  0  0  0  0  0  0  0
  126.4440  132.6650   62.4410 C   0  0  0  0  0  0  0  0  0  0  0  0
  127.3050  131.7950   61.2060 S   0  0  0  0  0  0  0  0  0  0  0  0
  129.0420  128.2540   61.2740 N   0  0  0  0  0  0  0  0  0  0  0  0
  127.3880  128.3690   64.2530 C   0  0  0  0  0  0  0  0  0  0  0  0
  126.4010  128.9930   65.0100 C   0  0  0  0  0  0  0  0  0  0  0  0
  1  2  1  0
  2  3  1  0
  3  4  2  0
  4  5  1  0
  5  6  2  0
  6  7  1  0
  7  8  2  0
  8  9  1  0
  9 10  1  0
 10 11  2  0
 11 12  1  0
 12 13  2  0
 13 14  1  0
 14 15  1  0
 13 16  1  0
 16 17  2  0
  9 18  2  0
 18 19  1  0
 19 20  3  0
 18 21  1  0
 21 22  1  0
 22 23  1  0
 23 24  1  0
 24 25  2  0
 24 26  1  0
 26 27  1  0
 27 28  2  0
 28 29  1  0
 29 30  2  0
 30 31  1  0
 21 32  2  0
  6 33  1  0
 33 34  2  0
 34  3  1  0
 32  7  1  0
 17 10  1  0
 31 27  1  0
M  END
>  <Binding energies>  (3) 
[-7.22]

>  <Ligand effiencies>  (3) 
[-0.20628571428571427]

>  <Interactions>  (3) 
["V-B:ALA:541:CB:9864, V-B:TYR:539:CD2:9846, V-A:LEU:475:CD2:4259, V-B:GLU:543:CD:9880, V-A:GLU:543:CD:4908, V-B:PRO:540:C:9853, V-B:PRO:540:CA:9855, H-A:GLU:543:OE1:4909, V-A:ALA:541:CB:4892, V-A:GLU:543:CG:4907, V-B:ARG:545:CZ:9898, V-B:LEU:475:CD2:9231, H-A:ALA:541:N:4891, H-B:GLY:454:N:9022, V-B:GLY:453:C:9014, H-B:TYR:484:OH:9320, V-B:GLY:454:CA:9021, V-B:GLY:453:CA:9016, V-B:ARG:545:CD:9895, V-B:HIS:456:CE1:9042, V-B:ARG:545:CG:9894, V-A:ASP:366:CG:3213, V-B:TYR:484:CE1:9317, V-B:TYR:484:CZ:9319, V-B:TYR:484:CE2:9318"]

$$$$
1d_Ghoteimi_2023
     RDKit          3D

 30 32  0  0  0  0  0  0  0  0999 V2000
  133.8580  131.5230   60.5710 C   0  0  0  0  0  0  0  0  0  0  0  0
  132.7680  131.9210   61.3880 O   0  0  0  0  0  0  0  0  0  0  0  0
  131.5210  131.4750   61.1320 C   0  0  0  0  0  0  0  0  0  0  0  0
  130.4840  131.8570   61.6770 O   0  0  0  0  0  0  0  0  0  0  0  0
  131.5010  130.3940   60.0540 C   0  0  0  0  0  0  0  0  0  0  0  0
  129.7630  130.0790   59.6270 S   0  0  0  0  0  0  0  0  0  0  0  0
  129.2030  128.7500   60.6700 C   0  0  0  0  0  0  0  0  0  0  0  0
  128.2230  129.1090   61.5320 N   0  0  0  0  0  0  0  0  0  0  0  0
  127.7050  128.1930   62.3890 C   0  0  0  0  0  0  0  0  0  0  0  0
  126.6180  128.6700   63.3080 C   0  0  0  0  0  0  0  0  0  0  0  0
  126.7100  128.4950   64.6980 C   0  0  0  0  0  0  0  0  0  0  0  0
  125.6980  128.9330   65.5470 C   0  0  0  0  0  0  0  0  0  0  0  0
  124.5630  129.5570   65.0360 C   0  0  0  0  0  0  0  0  0  0  0  0
  123.6090  129.9560   65.9530 O   0  0  0  0  0  0  0  0  0  0  0  0
  123.7820  129.6170   67.3250 C   0  0  0  0  0  0  0  0  0  0  0  0
  124.4560  129.7390   63.6500 C   0  0  0  0  0  0  0  0  0  0  0  0
  125.4710  129.3010   62.8040 C   0  0  0  0  0  0  0  0  0  0  0  0
  128.1680  126.8720   62.3850 C   0  0  0  0  0  0  0  0  0  0  0  0
  129.1910  126.4760   61.5140 C   0  0  0  0  0  0  0  0  0  0  0  0
  129.6430  125.0520   61.5680 C   0  0  0  0  0  0  0  0  0  0  0  0
  128.7100  124.0150   61.4790 C   0  0  0  0  0  0  0  0  0  0  0  0
  129.1240  122.6860   61.5280 C   0  0  0  0  0  0  0  0  0  0  0  0
  130.4750  122.3680   61.6610 C   0  0  0  0  0  0  0  0  0  0  0  0
  130.7920  121.0240   61.7070 O   0  0  0  0  0  0  0  0  0  0  0  0
  129.7430  120.0630   61.7430 C   0  0  0  0  0  0  0  0  0  0  0  0
  131.4160  123.4060   61.7370 C   0  0  0  0  0  0  0  0  0  0  0  0
  131.0000  124.7340   61.6870 C   0  0  0  0  0  0  0  0  0  0  0  0
  129.7450  127.4450   60.6410 C   0  0  0  0  0  0  0  0  0  0  0  0
  130.8870  127.1130   59.7830 C   0  0  0  0  0  0  0  0  0  0  0  0
  131.7880  126.8510   59.1060 N   0  0  0  0  0  0  0  0  0  0  0  0
  1  2  1  0
  2  3  1  0
  3  4  2  0
  3  5  1  0
  5  6  1  0
  6  7  1  0
  7  8  2  0
  8  9  1  0
  9 10  1  0
 10 11  2  0
 11 12  1  0
 12 13  2  0
 13 14  1  0
 14 15  1  0
 13 16  1  0
 16 17  2  0
  9 18  2  0
 18 19  1  0
 19 20  1  0
 20 21  2  0
 21 22  1  0
 22 23  2  0
 23 24  1  0
 24 25  1  0
 23 26  1  0
 26 27  2  0
 19 28  2  0
 28 29  1  0
 29 30  3  0
 28  7  1  0
 17 10  1  0
 27 20  1  0
M  END
>  <Binding energies>  (4) 
[-6.43]

>  <Ligand effiencies>  (4) 
[-0.21433333333333332]

>  <Interactions>  (4) 
["V-B:ALA:541:CB:9864, V-A:LEU:475:CD1:4258, V-A:LEU:475:CD2:4259, V-B:GLU:543:CD:9880, H-A:TYR:484:OH:4348, V-A:PRO:540:CA:4883, V-B:ARG:545:CZ:9898, H-A:ALA:541:N:4891, H-B:GLY:454:N:9022, H-B:TYR:484:OH:9320, V-A:ASN:362:CB:3176, V-B:ILE:455:C:9024, V-B:ARG:545:CD:9895, V-B:HIS:456:CE1:9042, V-B:ARG:545:CG:9894, V-B:ARG:545:CB:9893, V-A:PRO:540:CB:4885, V-A:ASP:366:CG:3213, V-B:TYR:484:CE1:9317, V-B:TYR:484:CZ:9319, H-B:ILE:455:N:9027, V-A:ASN:362:C:3172, V-A:ASN:362:CA:3174, V-A:LEU:363:CA:3185"]

$$$$
1j_Grossjean_2025
     RDKit          3D

 20 21  0  0  0  0  0  0  0  0999 V2000
  123.0550  131.5900   76.3810 C   0  0  0  0  0  0  0  0  0  0  0  0
  124.3090  130.8650   75.9270 C   0  0  0  0  0  0  0  0  0  0  0  0
  124.2950  129.5050   75.6230 C   0  0  0  0  0  0  0  0  0  0  0  0
  125.4780  128.8930   75.1970 C   0  0  0  0  0  0  0  0  0  0  0  0
  125.4340  127.4050   74.8520 C   0  0  0  0  0  0  0  0  0  0  0  0
  126.6570  129.6650   75.0930 C   0  0  0  0  0  0  0  0  0  0  0  0
  127.8940  129.0560   74.5980 C   0  0  0  0  0  0  0  0  0  0  0  0
  128.8700  128.5720   74.2050 N   0  0  0  0  0  0  0  0  0  0  0  0
  126.5850  131.0330   75.4470 C   0  0  0  0  0  0  0  0  0  0  0  0
  127.9690  132.1490   75.3790 S   0  0  0  0  0  0  0  0  0  0  0  0
  127.6610  133.3280   74.0300 C   0  0  0  0  0  0  0  0  0  0  0  0
  128.8660  133.4580   73.0960 C   0  0  0  0  0  0  0  0  0  0  0  0
  129.2930  132.4580   72.5180 O   0  0  0  0  0  0  0  0  0  0  0  0
  129.3780  134.7020   72.9750 N   0  0  0  0  0  0  0  0  0  0  0  0
  130.4660  135.0790   72.2000 C   0  0  0  0  0  0  0  0  0  0  0  0
  130.5110  135.2330   70.8930 N   0  0  0  0  0  0  0  0  0  0  0  0
  131.7120  135.6000   70.4920 C   0  0  0  0  0  0  0  0  0  0  0  0
  132.6740  135.7520   71.4850 C   0  0  0  0  0  0  0  0  0  0  0  0
  131.9570  135.3930   73.0270 S   0  0  0  0  0  0  0  0  0  0  0  0
  125.4270  131.6220   75.8390 N   0  0  0  0  0  0  0  0  0  0  0  0
  1  2  1  0
  2  3  2  0
  3  4  1  0
  4  5  1  0
  4  6  2  0
  6  7  1  0
  7  8  3  0
  6  9  1  0
  9 10  1  0
 10 11  1  0
 11 12  1  0
 12 13  2  0
 12 14  1  0
 14 15  1  0
 15 16  2  0
 16 17  1  0
 17 18  2  0
 18 19  1  0
  9 20  2  0
 20  2  1  0
 19 15  1  0
M  END
>  <Binding energies>  (5) 
[-7.12]

>  <Ligand effiencies>  (5) 
[-0.33904761904761904]

>  <Interactions>  (5) 
["H-A:LYS:547:NZ:4951, V-B:LYS:547:CG:9920, V-B:HIS:456:CD2:9040, V-B:LYS:547:CD:9921, V-B:HIS:456:CG:9038, V-B:HIS:456:CB:9037, V-B:VAL:457:C:9045, V-B:VAL:458:CG2:9059, V-B:ASP:473:CB:9211, V-B:ASP:473:CG:9212, V-B:LYS:547:CE:9922, V-B:HIS:456:C:9033, H-B:TYR:484:N:9312, V-B:TYR:484:CA:9311, V-B:VAL:457:CA:9047, V-B:TYR:484:CB:9313, V-B:TYR:484:C:9309, V-B:HIS:456:CA:9035, V-A:VAL:542:CG1:4899, H-B:ASP:473:OD2:9214, H-B:TYR:484:O:9310, V-B:LYS:471:CB:9189, V-B:LYS:471:C:9185, V-B:LEU:472:C:9198, V-B:LEU:472:CA:9200, V-A:VAL:542:C:4894, V-B:SER:483:CB:9305, V-B:LYS:471:CA:9187, V-A:VAL:542:CB:4898"]

$$$$
1o_Grossjean_2025
     RDKit          3D

 26 27  0  0  0  0  0  0  0  0999 V2000
  132.0980  126.9970   73.7130 C   0  0  0  0  0  0  0  0  0  0  0  0
  131.1540  127.9600   73.2640 O   0  0  0  0  0  0  0  0  0  0  0  0
  129.8780  127.6020   72.9680 C   0  0  0  0  0  0  0  0  0  0  0  0
  129.0460  127.2800   73.8220 O   0  0  0  0  0  0  0  0  0  0  0  0
  129.5760  127.6410   71.4970 C   0  0  0  0  0  0  0  0  0  0  0  0
  130.2820  128.4730   70.6160 C   0  0  0  0  0  0  0  0  0  0  0  0
  129.9780  128.4830   69.2570 C   0  0  0  0  0  0  0  0  0  0  0  0
  128.9630  127.6700   68.7530 C   0  0  0  0  0  0  0  0  0  0  0  0
  128.7460  127.7520   67.3630 N   0  0  0  0  0  0  0  0  0  0  0  0
  128.3720  128.8080   66.6070 C   0  0  0  0  0  0  0  0  0  0  0  0
  128.1900  129.9510   67.0250 O   0  0  0  0  0  0  0  0  0  0  0  0
  128.2010  128.5200   65.1080 C   0  0  0  0  0  0  0  0  0  0  0  0
  127.0440  129.3080   64.4620 C   0  0  0  0  0  0  0  0  0  0  0  0
  127.5880  130.6390   63.3510 S   0  0  0  0  0  0  0  0  0  0  0  0
  126.1500  131.3500   62.5760 C   0  0  0  0  0  0  0  0  0  0  0  0
  125.0210  130.6190   62.7590 N   0  0  0  0  0  0  0  0  0  0  0  0
  123.8610  131.0660   62.2220 C   0  0  0  0  0  0  0  0  0  0  0  0
  122.6390  130.2050   62.4810 C   0  0  0  0  0  0  0  0  0  0  0  0
  123.7820  132.2410   61.4780 C   0  0  0  0  0  0  0  0  0  0  0  0
  124.9440  132.9880   61.2610 C   0  0  0  0  0  0  0  0  0  0  0  0
  124.8330  134.2650   60.4290 C   0  0  0  0  0  0  0  0  0  0  0  0
  126.1670  132.5390   61.8080 C   0  0  0  0  0  0  0  0  0  0  0  0
  127.4040  133.2770   61.5420 C   0  0  0  0  0  0  0  0  0  0  0  0
  128.3800  133.8620   61.3320 N   0  0  0  0  0  0  0  0  0  0  0  0
  128.2560  126.8310   69.6270 C   0  0  0  0  0  0  0  0  0  0  0  0
  128.5610  126.8220   70.9860 C   0  0  0  0  0  0  0  0  0  0  0  0
  1  2  1  0
  2  3  1  0
  3  4  2  0
  3  5  1  0
  5  6  2  0
  6  7  1  0
  7  8  2  0
  8  9  1  0
  9 10  1  0
 10 11  2  0
 10 12  1  0
 12 13  1  0
 13 14  1  0
 14 15  1  0
 15 16  2  0
 16 17  1  0
 17 18  1  0
 17 19  2  0
 19 20  1  0
 20 21  1  0
 20 22  2  0
 22 23  1  0
 23 24  3  0
  8 25  1  0
 25 26  2  0
 26  5  1  0
 22 15  1  0
M  END
>  <Binding energies>  (6) 
[-7.15]

>  <Ligand effiencies>  (6) 
[-0.26481481481481484]

>  <Interactions>  (6) 
["H-B:GLU:543:OE2:9882, V-B:GLU:543:CD:9880, H-A:GLU:543:OE2:4910, V-A:GLU:543:CD:4908, V-B:ILE:369:CD1:8211, V-A:TYR:539:CE1:4875, V-A:ALA:541:CB:4892, V-A:TYR:539:CD1:4873, V-A:GLU:543:CG:4907, V-B:ILE:369:CG2:8209, V-B:LEU:475:CD2:9231, H-A:ALA:541:N:4891, V-B:GLY:453:C:9014, H-B:TYR:484:OH:9320, V-B:GLY:453:CA:9016, V-B:HIS:456:CE1:9042, H-B:LYS:547:NZ:9923, H-A:LYS:547:NZ:4951, V-B:HIS:456:CD2:9040, V-A:HIS:456:CB:4065, V-A:HIS:456:CD2:4068, V-A:HIS:456:CG:4066, V-A:GLY:544:C:4912, V-B:ASP:366:CG:8185, V-A:HIS:456:CE1:4070, V-A:GLU:543:CB:4906, V-A:GLU:543:C:4902, V-A:GLY:544:CA:4914"]

$$$$
1p_Grossjean_2025
     RDKit          3D

 21 22  0  0  0  0  0  0  0  0999 V2000
  124.1180  127.0110   74.5130 C   0  0  0  0  0  0  0  0  0  0  0  0
  125.0260  128.1400   74.9610 C   0  0  0  0  0  0  0  0  0  0  0  0
  124.5140  129.3070   75.5260 C   0  0  0  0  0  0  0  0  0  0  0  0
  125.3980  130.3210   75.9090 C   0  0  0  0  0  0  0  0  0  0  0  0
  124.8130  131.5970   76.5120 C   0  0  0  0  0  0  0  0  0  0  0  0
  126.7860  130.1360   75.7210 C   0  0  0  0  0  0  0  0  0  0  0  0
  127.7280  131.2010   76.0690 C   0  0  0  0  0  0  0  0  0  0  0  0
  128.4710  132.0450   76.3440 N   0  0  0  0  0  0  0  0  0  0  0  0
  127.2180  128.9100   75.1610 C   0  0  0  0  0  0  0  0  0  0  0  0
  128.9260  128.5100   74.8670 S   0  0  0  0  0  0  0  0  0  0  0  0
  129.1480  128.4410   73.0660 C   0  0  0  0  0  0  0  0  0  0  0  0
  130.5810  128.0780   72.6290 C   0  0  0  0  0  0  0  0  0  0  0  0
  131.1780  126.8960   73.4080 C   0  0  0  0  0  0  0  0  0  0  0  0
  130.4610  125.9370   73.7010 O   0  0  0  0  0  0  0  0  0  0  0  0
  132.4920  126.9990   73.7080 N   0  0  0  0  0  0  0  0  0  0  0  0
  133.2710  126.0780   74.3980 C   0  0  0  0  0  0  0  0  0  0  0  0
  132.7340  124.9900   75.0850 C   0  0  0  0  0  0  0  0  0  0  0  0
  133.8190  124.3340   75.6220 C   0  0  0  0  0  0  0  0  0  0  0  0
  134.9490  124.9940   75.2770 O   0  0  0  0  0  0  0  0  0  0  0  0
  134.5890  126.0980   74.5020 N   0  0  0  0  0  0  0  0  0  0  0  0
  126.3520  127.9400   74.7730 N   0  0  0  0  0  0  0  0  0  0  0  0
  1  2  1  0
  2  3  2  0
  3  4  1  0
  4  5  1  0
  4  6  2  0
  6  7  1  0
  7  8  3  0
  6  9  1  0
  9 10  1  0
 10 11  1  0
 11 12  1  0
 12 13  1  0
 13 14  2  0
 13 15  1  0
 15 16  1  0
 16 17  1  0
 17 18  2  0
 18 19  1  0
 19 20  1  0
  9 21  2  0
 21  2  1  0
 20 16  2  0
M  END
>  <Binding energies>  (7) 
[-6.92]

>  <Ligand effiencies>  (7) 
[-0.3145454545454545]

>  <Interactions>  (7) 
["H-B:LYS:547:NZ:9923, H-A:LYS:547:NZ:4951, V-B:LYS:547:CB:9919, V-A:VAL:458:CG2:4087, V-B:LYS:547:CG:9920, V-B:HIS:456:CD2:9040, V-B:ARG:545:C:9889, V-A:LYS:547:CE:4950, V-A:HIS:456:CB:4065, V-A:HIS:456:CD2:4068, V-B:GLY:544:C:9884, V-B:LYS:547:CD:9921, V-B:HIS:456:CB:9037, V-A:HIS:456:C:4061, V-B:VAL:457:C:9045, H-A:VAL:457:N:4076, V-A:LYS:471:CD:4219, V-A:HIS:456:CG:4066, V-A:GLY:544:C:4912, V-A:HIS:456:CA:4063, V-B:VAL:458:CG2:9059, V-B:ASP:473:CG:9212, V-B:HIS:456:C:9033, H-A:GLY:544:O:4913, V-B:VAL:457:CA:9047, V-B:LYS:471:CB:9189, H-A:VAL:458:N:4084"]

$$$$
2a_Ghoteimi_2023
     RDKit          3D

 48 53  0  0  0  0  0  0  0  0999 V2000
  133.8730  130.4670   57.3770 C   0  0  0  0  0  0  0  0  0  0  0  0
  132.9970  130.5150   58.6320 C   0  0  0  0  0  0  0  0  0  0  0  0
  133.1210  131.7910   59.2460 O   0  0  0  0  0  0  0  0  0  0  0  0
  132.8500  131.9650   60.5650 C   0  0  0  0  0  0  0  0  0  0  0  0
  133.6670  132.4180   61.3730 O   0  0  0  0  0  0  0  0  0  0  0  0
  131.4540  131.5590   60.9410 C   0  0  0  0  0  0  0  0  0  0  0  0
  131.0260  131.5210   62.2770 C   0  0  0  0  0  0  0  0  0  0  0  0
  129.7250  131.1410   62.5910 C   0  0  0  0  0  0  0  0  0  0  0  0
  128.8240  130.7960   61.5820 C   0  0  0  0  0  0  0  0  0  0  0  0
  127.5360  130.4240   62.0140 N   0  0  0  0  0  0  0  0  0  0  0  0
  126.7380  130.9900   62.9460 C   0  0  0  0  0  0  0  0  0  0  0  0
  127.0430  131.9560   63.6470 O   0  0  0  0  0  0  0  0  0  0  0  0
  125.3740  130.3140   63.1330 C   0  0  0  0  0  0  0  0  0  0  0  0
  125.2560  129.2510   64.6080 S   0  0  0  0  0  0  0  0  0  0  0  0
  126.8620  128.5140   64.7980 C   0  0  0  0  0  0  0  0  0  0  0  0
  127.2950  128.4660   66.0800 N   0  0  0  0  0  0  0  0  0  0  0  0
  128.5120  127.9330   66.3530 C   0  0  0  0  0  0  0  0  0  0  0  0
  128.9280  127.9230   67.7890 C   0  0  0  0  0  0  0  0  0  0  0  0
  128.4170  126.9770   68.6860 C   0  0  0  0  0  0  0  0  0  0  0  0
  128.7990  126.9800   70.0240 C   0  0  0  0  0  0  0  0  0  0  0  0
  129.7130  127.9220   70.5150 C   0  0  0  0  0  0  0  0  0  0  0  0
  130.0650  127.9320   71.8690 N   0  0  0  0  0  0  0  0  0  0  0  0
  131.3410  127.3550   72.3370 C   0  0  0  0  0  0  0  0  0  0  0  0
  131.7230  127.7690   73.7740 C   0  0  0  0  0  0  0  0  0  0  0  0
  130.6660  127.4570   74.6670 O   0  0  0  0  0  0  0  0  0  0  0  0
  129.4750  128.1440   74.3210 C   0  0  0  0  0  0  0  0  0  0  0  0
  129.0230  127.7420   72.9010 C   0  0  0  0  0  0  0  0  0  0  0  0
  130.2140  128.8760   69.6140 C   0  0  0  0  0  0  0  0  0  0  0  0
  129.8330  128.8720   68.2760 C   0  0  0  0  0  0  0  0  0  0  0  0
  129.3210  127.4200   65.3360 C   0  0  0  0  0  0  0  0  0  0  0  0
  128.8940  127.4580   64.0010 C   0  0  0  0  0  0  0  0  0  0  0  0
  129.8110  126.8970   62.9630 C   0  0  0  0  0  0  0  0  0  0  0  0
  129.9720  127.5530   61.7400 C   0  0  0  0  0  0  0  0  0  0  0  0
  130.8090  127.0290   60.7590 C   0  0  0  0  0  0  0  0  0  0  0  0
  131.5120  125.8340   60.9730 C   0  0  0  0  0  0  0  0  0  0  0  0
  132.3430  125.2810   59.9950 N   0  0  0  0  0  0  0  0  0  0  0  0
  131.8020  125.0310   58.6430 C   0  0  0  0  0  0  0  0  0  0  0  0
  132.8980  124.7980   57.5820 C   0  0  0  0  0  0  0  0  0  0  0  0
  133.7500  123.7380   57.9870 O   0  0  0  0  0  0  0  0  0  0  0  0
  134.3900  124.0220   59.2220 C   0  0  0  0  0  0  0  0  0  0  0  0
  133.3350  124.2390   60.3260 C   0  0  0  0  0  0  0  0  0  0  0  0
  131.3360  125.1760   62.1990 C   0  0  0  0  0  0  0  0  0  0  0  0
  130.4980  125.6990   63.1790 C   0  0  0  0  0  0  0  0  0  0  0  0
  127.6230  128.0160   63.7180 C   0  0  0  0  0  0  0  0  0  0  0  0
  127.0980  128.0320   62.3490 C   0  0  0  0  0  0  0  0  0  0  0  0
  126.6860  128.0460   61.2670 N   0  0  0  0  0  0  0  0  0  0  0  0
  129.2460  130.8240   60.2450 C   0  0  0  0  0  0  0  0  0  0  0  0
  130.5480  131.2050   59.9320 C   0  0  0  0  0  0  0  0  0  0  0  0
  1  2  1  0
  2  3  1  0
  3  4  1  0
  4  5  2  0
  4  6  1  0
  6  7  2  0
  7  8  1  0
  8  9  2  0
  9 10  1  0
 10 11  1  0
 11 12  2  0
 11 13  1  0
 13 14  1  0
 14 15  1  0
 15 16  2  0
 16 17  1  0
 17 18  1  0
 18 19  2  0
 19 20  1  0
 20 21  2  0
 21 22  1  0
 22 23  1  0
 23 24  1  0
 24 25  1  0
 25 26  1  0
 26 27  1  0
 21 28  1  0
 28 29  2  0
 17 30  2  0
 30 31  1  0
 31 32  1  0
 32 33  2  0
 33 34  1  0
 34 35  2  0
 35 36  1  0
 36 37  1  0
 37 38  1  0
 38 39  1  0
 39 40  1  0
 40 41  1  0
 35 42  1  0
 42 43  2  0
 31 44  2  0
 44 45  1  0
 45 46  3  0
  9 47  1  0
 47 48  2  0
 48  6  1  0
 44 15  1  0
 29 18  1  0
 43 32  1  0
 27 22  1  0
 41 36  1  0
M  END
>  <Binding energies>  (8) 
[-0.66]

>  <Ligand effiencies>  (8) 
[-0.013469387755102041]

>  <Interactions>  (8) 
["V-B:GLU:543:CD:9880, V-A:ILE:369:CG2:3237, V-B:TYR:539:CE2:9848, V-A:GLU:543:CD:4908, V-A:PRO:540:CA:4883, V-A:ALA:541:CB:4892, V-A:GLU:543:CG:4907, V-A:PRO:540:C:4881, V-A:ALA:541:CA:4890, H-A:ALA:541:N:4891, H-B:ARG:545:NE:9896, H-B:TYR:484:OH:9320, V-A:ASN:362:CB:3176, V-B:HIS:456:CE1:9042, V-A:PRO:540:CB:4885, H-A:LYS:547:NZ:4951, V-B:HIS:456:CD2:9040, V-A:LYS:547:CE:4950, V-A:HIS:456:CB:4065, V-A:HIS:456:CD2:4068, V-A:HIS:456:CG:4066, V-A:GLY:544:C:4912, V-A:LYS:547:CD:4949, V-A:ASP:366:CG:3213, V-A:ILE:369:CD1:3239, V-B:GLU:543:CB:9878, H-B:ARG:545:NH2:9900, V-A:ASP:366:CB:3212, V-A:HIS:456:CE1:4070, V-A:ALA:541:C:4888, V-A:GLU:543:CB:4906, V-A:GLU:543:CA:4904, V-A:ASP:366:C:3208, V-A:ASP:366:CA:3210, V-A:ILE:369:CB:3236, V-A:LEU:363:CA:3185, H-B:TYR:539:OH:9850, V-A:LEU:363:CD1:3189, V-A:GLU:543:C:4902, V-B:TYR:539:CZ:9849, V-A:GLY:544:CA:4914, V-A:ILE:369:CG1:3238"]

$$$$
2aa_Ghoteimi_2023
     RDKit          3D

 48 53  0  0  0  0  0  0  0  0999 V2000
  134.8730  127.0260   73.8220 C   0  0  0  0  0  0  0  0  0  0  0  0
  133.5210  126.3490   74.0680 C   0  0  0  0  0  0  0  0  0  0  0  0
  133.0190  126.7480   75.3370 O   0  0  0  0  0  0  0  0  0  0  0  0
  131.8290  127.3920   75.4500 C   0  0  0  0  0  0  0  0  0  0  0  0
  131.4260  127.8980   76.5030 O   0  0  0  0  0  0  0  0  0  0  0  0
  131.0570  127.4430   74.1630 C   0  0  0  0  0  0  0  0  0  0  0  0
  131.1310  128.5440   73.2980 C   0  0  0  0  0  0  0  0  0  0  0  0
  130.4060  128.5600   72.1100 C   0  0  0  0  0  0  0  0  0  0  0  0
  129.5880  127.4830   71.7660 C   0  0  0  0  0  0  0  0  0  0  0  0
  128.9030  127.6020   70.5410 N   0  0  0  0  0  0  0  0  0  0  0  0
  129.3750  127.9060   69.3120 C   0  0  0  0  0  0  0  0  0  0  0  0
  130.5590  128.1140   69.0390 O   0  0  0  0  0  0  0  0  0  0  0  0
  128.3060  127.9560   68.2130 C   0  0  0  0  0  0  0  0  0  0  0  0
  128.5320  129.0940   67.3740 O   0  0  0  0  0  0  0  0  0  0  0  0
  128.6050  128.9400   65.9960 C   0  0  0  0  0  0  0  0  0  0  0  0
  128.0950  129.9320   65.2130 N   0  0  0  0  0  0  0  0  0  0  0  0
  128.1530  129.8150   63.8630 C   0  0  0  0  0  0  0  0  0  0  0  0
  127.5690  130.9400   63.0680 C   0  0  0  0  0  0  0  0  0  0  0  0
  128.3890  131.9430   62.5400 C   0  0  0  0  0  0  0  0  0  0  0  0
  127.8510  132.9890   61.7940 C   0  0  0  0  0  0  0  0  0  0  0  0
  126.4730  133.0630   61.5360 C   0  0  0  0  0  0  0  0  0  0  0  0
  125.9150  134.1130   60.7990 N   0  0  0  0  0  0  0  0  0  0  0  0
  124.4520  134.2550   60.6470 C   0  0  0  0  0  0  0  0  0  0  0  0
  124.0340  135.2360   59.5310 C   0  0  0  0  0  0  0  0  0  0  0  0
  124.6480  136.4980   59.7390 O   0  0  0  0  0  0  0  0  0  0  0  0
  126.0630  136.3970   59.7200 C   0  0  0  0  0  0  0  0  0  0  0  0
  126.5410  135.4510   60.8420 C   0  0  0  0  0  0  0  0  0  0  0  0
  125.6530  132.0660   62.0850 C   0  0  0  0  0  0  0  0  0  0  0  0
  126.1910  131.0230   62.8340 C   0  0  0  0  0  0  0  0  0  0  0  0
  128.7140  128.6860   63.2590 C   0  0  0  0  0  0  0  0  0  0  0  0
  129.2350  127.6470   64.0400 C   0  0  0  0  0  0  0  0  0  0  0  0
  129.7980  126.4540   63.3380 C   0  0  0  0  0  0  0  0  0  0  0  0
  131.1550  126.1430   63.4520 C   0  0  0  0  0  0  0  0  0  0  0  0
  131.6900  125.0450   62.7850 C   0  0  0  0  0  0  0  0  0  0  0  0
  130.8850  124.2330   61.9710 C   0  0  0  0  0  0  0  0  0  0  0  0
  131.3990  123.1230   61.2950 N   0  0  0  0  0  0  0  0  0  0  0  0
  132.4190  123.2720   60.2390 C   0  0  0  0  0  0  0  0  0  0  0  0
  133.1140  121.9450   59.8650 C   0  0  0  0  0  0  0  0  0  0  0  0
  132.1430  120.9760   59.4980 O   0  0  0  0  0  0  0  0  0  0  0  0
  131.2390  120.7140   60.5590 C   0  0  0  0  0  0  0  0  0  0  0  0
  130.4950  122.0080   60.9510 C   0  0  0  0  0  0  0  0  0  0  0  0
  129.5230  124.5480   61.8680 C   0  0  0  0  0  0  0  0  0  0  0  0
  128.9880  125.6460   62.5360 C   0  0  0  0  0  0  0  0  0  0  0  0
  129.1920  127.7860   65.4470 C   0  0  0  0  0  0  0  0  0  0  0  0
  129.7570  126.7740   66.3420 C   0  0  0  0  0  0  0  0  0  0  0  0
  130.2050  125.9740   67.0490 N   0  0  0  0  0  0  0  0  0  0  0  0
  129.5140  126.3750   72.6220 C   0  0  0  0  0  0  0  0  0  0  0  0
  130.2430  126.3600   73.8080 C   0  0  0  0  0  0  0  0  0  0  0  0
  1  2  1  0
  2  3  1  0
  3  4  1  0
  4  5  2  0
  4  6  1  0
  6  7  2  0
  7  8  1  0
  8  9  2  0
  9 10  1  0
 10 11  1  0
 11 12  2  0
 11 13  1  0
 13 14  1  0
 14 15  1  0
 15 16  2  0
 16 17  1  0
 17 18  1  0
 18 19  2  0
 19 20  1  0
 20 21  2  0
 21 22  1  0
 22 23  1  0
 23 24  1  0
 24 25  1  0
 25 26  1  0
 26 27  1  0
 21 28  1  0
 28 29  2  0
 17 30  2  0
 30 31  1  0
 31 32  1  0
 32 33  2  0
 33 34  1  0
 34 35  2  0
 35 36  1  0
 36 37  1  0
 37 38  1  0
 38 39  1  0
 39 40  1  0
 40 41  1  0
 35 42  1  0
 42 43  2  0
 31 44  2  0
 44 45  1  0
 45 46  3  0
  9 47  1  0
 47 48  2  0
 48  6  1  0
 44 15  1  0
 29 18  1  0
 43 32  1  0
 27 22  1  0
 41 36  1  0
M  END
>  <Binding energies>  (9) 
[0.24]

>  <Ligand effiencies>  (9) 
[0.004897959183673469]

>  <Interactions>  (9) 
["V-B:TYR:539:CD2:9846, V-A:LEU:475:CD2:4259, V-B:GLU:543:CD:9880, V-A:ILE:369:CG2:3237, V-B:TYR:539:CE2:9848, V-A:GLU:543:CD:4908, V-A:TYR:539:CE1:4875, V-A:ALA:541:CB:4892, V-B:SER:385:CA:8379, V-A:TYR:539:CD1:4873, V-B:SER:385:CB:8381, V-A:GLU:543:CG:4907, V-B:ILE:369:CG2:8209, V-B:LEU:475:CD2:9231, H-B:TYR:484:OH:9320, V-B:HIS:456:CE1:9042, V-A:VAL:458:CG2:4087, V-A:VAL:457:CA:4075, V-A:VAL:457:C:4073, V-B:HIS:456:CD2:9040, V-A:LYS:547:CE:4950, V-A:HIS:456:CB:4065, V-A:HIS:456:CD2:4068, V-A:HIS:456:C:4061, V-A:HIS:456:CG:4066, V-A:GLY:544:C:4912, V-A:LYS:547:CD:4949, V-A:HIS:456:CA:4063, V-A:ARG:545:C:4917, V-A:ILE:369:CD1:3239, V-A:HIS:456:CE1:4070, V-A:GLU:543:CB:4906, V-A:GLY:544:CA:4914, V-B:LYS:547:CE:9922, H-B:SER:385:OG:8382, V-A:TYR:539:CB:4871, H-A:HIS:456:ND1:4067, H-B:HIS:456:NE2:9043, V-A:TYR:539:CG:4872"]

$$$$
2b_Ghoteimi_2023
     RDKit          3D

 42 47  0  0  0  0  0  0  0  0999 V2000
  128.8870  127.4100   60.9880 N   0  0  0  0  0  0  0  0  0  0  0  0
  128.9630  127.4880   62.1400 C   0  0  0  0  0  0  0  0  0  0  0  0
  129.0570  127.5920   63.5990 C   0  0  0  0  0  0  0  0  0  0  0  0
  128.4440  128.6710   64.2850 C   0  0  0  0  0  0  0  0  0  0  0  0
  127.6740  129.7560   63.6070 C   0  0  0  0  0  0  0  0  0  0  0  0
  128.2760  130.9890   63.3470 C   0  0  0  0  0  0  0  0  0  0  0  0
  127.5640  132.0040   62.7160 C   0  0  0  0  0  0  0  0  0  0  0  0
  126.2230  131.8210   62.3430 C   0  0  0  0  0  0  0  0  0  0  0  0
  125.4910  132.8190   61.6980 N   0  0  0  0  0  0  0  0  0  0  0  0
  126.1910  133.7490   60.7890 C   0  0  0  0  0  0  0  0  0  0  0  0
  125.3660  135.0090   60.4500 C   0  0  0  0  0  0  0  0  0  0  0  0
  124.1000  134.6370   59.9250 O   0  0  0  0  0  0  0  0  0  0  0  0
  123.3560  133.8610   60.8520 C   0  0  0  0  0  0  0  0  0  0  0  0
  124.1270  132.5690   61.1920 C   0  0  0  0  0  0  0  0  0  0  0  0
  125.6260  130.5810   62.6110 C   0  0  0  0  0  0  0  0  0  0  0  0
  126.3400  129.5640   63.2390 C   0  0  0  0  0  0  0  0  0  0  0  0
  128.5560  128.7240   65.6800 C   0  0  0  0  0  0  0  0  0  0  0  0
  129.2310  127.7170   66.3740 C   0  0  0  0  0  0  0  0  0  0  0  0
  129.3530  127.7110   67.8650 C   0  0  0  0  0  0  0  0  0  0  0  0
  128.4370  127.0060   68.6540 C   0  0  0  0  0  0  0  0  0  0  0  0
  128.5550  126.9840   70.0410 C   0  0  0  0  0  0  0  0  0  0  0  0
  129.5860  127.6770   70.6940 C   0  0  0  0  0  0  0  0  0  0  0  0
  129.7350  127.6390   72.0850 N   0  0  0  0  0  0  0  0  0  0  0  0
  131.0730  127.4390   72.6770 C   0  0  0  0  0  0  0  0  0  0  0  0
  131.0360  127.0310   74.1660 C   0  0  0  0  0  0  0  0  0  0  0  0
  130.2860  127.9790   74.9100 O   0  0  0  0  0  0  0  0  0  0  0  0
  128.9470  128.0580   74.4510 C   0  0  0  0  0  0  0  0  0  0  0  0
  128.9200  128.4930   72.9710 C   0  0  0  0  0  0  0  0  0  0  0  0
  130.5060  128.3760   69.8990 C   0  0  0  0  0  0  0  0  0  0  0  0
  130.3890  128.3960   68.5120 C   0  0  0  0  0  0  0  0  0  0  0  0
  129.8160  126.6840   65.7160 N   0  0  0  0  0  0  0  0  0  0  0  0
  129.7500  126.6280   64.3650 C   0  0  0  0  0  0  0  0  0  0  0  0
  130.5750  125.2130   63.6690 S   0  0  0  0  0  0  0  0  0  0  0  0
  129.7000  124.7650   62.1390 C   0  0  0  0  0  0  0  0  0  0  0  0
  128.4580  123.9170   62.4150 C   0  0  0  0  0  0  0  0  0  0  0  0
  128.5440  122.9470   63.1710 O   0  0  0  0  0  0  0  0  0  0  0  0
  127.3320  124.3100   61.7800 N   0  0  0  0  0  0  0  0  0  0  0  0
  126.0740  123.7300   61.8600 C   0  0  0  0  0  0  0  0  0  0  0  0
  125.0560  123.9940   60.9450 C   0  0  0  0  0  0  0  0  0  0  0  0
  123.9890  123.2360   61.3690 C   0  0  0  0  0  0  0  0  0  0  0  0
  124.3460  122.5520   62.4810 O   0  0  0  0  0  0  0  0  0  0  0  0
  125.6720  122.8720   62.7820 N   0  0  0  0  0  0  0  0  0  0  0  0
  1  2  3  0
  2  3  1  0
  3  4  2  0
  4  5  1  0
  5  6  2  0
  6  7  1  0
  7  8  2  0
  8  9  1  0
  9 10  1  0
 10 11  1  0
 11 12  1  0
 12 13  1  0
 13 14  1  0
  8 15  1  0
 15 16  2  0
  4 17  1  0
 17 18  2  0
 18 19  1  0
 19 20  2  0
 20 21  1  0
 21 22  2  0
 22 23  1  0
 23 24  1  0
 24 25  1  0
 25 26  1  0
 26 27  1  0
 27 28  1  0
 22 29  1  0
 29 30  2  0
 18 31  1  0
 31 32  2  0
 32 33  1  0
 33 34  1  0
 34 35  1  0
 35 36  2  0
 35 37  1  0
 37 38  1  0
 38 39  1  0
 39 40  2  0
 40 41  1  0
 41 42  1  0
 32  3  1  0
 42 38  2  0
 16  5  1  0
 30 19  1  0
 14  9  1  0
 28 23  1  0
M  END
>  <Binding energies>  (10) 
[-5.83]

>  <Ligand effiencies>  (10) 
[-0.1355813953488372]

>  <Interactions>  (10) 
["V-B:GLU:543:CG:9879, V-B:GLU:543:CD:9880, H-B:GLU:543:OE1:9881, V-A:GLU:543:CD:4908, V-B:PRO:540:CA:9855, H-A:TYR:484:OH:4348, V-B:SER:385:C:8377, V-B:ILE:369:CD1:8211, V-A:TYR:539:CE1:4875, V-A:ALA:541:CB:4892, V-B:SER:385:CA:8379, V-A:TYR:539:CD1:4873, V-A:GLU:543:CG:4907, V-B:ILE:369:CG2:8209, V-B:LEU:475:CD2:9231, V-B:HIS:456:CE1:9042, H-A:LYS:547:NZ:4951, V-B:HIS:456:CD2:9040, V-A:HIS:456:CD2:4068, V-A:HIS:456:CG:4066, V-A:GLY:544:C:4912, V-B:GLU:543:CB:9878, V-B:ASP:366:CG:8185, H-B:ALA:541:N:9863, V-B:ILE:369:CG1:8210, V-B:ILE:369:CB:8208, V-A:HIS:456:CE1:4070, V-A:GLU:543:CB:4906, V-A:GLU:543:CA:4904, H-B:ASN:362:ND2:8151, V-B:PRO:540:CB:9857, V-B:ASN:362:CB:8148, V-A:GLU:543:C:4902, V-A:GLY:544:CA:4914, H-B:SER:385:OG:8382, V-B:ASN:362:C:8144"]

$$$$
2c_Ghoteimi_2023
     RDKit          3D

 42 47  0  0  0  0  0  0  0  0999 V2000
  128.9030  127.3440   61.0140 N   0  0  0  0  0  0  0  0  0  0  0  0
  128.9740  127.4350   62.1650 C   0  0  0  0  0  0  0  0  0  0  0  0
  129.0610  127.5540   63.6240 C   0  0  0  0  0  0  0  0  0  0  0  0
  128.4480  128.6410   64.2960 C   0  0  0  0  0  0  0  0  0  0  0  0
  127.6890  129.7260   63.6050 C   0  0  0  0  0  0  0  0  0  0  0  0
  126.4470  129.4560   63.0270 C   0  0  0  0  0  0  0  0  0  0  0  0
  125.7310  130.4630   62.3850 C   0  0  0  0  0  0  0  0  0  0  0  0
  126.2450  131.7660   62.2900 C   0  0  0  0  0  0  0  0  0  0  0  0
  125.5350  132.7960   61.6680 N   0  0  0  0  0  0  0  0  0  0  0  0
  124.1360  133.0510   62.0650 C   0  0  0  0  0  0  0  0  0  0  0  0
  123.3670  133.9290   61.0550 C   0  0  0  0  0  0  0  0  0  0  0  0
  124.0630  135.1470   60.8400 O   0  0  0  0  0  0  0  0  0  0  0  0
  125.3650  134.9230   60.3210 C   0  0  0  0  0  0  0  0  0  0  0  0
  126.1860  134.0710   61.3110 C   0  0  0  0  0  0  0  0  0  0  0  0
  127.4950  132.0260   62.8700 C   0  0  0  0  0  0  0  0  0  0  0  0
  128.2090  131.0190   63.5140 C   0  0  0  0  0  0  0  0  0  0  0  0
  128.5560  128.7080   65.6910 C   0  0  0  0  0  0  0  0  0  0  0  0
  129.2310  127.7080   66.3980 C   0  0  0  0  0  0  0  0  0  0  0  0
  129.3590  127.7250   67.8880 C   0  0  0  0  0  0  0  0  0  0  0  0
  128.4800  126.9890   68.6890 C   0  0  0  0  0  0  0  0  0  0  0  0
  128.5980  126.9960   70.0770 C   0  0  0  0  0  0  0  0  0  0  0  0
  129.5940  127.7500   70.7160 C   0  0  0  0  0  0  0  0  0  0  0  0
  129.7420  127.7490   72.1070 N   0  0  0  0  0  0  0  0  0  0  0  0
  131.0680  127.4950   72.7060 C   0  0  0  0  0  0  0  0  0  0  0  0
  131.0130  127.1420   74.2070 C   0  0  0  0  0  0  0  0  0  0  0  0
  130.3250  128.1570   74.9190 O   0  0  0  0  0  0  0  0  0  0  0  0
  128.9900  128.2990   74.4600 C   0  0  0  0  0  0  0  0  0  0  0  0
  128.9820  128.6820   72.9650 C   0  0  0  0  0  0  0  0  0  0  0  0
  130.4810  128.4760   69.9080 C   0  0  0  0  0  0  0  0  0  0  0  0
  130.3630  128.4670   68.5210 C   0  0  0  0  0  0  0  0  0  0  0  0
  129.8150  126.6670   65.7520 N   0  0  0  0  0  0  0  0  0  0  0  0
  129.7510  126.5960   64.4010 C   0  0  0  0  0  0  0  0  0  0  0  0
  130.5780  125.1760   63.7220 S   0  0  0  0  0  0  0  0  0  0  0  0
  132.3580  125.5440   63.6900 C   0  0  0  0  0  0  0  0  0  0  0  0
  133.0020  125.1480   62.3600 C   0  0  0  0  0  0  0  0  0  0  0  0
  134.1410  124.6770   62.3570 O   0  0  0  0  0  0  0  0  0  0  0  0
  132.2470  125.3590   61.2610 N   0  0  0  0  0  0  0  0  0  0  0  0
  132.5920  125.0710   59.9490 C   0  0  0  0  0  0  0  0  0  0  0  0
  133.4070  124.1340   59.5160 N   0  0  0  0  0  0  0  0  0  0  0  0
  133.4990  124.1410   58.2010 C   0  0  0  0  0  0  0  0  0  0  0  0
  132.7450  125.1050   57.5370 C   0  0  0  0  0  0  0  0  0  0  0  0
  131.8710  126.0450   58.7090 S   0  0  0  0  0  0  0  0  0  0  0  0
  1  2  3  0
  2  3  1  0
  3  4  2  0
  4  5  1  0
  5  6  2  0
  6  7  1  0
  7  8  2  0
  8  9  1  0
  9 10  1  0
 10 11  1  0
 11 12  1  0
 12 13  1  0
 13 14  1  0
  8 15  1  0
 15 16  2  0
  4 17  1  0
 17 18  2  0
 18 19  1  0
 19 20  2  0
 20 21  1  0
 21 22  2  0
 22 23  1  0
 23 24  1  0
 24 25  1  0
 25 26  1  0
 26 27  1  0
 27 28  1  0
 22 29  1  0
 29 30  2  0
 18 31  1  0
 31 32  2  0
 32 33  1  0
 33 34  1  0
 34 35  1  0
 35 36  2  0
 35 37  1  0
 37 38  1  0
 38 39  2  0
 39 40  1  0
 40 41  2  0
 41 42  1  0
 32  3  1  0
 42 38  1  0
 16  5  1  0
 30 19  1  0
 14  9  1  0
 28 23  1  0
M  END
>  <Binding energies>  (11) 
[-5.49]

>  <Ligand effiencies>  (11) 
[-0.12767441860465117]

>  <Interactions>  (11) 
["V-B:GLU:543:CD:9880, V-A:ILE:369:CG2:3237, V-B:TYR:539:CE2:9848, V-A:GLU:543:CD:4908, V-A:ARG:545:CZ:4926, H-A:TYR:484:OH:4348, V-B:SER:385:C:8377, V-B:ILE:369:CD1:8211, V-A:TYR:539:CE1:4875, V-A:ALA:541:CB:4892, V-B:SER:385:CA:8379, V-A:TYR:539:CD1:4873, V-A:GLU:543:CG:4907, V-B:ILE:369:CG2:8209, V-B:LEU:475:CD2:9231, V-B:GLY:454:CA:9021, V-B:HIS:456:CE1:9042, H-A:LYS:547:NZ:4951, V-B:HIS:456:CD2:9040, V-A:HIS:456:CD2:4068, V-A:HIS:456:CG:4066, V-A:GLY:544:C:4912, V-A:ASP:366:CG:3213, V-B:GLU:543:CB:9878, V-B:ILE:369:CG1:8210, V-B:ILE:369:CB:8208, V-A:ASP:366:CB:3212, H-A:GLY:454:N:4050, V-A:HIS:456:CE1:4070, V-A:GLU:543:CB:4906, V-A:GLU:543:CA:4904, V-A:ASP:366:C:3208, V-A:ASP:366:CA:3210, V-A:ILE:369:CB:3236, H-A:ARG:545:NH2:4928, V-A:GLU:543:C:4902, V-B:TYR:539:CZ:9849, V-A:GLY:544:CA:4914, H-B:SER:385:OG:8382"]

$$$$
2j_Grossjean_2025
     RDKit          3D

 23 24  0  0  0  0  0  0  0  0999 V2000
  129.4580  127.7010   72.6540 C   0  0  0  0  0  0  0  0  0  0  0  0
  130.5240  126.8940   73.3700 C   0  0  0  0  0  0  0  0  0  0  0  0
  131.8040  127.4000   73.5810 C   0  0  0  0  0  0  0  0  0  0  0  0
  132.7550  126.6160   74.2520 C   0  0  0  0  0  0  0  0  0  0  0  0
  134.1660  127.1930   74.4780 C   0  0  0  0  0  0  0  0  0  0  0  0
  135.0040  126.2190   74.8370 F   0  0  0  0  0  0  0  0  0  0  0  0
  134.6140  127.7570   73.3550 F   0  0  0  0  0  0  0  0  0  0  0  0
  134.1960  128.1230   75.4340 F   0  0  0  0  0  0  0  0  0  0  0  0
  132.3760  125.3240   74.6940 C   0  0  0  0  0  0  0  0  0  0  0  0
  133.3280  124.4620   75.4000 C   0  0  0  0  0  0  0  0  0  0  0  0
  134.0810  123.7810   75.9580 N   0  0  0  0  0  0  0  0  0  0  0  0
  131.0540  124.8890   74.4370 C   0  0  0  0  0  0  0  0  0  0  0  0
  130.4660  123.2820   74.9500 S   0  0  0  0  0  0  0  0  0  0  0  0
  130.3950  122.2000   73.4810 C   0  0  0  0  0  0  0  0  0  0  0  0
  128.9820  121.9370   72.9410 C   0  0  0  0  0  0  0  0  0  0  0  0
  128.2340  122.8730   72.6510 O   0  0  0  0  0  0  0  0  0  0  0  0
  128.6510  120.6300   72.8320 N   0  0  0  0  0  0  0  0  0  0  0  0
  127.4460  120.1150   72.3730 C   0  0  0  0  0  0  0  0  0  0  0  0
  127.2160  119.4880   71.2400 N   0  0  0  0  0  0  0  0  0  0  0  0
  125.9510  119.1320   71.1300 C   0  0  0  0  0  0  0  0  0  0  0  0
  125.1210  119.4730   72.1940 C   0  0  0  0  0  0  0  0  0  0  0  0
  126.0600  120.3040   73.3980 S   0  0  0  0  0  0  0  0  0  0  0  0
  130.1480  125.6640   73.7880 N   0  0  0  0  0  0  0  0  0  0  0  0
  1  2  1  0
  2  3  2  0
  3  4  1  0
  4  5  1  0
  5  6  1  0
  5  7  1  0
  5  8  1  0
  4  9  2  0
  9 10  1  0
 10 11  3  0
  9 12  1  0
 12 13  1  0
 13 14  1  0
 14 15  1  0
 15 16  2  0
 15 17  1  0
 17 18  1  0
 18 19  2  0
 19 20  1  0
 20 21  2  0
 21 22  1  0
 12 23  2  0
 23  2  1  0
 22 18  1  0
M  END
>  <Binding energies>  (12) 
[-6.66]

>  <Ligand effiencies>  (12) 
[-0.2775]

>  <Interactions>  (12) 
["H-B:LYS:547:NZ:9923, V-A:VAL:458:CG2:4087, V-A:VAL:457:CA:4075, V-A:VAL:457:C:4073, V-B:HIS:456:CD2:9040, V-A:HIS:456:CB:4065, V-A:HIS:456:CD2:4068, V-A:HIS:456:C:4061, V-A:LYS:471:CD:4219, V-A:ASP:473:CG:4240, V-A:HIS:456:CG:4066, V-A:LYS:547:CG:4948, V-A:LYS:547:CB:4947, V-A:GLY:544:C:4912, V-A:LYS:547:CD:4949, V-A:HIS:456:CA:4063, V-A:ARG:545:C:4917, V-B:GLU:543:C:9874, V-B:LYS:547:CE:9922, V-A:ILE:546:CA:4936, V-A:ARG:545:CA:4919, V-A:TYR:484:CB:4341, V-A:ASP:473:CB:4239, H-A:TYR:484:N:4340, V-A:TYR:484:C:4337, H-B:GLY:544:N:9887, V-B:GLY:544:CA:9886, V-B:VAL:542:CG1:9871, H-A:TYR:484:O:4338, V-A:VAL:458:CB:4085, H-A:SER:483:OG:4334, V-B:VAL:542:CB:9870, V-B:VAL:542:C:9866"]

$$$$
3ab_Grossjean_2025
     RDKit          3D

 33 35  0  0  0  0  0  0  0  0999 V2000
  130.8810  125.7040   74.1940 C   0  0  0  0  0  0  0  0  0  0  0  0
  129.7550  126.0920   73.4180 O   0  0  0  0  0  0  0  0  0  0  0  0
  129.6460  127.3530   72.9290 C   0  0  0  0  0  0  0  0  0  0  0  0
  129.7700  128.3660   73.6230 O   0  0  0  0  0  0  0  0  0  0  0  0
  129.3620  127.3950   71.4550 C   0  0  0  0  0  0  0  0  0  0  0  0
  128.3390  126.6310   70.8730 C   0  0  0  0  0  0  0  0  0  0  0  0
  128.0980  126.6900   69.5030 C   0  0  0  0  0  0  0  0  0  0  0  0
  128.8820  127.5190   68.6860 C   0  0  0  0  0  0  0  0  0  0  0  0
  128.7240  127.6620   67.2940 N   0  0  0  0  0  0  0  0  0  0  0  0
  128.4430  128.7600   66.5620 C   0  0  0  0  0  0  0  0  0  0  0  0
  128.2530  129.8900   67.0120 O   0  0  0  0  0  0  0  0  0  0  0  0
  128.3610  128.5370   65.0500 C   0  0  0  0  0  0  0  0  0  0  0  0
  126.6990  128.8760   64.3980 S   0  0  0  0  0  0  0  0  0  0  0  0
  126.8850  129.9600   62.9970 C   0  0  0  0  0  0  0  0  0  0  0  0
  128.1730  130.1400   62.6190 N   0  0  0  0  0  0  0  0  0  0  0  0
  128.4620  130.9390   61.5600 C   0  0  0  0  0  0  0  0  0  0  0  0
  129.9120  131.0830   61.2050 C   0  0  0  0  0  0  0  0  0  0  0  0
  130.8490  131.5000   62.1640 C   0  0  0  0  0  0  0  0  0  0  0  0
  132.1960  131.6350   61.8400 C   0  0  0  0  0  0  0  0  0  0  0  0
  132.6270  131.3550   60.5470 C   0  0  0  0  0  0  0  0  0  0  0  0
  131.7190  130.9440   59.5760 C   0  0  0  0  0  0  0  0  0  0  0  0
  130.3730  130.8110   59.9050 C   0  0  0  0  0  0  0  0  0  0  0  0
  127.4440  131.6000   60.8630 C   0  0  0  0  0  0  0  0  0  0  0  0
  126.1040  131.4450   61.2470 C   0  0  0  0  0  0  0  0  0  0  0  0
  125.0140  132.1940   60.4570 C   0  0  0  0  0  0  0  0  0  0  0  0
  125.5150  132.9730   59.4950 F   0  0  0  0  0  0  0  0  0  0  0  0
  124.1870  131.3250   59.8760 F   0  0  0  0  0  0  0  0  0  0  0  0
  124.3110  132.9750   61.2800 F   0  0  0  0  0  0  0  0  0  0  0  0
  125.8080  130.6080   62.3520 C   0  0  0  0  0  0  0  0  0  0  0  0
  124.4310  130.4570   62.8300 C   0  0  0  0  0  0  0  0  0  0  0  0
  123.3430  130.3390   63.2050 N   0  0  0  0  0  0  0  0  0  0  0  0
  129.8970  128.2850   69.2620 C   0  0  0  0  0  0  0  0  0  0  0  0
  130.1370  128.2220   70.6320 C   0  0  0  0  0  0  0  0  0  0  0  0
  1  2  1  0
  2  3  1  0
  3  4  2  0
  3  5  1  0
  5  6  2  0
  6  7  1  0
  7  8  2  0
  8  9  1  0
  9 10  1  0
 10 11  2  0
 10 12  1  0
 12 13  1  0
 13 14  1  0
 14 15  2  0
 15 16  1  0
 16 17  1  0
 17 18  2  0
 18 19  1  0
 19 20  2  0
 20 21  1  0
 21 22  2  0
 16 23  2  0
 23 24  1  0
 24 25  1  0
 25 26  1  0
 25 27  1  0
 25 28  1  0
 24 29  2  0
 29 30  1  0
 30 31  3  0
  8 32  1  0
 32 33  2  0
 33  5  1  0
 29 14  1  0
 22 17  1  0
M  END
>  <Binding energies>  (13) 
[-7.79]

>  <Ligand effiencies>  (13) 
[-0.22911764705882354]

>  <Interactions>  (13) 
["H-B:GLU:543:OE2:9882, V-B:GLU:543:CD:9880, H-A:GLU:543:OE2:4910, V-A:GLU:543:CD:4908, V-B:ILE:369:CD1:8211, V-A:TYR:539:CE1:4875, V-A:PRO:540:CA:4883, V-A:ALA:541:CB:4892, V-A:TYR:539:CD1:4873, V-A:GLU:543:CG:4907, V-B:LEU:475:CD2:9231, V-A:ALA:541:CA:4890, H-B:GLY:454:N:9022, H-B:TYR:484:OH:9320, V-A:ASN:362:CB:3176, H-B:ARG:545:NH1:9899, V-B:HIS:456:CE1:9042, V-A:PRO:540:CB:4885, H-B:LYS:547:NZ:9923, H-A:LYS:547:NZ:4951, V-B:HIS:456:CD2:9040, V-A:HIS:456:CB:4065, V-A:HIS:456:CD2:4068, V-A:HIS:456:CG:4066, V-A:GLY:544:C:4912, V-B:GLU:543:CB:9878, V-A:HIS:456:CE1:4070, V-A:ALA:541:C:4888, V-A:GLU:543:CB:4906, V-A:GLU:543:C:4902"]

$$$$
3ac_Grossjean_2025
     RDKit          3D

 31 33  0  0  0  0  0  0  0  0999 V2000
  130.4460  127.1300   73.3500 C   0  0  0  0  0  0  0  0  0  0  0  0
  129.2090  127.0540   72.6480 O   0  0  0  0  0  0  0  0  0  0  0  0
  129.1900  127.2890   71.2870 C   0  0  0  0  0  0  0  0  0  0  0  0
  128.2220  126.6060   70.5510 C   0  0  0  0  0  0  0  0  0  0  0  0
  128.1240  126.7830   69.1740 C   0  0  0  0  0  0  0  0  0  0  0  0
  129.0010  127.6400   68.5100 C   0  0  0  0  0  0  0  0  0  0  0  0
  128.8110  127.7690   67.1210 N   0  0  0  0  0  0  0  0  0  0  0  0
  128.4120  128.8480   66.4130 C   0  0  0  0  0  0  0  0  0  0  0  0
  128.1790  129.9620   66.8840 O   0  0  0  0  0  0  0  0  0  0  0  0
  128.2540  128.6270   64.9080 C   0  0  0  0  0  0  0  0  0  0  0  0
  126.5400  128.8790   64.3530 S   0  0  0  0  0  0  0  0  0  0  0  0
  126.5610  129.8370   62.8500 C   0  0  0  0  0  0  0  0  0  0  0  0
  127.8130  130.0780   62.3890 N   0  0  0  0  0  0  0  0  0  0  0  0
  127.9880  130.7920   61.2470 C   0  0  0  0  0  0  0  0  0  0  0  0
  129.4040  131.0200   60.8100 C   0  0  0  0  0  0  0  0  0  0  0  0
  130.4090  131.3050   61.7500 C   0  0  0  0  0  0  0  0  0  0  0  0
  131.7260  131.5120   61.3510 C   0  0  0  0  0  0  0  0  0  0  0  0
  132.0580  131.4400   60.0020 C   0  0  0  0  0  0  0  0  0  0  0  0
  131.0820  131.1650   59.0510 C   0  0  0  0  0  0  0  0  0  0  0  0
  129.7660  130.9590   59.4540 C   0  0  0  0  0  0  0  0  0  0  0  0
  126.8900  131.3000   60.5450 C   0  0  0  0  0  0  0  0  0  0  0  0
  125.5860  131.0840   61.0120 C   0  0  0  0  0  0  0  0  0  0  0  0
  124.4060  131.6660   60.2090 C   0  0  0  0  0  0  0  0  0  0  0  0
  124.7910  132.2580   59.0770 F   0  0  0  0  0  0  0  0  0  0  0  0
  123.5490  130.6980   59.8790 F   0  0  0  0  0  0  0  0  0  0  0  0
  123.7660  132.5770   60.9430 F   0  0  0  0  0  0  0  0  0  0  0  0
  125.4080  130.3430   62.2070 C   0  0  0  0  0  0  0  0  0  0  0  0
  124.0710  130.1580   62.7750 C   0  0  0  0  0  0  0  0  0  0  0  0
  123.0140  130.0120   63.2230 N   0  0  0  0  0  0  0  0  0  0  0  0
  129.9740  128.3370   69.2440 C   0  0  0  0  0  0  0  0  0  0  0  0
  130.0690  128.1590   70.6220 C   0  0  0  0  0  0  0  0  0  0  0  0
  1  2  1  0
  2  3  1  0
  3  4  2  0
  4  5  1  0
  5  6  2  0
  6  7  1  0
  7  8  1  0
  8  9  2  0
  8 10  1  0
 10 11  1  0
 11 12  1  0
 12 13  2  0
 13 14  1  0
 14 15  1  0
 15 16  2  0
 16 17  1  0
 17 18  2  0
 18 19  1  0
 19 20  2  0
 14 21  2  0
 21 22  1  0
 22 23  1  0
 23 24  1  0
 23 25  1  0
 23 26  1  0
 22 27  2  0
 27 28  1  0
 28 29  3  0
  6 30  1  0
 30 31  2  0
 31  3  1  0
 27 12  1  0
 20 15  1  0
M  END
>  <Binding energies>  (14) 
[-7.11]

>  <Ligand effiencies>  (14) 
[-0.2221875]

>  <Interactions>  (14) 
["H-B:GLU:543:OE2:9882, V-B:GLU:543:CD:9880, H-A:GLU:543:OE2:4910, V-A:GLU:543:CD:4908, V-B:ILE:369:CD1:8211, V-A:TYR:539:CE1:4875, V-A:PRO:540:CA:4883, V-A:ALA:541:CB:4892, V-A:TYR:539:CD1:4873, V-A:GLU:543:CG:4907, V-B:ILE:369:CG2:8209, V-A:PRO:540:C:4881, H-B:GLY:454:N:9022, H-B:TYR:484:OH:9320, H-B:ARG:545:NH1:9899, V-B:HIS:456:CE1:9042, V-A:PRO:540:CB:4885, H-B:LYS:547:NZ:9923, V-B:HIS:456:CD2:9040, V-A:HIS:456:CD2:4068, V-A:GLY:544:C:4912, V-B:GLU:543:CB:9878, V-B:ASP:366:CG:8185, V-B:ASP:366:CA:8182, V-B:ASP:366:CB:8184, V-A:HIS:456:CE1:4070, V-A:GLU:543:CB:4906, V-A:TYR:539:CZ:4877, V-A:GLU:543:C:4902"]

$$$$
3af_Grossjean_2025
     RDKit          3D

 29 31  0  0  0  0  0  0  0  0999 V2000
  123.7160  131.3840   76.0280 N   0  0  0  0  0  0  0  0  0  0  0  0
  124.6610  130.8360   75.6450 C   0  0  0  0  0  0  0  0  0  0  0  0
  125.8560  130.1410   75.1610 C   0  0  0  0  0  0  0  0  0  0  0  0
  125.8090  128.7630   74.8370 C   0  0  0  0  0  0  0  0  0  0  0  0
  124.5140  127.9320   74.9220 C   0  0  0  0  0  0  0  0  0  0  0  0
  123.7440  128.0590   73.8390 F   0  0  0  0  0  0  0  0  0  0  0  0
  124.8110  126.6390   75.0550 F   0  0  0  0  0  0  0  0  0  0  0  0
  123.7890  128.3200   75.9720 F   0  0  0  0  0  0  0  0  0  0  0  0
  126.9930  128.1290   74.4290 C   0  0  0  0  0  0  0  0  0  0  0  0
  128.1890  128.8490   74.3480 C   0  0  0  0  0  0  0  0  0  0  0  0
  129.4850  128.2180   73.9370 C   0  0  0  0  0  0  0  0  0  0  0  0
  129.8770  128.1960   72.5890 C   0  0  0  0  0  0  0  0  0  0  0  0
  131.0810  127.6130   72.2010 C   0  0  0  0  0  0  0  0  0  0  0  0
  131.9110  127.0430   73.1590 C   0  0  0  0  0  0  0  0  0  0  0  0
  131.5490  127.0540   74.5020 C   0  0  0  0  0  0  0  0  0  0  0  0
  130.3440  127.6380   74.8860 C   0  0  0  0  0  0  0  0  0  0  0  0
  128.2310  130.1690   74.6630 N   0  0  0  0  0  0  0  0  0  0  0  0
  127.0960  130.8090   75.0380 C   0  0  0  0  0  0  0  0  0  0  0  0
  127.3460  132.5360   75.3960 S   0  0  0  0  0  0  0  0  0  0  0  0
  127.3370  133.4430   73.8200 C   0  0  0  0  0  0  0  0  0  0  0  0
  128.6710  133.3180   73.0850 C   0  0  0  0  0  0  0  0  0  0  0  0
  128.9990  132.2270   72.6200 O   0  0  0  0  0  0  0  0  0  0  0  0
  129.4010  134.4520   73.0140 N   0  0  0  0  0  0  0  0  0  0  0  0
  130.6600  134.6740   72.4230 C   0  0  0  0  0  0  0  0  0  0  0  0
  130.8950  135.3890   71.2340 C   0  0  0  0  0  0  0  0  0  0  0  0
  132.2010  135.5310   70.7590 C   0  0  0  0  0  0  0  0  0  0  0  0
  133.2420  134.9520   71.4850 C   0  0  0  0  0  0  0  0  0  0  0  0
  133.0430  134.2590   72.6330 N   0  0  0  0  0  0  0  0  0  0  0  0
  131.7690  134.1310   73.0820 C   0  0  0  0  0  0  0  0  0  0  0  0
  1  2  3  0
  2  3  1  0
  3  4  2  0
  4  5  1  0
  5  6  1  0
  5  7  1  0
  5  8  1  0
  4  9  1  0
  9 10  2  0
 10 11  1  0
 11 12  2  0
 12 13  1  0
 13 14  2  0
 14 15  1  0
 15 16  2  0
 10 17  1  0
 17 18  2  0
 18 19  1  0
 19 20  1  0
 20 21  1  0
 21 22  2  0
 21 23  1  0
 23 24  1  0
 24 25  2  0
 25 26  1  0
 26 27  2  0
 27 28  1  0
 28 29  2  0
 18  3  1  0
 29 24  1  0
 16 11  1  0
M  END
>  <Binding energies>  (15) 
[-7.2]

>  <Ligand effiencies>  (15) 
[-0.24000000000000002]

>  <Interactions>  (15) 
["H-A:LYS:547:NZ:4951, V-B:LYS:547:CB:9919, V-B:LYS:547:CG:9920, V-B:HIS:456:CD2:9040, V-B:ARG:545:C:9889, V-A:LYS:547:CE:4950, V-A:HIS:456:CB:4065, V-A:HIS:456:CD2:4068, V-B:LYS:547:CD:9921, V-B:HIS:456:CG:9038, V-B:HIS:456:CB:9037, V-B:VAL:457:C:9045, V-A:HIS:456:CG:4066, V-A:GLY:544:C:4912, V-B:VAL:458:CG2:9059, V-B:ASP:473:CB:9211, V-B:ASP:473:CG:9212, V-A:HIS:456:CE1:4070, V-A:GLY:544:CA:4914, V-B:LYS:547:CE:9922, V-B:ARG:545:CA:9891, V-B:HIS:456:C:9033, H-B:VAL:457:N:9048, V-B:TYR:484:CA:9311, V-B:VAL:458:CA:9055, V-B:VAL:457:CA:9047, V-B:TYR:484:CB:9313, V-B:TYR:484:C:9309, V-B:HIS:456:CA:9035, V-A:VAL:542:CG1:4899, V-B:VAL:458:CB:9057, H-B:LEU:472:N:9201, H-B:TYR:484:O:9310, V-A:VAL:542:C:4894, V-A:VAL:542:CB:4898"]

$$$$
3ag_Grossjean_2025
     RDKit          3D

 30 32  0  0  0  0  0  0  0  0999 V2000
  124.0430  130.3720   63.4660 N   0  0  0  0  0  0  0  0  0  0  0  0
  125.1210  130.5530   63.0830 C   0  0  0  0  0  0  0  0  0  0  0  0
  126.4830  130.7870   62.5970 C   0  0  0  0  0  0  0  0  0  0  0  0
  126.7660  131.8680   61.7270 C   0  0  0  0  0  0  0  0  0  0  0  0
  125.6950  132.8860   61.2890 C   0  0  0  0  0  0  0  0  0  0  0  0
  124.9000  132.4180   60.3250 F   0  0  0  0  0  0  0  0  0  0  0  0
  124.9220  133.2060   62.3280 F   0  0  0  0  0  0  0  0  0  0  0  0
  126.2760  133.9930   60.8250 F   0  0  0  0  0  0  0  0  0  0  0  0
  128.0760  132.0180   61.2470 C   0  0  0  0  0  0  0  0  0  0  0  0
  129.0720  131.1070   61.6140 C   0  0  0  0  0  0  0  0  0  0  0  0
  130.4860  131.2170   61.1290 C   0  0  0  0  0  0  0  0  0  0  0  0
  130.7940  131.0400   59.7710 C   0  0  0  0  0  0  0  0  0  0  0  0
  132.1050  131.1410   59.3130 C   0  0  0  0  0  0  0  0  0  0  0  0
  133.1300  131.4210   60.2110 C   0  0  0  0  0  0  0  0  0  0  0  0
  132.8520  131.5980   61.5630 C   0  0  0  0  0  0  0  0  0  0  0  0
  131.5400  131.4960   62.0160 C   0  0  0  0  0  0  0  0  0  0  0  0
  128.8000  130.0790   62.4590 N   0  0  0  0  0  0  0  0  0  0  0  0
  127.5470  129.9270   62.9500 C   0  0  0  0  0  0  0  0  0  0  0  0
  127.3760  128.5310   64.0410 S   0  0  0  0  0  0  0  0  0  0  0  0
  126.8440  129.1690   65.6580 C   0  0  0  0  0  0  0  0  0  0  0  0
  128.0000  129.2490   66.6560 C   0  0  0  0  0  0  0  0  0  0  0  0
  128.2370  130.3090   67.2380 O   0  0  0  0  0  0  0  0  0  0  0  0
  128.7030  128.1190   66.8470 N   0  0  0  0  0  0  0  0  0  0  0  0
  129.8200  127.9620   67.7780 C   0  0  0  0  0  0  0  0  0  0  0  0
  129.3980  127.6640   69.2120 C   0  0  0  0  0  0  0  0  0  0  0  0
  128.2960  126.8400   69.4550 C   0  0  0  0  0  0  0  0  0  0  0  0
  127.9260  126.5410   70.7640 C   0  0  0  0  0  0  0  0  0  0  0  0
  128.6640  127.0610   71.8250 C   0  0  0  0  0  0  0  0  0  0  0  0
  129.7730  127.8710   71.5900 C   0  0  0  0  0  0  0  0  0  0  0  0
  130.1440  128.1690   70.2820 C   0  0  0  0  0  0  0  0  0  0  0  0
  1  2  3  0
  2  3  1  0
  3  4  2  0
  4  5  1  0
  5  6  1  0
  5  7  1  0
  5  8  1  0
  4  9  1  0
  9 10  2  0
 10 11  1  0
 11 12  2  0
 12 13  1  0
 13 14  2  0
 14 15  1  0
 15 16  2  0
 10 17  1  0
 17 18  2  0
 18 19  1  0
 19 20  1  0
 20 21  1  0
 21 22  2  0
 21 23  1  0
 23 24  1  0
 24 25  1  0
 25 26  2  0
 26 27  1  0
 27 28  2  0
 28 29  1  0
 29 30  2  0
 18  3  1  0
 30 25  1  0
 16 11  1  0
M  END
>  <Binding energies>  (16) 
[-7.57]

>  <Ligand effiencies>  (16) 
[-0.24419354838709678]

>  <Interactions>  (16) 
["H-B:GLU:543:OE2:9882, H-A:GLU:543:OE2:4910, V-A:GLU:543:CD:4908, V-A:TYR:539:CE1:4875, V-A:PRO:540:CA:4883, V-A:ALA:541:CB:4892, V-A:TYR:539:CD1:4873, V-A:GLU:543:CG:4907, V-B:LEU:475:CD2:9231, V-A:ALA:541:CA:4890, H-B:GLY:454:N:9022, H-B:TYR:484:OH:9320, V-A:ASN:362:CB:3176, V-B:HIS:456:CE1:9042, V-A:PRO:540:CB:4885, V-B:HIS:456:CD2:9040, V-A:HIS:456:CD2:4068, V-B:GLY:544:C:9884, V-A:GLY:544:C:4912, V-B:GLU:543:CB:9878, V-B:TYR:484:CZ:9319, V-A:HIS:456:CE1:4070, V-A:ALA:541:C:4888, V-A:GLU:543:CB:4906, V-A:GLU:543:C:4902"]

$$$$
3bc_Grossjean_2025
     RDKit          3D

 28 30  0  0  0  0  0  0  0  0999 V2000
  135.4980  134.1790   71.8860 C   0  0  0  0  0  0  0  0  0  0  0  0
  134.5530  135.1760   71.5150 O   0  0  0  0  0  0  0  0  0  0  0  0
  133.2110  134.9600   71.7680 C   0  0  0  0  0  0  0  0  0  0  0  0
  132.8480  134.8080   73.1070 C   0  0  0  0  0  0  0  0  0  0  0  0
  131.5190  134.5870   73.4600 C   0  0  0  0  0  0  0  0  0  0  0  0
  130.5340  134.5050   72.4740 C   0  0  0  0  0  0  0  0  0  0  0  0
  129.2190  134.2910   72.9280 N   0  0  0  0  0  0  0  0  0  0  0  0
  128.4990  133.1490   72.9460 C   0  0  0  0  0  0  0  0  0  0  0  0
  128.9190  132.0490   72.5830 O   0  0  0  0  0  0  0  0  0  0  0  0
  127.0780  133.2960   73.5070 C   0  0  0  0  0  0  0  0  0  0  0  0
  126.8340  132.6240   75.1860 S   0  0  0  0  0  0  0  0  0  0  0  0
  126.7260  130.8530   75.0530 C   0  0  0  0  0  0  0  0  0  0  0  0
  127.8690  130.2700   74.6140 N   0  0  0  0  0  0  0  0  0  0  0  0
  127.9260  128.9200   74.4690 C   0  0  0  0  0  0  0  0  0  0  0  0
  129.2180  128.3550   73.9580 C   0  0  0  0  0  0  0  0  0  0  0  0
  130.1160  127.7180   74.8280 C   0  0  0  0  0  0  0  0  0  0  0  0
  131.3170  127.1910   74.3610 C   0  0  0  0  0  0  0  0  0  0  0  0
  131.6380  127.2960   73.0120 C   0  0  0  0  0  0  0  0  0  0  0  0
  130.7670  127.9250   72.1280 C   0  0  0  0  0  0  0  0  0  0  0  0
  129.5670  128.4520   72.6000 C   0  0  0  0  0  0  0  0  0  0  0  0
  126.8200  128.1180   74.7660 C   0  0  0  0  0  0  0  0  0  0  0  0
  125.6410  128.7020   75.2420 C   0  0  0  0  0  0  0  0  0  0  0  0
  124.4630  127.7860   75.5710 C   0  0  0  0  0  0  0  0  0  0  0  0
  125.5810  130.1030   75.4050 C   0  0  0  0  0  0  0  0  0  0  0  0
  124.3760  130.7320   75.9480 C   0  0  0  0  0  0  0  0  0  0  0  0
  123.4210  131.2260   76.3770 N   0  0  0  0  0  0  0  0  0  0  0  0
  130.8890  134.6700   71.1270 C   0  0  0  0  0  0  0  0  0  0  0  0
  132.2190  134.8920   70.7780 C   0  0  0  0  0  0  0  0  0  0  0  0
  1  2  1  0
  2  3  1  0
  3  4  2  0
  4  5  1  0
  5  6  2  0
  6  7  1  0
  7  8  1  0
  8  9  2  0
  8 10  1  0
 10 11  1  0
 11 12  1  0
 12 13  2  0
 13 14  1  0
 14 15  1  0
 15 16  2  0
 16 17  1  0
 17 18  2  0
 18 19  1  0
 19 20  2  0
 14 21  2  0
 21 22  1  0
 22 23  1  0
 22 24  2  0
 24 25  1  0
 25 26  3  0
  6 27  1  0
 27 28  2  0
 28  3  1  0
 24 12  1  0
 20 15  1  0
M  END
>  <Binding energies>  (17) 
[-8.54]

>  <Ligand effiencies>  (17) 
[-0.2944827586206896]

>  <Interactions>  (17) 
["H-A:LYS:547:NZ:4951, V-B:LYS:547:CB:9919, V-B:LYS:547:CG:9920, V-B:HIS:456:CD2:9040, V-A:LYS:547:CE:4950, V-A:HIS:456:CB:4065, V-A:HIS:456:CD2:4068, V-B:LYS:547:CD:9921, V-B:HIS:456:CG:9038, V-B:HIS:456:CB:9037, V-B:VAL:457:C:9045, V-A:HIS:456:CG:4066, V-A:GLY:544:C:4912, V-B:VAL:458:CG2:9059, V-B:ASP:473:CB:9211, V-B:ASP:473:CG:9212, V-A:GLU:543:C:4902, V-A:GLY:544:CA:4914, V-B:LYS:547:CE:9922, V-B:HIS:456:C:9033, H-B:VAL:457:N:9048, V-B:TYR:484:CA:9311, V-B:VAL:457:CA:9047, V-B:TYR:484:CB:9313, V-B:TYR:484:C:9309, V-A:VAL:542:CG1:4899, H-B:ASP:473:OD2:9214, H-B:LEU:472:N:9201, H-B:TYR:484:O:9310, V-A:VAL:542:C:4894, V-A:GLU:357:CB:3134, H-B:VAL:458:N:9056, V-A:GLU:357:CD:3136"]

$$$$
3bd_Grossjean_2025
     RDKit          3D

 26 28  0  0  0  0  0  0  0  0999 V2000
  124.3810  127.9010   75.2630 C   0  0  0  0  0  0  0  0  0  0  0  0
  125.6250  128.7580   75.0330 C   0  0  0  0  0  0  0  0  0  0  0  0
  126.7890  128.1260   74.5820 C   0  0  0  0  0  0  0  0  0  0  0  0
  127.9510  128.8750   74.3640 C   0  0  0  0  0  0  0  0  0  0  0  0
  129.2310  128.2620   73.8770 C   0  0  0  0  0  0  0  0  0  0  0  0
  129.5700  128.2960   72.5150 C   0  0  0  0  0  0  0  0  0  0  0  0
  130.7550  127.7280   72.0560 C   0  0  0  0  0  0  0  0  0  0  0  0
  131.6210  127.1140   72.9570 C   0  0  0  0  0  0  0  0  0  0  0  0
  131.3060  127.0640   74.3100 C   0  0  0  0  0  0  0  0  0  0  0  0
  130.1200  127.6340   74.7650 C   0  0  0  0  0  0  0  0  0  0  0  0
  127.9620  130.2180   74.5710 N   0  0  0  0  0  0  0  0  0  0  0  0
  126.8420  130.8470   75.0090 C   0  0  0  0  0  0  0  0  0  0  0  0
  126.9900  132.6090   75.2530 S   0  0  0  0  0  0  0  0  0  0  0  0
  127.1570  133.3920   73.6210 C   0  0  0  0  0  0  0  0  0  0  0  0
  128.5690  133.2390   73.0530 C   0  0  0  0  0  0  0  0  0  0  0  0
  128.9240  132.1410   72.6230 O   0  0  0  0  0  0  0  0  0  0  0  0
  129.3360  134.3500   73.0840 N   0  0  0  0  0  0  0  0  0  0  0  0
  130.6520  134.5300   72.6180 C   0  0  0  0  0  0  0  0  0  0  0  0
  130.7970  134.7010   71.2390 C   0  0  0  0  0  0  0  0  0  0  0  0
  132.0620  134.8780   70.6840 C   0  0  0  0  0  0  0  0  0  0  0  0
  133.1840  134.8740   71.5080 C   0  0  0  0  0  0  0  0  0  0  0  0
  133.0540  134.6910   72.8820 C   0  0  0  0  0  0  0  0  0  0  0  0
  131.7900  134.5150   73.4400 C   0  0  0  0  0  0  0  0  0  0  0  0
  125.6390  130.1510   75.2570 C   0  0  0  0  0  0  0  0  0  0  0  0
  124.4350  130.8430   75.7290 C   0  0  0  0  0  0  0  0  0  0  0  0
  123.4840  131.3870   76.1000 N   0  0  0  0  0  0  0  0  0  0  0  0
  1  2  1  0
  2  3  2  0
  3  4  1  0
  4  5  1  0
  5  6  2  0
  6  7  1  0
  7  8  2  0
  8  9  1  0
  9 10  2  0
  4 11  2  0
 11 12  1  0
 12 13  1  0
 13 14  1  0
 14 15  1  0
 15 16  2  0
 15 17  1  0
 17 18  1  0
 18 19  2  0
 19 20  1  0
 20 21  2  0
 21 22  1  0
 22 23  2  0
 12 24  2  0
 24 25  1  0
 25 26  3  0
 24  2  1  0
 10  5  1  0
 23 18  1  0
M  END
>  <Binding energies>  (18) 
[-8.6]

>  <Ligand effiencies>  (18) 
[-0.3185185185185185]

>  <Interactions>  (18) 
["H-A:LYS:547:NZ:4951, V-B:LYS:547:CG:9920, V-B:HIS:456:CD2:9040, V-A:LYS:547:CE:4950, V-A:HIS:456:CB:4065, V-A:HIS:456:CD2:4068, V-B:LYS:547:CD:9921, V-B:HIS:456:CG:9038, V-B:HIS:456:CB:9037, V-B:VAL:457:C:9045, V-A:HIS:456:CG:4066, V-A:GLY:544:C:4912, V-B:VAL:458:CG2:9059, V-B:ASP:473:CB:9211, V-B:ASP:473:CG:9212, V-A:HIS:456:CE1:4070, V-A:GLU:543:C:4902, V-A:GLY:544:CA:4914, V-B:LYS:547:CE:9922, V-B:HIS:456:C:9033, H-B:VAL:457:N:9048, V-B:VAL:457:CA:9047, V-B:TYR:484:CB:9313, V-B:TYR:484:C:9309, V-B:HIS:456:CA:9035, V-A:VAL:542:CG1:4899, H-B:ASP:473:OD2:9214, H-B:LEU:472:N:9201, H-B:TYR:484:O:9310, V-A:VAL:542:C:4894"]

$$$$
3be_Grossjean_2025
     RDKit          3D

 27 29  0  0  0  0  0  0  0  0999 V2000
  123.6060  129.5300   67.3810 C   0  0  0  0  0  0  0  0  0  0  0  0
  124.4620  129.3360   66.1450 C   0  0  0  0  0  0  0  0  0  0  0  0
  125.7670  128.8440   66.2290 C   0  0  0  0  0  0  0  0  0  0  0  0
  126.4980  128.6940   65.0510 C   0  0  0  0  0  0  0  0  0  0  0  0
  125.9130  129.0350   63.8280 C   0  0  0  0  0  0  0  0  0  0  0  0
  124.6010  129.5190   63.8140 C   0  0  0  0  0  0  0  0  0  0  0  0
  124.0720  129.8550   62.5540 N   0  0  0  0  0  0  0  0  0  0  0  0
  124.0650  131.0540   61.9330 C   0  0  0  0  0  0  0  0  0  0  0  0
  124.5380  132.0900   62.4040 O   0  0  0  0  0  0  0  0  0  0  0  0
  123.4050  131.0550   60.5440 C   0  0  0  0  0  0  0  0  0  0  0  0
  124.5380  131.3680   59.1480 S   0  0  0  0  0  0  0  0  0  0  0  0
  125.8850  132.3670   59.7410 C   0  0  0  0  0  0  0  0  0  0  0  0
  127.1040  131.8080   59.5440 N   0  0  0  0  0  0  0  0  0  0  0  0
  128.2240  132.4660   59.9460 C   0  0  0  0  0  0  0  0  0  0  0  0
  129.5320  131.7730   59.7040 C   0  0  0  0  0  0  0  0  0  0  0  0
  129.9610  131.4850   58.3980 C   0  0  0  0  0  0  0  0  0  0  0  0
  131.1720  130.8400   58.1670 C   0  0  0  0  0  0  0  0  0  0  0  0
  131.9740  130.4710   59.2410 C   0  0  0  0  0  0  0  0  0  0  0  0
  131.5720  130.7420   60.5440 C   0  0  0  0  0  0  0  0  0  0  0  0
  130.3590  131.3870   60.7720 C   0  0  0  0  0  0  0  0  0  0  0  0
  128.1370  133.7160   60.5670 C   0  0  0  0  0  0  0  0  0  0  0  0
  126.8890  134.3180   60.7560 C   0  0  0  0  0  0  0  0  0  0  0  0
  126.8440  135.6920   61.4230 C   0  0  0  0  0  0  0  0  0  0  0  0
  125.7250  133.6430   60.3270 C   0  0  0  0  0  0  0  0  0  0  0  0
  124.4130  134.2790   60.4660 C   0  0  0  0  0  0  0  0  0  0  0  0
  123.3770  134.7830   60.5760 N   0  0  0  0  0  0  0  0  0  0  0  0
  123.8810  129.6710   64.9650 N   0  0  0  0  0  0  0  0  0  0  0  0
  1  2  1  0
  2  3  2  0
  3  4  1  0
  4  5  2  0
  5  6  1  0
  6  7  1  0
  7  8  1  0
  8  9  2  0
  8 10  1  0
 10 11  1  0
 11 12  1  0
 12 13  2  0
 13 14  1  0
 14 15  1  0
 15 16  2  0
 16 17  1  0
 17 18  2  0
 18 19  1  0
 19 20  2  0
 14 21  2  0
 21 22  1  0
 22 23  1  0
 22 24  2  0
 24 25  1  0
 25 26  3  0
  6 27  2  0
 27  2  1  0
 24 12  1  0
 20 15  1  0
M  END
>  <Binding energies>  (19) 
[-8.04]

>  <Ligand effiencies>  (19) 
[-0.2871428571428571]

>  <Interactions>  (19) 
["V-B:GLU:543:CD:9880, V-B:ILE:369:CD1:8211, V-A:TYR:539:CE1:4875, V-A:PRO:540:CA:4883, V-A:ALA:541:CB:4892, V-A:TYR:539:CD1:4873, V-B:ILE:369:CG2:8209, V-B:ARG:545:CZ:9898, V-A:PRO:540:C:4881, V-B:LEU:475:CD2:9231, H-B:GLY:454:N:9022, H-B:ARG:545:NE:9896, H-B:TYR:484:OH:9320, V-B:ILE:455:C:9024, V-A:TYR:539:C:4867, V-B:ARG:545:CD:9895, H-B:ARG:545:NH1:9899, V-B:HIS:456:CE1:9042, V-B:ARG:545:CG:9894, V-B:ARG:545:CB:9893, V-A:ASP:366:CG:3213, V-B:TYR:484:CE1:9317, V-B:TYR:484:CZ:9319, V-B:ASP:366:CG:8185, V-B:ASP:366:CA:8182, H-B:ASP:366:OD2:8187, H-B:ASP:366:OD1:8186, H-B:SER:385:OG:8382, V-B:LEU:475:CG:9229"]

$$$$
3bf_Grossjean_2025
     RDKit          3D

 26 28  0  0  0  0  0  0  0  0999 V2000
  124.2820  127.9200   75.2470 C   0  0  0  0  0  0  0  0  0  0  0  0
  125.5530  128.7560   75.1070 C   0  0  0  0  0  0  0  0  0  0  0  0
  126.7110  128.1220   74.6480 C   0  0  0  0  0  0  0  0  0  0  0  0
  127.8940  128.8540   74.4910 C   0  0  0  0  0  0  0  0  0  0  0  0
  129.1630  128.2390   73.9830 C   0  0  0  0  0  0  0  0  0  0  0  0
  129.5370  128.3790   72.6370 C   0  0  0  0  0  0  0  0  0  0  0  0
  130.7140  127.8100   72.1570 C   0  0  0  0  0  0  0  0  0  0  0  0
  131.5350  127.0920   73.0200 C   0  0  0  0  0  0  0  0  0  0  0  0
  131.1860  126.9380   74.3580 C   0  0  0  0  0  0  0  0  0  0  0  0
  130.0080  127.5070   74.8330 C   0  0  0  0  0  0  0  0  0  0  0  0
  127.9350  130.1820   74.7810 N   0  0  0  0  0  0  0  0  0  0  0  0
  126.8270  130.8050   75.2510 C   0  0  0  0  0  0  0  0  0  0  0  0
  127.0690  132.5380   75.5810 S   0  0  0  0  0  0  0  0  0  0  0  0
  127.1090  133.4180   73.9830 C   0  0  0  0  0  0  0  0  0  0  0  0
  128.4060  133.2490   73.1780 C   0  0  0  0  0  0  0  0  0  0  0  0
  128.7040  132.1590   72.6880 O   0  0  0  0  0  0  0  0  0  0  0  0
  129.1350  134.3780   73.0430 N   0  0  0  0  0  0  0  0  0  0  0  0
  130.3650  134.5610   72.3820 C   0  0  0  0  0  0  0  0  0  0  0  0
  131.5270  134.4330   73.1500 C   0  0  0  0  0  0  0  0  0  0  0  0
  132.7780  134.5900   72.5500 C   0  0  0  0  0  0  0  0  0  0  0  0
  132.8320  134.8680   71.1840 C   0  0  0  0  0  0  0  0  0  0  0  0
  131.7220  134.9860   70.4130 N   0  0  0  0  0  0  0  0  0  0  0  0
  130.5120  134.8310   71.0100 C   0  0  0  0  0  0  0  0  0  0  0  0
  125.5950  130.1330   75.4150 C   0  0  0  0  0  0  0  0  0  0  0  0
  124.3800  130.8280   75.8500 C   0  0  0  0  0  0  0  0  0  0  0  0
  123.4200  131.3750   76.1950 N   0  0  0  0  0  0  0  0  0  0  0  0
  1  2  1  0
  2  3  2  0
  3  4  1  0
  4  5  1  0
  5  6  2  0
  6  7  1  0
  7  8  2  0
  8  9  1  0
  9 10  2  0
  4 11  2  0
 11 12  1  0
 12 13  1  0
 13 14  1  0
 14 15  1  0
 15 16  2  0
 15 17  1  0
 17 18  1  0
 18 19  2  0
 19 20  1  0
 20 21  2  0
 21 22  1  0
 22 23  2  0
 12 24  2  0
 24 25  1  0
 25 26  3  0
 24  2  1  0
 10  5  1  0
 23 18  1  0
M  END
>  <Binding energies>  (20) 
[-8.38]

>  <Ligand effiencies>  (20) 
[-0.3103703703703704]

>  <Interactions>  (20) 
["H-A:LYS:547:NZ:4951, V-B:LYS:547:CG:9920, V-B:HIS:456:CD2:9040, V-A:LYS:547:CE:4950, V-A:HIS:456:CB:4065, V-A:HIS:456:CD2:4068, V-B:LYS:547:CD:9921, V-B:HIS:456:CB:9037, V-B:VAL:457:C:9045, V-A:HIS:456:CG:4066, V-A:GLY:544:C:4912, V-B:VAL:458:CG2:9059, V-B:ASP:473:CB:9211, V-B:ASP:473:CG:9212, V-A:HIS:456:CE1:4070, V-A:GLU:543:C:4902, V-A:GLY:544:CA:4914, V-B:LYS:547:CE:9922, H-A:GLY:544:N:4915, V-B:HIS:456:C:9033, H-B:VAL:457:N:9048, V-B:TYR:484:CA:9311, V-B:VAL:457:CA:9047, V-B:TYR:484:CB:9313, V-B:TYR:484:C:9309, V-A:VAL:542:CG1:4899, H-B:ASP:473:OD2:9214, H-B:LEU:472:N:9201, H-B:TYR:484:O:9310, V-B:TYR:484:CD2:9316"]

$$$$
3bg_Grossjean_2025
     RDKit          3D

 27 29  0  0  0  0  0  0  0  0999 V2000
  125.9630  133.1000   61.6220 C   0  0  0  0  0  0  0  0  0  0  0  0
  126.9970  132.0100   61.9000 C   0  0  0  0  0  0  0  0  0  0  0  0
  128.2780  132.1620   61.3620 C   0  0  0  0  0  0  0  0  0  0  0  0
  129.2590  131.1890   61.5990 C   0  0  0  0  0  0  0  0  0  0  0  0
  130.6590  131.2970   61.0600 C   0  0  0  0  0  0  0  0  0  0  0  0
  131.7520  131.5020   61.9180 C   0  0  0  0  0  0  0  0  0  0  0  0
  133.0510  131.5840   61.4250 C   0  0  0  0  0  0  0  0  0  0  0  0
  133.2790  131.4650   60.0580 C   0  0  0  0  0  0  0  0  0  0  0  0
  132.2160  131.2740   59.1840 C   0  0  0  0  0  0  0  0  0  0  0  0
  130.9190  131.1940   59.6820 C   0  0  0  0  0  0  0  0  0  0  0  0
  128.9820  130.1020   62.3670 N   0  0  0  0  0  0  0  0  0  0  0  0
  127.7440  129.9410   62.9000 C   0  0  0  0  0  0  0  0  0  0  0  0
  127.5210  128.4890   63.9160 S   0  0  0  0  0  0  0  0  0  0  0  0
  126.8430  129.0160   65.5240 C   0  0  0  0  0  0  0  0  0  0  0  0
  127.9440  129.2170   66.5690 C   0  0  0  0  0  0  0  0  0  0  0  0
  128.2330  130.3540   66.9450 O   0  0  0  0  0  0  0  0  0  0  0  0
  128.5630  128.1070   67.0080 N   0  0  0  0  0  0  0  0  0  0  0  0
  129.7530  128.0780   67.8590 C   0  0  0  0  0  0  0  0  0  0  0  0
  129.4090  127.7240   69.3010 C   0  0  0  0  0  0  0  0  0  0  0  0
  128.3250  126.8840   69.5770 C   0  0  0  0  0  0  0  0  0  0  0  0
  128.0050  126.5690   70.8930 C   0  0  0  0  0  0  0  0  0  0  0  0
  128.7780  127.0850   71.9330 C   0  0  0  0  0  0  0  0  0  0  0  0
  129.8710  127.9060   71.6660 C   0  0  0  0  0  0  0  0  0  0  0  0
  130.1900  128.2210   70.3470 C   0  0  0  0  0  0  0  0  0  0  0  0
  126.7080  130.8740   62.6850 C   0  0  0  0  0  0  0  0  0  0  0  0
  125.3770  130.6910   63.2690 C   0  0  0  0  0  0  0  0  0  0  0  0
  124.3250  130.5480   63.7290 N   0  0  0  0  0  0  0  0  0  0  0  0
  1  2  1  0
  2  3  2  0
  3  4  1  0
  4  5  1  0
  5  6  2  0
  6  7  1  0
  7  8  2  0
  8  9  1  0
  9 10  2  0
  4 11  2  0
 11 12  1  0
 12 13  1  0
 13 14  1  0
 14 15  1  0
 15 16  2  0
 15 17  1  0
 17 18  1  0
 18 19  1  0
 19 20  2  0
 20 21  1  0
 21 22  2  0
 22 23  1  0
 23 24  2  0
 12 25  2  0
 25 26  1  0
 26 27  3  0
 25  2  1  0
 10  5  1  0
 24 19  1  0
M  END
>  <Binding energies>  (21) 
[-8.02]

>  <Ligand effiencies>  (21) 
[-0.2864285714285714]

>  <Interactions>  (21) 
["H-B:GLU:543:OE2:9882, V-A:GLU:543:CD:4908, V-A:PRO:540:CA:4883, V-A:ALA:541:CB:4892, V-A:GLU:543:CG:4907, V-B:LEU:475:CD2:9231, V-A:ALA:541:CA:4890, H-B:GLY:454:N:9022, H-B:TYR:484:OH:9320, V-A:ASN:362:CB:3176, V-B:HIS:456:CE1:9042, V-A:PRO:540:CB:4885, V-B:HIS:456:CD2:9040, V-A:HIS:456:CD2:4068, V-B:GLY:544:C:9884, V-A:GLY:544:C:4912, V-A:ASP:366:CG:3213, V-B:TYR:484:CZ:9319, V-A:HIS:456:CE1:4070, V-A:ASN:362:C:3172, V-A:ALA:541:C:4888, V-A:GLU:543:CB:4906, V-A:GLU:543:C:4902"]

$$$$
3ca_Grossjean_2025
     RDKit          3D

 31 33  0  0  0  0  0  0  0  0999 V2000
  132.9930  126.9740   73.8140 C   0  0  0  0  0  0  0  0  0  0  0  0
  131.5560  127.4890   73.9300 C   0  0  0  0  0  0  0  0  0  0  0  0
  130.7180  126.7560   73.0440 O   0  0  0  0  0  0  0  0  0  0  0  0
  129.4940  127.2230   72.6900 C   0  0  0  0  0  0  0  0  0  0  0  0
  128.5970  127.4670   73.5030 O   0  0  0  0  0  0  0  0  0  0  0  0
  129.3390  127.4200   71.2090 C   0  0  0  0  0  0  0  0  0  0  0  0
  128.3810  126.6690   70.5160 C   0  0  0  0  0  0  0  0  0  0  0  0
  128.2130  126.8290   69.1430 C   0  0  0  0  0  0  0  0  0  0  0  0
  129.0040  127.7350   68.4340 C   0  0  0  0  0  0  0  0  0  0  0  0
  128.7520  127.8180   67.0520 N   0  0  0  0  0  0  0  0  0  0  0  0
  128.4340  128.8920   66.2970 C   0  0  0  0  0  0  0  0  0  0  0  0
  128.3230  130.0460   66.7110 O   0  0  0  0  0  0  0  0  0  0  0  0
  128.2240  128.6060   64.8060 C   0  0  0  0  0  0  0  0  0  0  0  0
  126.9310  129.6460   64.0500 S   0  0  0  0  0  0  0  0  0  0  0  0
  127.6820  130.8700   62.9860 C   0  0  0  0  0  0  0  0  0  0  0  0
  128.9560  130.6100   62.5980 N   0  0  0  0  0  0  0  0  0  0  0  0
  129.5800  131.4820   61.7760 C   0  0  0  0  0  0  0  0  0  0  0  0
  130.9930  131.1120   61.3740 C   0  0  0  0  0  0  0  0  0  0  0  0
  128.9710  132.6500   61.3220 C   0  0  0  0  0  0  0  0  0  0  0  0
  127.6630  132.9500   61.7220 C   0  0  0  0  0  0  0  0  0  0  0  0
  127.0550  134.2200   61.2210 C   0  0  0  0  0  0  0  0  0  0  0  0
  125.7860  134.2060   60.6310 C   0  0  0  0  0  0  0  0  0  0  0  0
  125.2160  135.3830   60.1520 C   0  0  0  0  0  0  0  0  0  0  0  0
  125.9180  136.5810   60.2580 C   0  0  0  0  0  0  0  0  0  0  0  0
  127.1840  136.6110   60.8360 C   0  0  0  0  0  0  0  0  0  0  0  0
  127.7510  135.4320   61.3130 C   0  0  0  0  0  0  0  0  0  0  0  0
  126.9910  132.0340   62.5720 C   0  0  0  0  0  0  0  0  0  0  0  0
  125.6030  132.2690   62.9820 C   0  0  0  0  0  0  0  0  0  0  0  0
  124.5070  132.4560   63.3060 N   0  0  0  0  0  0  0  0  0  0  0  0
  129.9610  128.4970   69.1220 C   0  0  0  0  0  0  0  0  0  0  0  0
  130.1250  128.3370   70.4960 C   0  0  0  0  0  0  0  0  0  0  0  0
  1  2  1  0
  2  3  1  0
  3  4  1  0
  4  5  2  0
  4  6  1  0
  6  7  2  0
  7  8  1  0
  8  9  2  0
  9 10  1  0
 10 11  1  0
 11 12  2  0
 11 13  1  0
 13 14  1  0
 14 15  1  0
 15 16  2  0
 16 17  1  0
 17 18  1  0
 17 19  2  0
 19 20  1  0
 20 21  1  0
 21 22  2  0
 22 23  1  0
 23 24  2  0
 24 25  1  0
 25 26  2  0
 20 27  2  0
 27 28  1  0
 28 29  3  0
  9 30  1  0
 30 31  2  0
 31  6  1  0
 27 15  1  0
 26 21  1  0
M  END
>  <Binding energies>  (22) 
[-8.88]

>  <Ligand effiencies>  (22) 
[-0.2775]

>  <Interactions>  (22) 
["H-B:GLU:543:OE2:9882, V-B:GLU:543:CD:9880, H-A:GLU:543:OE2:4910, V-A:GLU:543:CD:4908, V-A:TYR:539:CE1:4875, V-A:ALA:541:CB:4892, V-A:TYR:539:CD1:4873, V-B:SER:385:CB:8381, V-A:GLU:543:CG:4907, V-A:PRO:540:C:4881, V-B:LEU:475:CD2:9231, V-A:ALA:541:CA:4890, H-B:GLY:454:N:9022, H-B:TYR:484:OH:9320, V-B:HIS:456:CE1:9042, H-B:LYS:547:NZ:9923, V-B:HIS:456:CD2:9040, V-A:LYS:547:CE:4950, V-A:HIS:456:CB:4065, V-A:HIS:456:CD2:4068, V-A:HIS:456:CG:4066, V-A:GLY:544:C:4912, V-B:GLU:543:CB:9878, V-B:PRO:482:CG:9299, V-B:PRO:482:CB:9298, V-A:HIS:456:CE1:4070, V-A:GLU:543:CB:4906, V-A:GLU:543:CA:4904, V-A:GLU:543:C:4902, V-A:GLY:544:CA:4914"]

$$$$
3ce_Grossjean_2025
     RDKit          3D

 27 29  0  0  0  0  0  0  0  0999 V2000
  123.7140  129.5450   67.1250 C   0  0  0  0  0  0  0  0  0  0  0  0
  124.5300  129.3480   65.8620 C   0  0  0  0  0  0  0  0  0  0  0  0
  125.8610  128.9260   65.9090 C   0  0  0  0  0  0  0  0  0  0  0  0
  126.5460  128.7570   64.7070 C   0  0  0  0  0  0  0  0  0  0  0  0
  125.8940  129.0110   63.4980 C   0  0  0  0  0  0  0  0  0  0  0  0
  124.5630  129.4420   63.5220 C   0  0  0  0  0  0  0  0  0  0  0  0
  123.9520  129.6640   62.2760 N   0  0  0  0  0  0  0  0  0  0  0  0
  123.6850  130.8450   61.6750 C   0  0  0  0  0  0  0  0  0  0  0  0
  123.9520  131.9520   62.1430 O   0  0  0  0  0  0  0  0  0  0  0  0
  123.0060  130.7540   60.3090 C   0  0  0  0  0  0  0  0  0  0  0  0
  124.1960  130.9360   58.9470 S   0  0  0  0  0  0  0  0  0  0  0  0
  125.5220  131.9280   59.5930 C   0  0  0  0  0  0  0  0  0  0  0  0
  125.1680  133.2060   59.8730 N   0  0  0  0  0  0  0  0  0  0  0  0
  126.1030  134.0380   60.3860 C   0  0  0  0  0  0  0  0  0  0  0  0
  125.6370  135.4490   60.6890 C   0  0  0  0  0  0  0  0  0  0  0  0
  127.4150  133.6370   60.6230 C   0  0  0  0  0  0  0  0  0  0  0  0
  127.8070  132.3280   60.3150 C   0  0  0  0  0  0  0  0  0  0  0  0
  129.2310  131.9510   60.5630 C   0  0  0  0  0  0  0  0  0  0  0  0
  130.0760  131.6500   59.4880 C   0  0  0  0  0  0  0  0  0  0  0  0
  131.4030  131.2920   59.7120 C   0  0  0  0  0  0  0  0  0  0  0  0
  131.8910  131.2280   61.0140 C   0  0  0  0  0  0  0  0  0  0  0  0
  131.0600  131.5150   62.0950 C   0  0  0  0  0  0  0  0  0  0  0  0
  129.7340  131.8730   61.8680 C   0  0  0  0  0  0  0  0  0  0  0  0
  126.8360  131.4390   59.7880 C   0  0  0  0  0  0  0  0  0  0  0  0
  127.1840  130.0530   59.4610 C   0  0  0  0  0  0  0  0  0  0  0  0
  127.4590  128.9590   59.2030 N   0  0  0  0  0  0  0  0  0  0  0  0
  123.8830  129.6020   64.6960 N   0  0  0  0  0  0  0  0  0  0  0  0
  1  2  1  0
  2  3  2  0
  3  4  1  0
  4  5  2  0
  5  6  1  0
  6  7  1  0
  7  8  1  0
  8  9  2  0
  8 10  1  0
 10 11  1  0
 11 12  1  0
 12 13  2  0
 13 14  1  0
 14 15  1  0
 14 16  2  0
 16 17  1  0
 17 18  1  0
 18 19  2  0
 19 20  1  0
 20 21  2  0
 21 22  1  0
 22 23  2  0
 17 24  2  0
 24 25  1  0
 25 26  3  0
  6 27  2  0
 27  2  1  0
 24 12  1  0
 23 18  1  0
M  END
>  <Binding energies>  (23) 
[-7.94]

>  <Ligand effiencies>  (23) 
[-0.2835714285714286]

>  <Interactions>  (23) 
["V-B:GLU:543:CD:9880, V-A:GLU:543:CD:4908, V-B:ILE:369:CD1:8211, V-A:TYR:539:CE1:4875, V-A:PRO:540:CA:4883, V-A:ALA:541:CB:4892, V-A:TYR:539:CD1:4873, V-A:GLU:543:CG:4907, V-B:ARG:545:CZ:9898, V-B:LEU:475:CD2:9231, V-A:ALA:541:CA:4890, H-B:GLY:454:N:9022, H-B:ARG:545:NE:9896, H-B:TYR:484:OH:9320, V-B:ILE:455:C:9024, V-B:ARG:545:CD:9895, H-B:ARG:545:NH1:9899, V-B:HIS:456:CE1:9042, V-B:ARG:545:CG:9894, V-B:ARG:545:CB:9893, V-A:PRO:540:CB:4885, V-B:TYR:484:CE1:9317, V-B:TYR:484:CZ:9319, V-B:ASP:366:CG:8185, H-B:ARG:545:NH2:9900, V-B:ILE:369:CB:8208, V-B:ASP:366:CA:8182, V-B:ASP:366:CB:8184, H-B:ASP:366:OD2:8187, H-B:ASP:366:OD1:8186"]

$$$$
3cj_Grossjean_2025
     RDKit          3D

 25 27  0  0  0  0  0  0  0  0999 V2000
  125.5330  135.3150   60.6020 C   0  0  0  0  0  0  0  0  0  0  0  0
  126.0130  133.9020   60.3350 C   0  0  0  0  0  0  0  0  0  0  0  0
  127.3620  133.5630   60.4180 C   0  0  0  0  0  0  0  0  0  0  0  0
  127.7590  132.2390   60.1860 C   0  0  0  0  0  0  0  0  0  0  0  0
  129.2040  131.9080   60.3490 C   0  0  0  0  0  0  0  0  0  0  0  0
  129.7690  131.7940   61.6250 C   0  0  0  0  0  0  0  0  0  0  0  0
  131.1210  131.4980   61.7750 C   0  0  0  0  0  0  0  0  0  0  0  0
  131.9160  131.3210   60.6470 C   0  0  0  0  0  0  0  0  0  0  0  0
  131.3720  131.4410   59.3710 C   0  0  0  0  0  0  0  0  0  0  0  0
  130.0190  131.7360   59.2230 C   0  0  0  0  0  0  0  0  0  0  0  0
  126.7660  131.2880   59.8400 C   0  0  0  0  0  0  0  0  0  0  0  0
  127.1230  129.8940   59.5570 C   0  0  0  0  0  0  0  0  0  0  0  0
  127.4040  128.7930   59.3350 N   0  0  0  0  0  0  0  0  0  0  0  0
  125.4220  131.7190   59.7830 C   0  0  0  0  0  0  0  0  0  0  0  0
  124.0660  130.6030   59.4930 S   0  0  0  0  0  0  0  0  0  0  0  0
  122.9940  130.7790   60.9540 C   0  0  0  0  0  0  0  0  0  0  0  0
  123.8040  130.8290   62.2540 C   0  0  0  0  0  0  0  0  0  0  0  0
  124.1860  131.9170   62.6900 O   0  0  0  0  0  0  0  0  0  0  0  0
  124.0090  129.6370   62.8540 N   0  0  0  0  0  0  0  0  0  0  0  0
  124.5880  129.4240   64.0940 C   0  0  0  0  0  0  0  0  0  0  0  0
  124.0430  129.5900   65.2800 N   0  0  0  0  0  0  0  0  0  0  0  0
  124.8780  129.2610   66.2450 C   0  0  0  0  0  0  0  0  0  0  0  0
  126.1360  128.8160   65.8480 C   0  0  0  0  0  0  0  0  0  0  0  0
  126.2200  128.8340   64.1120 S   0  0  0  0  0  0  0  0  0  0  0  0
  125.0520  132.9990   60.0370 N   0  0  0  0  0  0  0  0  0  0  0  0
  1  2  1  0
  2  3  2  0
  3  4  1  0
  4  5  1  0
  5  6  2  0
  6  7  1  0
  7  8  2  0
  8  9  1  0
  9 10  2  0
  4 11  2  0
 11 12  1  0
 12 13  3  0
 11 14  1  0
 14 15  1  0
 15 16  1  0
 16 17  1  0
 17 18  2  0
 17 19  1  0
 19 20  1  0
 20 21  2  0
 21 22  1  0
 22 23  2  0
 23 24  1  0
 14 25  2  0
 25  2  1  0
 10  5  1  0
 24 20  1  0
M  END
>  <Binding energies>  (24) 
[-6.97]

>  <Ligand effiencies>  (24) 
[-0.26807692307692305]

>  <Interactions>  (24) 
["V-A:GLU:543:CD:4908, V-B:ILE:369:CD1:8211, V-A:TYR:539:CE1:4875, V-A:PRO:540:CA:4883, V-A:ALA:541:CB:4892, V-A:TYR:539:CD1:4873, V-A:GLU:543:CG:4907, V-B:ARG:545:CZ:9898, V-B:LEU:475:CD2:9231, V-A:ALA:541:CA:4890, H-B:GLY:454:N:9022, H-B:ARG:545:NE:9896, H-B:TYR:484:OH:9320, V-B:GLY:453:CA:9016, V-B:ARG:545:CD:9895, H-B:ARG:545:NH1:9899, V-B:HIS:456:CE1:9042, V-B:ARG:545:CG:9894, V-A:PRO:540:CB:4885, V-B:TYR:484:CE1:9317, V-B:TYR:484:CZ:9319, V-B:ASP:366:CG:8185, V-B:ASP:366:CA:8182, H-B:ASP:366:OD2:8187, H-B:ASP:366:OD1:8186"]

$$$$
4ba_Grossjean_2025
     RDKit          3D

 28 30  0  0  0  0  0  0  0  0999 V2000
  131.1020  117.7580   59.9020 C   0  0  0  0  0  0  0  0  0  0  0  0
  131.1760  119.2350   60.3320 C   0  0  0  0  0  0  0  0  0  0  0  0
  130.1240  119.6670   61.3750 C   0  0  0  0  0  0  0  0  0  0  0  0
  129.6270  118.8200   62.1210 O   0  0  0  0  0  0  0  0  0  0  0  0
  129.7560  121.1200   61.4350 C   0  0  0  0  0  0  0  0  0  0  0  0
  130.7660  122.0890   61.3650 C   0  0  0  0  0  0  0  0  0  0  0  0
  130.4530  123.4440   61.4200 C   0  0  0  0  0  0  0  0  0  0  0  0
  129.1260  123.8600   61.5410 C   0  0  0  0  0  0  0  0  0  0  0  0
  128.9240  125.2520   61.5960 N   0  0  0  0  0  0  0  0  0  0  0  0
  129.8250  126.2650   61.5880 C   0  0  0  0  0  0  0  0  0  0  0  0
  131.0460  126.1050   61.5720 O   0  0  0  0  0  0  0  0  0  0  0  0
  129.2510  127.6120   61.6260 C   0  0  0  0  0  0  0  0  0  0  0  0
  129.9760  128.9110   60.6820 S   0  0  0  0  0  0  0  0  0  0  0  0
  128.8170  130.0670   61.2950 C   0  0  0  0  0  0  0  0  0  0  0  0
  128.8460  131.3450   60.9210 N   0  0  0  0  0  0  0  0  0  0  0  0
  127.8990  132.1440   61.4620 C   0  0  0  0  0  0  0  0  0  0  0  0
  127.9560  133.5980   61.0290 C   0  0  0  0  0  0  0  0  0  0  0  0
  126.9290  131.6990   62.3560 C   0  0  0  0  0  0  0  0  0  0  0  0
  126.8920  130.3530   62.7540 C   0  0  0  0  0  0  0  0  0  0  0  0
  125.8050  129.9100   63.7390 C   0  0  0  0  0  0  0  0  0  0  0  0
  125.0950  128.8690   63.2980 F   0  0  0  0  0  0  0  0  0  0  0  0
  126.3610  129.5520   64.8970 F   0  0  0  0  0  0  0  0  0  0  0  0
  124.9530  130.9140   63.9510 F   0  0  0  0  0  0  0  0  0  0  0  0
  127.8830  129.4840   62.2060 C   0  0  0  0  0  0  0  0  0  0  0  0
  128.1630  128.0800   62.3820 C   0  0  0  0  0  0  0  0  0  0  0  0
  127.4260  127.2770   63.2150 N   0  0  0  0  0  0  0  0  0  0  0  0
  128.1100  122.8960   61.6180 C   0  0  0  0  0  0  0  0  0  0  0  0
  128.4240  121.5410   61.5640 C   0  0  0  0  0  0  0  0  0  0  0  0
  1  2  1  0
  2  3  1  0
  3  4  2  0
  3  5  1  0
  5  6  2  0
  6  7  1  0
  7  8  2  0
  8  9  1  0
  9 10  1  0
 10 11  2  0
 10 12  1  0
 12 13  1  0
 13 14  1  0
 14 15  2  0
 15 16  1  0
 16 17  1  0
 16 18  2  0
 18 19  1  0
 19 20  1  0
 20 21  1  0
 20 22  1  0
 20 23  1  0
 19 24  2  0
 24 25  1  0
 25 26  1  0
  8 27  1  0
 27 28  2  0
 28  5  1  0
 25 12  2  0
 24 14  1  0
M  END
>  <Binding energies>  (25) 
[-5.66]

>  <Ligand effiencies>  (25) 
[-0.18258064516129033]

>  <Interactions>  (25) 
["V-B:ALA:541:CB:9864, V-B:TYR:539:CD2:9846, H-B:GLU:543:OE2:9882, V-A:LEU:475:CD1:4258, V-A:LEU:475:CD2:4259, V-B:GLU:543:CD:9880, V-A:SER:385:CB:3409, H-B:GLU:543:OE1:9881, V-B:PRO:540:C:9853, V-B:ALA:541:CA:9862, V-B:PRO:540:CA:9855, V-A:ALA:541:CB:4892, V-B:ARG:545:CZ:9898, V-B:GLY:454:CA:9021, V-B:TYR:484:CZ:9319, H-A:ARG:545:NH2:4928, V-B:TYR:539:CB:9843"]

$$$$
4bb_Grossjean_2025
     RDKit          3D

 27 29  0  0  0  0  0  0  0  0999 V2000
  123.4410  131.4710   61.6230 C   0  0  0  0  0  0  0  0  0  0  0  0
  124.4200  131.1430   62.7520 C   0  0  0  0  0  0  0  0  0  0  0  0
  124.5010  131.9290   63.6970 O   0  0  0  0  0  0  0  0  0  0  0  0
  125.2360  129.8890   62.6430 C   0  0  0  0  0  0  0  0  0  0  0  0
  125.3400  129.2430   61.4050 C   0  0  0  0  0  0  0  0  0  0  0  0
  126.0900  128.0770   61.2770 C   0  0  0  0  0  0  0  0  0  0  0  0
  126.7560  127.5400   62.3800 C   0  0  0  0  0  0  0  0  0  0  0  0
  127.4830  126.3570   62.1390 N   0  0  0  0  0  0  0  0  0  0  0  0
  128.7830  126.1890   61.7940 C   0  0  0  0  0  0  0  0  0  0  0  0
  129.5720  127.1130   61.5980 O   0  0  0  0  0  0  0  0  0  0  0  0
  129.2090  124.7960   61.6300 C   0  0  0  0  0  0  0  0  0  0  0  0
  128.0930  123.4790   61.9820 S   0  0  0  0  0  0  0  0  0  0  0  0
  129.3110  122.2830   61.6020 C   0  0  0  0  0  0  0  0  0  0  0  0
  129.0520  120.9790   61.6800 N   0  0  0  0  0  0  0  0  0  0  0  0
  130.0740  120.1510   61.3620 C   0  0  0  0  0  0  0  0  0  0  0  0
  129.7580  118.6690   61.4570 C   0  0  0  0  0  0  0  0  0  0  0  0
  131.3360  120.5920   60.9730 C   0  0  0  0  0  0  0  0  0  0  0  0
  131.6140  121.9650   60.8890 C   0  0  0  0  0  0  0  0  0  0  0  0
  133.0170  122.4020   60.4550 C   0  0  0  0  0  0  0  0  0  0  0  0
  133.6120  123.2030   61.3430 F   0  0  0  0  0  0  0  0  0  0  0  0
  133.7950  121.3300   60.2990 F   0  0  0  0  0  0  0  0  0  0  0  0
  132.9470  123.0670   59.3020 F   0  0  0  0  0  0  0  0  0  0  0  0
  130.5570  122.8670   61.2170 C   0  0  0  0  0  0  0  0  0  0  0  0
  130.4690  124.3050   61.2480 C   0  0  0  0  0  0  0  0  0  0  0  0
  131.5240  125.1190   60.9230 N   0  0  0  0  0  0  0  0  0  0  0  0
  126.6490  128.1780   63.6250 C   0  0  0  0  0  0  0  0  0  0  0  0
  125.8970  129.3430   63.7510 C   0  0  0  0  0  0  0  0  0  0  0  0
  1  2  1  0
  2  3  2  0
  2  4  1  0
  4  5  2  0
  5  6  1  0
  6  7  2  0
  7  8  1  0
  8  9  1  0
  9 10  2  0
  9 11  1  0
 11 12  1  0
 12 13  1  0
 13 14  2  0
 14 15  1  0
 15 16  1  0
 15 17  2  0
 17 18  1  0
 18 19  1  0
 19 20  1  0
 19 21  1  0
 19 22  1  0
 18 23  2  0
 23 24  1  0
 24 25  1  0
  7 26  1  0
 26 27  2  0
 27  4  1  0
 24 11  2  0
 23 13  1  0
M  END
>  <Binding energies>  (26) 
[-5.33]

>  <Ligand effiencies>  (26) 
[-0.17766666666666667]

>  <Interactions>  (26) 
["V-B:ALA:541:CB:9864, V-B:TYR:539:CD2:9846, H-B:GLU:543:OE2:9882, V-A:PRO:482:CG:4327, V-A:PRO:482:CB:4326, V-B:TYR:539:C:9839, V-A:LEU:475:CD1:4258, V-A:LEU:475:CD2:4259, V-B:GLU:543:CD:9880, H-B:GLU:543:OE1:9881, V-A:ILE:369:CG2:3237, V-B:TYR:539:CE2:9848, V-A:SER:385:C:3405, V-B:ILE:369:CD1:8211, V-B:ARG:545:CZ:9898, H-B:GLY:454:N:9022, H-B:TYR:484:OH:9320, V-B:GLY:454:CA:9021, H-A:ASP:366:OD1:3214, V-A:LEU:475:CG:4257, V-A:ILE:369:CD1:3239, H-A:ASP:366:OD2:3215, V-B:ASP:366:CG:8185, H-B:ALA:541:N:9863, V-A:ILE:369:CB:3236, V-A:ILE:369:CG1:3238"]

$$$$
4bd_Grossjean_2025
     RDKit          3D

 24 26  0  0  0  0  0  0  0  0999 V2000
  130.4580  119.8650   61.0000 C   0  0  0  0  0  0  0  0  0  0  0  0
  130.5960  121.3610   61.2150 C   0  0  0  0  0  0  0  0  0  0  0  0
  131.8490  121.9660   61.2700 C   0  0  0  0  0  0  0  0  0  0  0  0
  131.9620  123.3500   61.4710 C   0  0  0  0  0  0  0  0  0  0  0  0
  133.3620  123.9710   61.5280 C   0  0  0  0  0  0  0  0  0  0  0  0
  133.5470  124.7460   62.5990 F   0  0  0  0  0  0  0  0  0  0  0  0
  134.2820  123.0070   61.5690 F   0  0  0  0  0  0  0  0  0  0  0  0
  133.5640  124.7270   60.4500 F   0  0  0  0  0  0  0  0  0  0  0  0
  130.7510  124.0910   61.6120 C   0  0  0  0  0  0  0  0  0  0  0  0
  130.4750  125.4910   61.8250 C   0  0  0  0  0  0  0  0  0  0  0  0
  131.4660  126.4320   61.9310 N   0  0  0  0  0  0  0  0  0  0  0  0
  129.1070  125.7990   61.9160 C   0  0  0  0  0  0  0  0  0  0  0  0
  128.4780  127.1030   62.1440 C   0  0  0  0  0  0  0  0  0  0  0  0
  129.1200  128.1440   61.9970 O   0  0  0  0  0  0  0  0  0  0  0  0
  127.1710  127.0630   62.5040 N   0  0  0  0  0  0  0  0  0  0  0  0
  126.3010  128.1190   62.8320 C   0  0  0  0  0  0  0  0  0  0  0  0
  125.6940  128.7700   61.7530 C   0  0  0  0  0  0  0  0  0  0  0  0
  124.8080  129.8210   61.9750 C   0  0  0  0  0  0  0  0  0  0  0  0
  124.5210  130.2190   63.2770 C   0  0  0  0  0  0  0  0  0  0  0  0
  125.1080  129.5700   64.3610 C   0  0  0  0  0  0  0  0  0  0  0  0
  125.9950  128.5190   64.1440 C   0  0  0  0  0  0  0  0  0  0  0  0
  128.1150  124.3550   61.7300 S   0  0  0  0  0  0  0  0  0  0  0  0
  129.5320  123.3490   61.5380 C   0  0  0  0  0  0  0  0  0  0  0  0
  129.4300  122.0350   61.3450 N   0  0  0  0  0  0  0  0  0  0  0  0
  1  2  1  0
  2  3  2  0
  3  4  1  0
  4  5  1  0
  5  6  1  0
  5  7  1  0
  5  8  1  0
  4  9  2  0
  9 10  1  0
 10 11  1  0
 10 12  2  0
 12 13  1  0
 13 14  2  0
 13 15  1  0
 15 16  1  0
 16 17  2  0
 17 18  1  0
 18 19  2  0
 19 20  1  0
 20 21  2  0
 12 22  1  0
 22 23  1  0
 23 24  2  0
 24  2  1  0
 23  9  1  0
 21 16  1  0
M  END
>  <Binding energies>  (27) 
[-5.39]

>  <Ligand effiencies>  (27) 
[-0.19962962962962963]

>  <Interactions>  (27) 
["V-B:TYR:539:CD2:9846, H-B:GLU:543:OE2:9882, V-A:LEU:475:CD2:4259, V-B:GLU:543:CD:9880, H-B:GLU:543:OE1:9881, H-A:GLU:543:OE2:4910, V-A:GLU:543:CD:4908, H-A:GLU:543:OE1:4909, V-A:ARG:545:CZ:4926, V-B:ARG:545:CZ:9898, H-A:ASP:366:OD1:3214, V-A:ASP:366:CG:3213, V-A:GLY:454:CA:4049, V-A:ILE:369:CD1:3239, V-A:GLY:453:C:4042, H-A:ASP:366:OD2:3215, V-B:ASP:366:CG:8185, V-A:ASP:366:CB:3212"]

$$$$
4be_Grossjean_2025
     RDKit          3D

 25 27  0  0  0  0  0  0  0  0999 V2000
  124.2460  129.5050   65.9510 C   0  0  0  0  0  0  0  0  0  0  0  0
  124.8440  129.4280   64.5590 C   0  0  0  0  0  0  0  0  0  0  0  0
  124.5350  130.3730   63.5780 C   0  0  0  0  0  0  0  0  0  0  0  0
  125.1210  130.2380   62.3190 C   0  0  0  0  0  0  0  0  0  0  0  0
  125.9920  129.1730   62.0730 C   0  0  0  0  0  0  0  0  0  0  0  0
  126.2630  128.2660   63.1040 C   0  0  0  0  0  0  0  0  0  0  0  0
  127.1420  127.2130   62.7900 N   0  0  0  0  0  0  0  0  0  0  0  0
  128.3950  127.2740   62.2760 C   0  0  0  0  0  0  0  0  0  0  0  0
  128.9740  128.3280   62.0020 O   0  0  0  0  0  0  0  0  0  0  0  0
  129.0400  125.9810   62.0350 C   0  0  0  0  0  0  0  0  0  0  0  0
  128.0610  124.5420   61.7520 S   0  0  0  0  0  0  0  0  0  0  0  0
  129.4880  123.5440   61.6090 C   0  0  0  0  0  0  0  0  0  0  0  0
  129.4000  122.2360   61.3690 N   0  0  0  0  0  0  0  0  0  0  0  0
  130.5740  121.5690   61.2780 C   0  0  0  0  0  0  0  0  0  0  0  0
  130.4520  120.0810   61.0070 C   0  0  0  0  0  0  0  0  0  0  0  0
  131.8200  122.1730   61.4170 C   0  0  0  0  0  0  0  0  0  0  0  0
  131.9200  123.5500   61.6690 C   0  0  0  0  0  0  0  0  0  0  0  0
  133.3140  124.1700   61.8110 C   0  0  0  0  0  0  0  0  0  0  0  0
  133.5060  124.7550   62.9960 F   0  0  0  0  0  0  0  0  0  0  0  0
  134.2440  123.2250   61.6780 F   0  0  0  0  0  0  0  0  0  0  0  0
  133.4930  125.0990   60.8720 F   0  0  0  0  0  0  0  0  0  0  0  0
  130.7000  124.2830   61.7760 C   0  0  0  0  0  0  0  0  0  0  0  0
  130.4100  125.6730   62.0290 C   0  0  0  0  0  0  0  0  0  0  0  0
  131.3900  126.6090   62.2370 N   0  0  0  0  0  0  0  0  0  0  0  0
  125.6890  128.3890   64.3360 N   0  0  0  0  0  0  0  0  0  0  0  0
  1  2  1  0
  2  3  2  0
  3  4  1  0
  4  5  2  0
  5  6  1  0
  6  7  1  0
  7  8  1  0
  8  9  2  0
  8 10  1  0
 10 11  1  0
 11 12  1  0
 12 13  2  0
 13 14  1  0
 14 15  1  0
 14 16  2  0
 16 17  1  0
 17 18  1  0
 18 19  1  0
 18 20  1  0
 18 21  1  0
 17 22  2  0
 22 23  1  0
 23 24  1  0
  6 25  2  0
 25  2  1  0
 23 10  2  0
 22 12  1  0
M  END
>  <Binding energies>  (28) 
[-5.61]

>  <Ligand effiencies>  (28) 
[-0.20035714285714287]

>  <Interactions>  (28) 
["V-B:TYR:539:CD2:9846, H-B:GLU:543:OE2:9882, V-A:LEU:475:CD2:4259, V-B:GLU:543:CD:9880, H-B:GLU:543:OE1:9881, H-A:GLU:543:OE2:4910, V-A:GLU:543:CD:4908, H-A:GLU:543:OE1:4909, V-A:ARG:545:CZ:4926, V-B:ARG:545:CZ:9898, H-B:ARG:545:NE:9896, V-B:GLY:454:CA:9021, V-B:ARG:545:CD:9895, V-B:ARG:545:CG:9894, H-A:ASP:366:OD1:3214, V-A:ASP:366:CG:3213, V-A:GLY:454:CA:4049, V-A:ILE:369:CD1:3239, V-A:GLY:453:CA:4044, V-A:GLY:453:C:4042, H-A:ASP:366:OD2:3215, V-B:TYR:484:CZ:9319, H-B:ARG:545:NH2:9900, V-A:ASP:366:CB:3212"]

$$$$
4bg_Grossjean_2025
     RDKit          3D

 25 27  0  0  0  0  0  0  0  0999 V2000
  130.1200  120.0010   61.5780 C   0  0  0  0  0  0  0  0  0  0  0  0
  130.3270  121.5030   61.6450 C   0  0  0  0  0  0  0  0  0  0  0  0
  131.6060  122.0510   61.6800 C   0  0  0  0  0  0  0  0  0  0  0  0
  131.7830  123.4420   61.7490 C   0  0  0  0  0  0  0  0  0  0  0  0
  133.2100  123.9980   61.7860 C   0  0  0  0  0  0  0  0  0  0  0  0
  133.4490  124.7490   62.8630 F   0  0  0  0  0  0  0  0  0  0  0  0
  134.0850  122.9930   61.7970 F   0  0  0  0  0  0  0  0  0  0  0  0
  133.4260  124.7590   60.7130 F   0  0  0  0  0  0  0  0  0  0  0  0
  130.6060  124.2480   61.7780 C   0  0  0  0  0  0  0  0  0  0  0  0
  130.3930  125.6720   61.8520 C   0  0  0  0  0  0  0  0  0  0  0  0
  131.4240  126.5750   61.9240 N   0  0  0  0  0  0  0  0  0  0  0  0
  129.0420  126.0510   61.8330 C   0  0  0  0  0  0  0  0  0  0  0  0
  128.4690  127.3940   61.9230 C   0  0  0  0  0  0  0  0  0  0  0  0
  129.0810  128.3820   61.5150 O   0  0  0  0  0  0  0  0  0  0  0  0
  127.2250  127.4720   62.4380 N   0  0  0  0  0  0  0  0  0  0  0  0
  126.4640  128.7060   62.6360 C   0  0  0  0  0  0  0  0  0  0  0  0
  125.9060  128.8580   64.0450 C   0  0  0  0  0  0  0  0  0  0  0  0
  126.6910  128.5210   65.1520 C   0  0  0  0  0  0  0  0  0  0  0  0
  126.1920  128.6980   66.4390 C   0  0  0  0  0  0  0  0  0  0  0  0
  124.9150  129.2250   66.6180 C   0  0  0  0  0  0  0  0  0  0  0  0
  124.1330  129.5790   65.5210 C   0  0  0  0  0  0  0  0  0  0  0  0
  124.6310  129.4010   64.2330 C   0  0  0  0  0  0  0  0  0  0  0  0
  127.9830  124.6450   61.7630 S   0  0  0  0  0  0  0  0  0  0  0  0
  129.3530  123.5610   61.7290 C   0  0  0  0  0  0  0  0  0  0  0  0
  129.1920  122.2390   61.6670 N   0  0  0  0  0  0  0  0  0  0  0  0
  1  2  1  0
  2  3  2  0
  3  4  1  0
  4  5  1  0
  5  6  1  0
  5  7  1  0
  5  8  1  0
  4  9  2  0
  9 10  1  0
 10 11  1  0
 10 12  2  0
 12 13  1  0
 13 14  2  0
 13 15  1  0
 15 16  1  0
 16 17  1  0
 17 18  2  0
 18 19  1  0
 19 20  2  0
 20 21  1  0
 21 22  2  0
 12 23  1  0
 23 24  1  0
 24 25  2  0
 25  2  1  0
 24  9  1  0
 22 17  1  0
M  END
>  <Binding energies>  (29) 
[-5.89]

>  <Ligand effiencies>  (29) 
[-0.21035714285714285]

>  <Interactions>  (29) 
["V-B:ALA:541:CB:9864, H-B:GLU:543:OE2:9882, V-A:LEU:475:CD1:4258, V-A:LEU:475:CD2:4259, V-B:GLU:543:CD:9880, H-B:GLU:543:OE1:9881, H-A:GLU:543:OE2:4910, V-A:GLU:543:CD:4908, H-A:GLU:543:OE1:4909, V-A:ARG:545:CZ:4926, V-B:ARG:545:CZ:9898, V-B:GLY:453:C:9014, V-B:GLY:454:CA:9021, V-B:GLY:453:CA:9016, V-B:ARG:545:CD:9895, V-B:HIS:456:CE1:9042, V-B:ARG:545:CG:9894, H-A:ASP:366:OD1:3214, V-A:ASP:366:CG:3213, V-A:GLY:454:CA:4049, V-A:ILE:369:CD1:3239, V-A:GLY:453:C:4042, V-B:TYR:484:CE1:9317, H-A:ASP:366:OD2:3215, V-B:TYR:484:CZ:9319"]

$$$$
4ca_Grossjean_2025
     RDKit          3D

 34 37  0  0  0  0  0  0  0  0999 V2000
  131.9620  118.0540   58.8080 C   0  0  0  0  0  0  0  0  0  0  0  0
  131.3330  118.2600   60.1890 C   0  0  0  0  0  0  0  0  0  0  0  0
  130.9270  119.6160   60.3260 O   0  0  0  0  0  0  0  0  0  0  0  0
  130.1190  120.0070   61.3460 C   0  0  0  0  0  0  0  0  0  0  0  0
  129.6350  119.2220   62.1680 O   0  0  0  0  0  0  0  0  0  0  0  0
  129.8780  121.4880   61.3760 C   0  0  0  0  0  0  0  0  0  0  0  0
  128.5740  121.9650   61.5670 C   0  0  0  0  0  0  0  0  0  0  0  0
  128.3190  123.3330   61.6040 C   0  0  0  0  0  0  0  0  0  0  0  0
  129.3570  124.2500   61.4430 C   0  0  0  0  0  0  0  0  0  0  0  0
  128.9880  125.6080   61.5070 N   0  0  0  0  0  0  0  0  0  0  0  0
  129.7390  126.7250   61.3440 C   0  0  0  0  0  0  0  0  0  0  0  0
  130.9340  126.7170   61.0490 O   0  0  0  0  0  0  0  0  0  0  0  0
  129.0250  127.9910   61.5260 C   0  0  0  0  0  0  0  0  0  0  0  0
  129.4710  129.4050   60.5730 S   0  0  0  0  0  0  0  0  0  0  0  0
  128.2090  130.3590   61.3160 C   0  0  0  0  0  0  0  0  0  0  0  0
  128.0140  131.6320   60.9810 N   0  0  0  0  0  0  0  0  0  0  0  0
  127.0010  132.2900   61.6010 C   0  0  0  0  0  0  0  0  0  0  0  0
  126.8000  133.7210   61.1940 C   0  0  0  0  0  0  0  0  0  0  0  0
  127.8180  134.6700   61.3790 C   0  0  0  0  0  0  0  0  0  0  0  0
  127.6360  136.0000   61.0100 C   0  0  0  0  0  0  0  0  0  0  0  0
  126.4280  136.4020   60.4490 C   0  0  0  0  0  0  0  0  0  0  0  0
  125.4020  135.4830   60.2570 C   0  0  0  0  0  0  0  0  0  0  0  0
  125.5880  134.1540   60.6280 C   0  0  0  0  0  0  0  0  0  0  0  0
  126.2020  131.6720   62.5690 C   0  0  0  0  0  0  0  0  0  0  0  0
  126.4030  130.3310   62.9330 C   0  0  0  0  0  0  0  0  0  0  0  0
  125.4890  129.7160   63.9990 C   0  0  0  0  0  0  0  0  0  0  0  0
  126.1420  129.3690   65.1100 F   0  0  0  0  0  0  0  0  0  0  0  0
  124.5480  130.5930   64.3480 F   0  0  0  0  0  0  0  0  0  0  0  0
  124.9100  128.6160   63.5180 F   0  0  0  0  0  0  0  0  0  0  0  0
  127.4520  129.6270   62.2760 C   0  0  0  0  0  0  0  0  0  0  0  0
  127.9400  128.2730   62.3740 C   0  0  0  0  0  0  0  0  0  0  0  0
  127.3910  127.3470   63.2240 N   0  0  0  0  0  0  0  0  0  0  0  0
  130.6660  123.7830   61.2570 C   0  0  0  0  0  0  0  0  0  0  0  0
  130.9200  122.4140   61.2230 C   0  0  0  0  0  0  0  0  0  0  0  0
  1  2  1  0
  2  3  1  0
  3  4  1  0
  4  5  2  0
  4  6  1  0
  6  7  2  0
  7  8  1  0
  8  9  2  0
  9 10  1  0
 10 11  1  0
 11 12  2  0
 11 13  1  0
 13 14  1  0
 14 15  1  0
 15 16  2  0
 16 17  1  0
 17 18  1  0
 18 19  2  0
 19 20  1  0
 20 21  2  0
 21 22  1  0
 22 23  2  0
 17 24  2  0
 24 25  1  0
 25 26  1  0
 26 27  1  0
 26 28  1  0
 26 29  1  0
 25 30  2  0
 30 31  1  0
 31 32  1  0
  9 33  1  0
 33 34  2  0
 34  6  1  0
 31 13  2  0
 30 15  1  0
 23 18  1  0
M  END
>  <Binding energies>  (30) 
[-7.01]

>  <Ligand effiencies>  (30) 
[-0.18945945945945947]

>  <Interactions>  (30) 
["V-B:ALA:541:CB:9864, V-B:TYR:539:CD2:9846, H-B:GLU:543:OE2:9882, V-A:LEU:475:CD2:4259, V-B:GLU:543:CD:9880, V-A:SER:385:CB:3409, H-B:GLU:543:OE1:9881, V-B:PRO:540:C:9853, V-B:PRO:540:CA:9855, V-A:TYR:539:CE1:4875, V-A:ALA:541:CB:4892, V-A:TYR:539:CD1:4873, V-B:ARG:545:CZ:9898, V-B:LEU:475:CD2:9231, V-A:ALA:541:CA:4890, V-B:GLY:453:C:9014, V-B:GLY:454:CA:9021, V-A:TYR:539:C:4867, V-B:TYR:484:CZ:9319, V-B:PRO:482:CG:9299, V-B:PRO:482:CB:9298, H-A:ARG:545:NH2:4928, V-B:TYR:539:CB:9843, V-B:TYR:539:CG:9844, V-A:LEU:373:CD1:3280"]

$$$$
4cb_Grossjean_2025
     RDKit          3D

 33 36  0  0  0  0  0  0  0  0999 V2000
  125.5470  135.4710   60.2720 C   0  0  0  0  0  0  0  0  0  0  0  0
  125.9840  134.2020   60.7370 O   0  0  0  0  0  0  0  0  0  0  0  0
  127.1950  134.0550   61.3330 C   0  0  0  0  0  0  0  0  0  0  0  0
  127.8820  135.0040   61.7220 O   0  0  0  0  0  0  0  0  0  0  0  0
  127.6170  132.6200   61.4750 C   0  0  0  0  0  0  0  0  0  0  0  0
  127.5060  131.7620   60.3730 C   0  0  0  0  0  0  0  0  0  0  0  0
  127.8960  130.4300   60.4700 C   0  0  0  0  0  0  0  0  0  0  0  0
  128.3980  129.9260   61.6710 C   0  0  0  0  0  0  0  0  0  0  0  0
  128.7750  128.5690   61.6530 N   0  0  0  0  0  0  0  0  0  0  0  0
  128.0340  127.4540   61.8660 C   0  0  0  0  0  0  0  0  0  0  0  0
  126.8210  127.4600   62.0770 O   0  0  0  0  0  0  0  0  0  0  0  0
  128.7750  126.1910   61.8110 C   0  0  0  0  0  0  0  0  0  0  0  0
  127.9450  124.6940   61.3940 S   0  0  0  0  0  0  0  0  0  0  0  0
  129.4330  123.7840   61.5030 C   0  0  0  0  0  0  0  0  0  0  0  0
  129.4660  122.4740   61.2740 N   0  0  0  0  0  0  0  0  0  0  0  0
  130.6710  121.8540   61.3720 C   0  0  0  0  0  0  0  0  0  0  0  0
  130.6760  120.3780   61.1030 C   0  0  0  0  0  0  0  0  0  0  0  0
  131.6310  119.8080   60.2450 C   0  0  0  0  0  0  0  0  0  0  0  0
  131.6390  118.4400   59.9870 C   0  0  0  0  0  0  0  0  0  0  0  0
  130.6900  117.6190   60.5860 C   0  0  0  0  0  0  0  0  0  0  0  0
  129.7310  118.1570   61.4380 C   0  0  0  0  0  0  0  0  0  0  0  0
  129.7250  119.5260   61.6910 C   0  0  0  0  0  0  0  0  0  0  0  0
  131.8330  122.5510   61.7220 C   0  0  0  0  0  0  0  0  0  0  0  0
  131.8090  123.9320   61.9690 C   0  0  0  0  0  0  0  0  0  0  0  0
  133.1200  124.6340   62.3460 C   0  0  0  0  0  0  0  0  0  0  0  0
  133.2660  125.8210   61.7540 F   0  0  0  0  0  0  0  0  0  0  0  0
  133.1580  124.8380   63.6630 F   0  0  0  0  0  0  0  0  0  0  0  0
  134.1560  123.8780   61.9870 F   0  0  0  0  0  0  0  0  0  0  0  0
  130.5530  124.5940   61.8530 C   0  0  0  0  0  0  0  0  0  0  0  0
  130.1470  125.9690   62.0170 C   0  0  0  0  0  0  0  0  0  0  0  0
  131.0280  126.9670   62.3480 N   0  0  0  0  0  0  0  0  0  0  0  0
  128.5150  130.7780   62.7780 C   0  0  0  0  0  0  0  0  0  0  0  0
  128.1260  132.1110   62.6790 C   0  0  0  0  0  0  0  0  0  0  0  0
  1  2  1  0
  2  3  1  0
  3  4  2  0
  3  5  1  0
  5  6  2  0
  6  7  1  0
  7  8  2  0
  8  9  1  0
  9 10  1  0
 10 11  2  0
 10 12  1  0
 12 13  1  0
 13 14  1  0
 14 15  2  0
 15 16  1  0
 16 17  1  0
 17 18  2  0
 18 19  1  0
 19 20  2  0
 20 21  1  0
 21 22  2  0
 16 23  2  0
 23 24  1  0
 24 25  1  0
 25 26  1  0
 25 27  1  0
 25 28  1  0
 24 29  2  0
 29 30  1  0
 30 31  1  0
  8 32  1  0
 32 33  2  0
 33  5  1  0
 30 12  2  0
 29 14  1  0
 22 17  1  0
M  END
>  <Binding energies>  (31) 
[-6.71]

>  <Ligand effiencies>  (31) 
[-0.18638888888888888]

>  <Interactions>  (31) 
["V-B:ALA:541:CB:9864, V-B:TYR:539:CD2:9846, V-A:TYR:484:CZ:4347, V-A:PRO:482:CG:4327, V-A:PRO:482:CB:4326, V-A:LEU:475:CD1:4258, V-A:LEU:475:CD2:4259, V-B:GLU:543:CD:9880, V-A:SER:385:CB:3409, V-B:TYR:539:CE2:9848, H-A:GLU:543:OE2:4910, V-A:GLU:543:CD:4908, H-A:GLU:543:OE1:4909, V-A:ARG:545:CZ:4926, V-A:TYR:539:CE1:4875, V-A:ALA:541:CB:4892, V-A:TYR:539:CD1:4873, V-A:GLU:543:CG:4907, V-B:LEU:475:CD2:9231, H-A:ALA:541:N:4891, H-A:ASP:366:OD1:3214, V-A:ASP:366:CG:3213, V-A:LEU:475:CG:4257, V-A:GLY:454:CA:4049, V-A:ILE:369:CD1:3239, V-A:GLY:453:CA:4044, V-A:GLY:453:C:4042, H-B:ARG:545:NH2:9900"]

$$$$
4cc_Grossjean_2025
     RDKit          3D

 31 34  0  0  0  0  0  0  0  0999 V2000
  123.8570  132.5380   62.2980 C   0  0  0  0  0  0  0  0  0  0  0  0
  123.5120  131.2840   62.8770 O   0  0  0  0  0  0  0  0  0  0  0  0
  124.4330  130.2550   62.8570 C   0  0  0  0  0  0  0  0  0  0  0  0
  124.7690  129.7460   61.6030 C   0  0  0  0  0  0  0  0  0  0  0  0
  125.6900  128.7090   61.4810 C   0  0  0  0  0  0  0  0  0  0  0  0
  126.2810  128.1580   62.6200 C   0  0  0  0  0  0  0  0  0  0  0  0
  127.2110  127.1250   62.3980 N   0  0  0  0  0  0  0  0  0  0  0  0
  128.5120  127.2070   62.0290 C   0  0  0  0  0  0  0  0  0  0  0  0
  129.1140  128.2690   61.8610 O   0  0  0  0  0  0  0  0  0  0  0  0
  129.1940  125.9240   61.8340 C   0  0  0  0  0  0  0  0  0  0  0  0
  128.2590  124.4450   61.6250 S   0  0  0  0  0  0  0  0  0  0  0  0
  129.7170  123.4940   61.4620 C   0  0  0  0  0  0  0  0  0  0  0  0
  129.6690  122.1790   61.2640 N   0  0  0  0  0  0  0  0  0  0  0  0
  130.8540  121.5260   61.1400 C   0  0  0  0  0  0  0  0  0  0  0  0
  130.7700  120.0440   60.9200 C   0  0  0  0  0  0  0  0  0  0  0  0
  129.7960  119.2750   61.5790 C   0  0  0  0  0  0  0  0  0  0  0  0
  129.7130  117.8980   61.3810 C   0  0  0  0  0  0  0  0  0  0  0  0
  130.6060  117.2700   60.5200 C   0  0  0  0  0  0  0  0  0  0  0  0
  131.5820  118.0070   59.8580 C   0  0  0  0  0  0  0  0  0  0  0  0
  131.6630  119.3830   60.0590 C   0  0  0  0  0  0  0  0  0  0  0  0
  132.0790  122.1940   61.2320 C   0  0  0  0  0  0  0  0  0  0  0  0
  132.1400  123.5810   61.4420 C   0  0  0  0  0  0  0  0  0  0  0  0
  133.5170  124.2500   61.5270 C   0  0  0  0  0  0  0  0  0  0  0  0
  134.5210  123.3740   61.6120 F   0  0  0  0  0  0  0  0  0  0  0  0
  133.7260  124.9910   60.4390 F   0  0  0  0  0  0  0  0  0  0  0  0
  133.5750  125.0290   62.6070 F   0  0  0  0  0  0  0  0  0  0  0  0
  130.9040  124.2770   61.5650 C   0  0  0  0  0  0  0  0  0  0  0  0
  130.5730  125.6640   61.7820 C   0  0  0  0  0  0  0  0  0  0  0  0
  131.5270  126.6410   61.9210 N   0  0  0  0  0  0  0  0  0  0  0  0
  125.9570  128.6720   63.8840 C   0  0  0  0  0  0  0  0  0  0  0  0
  125.0370  129.7100   64.0000 C   0  0  0  0  0  0  0  0  0  0  0  0
  1  2  1  0
  2  3  1  0
  3  4  2  0
  4  5  1  0
  5  6  2  0
  6  7  1  0
  7  8  1  0
  8  9  2  0
  8 10  1  0
 10 11  1  0
 11 12  1  0
 12 13  2  0
 13 14  1  0
 14 15  1  0
 15 16  2  0
 16 17  1  0
 17 18  2  0
 18 19  1  0
 19 20  2  0
 14 21  2  0
 21 22  1  0
 22 23  1  0
 23 24  1  0
 23 25  1  0
 23 26  1  0
 22 27  2  0
 27 28  1  0
 28 29  1  0
  6 30  1  0
 30 31  2  0
 31  3  1  0
 28 10  2  0
 27 12  1  0
 20 15  1  0
M  END
>  <Binding energies>  (32) 
[-7.22]

>  <Ligand effiencies>  (32) 
[-0.21235294117647058]

>  <Interactions>  (32) 
["V-B:ALA:541:CB:9864, V-B:TYR:539:CD2:9846, H-B:GLU:543:OE2:9882, V-A:PRO:482:CG:4327, V-A:PRO:482:CB:4326, V-A:LEU:475:CD1:4258, V-A:LEU:475:CD2:4259, V-B:GLU:543:CD:9880, V-A:SER:385:CB:3409, H-B:GLU:543:OE1:9881, V-B:TYR:539:CE2:9848, H-A:GLU:543:OE2:4910, V-A:GLU:543:CD:4908, H-A:GLU:543:OE1:4909, V-A:ARG:545:CZ:4926, V-B:ILE:369:CD1:8211, V-B:ARG:545:CZ:9898, V-B:LEU:475:CD2:9231, H-B:GLY:454:N:9022, V-B:GLY:454:CA:9021, H-A:ASP:366:OD1:3214, V-A:ASP:366:CG:3213, V-A:LEU:475:CG:4257, V-A:GLY:454:CA:4049, V-A:ILE:369:CD1:3239, V-A:GLY:453:CA:4044, V-A:GLY:453:C:4042, H-A:ASP:366:OD2:3215, V-B:ASP:366:CG:8185, V-A:ASP:366:CB:3212, V-A:ASP:366:CA:3210, V-B:TYR:539:CB:9843"]

$$$$
4ce_Grossjean_2025
     RDKit          3D

 30 33  0  0  0  0  0  0  0  0999 V2000
  124.3250  129.4380   65.9480 C   0  0  0  0  0  0  0  0  0  0  0  0
  124.9310  129.3670   64.5590 C   0  0  0  0  0  0  0  0  0  0  0  0
  124.6410  130.3270   63.5860 C   0  0  0  0  0  0  0  0  0  0  0  0
  125.2410  130.2030   62.3320 C   0  0  0  0  0  0  0  0  0  0  0  0
  126.1070  129.1370   62.0840 C   0  0  0  0  0  0  0  0  0  0  0  0
  126.3500  128.2080   63.1030 C   0  0  0  0  0  0  0  0  0  0  0  0
  127.2500  127.1700   62.8000 N   0  0  0  0  0  0  0  0  0  0  0  0
  128.4690  127.2490   62.2090 C   0  0  0  0  0  0  0  0  0  0  0  0
  128.9890  128.3070   61.8510 O   0  0  0  0  0  0  0  0  0  0  0  0
  129.1580  125.9710   62.0140 C   0  0  0  0  0  0  0  0  0  0  0  0
  128.2310  124.4860   61.8130 S   0  0  0  0  0  0  0  0  0  0  0  0
  129.6910  123.5490   61.6110 C   0  0  0  0  0  0  0  0  0  0  0  0
  129.6500  122.2360   61.3990 N   0  0  0  0  0  0  0  0  0  0  0  0
  130.8370  121.5950   61.2380 C   0  0  0  0  0  0  0  0  0  0  0  0
  130.7550  120.1170   60.9960 C   0  0  0  0  0  0  0  0  0  0  0  0
  129.7470  119.3470   61.5990 C   0  0  0  0  0  0  0  0  0  0  0  0
  129.6690  117.9730   61.3840 C   0  0  0  0  0  0  0  0  0  0  0  0
  130.5990  117.3490   60.5600 C   0  0  0  0  0  0  0  0  0  0  0  0
  131.6080  118.0880   59.9520 C   0  0  0  0  0  0  0  0  0  0  0  0
  131.6850  119.4620   60.1710 C   0  0  0  0  0  0  0  0  0  0  0  0
  132.0590  122.2710   61.3110 C   0  0  0  0  0  0  0  0  0  0  0  0
  132.1140  123.6560   61.5400 C   0  0  0  0  0  0  0  0  0  0  0  0
  133.4870  124.3340   61.6060 C   0  0  0  0  0  0  0  0  0  0  0  0
  134.4980  123.4650   61.6700 F   0  0  0  0  0  0  0  0  0  0  0  0
  133.6730  125.0840   60.5190 F   0  0  0  0  0  0  0  0  0  0  0  0
  133.5560  125.1060   62.6900 F   0  0  0  0  0  0  0  0  0  0  0  0
  130.8750  124.3410   61.6940 C   0  0  0  0  0  0  0  0  0  0  0  0
  130.5380  125.7240   61.9270 C   0  0  0  0  0  0  0  0  0  0  0  0
  131.4850  126.7070   62.0510 N   0  0  0  0  0  0  0  0  0  0  0  0
  125.7710  128.3240   64.3330 N   0  0  0  0  0  0  0  0  0  0  0  0
  1  2  1  0
  2  3  2  0
  3  4  1  0
  4  5  2  0
  5  6  1  0
  6  7  1  0
  7  8  1  0
  8  9  2  0
  8 10  1  0
 10 11  1  0
 11 12  1  0
 12 13  2  0
 13 14  1  0
 14 15  1  0
 15 16  2  0
 16 17  1  0
 17 18  2  0
 18 19  1  0
 19 20  2  0
 14 21  2  0
 21 22  1  0
 22 23  1  0
 23 24  1  0
 23 25  1  0
 23 26  1  0
 22 27  2  0
 27 28  1  0
 28 29  1  0
  6 30  2  0
 30  2  1  0
 28 10  2  0
 27 12  1  0
 20 15  1  0
M  END
>  <Binding energies>  (33) 
[-7.45]

>  <Ligand effiencies>  (33) 
[-0.22575757575757577]

>  <Interactions>  (33) 
["V-B:ALA:541:CB:9864, V-B:TYR:539:CD2:9846, H-B:GLU:543:OE2:9882, V-A:PRO:482:CG:4327, V-A:PRO:482:CB:4326, V-A:LEU:475:CD1:4258, V-A:LEU:475:CD2:4259, V-B:GLU:543:CD:9880, V-A:SER:385:CB:3409, H-B:GLU:543:OE1:9881, V-B:TYR:539:CE2:9848, H-A:GLU:543:OE2:4910, V-A:GLU:543:CD:4908, H-A:GLU:543:OE1:4909, V-A:ARG:545:CZ:4926, V-B:ARG:545:CZ:9898, H-B:ARG:545:NE:9896, V-B:ARG:545:CD:9895, V-B:ARG:545:CG:9894, H-A:ASP:366:OD1:3214, V-A:ASP:366:CG:3213, V-A:LEU:475:CG:4257, V-A:GLY:454:CA:4049, V-A:ILE:369:CD1:3239, V-A:GLY:453:CA:4044, V-A:GLY:453:C:4042, H-A:ASP:366:OD2:3215, V-B:TYR:484:CZ:9319, H-B:ARG:545:NH2:9900, V-A:ASP:366:CB:3212, V-A:ASP:366:CA:3210"]

$$$$
4cf_Grossjean_2025
     RDKit          3D

 29 32  0  0  0  0  0  0  0  0999 V2000
  127.4100  127.3620   63.1600 N   0  0  0  0  0  0  0  0  0  0  0  0
  127.9010  128.2860   62.2730 C   0  0  0  0  0  0  0  0  0  0  0  0
  128.9370  128.0080   61.3670 C   0  0  0  0  0  0  0  0  0  0  0  0
  129.6990  126.7670   61.2030 C   0  0  0  0  0  0  0  0  0  0  0  0
  129.1460  125.7380   60.8130 O   0  0  0  0  0  0  0  0  0  0  0  0
  131.0190  126.8530   61.4970 N   0  0  0  0  0  0  0  0  0  0  0  0
  132.0080  125.8510   61.4940 C   0  0  0  0  0  0  0  0  0  0  0  0
  132.4680  125.1610   60.3550 C   0  0  0  0  0  0  0  0  0  0  0  0
  133.4460  124.1750   60.4940 C   0  0  0  0  0  0  0  0  0  0  0  0
  133.9410  123.8990   61.7690 C   0  0  0  0  0  0  0  0  0  0  0  0
  133.5100  124.5430   62.8830 N   0  0  0  0  0  0  0  0  0  0  0  0
  132.5570  125.4990   62.7320 C   0  0  0  0  0  0  0  0  0  0  0  0
  129.3110  129.4170   60.3770 S   0  0  0  0  0  0  0  0  0  0  0  0
  128.0870  130.3670   61.1860 C   0  0  0  0  0  0  0  0  0  0  0  0
  127.8670  131.6390   60.8620 N   0  0  0  0  0  0  0  0  0  0  0  0
  126.9050  132.3000   61.5580 C   0  0  0  0  0  0  0  0  0  0  0  0
  126.6850  133.7350   61.1760 C   0  0  0  0  0  0  0  0  0  0  0  0
  125.4690  134.1480   60.6100 C   0  0  0  0  0  0  0  0  0  0  0  0
  125.2560  135.4770   60.2530 C   0  0  0  0  0  0  0  0  0  0  0  0
  126.2610  136.4150   60.4610 C   0  0  0  0  0  0  0  0  0  0  0  0
  127.4750  136.0350   61.0230 C   0  0  0  0  0  0  0  0  0  0  0  0
  127.6830  134.7050   61.3780 C   0  0  0  0  0  0  0  0  0  0  0  0
  126.1550  131.6750   62.5580 C   0  0  0  0  0  0  0  0  0  0  0  0
  126.3760  130.3330   62.9050 C   0  0  0  0  0  0  0  0  0  0  0  0
  125.5200  129.7110   64.0140 C   0  0  0  0  0  0  0  0  0  0  0  0
  126.2140  129.4350   65.1200 F   0  0  0  0  0  0  0  0  0  0  0  0
  124.5440  130.5520   64.3560 F   0  0  0  0  0  0  0  0  0  0  0  0
  124.9850  128.5670   63.5850 F   0  0  0  0  0  0  0  0  0  0  0  0
  127.3940  129.6340   62.1940 C   0  0  0  0  0  0  0  0  0  0  0  0
  1  2  1  0
  2  3  2  0
  3  4  1  0
  4  5  2  0
  4  6  1  0
  6  7  1  0
  7  8  2  0
  8  9  1  0
  9 10  2  0
 10 11  1  0
 11 12  2  0
  3 13  1  0
 13 14  1  0
 14 15  2  0
 15 16  1  0
 16 17  1  0
 17 18  2  0
 18 19  1  0
 19 20  2  0
 20 21  1  0
 21 22  2  0
 16 23  2  0
 23 24  1  0
 24 25  1  0
 25 26  1  0
 25 27  1  0
 25 28  1  0
 24 29  2  0
 29  2  1  0
 12  7  1  0
 29 14  1  0
 22 17  1  0
M  END
>  <Binding energies>  (34) 
[-7.36]

>  <Ligand effiencies>  (34) 
[-0.23]

>  <Interactions>  (34) 
["H-B:GLU:543:OE2:9882, V-B:GLU:543:CD:9880, H-B:GLU:543:OE1:9881, H-A:GLU:543:OE2:4910, V-A:GLU:543:CD:4908, H-A:GLU:543:OE1:4909, V-A:ARG:545:CZ:4926, H-A:TYR:484:OH:4348, V-A:TYR:539:CE1:4875, V-A:ALA:541:CB:4892, V-A:TYR:539:CD1:4873, V-B:ARG:545:CZ:9898, V-B:LEU:475:CD2:9231, V-B:GLY:453:C:9014, V-B:GLY:454:CA:9021, H-A:ASP:366:OD1:3214, V-A:ASP:366:CG:3213, V-A:GLY:454:CA:4049, V-A:ILE:369:CD1:3239, V-A:GLY:453:C:4042, V-B:TYR:484:CZ:9319, V-B:PRO:482:CG:9299, V-B:PRO:482:CB:9298, H-A:GLY:454:N:4050, H-A:ARG:545:NH2:4928"]

$$$$
4ci_Grossjean_2025
     RDKit          3D

 28 31  0  0  0  0  0  0  0  0999 V2000
  130.2010  127.0940   62.2910 N   0  0  0  0  0  0  0  0  0  0  0  0
  129.4200  126.0120   61.9770 C   0  0  0  0  0  0  0  0  0  0  0  0
  128.0310  126.0940   61.7900 C   0  0  0  0  0  0  0  0  0  0  0  0
  127.1670  127.2750   61.8710 C   0  0  0  0  0  0  0  0  0  0  0  0
  126.8800  127.9150   60.8570 O   0  0  0  0  0  0  0  0  0  0  0  0
  126.7350  127.5980   63.1160 N   0  0  0  0  0  0  0  0  0  0  0  0
  125.9160  128.6600   63.4780 C   0  0  0  0  0  0  0  0  0  0  0  0
  125.7490  129.7980   62.6900 C   0  0  0  0  0  0  0  0  0  0  0  0
  124.8760  130.5960   63.3920 C   0  0  0  0  0  0  0  0  0  0  0  0
  124.5340  129.9700   64.5440 O   0  0  0  0  0  0  0  0  0  0  0  0
  125.2010  128.7450   64.5870 N   0  0  0  0  0  0  0  0  0  0  0  0
  127.3480  124.5200   61.3880 S   0  0  0  0  0  0  0  0  0  0  0  0
  128.9210  123.7630   61.4820 C   0  0  0  0  0  0  0  0  0  0  0  0
  129.0810  122.4610   61.2590 N   0  0  0  0  0  0  0  0  0  0  0  0
  130.3420  121.9640   61.3510 C   0  0  0  0  0  0  0  0  0  0  0  0
  130.4890  120.4900   61.0990 C   0  0  0  0  0  0  0  0  0  0  0  0
  129.6140  119.5670   61.6940 C   0  0  0  0  0  0  0  0  0  0  0  0
  129.7450  118.2000   61.4630 C   0  0  0  0  0  0  0  0  0  0  0  0
  130.7590  117.7350   60.6320 C   0  0  0  0  0  0  0  0  0  0  0  0
  131.6420  118.6260   60.0340 C   0  0  0  0  0  0  0  0  0  0  0  0
  131.5080  119.9920   60.2680 C   0  0  0  0  0  0  0  0  0  0  0  0
  131.4320  122.7740   61.6830 C   0  0  0  0  0  0  0  0  0  0  0  0
  131.2750  124.1500   61.9200 C   0  0  0  0  0  0  0  0  0  0  0  0
  132.5140  124.9780   62.2800 C   0  0  0  0  0  0  0  0  0  0  0  0
  132.4150  125.5820   63.4650 F   0  0  0  0  0  0  0  0  0  0  0  0
  133.5860  124.1870   62.3230 F   0  0  0  0  0  0  0  0  0  0  0  0
  132.7040  125.9270   61.3620 F   0  0  0  0  0  0  0  0  0  0  0  0
  129.9590  124.6830   61.8140 C   0  0  0  0  0  0  0  0  0  0  0  0
  1  2  1  0
  2  3  2  0
  3  4  1  0
  4  5  2  0
  4  6  1  0
  6  7  1  0
  7  8  1  0
  8  9  2  0
  9 10  1  0
 10 11  1  0
  3 12  1  0
 12 13  1  0
 13 14  2  0
 14 15  1  0
 15 16  1  0
 16 17  2  0
 17 18  1  0
 18 19  2  0
 19 20  1  0
 20 21  2  0
 15 22  2  0
 22 23  1  0
 23 24  1  0
 24 25  1  0
 24 26  1  0
 24 27  1  0
 23 28  2  0
 28  2  1  0
 11  7  2  0
 28 13  1  0
 21 16  1  0
M  END
>  <Binding energies>  (35) 
[-7.38]

>  <Ligand effiencies>  (35) 
[-0.23806451612903226]

>  <Interactions>  (35) 
["V-B:ALA:541:CB:9864, V-B:TYR:539:CD2:9846, H-B:GLU:543:OE2:9882, V-A:PRO:482:CG:4327, V-A:PRO:482:CB:4326, V-A:LEU:475:CD1:4258, V-A:LEU:475:CD2:4259, V-B:GLU:543:CD:9880, V-A:SER:385:CB:3409, H-B:GLU:543:OE1:9881, V-B:TYR:539:CE2:9848, H-A:GLU:543:OE2:4910, V-A:GLU:543:CD:4908, H-A:GLU:543:OE1:4909, V-A:ARG:545:CZ:4926, V-B:ARG:545:CZ:9898, H-B:GLY:454:N:9022, H-B:ARG:545:NE:9896, H-B:TYR:484:OH:9320, V-A:ASP:366:CG:3213, V-A:LEU:475:CG:4257, V-A:GLY:454:CA:4049, H-B:ARG:545:NH2:9900"]

$$$$
8a_Ghoteimi_2023
     RDKit          3D

 40 44  0  0  0  0  0  0  0  0999 V2000
  130.0700  117.8400   60.9810 C   0  0  0  0  0  0  0  0  0  0  0  0
  131.4680  117.9530   60.3680 C   0  0  0  0  0  0  0  0  0  0  0  0
  131.5750  119.1780   59.6540 O   0  0  0  0  0  0  0  0  0  0  0  0
  132.4330  120.1520   60.0560 C   0  0  0  0  0  0  0  0  0  0  0  0
  133.6460  119.9700   60.2030 O   0  0  0  0  0  0  0  0  0  0  0  0
  131.7590  121.4690   60.3090 C   0  0  0  0  0  0  0  0  0  0  0  0
  132.3490  122.6430   59.8240 C   0  0  0  0  0  0  0  0  0  0  0  0
  131.7500  123.8800   60.0430 C   0  0  0  0  0  0  0  0  0  0  0  0
  130.5510  123.9710   60.7520 C   0  0  0  0  0  0  0  0  0  0  0  0
  130.0400  125.2740   60.9160 N   0  0  0  0  0  0  0  0  0  0  0  0
  130.5980  126.4770   60.6330 C   0  0  0  0  0  0  0  0  0  0  0  0
  131.7220  126.6250   60.1540 O   0  0  0  0  0  0  0  0  0  0  0  0
  129.7570  127.6410   60.9310 C   0  0  0  0  0  0  0  0  0  0  0  0
  129.5980  128.9480   59.7590 S   0  0  0  0  0  0  0  0  0  0  0  0
  128.5370  129.8390   60.8260 C   0  0  0  0  0  0  0  0  0  0  0  0
  128.0470  131.0320   60.4910 N   0  0  0  0  0  0  0  0  0  0  0  0
  127.2360  131.6420   61.3950 C   0  0  0  0  0  0  0  0  0  0  0  0
  126.7140  132.9880   61.0070 C   0  0  0  0  0  0  0  0  0  0  0  0
  125.3800  133.1610   60.6110 C   0  0  0  0  0  0  0  0  0  0  0  0
  124.9040  134.4150   60.2400 C   0  0  0  0  0  0  0  0  0  0  0  0
  125.7440  135.5260   60.2570 C   0  0  0  0  0  0  0  0  0  0  0  0
  125.1850  136.7290   59.8710 O   0  0  0  0  0  0  0  0  0  0  0  0
  124.1440  136.7300   58.9000 C   0  0  0  0  0  0  0  0  0  0  0  0
  127.0780  135.3650   60.6580 C   0  0  0  0  0  0  0  0  0  0  0  0
  127.5540  134.1090   61.0260 C   0  0  0  0  0  0  0  0  0  0  0  0
  126.9130  131.0570   62.6220 C   0  0  0  0  0  0  0  0  0  0  0  0
  127.4120  129.7970   62.9710 C   0  0  0  0  0  0  0  0  0  0  0  0
  127.0110  129.2070   64.2730 C   0  0  0  0  0  0  0  0  0  0  0  0
  125.7050  128.7530   64.4670 C   0  0  0  0  0  0  0  0  0  0  0  0
  125.3300  128.1800   65.6790 C   0  0  0  0  0  0  0  0  0  0  0  0
  126.2550  128.0460   66.7160 C   0  0  0  0  0  0  0  0  0  0  0  0
  125.7940  127.4660   67.8820 O   0  0  0  0  0  0  0  0  0  0  0  0
  126.6590  126.6120   68.6210 C   0  0  0  0  0  0  0  0  0  0  0  0
  127.5700  128.4950   66.5200 C   0  0  0  0  0  0  0  0  0  0  0  0
  127.9420  129.0660   65.3060 C   0  0  0  0  0  0  0  0  0  0  0  0
  128.2810  129.1490   62.0480 C   0  0  0  0  0  0  0  0  0  0  0  0
  129.0070  127.9040   62.0880 C   0  0  0  0  0  0  0  0  0  0  0  0
  128.9730  127.0660   63.1750 N   0  0  0  0  0  0  0  0  0  0  0  0
  129.9500  122.8000   61.2380 C   0  0  0  0  0  0  0  0  0  0  0  0
  130.5510  121.5630   61.0170 C   0  0  0  0  0  0  0  0  0  0  0  0
  1  2  1  0
  2  3  1  0
  3  4  1  0
  4  5  2  0
  4  6  1  0
  6  7  2  0
  7  8  1  0
  8  9  2  0
  9 10  1  0
 10 11  1  0
 11 12  2  0
 11 13  1  0
 13 14  1  0
 14 15  1  0
 15 16  2  0
 16 17  1  0
 17 18  1  0
 18 19  2  0
 19 20  1  0
 20 21  2  0
 21 22  1  0
 22 23  1  0
 21 24  1  0
 24 25  2  0
 17 26  2  0
 26 27  1  0
 27 28  1  0
 28 29  2  0
 29 30  1  0
 30 31  2  0
 31 32  1  0
 32 33  1  0
 31 34  1  0
 34 35  2  0
 27 36  2  0
 36 37  1  0
 37 38  1  0
  9 39  1  0
 39 40  2  0
 40  6  1  0
 37 13  2  0
 36 15  1  0
 25 18  1  0
 35 28  1  0
M  END
>  <Binding energies>  (36) 
[-6.32]

>  <Ligand effiencies>  (36) 
[-0.14697674418604653]

>  <Interactions>  (36) 
["V-B:TYR:539:CD2:9846, H-B:GLU:543:OE2:9882, V-A:PRO:482:CG:4327, V-A:PRO:482:CB:4326, V-A:LEU:475:CD1:4258, V-A:LEU:475:CD2:4259, V-B:GLU:543:CD:9880, V-A:SER:385:CB:3409, H-B:GLU:543:OE1:9881, V-A:ILE:369:CG2:3237, V-B:TYR:539:CE2:9848, H-A:GLU:543:OE2:4910, V-A:GLU:543:CD:4908, H-A:GLU:543:OE1:4909, V-A:TYR:539:CE1:4875, V-A:ALA:541:CB:4892, V-B:SER:385:CA:8379, V-A:TYR:539:CD1:4873, V-B:SER:385:CB:8381, V-A:GLU:543:CG:4907, V-B:ILE:369:CG2:8209, V-B:ARG:545:CZ:9898, V-B:LEU:475:CD2:9231, H-B:ARG:545:NE:9896, V-B:ARG:545:CD:9895, V-B:HIS:456:CE1:9042, V-B:ARG:545:CG:9894, V-A:LEU:475:CG:4257, H-B:HIS:456:ND1:9039, V-B:GLU:543:CB:9878, V-A:GLU:543:CB:4906, H-A:ARG:545:NH2:4928, V-B:GLU:543:C:9874, H-B:SER:385:OG:8382, V-B:HIS:383:CD2:8364, V-B:ARG:545:CA:9891"]

$$$$
8c_Ghoteimi_2023
     RDKit          3D

 34 38  0  0  0  0  0  0  0  0999 V2000
  123.7580  136.7440   58.4360 C   0  0  0  0  0  0  0  0  0  0  0  0
  124.4940  136.7490   59.6540 O   0  0  0  0  0  0  0  0  0  0  0  0
  125.1450  135.5970   60.0530 C   0  0  0  0  0  0  0  0  0  0  0  0
  124.4500  134.4000   59.8880 C   0  0  0  0  0  0  0  0  0  0  0  0
  125.0260  133.1910   60.2650 C   0  0  0  0  0  0  0  0  0  0  0  0
  126.3140  133.1470   60.8180 C   0  0  0  0  0  0  0  0  0  0  0  0
  126.9370  131.8500   61.2290 C   0  0  0  0  0  0  0  0  0  0  0  0
  126.6300  131.2380   62.4470 C   0  0  0  0  0  0  0  0  0  0  0  0
  127.2250  130.0240   62.8060 C   0  0  0  0  0  0  0  0  0  0  0  0
  126.8840  129.4060   64.1080 C   0  0  0  0  0  0  0  0  0  0  0  0
  125.5630  129.0510   64.3950 C   0  0  0  0  0  0  0  0  0  0  0  0
  125.2470  128.4620   65.6150 C   0  0  0  0  0  0  0  0  0  0  0  0
  126.2390  128.2220   66.5660 C   0  0  0  0  0  0  0  0  0  0  0  0
  125.8330  127.6310   67.7470 O   0  0  0  0  0  0  0  0  0  0  0  0
  126.6490  126.6260   68.3370 C   0  0  0  0  0  0  0  0  0  0  0  0
  127.5650  128.5830   66.2780 C   0  0  0  0  0  0  0  0  0  0  0  0
  127.8810  129.1720   65.0570 C   0  0  0  0  0  0  0  0  0  0  0  0
  128.1410  129.4340   61.8960 C   0  0  0  0  0  0  0  0  0  0  0  0
  128.9140  128.2210   61.9380 C   0  0  0  0  0  0  0  0  0  0  0  0
  128.8660  127.3550   63.0020 N   0  0  0  0  0  0  0  0  0  0  0  0
  129.7110  128.0140   60.8000 C   0  0  0  0  0  0  0  0  0  0  0  0
  130.6110  126.8960   60.5080 C   0  0  0  0  0  0  0  0  0  0  0  0
  130.5810  126.3340   59.4110 O   0  0  0  0  0  0  0  0  0  0  0  0
  131.4480  126.5450   61.5150 N   0  0  0  0  0  0  0  0  0  0  0  0
  132.3940  125.5300   61.4980 C   0  0  0  0  0  0  0  0  0  0  0  0
  133.0530  125.0220   62.5170 N   0  0  0  0  0  0  0  0  0  0  0  0
  133.8740  124.0650   62.1350 C   0  0  0  0  0  0  0  0  0  0  0  0
  133.8940  123.7780   60.7740 C   0  0  0  0  0  0  0  0  0  0  0  0
  132.7720  124.8260   59.9590 S   0  0  0  0  0  0  0  0  0  0  0  0
  129.5150  129.3270   59.6390 S   0  0  0  0  0  0  0  0  0  0  0  0
  128.3740  130.1430   60.6820 C   0  0  0  0  0  0  0  0  0  0  0  0
  127.8090  131.3010   60.3400 N   0  0  0  0  0  0  0  0  0  0  0  0
  127.0070  134.3540   60.9780 C   0  0  0  0  0  0  0  0  0  0  0  0
  126.4340  135.5660   60.6030 C   0  0  0  0  0  0  0  0  0  0  0  0
  1  2  1  0
  2  3  1  0
  3  4  2  0
  4  5  1  0
  5  6  2  0
  6  7  1  0
  7  8  2  0
  8  9  1  0
  9 10  1  0
 10 11  2  0
 11 12  1  0
 12 13  2  0
 13 14  1  0
 14 15  1  0
 13 16  1  0
 16 17  2  0
  9 18  2  0
 18 19  1  0
 19 20  1  0
 19 21  2  0
 21 22  1  0
 22 23  2  0
 22 24  1  0
 24 25  1  0
 25 26  2  0
 26 27  1  0
 27 28  2  0
 28 29  1  0
 21 30  1  0
 30 31  1  0
 31 32  2  0
  6 33  1  0
 33 34  2  0
 34  3  1  0
 32  7  1  0
 17 10  1  0
 31 18  1  0
 29 25  1  0
M  END
>  <Binding energies>  (37) 
[-6.23]

>  <Ligand effiencies>  (37) 
[-0.16837837837837838]

>  <Interactions>  (37) 
["V-B:GLU:543:CG:9879, H-B:GLU:543:OE2:9882, V-B:GLU:543:CD:9880, H-B:GLU:543:OE1:9881, V-A:ILE:369:CG2:3237, H-A:GLU:543:OE2:4910, V-A:GLU:543:CD:4908, H-A:GLU:543:OE1:4909, H-A:TYR:484:OH:4348, V-A:TYR:539:CE1:4875, V-B:SER:385:CA:8379, V-A:TYR:539:CD1:4873, V-B:SER:385:CB:8381, V-A:GLU:543:CG:4907, V-B:ILE:369:CG2:8209, V-B:ARG:545:CZ:9898, V-B:LEU:475:CD2:9231, H-B:ARG:545:NE:9896, V-B:ARG:545:CD:9895, V-B:HIS:456:CE1:9042, V-B:ARG:545:CG:9894, V-A:ASP:366:CG:3213, V-A:GLY:454:CA:4049, V-A:ILE:369:CD1:3239, V-A:GLY:453:CA:4044, V-A:GLY:453:C:4042, H-B:HIS:456:ND1:9039, V-B:GLU:543:CB:9878, V-A:ASP:366:CB:3212, H-A:ARG:545:NH2:4928, H-B:SER:385:OG:8382, V-B:VAL:384:C:8369, V-B:HIS:383:CD2:8364"]

$$$$
8d_Ghoteimi_2023
     RDKit          3D

 30 33  0  0  0  0  0  0  0  0999 V2000
  132.6760  131.2960   61.3860 C   0  0  0  0  0  0  0  0  0  0  0  0
  131.5610  131.8830   60.7300 O   0  0  0  0  0  0  0  0  0  0  0  0
  130.8710  131.1980   59.7810 C   0  0  0  0  0  0  0  0  0  0  0  0
  130.6640  131.6170   58.6400 O   0  0  0  0  0  0  0  0  0  0  0  0
  130.3880  129.8830   60.2580 C   0  0  0  0  0  0  0  0  0  0  0  0
  131.2070  128.4060   59.7450 S   0  0  0  0  0  0  0  0  0  0  0  0
  130.0980  127.4230   60.6740 C   0  0  0  0  0  0  0  0  0  0  0  0
  130.1930  126.0940   60.7040 N   0  0  0  0  0  0  0  0  0  0  0  0
  129.2800  125.4250   61.4600 C   0  0  0  0  0  0  0  0  0  0  0  0
  129.4060  123.9350   61.4740 C   0  0  0  0  0  0  0  0  0  0  0  0
  128.2980  123.1160   61.7330 C   0  0  0  0  0  0  0  0  0  0  0  0
  128.4210  121.7300   61.7450 C   0  0  0  0  0  0  0  0  0  0  0  0
  129.6530  121.1250   61.4990 C   0  0  0  0  0  0  0  0  0  0  0  0
  129.6810  119.7450   61.5310 O   0  0  0  0  0  0  0  0  0  0  0  0
  130.5370  119.0470   60.6320 C   0  0  0  0  0  0  0  0  0  0  0  0
  130.7680  121.9340   61.2370 C   0  0  0  0  0  0  0  0  0  0  0  0
  130.6400  123.3210   61.2250 C   0  0  0  0  0  0  0  0  0  0  0  0
  128.2750  126.0850   62.1730 C   0  0  0  0  0  0  0  0  0  0  0  0
  128.1780  127.4800   62.1430 C   0  0  0  0  0  0  0  0  0  0  0  0
  127.1070  128.1500   62.9170 C   0  0  0  0  0  0  0  0  0  0  0  0
  127.2320  128.3070   64.2990 C   0  0  0  0  0  0  0  0  0  0  0  0
  126.2220  128.9290   65.0270 C   0  0  0  0  0  0  0  0  0  0  0  0
  125.0770  129.4060   64.3870 C   0  0  0  0  0  0  0  0  0  0  0  0
  124.1280  130.0080   65.1900 O   0  0  0  0  0  0  0  0  0  0  0  0
  124.0250  129.6190   66.5540 C   0  0  0  0  0  0  0  0  0  0  0  0
  124.9560  129.2510   62.9960 C   0  0  0  0  0  0  0  0  0  0  0  0
  125.9670  128.6280   62.2700 C   0  0  0  0  0  0  0  0  0  0  0  0
  129.1220  128.1980   61.3630 C   0  0  0  0  0  0  0  0  0  0  0  0
  129.3120  129.5990   61.1070 C   0  0  0  0  0  0  0  0  0  0  0  0
  128.5020  130.5660   61.6470 N   0  0  0  0  0  0  0  0  0  0  0  0
  1  2  1  0
  2  3  1  0
  3  4  2  0
  3  5  1  0
  5  6  1  0
  6  7  1  0
  7  8  2  0
  8  9  1  0
  9 10  1  0
 10 11  2  0
 11 12  1  0
 12 13  2  0
 13 14  1  0
 14 15  1  0
 13 16  1  0
 16 17  2  0
  9 18  2  0
 18 19  1  0
 19 20  1  0
 20 21  2  0
 21 22  1  0
 22 23  2  0
 23 24  1  0
 24 25  1  0
 23 26  1  0
 26 27  2  0
 19 28  2  0
 28 29  1  0
 29 30  1  0
 29  5  2  0
 28  7  1  0
 17 10  1  0
 27 20  1  0
M  END
>  <Binding energies>  (38) 
[-6.14]

>  <Ligand effiencies>  (38) 
[-0.191875]

>  <Interactions>  (38) 
["V-B:ALA:541:CB:9864, V-B:TYR:539:CD2:9846, V-B:TYR:539:C:9839, V-A:LEU:475:CD2:4259, V-B:GLU:543:CD:9880, V-B:PRO:540:C:9853, V-B:ALA:541:CA:9862, V-B:PRO:540:CA:9855, H-A:GLU:543:OE1:4909, V-A:PRO:540:CA:4883, V-B:ARG:545:CZ:9898, H-A:ALA:541:N:4891, H-B:GLY:454:N:9022, H-B:TYR:484:OH:9320, V-A:ASN:362:CB:3176, V-B:ARG:545:CD:9895, V-B:HIS:456:CE1:9042, V-B:ARG:545:CG:9894, V-A:PRO:540:CB:4885, V-A:ASP:366:CG:3213, V-B:TYR:484:CE1:9317, V-B:TYR:484:CZ:9319"]

$$$$
9a_Ghoteimi_2023
     RDKit          3D

 48 54  0  0  0  0  0  0  0  0999 V2000
  133.5610  124.5700   75.3720 C   0  0  0  0  0  0  0  0  0  0  0  0
  132.0490  124.8160   75.4190 C   0  0  0  0  0  0  0  0  0  0  0  0
  131.8000  126.1540   75.8350 O   0  0  0  0  0  0  0  0  0  0  0  0
  132.3650  127.2060   75.1890 C   0  0  0  0  0  0  0  0  0  0  0  0
  133.3000  127.8660   75.6530 O   0  0  0  0  0  0  0  0  0  0  0  0
  131.7360  127.4920   73.8560 C   0  0  0  0  0  0  0  0  0  0  0  0
  132.3910  127.0830   72.6870 C   0  0  0  0  0  0  0  0  0  0  0  0
  131.8350  127.3360   71.4370 C   0  0  0  0  0  0  0  0  0  0  0  0
  130.6130  128.0000   71.3270 C   0  0  0  0  0  0  0  0  0  0  0  0
  130.1460  128.2010   70.0140 N   0  0  0  0  0  0  0  0  0  0  0  0
  129.3520  127.4250   69.2350 C   0  0  0  0  0  0  0  0  0  0  0  0
  128.8800  126.3440   69.5880 O   0  0  0  0  0  0  0  0  0  0  0  0
  129.0650  127.9620   67.9020 C   0  0  0  0  0  0  0  0  0  0  0  0
  128.2440  129.5140   67.7250 S   0  0  0  0  0  0  0  0  0  0  0  0
  128.3150  129.4040   65.9820 C   0  0  0  0  0  0  0  0  0  0  0  0
  127.8340  130.3710   65.2010 N   0  0  0  0  0  0  0  0  0  0  0  0
  127.9490  130.1930   63.8580 C   0  0  0  0  0  0  0  0  0  0  0  0
  127.4120  131.2940   63.0020 C   0  0  0  0  0  0  0  0  0  0  0  0
  127.9940  132.5660   63.0320 C   0  0  0  0  0  0  0  0  0  0  0  0
  127.5010  133.5970   62.2370 C   0  0  0  0  0  0  0  0  0  0  0  0
  126.4150  133.3910   61.3710 C   0  0  0  0  0  0  0  0  0  0  0  0
  125.8970  134.4220   60.5810 N   0  0  0  0  0  0  0  0  0  0  0  0
  124.4600  134.4890   60.2450 C   0  0  0  0  0  0  0  0  0  0  0  0
  124.1350  135.4610   59.0910 C   0  0  0  0  0  0  0  0  0  0  0  0
  124.6520  136.7500   59.3800 O   0  0  0  0  0  0  0  0  0  0  0  0
  126.0610  136.7210   59.5420 C   0  0  0  0  0  0  0  0  0  0  0  0
  126.4380  135.7910   60.7130 C   0  0  0  0  0  0  0  0  0  0  0  0
  125.8260  132.1180   61.3560 C   0  0  0  0  0  0  0  0  0  0  0  0
  126.3180  131.0890   62.1530 C   0  0  0  0  0  0  0  0  0  0  0  0
  128.5170  129.0440   63.3040 C   0  0  0  0  0  0  0  0  0  0  0  0
  129.0060  128.0180   64.1200 C   0  0  0  0  0  0  0  0  0  0  0  0
  129.5670  126.8020   63.4790 C   0  0  0  0  0  0  0  0  0  0  0  0
  130.8290  126.3240   63.8410 C   0  0  0  0  0  0  0  0  0  0  0  0
  131.3470  125.1770   63.2480 C   0  0  0  0  0  0  0  0  0  0  0  0
  130.6090  124.4640   62.2900 C   0  0  0  0  0  0  0  0  0  0  0  0
  131.1130  123.3160   61.6740 N   0  0  0  0  0  0  0  0  0  0  0  0
  132.3560  123.4100   60.8830 C   0  0  0  0  0  0  0  0  0  0  0  0
  132.9970  122.0380   60.5860 C   0  0  0  0  0  0  0  0  0  0  0  0
  132.0550  121.1890   59.9500 O   0  0  0  0  0  0  0  0  0  0  0  0
  130.9120  120.9700   60.7620 C   0  0  0  0  0  0  0  0  0  0  0  0
  130.2150  122.3150   61.0640 C   0  0  0  0  0  0  0  0  0  0  0  0
  129.3420  124.9500   61.9370 C   0  0  0  0  0  0  0  0  0  0  0  0
  128.8260  126.1000   62.5260 C   0  0  0  0  0  0  0  0  0  0  0  0
  128.9280  128.1990   65.5310 C   0  0  0  0  0  0  0  0  0  0  0  0
  129.3690  127.4040   66.6510 C   0  0  0  0  0  0  0  0  0  0  0  0
  130.0380  126.2170   66.4950 N   0  0  0  0  0  0  0  0  0  0  0  0
  129.9470  128.4100   72.4930 C   0  0  0  0  0  0  0  0  0  0  0  0
  130.5050  128.1570   73.7430 C   0  0  0  0  0  0  0  0  0  0  0  0
  1  2  1  0
  2  3  1  0
  3  4  1  0
  4  5  2  0
  4  6  1  0
  6  7  2  0
  7  8  1  0
  8  9  2  0
  9 10  1  0
 10 11  1  0
 11 12  2  0
 11 13  1  0
 13 14  1  0
 14 15  1  0
 15 16  2  0
 16 17  1  0
 17 18  1  0
 18 19  2  0
 19 20  1  0
 20 21  2  0
 21 22  1  0
 22 23  1  0
 23 24  1  0
 24 25  1  0
 25 26  1  0
 26 27  1  0
 21 28  1  0
 28 29  2  0
 17 30  2  0
 30 31  1  0
 31 32  1  0
 32 33  2  0
 33 34  1  0
 34 35  2  0
 35 36  1  0
 36 37  1  0
 37 38  1  0
 38 39  1  0
 39 40  1  0
 40 41  1  0
 35 42  1  0
 42 43  2  0
 31 44  2  0
 44 45  1  0
 45 46  1  0
  9 47  1  0
 47 48  2  0
 48  6  1  0
 45 13  2  0
 44 15  1  0
 29 18  1  0
 43 32  1  0
 27 22  1  0
 41 36  1  0
M  END
>  <Binding energies>  (39) 
[-1.5]

>  <Ligand effiencies>  (39) 
[-0.029411764705882353]

>  <Interactions>  (39) 
["V-B:TYR:539:CD2:9846, V-A:TYR:484:CZ:4347, H-B:GLU:543:OE2:9882, V-A:LEU:475:CD2:4259, V-B:GLU:543:CD:9880, V-A:ILE:369:CG2:3237, V-B:TYR:539:CE2:9848, H-A:GLU:543:OE2:4910, V-A:GLU:543:CD:4908, H-A:TYR:484:OH:4348, V-A:TYR:539:CE1:4875, V-A:ALA:541:CB:4892, V-B:SER:385:CA:8379, V-A:TYR:539:CD1:4873, V-A:GLU:543:CG:4907, V-B:ILE:369:CG2:8209, V-B:LEU:475:CD2:9231, H-B:TYR:484:OH:9320, V-B:HIS:456:CE1:9042, V-A:VAL:458:CG2:4087, V-B:HIS:456:CD2:9040, V-A:LYS:547:CE:4950, V-A:HIS:456:CB:4065, V-A:HIS:456:CD2:4068, V-A:HIS:456:C:4061, V-A:LYS:471:CD:4219, V-A:HIS:456:CG:4066, V-A:GLY:544:C:4912, V-A:LYS:547:CD:4949, V-B:TYR:484:CZ:9319, V-A:TYR:484:CE2:4346, V-A:HIS:456:CE1:4070, V-A:GLU:543:CB:4906, V-B:TYR:484:CE2:9318, V-A:GLU:543:CA:4904, V-A:GLU:543:C:4902, V-A:GLY:544:CA:4914, H-B:SER:385:OG:8382, V-A:TYR:539:CB:4871, H-B:HIS:456:NE2:9043, V-A:ARG:545:CA:4919, V-A:TYR:539:CG:4872, H-A:GLU:543:O:4903"]

$$$$
9b_Ghoteimi_2023
     RDKit          3D

 42 48  0  0  0  0  0  0  0  0999 V2000
  128.8000  127.7260   61.4680 N   0  0  0  0  0  0  0  0  0  0  0  0
  129.4460  127.0490   62.4720 C   0  0  0  0  0  0  0  0  0  0  0  0
  130.2830  125.9450   62.2460 C   0  0  0  0  0  0  0  0  0  0  0  0
  130.6530  125.3250   60.9720 C   0  0  0  0  0  0  0  0  0  0  0  0
  129.8330  124.6580   60.3350 O   0  0  0  0  0  0  0  0  0  0  0  0
  131.9310  125.5350   60.5710 N   0  0  0  0  0  0  0  0  0  0  0  0
  132.5470  125.0590   59.4200 C   0  0  0  0  0  0  0  0  0  0  0  0
  132.1830  125.4670   58.1380 C   0  0  0  0  0  0  0  0  0  0  0  0
  133.0210  124.7780   57.2920 C   0  0  0  0  0  0  0  0  0  0  0  0
  133.8460  123.9950   58.0270 O   0  0  0  0  0  0  0  0  0  0  0  0
  133.5360  124.1820   59.3740 N   0  0  0  0  0  0  0  0  0  0  0  0
  130.9160  125.3050   63.7620 S   0  0  0  0  0  0  0  0  0  0  0  0
  130.0440  126.5040   64.6860 C   0  0  0  0  0  0  0  0  0  0  0  0
  130.0950  126.5340   66.0170 N   0  0  0  0  0  0  0  0  0  0  0  0
  129.3660  127.4960   66.6410 C   0  0  0  0  0  0  0  0  0  0  0  0
  129.4240  127.4940   68.1340 C   0  0  0  0  0  0  0  0  0  0  0  0
  128.4390  126.8540   68.8960 C   0  0  0  0  0  0  0  0  0  0  0  0
  128.4910  126.8680   70.2870 C   0  0  0  0  0  0  0  0  0  0  0  0
  129.5220  127.5340   70.9670 C   0  0  0  0  0  0  0  0  0  0  0  0
  129.5890  127.5540   72.3650 N   0  0  0  0  0  0  0  0  0  0  0  0
  128.7030  128.4240   73.1650 C   0  0  0  0  0  0  0  0  0  0  0  0
  128.6700  128.0680   74.6660 C   0  0  0  0  0  0  0  0  0  0  0  0
  129.9870  128.0630   75.1920 O   0  0  0  0  0  0  0  0  0  0  0  0
  130.8040  127.1050   74.5400 C   0  0  0  0  0  0  0  0  0  0  0  0
  130.9010  127.4270   73.0330 C   0  0  0  0  0  0  0  0  0  0  0  0
  130.5160  128.1560   70.1980 C   0  0  0  0  0  0  0  0  0  0  0  0
  130.4670  128.1390   68.8070 C   0  0  0  0  0  0  0  0  0  0  0  0
  128.6120  128.4370   65.9350 C   0  0  0  0  0  0  0  0  0  0  0  0
  128.5720  128.4220   64.5360 C   0  0  0  0  0  0  0  0  0  0  0  0
  127.7810  129.4630   63.8320 C   0  0  0  0  0  0  0  0  0  0  0  0
  126.3900  129.3680   63.7670 C   0  0  0  0  0  0  0  0  0  0  0  0
  125.6440  130.3510   63.1250 C   0  0  0  0  0  0  0  0  0  0  0  0
  126.2690  131.4580   62.5290 C   0  0  0  0  0  0  0  0  0  0  0  0
  125.5390  132.4650   61.8930 N   0  0  0  0  0  0  0  0  0  0  0  0
  126.2200  133.3540   60.9320 C   0  0  0  0  0  0  0  0  0  0  0  0
  125.4210  134.6380   60.6200 C   0  0  0  0  0  0  0  0  0  0  0  0
  124.1220  134.3000   60.1570 O   0  0  0  0  0  0  0  0  0  0  0  0
  123.3970  133.5550   61.1240 C   0  0  0  0  0  0  0  0  0  0  0  0
  124.1460  132.2460   61.4530 C   0  0  0  0  0  0  0  0  0  0  0  0
  127.6660  131.5530   62.6170 C   0  0  0  0  0  0  0  0  0  0  0  0
  128.4120  130.5690   63.2590 C   0  0  0  0  0  0  0  0  0  0  0  0
  129.3010  127.4020   63.8630 C   0  0  0  0  0  0  0  0  0  0  0  0
  1  2  1  0
  2  3  2  0
  3  4  1  0
  4  5  2  0
  4  6  1  0
  6  7  1  0
  7  8  1  0
  8  9  2  0
  9 10  1  0
 10 11  1  0
  3 12  1  0
 12 13  1  0
 13 14  2  0
 14 15  1  0
 15 16  1  0
 16 17  2  0
 17 18  1  0
 18 19  2  0
 19 20  1  0
 20 21  1  0
 21 22  1  0
 22 23  1  0
 23 24  1  0
 24 25  1  0
 19 26  1  0
 26 27  2  0
 15 28  2  0
 28 29  1  0
 29 30  1  0
 30 31  2  0
 31 32  1  0
 32 33  2  0
 33 34  1  0
 34 35  1  0
 35 36  1  0
 36 37  1  0
 37 38  1  0
 38 39  1  0
 33 40  1  0
 40 41  2  0
 29 42  2  0
 42  2  1  0
 11  7  2  0
 42 13  1  0
 27 16  1  0
 41 30  1  0
 25 20  1  0
 39 34  1  0
M  END
>  <Binding energies>  (40) 
[-4.61]

>  <Ligand effiencies>  (40) 
[-0.10244444444444445]

>  <Interactions>  (40) 
["V-A:TYR:484:CZ:4347, V-B:GLU:543:CD:9880, V-B:TYR:539:CE2:9848, V-A:GLU:543:CD:4908, H-A:GLU:543:OE1:4909, V-B:SER:385:C:8377, V-B:ILE:369:CD1:8211, V-A:TYR:539:CE1:4875, V-B:SER:385:CA:8379, V-A:TYR:539:CD1:4873, V-A:GLU:543:CG:4907, V-B:ILE:369:CG2:8209, V-B:LEU:475:CD2:9231, V-B:HIS:456:CE1:9042, H-A:LYS:547:NZ:4951, V-B:HIS:456:CD2:9040, V-A:HIS:456:CD2:4068, V-A:HIS:456:CG:4066, V-A:GLY:544:C:4912, H-A:ASP:366:OD1:3214, V-A:ASP:366:CG:3213, V-B:GLU:543:CB:9878, H-A:ASP:366:OD2:3215, V-B:ILE:369:CG1:8210, V-B:ILE:369:CB:8208, V-A:ASP:366:CB:3212, V-A:HIS:456:CE1:4070, V-A:GLU:543:CB:4906, V-A:ASP:366:C:3208, V-A:ASP:366:CA:3210, H-B:TYR:539:OH:9850, V-A:GLU:543:C:4902, V-B:TYR:539:CZ:9849, V-A:GLY:544:CA:4914, H-B:SER:385:OG:8382"]

$$$$
9c_Ghoteimi_2023
     RDKit          3D

 42 48  0  0  0  0  0  0  0  0999 V2000
  128.5470  128.0200   61.6220 N   0  0  0  0  0  0  0  0  0  0  0  0
  129.1700  127.2990   62.6090 C   0  0  0  0  0  0  0  0  0  0  0  0
  129.9640  126.1700   62.3580 C   0  0  0  0  0  0  0  0  0  0  0  0
  130.3010  125.5580   61.0690 C   0  0  0  0  0  0  0  0  0  0  0  0
  129.4620  124.9110   60.4400 O   0  0  0  0  0  0  0  0  0  0  0  0
  131.5740  125.7550   60.6480 N   0  0  0  0  0  0  0  0  0  0  0  0
  132.1500  125.2760   59.4800 C   0  0  0  0  0  0  0  0  0  0  0  0
  131.8780  125.6260   58.2410 N   0  0  0  0  0  0  0  0  0  0  0  0
  132.6180  124.9600   57.3760 C   0  0  0  0  0  0  0  0  0  0  0  0
  133.5160  124.0410   57.9110 C   0  0  0  0  0  0  0  0  0  0  0  0
  133.3770  124.0600   59.6440 S   0  0  0  0  0  0  0  0  0  0  0  0
  130.5810  125.4780   63.8580 S   0  0  0  0  0  0  0  0  0  0  0  0
  129.7580  126.6910   64.8100 C   0  0  0  0  0  0  0  0  0  0  0  0
  129.8190  126.6940   66.1400 N   0  0  0  0  0  0  0  0  0  0  0  0
  129.1290  127.6700   66.7860 C   0  0  0  0  0  0  0  0  0  0  0  0
  129.1970  127.6380   68.2790 C   0  0  0  0  0  0  0  0  0  0  0  0
  128.3060  126.8600   69.0280 C   0  0  0  0  0  0  0  0  0  0  0  0
  128.3670  126.8400   70.4180 C   0  0  0  0  0  0  0  0  0  0  0  0
  129.3150  127.6090   71.1120 C   0  0  0  0  0  0  0  0  0  0  0  0
  129.3940  127.5950   72.5090 N   0  0  0  0  0  0  0  0  0  0  0  0
  128.5850  128.5150   73.3350 C   0  0  0  0  0  0  0  0  0  0  0  0
  128.5320  128.1290   74.8280 C   0  0  0  0  0  0  0  0  0  0  0  0
  129.8480  128.0100   75.3440 O   0  0  0  0  0  0  0  0  0  0  0  0
  130.5820  127.0040   74.6650 C   0  0  0  0  0  0  0  0  0  0  0  0
  130.6960  127.3500   73.1650 C   0  0  0  0  0  0  0  0  0  0  0  0
  130.2180  128.3710   70.3560 C   0  0  0  0  0  0  0  0  0  0  0  0
  130.1580  128.3870   68.9650 C   0  0  0  0  0  0  0  0  0  0  0  0
  128.4080  128.6530   66.1030 C   0  0  0  0  0  0  0  0  0  0  0  0
  128.3600  128.6660   64.7050 C   0  0  0  0  0  0  0  0  0  0  0  0
  127.6070  129.7490   64.0240 C   0  0  0  0  0  0  0  0  0  0  0  0
  128.2670  130.8960   63.5810 C   0  0  0  0  0  0  0  0  0  0  0  0
  127.5670  131.9060   62.9270 C   0  0  0  0  0  0  0  0  0  0  0  0
  126.1860  131.7960   62.7010 C   0  0  0  0  0  0  0  0  0  0  0  0
  125.4650  132.7930   62.0370 N   0  0  0  0  0  0  0  0  0  0  0  0
  126.1930  133.7970   61.2370 C   0  0  0  0  0  0  0  0  0  0  0  0
  125.3400  135.0370   60.8930 C   0  0  0  0  0  0  0  0  0  0  0  0
  124.1480  134.6390   60.2340 O   0  0  0  0  0  0  0  0  0  0  0  0
  123.3640  133.7770   61.0440 C   0  0  0  0  0  0  0  0  0  0  0  0
  124.1670  132.5060   61.3970 C   0  0  0  0  0  0  0  0  0  0  0  0
  125.5370  130.6300   63.1320 C   0  0  0  0  0  0  0  0  0  0  0  0
  126.2370  129.6190   63.7860 C   0  0  0  0  0  0  0  0  0  0  0  0
  129.0460  127.6310   64.0070 C   0  0  0  0  0  0  0  0  0  0  0  0
  1  2  1  0
  2  3  2  0
  3  4  1  0
  4  5  2  0
  4  6  1  0
  6  7  1  0
  7  8  2  0
  8  9  1  0
  9 10  2  0
 10 11  1  0
  3 12  1  0
 12 13  1  0
 13 14  2  0
 14 15  1  0
 15 16  1  0
 16 17  2  0
 17 18  1  0
 18 19  2  0
 19 20  1  0
 20 21  1  0
 21 22  1  0
 22 23  1  0
 23 24  1  0
 24 25  1  0
 19 26  1  0
 26 27  2  0
 15 28  2  0
 28 29  1  0
 29 30  1  0
 30 31  2  0
 31 32  1  0
 32 33  2  0
 33 34  1  0
 34 35  1  0
 35 36  1  0
 36 37  1  0
 37 38  1  0
 38 39  1  0
 33 40  1  0
 40 41  2  0
 29 42  2  0
 42  2  1  0
 11  7  1  0
 42 13  1  0
 27 16  1  0
 41 30  1  0
 25 20  1  0
 39 34  1  0
M  END
>  <Binding energies>  (41) 
[-4.64]

>  <Ligand effiencies>  (41) 
[-0.1031111111111111]

>  <Interactions>  (41) 
["V-A:TYR:484:CZ:4347, V-B:GLU:543:CD:9880, V-A:ILE:369:CG2:3237, V-B:TYR:539:CE2:9848, V-A:GLU:543:CD:4908, H-A:GLU:543:OE1:4909, V-B:SER:385:C:8377, V-B:ILE:369:CD1:8211, V-A:ALA:541:CB:4892, V-B:SER:385:CA:8379, V-A:TYR:539:CD1:4873, V-A:GLU:543:CG:4907, V-B:ILE:369:CG2:8209, V-B:LEU:475:CD2:9231, V-B:HIS:456:CE1:9042, H-A:LYS:547:NZ:4951, V-B:HIS:456:CD2:9040, V-A:HIS:456:CD2:4068, V-A:GLY:544:C:4912, H-A:ASP:366:OD1:3214, V-A:ASP:366:CG:3213, V-A:ILE:369:CD1:3239, V-B:GLU:543:CB:9878, H-A:ASP:366:OD2:3215, V-B:ILE:369:CG1:8210, V-B:ILE:369:CB:8208, V-A:ASP:366:CB:3212, V-A:HIS:456:CE1:4070, V-A:GLU:543:CB:4906, V-A:GLU:543:CA:4904, V-A:ASP:366:C:3208, V-A:ASP:366:CA:3210, V-A:ILE:369:CB:3236, H-B:TYR:539:OH:9850, V-A:GLU:543:C:4902, V-B:TYR:539:CZ:9849, V-A:GLY:544:CA:4914, H-B:SER:385:OG:8382"]

$$$$
RR11_Rahimova_2017
     RDKit          3D

 33 38  0  0  0  0  0  0  0  0999 V2000
  133.4930  119.8970   60.1400 N   0  0  0  0  0  0  0  0  0  0  0  0
  132.7350  121.0660   60.1790 C   0  0  0  0  0  0  0  0  0  0  0  0
  133.3290  122.2880   59.8680 C   0  0  0  0  0  0  0  0  0  0  0  0
  132.5700  123.4540   59.9040 C   0  0  0  0  0  0  0  0  0  0  0  0
  131.2130  123.4110   60.2510 C   0  0  0  0  0  0  0  0  0  0  0  0
  130.3960  124.6680   60.2840 C   0  0  0  0  0  0  0  0  0  0  0  0
  129.7720  125.1210   61.3490 N   0  0  0  0  0  0  0  0  0  0  0  0
  129.1680  126.2840   60.9480 C   0  0  0  0  0  0  0  0  0  0  0  0
  128.3810  127.1750   61.6900 C   0  0  0  0  0  0  0  0  0  0  0  0
  127.8850  128.3170   61.0500 C   0  0  0  0  0  0  0  0  0  0  0  0
  127.0220  129.3000   61.8300 C   0  0  0  0  0  0  0  0  0  0  0  0
  126.9770  128.9980   63.3210 C   0  0  0  0  0  0  0  0  0  0  0  0
  125.7380  128.8440   63.9550 C   0  0  0  0  0  0  0  0  0  0  0  0
  125.6450  128.5570   65.3180 C   0  0  0  0  0  0  0  0  0  0  0  0
  126.8340  128.4190   66.0470 C   0  0  0  0  0  0  0  0  0  0  0  0
  127.0100  128.1490   67.3790 N   0  0  0  0  0  0  0  0  0  0  0  0
  128.3130  128.1280   67.5610 C   0  0  0  0  0  0  0  0  0  0  0  0
  128.9820  127.8840   68.8830 C   0  0  0  0  0  0  0  0  0  0  0  0
  128.4000  127.0260   69.8250 C   0  0  0  0  0  0  0  0  0  0  0  0
  129.0150  126.8070   71.0550 C   0  0  0  0  0  0  0  0  0  0  0  0
  130.2180  127.4450   71.3510 C   0  0  0  0  0  0  0  0  0  0  0  0
  130.8320  127.2300   72.5850 N   0  0  0  0  0  0  0  0  0  0  0  0
  130.8090  128.2960   70.4220 C   0  0  0  0  0  0  0  0  0  0  0  0
  130.1940  128.5150   69.1930 C   0  0  0  0  0  0  0  0  0  0  0  0
  129.0010  128.3680   66.3900 N   0  0  0  0  0  0  0  0  0  0  0  0
  128.0790  128.5640   65.3890 C   0  0  0  0  0  0  0  0  0  0  0  0
  128.1790  128.8460   64.0240 C   0  0  0  0  0  0  0  0  0  0  0  0
  128.1500  128.5470   59.6960 C   0  0  0  0  0  0  0  0  0  0  0  0
  128.9270  127.6760   58.9280 C   0  0  0  0  0  0  0  0  0  0  0  0
  129.4280  126.5490   59.5830 C   0  0  0  0  0  0  0  0  0  0  0  0
  130.2150  125.4910   59.1910 N   0  0  0  0  0  0  0  0  0  0  0  0
  130.6300  122.1750   60.5630 C   0  0  0  0  0  0  0  0  0  0  0  0
  131.3860  121.0070   60.5260 C   0  0  0  0  0  0  0  0  0  0  0  0
  1  2  1  0
  2  3  2  0
  3  4  1  0
  4  5  2  0
  5  6  1  0
  6  7  2  0
  7  8  1  0
  8  9  2  0
  9 10  1  0
 10 11  1  0
 11 12  1  0
 12 13  2  0
 13 14  1  0
 14 15  2  0
 15 16  1  0
 16 17  2  0
 17 18  1  0
 18 19  2  0
 19 20  1  0
 20 21  2  0
 21 22  1  0
 21 23  1  0
 23 24  2  0
 17 25  1  0
 25 26  1  0
 26 27  2  0
 10 28  2  0
 28 29  1  0
 29 30  2  0
 30 31  1  0
  5 32  1  0
 32 33  2  0
 33  2  1  0
 31  6  1  0
 30  8  1  0
 27 12  1  0
 26 15  1  0
 24 18  1  0
M  END
>  <Binding energies>  (42) 
[-4.76]

>  <Ligand effiencies>  (42) 
[-0.12205128205128205]

>  <Interactions>  (42) 
["V-B:TYR:539:CD2:9846, H-B:GLU:543:OE2:9882, V-A:LEU:475:CD2:4259, V-B:GLU:543:CD:9880, V-A:SER:385:CB:3409, V-A:ILE:369:CG2:3237, V-B:TYR:539:CE2:9848, H-A:GLU:543:OE2:4910, V-A:GLU:543:CD:4908, V-A:SER:385:C:3405, V-A:SER:385:CA:3407, H-A:GLU:543:OE1:4909, V-A:GLU:543:CG:4907, V-B:ARG:545:CZ:9898, V-B:ARG:545:CD:9895, V-B:HIS:456:CE1:9042, V-B:HIS:456:CD2:9040, V-A:HIS:456:CD2:4068, V-A:HIS:456:CG:4066, V-A:GLY:544:C:4912, V-A:ILE:369:CD1:3239, H-B:HIS:456:ND1:9039, V-A:HIS:456:CE1:4070, V-A:GLU:543:CB:4906, V-A:GLU:543:CA:4904, H-A:SER:385:O:3406, V-A:ILE:369:CB:3236, H-B:TYR:539:OH:9850, V-A:GLU:543:C:4902, V-A:GLY:544:CA:4914, H-A:SER:385:OG:3410, H-A:HIS:456:NE2:4071, H-A:GLY:544:O:4913"]

$$$$
RR16_Rahimova_2017
     RDKit          3D

 44 49  0  0  0  0  0  0  0  0999 V2000
  124.1210  134.7370   59.8730 O   0  0  0  0  0  0  0  0  0  0  0  0
  124.0660  133.3520   60.3540 S   0  0  0  0  0  0  0  0  0  0  0  0
  123.0290  132.4300   59.8770 O   0  0  0  0  0  0  0  0  0  0  0  0
  123.9850  133.4040   62.1160 N   0  0  0  0  0  0  0  0  0  0  0  0
  124.7030  132.4040   62.9410 C   0  0  0  0  0  0  0  0  0  0  0  0
  124.1320  130.9930   62.6420 C   0  0  0  0  0  0  0  0  0  0  0  0
  124.8320  129.7920   63.3070 C   0  0  0  0  0  0  0  0  0  0  0  0
  126.1580  129.3930   62.6380 C   0  0  0  0  0  0  0  0  0  0  0  0
  127.3830  130.2440   63.0190 C   0  0  0  0  0  0  0  0  0  0  0  0
  127.1160  131.6600   63.5670 C   0  0  0  0  0  0  0  0  0  0  0  0
  126.2220  132.5750   62.7060 C   0  0  0  0  0  0  0  0  0  0  0  0
  125.6590  132.6180   60.0020 C   0  0  0  0  0  0  0  0  0  0  0  0
  125.8050  131.2290   59.9800 C   0  0  0  0  0  0  0  0  0  0  0  0
  127.0720  130.6720   59.8270 C   0  0  0  0  0  0  0  0  0  0  0  0
  128.1850  131.5060   59.6960 C   0  0  0  0  0  0  0  0  0  0  0  0
  129.8290  130.7960   59.6410 S   0  0  0  0  0  0  0  0  0  0  0  0
  130.5870  131.3550   60.7690 O   0  0  0  0  0  0  0  0  0  0  0  0
  130.3270  130.9440   58.2680 O   0  0  0  0  0  0  0  0  0  0  0  0
  129.5660  129.0680   59.9500 N   0  0  0  0  0  0  0  0  0  0  0  0
  128.6420  128.4060   58.9930 C   0  0  0  0  0  0  0  0  0  0  0  0
  128.2330  127.0130   59.5140 C   0  0  0  0  0  0  0  0  0  0  0  0
  129.4670  126.1450   59.8620 C   0  0  0  0  0  0  0  0  0  0  0  0
  129.0820  124.7740   60.4250 C   0  0  0  0  0  0  0  0  0  0  0  0
  127.7690  124.5440   60.8600 C   0  0  0  0  0  0  0  0  0  0  0  0
  127.3730  123.3080   61.3720 C   0  0  0  0  0  0  0  0  0  0  0  0
  126.0830  123.1010   61.7890 O   0  0  0  0  0  0  0  0  0  0  0  0
  128.3280  122.2830   61.4430 C   0  0  0  0  0  0  0  0  0  0  0  0
  128.2270  120.9920   61.8730 N   0  0  0  0  0  0  0  0  0  0  0  0
  129.4600  120.4000   61.7020 N   0  0  0  0  0  0  0  0  0  0  0  0
  130.3120  121.3240   61.2170 N   0  0  0  0  0  0  0  0  0  0  0  0
  131.6730  120.9500   60.8580 C   0  0  0  0  0  0  0  0  0  0  0  0
  132.5680  122.1560   60.6070 C   0  0  0  0  0  0  0  0  0  0  0  0
  133.3660  122.6640   61.6370 C   0  0  0  0  0  0  0  0  0  0  0  0
  134.2040  123.7550   61.4030 C   0  0  0  0  0  0  0  0  0  0  0  0
  134.2480  124.3430   60.1390 C   0  0  0  0  0  0  0  0  0  0  0  0
  133.4560  123.8400   59.1070 C   0  0  0  0  0  0  0  0  0  0  0  0
  133.5160  124.5580   57.5390 Cl  0  0  0  0  0  0  0  0  0  0  0  0
  132.6150  122.7500   59.3410 C   0  0  0  0  0  0  0  0  0  0  0  0
  129.6530  122.5250   61.0100 C   0  0  0  0  0  0  0  0  0  0  0  0
  130.0530  123.7650   60.5000 C   0  0  0  0  0  0  0  0  0  0  0  0
  130.4830  126.8990   60.7590 C   0  0  0  0  0  0  0  0  0  0  0  0
  130.8120  128.2990   60.2050 C   0  0  0  0  0  0  0  0  0  0  0  0
  128.0310  132.8940   59.6770 C   0  0  0  0  0  0  0  0  0  0  0  0
  126.7660  133.4500   59.8340 C   0  0  0  0  0  0  0  0  0  0  0  0
  1  2  2  0
  2  3  2  0
  2  4  1  0
  4  5  1  0
  5  6  1  0
  6  7  1  0
  7  8  1  0
  8  9  1  0
  9 10  1  0
 10 11  1  0
  2 12  1  0
 12 13  2  0
 13 14  1  0
 14 15  2  0
 15 16  1  0
 16 17  2  0
 16 18  2  0
 16 19  1  0
 19 20  1  0
 20 21  1  0
 21 22  1  0
 22 23  1  0
 23 24  2  0
 24 25  1  0
 25 26  1  0
 25 27  2  0
 27 28  1  0
 28 29  2  0
 29 30  1  0
 30 31  1  0
 31 32  1  0
 32 33  2  0
 33 34  1  0
 34 35  2  0
 35 36  1  0
 36 37  1  0
 36 38  2  0
 30 39  1  0
 39 40  2  0
 22 41  1  0
 41 42  1  0
 15 43  1  0
 43 44  2  0
 11  5  1  0
 44 12  1  0
 42 19  1  0
 40 23  1  0
 39 27  1  0
 38 32  1  0
M  END
>  <Binding energies>  (43) 
[-7.82]

>  <Ligand effiencies>  (43) 
[-0.16291666666666668]

>  <Interactions>  (43) 
["V-B:ALA:541:CB:9864, V-B:TYR:539:CD2:9846, V-A:LEU:475:CD2:4259, H-B:GLU:543:OE1:9881, V-A:ILE:369:CG2:3237, V-B:TYR:539:CE2:9848, V-B:PRO:540:C:9853, V-B:PRO:540:CA:9855, V-B:ILE:369:CD1:8211, V-A:TYR:539:CE1:4875, V-A:TYR:539:CD1:4873, V-B:ILE:369:CG2:8209, V-B:ARG:545:CZ:9898, V-B:LEU:475:CD2:9231, H-A:ALA:541:N:4891, V-B:GLY:454:CA:9021, V-A:TYR:539:C:4867, V-A:ASP:366:CG:3213, V-A:GLY:454:CA:4049, V-A:ILE:369:CD1:3239, V-A:GLY:453:C:4042, V-B:TYR:484:CZ:9319, H-B:ALA:541:N:9863, V-A:ASP:366:CB:3212, V-A:ASP:366:C:3208, V-A:ASP:366:CA:3210, V-A:ILE:369:CB:3236, V-B:TYR:539:CZ:9849, H-B:SER:385:OG:8382, H-B:SER:385:O:8378"]

$$$$
RR18_Rahimova_2017
     RDKit          3D

 36 41  0  0  0  0  0  0  0  0999 V2000
  127.2160  122.8780   58.3280 C   0  0  0  0  0  0  0  0  0  0  0  0
  127.7530  123.6790   59.4870 C   0  0  0  0  0  0  0  0  0  0  0  0
  127.2090  124.1450   60.6730 C   0  0  0  0  0  0  0  0  0  0  0  0
  128.2230  124.8340   61.3370 C   0  0  0  0  0  0  0  0  0  0  0  0
  129.3490  124.7650   60.5340 C   0  0  0  0  0  0  0  0  0  0  0  0
  130.7760  125.2920   60.6640 C   0  0  1  0  0  0  0  0  0  0  0  0
  131.8040  124.3280   60.0000 C   0  0  0  0  0  0  0  0  0  0  0  0
  132.0110  122.9860   60.5350 C   0  0  0  0  0  0  0  0  0  0  0  0
  133.0030  122.7000   61.2090 O   0  0  0  0  0  0  0  0  0  0  0  0
  131.0200  122.1120   60.2400 N   0  0  0  0  0  0  0  0  0  0  0  0
  130.8830  120.7450   60.5620 C   0  0  0  0  0  0  0  0  0  0  0  0
  131.7390  119.7420   60.0690 C   0  0  0  0  0  0  0  0  0  0  0  0
  131.5440  118.4080   60.4210 C   0  0  0  0  0  0  0  0  0  0  0  0
  130.4930  118.0530   61.2610 C   0  0  0  0  0  0  0  0  0  0  0  0
  129.6310  119.0330   61.7470 C   0  0  0  0  0  0  0  0  0  0  0  0
  129.8140  120.3760   61.4040 C   0  0  0  0  0  0  0  0  0  0  0  0
  128.8390  121.4100   61.9600 C   0  0  0  0  0  0  0  0  0  0  0  0
  132.4210  124.7270   58.8580 C   0  0  0  0  0  0  0  0  0  0  0  0
  132.3020  125.9650   58.3020 N   0  0  0  0  0  0  0  0  0  0  0  0
  131.6290  126.8690   58.9140 C   0  0  0  0  0  0  0  0  0  0  0  0
  131.5130  128.5360   58.4030 S   0  0  0  0  0  0  0  0  0  0  0  0
  130.4830  128.9500   59.8090 C   0  0  0  0  0  0  0  0  0  0  0  0
  129.9530  130.1840   60.1180 C   0  0  0  0  0  0  0  0  0  0  0  0
  130.2800  131.3590   59.2980 C   0  0  0  0  0  0  0  0  0  0  0  0
  130.9780  131.4510   58.2880 O   0  0  0  0  0  0  0  0  0  0  0  0
  129.6780  132.4150   59.8550 N   0  0  0  0  0  0  0  0  0  0  0  0
  128.9420  132.0880   60.9530 C   0  0  0  0  0  0  0  0  0  0  0  0
  128.1830  132.9380   61.7570 C   0  0  0  0  0  0  0  0  0  0  0  0
  127.4720  132.3970   62.8240 C   0  0  0  0  0  0  0  0  0  0  0  0
  127.5250  131.0240   63.0620 C   0  0  0  0  0  0  0  0  0  0  0  0
  128.2940  130.1940   62.2430 C   0  0  0  0  0  0  0  0  0  0  0  0
  129.0380  130.7250   61.1730 C   0  0  0  0  0  0  0  0  0  0  0  0
  130.3020  127.7380   60.6090 C   0  0  0  0  0  0  0  0  0  0  0  0
  129.6980  127.6500   61.6740 O   0  0  0  0  0  0  0  0  0  0  0  0
  130.9140  126.6600   60.0490 N   0  0  0  0  0  0  0  0  0  0  0  0
  129.0540  124.0610   59.4080 O   0  0  0  0  0  0  0  0  0  0  0  0
  1  2  1  0
  2  3  2  0
  3  4  1  0
  4  5  2  0
  6  5  1  6
  6  7  1  0
  7  8  1  0
  8  9  2  0
  8 10  1  0
 10 11  1  0
 11 12  2  0
 12 13  1  0
 13 14  2  0
 14 15  1  0
 15 16  2  0
 16 17  1  0
  7 18  2  0
 18 19  1  0
 19 20  2  0
 20 21  1  0
 21 22  1  0
 22 23  2  0
 23 24  1  0
 24 25  2  0
 24 26  1  0
 26 27  1  0
 27 28  2  0
 28 29  1  0
 29 30  2  0
 30 31  1  0
 31 32  2  0
 22 33  1  0
 33 34  2  0
 33 35  1  0
  5 36  1  0
 36  2  1  0
 35  6  1  0
 16 11  1  0
 35 20  1  0
 32 23  1  0
 32 27  1  0
M  END
>  <Binding energies>  (44) 
[-7.89]

>  <Ligand effiencies>  (44) 
[-0.20763157894736842]

>  <Interactions>  (44) 
["V-B:ALA:541:CB:9864, V-B:TYR:539:CD2:9846, V-A:PRO:482:CG:4327, V-A:PRO:482:CB:4326, V-B:TYR:539:C:9839, V-A:LEU:475:CD1:4258, V-A:LEU:475:CD2:4259, V-B:GLU:543:CD:9880, V-A:SER:385:CB:3409, V-B:TYR:539:CE2:9848, V-A:GLU:543:CD:4908, V-B:PRO:540:C:9853, V-B:ALA:541:CA:9862, V-B:PRO:540:CA:9855, V-A:PRO:540:CA:4883, V-A:ALA:541:CB:4892, V-A:PRO:540:C:4881, V-B:LEU:475:CD2:9231, V-A:TYR:539:C:4867, V-A:ASP:366:CG:3213, V-A:LEU:475:CG:4257, V-A:ASP:366:CB:3212, V-A:PRO:540:N:4884, V-B:PRO:540:N:9856, H-A:TYR:539:O:4868"]

$$$$
RR20_Rahimova_2017
     RDKit          3D

 38 43  0  0  0  0  0  0  0  0999 V2000
  133.8650  124.3710   75.9890 C   0  0  0  0  0  0  0  0  0  0  0  0
  133.0180  125.2450   75.0820 C   0  0  0  0  0  0  0  0  0  0  0  0
  133.6190  126.2590   74.3360 C   0  0  0  0  0  0  0  0  0  0  0  0
  132.8450  127.0570   73.4960 C   0  0  0  0  0  0  0  0  0  0  0  0
  131.4630  126.8550   73.4070 C   0  0  0  0  0  0  0  0  0  0  0  0
  130.6430  127.7190   72.4730 C   0  0  0  0  0  0  0  0  0  0  0  0
  130.8400  128.9360   72.5010 O   0  0  0  0  0  0  0  0  0  0  0  0
  129.7400  127.1290   71.6370 N   0  0  0  0  0  0  0  0  0  0  0  0
  128.6500  126.2830   72.1500 C   0  0  0  0  0  0  0  0  0  0  0  0
  127.7760  125.9400   70.9570 C   0  0  0  0  0  0  0  0  0  0  0  0
  128.2220  126.9260   69.9210 C   0  0  0  0  0  0  0  0  0  0  0  0
  127.7140  127.1480   68.6410 C   0  0  0  0  0  0  0  0  0  0  0  0
  128.3710  128.0060   67.7500 C   0  0  0  0  0  0  0  0  0  0  0  0
  127.8190  128.2520   66.3740 C   0  0  0  0  0  0  0  0  0  0  0  0
  128.6580  128.2510   65.3500 N   0  0  0  0  0  0  0  0  0  0  0  0
  128.0670  128.4540   64.2010 C   0  0  0  0  0  0  0  0  0  0  0  0
  128.6440  128.5090   62.9410 N   0  0  0  0  0  0  0  0  0  0  0  0
  128.1900  127.9150   61.8100 C   0  0  0  0  0  0  0  0  0  0  0  0
  127.1580  127.2450   61.7510 O   0  0  0  0  0  0  0  0  0  0  0  0
  129.0040  128.1130   60.5090 C   0  0  0  0  0  0  0  0  0  0  0  0
  130.2450  127.3180   60.4790 N   0  0  0  0  0  0  0  0  0  0  0  0
  130.3470  126.3930   61.6190 C   0  0  0  0  0  0  0  0  0  0  0  0
  131.7670  125.7870   61.6870 C   0  0  0  0  0  0  0  0  0  0  0  0
  132.2760  125.3030   60.3290 C   0  0  0  0  0  0  0  0  0  0  0  0
  133.4120  124.4920   60.2320 C   0  0  0  0  0  0  0  0  0  0  0  0
  133.8980  124.0830   58.9920 C   0  0  0  0  0  0  0  0  0  0  0  0
  133.2470  124.4820   57.8280 C   0  0  0  0  0  0  0  0  0  0  0  0
  132.1100  125.2820   57.9110 C   0  0  0  0  0  0  0  0  0  0  0  0
  131.6120  125.7010   59.1500 C   0  0  0  0  0  0  0  0  0  0  0  0
  130.3310  126.5310   59.2430 C   0  0  0  0  0  0  0  0  0  0  0  0
  126.3650  128.6830   64.3060 S   0  0  0  0  0  0  0  0  0  0  0  0
  126.4690  128.4960   66.0410 C   0  0  0  0  0  0  0  0  0  0  0  0
  125.2320  128.6290   66.9010 C   0  0  0  0  0  0  0  0  0  0  0  0
  129.5800  128.5930   68.1560 C   0  0  0  0  0  0  0  0  0  0  0  0
  130.1000  128.3580   69.4280 C   0  0  0  0  0  0  0  0  0  0  0  0
  129.3890  127.5660   70.3390 C   0  0  0  0  0  0  0  0  0  0  0  0
  130.8710  125.8170   74.1370 C   0  0  0  0  0  0  0  0  0  0  0  0
  131.6450  125.0180   74.9760 C   0  0  0  0  0  0  0  0  0  0  0  0
  1  2  1  0
  2  3  2  0
  3  4  1  0
  4  5  2  0
  5  6  1  0
  6  7  2  0
  6  8  1  0
  8  9  1  0
  9 10  1  0
 10 11  1  0
 11 12  2  0
 12 13  1  0
 13 14  1  0
 14 15  1  0
 15 16  2  0
 16 17  1  0
 17 18  1  0
 18 19  2  0
 18 20  1  0
 20 21  1  0
 21 22  1  0
 22 23  1  0
 23 24  1  0
 24 25  2  0
 25 26  1  0
 26 27  2  0
 27 28  1  0
 28 29  2  0
 29 30  1  0
 16 31  1  0
 31 32  1  0
 32 33  1  0
 13 34  2  0
 34 35  1  0
 35 36  2  0
  5 37  1  0
 37 38  2  0
 38  2  1  0
 36  8  1  0
 36 11  1  0
 32 14  2  0
 30 21  1  0
 29 24  1  0
M  END
>  <Binding energies>  (45) 
[-7.07]

>  <Ligand effiencies>  (45) 
[-0.1812820512820513]

>  <Interactions>  (45) 
["V-B:GLU:543:CD:9880, V-A:ILE:369:CG2:3237, V-B:TYR:539:CE2:9848, H-A:GLU:543:OE2:4910, V-A:GLU:543:CD:4908, H-A:GLU:543:OE1:4909, V-A:GLU:543:CG:4907, V-B:ARG:545:CZ:9898, V-B:ARG:545:CD:9895, V-B:HIS:456:CE1:9042, V-B:ARG:545:CG:9894, H-A:LYS:547:NZ:4951, V-A:VAL:458:CG2:4087, V-A:LYS:471:CG:4218, V-A:LYS:471:CB:4217, V-B:HIS:456:CD2:9040, V-A:HIS:456:CB:4065, V-A:HIS:456:CD2:4068, V-B:GLY:544:C:9884, V-A:HIS:456:C:4061, V-A:LYS:471:CD:4219, V-A:HIS:456:CG:4066, V-A:GLY:544:C:4912, V-A:HIS:456:CA:4063, V-A:ASP:366:CG:3213, V-A:ILE:369:CD1:3239, V-B:GLU:543:CB:9878, H-B:ARG:545:NH2:9900, V-A:ASP:366:CB:3212, V-A:HIS:456:CE1:4070, V-A:GLU:543:CB:4906, V-A:GLU:543:CA:4904, V-A:ASP:366:C:3208, V-A:ASP:366:CA:3210, V-A:ILE:369:CB:3236, V-A:GLU:543:C:4902, V-B:GLU:543:C:9874, V-B:TYR:539:CZ:9849"]

$$$$
RR21_Rahimova_2017
     RDKit          3D

 40 45  0  0  0  0  0  0  0  0999 V2000
  126.5840  127.0110   67.7330 C   0  0  0  0  0  0  0  0  0  0  0  0
  125.6380  127.9100   67.1630 O   0  0  0  0  0  0  0  0  0  0  0  0
  126.0020  128.6670   66.0650 C   0  0  0  0  0  0  0  0  0  0  0  0
  127.3310  128.9090   65.6770 C   0  0  0  0  0  0  0  0  0  0  0  0
  127.6130  129.6830   64.5530 C   0  0  0  0  0  0  0  0  0  0  0  0
  126.5790  130.2310   63.7850 C   0  0  0  0  0  0  0  0  0  0  0  0
  126.8850  131.0570   62.5740 C   0  0  0  0  0  0  0  0  0  0  0  0
  126.4470  132.2990   62.5000 N   0  0  0  0  0  0  0  0  0  0  0  0
  126.8670  132.7860   61.3230 N   0  0  0  0  0  0  0  0  0  0  0  0
  126.5840  134.1200   60.9290 C   0  0  0  0  0  0  0  0  0  0  0  0
  127.5320  135.1390   61.1110 C   0  0  0  0  0  0  0  0  0  0  0  0
  127.2440  136.4430   60.7160 C   0  0  0  0  0  0  0  0  0  0  0  0
  126.0090  136.7330   60.1400 C   0  0  0  0  0  0  0  0  0  0  0  0
  125.0590  135.7320   59.9570 C   0  0  0  0  0  0  0  0  0  0  0  0
  125.3440  134.4270   60.3510 C   0  0  0  0  0  0  0  0  0  0  0  0
  127.5960  131.8380   60.6510 C   0  0  0  0  0  0  0  0  0  0  0  0
  127.6210  130.6880   61.4250 C   0  0  0  0  0  0  0  0  0  0  0  0
  128.3080  129.4350   61.1510 C   0  0  0  0  0  0  0  0  0  0  0  0
  127.8210  128.1760   61.2410 C   0  0  0  0  0  0  0  0  0  0  0  0
  126.1890  127.6690   61.7320 S   0  0  0  0  0  0  0  0  0  0  0  0
  126.6460  125.9920   61.4680 C   0  0  0  0  0  0  0  0  0  0  0  0
  125.9090  124.9340   61.6120 N   0  0  0  0  0  0  0  0  0  0  0  0
  126.4020  123.6260   61.3520 C   0  0  0  0  0  0  0  0  0  0  0  0
  125.7630  122.5780   61.4440 O   0  0  0  0  0  0  0  0  0  0  0  0
  127.8420  123.5940   60.9190 C   0  0  0  0  0  0  0  0  0  0  0  0
  128.4890  122.2340   60.6280 C   0  0  0  0  0  0  0  0  0  0  0  0
  129.9940  122.1860   60.8850 C   0  0  0  0  0  0  0  0  0  0  0  0
  130.7490  121.1070   60.4180 C   0  0  0  0  0  0  0  0  0  0  0  0
  132.1240  121.0710   60.6370 C   0  0  0  0  0  0  0  0  0  0  0  0
  132.7480  122.1160   61.3220 C   0  0  0  0  0  0  0  0  0  0  0  0
  134.2480  122.0790   61.5470 C   0  0  0  0  0  0  0  0  0  0  0  0
  131.9960  123.2020   61.7790 C   0  0  0  0  0  0  0  0  0  0  0  0
  130.6220  123.2370   61.5600 C   0  0  0  0  0  0  0  0  0  0  0  0
  128.5660  124.6570   60.7850 N   0  0  0  0  0  0  0  0  0  0  0  0
  127.9500  125.8830   61.0630 N   0  0  0  0  0  0  0  0  0  0  0  0
  128.6600  127.0290   60.9210 C   0  0  0  0  0  0  0  0  0  0  0  0
  129.8430  127.0860   60.5660 O   0  0  0  0  0  0  0  0  0  0  0  0
  125.2560  129.9960   64.1730 C   0  0  0  0  0  0  0  0  0  0  0  0
  124.9710  129.2220   65.2990 C   0  0  0  0  0  0  0  0  0  0  0  0
  123.6800  129.0130   65.6470 F   0  0  0  0  0  0  0  0  0  0  0  0
  1  2  1  0
  2  3  1  0
  3  4  2  0
  4  5  1  0
  5  6  2  0
  6  7  1  0
  7  8  2  0
  8  9  1  0
  9 10  1  0
 10 11  2  0
 11 12  1  0
 12 13  2  0
 13 14  1  0
 14 15  2  0
  9 16  1  0
 16 17  2  0
 17 18  1  0
 18 19  2  0
 19 20  1  0
 20 21  1  0
 21 22  2  0
 22 23  1  0
 23 24  2  0
 23 25  1  0
 25 26  1  0
 26 27  1  0
 27 28  2  0
 28 29  1  0
 29 30  2  0
 30 31  1  0
 30 32  1  0
 32 33  2  0
 25 34  2  0
 34 35  1  0
 35 36  1  0
 36 37  2  0
  6 38  1  0
 38 39  2  0
 39 40  1  0
 39  3  1  0
 17  7  1  0
 36 19  1  0
 15 10  1  0
 35 21  1  0
 33 27  1  0
M  END
>  <Binding energies>  (46) 
[-8.37]

>  <Ligand effiencies>  (46) 
[-0.20925]

>  <Interactions>  (46) 
["V-B:TYR:539:CD2:9846, V-B:GLU:543:CG:9879, V-B:TYR:539:C:9839, V-A:LEU:475:CD2:4259, V-B:GLU:543:CD:9880, V-A:ILE:369:CG2:3237, V-B:TYR:539:CE2:9848, V-A:GLU:543:CD:4908, V-B:PRO:540:CA:9855, V-A:TYR:539:CE1:4875, V-A:ALA:541:CB:4892, V-A:TYR:539:CD1:4873, V-B:SER:385:CB:8381, V-A:GLU:543:CG:4907, V-B:ARG:545:CZ:9898, V-B:LEU:475:CD2:9231, H-B:ARG:545:NE:9896, V-B:GLY:453:C:9014, H-B:TYR:484:OH:9320, V-A:TYR:539:C:4867, V-B:GLY:453:CA:9016, V-B:ARG:545:CD:9895, V-B:HIS:456:CE1:9042, V-B:ARG:545:CG:9894, V-A:GLY:454:CA:4049, V-A:ILE:369:CD1:3239, H-B:HIS:456:ND1:9039, V-B:GLU:543:CB:9878, V-B:ASP:366:CG:8185, H-B:ALA:541:N:9863, V-B:PRO:482:CG:9299, V-B:PRO:482:CB:9298, H-B:ARG:545:NH2:9900"]

$$$$
RR23_Rahimova_2017
     RDKit          3D

 39 44  0  0  0  0  0  0  0  0999 V2000
  126.7900  136.3730   60.1110 C   0  0  0  0  0  0  0  0  0  0  0  0
  126.1020  135.1310   60.6470 C   0  0  0  0  0  0  0  0  0  0  0  0
  126.8450  134.1480   61.3010 C   0  0  0  0  0  0  0  0  0  0  0  0
  126.2110  133.0130   61.8000 C   0  0  0  0  0  0  0  0  0  0  0  0
  124.8310  132.8470   61.6390 C   0  0  0  0  0  0  0  0  0  0  0  0
  124.1580  131.6170   62.2070 C   0  0  0  0  0  0  0  0  0  0  0  0
  122.9280  131.6290   62.2950 O   0  0  0  0  0  0  0  0  0  0  0  0
  124.9220  130.5480   62.5810 N   0  0  0  0  0  0  0  0  0  0  0  0
  124.9380  130.0630   63.9710 C   0  0  0  0  0  0  0  0  0  0  0  0
  125.7710  128.7920   63.9700 C   0  0  0  0  0  0  0  0  0  0  0  0
  125.8520  128.4470   62.5140 C   0  0  0  0  0  0  0  0  0  0  0  0
  126.4210  127.3270   61.9060 C   0  0  0  0  0  0  0  0  0  0  0  0
  126.5390  127.2610   60.5100 C   0  0  0  0  0  0  0  0  0  0  0  0
  127.1590  126.0470   59.8010 C   0  0  2  0  0  0  0  0  0  0  0  0
  128.1410  125.3760   60.6250 N   0  0  0  0  0  0  0  0  0  0  0  0
  129.0700  124.8580   59.9270 C   0  0  0  0  0  0  0  0  0  0  0  0
  130.1660  124.1790   60.3610 N   0  0  0  0  0  0  0  0  0  0  0  0
  130.6030  124.0110   61.6330 C   0  0  0  0  0  0  0  0  0  0  0  0
  130.0370  124.4270   62.6460 O   0  0  0  0  0  0  0  0  0  0  0  0
  131.9210  123.2340   61.7830 C   0  0  0  0  0  0  0  0  0  0  0  0
  131.7500  121.8750   61.2220 N   0  0  0  0  0  0  0  0  0  0  0  0
  132.6840  121.5030   60.2640 N   0  0  0  0  0  0  0  0  0  0  0  0
  132.6430  120.3400   59.6950 N   0  0  0  0  0  0  0  0  0  0  0  0
  131.6440  119.4300   60.0470 C   0  0  0  0  0  0  0  0  0  0  0  0
  131.6270  118.1850   59.4130 C   0  0  0  0  0  0  0  0  0  0  0  0
  130.6400  117.2550   59.7430 C   0  0  0  0  0  0  0  0  0  0  0  0
  129.6730  117.5660   60.7000 C   0  0  0  0  0  0  0  0  0  0  0  0
  129.6870  118.8100   61.3340 C   0  0  0  0  0  0  0  0  0  0  0  0
  130.6780  119.7420   61.0050 C   0  0  0  0  0  0  0  0  0  0  0  0
  130.7090  121.0960   61.6770 C   0  0  0  0  0  0  0  0  0  0  0  0
  129.8890  121.4600   62.5240 O   0  0  0  0  0  0  0  0  0  0  0  0
  128.9540  125.0470   58.1530 S   0  0  0  0  0  0  0  0  0  0  0  0
  127.7410  126.3560   58.4020 C   0  0  2  0  0  0  0  0  0  0  0  0
  128.4350  127.7240   58.2270 C   0  0  0  0  0  0  0  0  0  0  0  0
  126.1230  128.3560   59.7440 C   0  0  0  0  0  0  0  0  0  0  0  0
  125.5730  129.4860   60.3530 C   0  0  0  0  0  0  0  0  0  0  0  0
  125.3840  129.5100   61.7410 C   0  0  0  0  0  0  0  0  0  0  0  0
  124.0870  133.8510   61.0060 C   0  0  0  0  0  0  0  0  0  0  0  0
  124.7210  134.9860   60.5080 C   0  0  0  0  0  0  0  0  0  0  0  0
  1  2  1  0
  2  3  2  0
  3  4  1  0
  4  5  2  0
  5  6  1  0
  6  7  2  0
  6  8  1  0
  8  9  1  0
  9 10  1  0
 10 11  1  0
 11 12  2  0
 12 13  1  0
 14 13  1  1
 14 15  1  0
 15 16  2  0
 16 17  1  0
 17 18  1  0
 18 19  2  0
 18 20  1  0
 20 21  1  0
 21 22  1  0
 22 23  2  0
 23 24  1  0
 24 25  2  0
 25 26  1  0
 26 27  2  0
 27 28  1  0
 28 29  2  0
 29 30  1  0
 30 31  2  0
 16 32  1  0
 32 33  1  0
 33 34  1  1
 13 35  2  0
 35 36  1  0
 36 37  2  0
  5 38  1  0
 38 39  2  0
 39  2  1  0
 37  8  1  0
 37 11  1  0
 33 14  1  0
 30 21  1  0
 29 24  1  0
M  END
>  <Binding energies>  (47) 
[-9.16]

>  <Ligand effiencies>  (47) 
[-0.229]

>  <Interactions>  (47) 
["V-B:ALA:541:CB:9864, V-B:TYR:539:CD2:9846, V-A:PRO:482:CG:4327, V-A:PRO:482:CB:4326, V-B:TYR:539:C:9839, V-A:LEU:475:CD1:4258, V-A:LEU:475:CD2:4259, V-A:SER:385:CB:3409, V-B:TYR:539:CE2:9848, H-A:TYR:484:OH:4348, V-B:ILE:369:CD1:8211, V-A:TYR:539:CE1:4875, V-A:ALA:541:CB:4892, V-B:SER:385:CA:8379, V-A:TYR:539:CD1:4873, V-B:SER:385:CB:8381, V-B:ILE:369:CG2:8209, V-B:ARG:545:CZ:9898, V-B:LEU:475:CD2:9231, H-B:GLY:454:N:9022, V-A:TYR:539:C:4867, V-B:ASP:366:CG:8185, V-B:TYR:539:CB:9843, V-A:TYR:539:CB:4871, V-B:TYR:539:CG:9844, V-A:TYR:539:CG:4872"]

$$$$
RR26_Rahimova_2017
     RDKit          3D

 38 44  0  0  0  0  0  0  0  0999 V2000
  132.7870  120.6680   59.6530 C   0  0  0  0  0  0  0  0  0  0  0  0
  131.7540  119.7120   60.2350 C   0  0  0  0  0  0  0  0  0  0  0  0
  131.9810  118.3370   60.1130 C   0  0  0  0  0  0  0  0  0  0  0  0
  131.0900  117.4170   60.6610 C   0  0  0  0  0  0  0  0  0  0  0  0
  129.9640  117.8650   61.3450 C   0  0  0  0  0  0  0  0  0  0  0  0
  129.7280  119.2320   61.4750 C   0  0  0  0  0  0  0  0  0  0  0  0
  130.6090  120.1740   60.9210 C   0  0  0  0  0  0  0  0  0  0  0  0
  130.2720  121.6270   61.0930 C   0  0  0  0  0  0  0  0  0  0  0  0
  129.1600  122.1630   60.5960 N   0  0  0  0  0  0  0  0  0  0  0  0
  129.2640  123.4060   60.9810 C   0  0  0  0  0  0  0  0  0  0  0  0
  128.3200  124.8380   60.8060 S   0  0  0  0  0  0  0  0  0  0  0  0
  129.5520  125.7410   61.7650 C   0  0  0  0  0  0  0  0  0  0  0  0
  129.5450  127.0510   62.0980 C   0  0  0  0  0  0  0  0  0  0  0  0
  128.5430  128.0530   61.7730 C   0  0  0  0  0  0  0  0  0  0  0  0
  127.1900  128.0410   62.0750 C   0  0  0  0  0  0  0  0  0  0  0  0
  126.6430  129.2100   61.6100 N   0  0  0  0  0  0  0  0  0  0  0  0
  125.2950  129.6440   61.6960 C   0  0  0  0  0  0  0  0  0  0  0  0
  124.6360  130.1660   60.5730 C   0  0  0  0  0  0  0  0  0  0  0  0
  123.3130  130.5910   60.6720 C   0  0  0  0  0  0  0  0  0  0  0  0
  122.6450  130.4920   61.8900 C   0  0  0  0  0  0  0  0  0  0  0  0
  123.2870  129.9720   63.0110 C   0  0  0  0  0  0  0  0  0  0  0  0
  124.6100  129.5490   62.9170 C   0  0  0  0  0  0  0  0  0  0  0  0
  127.5910  129.9770   61.0500 N   0  0  0  0  0  0  0  0  0  0  0  0
  128.7200  129.3020   61.1350 C   0  0  0  0  0  0  0  0  0  0  0  0
  129.9830  129.8890   60.5840 C   0  0  0  0  0  0  0  0  0  0  0  0
  130.7020  130.8450   61.3180 C   0  0  0  0  0  0  0  0  0  0  0  0
  131.8780  131.4010   60.8110 C   0  0  0  0  0  0  0  0  0  0  0  0
  132.3450  131.0030   59.5600 C   0  0  0  0  0  0  0  0  0  0  0  0
  131.6460  130.0340   58.8250 C   0  0  0  0  0  0  0  0  0  0  0  0
  130.4690  129.4850   59.3310 C   0  0  0  0  0  0  0  0  0  0  0  0
  132.0480  129.6420   57.5630 O   0  0  0  0  0  0  0  0  0  0  0  0
  133.4140  129.9460   57.2630 C   0  0  0  0  0  0  0  0  0  0  0  0
  133.7620  131.3860   57.7130 C   0  0  0  0  0  0  0  0  0  0  0  0
  133.5370  131.5410   59.1180 O   0  0  0  0  0  0  0  0  0  0  0  0
  130.6620  124.8900   62.1830 C   0  0  0  0  0  0  0  0  0  0  0  0
  131.6630  125.1840   62.8390 O   0  0  0  0  0  0  0  0  0  0  0  0
  130.3910  123.6050   61.6880 N   0  0  0  0  0  0  0  0  0  0  0  0
  131.0560  122.4490   61.7730 N   0  0  0  0  0  0  0  0  0  0  0  0
  1  2  1  0
  2  3  2  0
  3  4  1  0
  4  5  2  0
  5  6  1  0
  6  7  2  0
  7  8  1  0
  8  9  1  0
  9 10  2  0
 10 11  1  0
 11 12  1  0
 12 13  2  0
 13 14  1  0
 14 15  2  0
 15 16  1  0
 16 17  1  0
 17 18  2  0
 18 19  1  0
 19 20  2  0
 20 21  1  0
 21 22  2  0
 16 23  1  0
 23 24  2  0
 24 25  1  0
 25 26  2  0
 26 27  1  0
 27 28  2  0
 28 29  1  0
 29 30  2  0
 29 31  1  0
 31 32  1  0
 32 33  1  0
 33 34  1  0
 12 35  1  0
 35 36  2  0
 35 37  1  0
 37 38  1  0
  7  2  1  0
 38  8  2  0
 37 10  1  0
 24 14  1  0
 30 25  1  0
 22 17  1  0
 34 28  1  0
M  END
>  <Binding energies>  (48) 
[-8.11]

>  <Ligand effiencies>  (48) 
[-0.21342105263157893]

>  <Interactions>  (48) 
["V-B:ALA:541:CB:9864, V-B:TYR:539:CD2:9846, V-A:PRO:482:CG:4327, V-A:PRO:482:CB:4326, V-B:TYR:539:C:9839, V-A:LEU:475:CD1:4258, V-A:LEU:475:CD2:4259, V-A:SER:385:CB:3409, V-A:ILE:369:CG2:3237, V-B:TYR:539:CE2:9848, V-A:GLU:543:CD:4908, H-A:TYR:484:OH:4348, V-B:ILE:369:CD1:8211, V-A:PRO:540:CA:4883, V-B:ARG:545:CZ:9898, V-B:GLY:453:C:9014, V-B:GLY:453:CA:9016, V-A:PRO:540:CB:4885, V-A:ASP:366:CG:3213, V-A:LEU:475:CG:4257, V-B:ASP:366:CG:8185, V-A:ASP:366:CB:3212, V-B:ASP:366:CA:8182, V-B:ASP:366:CB:8184, V-A:LEU:363:CB:3187, V-A:LEU:363:CA:3185, H-A:ARG:545:NH2:4928, V-A:LEU:363:CD1:3189, V-A:TYR:531:CZ:4794, H-A:TYR:531:OH:4795, H-A:LEU:363:N:3186, V-A:LEU:363:CG:3188"]

$$$$
RR2_Rahimova_2017
     RDKit          3D

 46 50  0  0  0  0  0  0  0  0999 V2000
  129.7560  120.9010   61.6630 C   0  0  0  0  0  0  0  0  0  0  0  0
  130.0800  122.1630   62.2370 O   0  0  0  0  0  0  0  0  0  0  0  0
  129.2380  123.2380   62.0190 C   0  0  0  0  0  0  0  0  0  0  0  0
  127.9580  123.1400   61.4580 C   0  0  0  0  0  0  0  0  0  0  0  0
  127.1820  124.2810   61.2730 C   0  0  0  0  0  0  0  0  0  0  0  0
  127.6670  125.5440   61.6400 C   0  0  0  0  0  0  0  0  0  0  0  0
  126.8040  126.7720   61.4220 C   0  0  0  0  0  0  0  0  0  0  0  0
  126.2560  127.3260   62.3810 O   0  0  0  0  0  0  0  0  0  0  0  0
  126.6780  127.1840   60.1390 N   0  0  0  0  0  0  0  0  0  0  0  0
  125.8240  128.2490   59.8730 N   0  0  0  0  0  0  0  0  0  0  0  0
  125.9010  128.8410   58.6640 C   0  0  0  0  0  0  0  0  0  0  0  0
  126.7900  128.6340   57.8320 O   0  0  0  0  0  0  0  0  0  0  0  0
  124.7660  129.8200   58.3330 C   0  0  0  0  0  0  0  0  0  0  0  0
  124.6960  131.3100   59.3930 S   0  0  0  0  0  0  0  0  0  0  0  0
  124.7570  130.5730   60.9980 C   0  0  0  0  0  0  0  0  0  0  0  0
  123.7000  130.0920   61.6020 N   0  0  0  0  0  0  0  0  0  0  0  0
  124.0980  129.6620   62.8600 N   0  0  0  0  0  0  0  0  0  0  0  0
  125.3900  129.8720   62.9580 C   0  0  0  0  0  0  0  0  0  0  0  0
  126.1900  129.5210   64.1700 C   0  0  0  0  0  0  0  0  0  0  0  0
  127.4980  129.9960   64.3010 C   0  0  0  0  0  0  0  0  0  0  0  0
  128.2540  129.6680   65.4220 C   0  0  0  0  0  0  0  0  0  0  0  0
  127.7020  128.8740   66.4330 C   0  0  0  0  0  0  0  0  0  0  0  0
  128.4200  128.5030   67.5800 N   0  0  0  0  0  0  0  0  0  0  0  0
  128.2110  126.9690   68.4530 S   0  0  0  0  0  0  0  0  0  0  0  0
  129.0490  125.9880   67.7530 O   0  0  0  0  0  0  0  0  0  0  0  0
  126.7730  126.7390   68.6310 O   0  0  0  0  0  0  0  0  0  0  0  0
  128.9620  127.2370   70.0580 C   0  0  0  0  0  0  0  0  0  0  0  0
  128.4350  126.6290   71.2000 C   0  0  0  0  0  0  0  0  0  0  0  0
  129.0240  126.8630   72.4400 C   0  0  0  0  0  0  0  0  0  0  0  0
  130.1400  127.6980   72.5370 C   0  0  0  0  0  0  0  0  0  0  0  0
  130.7710  127.9630   73.8910 C   0  0  0  0  0  0  0  0  0  0  0  0
  130.6610  128.3070   71.3930 C   0  0  0  0  0  0  0  0  0  0  0  0
  130.0730  128.0760   70.1530 C   0  0  0  0  0  0  0  0  0  0  0  0
  126.3950  128.4020   66.3030 C   0  0  0  0  0  0  0  0  0  0  0  0
  125.6410  128.7250   65.1790 C   0  0  0  0  0  0  0  0  0  0  0  0
  125.8760  130.4580   61.8010 N   0  0  0  0  0  0  0  0  0  0  0  0
  127.1920  130.8820   61.5190 C   0  0  0  0  0  0  0  0  0  0  0  0
  128.1840  129.9400   61.2440 C   0  0  0  0  0  0  0  0  0  0  0  0
  129.4780  130.3660   60.9620 C   0  0  0  0  0  0  0  0  0  0  0  0
  129.7940  131.7260   60.9540 C   0  0  0  0  0  0  0  0  0  0  0  0
  131.1050  132.0510   60.6650 O   0  0  0  0  0  0  0  0  0  0  0  0
  132.0820  131.0160   60.6100 C   0  0  0  0  0  0  0  0  0  0  0  0
  128.7890  132.6670   61.2320 C   0  0  0  0  0  0  0  0  0  0  0  0
  127.4920  132.2470   61.5130 C   0  0  0  0  0  0  0  0  0  0  0  0
  128.9470  125.6340   62.2070 C   0  0  0  0  0  0  0  0  0  0  0  0
  129.7210  124.4910   62.3920 C   0  0  0  0  0  0  0  0  0  0  0  0
  1  2  1  0
  2  3  1  0
  3  4  2  0
  4  5  1  0
  5  6  2  0
  6  7  1  0
  7  8  2  0
  7  9  1  0
  9 10  1  0
 10 11  1  0
 11 12  2  0
 11 13  1  0
 13 14  1  0
 14 15  1  0
 15 16  2  0
 16 17  1  0
 17 18  2  0
 18 19  1  0
 19 20  2  0
 20 21  1  0
 21 22  2  0
 22 23  1  0
 23 24  1  0
 24 25  2  0
 24 26  2  0
 24 27  1  0
 27 28  2  0
 28 29  1  0
 29 30  2  0
 30 31  1  0
 30 32  1  0
 32 33  2  0
 22 34  1  0
 34 35  2  0
 18 36  1  0
 36 37  1  0
 37 38  2  0
 38 39  1  0
 39 40  2  0
 40 41  1  0
 41 42  1  0
 40 43  1  0
 43 44  2  0
  6 45  1  0
 45 46  2  0
 46  3  1  0
 36 15  1  0
 44 37  1  0
 35 19  1  0
 33 27  1  0
M  END
>  <Binding energies>  (49) 
[-9.3]

>  <Ligand effiencies>  (49) 
[-0.18979591836734697]

>  <Interactions>  (49) 
["V-B:ALA:541:CB:9864, V-A:LEU:475:CD2:4259, V-B:GLU:543:CD:9880, V-A:GLU:543:CD:4908, H-A:TYR:484:OH:4348, V-A:PRO:540:CA:4883, V-A:ALA:541:CB:4892, V-A:GLU:543:CG:4907, V-B:ARG:545:CZ:9898, H-A:ALA:541:N:4891, H-B:ARG:545:NH1:9899, V-B:HIS:456:CE1:9042, V-A:PRO:540:CB:4885, V-B:HIS:456:CD2:9040, V-A:LYS:547:CE:4950, V-A:HIS:456:CD2:4068, V-A:GLY:544:C:4912, V-B:GLU:543:CB:9878, V-B:TYR:484:CZ:9319, V-B:ASP:366:CG:8185, H-B:ARG:545:NH2:9900, V-B:ASP:366:CA:8182, V-B:ASP:366:CB:8184, V-A:HIS:456:CE1:4070, V-A:GLU:543:CB:4906, H-B:ASP:366:OD2:8187, H-B:ASP:366:OD1:8186, V-A:GLY:544:CA:4914, H-B:HIS:456:NE2:9043, H-A:GLU:543:O:4903"]

$$$$
RR33_Rahimova_2017
     RDKit          3D

 18 19  0  0  0  0  0  0  0  0999 V2000
  122.9880  129.6260   67.1070 C   0  0  0  0  0  0  0  0  0  0  0  0
  124.1550  129.3090   66.1660 C   0  0  0  0  0  0  0  0  0  0  0  0
  123.7550  129.5960   64.8290 O   0  0  0  0  0  0  0  0  0  0  0  0
  124.7000  130.0220   63.9160 C   0  0  0  0  0  0  0  0  0  0  0  0
  125.9750  129.4700   64.0370 C   0  0  0  0  0  0  0  0  0  0  0  0
  126.9940  129.8420   63.1640 C   0  0  0  0  0  0  0  0  0  0  0  0
  126.7500  130.7750   62.1510 C   0  0  0  0  0  0  0  0  0  0  0  0
  127.8450  131.1740   61.2150 C   0  0  0  0  0  0  0  0  0  0  0  0
  129.1340  131.2330   61.4650 N   0  0  0  0  0  0  0  0  0  0  0  0
  129.6920  131.6330   60.3340 C   0  0  0  0  0  0  0  0  0  0  0  0
  131.1920  131.8100   60.2260 C   0  0  0  0  0  0  0  0  0  0  0  0
  131.8180  131.6910   61.5340 N   0  0  0  0  0  0  0  0  0  0  0  0
  133.1580  131.1390   61.4140 C   0  0  0  0  0  0  0  0  0  0  0  0
  128.7100  131.8230   59.3700 C   0  0  0  0  0  0  0  0  0  0  0  0
  128.6940  132.2540   57.9240 C   0  0  0  0  0  0  0  0  0  0  0  0
  127.5210  131.5260   59.9430 O   0  0  0  0  0  0  0  0  0  0  0  0
  125.4720  131.3280   62.0240 C   0  0  0  0  0  0  0  0  0  0  0  0
  124.4530  130.9570   62.8980 C   0  0  0  0  0  0  0  0  0  0  0  0
  1  2  1  0
  2  3  1  0
  3  4  1  0
  4  5  2  0
  5  6  1  0
  6  7  2  0
  7  8  1  0
  8  9  2  0
  9 10  1  0
 10 11  1  0
 11 12  1  0
 12 13  1  0
 10 14  2  0
 14 15  1  0
 14 16  1  0
  7 17  1  0
 17 18  2  0
 18  4  1  0
 16  8  1  0
M  END
>  <Binding energies>  (50) 
[-5.13]

>  <Ligand effiencies>  (50) 
[-0.27]

>  <Interactions>  (50) 
["H-A:GLU:543:OE1:4909, V-A:PRO:540:CA:4883, V-A:TYR:539:CD1:4873, V-B:ARG:545:CZ:9898, V-A:PRO:540:C:4881, H-A:ALA:541:N:4891, H-B:GLY:454:N:9022, V-B:ILE:455:CA:9026, H-B:ARG:545:NE:9896, V-B:GLY:453:C:9014, H-B:TYR:484:OH:9320, V-A:ASN:362:CB:3176, V-B:GLY:454:C:9019, V-B:ILE:455:C:9024, V-B:GLY:454:CA:9021, V-A:TYR:539:C:4867, V-B:GLY:453:CA:9016, V-B:ARG:545:CD:9895, H-B:ARG:545:NH1:9899, V-B:HIS:456:CE1:9042, V-B:ARG:545:CG:9894, V-B:ARG:545:CB:9893, V-A:PRO:540:CB:4885"]

$$$$
RR3_Rahimova_2017
     RDKit          3D

 38 44  0  0  0  0  0  0  0  0999 V2000
  131.2510  120.9440   60.6480 C   0  0  0  0  0  0  0  0  0  0  0  0
  131.8100  122.1720   60.3090 C   0  0  0  0  0  0  0  0  0  0  0  0
  131.1260  123.3470   60.6090 C   0  0  0  0  0  0  0  0  0  0  0  0
  129.8790  123.3110   61.2510 C   0  0  0  0  0  0  0  0  0  0  0  0
  129.1460  124.5750   61.5740 C   0  0  0  0  0  0  0  0  0  0  0  0
  127.8570  124.8080   61.0740 C   0  0  0  0  0  0  0  0  0  0  0  0
  127.1770  125.9860   61.3710 C   0  0  0  0  0  0  0  0  0  0  0  0
  127.7750  126.9630   62.1720 C   0  0  0  0  0  0  0  0  0  0  0  0
  127.0510  128.2330   62.4910 C   0  0  0  0  0  0  0  0  0  0  0  0
  126.4930  128.9430   61.5170 N   0  0  0  0  0  0  0  0  0  0  0  0
  125.9000  129.9630   62.0890 C   0  0  0  0  0  0  0  0  0  0  0  0
  125.1570  131.0070   61.3870 C   0  0  0  0  0  0  0  0  0  0  0  0
  123.8980  130.8690   60.8270 C   0  0  0  0  0  0  0  0  0  0  0  0
  123.5020  132.0500   60.2570 N   0  0  0  0  0  0  0  0  0  0  0  0
  124.4840  133.0020   60.4200 C   0  0  0  0  0  0  0  0  0  0  0  0
  124.5360  134.3390   60.0130 C   0  0  0  0  0  0  0  0  0  0  0  0
  125.6890  135.0540   60.3330 C   0  0  0  0  0  0  0  0  0  0  0  0
  126.7460  134.4710   61.0240 C   0  0  0  0  0  0  0  0  0  0  0  0
  126.6940  133.1390   61.4300 C   0  0  0  0  0  0  0  0  0  0  0  0
  125.5530  132.3730   61.1320 C   0  0  0  0  0  0  0  0  0  0  0  0
  126.0730  129.9320   63.4450 N   0  0  0  0  0  0  0  0  0  0  0  0
  126.8360  128.8330   63.7440 C   0  0  0  0  0  0  0  0  0  0  0  0
  127.2800  128.5080   65.1320 C   0  0  0  0  0  0  0  0  0  0  0  0
  128.6200  128.6580   65.4920 C   0  0  0  0  0  0  0  0  0  0  0  0
  129.0400  128.3430   66.7800 C   0  0  0  0  0  0  0  0  0  0  0  0
  128.1310  127.8760   67.7410 C   0  0  0  0  0  0  0  0  0  0  0  0
  128.5900  127.5200   69.1200 C   0  0  0  0  0  0  0  0  0  0  0  0
  129.7510  128.0930   69.6620 C   0  0  0  0  0  0  0  0  0  0  0  0
  130.1750  127.7640   70.9480 C   0  0  0  0  0  0  0  0  0  0  0  0
  129.4400  126.8590   71.7060 C   0  0  0  0  0  0  0  0  0  0  0  0
  128.2860  126.2810   71.1890 C   0  0  0  0  0  0  0  0  0  0  0  0
  127.8650  126.6090   69.9040 C   0  0  0  0  0  0  0  0  0  0  0  0
  126.7850  127.7460   67.3720 C   0  0  0  0  0  0  0  0  0  0  0  0
  126.3620  128.0600   66.0830 C   0  0  0  0  0  0  0  0  0  0  0  0
  129.0530  126.7340   62.6850 C   0  0  0  0  0  0  0  0  0  0  0  0
  129.7310  125.5560   62.3850 C   0  0  0  0  0  0  0  0  0  0  0  0
  129.3350  122.0610   61.5820 C   0  0  0  0  0  0  0  0  0  0  0  0
  130.0160  120.8840   61.2840 C   0  0  0  0  0  0  0  0  0  0  0  0
  1  2  2  0
  2  3  1  0
  3  4  2  0
  4  5  1  0
  5  6  2  0
  6  7  1  0
  7  8  2  0
  8  9  1  0
  9 10  1  0
 10 11  2  0
 11 12  1  0
 12 13  2  0
 13 14  1  0
 14 15  1  0
 15 16  2  0
 16 17  1  0
 17 18  2  0
 18 19  1  0
 19 20  2  0
 11 21  1  0
 21 22  1  0
 22 23  1  0
 23 24  2  0
 24 25  1  0
 25 26  2  0
 26 27  1  0
 27 28  2  0
 28 29  1  0
 29 30  2  0
 30 31  1  0
 31 32  2  0
 26 33  1  0
 33 34  2  0
  8 35  1  0
 35 36  2  0
  4 37  1  0
 37 38  2  0
 38  1  1  0
 36  5  1  0
 22  9  2  0
 34 23  1  0
 20 12  1  0
 32 27  1  0
 20 15  1  0
M  END
>  <Binding energies>  (51) 
[-8.0]

>  <Ligand effiencies>  (51) 
[-0.2]

>  <Interactions>  (51) 
["V-B:ALA:541:CB:9864, V-B:TYR:539:CD2:9846, V-A:LEU:475:CD2:4259, V-B:GLU:543:CD:9880, V-B:TYR:539:CE2:9848, V-A:GLU:543:CD:4908, V-B:ILE:369:CD1:8211, V-A:TYR:539:CE1:4875, V-A:TYR:539:CD1:4873, V-A:GLU:543:CG:4907, V-B:ILE:369:CG2:8209, V-B:LEU:475:CD2:9231, H-B:TYR:484:OH:9320, V-B:HIS:456:CE1:9042, V-B:ARG:545:CG:9894, V-B:HIS:456:CD2:9040, V-A:HIS:456:CD2:4068, V-B:GLY:544:C:9884, V-A:HIS:456:CG:4066, V-A:GLY:544:C:4912, V-B:GLU:543:CB:9878, V-B:ILE:369:CG1:8210, V-B:ILE:369:CB:8208, V-A:HIS:456:CE1:4070, V-A:GLU:543:CB:4906, V-B:GLU:543:C:9874"]

$$$$
RR4_Rahimova_2017
     RDKit          3D

 40 44  0  0  0  0  0  0  0  0999 V2000
  134.0240  123.2270   61.7240 C   0  0  0  0  0  0  0  0  0  0  0  0
  133.8710  124.4070   62.5040 O   0  0  0  0  0  0  0  0  0  0  0  0
  132.6900  125.1200   62.4250 C   0  0  0  0  0  0  0  0  0  0  0  0
  132.2550  125.4690   61.1480 C   0  0  0  0  0  0  0  0  0  0  0  0
  131.0760  126.1850   60.9710 C   0  0  0  0  0  0  0  0  0  0  0  0
  130.2950  126.5770   62.0680 C   0  0  0  0  0  0  0  0  0  0  0  0
  129.0230  127.3510   61.8740 C   0  0  0  0  0  0  0  0  0  0  0  0
  128.1660  127.6780   62.9300 C   0  0  0  0  0  0  0  0  0  0  0  0
  126.9920  128.4060   62.6970 C   0  0  0  0  0  0  0  0  0  0  0  0
  126.1400  128.7430   63.8780 C   0  0  0  0  0  0  0  0  0  0  0  0
  124.8460  129.2390   63.6910 C   0  0  0  0  0  0  0  0  0  0  0  0
  124.0420  129.5450   64.7860 C   0  0  0  0  0  0  0  0  0  0  0  0
  124.5110  129.3550   66.0850 C   0  0  0  0  0  0  0  0  0  0  0  0
  123.6430  129.6840   67.1080 O   0  0  0  0  0  0  0  0  0  0  0  0
  122.2740  129.3050   67.0070 C   0  0  0  0  0  0  0  0  0  0  0  0
  125.8070  128.8520   66.2770 C   0  0  0  0  0  0  0  0  0  0  0  0
  126.6090  128.5470   65.1810 C   0  0  0  0  0  0  0  0  0  0  0  0
  126.6800  128.7770   61.3660 C   0  0  0  0  0  0  0  0  0  0  0  0
  125.4650  129.5410   61.0670 C   0  0  0  0  0  0  0  0  0  0  0  0
  124.5050  130.1430   60.8310 N   0  0  0  0  0  0  0  0  0  0  0  0
  127.5760  128.3880   60.3440 C   0  0  0  0  0  0  0  0  0  0  0  0
  127.3380  128.7560   58.6180 S   0  0  0  0  0  0  0  0  0  0  0  0
  126.2960  127.4380   57.9070 C   0  0  0  0  0  0  0  0  0  0  0  0
  126.6100  126.0280   58.4250 C   0  0  0  0  0  0  0  0  0  0  0  0
  125.7590  125.1370   58.3710 O   0  0  0  0  0  0  0  0  0  0  0  0
  127.8530  125.8770   58.9380 N   0  0  0  0  0  0  0  0  0  0  0  0
  128.4350  124.7280   59.4800 C   0  0  0  0  0  0  0  0  0  0  0  0
  129.9850  124.1170   58.9670 S   0  0  0  0  0  0  0  0  0  0  0  0
  129.8920  122.7870   60.0800 C   0  0  0  0  0  0  0  0  0  0  0  0
  128.6990  122.8150   60.8190 C   0  0  0  0  0  0  0  0  0  0  0  0
  127.8830  123.9240   60.4890 C   0  0  0  0  0  0  0  0  0  0  0  0
  126.5980  124.1950   61.1280 C   0  0  0  0  0  0  0  0  0  0  0  0
  125.5790  124.4090   61.6340 N   0  0  0  0  0  0  0  0  0  0  0  0
  128.3980  121.7670   61.8970 C   0  0  0  0  0  0  0  0  0  0  0  0
  129.6840  121.0080   62.2940 C   0  0  0  0  0  0  0  0  0  0  0  0
  130.5020  120.5700   61.0670 C   0  0  0  0  0  0  0  0  0  0  0  0
  131.0180  121.7760   60.2540 C   0  0  0  0  0  0  0  0  0  0  0  0
  128.7200  127.7120   60.6010 N   0  0  0  0  0  0  0  0  0  0  0  0
  130.7390  126.2170   63.3510 C   0  0  0  0  0  0  0  0  0  0  0  0
  131.9190  125.5010   63.5310 C   0  0  0  0  0  0  0  0  0  0  0  0
  1  2  1  0
  2  3  1  0
  3  4  2  0
  4  5  1  0
  5  6  2  0
  6  7  1  0
  7  8  2  0
  8  9  1  0
  9 10  1  0
 10 11  2  0
 11 12  1  0
 12 13  2  0
 13 14  1  0
 14 15  1  0
 13 16  1  0
 16 17  2  0
  9 18  2  0
 18 19  1  0
 19 20  3  0
 18 21  1  0
 21 22  1  0
 22 23  1  0
 23 24  1  0
 24 25  2  0
 24 26  1  0
 26 27  1  0
 27 28  1  0
 28 29  1  0
 29 30  2  0
 30 31  1  0
 31 32  1  0
 32 33  3  0
 30 34  1  0
 34 35  1  0
 35 36  1  0
 36 37  1  0
 21 38  2  0
  6 39  1  0
 39 40  2  0
 40  3  1  0
 38  7  1  0
 17 10  1  0
 31 27  2  0
 37 29  1  0
M  END
>  <Binding energies>  (52) 
[-7.97]

>  <Ligand effiencies>  (52) 
[-0.19439024390243903]

>  <Interactions>  (52) 
["V-B:ALA:541:CB:9864, V-B:TYR:539:CD2:9846, V-A:TYR:484:CE1:4345, V-A:LEU:475:CD2:4259, V-B:GLU:543:CD:9880, V-B:TYR:539:CE2:9848, V-A:GLU:543:CD:4908, V-B:PRO:540:C:9853, V-B:ALA:541:CA:9862, V-B:PRO:540:CA:9855, V-A:ARG:545:CZ:4926, H-A:TYR:484:OH:4348, V-B:ARG:545:CZ:9898, H-B:GLY:454:N:9022, V-B:GLY:453:C:9014, H-B:TYR:484:OH:9320, V-B:ILE:455:C:9024, V-B:GLY:453:CA:9016, V-B:ARG:545:CD:9895, V-B:HIS:456:CE1:9042, V-B:ARG:545:CG:9894, V-B:ARG:545:CB:9893, V-A:ASP:366:CG:3213, V-A:GLY:454:CA:4049, V-A:ILE:369:CD1:3239, V-A:GLY:453:C:4042, H-B:HIS:456:ND1:9039, V-B:TYR:484:CZ:9319, V-B:ASP:366:CG:8185, H-B:ARG:545:NH2:9900, H-B:ILE:455:N:9027, H-A:GLY:454:N:4050, H-B:TYR:531:OH:9767, V-B:TYR:539:CZ:9849, V-B:VAL:452:C:9006, V-B:VAL:452:CG2:9012"]

$$$$
RR6_Rahimova_2017
     RDKit          3D

 38 41  0  0  0  0  0  0  0  0999 V2000
  131.6630  121.8220   61.7110 C   0  0  0  0  0  0  0  0  0  0  0  0
  130.5090  121.5120   62.4790 O   0  0  0  0  0  0  0  0  0  0  0  0
  129.3450  121.1540   61.8790 C   0  0  0  0  0  0  0  0  0  0  0  0
  128.9830  119.9810   61.7420 O   0  0  0  0  0  0  0  0  0  0  0  0
  128.5400  122.3260   61.3970 C   0  0  0  0  0  0  0  0  0  0  0  0
  127.2840  122.6390   61.9390 C   0  0  0  0  0  0  0  0  0  0  0  0
  126.5580  123.7300   61.4650 C   0  0  0  0  0  0  0  0  0  0  0  0
  127.0780  124.5260   60.4340 C   0  0  0  0  0  0  0  0  0  0  0  0
  126.4180  125.6300   59.8630 N   0  0  0  0  0  0  0  0  0  0  0  0
  126.3870  126.0370   58.5750 C   0  0  0  0  0  0  0  0  0  0  0  0
  126.9510  125.4760   57.6360 O   0  0  0  0  0  0  0  0  0  0  0  0
  125.6290  127.3420   58.3110 C   0  0  0  0  0  0  0  0  0  0  0  0
  126.4620  128.8220   58.9770 S   0  0  0  0  0  0  0  0  0  0  0  0
  127.2120  128.3400   60.5180 C   0  0  0  0  0  0  0  0  0  0  0  0
  126.4860  128.6610   61.6160 N   0  0  0  0  0  0  0  0  0  0  0  0
  126.9410  128.3190   62.8470 C   0  0  0  0  0  0  0  0  0  0  0  0
  126.0490  128.6560   64.0060 C   0  0  0  0  0  0  0  0  0  0  0  0
  124.8100  129.2840   63.8040 C   0  0  0  0  0  0  0  0  0  0  0  0
  123.9880  129.6090   64.8800 C   0  0  0  0  0  0  0  0  0  0  0  0
  124.3890  129.3060   66.1810 C   0  0  0  0  0  0  0  0  0  0  0  0
  123.4940  129.6710   67.3510 C   0  0  0  0  0  0  0  0  0  0  0  0
  125.6130  128.6810   66.4020 C   0  0  0  0  0  0  0  0  0  0  0  0
  126.4300  128.3580   65.3230 C   0  0  0  0  0  0  0  0  0  0  0  0
  128.1590  127.6480   62.9990 C   0  0  0  0  0  0  0  0  0  0  0  0
  128.9310  127.3080   61.8790 C   0  0  0  0  0  0  0  0  0  0  0  0
  130.2110  126.5770   62.1110 C   0  0  0  0  0  0  0  0  0  0  0  0
  131.0550  126.2770   61.0370 C   0  0  0  0  0  0  0  0  0  0  0  0
  132.2580  125.6090   61.2470 C   0  0  0  0  0  0  0  0  0  0  0  0
  132.6450  125.2340   62.5330 C   0  0  0  0  0  0  0  0  0  0  0  0
  133.8550  124.5780   62.6460 O   0  0  0  0  0  0  0  0  0  0  0  0
  134.2520  123.6720   61.6220 C   0  0  0  0  0  0  0  0  0  0  0  0
  131.8040  125.5370   63.6150 C   0  0  0  0  0  0  0  0  0  0  0  0
  130.6020  126.2050   63.4010 C   0  0  0  0  0  0  0  0  0  0  0  0
  128.4490  127.6690   60.5960 C   0  0  0  0  0  0  0  0  0  0  0  0
  129.2200  127.3700   59.3840 C   0  0  0  0  0  0  0  0  0  0  0  0
  129.8270  127.1320   58.4280 N   0  0  0  0  0  0  0  0  0  0  0  0
  128.3340  124.2290   59.9050 C   0  0  0  0  0  0  0  0  0  0  0  0
  129.0560  123.1360   60.3780 C   0  0  0  0  0  0  0  0  0  0  0  0
  1  2  1  0
  2  3  1  0
  3  4  2  0
  3  5  1  0
  5  6  2  0
  6  7  1  0
  7  8  2  0
  8  9  1  0
  9 10  1  0
 10 11  2  0
 10 12  1  0
 12 13  1  0
 13 14  1  0
 14 15  2  0
 15 16  1  0
 16 17  1  0
 17 18  2  0
 18 19  1  0
 19 20  2  0
 20 21  1  0
 20 22  1  0
 22 23  2  0
 16 24  2  0
 24 25  1  0
 25 26  1  0
 26 27  2  0
 27 28  1  0
 28 29  2  0
 29 30  1  0
 30 31  1  0
 29 32  1  0
 32 33  2  0
 25 34  2  0
 34 35  1  0
 35 36  3  0
  8 37  1  0
 37 38  2  0
 38  5  1  0
 34 14  1  0
 23 17  1  0
 33 26  1  0
M  END
>  <Binding energies>  (53) 
[-8.11]

>  <Ligand effiencies>  (53) 
[-0.20794871794871794]

>  <Interactions>  (53) 
["V-B:ALA:541:CB:9864, V-A:TYR:484:CZ:4347, V-A:LEU:475:CD2:4259, V-B:GLU:543:CD:9880, V-A:GLU:543:CD:4908, V-B:PRO:540:C:9853, V-B:ALA:541:CA:9862, V-B:PRO:540:CA:9855, V-A:ARG:545:CZ:4926, H-A:TYR:484:OH:4348, V-B:ARG:545:CZ:9898, V-B:GLY:453:C:9014, V-B:ILE:455:C:9024, V-B:GLY:454:CA:9021, V-B:GLY:453:CA:9016, V-B:ARG:545:CD:9895, V-B:HIS:456:CE1:9042, V-B:ARG:545:CG:9894, V-B:ARG:545:CB:9893, V-A:ASP:366:CG:3213, V-A:GLY:454:CA:4049, V-A:ILE:369:CD1:3239, V-A:GLY:453:CA:4044, V-A:GLY:453:C:4042, V-B:TYR:484:CE1:9317, V-B:TYR:484:CZ:9319, V-B:ASP:366:CG:8185, H-B:ALA:541:N:9863, V-B:ASP:366:CB:8184, H-A:GLY:454:N:4050, H-B:TYR:531:OH:9767, H-B:ASP:366:OD2:8187, H-A:ARG:545:NH2:4928"]

$$$$
RR7_Rahimova_2017
     RDKit          3D

 47 53  0  0  0  0  0  0  0  0999 V2000
  133.9280  125.1250   65.4210 C   0  0  0  0  0  0  0  0  0  0  0  0
  133.8060  125.4580   64.0410 O   0  0  0  0  0  0  0  0  0  0  0  0
  132.8460  124.8200   63.2780 C   0  0  0  0  0  0  0  0  0  0  0  0
  133.2670  123.7090   62.5500 C   0  0  0  0  0  0  0  0  0  0  0  0
  132.3710  123.0000   61.7570 C   0  0  0  0  0  0  0  0  0  0  0  0
  131.0280  123.3940   61.6640 C   0  0  0  0  0  0  0  0  0  0  0  0
  129.9930  122.5980   60.8090 C   0  0  0  0  0  0  0  0  0  0  0  0
  130.1970  123.0080   59.4380 O   0  0  0  0  0  0  0  0  0  0  0  0
  129.8350  124.3290   59.0230 C   0  0  0  0  0  0  0  0  0  0  0  0
  131.0900  125.0570   58.5160 C   0  0  1  0  0  0  0  0  0  0  0  0
  130.6820  126.3700   58.1400 O   0  0  0  0  0  0  0  0  0  0  0  0
  131.3710  127.3560   58.8530 C   0  0  1  0  0  0  0  0  0  0  0  0
  130.5130  128.5050   59.0720 N   0  0  0  0  0  0  0  0  0  0  0  0
  129.2550  128.7420   58.5470 C   0  0  0  0  0  0  0  0  0  0  0  0
  128.7170  129.8910   58.8740 N   0  0  0  0  0  0  0  0  0  0  0  0
  129.6820  130.4990   59.6310 C   0  0  0  0  0  0  0  0  0  0  0  0
  129.7280  131.7540   60.2690 C   0  0  0  0  0  0  0  0  0  0  0  0
  128.6100  132.6030   60.1710 N   0  0  0  0  0  0  0  0  0  0  0  0
  127.7310  132.9680   61.1340 C   0  0  0  0  0  0  0  0  0  0  0  0
  127.7750  132.5730   62.3010 O   0  0  0  0  0  0  0  0  0  0  0  0
  126.6230  133.9000   60.6900 C   0  0  0  0  0  0  0  0  0  0  0  0
  125.3680  133.3720   60.3470 C   0  0  0  0  0  0  0  0  0  0  0  0
  124.3340  134.2100   59.9410 C   0  0  0  0  0  0  0  0  0  0  0  0
  124.5430  135.5840   59.8800 C   0  0  0  0  0  0  0  0  0  0  0  0
  125.7790  136.1280   60.2200 C   0  0  0  0  0  0  0  0  0  0  0  0
  126.8150  135.2900   60.6250 C   0  0  0  0  0  0  0  0  0  0  0  0
  130.8540  132.1120   60.9570 N   0  0  0  0  0  0  0  0  0  0  0  0
  131.8840  131.2270   60.9910 C   0  0  0  0  0  0  0  0  0  0  0  0
  131.9440  129.9950   60.4180 N   0  0  0  0  0  0  0  0  0  0  0  0
  130.8260  129.6690   59.7570 C   0  0  0  0  0  0  0  0  0  0  0  0
  131.8590  126.6670   60.1220 C   0  0  0  0  0  0  0  0  0  0  0  0
  132.1790  125.2870   59.5730 C   0  0  2  0  0  0  0  0  0  0  0  0
  133.4860  125.2220   59.0270 O   0  0  0  0  0  0  0  0  0  0  0  0
  130.2350  121.0660   60.8640 C   0  0  0  0  0  0  0  0  0  0  0  0
  131.3570  120.5030   60.2340 C   0  0  0  0  0  0  0  0  0  0  0  0
  131.5760  119.1300   60.2650 C   0  0  0  0  0  0  0  0  0  0  0  0
  130.6750  118.3030   60.9280 C   0  0  0  0  0  0  0  0  0  0  0  0
  129.5560  118.8390   61.5590 C   0  0  0  0  0  0  0  0  0  0  0  0
  129.3370  120.2130   61.5260 C   0  0  0  0  0  0  0  0  0  0  0  0
  128.5000  122.7990   61.1930 C   0  0  0  0  0  0  0  0  0  0  0  0
  127.5520  123.1330   60.2120 C   0  0  0  0  0  0  0  0  0  0  0  0
  126.2160  123.3240   60.5480 C   0  0  0  0  0  0  0  0  0  0  0  0
  125.8130  123.1920   61.8740 C   0  0  0  0  0  0  0  0  0  0  0  0
  126.7370  122.8750   62.8640 C   0  0  0  0  0  0  0  0  0  0  0  0
  128.0730  122.6840   62.5270 C   0  0  0  0  0  0  0  0  0  0  0  0
  130.6060  124.5040   62.4110 C   0  0  0  0  0  0  0  0  0  0  0  0
  131.5030  125.2130   63.2050 C   0  0  0  0  0  0  0  0  0  0  0  0
  1  2  1  0
  2  3  1  0
  3  4  2  0
  4  5  1  0
  5  6  2  0
  6  7  1  0
  7  8  1  0
  8  9  1  0
 10  9  1  1
 10 11  1  0
 11 12  1  0
 12 13  1  1
 13 14  1  0
 14 15  2  0
 15 16  1  0
 16 17  2  0
 17 18  1  0
 18 19  1  0
 19 20  2  0
 19 21  1  0
 21 22  2  0
 22 23  1  0
 23 24  2  0
 24 25  1  0
 25 26  2  0
 17 27  1  0
 27 28  2  0
 28 29  1  0
 29 30  2  0
 12 31  1  0
 31 32  1  0
 32 33  1  6
  7 34  1  0
 34 35  2  0
 35 36  1  0
 36 37  2  0
 37 38  1  0
 38 39  2  0
  7 40  1  0
 40 41  2  0
 41 42  1  0
 42 43  2  0
 43 44  1  0
 44 45  2  0
  6 46  1  0
 46 47  2  0
 47  3  1  0
 32 10  1  0
 39 34  1  0
 45 40  1  0
 30 13  1  0
 30 16  1  0
 26 21  1  0
M  END
>  <Binding energies>  (54) 
[-8.92]

>  <Ligand effiencies>  (54) 
[-0.1820408163265306]

>  <Interactions>  (54) 
["V-B:ALA:541:CB:9864, V-B:TYR:539:CD2:9846, V-B:GLU:543:CG:9879, V-A:TYR:484:CZ:4347, V-A:PRO:482:CG:4327, V-A:PRO:482:CB:4326, V-B:TYR:539:C:9839, V-A:LEU:475:CD1:4258, V-A:LEU:475:CD2:4259, V-B:GLU:543:CD:9880, V-A:SER:385:CB:3409, V-B:TYR:539:CE2:9848, V-B:PRO:540:C:9853, V-B:ALA:541:CA:9862, V-B:PRO:540:CA:9855, V-A:ARG:545:CZ:4926, H-A:TYR:484:OH:4348, V-A:TYR:539:CE1:4875, V-A:PRO:540:CA:4883, V-A:ALA:541:CB:4892, V-B:SER:385:CA:8379, V-A:TYR:539:CD1:4873, V-B:SER:385:CB:8381, V-B:ILE:369:CG2:8209, V-B:LEU:475:CD2:9231, H-A:ALA:541:N:4891, V-A:PRO:540:CB:4885, H-A:ASP:366:OD1:3214, V-A:ASP:366:CG:3213, V-A:LEU:475:CG:4257, V-A:GLY:454:CA:4049, V-A:GLY:453:CA:4044, V-A:GLY:453:C:4042, H-A:ASP:366:OD2:3215, V-A:ASP:366:CB:3212, V-A:ARG:545:CG:4922, H-A:GLY:454:N:4050, V-A:ARG:545:CD:4923, H-A:ARG:545:NE:4924, V-A:TYR:484:CE2:4346, V-B:PRO:540:CB:9857, H-A:ARG:545:NH1:4927, H-A:ARG:545:NH2:4928, H-A:TYR:539:O:4868"]

$$$$
RR8_A_Rahimova_2017
     RDKit          3D

 42 46  0  0  0  0  0  0  0  0999 V2000
  128.2390  127.8540   60.0230 O   0  0  0  0  0  0  0  0  0  0  0  0
  128.3100  127.3510   61.1490 C   0  0  0  0  0  0  0  0  0  0  0  0
  127.2600  127.2650   62.0250 O   0  0  0  0  0  0  0  0  0  0  0  0
  127.0590  128.3380   62.9020 C   0  0  1  0  0  0  0  0  0  0  0  0
  127.6350  128.0970   64.1530 O   0  0  0  0  0  0  0  0  0  0  0  0
  128.2200  129.2740   64.7040 C   0  0  2  0  0  0  0  0  0  0  0  0
  127.6050  129.5240   66.0920 C   0  0  0  0  0  0  0  0  0  0  0  0
  127.7030  128.3300   66.8570 O   0  0  0  0  0  0  0  0  0  0  0  0
  129.0320  127.9860   67.2240 C   0  0  0  0  0  0  0  0  0  0  0  0
  129.1050  127.7330   68.7220 C   0  0  0  0  0  0  0  0  0  0  0  0
  128.2130  126.8420   69.3230 C   0  0  0  0  0  0  0  0  0  0  0  0
  128.2820  126.6040   70.6940 C   0  0  0  0  0  0  0  0  0  0  0  0
  129.2460  127.2560   71.4600 C   0  0  0  0  0  0  0  0  0  0  0  0
  130.1440  128.1420   70.8680 C   0  0  0  0  0  0  0  0  0  0  0  0
  130.0760  128.3790   69.4970 C   0  0  0  0  0  0  0  0  0  0  0  0
  127.9300  130.3520   63.6500 C   0  0  1  0  0  0  0  0  0  0  0  0
  129.0100  131.2660   63.4720 O   0  0  0  0  0  0  0  0  0  0  0  0
  128.9090  132.1290   62.3450 C   0  0  0  0  0  0  0  0  0  0  0  0
  129.9690  131.7640   61.3150 C   0  0  0  0  0  0  0  0  0  0  0  0
  131.2820  131.5170   61.7290 C   0  0  0  0  0  0  0  0  0  0  0  0
  132.2580  131.1920   60.7920 C   0  0  0  0  0  0  0  0  0  0  0  0
  131.9210  131.1180   59.4410 C   0  0  0  0  0  0  0  0  0  0  0  0
  130.6180  131.3700   59.0200 C   0  0  0  0  0  0  0  0  0  0  0  0
  129.6410  131.6960   59.9570 C   0  0  0  0  0  0  0  0  0  0  0  0
  127.7960  129.5570   62.3640 C   0  0  2  0  0  0  0  0  0  0  0  0
  127.0540  130.2930   61.3940 O   0  0  0  0  0  0  0  0  0  0  0  0
  125.6960  130.5560   61.7270 C   0  0  0  0  0  0  0  0  0  0  0  0
  125.3340  131.9810   61.3360 C   0  0  0  0  0  0  0  0  0  0  0  0
  124.0830  132.5070   61.6740 C   0  0  0  0  0  0  0  0  0  0  0  0
  123.7590  133.8150   61.3220 C   0  0  0  0  0  0  0  0  0  0  0  0
  124.6880  134.5950   60.6370 C   0  0  0  0  0  0  0  0  0  0  0  0
  125.9380  134.0800   60.3010 C   0  0  0  0  0  0  0  0  0  0  0  0
  126.2620  132.7720   60.6520 C   0  0  0  0  0  0  0  0  0  0  0  0
  129.5720  126.7530   61.6990 C   0  0  0  0  0  0  0  0  0  0  0  0
  129.6270  126.1840   62.9810 C   0  0  0  0  0  0  0  0  0  0  0  0
  130.8140  125.6380   63.4630 C   0  0  0  0  0  0  0  0  0  0  0  0
  131.9750  125.6490   62.6790 C   0  0  0  0  0  0  0  0  0  0  0  0
  133.2380  125.0660   63.1930 N   0  0  0  0  0  0  0  0  0  0  0  0
  133.5000  125.1880   64.3860 O   0  0  0  0  0  0  0  0  0  0  0  0
  133.9780  124.4800   62.4070 O   0  0  0  0  0  0  0  0  0  0  0  0
  131.9200  126.2190   61.4010 C   0  0  0  0  0  0  0  0  0  0  0  0
  130.7350  126.7650   60.9170 C   0  0  0  0  0  0  0  0  0  0  0  0
  1  2  2  0
  2  3  1  0
  4  3  1  6
  4  5  1  0
  5  6  1  0
  6  7  1  1
  7  8  1  0
  8  9  1  0
  9 10  1  0
 10 11  2  0
 11 12  1  0
 12 13  2  0
 13 14  1  0
 14 15  2  0
  6 16  1  0
 16 17  1  6
 17 18  1  0
 18 19  1  0
 19 20  2  0
 20 21  1  0
 21 22  2  0
 22 23  1  0
 23 24  2  0
 16 25  1  0
 25 26  1  6
 26 27  1  0
 27 28  1  0
 28 29  2  0
 29 30  1  0
 30 31  2  0
 31 32  1  0
 32 33  2  0
  2 34  1  0
 34 35  2  0
 35 36  1  0
 36 37  2  0
 37 38  1  0
 38 39  2  0
 38 40  1  0
 37 41  1  0
 41 42  2  0
 25  4  1  0
 33 28  1  0
 42 34  1  0
 15 10  1  0
 24 19  1  0
M  CHG  2  38   1  40  -1
M  END
>  <Binding energies>  (55) 
[-8.56]

>  <Ligand effiencies>  (55) 
[-0.20380952380952383]

>  <Interactions>  (55) 
["V-B:GLU:543:CD:9880, V-A:GLU:543:CD:4908, V-A:ARG:545:CZ:4926, H-A:TYR:484:OH:4348, V-B:SER:385:C:8377, V-B:ILE:369:CD1:8211, V-A:TYR:539:CE1:4875, V-A:PRO:540:CA:4883, V-A:ALA:541:CB:4892, V-B:SER:385:CA:8379, V-A:TYR:539:CD1:4873, V-A:GLU:543:CG:4907, V-B:ILE:369:CG2:8209, V-B:LEU:475:CD2:9231, V-A:ALA:541:CA:4890, V-B:HIS:456:CE1:9042, V-A:PRO:540:CB:4885, V-B:HIS:456:CD2:9040, V-A:HIS:456:CD2:4068, V-A:GLY:544:C:4912, V-A:ASP:366:CG:3213, V-B:GLU:543:CB:9878, V-B:TYR:484:CZ:9319, H-B:ARG:545:NH2:9900, H-A:GLY:454:N:4050, H-A:ARG:545:NE:4924, V-A:HIS:456:CE1:4070, V-A:GLU:543:CB:4906, V-B:TYR:484:CE2:9318, H-A:ARG:545:NH2:4928, V-A:GLU:543:C:4902"]

$$$$
RR8_B_Rahimova_2017
     RDKit          3D

 42 46  0  0  0  0  0  0  0  0999 V2000
  130.1190  125.2200   60.6710 O   0  0  0  0  0  0  0  0  0  0  0  0
  130.2290  125.9280   61.6770 C   0  0  0  0  0  0  0  0  0  0  0  0
  129.4900  127.0530   61.9140 O   0  0  0  0  0  0  0  0  0  0  0  0
  128.2010  126.8990   62.4570 C   0  0  2  0  0  0  0  0  0  0  0  0
  127.5300  125.8030   61.9030 O   0  0  0  0  0  0  0  0  0  0  0  0
  126.7560  126.1850   60.7660 C   0  0  2  0  0  0  0  0  0  0  0  0
  127.2120  125.3760   59.5390 C   0  0  0  0  0  0  0  0  0  0  0  0
  126.4160  124.2030   59.4310 O   0  0  0  0  0  0  0  0  0  0  0  0
  126.1850  123.5210   60.6550 C   0  0  0  0  0  0  0  0  0  0  0  0
  127.4830  122.8780   61.1220 C   0  0  0  0  0  0  0  0  0  0  0  0
  128.3930  122.3890   60.1810 C   0  0  0  0  0  0  0  0  0  0  0  0
  129.5710  121.7780   60.6020 C   0  0  0  0  0  0  0  0  0  0  0  0
  129.8360  121.6590   61.9650 C   0  0  0  0  0  0  0  0  0  0  0  0
  128.9360  122.1500   62.9090 C   0  0  0  0  0  0  0  0  0  0  0  0
  127.7570  122.7590   62.4880 C   0  0  0  0  0  0  0  0  0  0  0  0
  126.9530  127.7030   60.6660 C   0  0  1  0  0  0  0  0  0  0  0  0
  125.7450  128.3200   60.2120 O   0  0  0  0  0  0  0  0  0  0  0  0
  125.8490  129.6490   59.6940 C   0  0  0  0  0  0  0  0  0  0  0  0
  125.1910  130.6780   60.6070 C   0  0  0  0  0  0  0  0  0  0  0  0
  123.9590  130.3990   61.2050 C   0  0  0  0  0  0  0  0  0  0  0  0
  123.3770  131.3270   62.0640 C   0  0  0  0  0  0  0  0  0  0  0  0
  124.0260  132.5340   62.3180 C   0  0  0  0  0  0  0  0  0  0  0  0
  125.2520  132.8210   61.7220 C   0  0  0  0  0  0  0  0  0  0  0  0
  125.8370  131.8900   60.8660 C   0  0  0  0  0  0  0  0  0  0  0  0
  127.3430  128.1070   62.0830 C   0  0  2  0  0  0  0  0  0  0  0  0
  128.0590  129.3390   62.0690 O   0  0  0  0  0  0  0  0  0  0  0  0
  128.2360  129.9610   63.3330 C   0  0  0  0  0  0  0  0  0  0  0  0
  127.0760  129.5570   64.2270 C   0  0  0  0  0  0  0  0  0  0  0  0
  125.7660  129.9010   63.8830 C   0  0  0  0  0  0  0  0  0  0  0  0
  124.7130  129.5420   64.7210 C   0  0  0  0  0  0  0  0  0  0  0  0
  124.9730  128.8430   65.8980 C   0  0  0  0  0  0  0  0  0  0  0  0
  126.2770  128.4960   66.2460 C   0  0  0  0  0  0  0  0  0  0  0  0
  127.3300  128.8540   65.4090 C   0  0  0  0  0  0  0  0  0  0  0  0
  131.2290  125.6590   62.7650 C   0  0  0  0  0  0  0  0  0  0  0  0
  130.8920  125.7690   64.1220 C   0  0  0  0  0  0  0  0  0  0  0  0
  131.8400  125.5220   65.1080 C   0  0  0  0  0  0  0  0  0  0  0  0
  133.1510  125.1700   64.7650 C   0  0  0  0  0  0  0  0  0  0  0  0
  134.1690  124.9330   65.8180 N   0  0  0  0  0  0  0  0  0  0  0  0
  135.3510  125.1290   65.5500 O   0  0  0  0  0  0  0  0  0  0  0  0
  133.7930  124.5530   66.9250 O   0  0  0  0  0  0  0  0  0  0  0  0
  133.4860  125.0540   63.4090 C   0  0  0  0  0  0  0  0  0  0  0  0
  132.5360  125.2930   62.4220 C   0  0  0  0  0  0  0  0  0  0  0  0
  1  2  2  0
  2  3  1  0
  4  3  1  6
  4  5  1  0
  5  6  1  0
  6  7  1  6
  7  8  1  0
  8  9  1  0
  9 10  1  0
 10 11  2  0
 11 12  1  0
 12 13  2  0
 13 14  1  0
 14 15  2  0
  6 16  1  0
 16 17  1  1
 17 18  1  0
 18 19  1  0
 19 20  2  0
 20 21  1  0
 21 22  2  0
 22 23  1  0
 23 24  2  0
 16 25  1  0
 25 26  1  6
 26 27  1  0
 27 28  1  0
 28 29  2  0
 29 30  1  0
 30 31  2  0
 31 32  1  0
 32 33  2  0
  2 34  1  0
 34 35  2  0
 35 36  1  0
 36 37  2  0
 37 38  1  0
 38 39  2  0
 38 40  1  0
 37 41  1  0
 41 42  2  0
 25  4  1  0
 33 28  1  0
 42 34  1  0
 15 10  1  0
 24 19  1  0
M  CHG  2  38   1  40  -1
M  END
>  <Binding energies>  (56) 
[-8.35]

>  <Ligand effiencies>  (56) 
[-0.1988095238095238]

>  <Interactions>  (56) 
["V-B:ALA:541:CB:9864, V-B:TYR:539:CD2:9846, V-B:GLU:543:CG:9879, V-A:TYR:484:CZ:4347, V-A:TYR:484:CE1:4345, V-B:TYR:539:C:9839, V-A:LEU:475:CD2:4259, V-B:GLU:543:CD:9880, V-B:TYR:539:CE2:9848, V-A:GLU:543:CD:4908, V-B:PRO:540:C:9853, V-B:PRO:540:CA:9855, V-A:ARG:545:CZ:4926, H-A:TYR:484:OH:4348, V-B:ILE:369:CD1:8211, V-A:GLU:543:CG:4907, V-B:ARG:545:CZ:9898, V-B:LEU:475:CD2:9231, V-B:GLY:453:C:9014, V-B:GLY:454:CA:9021, V-B:ARG:545:CD:9895, V-B:HIS:456:CE1:9042, V-B:ARG:545:CG:9894, V-A:GLY:454:CA:4049, V-A:GLY:453:CA:4044, V-A:GLY:453:C:4042, V-B:ASP:366:CG:8185, V-A:ARG:545:CG:4922, H-A:GLY:454:N:4050, V-A:ARG:545:CD:4923, H-A:ARG:545:NE:4924, V-A:ILE:455:C:4052, V-A:TYR:484:CE2:4346, V-B:PRO:540:CB:9857, H-A:ARG:545:NH1:4927, V-B:PRO:540:N:9856, H-A:HIS:456:ND1:4067, H-A:ILE:455:N:4055, V-A:GLY:454:C:4047, H-A:GLY:453:N:4045"]

$$$$
RR9_Rahimova_2017
     RDKit          3D

 36 40  0  0  0  0  0  0  0  0999 V2000
  129.2710  127.7930   72.8410 C   0  0  0  0  0  0  0  0  0  0  0  0
  130.2580  128.3230   71.7960 C   0  0  0  0  0  0  0  0  0  0  0  0
  130.2900  127.4170   70.6960 O   0  0  0  0  0  0  0  0  0  0  0  0
  129.5030  127.6680   69.5890 C   0  0  0  0  0  0  0  0  0  0  0  0
  129.7430  128.8620   68.9100 C   0  0  0  0  0  0  0  0  0  0  0  0
  128.9980  129.2000   67.7850 C   0  0  0  0  0  0  0  0  0  0  0  0
  127.9890  128.3520   67.3050 C   0  0  0  0  0  0  0  0  0  0  0  0
  127.1800  128.7130   66.0950 C   0  0  0  0  0  0  0  0  0  0  0  0
  127.7830  128.9440   64.8490 C   0  0  0  0  0  0  0  0  0  0  0  0
  127.0180  129.2700   63.7140 C   0  0  0  0  0  0  0  0  0  0  0  0
  127.7120  129.4060   62.3860 C   0  0  0  0  0  0  0  0  0  0  0  0
  127.9790  128.4070   61.7180 O   0  0  0  0  0  0  0  0  0  0  0  0
  128.0270  130.6630   62.0150 N   0  0  0  0  0  0  0  0  0  0  0  0
  128.8140  131.0400   60.8370 C   0  0  0  0  0  0  0  0  0  0  0  0
  129.8520  129.9660   60.4340 C   0  0  0  0  0  0  0  0  0  0  0  0
  131.2640  130.4970   60.2130 C   0  0  0  0  0  0  0  0  0  0  0  0
  131.8150  130.5130   58.9280 C   0  0  0  0  0  0  0  0  0  0  0  0
  133.0920  131.0300   58.7250 C   0  0  0  0  0  0  0  0  0  0  0  0
  133.8160  131.5240   59.8080 C   0  0  0  0  0  0  0  0  0  0  0  0
  133.2750  131.5070   61.0920 C   0  0  0  0  0  0  0  0  0  0  0  0
  131.9970  130.9910   61.2960 C   0  0  0  0  0  0  0  0  0  0  0  0
  125.6200  129.3840   63.9120 C   0  0  0  0  0  0  0  0  0  0  0  0
  124.4380  129.7130   63.1500 C   0  0  0  0  0  0  0  0  0  0  0  0
  124.3180  130.1670   61.7330 C   0  0  0  0  0  0  0  0  0  0  0  0
  123.5350  131.2800   61.4150 C   0  0  0  0  0  0  0  0  0  0  0  0
  123.4120  131.6930   60.0900 C   0  0  0  0  0  0  0  0  0  0  0  0
  124.0760  130.9960   59.0790 C   0  0  0  0  0  0  0  0  0  0  0  0
  123.9270  131.4340   57.6330 C   0  0  0  0  0  0  0  0  0  0  0  0
  124.8570  129.8830   59.3930 C   0  0  0  0  0  0  0  0  0  0  0  0
  124.9810  129.4740   60.7170 C   0  0  0  0  0  0  0  0  0  0  0  0
  123.3610  129.5890   63.8940 N   0  0  0  0  0  0  0  0  0  0  0  0
  123.7510  129.2510   65.1330 N   0  0  0  0  0  0  0  0  0  0  0  0
  125.1180  129.1230   65.2090 C   0  0  0  0  0  0  0  0  0  0  0  0
  125.8340  128.8030   66.2860 N   0  0  0  0  0  0  0  0  0  0  0  0
  127.7520  127.1540   67.9940 C   0  0  0  0  0  0  0  0  0  0  0  0
  128.4980  126.8120   69.1200 C   0  0  0  0  0  0  0  0  0  0  0  0
  1  2  1  0
  2  3  1  0
  3  4  1  0
  4  5  2  0
  5  6  1  0
  6  7  2  0
  7  8  1  0
  8  9  2  0
  9 10  1  0
 10 11  1  0
 11 12  2  0
 11 13  1  0
 13 14  1  0
 14 15  1  0
 15 16  1  0
 16 17  2  0
 17 18  1  0
 18 19  2  0
 19 20  1  0
 20 21  2  0
 10 22  2  0
 22 23  1  0
 23 24  1  0
 24 25  2  0
 25 26  1  0
 26 27  2  0
 27 28  1  0
 27 29  1  0
 29 30  2  0
 23 31  2  0
 31 32  1  0
 32 33  1  0
 33 34  2  0
  7 35  1  0
 35 36  2  0
 36  4  1  0
 34  8  1  0
 21 16  1  0
 33 22  1  0
 30 24  1  0
M  END
>  <Binding energies>  (57) 
[-7.91]

>  <Ligand effiencies>  (57) 
[-0.2081578947368421]

>  <Interactions>  (57) 
["V-B:GLU:543:CD:9880, V-A:GLU:543:CD:4908, V-B:ILE:369:CD1:8211, V-A:TYR:539:CE1:4875, V-A:PRO:540:CA:4883, V-A:GLU:543:CG:4907, V-B:ILE:369:CG2:8209, V-B:ARG:545:CZ:9898, H-B:GLY:454:N:9022, H-B:ARG:545:NE:9896, V-B:GLY:453:C:9014, H-B:TYR:484:OH:9320, V-A:ASN:362:CB:3176, V-B:GLY:453:CA:9016, V-B:ARG:545:CD:9895, H-B:ARG:545:NH1:9899, V-B:HIS:456:CE1:9042, V-A:PRO:540:CB:4885, V-B:HIS:456:CD2:9040, V-A:HIS:456:CD2:4068, V-A:GLY:544:C:4912, V-A:ASP:366:CG:3213, V-B:GLU:543:CB:9878, V-B:ASP:366:CG:8185, H-B:ARG:545:NH2:9900, V-B:ILE:369:CG1:8210, V-B:ILE:369:CB:8208, V-A:ASP:366:CB:3212, V-B:ASP:366:CA:8182, V-B:ASP:366:CB:8184, V-A:HIS:456:CE1:4070, V-A:ASN:362:C:3172, V-A:GLU:543:CB:4906, V-A:TYR:539:CZ:4877, V-A:GLU:543:CA:4904, V-A:LEU:363:CA:3185, V-A:GLU:543:C:4902, V-A:GLY:544:CA:4914, H-A:HIS:456:ND1:4067"]

$$$$
