1a_Ghoteimi_2023
     RDKit          3D

 67 70  0  0  0  0  0  0  0  0999 V2000
  134.1540  127.3040   74.1470 C   0  0  0  0  0  0  0  0  0  0  0  0
  133.1130  126.4260   74.8480 C   0  0  0  0  0  0  0  0  0  0  0  0
  131.8370  127.0490   74.7630 O   0  0  0  0  0  0  0  0  0  0  0  0
  130.7680  126.3910   74.2470 C   0  0  0  0  0  0  0  0  0  0  0  0
  130.1890  125.4690   74.8310 O   0  0  0  0  0  0  0  0  0  0  0  0
  130.3540  126.9010   72.8970 C   0  0  0  0  0  0  0  0  0  0  0  0
  129.1180  126.5670   72.3240 C   0  0  0  0  0  0  0  0  0  0  0  0
  128.7630  127.0520   71.0680 C   0  0  0  0  0  0  0  0  0  0  0  0
  129.6410  127.8880   70.3610 C   0  0  0  0  0  0  0  0  0  0  0  0
  129.3880  128.4300   69.0870 N   0  0  0  0  0  0  0  0  0  0  0  0
  128.8390  127.8540   67.9950 C   0  0  0  0  0  0  0  0  0  0  0  0
  128.4280  126.6960   67.9270 O   0  0  0  0  0  0  0  0  0  0  0  0
  128.7300  128.7520   66.7630 C   0  0  0  0  0  0  0  0  0  0  0  0
  127.1100  128.5950   65.9570 S   0  0  0  0  0  0  0  0  0  0  0  0
  127.4370  128.4210   64.2170 C   0  0  0  0  0  0  0  0  0  0  0  0
  128.5600  127.7180   63.9370 N   0  0  0  0  0  0  0  0  0  0  0  0
  128.9210  127.5090   62.6430 C   0  0  0  0  0  0  0  0  0  0  0  0
  130.1660  126.7030   62.4150 C   0  0  0  0  0  0  0  0  0  0  0  0
  130.7190  126.5610   61.1310 C   0  0  0  0  0  0  0  0  0  0  0  0
  131.8740  125.8140   60.9220 C   0  0  0  0  0  0  0  0  0  0  0  0
  132.5120  125.1830   61.9870 C   0  0  0  0  0  0  0  0  0  0  0  0
  133.6540  124.4640   61.6880 O   0  0  0  0  0  0  0  0  0  0  0  0
  133.8580  124.0090   60.3550 C   0  0  0  0  0  0  0  0  0  0  0  0
  131.9710  125.3110   63.2740 C   0  0  0  0  0  0  0  0  0  0  0  0
  130.8160  126.0590   63.4790 C   0  0  0  0  0  0  0  0  0  0  0  0
  128.1420  128.0170   61.5960 C   0  0  0  0  0  0  0  0  0  0  0  0
  126.9900  128.7690   61.8620 C   0  0  0  0  0  0  0  0  0  0  0  0
  126.2260  129.3050   60.6950 C   0  0  0  0  0  0  0  0  0  0  0  0
  125.9520  128.4990   59.5850 C   0  0  0  0  0  0  0  0  0  0  0  0
  125.2260  129.0020   58.5090 C   0  0  0  0  0  0  0  0  0  0  0  0
  124.7550  130.3150   58.5220 C   0  0  0  0  0  0  0  0  0  0  0  0
  124.0450  130.7260   57.4120 O   0  0  0  0  0  0  0  0  0  0  0  0
  123.0460  131.7290   57.5580 C   0  0  0  0  0  0  0  0  0  0  0  0
  125.0210  131.1240   59.6380 C   0  0  0  0  0  0  0  0  0  0  0  0
  125.7480  130.6190   60.7130 C   0  0  0  0  0  0  0  0  0  0  0  0
  126.6180  128.9780   63.2120 C   0  0  0  0  0  0  0  0  0  0  0  0
  125.4140  129.7430   63.5520 C   0  0  0  0  0  0  0  0  0  0  0  0
  124.4640  130.3470   63.8190 N   0  0  0  0  0  0  0  0  0  0  0  0
  130.8730  128.2180   70.9260 C   0  0  0  0  0  0  0  0  0  0  0  0
  131.2270  127.7320   72.1830 C   0  0  0  0  0  0  0  0  0  0  0  0
  134.7660  127.8202   74.9013 H   0  0  0  0  0  0  0  0  0  0  0  0
  134.8008  126.6746   73.5181 H   0  0  0  0  0  0  0  0  0  0  0  0
  133.6427  128.0477   73.5181 H   0  0  0  0  0  0  0  0  0  0  0  0
  133.0742  125.4413   74.3593 H   0  0  0  0  0  0  0  0  0  0  0  0
  133.3906  126.2986   75.9047 H   0  0  0  0  0  0  0  0  0  0  0  0
  128.4220  125.9152   72.8725 H   0  0  0  0  0  0  0  0  0  0  0  0
  127.7920  126.7792   70.6288 H   0  0  0  0  0  0  0  0  0  0  0  0
  129.6300  129.4060   69.0000 H   0  0  0  0  0  0  0  0  0  0  0  0
  128.8750  129.7981   67.0706 H   0  0  0  0  0  0  0  0  0  0  0  0
  129.5020  128.4415   66.0435 H   0  0  0  0  0  0  0  0  0  0  0  0
  130.2297  127.0494   60.2754 H   0  0  0  0  0  0  0  0  0  0  0  0
  132.2868  125.7210   59.9067 H   0  0  0  0  0  0  0  0  0  0  0  0
  134.3080  123.0054   60.3749 H   0  0  0  0  0  0  0  0  0  0  0  0
  132.8923  123.9675   59.8299 H   0  0  0  0  0  0  0  0  0  0  0  0
  134.5314  124.7024   59.8299 H   0  0  0  0  0  0  0  0  0  0  0  0
  132.4621  124.8177   64.1258 H   0  0  0  0  0  0  0  0  0  0  0  0
  130.4042  126.1474   64.4952 H   0  0  0  0  0  0  0  0  0  0  0  0
  128.4375  127.8237   60.5542 H   0  0  0  0  0  0  0  0  0  0  0  0
  126.3129  127.4601   59.5622 H   0  0  0  0  0  0  0  0  0  0  0  0
  125.0219  128.3583   57.6407 H   0  0  0  0  0  0  0  0  0  0  0  0
  122.8637  131.9120   58.6272 H   0  0  0  0  0  0  0  0  0  0  0  0
  123.3874  132.6589   57.0798 H   0  0  0  0  0  0  0  0  0  0  0  0
  122.1147  131.3913   57.0798 H   0  0  0  0  0  0  0  0  0  0  0  0
  124.6538  132.1606   59.6634 H   0  0  0  0  0  0  0  0  0  0  0  0
  125.9481  131.2597   61.5845 H   0  0  0  0  0  0  0  0  0  0  0  0
  131.5701  128.8666   70.3752 H   0  0  0  0  0  0  0  0  0  0  0  0
  132.2001  128.0031   72.6183 H   0  0  0  0  0  0  0  0  0  0  0  0
  1  2  1  0
  2  3  1  0
  3  4  1  0
  4  5  2  0
  4  6  1  0
  6  7  2  0
  7  8  1  0
  8  9  2  0
  9 10  1  0
 10 11  1  0
 11 12  2  0
 11 13  1  0
 13 14  1  0
 14 15  1  0
 15 16  2  0
 16 17  1  0
 17 18  1  0
 18 19  2  0
 19 20  1  0
 20 21  2  0
 21 22  1  0
 22 23  1  0
 21 24  1  0
 24 25  2  0
 17 26  2  0
 26 27  1  0
 27 28  1  0
 28 29  2  0
 29 30  1  0
 30 31  2  0
 31 32  1  0
 32 33  1  0
 31 34  1  0
 34 35  2  0
 27 36  2  0
 36 37  1  0
 37 38  3  0
  9 39  1  0
 39 40  2  0
 40  6  1  0
 36 15  1  0
 25 18  1  0
 35 28  1  0
  1 41  1  0
  1 42  1  0
  1 43  1  0
  2 44  1  0
  2 45  1  0
  7 46  1  0
  8 47  1  0
 10 48  1  0
 13 49  1  0
 13 50  1  0
 19 51  1  0
 20 52  1  0
 23 53  1  0
 23 54  1  0
 23 55  1  0
 24 56  1  0
 25 57  1  0
 26 58  1  0
 29 59  1  0
 30 60  1  0
 33 61  1  0
 33 62  1  0
 33 63  1  0
 34 64  1  0
 35 65  1  0
 39 66  1  0
 40 67  1  0
M  END
>  <Binding energies>  (1) 
[-6.8]

>  <Ligand effiencies>  (1) 
[-0.16585365853658537]

>  <Interactions>  (1) 
["V-B:GLU:543:CD:9880, V-A:ILE:369:CG2:3237, V-A:GLU:543:CD:4908, V-A:ARG:545:CZ:4926, V-A:TYR:539:CE1:4875, V-A:GLU:543:CG:4907, V-B:ILE:369:CG2:8209, H-B:GLY:454:N:9022, H-B:TYR:484:OH:9320, V-B:HIS:456:CE1:9042, H-B:LYS:547:NZ:9923, V-A:VAL:458:CG2:4087, V-A:VAL:457:C:4073, V-B:HIS:456:CD2:9040, V-A:HIS:456:CB:4065, V-A:HIS:456:CD2:4068, V-A:HIS:456:CG:4066, V-A:GLY:544:C:4912, V-A:ARG:545:C:4917, V-A:ASP:366:CG:3213, V-A:ILE:369:CD1:3239, V-B:ASP:366:CG:8185, V-B:ILE:369:CB:8208, V-B:ASP:366:CA:8182, V-B:ASP:366:CB:8184, H-A:GLY:454:N:4050, V-A:HIS:456:CE1:4070, V-A:GLU:543:CB:4906, V-A:TYR:539:CZ:4877, V-B:ASP:366:C:8180, V-B:ILE:369:CA:8206, V-A:GLU:543:C:4902, V-A:GLY:544:CA:4914, H-B:HIS:456:NE2:9043, H-A:GLU:543:O:4903, H-A:TYR:539:OH:4878, V-B:ILE:369:C:8204"]

$$$$
1a_Grossjean_2025
     RDKit          3D

 45 46  0  0  0  0  0  0  0  0999 V2000
  133.3070  126.9650   74.0790 C   0  0  0  0  0  0  0  0  0  0  0  0
  131.8720  127.4540   74.2980 C   0  0  0  0  0  0  0  0  0  0  0  0
  131.0040  126.8000   73.3810 O   0  0  0  0  0  0  0  0  0  0  0  0
  129.7640  127.2900   73.1190 C   0  0  0  0  0  0  0  0  0  0  0  0
  128.9750  127.6480   73.9990 O   0  0  0  0  0  0  0  0  0  0  0  0
  129.4410  127.3370   71.6530 C   0  0  0  0  0  0  0  0  0  0  0  0
  130.2040  128.1560   70.8110 C   0  0  0  0  0  0  0  0  0  0  0  0
  129.9280  128.2240   69.4490 C   0  0  0  0  0  0  0  0  0  0  0  0
  128.8840  127.4790   68.9000 C   0  0  0  0  0  0  0  0  0  0  0  0
  128.6920  127.6260   67.5120 N   0  0  0  0  0  0  0  0  0  0  0  0
  128.4150  128.7310   66.7870 C   0  0  0  0  0  0  0  0  0  0  0  0
  128.2750  129.8670   67.2400 O   0  0  0  0  0  0  0  0  0  0  0  0
  128.2690  128.5060   65.2810 C   0  0  0  0  0  0  0  0  0  0  0  0
  126.5940  128.8910   64.6890 S   0  0  0  0  0  0  0  0  0  0  0  0
  126.7410  130.1820   63.4740 C   0  0  0  0  0  0  0  0  0  0  0  0
  128.0220  130.5420   63.2090 N   0  0  0  0  0  0  0  0  0  0  0  0
  128.2480  131.5210   62.3020 C   0  0  0  0  0  0  0  0  0  0  0  0
  129.7040  131.8790   62.0670 C   0  0  0  0  0  0  0  0  0  0  0  0
  127.2190  132.1690   61.6210 C   0  0  0  0  0  0  0  0  0  0  0  0
  125.8960  131.7910   61.8720 C   0  0  0  0  0  0  0  0  0  0  0  0
  124.7850  132.5040   61.1030 C   0  0  0  0  0  0  0  0  0  0  0  0
  125.6350  130.7680   62.8130 C   0  0  0  0  0  0  0  0  0  0  0  0
  124.2600  130.3220   63.0560 C   0  0  0  0  0  0  0  0  0  0  0  0
  123.1740  129.9720   63.2460 N   0  0  0  0  0  0  0  0  0  0  0  0
  128.1200  126.6490   69.7340 C   0  0  0  0  0  0  0  0  0  0  0  0
  128.3970  126.5820   71.0970 C   0  0  0  0  0  0  0  0  0  0  0  0
  133.7908  126.8001   75.0530 H   0  0  0  0  0  0  0  0  0  0  0  0
  133.2906  126.0217   73.5134 H   0  0  0  0  0  0  0  0  0  0  0  0
  133.8700  127.7220   73.5134 H   0  0  0  0  0  0  0  0  0  0  0  0
  131.5591  127.2238   75.3271 H   0  0  0  0  0  0  0  0  0  0  0  0
  131.8259  128.5410   74.1355 H   0  0  0  0  0  0  0  0  0  0  0  0
  131.0289  128.7508   71.2303 H   0  0  0  0  0  0  0  0  0  0  0  0
  130.5376  128.8701   68.8001 H   0  0  0  0  0  0  0  0  0  0  0  0
  128.8120  126.7720   66.9900 H   0  0  0  0  0  0  0  0  0  0  0  0
  128.9878  129.1514   64.7550 H   0  0  0  0  0  0  0  0  0  0  0  0
  128.4631  127.4425   65.0779 H   0  0  0  0  0  0  0  0  0  0  0  0
  130.2117  132.0038   63.0348 H   0  0  0  0  0  0  0  0  0  0  0  0
  130.1922  131.0742   61.4979 H   0  0  0  0  0  0  0  0  0  0  0  0
  129.7634  132.8185   61.4979 H   0  0  0  0  0  0  0  0  0  0  0  0
  127.4440  132.9659   60.8969 H   0  0  0  0  0  0  0  0  0  0  0  0
  124.0790  132.9571   61.8146 H   0  0  0  0  0  0  0  0  0  0  0  0
  125.2231  133.2900   60.4704 H   0  0  0  0  0  0  0  0  0  0  0  0
  124.2529  131.7783   60.4704 H   0  0  0  0  0  0  0  0  0  0  0  0
  127.3005  126.0499   69.3104 H   0  0  0  0  0  0  0  0  0  0  0  0
  127.7914  125.9307   71.7443 H   0  0  0  0  0  0  0  0  0  0  0  0
  1  2  1  0
  2  3  1  0
  3  4  1  0
  4  5  2  0
  4  6  1  0
  6  7  2  0
  7  8  1  0
  8  9  2  0
  9 10  1  0
 10 11  1  0
 11 12  2  0
 11 13  1  0
 13 14  1  0
 14 15  1  0
 15 16  2  0
 16 17  1  0
 17 18  1  0
 17 19  2  0
 19 20  1  0
 20 21  1  0
 20 22  2  0
 22 23  1  0
 23 24  3  0
  9 25  1  0
 25 26  2  0
 26  6  1  0
 22 15  1  0
  1 27  1  0
  1 28  1  0
  1 29  1  0
  2 30  1  0
  2 31  1  0
  7 32  1  0
  8 33  1  0
 10 34  1  0
 13 35  1  0
 13 36  1  0
 18 37  1  0
 18 38  1  0
 18 39  1  0
 19 40  1  0
 21 41  1  0
 21 42  1  0
 21 43  1  0
 25 44  1  0
 26 45  1  0
M  END
>  <Binding energies>  (1) 
[-7.28]

>  <Ligand effiencies>  (1) 
[-0.26962962962962966]

>  <Interactions>  (1) 
["H-B:GLU:543:OE2:9882, V-B:GLU:543:CD:9880, H-A:GLU:543:OE2:4910, V-A:GLU:543:CD:4908, V-A:ALA:541:CB:4892, V-A:GLU:543:CG:4907, V-A:ALA:541:CA:4890, H-B:GLY:454:N:9022, H-B:TYR:484:OH:9320, H-B:ARG:545:NH1:9899, V-B:HIS:456:CE1:9042, H-B:LYS:547:NZ:9923, V-B:HIS:456:CD2:9040, V-A:LYS:547:CE:4950, V-A:HIS:456:CB:4065, V-A:HIS:456:CD2:4068, V-A:GLY:544:C:4912, V-A:LYS:547:CD:4949, V-B:GLU:543:CB:9878, V-A:HIS:456:CE1:4070, V-A:GLU:543:CB:4906, V-A:GLU:543:C:4902"]

$$$$
1aa_Ghoteimi_2023
     RDKit          3D

 67 70  0  0  0  0  0  0  0  0999 V2000
  130.6170  117.4370   60.1730 C   0  0  0  0  0  0  0  0  0  0  0  0
  130.0340  118.3610   61.2460 C   0  0  0  0  0  0  0  0  0  0  0  0
  130.1390  119.7130   60.8160 O   0  0  0  0  0  0  0  0  0  0  0  0
  129.8680  120.7400   61.6600 C   0  0  0  0  0  0  0  0  0  0  0  0
  130.0170  120.6720   62.8840 O   0  0  0  0  0  0  0  0  0  0  0  0
  129.3670  121.9700   60.9590 C   0  0  0  0  0  0  0  0  0  0  0  0
  128.0940  122.5020   61.2110 C   0  0  0  0  0  0  0  0  0  0  0  0
  127.6560  123.6450   60.5460 C   0  0  0  0  0  0  0  0  0  0  0  0
  128.4910  124.2790   59.6140 C   0  0  0  0  0  0  0  0  0  0  0  0
  128.1570  125.4340   58.8830 N   0  0  0  0  0  0  0  0  0  0  0  0
  126.9610  125.8610   58.4160 C   0  0  0  0  0  0  0  0  0  0  0  0
  125.8930  125.2690   58.5720 O   0  0  0  0  0  0  0  0  0  0  0  0
  126.9410  127.1860   57.6380 C   0  0  0  0  0  0  0  0  0  0  0  0
  127.4020  128.2620   58.4650 O   0  0  0  0  0  0  0  0  0  0  0  0
  127.6250  128.0590   59.8200 C   0  0  0  0  0  0  0  0  0  0  0  0
  128.7650  127.4140   60.1930 N   0  0  0  0  0  0  0  0  0  0  0  0
  129.0120  127.1840   61.5090 C   0  0  0  0  0  0  0  0  0  0  0  0
  130.2910  126.4700   61.8370 C   0  0  0  0  0  0  0  0  0  0  0  0
  131.1750  126.0710   60.8240 C   0  0  0  0  0  0  0  0  0  0  0  0
  132.3610  125.4070   61.1250 C   0  0  0  0  0  0  0  0  0  0  0  0
  132.7010  125.1220   62.4460 C   0  0  0  0  0  0  0  0  0  0  0  0
  133.8960  124.4600   62.6490 O   0  0  0  0  0  0  0  0  0  0  0  0
  134.2590  123.3980   61.7730 C   0  0  0  0  0  0  0  0  0  0  0  0
  131.8300  125.5200   63.4700 C   0  0  0  0  0  0  0  0  0  0  0  0
  130.6460  126.1840   63.1660 C   0  0  0  0  0  0  0  0  0  0  0  0
  128.1140  127.6220   62.4900 C   0  0  0  0  0  0  0  0  0  0  0  0
  126.9390  128.2970   62.1350 C   0  0  0  0  0  0  0  0  0  0  0  0
  126.0270  128.7470   63.2290 C   0  0  0  0  0  0  0  0  0  0  0  0
  124.7540  129.2390   62.9250 C   0  0  0  0  0  0  0  0  0  0  0  0
  123.8950  129.6520   63.9400 C   0  0  0  0  0  0  0  0  0  0  0  0
  124.2870  129.5760   65.2760 C   0  0  0  0  0  0  0  0  0  0  0  0
  123.3690  130.0070   66.2140 O   0  0  0  0  0  0  0  0  0  0  0  0
  123.4140  129.4650   67.5290 C   0  0  0  0  0  0  0  0  0  0  0  0
  125.5600  129.0750   65.5850 C   0  0  0  0  0  0  0  0  0  0  0  0
  126.4180  128.6640   64.5690 C   0  0  0  0  0  0  0  0  0  0  0  0
  126.6840  128.5130   60.7600 C   0  0  0  0  0  0  0  0  0  0  0  0
  125.4630  129.1700   60.2910 C   0  0  0  0  0  0  0  0  0  0  0  0
  124.4980  129.6890   59.9180 N   0  0  0  0  0  0  0  0  0  0  0  0
  129.7570  123.7510   59.3590 C   0  0  0  0  0  0  0  0  0  0  0  0
  130.1930  122.6090   60.0240 C   0  0  0  0  0  0  0  0  0  0  0  0
  131.1444  116.6012   60.6560 H   0  0  0  0  0  0  0  0  0  0  0  0
  129.8031  117.0438   59.5461 H   0  0  0  0  0  0  0  0  0  0  0  0
  131.3223  118.0023   59.5461 H   0  0  0  0  0  0  0  0  0  0  0  0
  128.9758  118.1098   61.4106 H   0  0  0  0  0  0  0  0  0  0  0  0
  130.5923  118.2305   62.1848 H   0  0  0  0  0  0  0  0  0  0  0  0
  127.4342  122.0113   61.9417 H   0  0  0  0  0  0  0  0  0  0  0  0
  126.6545  124.0508   60.7519 H   0  0  0  0  0  0  0  0  0  0  0  0
  128.9430  126.0370   58.6850 H   0  0  0  0  0  0  0  0  0  0  0  0
  127.5962  127.0992   56.7587 H   0  0  0  0  0  0  0  0  0  0  0  0
  125.9085  127.3974   57.3229 H   0  0  0  0  0  0  0  0  0  0  0  0
  130.9271  126.2863   59.7741 H   0  0  0  0  0  0  0  0  0  0  0  0
  133.0368  125.1042   60.3116 H   0  0  0  0  0  0  0  0  0  0  0  0
  134.5589  122.5207   62.3649 H   0  0  0  0  0  0  0  0  0  0  0  0
  133.3994  123.1359   61.1386 H   0  0  0  0  0  0  0  0  0  0  0  0
  135.0992  123.7169   61.1386 H   0  0  0  0  0  0  0  0  0  0  0  0
  132.0840  125.3062   64.5187 H   0  0  0  0  0  0  0  0  0  0  0  0
  129.9749  126.4910   63.9817 H   0  0  0  0  0  0  0  0  0  0  0  0
  128.3337  127.4339   63.5513 H   0  0  0  0  0  0  0  0  0  0  0  0
  124.4287  129.3002   61.8760 H   0  0  0  0  0  0  0  0  0  0  0  0
  122.8983  130.0417   63.6857 H   0  0  0  0  0  0  0  0  0  0  0  0
  123.3463  130.2804   68.2642 H   0  0  0  0  0  0  0  0  0  0  0  0
  122.5702  128.7735   67.6697 H   0  0  0  0  0  0  0  0  0  0  0  0
  124.3603  128.9221   67.6697 H   0  0  0  0  0  0  0  0  0  0  0  0
  125.8817  129.0066   66.6347 H   0  0  0  0  0  0  0  0  0  0  0  0
  127.4133  128.2701   64.8226 H   0  0  0  0  0  0  0  0  0  0  0  0
  130.4155  124.2411   58.6268 H   0  0  0  0  0  0  0  0  0  0  0  0
  131.1941  122.2044   59.8142 H   0  0  0  0  0  0  0  0  0  0  0  0
  1  2  1  0
  2  3  1  0
  3  4  1  0
  4  5  2  0
  4  6  1  0
  6  7  2  0
  7  8  1  0
  8  9  2  0
  9 10  1  0
 10 11  1  0
 11 12  2  0
 11 13  1  0
 13 14  1  0
 14 15  1  0
 15 16  2  0
 16 17  1  0
 17 18  1  0
 18 19  2  0
 19 20  1  0
 20 21  2  0
 21 22  1  0
 22 23  1  0
 21 24  1  0
 24 25  2  0
 17 26  2  0
 26 27  1  0
 27 28  1  0
 28 29  2  0
 29 30  1  0
 30 31  2  0
 31 32  1  0
 32 33  1  0
 31 34  1  0
 34 35  2  0
 27 36  2  0
 36 37  1  0
 37 38  3  0
  9 39  1  0
 39 40  2  0
 40  6  1  0
 36 15  1  0
 25 18  1  0
 35 28  1  0
  1 41  1  0
  1 42  1  0
  1 43  1  0
  2 44  1  0
  2 45  1  0
  7 46  1  0
  8 47  1  0
 10 48  1  0
 13 49  1  0
 13 50  1  0
 19 51  1  0
 20 52  1  0
 23 53  1  0
 23 54  1  0
 23 55  1  0
 24 56  1  0
 25 57  1  0
 26 58  1  0
 29 59  1  0
 30 60  1  0
 33 61  1  0
 33 62  1  0
 33 63  1  0
 34 64  1  0
 35 65  1  0
 39 66  1  0
 40 67  1  0
M  END
>  <Binding energies>  (1) 
[-6.98]

>  <Ligand effiencies>  (1) 
[-0.1702439024390244]

>  <Interactions>  (1) 
["V-B:ALA:541:CB:9864, V-B:TYR:539:CD2:9846, V-A:PRO:482:CG:4327, V-A:PRO:482:CB:4326, V-A:LEU:475:CD1:4258, V-A:LEU:475:CD2:4259, V-B:GLU:543:CD:9880, V-B:TYR:539:CE2:9848, V-A:GLU:543:CD:4908, V-B:PRO:540:C:9853, V-B:PRO:540:CA:9855, V-A:ARG:545:CZ:4926, H-A:TYR:484:OH:4348, V-B:ARG:545:CZ:9898, H-B:GLY:454:N:9022, V-B:GLY:453:C:9014, H-B:TYR:484:OH:9320, V-B:ILE:455:C:9024, V-B:GLY:453:CA:9016, V-B:ARG:545:CD:9895, V-B:HIS:456:CE1:9042, V-B:ARG:545:CG:9894, V-B:ARG:545:CB:9893, V-A:ASP:366:CG:3213, V-A:LEU:475:CG:4257, V-A:GLY:454:CA:4049, V-A:ILE:369:CD1:3239, V-A:GLY:453:CA:4044, V-A:GLY:453:C:4042, V-B:TYR:484:CE1:9317, V-B:TYR:484:CZ:9319, V-B:ASP:366:CG:8185, H-B:ILE:455:N:9027, V-B:ASP:366:CB:8184, H-A:GLY:454:N:4050, H-B:TYR:531:OH:9767, H-A:ARG:545:NH2:4928, V-B:TYR:539:CB:9843"]

$$$$
1b_Ghoteimi_2023
     RDKit          3D

 54 57  0  0  0  0  0  0  0  0999 V2000
  124.1160  129.5770   66.6180 C   0  0  0  0  0  0  0  0  0  0  0  0
  124.0410  129.9290   65.2410 O   0  0  0  0  0  0  0  0  0  0  0  0
  125.0220  129.4800   64.3780 C   0  0  0  0  0  0  0  0  0  0  0  0
  124.7690  129.6250   63.0150 C   0  0  0  0  0  0  0  0  0  0  0  0
  125.6980  129.2000   62.0710 C   0  0  0  0  0  0  0  0  0  0  0  0
  126.9150  128.6200   62.4610 C   0  0  0  0  0  0  0  0  0  0  0  0
  127.9160  128.1600   61.4380 C   0  0  0  0  0  0  0  0  0  0  0  0
  128.9360  127.2480   61.7280 C   0  0  0  0  0  0  0  0  0  0  0  0
  129.8410  126.8490   60.7370 C   0  0  0  0  0  0  0  0  0  0  0  0
  130.9080  125.8750   61.1190 C   0  0  0  0  0  0  0  0  0  0  0  0
  131.1050  124.7140   60.3670 C   0  0  0  0  0  0  0  0  0  0  0  0
  132.0920  123.7990   60.7240 C   0  0  0  0  0  0  0  0  0  0  0  0
  132.8970  124.0250   61.8410 C   0  0  0  0  0  0  0  0  0  0  0  0
  133.8500  123.0640   62.1190 O   0  0  0  0  0  0  0  0  0  0  0  0
  133.8720  121.8660   61.3510 C   0  0  0  0  0  0  0  0  0  0  0  0
  132.6970  125.1860   62.6030 C   0  0  0  0  0  0  0  0  0  0  0  0
  131.7090  126.0980   62.2440 C   0  0  0  0  0  0  0  0  0  0  0  0
  129.6920  127.3810   59.4330 C   0  0  0  0  0  0  0  0  0  0  0  0
  130.5530  126.9230   58.3380 C   0  0  0  0  0  0  0  0  0  0  0  0
  131.2330  126.5610   57.4750 N   0  0  0  0  0  0  0  0  0  0  0  0
  128.6540  128.3140   59.2130 C   0  0  0  0  0  0  0  0  0  0  0  0
  128.3220  129.0910   57.6450 S   0  0  0  0  0  0  0  0  0  0  0  0
  128.2970  130.8960   57.9070 C   0  0  0  0  0  0  0  0  0  0  0  0
  129.5730  131.4810   58.5290 C   0  0  0  0  0  0  0  0  0  0  0  0
  130.1910  132.3870   57.9650 O   0  0  0  0  0  0  0  0  0  0  0  0
  129.9340  130.9210   59.7050 N   0  0  0  0  0  0  0  0  0  0  0  0
  131.0350  131.2470   60.4890 C   0  0  0  0  0  0  0  0  0  0  0  0
  132.3500  131.1270   60.0430 C   0  0  0  0  0  0  0  0  0  0  0  0
  133.1260  131.5440   61.1010 C   0  0  0  0  0  0  0  0  0  0  0  0
  132.3190  131.8990   62.1290 O   0  0  0  0  0  0  0  0  0  0  0  0
  130.9960  131.7070   61.7300 N   0  0  0  0  0  0  0  0  0  0  0  0
  127.7830  128.6720   60.1870 N   0  0  0  0  0  0  0  0  0  0  0  0
  127.1590  128.4770   63.8360 C   0  0  0  0  0  0  0  0  0  0  0  0
  126.2310  128.8990   64.7840 C   0  0  0  0  0  0  0  0  0  0  0  0
  123.9262  130.4677   67.2350 H   0  0  0  0  0  0  0  0  0  0  0  0
  123.3614  128.8085   66.8416 H   0  0  0  0  0  0  0  0  0  0  0  0
  125.1183  129.1828   66.8416 H   0  0  0  0  0  0  0  0  0  0  0  0
  123.8246  130.0804   62.6823 H   0  0  0  0  0  0  0  0  0  0  0  0
  125.4750  129.3206   61.0006 H   0  0  0  0  0  0  0  0  0  0  0  0
  129.0281  126.8399   62.7453 H   0  0  0  0  0  0  0  0  0  0  0  0
  130.4753  124.5213   59.4859 H   0  0  0  0  0  0  0  0  0  0  0  0
  132.2382  122.8909   60.1207 H   0  0  0  0  0  0  0  0  0  0  0  0
  133.8879  120.9978   62.0263 H   0  0  0  0  0  0  0  0  0  0  0  0
  132.9745  121.8206   60.7166 H   0  0  0  0  0  0  0  0  0  0  0  0
  134.7705  121.8536   60.7166 H   0  0  0  0  0  0  0  0  0  0  0  0
  133.3232  125.3760   63.4871 H   0  0  0  0  0  0  0  0  0  0  0  0
  131.5565  127.0028   62.8506 H   0  0  0  0  0  0  0  0  0  0  0  0
  128.1405  131.3799   56.9316 H   0  0  0  0  0  0  0  0  0  0  0  0
  127.4882  131.0901   58.6268 H   0  0  0  0  0  0  0  0  0  0  0  0
  129.3400  130.1920   60.0720 H   0  0  0  0  0  0  0  0  0  0  0  0
  132.6934  130.7753   59.0589 H   0  0  0  0  0  0  0  0  0  0  0  0
  134.2253  131.5826   61.1099 H   0  0  0  0  0  0  0  0  0  0  0  0
  128.1028  128.0222   64.1712 H   0  0  0  0  0  0  0  0  0  0  0  0
  126.4474  128.7760   65.8555 H   0  0  0  0  0  0  0  0  0  0  0  0
  1  2  1  0
  2  3  1  0
  3  4  2  0
  4  5  1  0
  5  6  2  0
  6  7  1  0
  7  8  2  0
  8  9  1  0
  9 10  1  0
 10 11  2  0
 11 12  1  0
 12 13  2  0
 13 14  1  0
 14 15  1  0
 13 16  1  0
 16 17  2  0
  9 18  2  0
 18 19  1  0
 19 20  3  0
 18 21  1  0
 21 22  1  0
 22 23  1  0
 23 24  1  0
 24 25  2  0
 24 26  1  0
 26 27  1  0
 27 28  1  0
 28 29  2  0
 29 30  1  0
 30 31  1  0
 21 32  2  0
  6 33  1  0
 33 34  2  0
 34  3  1  0
 32  7  1  0
 17 10  1  0
 31 27  2  0
  1 35  1  0
  1 36  1  0
  1 37  1  0
  4 38  1  0
  5 39  1  0
  8 40  1  0
 11 41  1  0
 12 42  1  0
 15 43  1  0
 15 44  1  0
 15 45  1  0
 16 46  1  0
 17 47  1  0
 23 48  1  0
 23 49  1  0
 26 50  1  0
 28 51  1  0
 29 52  1  0
 33 53  1  0
 34 54  1  0
M  END
>  <Binding energies>  (1) 
[-7.37]

>  <Ligand effiencies>  (1) 
[-0.21057142857142858]

>  <Interactions>  (1) 
["V-A:LEU:475:CD2:4259, V-B:GLU:543:CD:9880, V-A:ILE:369:CG2:3237, V-A:GLU:543:CD:4908, V-A:ARG:545:CZ:4926, H-A:TYR:484:OH:4348, V-A:PRO:540:CA:4883, V-B:ARG:545:CZ:9898, H-A:ALA:541:N:4891, H-B:GLY:454:N:9022, H-B:TYR:484:OH:9320, V-A:ASN:362:CB:3176, V-B:ARG:545:CD:9895, V-B:HIS:456:CE1:9042, V-B:ARG:545:CG:9894, V-A:PRO:540:CB:4885, V-A:GLY:454:CA:4049, V-A:ILE:369:CD1:3239, V-B:TYR:484:CE1:9317, V-B:TYR:484:CZ:9319, H-A:GLY:454:N:4050"]

$$$$
1b_Grossjean_2025
     RDKit          3D

 42 43  0  0  0  0  0  0  0  0999 V2000
  130.8740  125.4820   74.3760 C   0  0  0  0  0  0  0  0  0  0  0  0
  129.8040  125.9950   73.5940 O   0  0  0  0  0  0  0  0  0  0  0  0
  129.8320  127.2680   73.1230 C   0  0  0  0  0  0  0  0  0  0  0  0
  130.0900  128.2490   73.8270 O   0  0  0  0  0  0  0  0  0  0  0  0
  129.5240  127.3650   71.6550 C   0  0  0  0  0  0  0  0  0  0  0  0
  130.2690  128.1850   70.7930 C   0  0  0  0  0  0  0  0  0  0  0  0
  129.9570  128.2530   69.4390 C   0  0  0  0  0  0  0  0  0  0  0  0
  128.9010  127.5060   68.9170 C   0  0  0  0  0  0  0  0  0  0  0  0
  128.6750  127.6540   67.5350 N   0  0  0  0  0  0  0  0  0  0  0  0
  128.3760  128.7570   66.8150 C   0  0  0  0  0  0  0  0  0  0  0  0
  128.2470  129.8940   67.2680 O   0  0  0  0  0  0  0  0  0  0  0  0
  128.2040  128.5310   65.3120 C   0  0  0  0  0  0  0  0  0  0  0  0
  126.5190  128.9190   64.7490 S   0  0  0  0  0  0  0  0  0  0  0  0
  126.6590  130.1340   63.4550 C   0  0  0  0  0  0  0  0  0  0  0  0
  127.9290  130.5570   63.2370 N   0  0  0  0  0  0  0  0  0  0  0  0
  128.1500  131.4810   62.2730 C   0  0  0  0  0  0  0  0  0  0  0  0
  129.5970  131.8950   62.0760 C   0  0  0  0  0  0  0  0  0  0  0  0
  127.1240  132.0230   61.5020 C   0  0  0  0  0  0  0  0  0  0  0  0
  125.8090  131.6100   61.7350 C   0  0  0  0  0  0  0  0  0  0  0  0
  124.6990  132.2310   60.8880 C   0  0  0  0  0  0  0  0  0  0  0  0
  125.5530  130.6460   62.7360 C   0  0  0  0  0  0  0  0  0  0  0  0
  124.1790  130.2310   63.0270 C   0  0  0  0  0  0  0  0  0  0  0  0
  123.0920  129.9050   63.2540 N   0  0  0  0  0  0  0  0  0  0  0  0
  128.1520  126.6840   69.7720 C   0  0  0  0  0  0  0  0  0  0  0  0
  128.4650  126.6160   71.1260 C   0  0  0  0  0  0  0  0  0  0  0  0
  130.6355  125.5964   75.4437 H   0  0  0  0  0  0  0  0  0  0  0  0
  131.0191  124.4164   74.1448 H   0  0  0  0  0  0  0  0  0  0  0  0
  131.7957  126.0362   74.1448 H   0  0  0  0  0  0  0  0  0  0  0  0
  131.1056  128.7781   71.1910 H   0  0  0  0  0  0  0  0  0  0  0  0
  130.5477  128.9010   68.7748 H   0  0  0  0  0  0  0  0  0  0  0  0
  128.7390  126.7910   67.0150 H   0  0  0  0  0  0  0  0  0  0  0  0
  128.9148  129.1747   64.7731 H   0  0  0  0  0  0  0  0  0  0  0  0
  128.3928  127.4671   65.1061 H   0  0  0  0  0  0  0  0  0  0  0  0
  130.0759  132.0320   63.0567 H   0  0  0  0  0  0  0  0  0  0  0  0
  130.1289  131.1130   61.5143 H   0  0  0  0  0  0  0  0  0  0  0  0
  129.6348  132.8400   61.5143 H   0  0  0  0  0  0  0  0  0  0  0  0
  127.3455  132.7653   60.7211 H   0  0  0  0  0  0  0  0  0  0  0  0
  123.9310  132.6607   61.5480 H   0  0  0  0  0  0  0  0  0  0  0  0
  125.1220  133.0235   60.2532 H   0  0  0  0  0  0  0  0  0  0  0  0
  124.2450  131.4559   60.2532 H   0  0  0  0  0  0  0  0  0  0  0  0
  127.3158  126.0922   69.3713 H   0  0  0  0  0  0  0  0  0  0  0  0
  127.8741  125.9666   71.7887 H   0  0  0  0  0  0  0  0  0  0  0  0
  1  2  1  0
  2  3  1  0
  3  4  2  0
  3  5  1  0
  5  6  2  0
  6  7  1  0
  7  8  2  0
  8  9  1  0
  9 10  1  0
 10 11  2  0
 10 12  1  0
 12 13  1  0
 13 14  1  0
 14 15  2  0
 15 16  1  0
 16 17  1  0
 16 18  2  0
 18 19  1  0
 19 20  1  0
 19 21  2  0
 21 22  1  0
 22 23  3  0
  8 24  1  0
 24 25  2  0
 25  5  1  0
 21 14  1  0
  1 26  1  0
  1 27  1  0
  1 28  1  0
  6 29  1  0
  7 30  1  0
  9 31  1  0
 12 32  1  0
 12 33  1  0
 17 34  1  0
 17 35  1  0
 17 36  1  0
 18 37  1  0
 20 38  1  0
 20 39  1  0
 20 40  1  0
 24 41  1  0
 25 42  1  0
M  END
>  <Binding energies>  (1) 
[-7.12]

>  <Ligand effiencies>  (1) 
[-0.27384615384615385]

>  <Interactions>  (1) 
["H-B:GLU:543:OE2:9882, V-B:GLU:543:CD:9880, H-A:GLU:543:OE2:4910, V-A:GLU:543:CD:4908, V-A:ALA:541:CB:4892, V-A:GLU:543:CG:4907, V-A:ALA:541:CA:4890, H-B:GLY:454:N:9022, H-B:TYR:484:OH:9320, H-B:ARG:545:NH1:9899, V-B:HIS:456:CE1:9042, H-B:LYS:547:NZ:9923, H-A:LYS:547:NZ:4951, V-B:HIS:456:CD2:9040, V-A:HIS:456:CB:4065, V-A:HIS:456:CD2:4068, V-A:GLY:544:C:4912, V-B:GLU:543:CB:9878, V-A:HIS:456:CE1:4070, V-A:GLU:543:CB:4906, V-A:GLU:543:C:4902, V-A:GLY:544:CA:4914, V-B:LYS:547:CE:9922"]

$$$$
1c_Ghoteimi_2023
     RDKit          3D

 54 57  0  0  0  0  0  0  0  0999 V2000
  123.8490  129.6240   66.3990 C   0  0  0  0  0  0  0  0  0  0  0  0
  124.1720  130.0380   65.0760 O   0  0  0  0  0  0  0  0  0  0  0  0
  125.2070  129.4120   64.4070 C   0  0  0  0  0  0  0  0  0  0  0  0
  125.0280  129.1950   63.0430 C   0  0  0  0  0  0  0  0  0  0  0  0
  126.0170  128.5690   62.2900 C   0  0  0  0  0  0  0  0  0  0  0  0
  127.2160  128.1390   62.8800 C   0  0  0  0  0  0  0  0  0  0  0  0
  128.2830  127.4590   62.0730 C   0  0  0  0  0  0  0  0  0  0  0  0
  128.4810  126.0740   62.0950 C   0  0  0  0  0  0  0  0  0  0  0  0
  129.4730  125.4810   61.3040 C   0  0  0  0  0  0  0  0  0  0  0  0
  129.5830  123.9930   61.3260 C   0  0  0  0  0  0  0  0  0  0  0  0
  128.4360  123.1940   61.3270 C   0  0  0  0  0  0  0  0  0  0  0  0
  128.5410  121.8070   61.3700 C   0  0  0  0  0  0  0  0  0  0  0  0
  129.7920  121.1930   61.4160 C   0  0  0  0  0  0  0  0  0  0  0  0
  129.8000  119.8110   61.4560 O   0  0  0  0  0  0  0  0  0  0  0  0
  130.7220  119.0980   60.6390 C   0  0  0  0  0  0  0  0  0  0  0  0
  130.9460  121.9910   61.4220 C   0  0  0  0  0  0  0  0  0  0  0  0
  130.8390  123.3790   61.3790 C   0  0  0  0  0  0  0  0  0  0  0  0
  130.2870  126.3190   60.5060 C   0  0  0  0  0  0  0  0  0  0  0  0
  131.3650  125.7630   59.6800 C   0  0  0  0  0  0  0  0  0  0  0  0
  132.2150  125.3230   59.0290 N   0  0  0  0  0  0  0  0  0  0  0  0
  130.0220  127.7040   60.5170 C   0  0  0  0  0  0  0  0  0  0  0  0
  130.8520  128.8510   59.4390 S   0  0  0  0  0  0  0  0  0  0  0  0
  131.5600  130.1090   60.5520 C   0  0  0  0  0  0  0  0  0  0  0  0
  130.5290  131.1680   60.9580 C   0  0  0  0  0  0  0  0  0  0  0  0
  130.5100  132.2530   60.3740 O   0  0  0  0  0  0  0  0  0  0  0  0
  129.6680  130.7920   61.9290 N   0  0  0  0  0  0  0  0  0  0  0  0
  128.5570  131.4930   62.3680 C   0  0  0  0  0  0  0  0  0  0  0  0
  128.3410  132.0000   63.5630 N   0  0  0  0  0  0  0  0  0  0  0  0
  127.1900  132.6410   63.6150 C   0  0  0  0  0  0  0  0  0  0  0  0
  126.4440  132.6650   62.4410 C   0  0  0  0  0  0  0  0  0  0  0  0
  127.3050  131.7950   61.2060 S   0  0  0  0  0  0  0  0  0  0  0  0
  129.0420  128.2540   61.2740 N   0  0  0  0  0  0  0  0  0  0  0  0
  127.3880  128.3690   64.2530 C   0  0  0  0  0  0  0  0  0  0  0  0
  126.4010  128.9930   65.0100 C   0  0  0  0  0  0  0  0  0  0  0  0
  124.3587  130.2774   67.1224 H   0  0  0  0  0  0  0  0  0  0  0  0
  122.7612  129.6898   66.5485 H   0  0  0  0  0  0  0  0  0  0  0  0
  124.1774  128.5849   66.5485 H   0  0  0  0  0  0  0  0  0  0  0  0
  124.0969  129.5212   62.5566 H   0  0  0  0  0  0  0  0  0  0  0  0
  125.8563  128.4084   61.2137 H   0  0  0  0  0  0  0  0  0  0  0  0
  127.8509  125.4443   62.7404 H   0  0  0  0  0  0  0  0  0  0  0  0
  127.4426  123.6653   61.2935 H   0  0  0  0  0  0  0  0  0  0  0  0
  127.6301  121.1903   61.3677 H   0  0  0  0  0  0  0  0  0  0  0  0
  131.4304  118.5502   61.2778 H   0  0  0  0  0  0  0  0  0  0  0  0
  130.1746  118.3859   60.0039 H   0  0  0  0  0  0  0  0  0  0  0  0
  131.2735  119.8069   60.0039 H   0  0  0  0  0  0  0  0  0  0  0  0
  131.9387  121.5188   61.4608 H   0  0  0  0  0  0  0  0  0  0  0  0
  131.7489  123.9971   61.3868 H   0  0  0  0  0  0  0  0  0  0  0  0
  131.9320  129.6104   61.4592 H   0  0  0  0  0  0  0  0  0  0  0  0
  132.3729  130.6178   60.0133 H   0  0  0  0  0  0  0  0  0  0  0  0
  129.7960  129.8760   62.3330 H   0  0  0  0  0  0  0  0  0  0  0  0
  126.8390  133.1298   64.5358 H   0  0  0  0  0  0  0  0  0  0  0  0
  125.4674  133.1551   62.3145 H   0  0  0  0  0  0  0  0  0  0  0  0
  128.3210  128.0500   64.7407 H   0  0  0  0  0  0  0  0  0  0  0  0
  126.5585  129.1581   66.0861 H   0  0  0  0  0  0  0  0  0  0  0  0
  1  2  1  0
  2  3  1  0
  3  4  2  0
  4  5  1  0
  5  6  2  0
  6  7  1  0
  7  8  2  0
  8  9  1  0
  9 10  1  0
 10 11  2  0
 11 12  1  0
 12 13  2  0
 13 14  1  0
 14 15  1  0
 13 16  1  0
 16 17  2  0
  9 18  2  0
 18 19  1  0
 19 20  3  0
 18 21  1  0
 21 22  1  0
 22 23  1  0
 23 24  1  0
 24 25  2  0
 24 26  1  0
 26 27  1  0
 27 28  2  0
 28 29  1  0
 29 30  2  0
 30 31  1  0
 21 32  2  0
  6 33  1  0
 33 34  2  0
 34  3  1  0
 32  7  1  0
 17 10  1  0
 31 27  1  0
  1 35  1  0
  1 36  1  0
  1 37  1  0
  4 38  1  0
  5 39  1  0
  8 40  1  0
 11 41  1  0
 12 42  1  0
 15 43  1  0
 15 44  1  0
 15 45  1  0
 16 46  1  0
 17 47  1  0
 23 48  1  0
 23 49  1  0
 26 50  1  0
 29 51  1  0
 30 52  1  0
 33 53  1  0
 34 54  1  0
M  END
>  <Binding energies>  (1) 
[-7.22]

>  <Ligand effiencies>  (1) 
[-0.20628571428571427]

>  <Interactions>  (1) 
["V-B:ALA:541:CB:9864, V-B:TYR:539:CD2:9846, V-A:LEU:475:CD2:4259, V-B:GLU:543:CD:9880, V-A:GLU:543:CD:4908, V-B:PRO:540:C:9853, V-B:PRO:540:CA:9855, H-A:GLU:543:OE1:4909, V-A:ALA:541:CB:4892, V-A:GLU:543:CG:4907, V-B:ARG:545:CZ:9898, V-B:LEU:475:CD2:9231, H-A:ALA:541:N:4891, H-B:GLY:454:N:9022, V-B:GLY:453:C:9014, H-B:TYR:484:OH:9320, V-B:GLY:454:CA:9021, V-B:GLY:453:CA:9016, V-B:ARG:545:CD:9895, V-B:HIS:456:CE1:9042, V-B:ARG:545:CG:9894, V-A:ASP:366:CG:3213, V-B:TYR:484:CE1:9317, V-B:TYR:484:CZ:9319, V-B:TYR:484:CE2:9318"]

$$$$
1c_Grossjean_2025
     RDKit          3D

 40 41  0  0  0  0  0  0  0  0999 V2000
  122.4360  119.8710   72.2980 C   0  0  0  0  0  0  0  0  0  0  0  0
  123.5510  118.9860   72.2570 O   0  0  0  0  0  0  0  0  0  0  0  0
  124.8160  119.4860   72.4980 C   0  0  0  0  0  0  0  0  0  0  0  0
  125.7870  119.2120   71.5350 C   0  0  0  0  0  0  0  0  0  0  0  0
  127.0920  119.6730   71.6880 C   0  0  0  0  0  0  0  0  0  0  0  0
  127.4400  120.4290   72.8170 C   0  0  0  0  0  0  0  0  0  0  0  0
  128.7290  120.9350   73.0760 N   0  0  0  0  0  0  0  0  0  0  0  0
  129.1850  122.2030   72.9910 C   0  0  0  0  0  0  0  0  0  0  0  0
  128.5130  123.1840   72.6730 O   0  0  0  0  0  0  0  0  0  0  0  0
  130.6640  122.3920   73.3340 C   0  0  0  0  0  0  0  0  0  0  0  0
  130.8880  123.3220   74.8790 S   0  0  0  0  0  0  0  0  0  0  0  0
  131.4040  124.9770   74.4690 C   0  0  0  0  0  0  0  0  0  0  0  0
  130.4280  125.7180   73.8850 N   0  0  0  0  0  0  0  0  0  0  0  0
  130.7040  126.9940   73.5280 C   0  0  0  0  0  0  0  0  0  0  0  0
  129.5610  127.7620   72.8910 C   0  0  0  0  0  0  0  0  0  0  0  0
  131.9540  127.5760   73.7250 C   0  0  0  0  0  0  0  0  0  0  0  0
  132.9750  126.8140   74.3030 C   0  0  0  0  0  0  0  0  0  0  0  0
  134.3420  127.4690   74.4930 C   0  0  0  0  0  0  0  0  0  0  0  0
  132.7100  125.4780   74.6820 C   0  0  0  0  0  0  0  0  0  0  0  0
  133.7820  124.6470   75.2390 C   0  0  0  0  0  0  0  0  0  0  0  0
  134.6280  123.9930   75.6780 N   0  0  0  0  0  0  0  0  0  0  0  0
  126.4740  120.6960   73.7890 C   0  0  0  0  0  0  0  0  0  0  0  0
  125.1710  120.2320   73.6330 C   0  0  0  0  0  0  0  0  0  0  0  0
  122.1723  120.0803   73.3452 H   0  0  0  0  0  0  0  0  0  0  0  0
  122.6956  120.8116   71.7902 H   0  0  0  0  0  0  0  0  0  0  0  0
  121.5789  119.4047   71.7902 H   0  0  0  0  0  0  0  0  0  0  0  0
  125.5188  118.6249   70.6443 H   0  0  0  0  0  0  0  0  0  0  0  0
  127.8495  119.4444   70.9239 H   0  0  0  0  0  0  0  0  0  0  0  0
  129.3830  120.2480   73.4200 H   0  0  0  0  0  0  0  0  0  0  0  0
  131.1329  121.4030   73.4431 H   0  0  0  0  0  0  0  0  0  0  0  0
  131.1321  122.9653   72.5202 H   0  0  0  0  0  0  0  0  0  0  0  0
  128.9234  128.1904   73.6783 H   0  0  0  0  0  0  0  0  0  0  0  0
  129.9664  128.5717   72.2664 H   0  0  0  0  0  0  0  0  0  0  0  0
  128.9646  127.0807   72.2664 H   0  0  0  0  0  0  0  0  0  0  0  0
  132.1358  128.6201   73.4303 H   0  0  0  0  0  0  0  0  0  0  0  0
  134.5538  127.5705   75.5676 H   0  0  0  0  0  0  0  0  0  0  0  0
  135.1164  126.8441   74.0241 H   0  0  0  0  0  0  0  0  0  0  0  0
  134.3402  128.4640   74.0241 H   0  0  0  0  0  0  0  0  0  0  0  0
  126.7442  121.2765   74.6834 H   0  0  0  0  0  0  0  0  0  0  0  0
  124.4160  120.4508   74.4025 H   0  0  0  0  0  0  0  0  0  0  0  0
  1  2  1  0
  2  3  1  0
  3  4  2  0
  4  5  1  0
  5  6  2  0
  6  7  1  0
  7  8  1  0
  8  9  2  0
  8 10  1  0
 10 11  1  0
 11 12  1  0
 12 13  2  0
 13 14  1  0
 14 15  1  0
 14 16  2  0
 16 17  1  0
 17 18  1  0
 17 19  2  0
 19 20  1  0
 20 21  3  0
  6 22  1  0
 22 23  2  0
 23  3  1  0
 19 12  1  0
  1 24  1  0
  1 25  1  0
  1 26  1  0
  4 27  1  0
  5 28  1  0
  7 29  1  0
 10 30  1  0
 10 31  1  0
 15 32  1  0
 15 33  1  0
 15 34  1  0
 16 35  1  0
 18 36  1  0
 18 37  1  0
 18 38  1  0
 22 39  1  0
 23 40  1  0
M  END
>  <Binding energies>  (1) 
[-7.14]

>  <Ligand effiencies>  (1) 
[-0.2975]

>  <Interactions>  (1) 
["H-B:LYS:547:NZ:9923, V-A:VAL:458:CG2:4087, V-A:VAL:457:C:4073, V-B:HIS:456:CD2:9040, V-A:LYS:547:CE:4950, V-A:HIS:456:CB:4065, V-A:HIS:456:CD2:4068, V-A:HIS:456:C:4061, H-A:VAL:457:N:4076, V-A:ASP:473:CG:4240, V-A:HIS:456:CG:4066, V-A:LYS:547:CG:4948, V-A:LYS:547:CB:4947, V-A:GLY:544:C:4912, V-A:LYS:547:CD:4949, V-B:GLU:543:C:9874, V-B:LYS:547:CE:9922, V-A:TYR:484:CB:4341, V-A:ASP:473:CB:4239, V-A:TYR:484:C:4337, V-B:GLY:544:CA:9886, V-B:VAL:542:CG1:9871, H-A:TYR:484:O:4338, V-B:VAL:542:CB:9870, V-B:VAL:542:C:9866"]

$$$$
1d_Ghoteimi_2023
     RDKit          3D

 50 52  0  0  0  0  0  0  0  0999 V2000
  133.8580  131.5230   60.5710 C   0  0  0  0  0  0  0  0  0  0  0  0
  132.7680  131.9210   61.3880 O   0  0  0  0  0  0  0  0  0  0  0  0
  131.5210  131.4750   61.1320 C   0  0  0  0  0  0  0  0  0  0  0  0
  130.4840  131.8570   61.6770 O   0  0  0  0  0  0  0  0  0  0  0  0
  131.5010  130.3940   60.0540 C   0  0  0  0  0  0  0  0  0  0  0  0
  129.7630  130.0790   59.6270 S   0  0  0  0  0  0  0  0  0  0  0  0
  129.2030  128.7500   60.6700 C   0  0  0  0  0  0  0  0  0  0  0  0
  128.2230  129.1090   61.5320 N   0  0  0  0  0  0  0  0  0  0  0  0
  127.7050  128.1930   62.3890 C   0  0  0  0  0  0  0  0  0  0  0  0
  126.6180  128.6700   63.3080 C   0  0  0  0  0  0  0  0  0  0  0  0
  126.7100  128.4950   64.6980 C   0  0  0  0  0  0  0  0  0  0  0  0
  125.6980  128.9330   65.5470 C   0  0  0  0  0  0  0  0  0  0  0  0
  124.5630  129.5570   65.0360 C   0  0  0  0  0  0  0  0  0  0  0  0
  123.6090  129.9560   65.9530 O   0  0  0  0  0  0  0  0  0  0  0  0
  123.7820  129.6170   67.3250 C   0  0  0  0  0  0  0  0  0  0  0  0
  124.4560  129.7390   63.6500 C   0  0  0  0  0  0  0  0  0  0  0  0
  125.4710  129.3010   62.8040 C   0  0  0  0  0  0  0  0  0  0  0  0
  128.1680  126.8720   62.3850 C   0  0  0  0  0  0  0  0  0  0  0  0
  129.1910  126.4760   61.5140 C   0  0  0  0  0  0  0  0  0  0  0  0
  129.6430  125.0520   61.5680 C   0  0  0  0  0  0  0  0  0  0  0  0
  128.7100  124.0150   61.4790 C   0  0  0  0  0  0  0  0  0  0  0  0
  129.1240  122.6860   61.5280 C   0  0  0  0  0  0  0  0  0  0  0  0
  130.4750  122.3680   61.6610 C   0  0  0  0  0  0  0  0  0  0  0  0
  130.7920  121.0240   61.7070 O   0  0  0  0  0  0  0  0  0  0  0  0
  129.7430  120.0630   61.7430 C   0  0  0  0  0  0  0  0  0  0  0  0
  131.4160  123.4060   61.7370 C   0  0  0  0  0  0  0  0  0  0  0  0
  131.0000  124.7340   61.6870 C   0  0  0  0  0  0  0  0  0  0  0  0
  129.7450  127.4450   60.6410 C   0  0  0  0  0  0  0  0  0  0  0  0
  130.8870  127.1130   59.7830 C   0  0  0  0  0  0  0  0  0  0  0  0
  131.7880  126.8510   59.1060 N   0  0  0  0  0  0  0  0  0  0  0  0
  134.7005  131.2154   61.2079 H   0  0  0  0  0  0  0  0  0  0  0  0
  133.5512  130.6789   59.9359 H   0  0  0  0  0  0  0  0  0  0  0  0
  134.1673  132.3662   59.9359 H   0  0  0  0  0  0  0  0  0  0  0  0
  132.0492  130.7399   59.1653 H   0  0  0  0  0  0  0  0  0  0  0  0
  131.9827  129.4748   60.4187 H   0  0  0  0  0  0  0  0  0  0  0  0
  127.5973  128.0032   65.1233 H   0  0  0  0  0  0  0  0  0  0  0  0
  125.7957  128.7848   66.6326 H   0  0  0  0  0  0  0  0  0  0  0  0
  123.3723  130.4198   67.9555 H   0  0  0  0  0  0  0  0  0  0  0  0
  123.2537  128.6764   67.5397 H   0  0  0  0  0  0  0  0  0  0  0  0
  124.8537  129.4929   67.5397 H   0  0  0  0  0  0  0  0  0  0  0  0
  123.5661  130.2300   63.2292 H   0  0  0  0  0  0  0  0  0  0  0  0
  125.3717  129.4527   61.7190 H   0  0  0  0  0  0  0  0  0  0  0  0
  127.7239  126.1374   63.0729 H   0  0  0  0  0  0  0  0  0  0  0  0
  127.6410  124.2502   61.3695 H   0  0  0  0  0  0  0  0  0  0  0  0
  128.3784  121.8800   61.4612 H   0  0  0  0  0  0  0  0  0  0  0  0
  129.4921  119.8331   62.7890 H   0  0  0  0  0  0  0  0  0  0  0  0
  128.8563  120.4688   61.2339 H   0  0  0  0  0  0  0  0  0  0  0  0
  130.0697  119.1443   61.2339 H   0  0  0  0  0  0  0  0  0  0  0  0
  132.4858  123.1700   61.8364 H   0  0  0  0  0  0  0  0  0  0  0  0
  131.7457  125.5408   61.7416 H   0  0  0  0  0  0  0  0  0  0  0  0
  1  2  1  0
  2  3  1  0
  3  4  2  0
  3  5  1  0
  5  6  1  0
  6  7  1  0
  7  8  2  0
  8  9  1  0
  9 10  1  0
 10 11  2  0
 11 12  1  0
 12 13  2  0
 13 14  1  0
 14 15  1  0
 13 16  1  0
 16 17  2  0
  9 18  2  0
 18 19  1  0
 19 20  1  0
 20 21  2  0
 21 22  1  0
 22 23  2  0
 23 24  1  0
 24 25  1  0
 23 26  1  0
 26 27  2  0
 19 28  2  0
 28 29  1  0
 29 30  3  0
 28  7  1  0
 17 10  1  0
 27 20  1  0
  1 31  1  0
  1 32  1  0
  1 33  1  0
  5 34  1  0
  5 35  1  0
 11 36  1  0
 12 37  1  0
 15 38  1  0
 15 39  1  0
 15 40  1  0
 16 41  1  0
 17 42  1  0
 18 43  1  0
 21 44  1  0
 22 45  1  0
 25 46  1  0
 25 47  1  0
 25 48  1  0
 26 49  1  0
 27 50  1  0
M  END
>  <Binding energies>  (1) 
[-6.43]

>  <Ligand effiencies>  (1) 
[-0.21433333333333332]

>  <Interactions>  (1) 
["V-B:ALA:541:CB:9864, V-A:LEU:475:CD1:4258, V-A:LEU:475:CD2:4259, V-B:GLU:543:CD:9880, H-A:TYR:484:OH:4348, V-A:PRO:540:CA:4883, V-B:ARG:545:CZ:9898, H-A:ALA:541:N:4891, H-B:GLY:454:N:9022, H-B:TYR:484:OH:9320, V-A:ASN:362:CB:3176, V-B:ILE:455:C:9024, V-B:ARG:545:CD:9895, V-B:HIS:456:CE1:9042, V-B:ARG:545:CG:9894, V-B:ARG:545:CB:9893, V-A:PRO:540:CB:4885, V-A:ASP:366:CG:3213, V-B:TYR:484:CE1:9317, V-B:TYR:484:CZ:9319, H-B:ILE:455:N:9027, V-A:ASN:362:C:3172, V-A:ASN:362:CA:3174, V-A:LEU:363:CA:3185"]

$$$$
1d_Grossjean_2025
     RDKit          3D

 36 37  0  0  0  0  0  0  0  0999 V2000
  129.5690  127.9990   73.1240 C   0  0  0  0  0  0  0  0  0  0  0  0
  130.7130  127.1670   73.6690 C   0  0  0  0  0  0  0  0  0  0  0  0
  132.0030  127.6810   73.7770 C   0  0  0  0  0  0  0  0  0  0  0  0
  133.0180  126.8700   74.2970 C   0  0  0  0  0  0  0  0  0  0  0  0
  134.4200  127.4620   74.4210 C   0  0  0  0  0  0  0  0  0  0  0  0
  132.7110  125.5480   74.6930 C   0  0  0  0  0  0  0  0  0  0  0  0
  133.7460  124.6970   75.2840 C   0  0  0  0  0  0  0  0  0  0  0  0
  134.5660  124.0270   75.7520 N   0  0  0  0  0  0  0  0  0  0  0  0
  131.3790  125.1010   74.5240 C   0  0  0  0  0  0  0  0  0  0  0  0
  130.8190  123.4710   74.9660 S   0  0  0  0  0  0  0  0  0  0  0  0
  130.7170  122.4990   73.4330 C   0  0  0  0  0  0  0  0  0  0  0  0
  129.2710  122.2830   72.9820 C   0  0  0  0  0  0  0  0  0  0  0  0
  128.6020  123.2530   72.6270 O   0  0  0  0  0  0  0  0  0  0  0  0
  128.8480  121.0010   72.9910 N   0  0  0  0  0  0  0  0  0  0  0  0
  127.5900  120.4630   72.6590 C   0  0  0  0  0  0  0  0  0  0  0  0
  126.5640  120.7110   73.5750 C   0  0  0  0  0  0  0  0  0  0  0  0
  125.2800  120.2290   73.3400 C   0  0  0  0  0  0  0  0  0  0  0  0
  125.0170  119.5030   72.1810 C   0  0  0  0  0  0  0  0  0  0  0  0
  126.0280  119.2560   71.2550 C   0  0  0  0  0  0  0  0  0  0  0  0
  127.3140  119.7360   71.4890 C   0  0  0  0  0  0  0  0  0  0  0  0
  130.3980  125.9030   74.0380 N   0  0  0  0  0  0  0  0  0  0  0  0
  128.9908  128.4195   73.9599 H   0  0  0  0  0  0  0  0  0  0  0  0
  129.9713  128.8170   72.5083 H   0  0  0  0  0  0  0  0  0  0  0  0
  128.9148  127.3642   72.5083 H   0  0  0  0  0  0  0  0  0  0  0  0
  132.2211  128.7108   73.4578 H   0  0  0  0  0  0  0  0  0  0  0  0
  134.6791  127.5714   75.4844 H   0  0  0  0  0  0  0  0  0  0  0  0
  135.1448  126.7931   73.9339 H   0  0  0  0  0  0  0  0  0  0  0  0
  134.4461  128.4479   73.9339 H   0  0  0  0  0  0  0  0  0  0  0  0
  131.2602  123.0319   72.6386 H   0  0  0  0  0  0  0  0  0  0  0  0
  131.1613  121.5119   73.6283 H   0  0  0  0  0  0  0  0  0  0  0  0
  129.5310  120.3090   73.2640 H   0  0  0  0  0  0  0  0  0  0  0  0
  126.7726  121.2903   74.4865 H   0  0  0  0  0  0  0  0  0  0  0  0
  124.4764  120.4205   74.0663 H   0  0  0  0  0  0  0  0  0  0  0  0
  124.0022  119.1213   71.9952 H   0  0  0  0  0  0  0  0  0  0  0  0
  125.8110  118.6832   70.3413 H   0  0  0  0  0  0  0  0  0  0  0  0
  128.1136  119.5460   70.7579 H   0  0  0  0  0  0  0  0  0  0  0  0
  1  2  1  0
  2  3  2  0
  3  4  1  0
  4  5  1  0
  4  6  2  0
  6  7  1  0
  7  8  3  0
  6  9  1  0
  9 10  1  0
 10 11  1  0
 11 12  1  0
 12 13  2  0
 12 14  1  0
 14 15  1  0
 15 16  2  0
 16 17  1  0
 17 18  2  0
 18 19  1  0
 19 20  2  0
  9 21  2  0
 21  2  1  0
 20 15  1  0
  1 22  1  0
  1 23  1  0
  1 24  1  0
  3 25  1  0
  5 26  1  0
  5 27  1  0
  5 28  1  0
 11 29  1  0
 11 30  1  0
 14 31  1  0
 16 32  1  0
 17 33  1  0
 18 34  1  0
 19 35  1  0
 20 36  1  0
M  END
>  <Binding energies>  (1) 
[-7.48]

>  <Ligand effiencies>  (1) 
[-0.34]

>  <Interactions>  (1) 
["H-B:LYS:547:NZ:9923, V-A:VAL:458:CG2:4087, V-A:VAL:457:C:4073, V-B:HIS:456:CD2:9040, V-A:LYS:547:CE:4950, V-A:HIS:456:CB:4065, V-A:HIS:456:CD2:4068, V-A:HIS:456:C:4061, V-A:ASP:473:CG:4240, V-A:HIS:456:CG:4066, V-A:LYS:547:CG:4948, V-A:LYS:547:CB:4947, V-A:GLY:544:C:4912, V-A:LYS:547:CD:4949, V-B:GLU:543:C:9874, V-B:LYS:547:CE:9922, V-A:TYR:484:CB:4341, V-A:ASP:473:CB:4239, V-A:TYR:484:C:4337, V-B:GLY:544:CA:9886, V-B:VAL:542:CG1:9871, H-A:TYR:484:O:4338, V-B:VAL:542:CB:9870, V-A:TYR:484:CA:4339, V-B:VAL:542:C:9866"]

$$$$
1e_Grossjean_2025
     RDKit          3D

 38 39  0  0  0  0  0  0  0  0999 V2000
  123.3870  129.6970   67.3060 C   0  0  0  0  0  0  0  0  0  0  0  0
  124.3250  129.3990   66.1520 C   0  0  0  0  0  0  0  0  0  0  0  0
  125.6220  128.9240   66.3680 C   0  0  0  0  0  0  0  0  0  0  0  0
  126.4290  128.6740   65.2570 C   0  0  0  0  0  0  0  0  0  0  0  0
  125.9290  128.9040   63.9740 C   0  0  0  0  0  0  0  0  0  0  0  0
  124.6190  129.3750   63.8290 C   0  0  0  0  0  0  0  0  0  0  0  0
  124.1750  129.5980   62.5130 N   0  0  0  0  0  0  0  0  0  0  0  0
  123.7460  130.7500   61.9550 C   0  0  0  0  0  0  0  0  0  0  0  0
  123.6620  131.8310   62.5400 O   0  0  0  0  0  0  0  0  0  0  0  0
  123.3120  130.6590   60.4900 C   0  0  0  0  0  0  0  0  0  0  0  0
  123.7660  132.1490   59.5520 S   0  0  0  0  0  0  0  0  0  0  0  0
  125.2530  132.8350   60.2550 C   0  0  0  0  0  0  0  0  0  0  0  0
  126.0920  131.8960   60.7630 N   0  0  0  0  0  0  0  0  0  0  0  0
  127.2550  132.2970   61.3270 C   0  0  0  0  0  0  0  0  0  0  0  0
  128.1440  131.1920   61.8650 C   0  0  0  0  0  0  0  0  0  0  0  0
  127.6230  133.6380   61.4180 C   0  0  0  0  0  0  0  0  0  0  0  0
  126.7550  134.6150   60.9200 C   0  0  0  0  0  0  0  0  0  0  0  0
  127.1730  136.0790   61.0500 C   0  0  0  0  0  0  0  0  0  0  0  0
  125.5330  134.2200   60.3300 C   0  0  0  0  0  0  0  0  0  0  0  0
  124.5880  135.2340   59.8570 C   0  0  0  0  0  0  0  0  0  0  0  0
  123.8420  136.0370   59.4840 N   0  0  0  0  0  0  0  0  0  0  0  0
  123.8250  129.6260   64.9110 N   0  0  0  0  0  0  0  0  0  0  0  0
  123.9123  129.5301   68.2580 H   0  0  0  0  0  0  0  0  0  0  0  0
  123.0562  130.7445   67.2485 H   0  0  0  0  0  0  0  0  0  0  0  0
  122.5123  129.0325   67.2485 H   0  0  0  0  0  0  0  0  0  0  0  0
  125.9970  128.7517   67.3877 H   0  0  0  0  0  0  0  0  0  0  0  0
  127.4538  128.2976   65.3916 H   0  0  0  0  0  0  0  0  0  0  0  0
  126.5558  128.7177   63.0895 H   0  0  0  0  0  0  0  0  0  0  0  0
  124.1290  128.7700   61.9370 H   0  0  0  0  0  0  0  0  0  0  0  0
  123.7986  129.7869   60.0289 H   0  0  0  0  0  0  0  0  0  0  0  0
  122.2165  130.5623   60.4653 H   0  0  0  0  0  0  0  0  0  0  0  0
  128.1283  131.2115   62.9647 H   0  0  0  0  0  0  0  0  0  0  0  0
  127.7744  130.2186   61.5102 H   0  0  0  0  0  0  0  0  0  0  0  0
  129.1740  131.3446   61.5102 H   0  0  0  0  0  0  0  0  0  0  0  0
  128.5820  133.9239   61.8748 H   0  0  0  0  0  0  0  0  0  0  0  0
  127.2491  136.3455   62.1145 H   0  0  0  0  0  0  0  0  0  0  0  0
  128.1490  136.2261   60.5645 H   0  0  0  0  0  0  0  0  0  0  0  0
  126.4218  136.7193   60.5645 H   0  0  0  0  0  0  0  0  0  0  0  0
  1  2  1  0
  2  3  2  0
  3  4  1  0
  4  5  2  0
  5  6  1  0
  6  7  1  0
  7  8  1  0
  8  9  2  0
  8 10  1  0
 10 11  1  0
 11 12  1  0
 12 13  2  0
 13 14  1  0
 14 15  1  0
 14 16  2  0
 16 17  1  0
 17 18  1  0
 17 19  2  0
 19 20  1  0
 20 21  3  0
  6 22  2  0
 22  2  1  0
 19 12  1  0
  1 23  1  0
  1 24  1  0
  1 25  1  0
  3 26  1  0
  4 27  1  0
  5 28  1  0
  7 29  1  0
 10 30  1  0
 10 31  1  0
 15 32  1  0
 15 33  1  0
 15 34  1  0
 16 35  1  0
 18 36  1  0
 18 37  1  0
 18 38  1  0
M  END
>  <Binding energies>  (1) 
[-7.53]

>  <Ligand effiencies>  (1) 
[-0.3273913043478261]

>  <Interactions>  (1) 
["V-B:GLU:543:CD:9880, V-B:ILE:369:CD1:8211, V-A:TYR:539:CE1:4875, V-A:ALA:541:CB:4892, V-B:SER:385:CA:8379, V-A:TYR:539:CD1:4873, V-B:SER:385:CB:8381, V-B:ILE:369:CG2:8209, V-B:ARG:545:CZ:9898, V-B:LEU:475:CD2:9231, H-B:GLY:454:N:9022, H-B:ARG:545:NE:9896, V-B:GLY:453:C:9014, H-B:TYR:484:OH:9320, V-B:ILE:455:C:9024, V-B:GLY:454:CA:9021, V-B:ARG:545:CD:9895, H-B:ARG:545:NH1:9899, V-B:HIS:456:CE1:9042, V-B:ARG:545:CG:9894, V-B:ARG:545:CB:9893, V-B:TYR:484:CE1:9317, V-B:TYR:484:CZ:9319, V-B:ASP:366:CG:8185, V-B:PRO:482:CB:9298, V-B:ASP:366:CA:8182, V-B:ASP:366:CB:8184, H-B:ASP:366:OD2:8187, H-B:ASP:366:OD1:8186, H-B:SER:385:OG:8382"]

$$$$
1f_Grossjean_2025
     RDKit          3D

 35 36  0  0  0  0  0  0  0  0999 V2000
  129.5890  127.9690   73.0310 C   0  0  0  0  0  0  0  0  0  0  0  0
  130.7280  127.1660   73.6300 C   0  0  0  0  0  0  0  0  0  0  0  0
  132.0030  127.7060   73.7770 C   0  0  0  0  0  0  0  0  0  0  0  0
  133.0170  126.9140   74.3250 C   0  0  0  0  0  0  0  0  0  0  0  0
  134.4120  127.5220   74.4590 C   0  0  0  0  0  0  0  0  0  0  0  0
  132.7220  125.5900   74.7240 C   0  0  0  0  0  0  0  0  0  0  0  0
  133.7830  124.7270   75.2480 C   0  0  0  0  0  0  0  0  0  0  0  0
  134.6230  124.0470   75.6620 N   0  0  0  0  0  0  0  0  0  0  0  0
  131.3920  125.1340   74.5640 C   0  0  0  0  0  0  0  0  0  0  0  0
  130.8340  123.5010   75.0090 S   0  0  0  0  0  0  0  0  0  0  0  0
  130.7050  122.5020   73.4860 C   0  0  0  0  0  0  0  0  0  0  0  0
  129.2730  122.2860   72.9740 C   0  0  0  0  0  0  0  0  0  0  0  0
  128.5840  123.2440   72.6210 O   0  0  0  0  0  0  0  0  0  0  0  0
  128.8630  121.0000   72.9790 N   0  0  0  0  0  0  0  0  0  0  0  0
  127.6330  120.4460   72.5770 C   0  0  0  0  0  0  0  0  0  0  0  0
  127.4190  119.6840   71.4130 C   0  0  0  0  0  0  0  0  0  0  0  0
  126.1410  119.1900   71.1360 C   0  0  0  0  0  0  0  0  0  0  0  0
  125.1080  119.4690   72.0310 C   0  0  0  0  0  0  0  0  0  0  0  0
  125.2890  120.1970   73.1610 N   0  0  0  0  0  0  0  0  0  0  0  0
  126.5360  120.6700   73.4170 C   0  0  0  0  0  0  0  0  0  0  0  0
  130.4220  125.9030   74.0090 N   0  0  0  0  0  0  0  0  0  0  0  0
  128.9790  128.3991   73.8390 H   0  0  0  0  0  0  0  0  0  0  0  0
  129.9985  128.7792   72.4098 H   0  0  0  0  0  0  0  0  0  0  0  0
  128.9635  127.3111   72.4098 H   0  0  0  0  0  0  0  0  0  0  0  0
  132.2097  128.7408   73.4665 H   0  0  0  0  0  0  0  0  0  0  0  0
  134.6634  127.6316   75.5243 H   0  0  0  0  0  0  0  0  0  0  0  0
  135.1474  126.8628   73.9746 H   0  0  0  0  0  0  0  0  0  0  0  0
  134.4297  128.5095   73.9746 H   0  0  0  0  0  0  0  0  0  0  0  0
  131.2779  123.0087   72.6954 H   0  0  0  0  0  0  0  0  0  0  0  0
  131.0968  121.5052   73.7366 H   0  0  0  0  0  0  0  0  0  0  0  0
  129.5240  120.3250   73.3370 H   0  0  0  0  0  0  0  0  0  0  0  0
  128.2526  119.4784   70.7253 H   0  0  0  0  0  0  0  0  0  0  0  0
  125.9538  118.5935   70.2309 H   0  0  0  0  0  0  0  0  0  0  0  0
  124.1024  119.0815   71.8106 H   0  0  0  0  0  0  0  0  0  0  0  0
  126.6921  121.2599   74.3322 H   0  0  0  0  0  0  0  0  0  0  0  0
  1  2  1  0
  2  3  2  0
  3  4  1  0
  4  5  1  0
  4  6  2  0
  6  7  1  0
  7  8  3  0
  6  9  1  0
  9 10  1  0
 10 11  1  0
 11 12  1  0
 12 13  2  0
 12 14  1  0
 14 15  1  0
 15 16  2  0
 16 17  1  0
 17 18  2  0
 18 19  1  0
 19 20  2  0
  9 21  2  0
 21  2  1  0
 20 15  1  0
  1 22  1  0
  1 23  1  0
  1 24  1  0
  3 25  1  0
  5 26  1  0
  5 27  1  0
  5 28  1  0
 11 29  1  0
 11 30  1  0
 14 31  1  0
 16 32  1  0
 17 33  1  0
 18 34  1  0
 20 35  1  0
M  END
>  <Binding energies>  (1) 
[-7.17]

>  <Ligand effiencies>  (1) 
[-0.3259090909090909]

>  <Interactions>  (1) 
["H-B:LYS:547:NZ:9923, V-A:VAL:458:CG2:4087, V-A:VAL:457:C:4073, V-B:HIS:456:CD2:9040, V-A:LYS:547:CE:4950, V-A:HIS:456:CB:4065, V-A:HIS:456:CD2:4068, V-A:HIS:456:C:4061, H-A:VAL:457:N:4076, V-A:ASP:473:CG:4240, V-A:HIS:456:CG:4066, V-A:LYS:547:CG:4948, V-A:LYS:547:CB:4947, V-A:GLY:544:C:4912, V-A:LYS:547:CD:4949, V-B:GLU:543:C:9874, V-B:LYS:547:CE:9922, V-A:TYR:484:CB:4341, V-A:ASP:473:CB:4239, V-A:TYR:484:C:4337, H-B:GLY:544:N:9887, V-B:GLY:544:CA:9886, V-B:VAL:542:CG1:9871, H-A:TYR:484:O:4338, V-B:VAL:542:CB:9870, V-A:TYR:484:CA:4339, V-B:VAL:542:C:9866"]

$$$$
1g_Grossjean_2025
     RDKit          3D

 39 40  0  0  0  0  0  0  0  0999 V2000
  133.8730  125.0470   65.8700 C   0  0  0  0  0  0  0  0  0  0  0  0
  133.1210  125.1210   64.5550 C   0  0  0  0  0  0  0  0  0  0  0  0
  131.7920  125.5370   64.4970 C   0  0  0  0  0  0  0  0  0  0  0  0
  131.1440  125.5700   63.2580 C   0  0  0  0  0  0  0  0  0  0  0  0
  129.6830  126.0140   63.2210 C   0  0  0  0  0  0  0  0  0  0  0  0
  131.8540  125.1900   62.0960 C   0  0  0  0  0  0  0  0  0  0  0  0
  131.1810  125.1660   60.7950 C   0  0  0  0  0  0  0  0  0  0  0  0
  130.6460  125.1480   59.7690 N   0  0  0  0  0  0  0  0  0  0  0  0
  133.2070  124.8060   62.2460 C   0  0  0  0  0  0  0  0  0  0  0  0
  134.2490  124.3090   60.8920 S   0  0  0  0  0  0  0  0  0  0  0  0
  133.6250  122.7100   60.2900 C   0  0  0  0  0  0  0  0  0  0  0  0
  132.5650  122.1210   61.2220 C   0  0  0  0  0  0  0  0  0  0  0  0
  132.7610  122.0910   62.4380 O   0  0  0  0  0  0  0  0  0  0  0  0
  131.4510  121.6520   60.6350 N   0  0  0  0  0  0  0  0  0  0  0  0
  130.2900  121.1020   61.3340 C   0  0  0  0  0  0  0  0  0  0  0  0
  129.0210  121.9380   61.1990 C   0  0  0  0  0  0  0  0  0  0  0  0
  128.6590  122.4610   59.9530 C   0  0  0  0  0  0  0  0  0  0  0  0
  127.5010  123.2230   59.8290 C   0  0  0  0  0  0  0  0  0  0  0  0
  126.7060  123.4570   60.9490 C   0  0  0  0  0  0  0  0  0  0  0  0
  127.0580  122.9350   62.1920 C   0  0  0  0  0  0  0  0  0  0  0  0
  128.2170  122.1740   62.3180 C   0  0  0  0  0  0  0  0  0  0  0  0
  133.8210  124.7550   63.4560 N   0  0  0  0  0  0  0  0  0  0  0  0
  133.1599  125.1172   66.7046 H   0  0  0  0  0  0  0  0  0  0  0  0
  134.4143  124.0913   65.9296 H   0  0  0  0  0  0  0  0  0  0  0  0
  134.5902  125.8789   65.9296 H   0  0  0  0  0  0  0  0  0  0  0  0
  131.2603  125.8351   65.4127 H   0  0  0  0  0  0  0  0  0  0  0  0
  129.3082  126.1279   64.2489 H   0  0  0  0  0  0  0  0  0  0  0  0
  129.6054  126.9763   62.6937 H   0  0  0  0  0  0  0  0  0  0  0  0
  129.0831  125.2576   62.6937 H   0  0  0  0  0  0  0  0  0  0  0  0
  133.1814  122.8542   59.2938 H   0  0  0  0  0  0  0  0  0  0  0  0
  134.4710  122.0080   60.2510 H   0  0  0  0  0  0  0  0  0  0  0  0
  131.3650  121.7350   59.6320 H   0  0  0  0  0  0  0  0  0  0  0  0
  130.0869  120.0998   60.9286 H   0  0  0  0  0  0  0  0  0  0  0  0
  130.5448  121.0872   62.4040 H   0  0  0  0  0  0  0  0  0  0  0  0
  129.2892  122.2701   59.0719 H   0  0  0  0  0  0  0  0  0  0  0  0
  127.2148  123.6385   58.8515 H   0  0  0  0  0  0  0  0  0  0  0  0
  125.7912  124.0599   60.8510 H   0  0  0  0  0  0  0  0  0  0  0  0
  126.4228  123.1234   63.0701 H   0  0  0  0  0  0  0  0  0  0  0  0
  128.4997  121.7590   63.2967 H   0  0  0  0  0  0  0  0  0  0  0  0
  1  2  1  0
  2  3  2  0
  3  4  1  0
  4  5  1  0
  4  6  2  0
  6  7  1  0
  7  8  3  0
  6  9  1  0
  9 10  1  0
 10 11  1  0
 11 12  1  0
 12 13  2  0
 12 14  1  0
 14 15  1  0
 15 16  1  0
 16 17  2  0
 17 18  1  0
 18 19  2  0
 19 20  1  0
 20 21  2  0
  9 22  2  0
 22  2  1  0
 21 16  1  0
  1 23  1  0
  1 24  1  0
  1 25  1  0
  3 26  1  0
  5 27  1  0
  5 28  1  0
  5 29  1  0
 11 30  1  0
 11 31  1  0
 14 32  1  0
 15 33  1  0
 15 34  1  0
 17 35  1  0
 18 36  1  0
 19 37  1  0
 20 38  1  0
 21 39  1  0
M  END
>  <Binding energies>  (1) 
[-6.5]

>  <Ligand effiencies>  (1) 
[-0.2826086956521739]

>  <Interactions>  (1) 
["V-B:ALA:541:CB:9864, V-B:TYR:539:CD2:9846, V-B:GLU:543:CG:9879, V-A:TYR:484:CZ:4347, V-B:TYR:539:C:9839, V-A:LEU:475:CD2:4259, V-B:GLU:543:CD:9880, V-A:ILE:369:CG2:3237, V-B:TYR:539:CE2:9848, V-A:GLU:543:CD:4908, V-B:PRO:540:C:9853, V-B:ALA:541:CA:9862, V-B:PRO:540:CA:9855, V-A:ARG:545:CZ:4926, H-A:TYR:484:OH:4348, V-A:GLY:454:CA:4049, V-A:ILE:369:CD1:3239, V-A:ARG:545:CG:4922, H-A:GLY:454:N:4050, V-A:ARG:545:CD:4923, V-A:TYR:484:CE2:4346, V-B:PRO:540:CB:9857, V-A:ILE:369:CB:3236, H-A:ARG:545:NH2:4928"]

$$$$
1h_Grossjean_2025
     RDKit          3D

 51 52  0  0  0  0  0  0  0  0999 V2000
  127.8370  128.8470   66.4300 C   0  0  0  0  0  0  0  0  0  0  0  0
  126.4650  128.7330   66.0720 O   0  0  0  0  0  0  0  0  0  0  0  0
  126.1080  128.7520   64.7360 C   0  0  0  0  0  0  0  0  0  0  0  0
  126.8240  128.0940   63.7240 C   0  0  0  0  0  0  0  0  0  0  0  0
  126.4120  128.1690   62.3930 C   0  0  0  0  0  0  0  0  0  0  0  0
  127.1860  127.4290   61.3060 C   0  0  0  0  0  0  0  0  0  0  0  0
  126.9960  125.9790   61.3220 N   0  0  0  0  0  0  0  0  0  0  0  0
  126.5310  125.2450   60.2950 C   0  0  0  0  0  0  0  0  0  0  0  0
  126.2330  125.7170   59.1980 O   0  0  0  0  0  0  0  0  0  0  0  0
  126.3720  123.7450   60.5460 C   0  0  0  0  0  0  0  0  0  0  0  0
  127.1170  123.2380   62.1260 S   0  0  0  0  0  0  0  0  0  0  0  0
  128.8260  122.8190   61.8230 C   0  0  0  0  0  0  0  0  0  0  0  0
  129.0560  121.5490   61.3990 N   0  0  0  0  0  0  0  0  0  0  0  0
  130.3290  121.1660   61.1460 C   0  0  0  0  0  0  0  0  0  0  0  0
  130.5050  119.7360   60.6720 C   0  0  0  0  0  0  0  0  0  0  0  0
  131.4170  122.0210   61.3050 C   0  0  0  0  0  0  0  0  0  0  0  0
  131.1940  123.3310   61.7440 C   0  0  0  0  0  0  0  0  0  0  0  0
  132.4000  124.2520   61.9100 C   0  0  0  0  0  0  0  0  0  0  0  0
  129.8720  123.7520   62.0130 C   0  0  0  0  0  0  0  0  0  0  0  0
  129.6080  125.1170   62.4770 C   0  0  0  0  0  0  0  0  0  0  0  0
  129.4000  126.1950   62.8430 N   0  0  0  0  0  0  0  0  0  0  0  0
  125.2550  128.8780   62.0690 C   0  0  0  0  0  0  0  0  0  0  0  0
  124.5160  129.5410   63.0610 C   0  0  0  0  0  0  0  0  0  0  0  0
  123.3630  130.2630   62.8130 O   0  0  0  0  0  0  0  0  0  0  0  0
  123.0040  130.5660   61.4690 C   0  0  0  0  0  0  0  0  0  0  0  0
  124.9600  129.4800   64.3900 C   0  0  0  0  0  0  0  0  0  0  0  0
  124.2440  130.1200   65.3730 O   0  0  0  0  0  0  0  0  0  0  0  0
  123.7380  129.2520   66.3780 C   0  0  0  0  0  0  0  0  0  0  0  0
  127.9305  128.8548   67.5260 H   0  0  0  0  0  0  0  0  0  0  0  0
  128.3951  127.9921   66.0204 H   0  0  0  0  0  0  0  0  0  0  0  0
  128.2463  129.7823   66.0204 H   0  0  0  0  0  0  0  0  0  0  0  0
  127.7208  127.5121   63.9832 H   0  0  0  0  0  0  0  0  0  0  0  0
  126.8579  127.8100   60.3276 H   0  0  0  0  0  0  0  0  0  0  0  0
  128.2540  127.6119   61.4956 H   0  0  0  0  0  0  0  0  0  0  0  0
  127.2040  125.5130   62.1930 H   0  0  0  0  0  0  0  0  0  0  0  0
  125.3000  123.4992   60.5634 H   0  0  0  0  0  0  0  0  0  0  0  0
  126.8894  123.2077   59.7376 H   0  0  0  0  0  0  0  0  0  0  0  0
  130.5871  119.0686   61.5426 H   0  0  0  0  0  0  0  0  0  0  0  0
  129.6363  119.4414   60.0648 H   0  0  0  0  0  0  0  0  0  0  0  0
  131.4192  119.6609   60.0648 H   0  0  0  0  0  0  0  0  0  0  0  0
  132.4373  121.6714   61.0885 H   0  0  0  0  0  0  0  0  0  0  0  0
  132.6000  124.4048   62.9808 H   0  0  0  0  0  0  0  0  0  0  0  0
  133.2796  123.7936   61.4344 H   0  0  0  0  0  0  0  0  0  0  0  0
  132.1894  125.2213   61.4344 H   0  0  0  0  0  0  0  0  0  0  0  0
  124.9177  128.9179   61.0228 H   0  0  0  0  0  0  0  0  0  0  0  0
  122.1634  131.2755   61.4651 H   0  0  0  0  0  0  0  0  0  0  0  0
  123.8649  131.0147   60.9518 H   0  0  0  0  0  0  0  0  0  0  0  0
  122.7063  129.6420   60.9518 H   0  0  0  0  0  0  0  0  0  0  0  0
  123.9768  129.6617   67.3705 H   0  0  0  0  0  0  0  0  0  0  0  0
  122.6468  129.1635   66.2707 H   0  0  0  0  0  0  0  0  0  0  0  0
  124.1987  128.2589   66.2707 H   0  0  0  0  0  0  0  0  0  0  0  0
  1  2  1  0
  2  3  1  0
  3  4  2  0
  4  5  1  0
  5  6  1  0
  6  7  1  0
  7  8  1  0
  8  9  2  0
  8 10  1  0
 10 11  1  0
 11 12  1  0
 12 13  2  0
 13 14  1  0
 14 15  1  0
 14 16  2  0
 16 17  1  0
 17 18  1  0
 17 19  2  0
 19 20  1  0
 20 21  3  0
  5 22  2  0
 22 23  1  0
 23 24  1  0
 24 25  1  0
 23 26  2  0
 26 27  1  0
 27 28  1  0
 26  3  1  0
 19 12  1  0
  1 29  1  0
  1 30  1  0
  1 31  1  0
  4 32  1  0
  6 33  1  0
  6 34  1  0
  7 35  1  0
 10 36  1  0
 10 37  1  0
 15 38  1  0
 15 39  1  0
 15 40  1  0
 16 41  1  0
 18 42  1  0
 18 43  1  0
 18 44  1  0
 22 45  1  0
 25 46  1  0
 25 47  1  0
 25 48  1  0
 28 49  1  0
 28 50  1  0
 28 51  1  0
M  END
>  <Binding energies>  (1) 
[-6.02]

>  <Ligand effiencies>  (1) 
[-0.20758620689655172]

>  <Interactions>  (1) 
["V-B:TYR:539:CD2:9846, H-B:GLU:543:OE2:9882, V-A:LEU:475:CD2:4259, V-B:GLU:543:CD:9880, H-B:GLU:543:OE1:9881, V-A:GLU:543:CD:4908, V-B:PRO:540:CA:9855, V-B:ILE:369:CD1:8211, V-A:GLU:543:CG:4907, V-B:ARG:545:CZ:9898, H-B:GLY:454:N:9022, V-B:GLY:453:C:9014, H-B:TYR:484:OH:9320, V-B:GLY:453:CA:9016, V-B:ARG:545:CD:9895, H-B:ARG:545:NH1:9899, V-B:HIS:456:CE1:9042, V-B:ARG:545:CG:9894, V-B:ASP:366:CG:8185, H-B:ALA:541:N:9863, V-B:ASP:366:CA:8182, V-A:GLU:543:CB:4906, V-B:PRO:540:CB:9857"]

$$$$
1i_Grossjean_2025
     RDKit          3D

 32 33  0  0  0  0  0  0  0  0999 V2000
  129.3030  128.1160   73.6580 C   0  0  0  0  0  0  0  0  0  0  0  0
  128.0750  128.8050   74.2230 C   0  0  0  0  0  0  0  0  0  0  0  0
  126.8730  128.1240   74.4020 C   0  0  0  0  0  0  0  0  0  0  0  0
  125.7770  128.8090   74.9370 C   0  0  0  0  0  0  0  0  0  0  0  0
  124.4750  128.0360   75.1390 C   0  0  0  0  0  0  0  0  0  0  0  0
  125.9130  130.1750   75.2770 C   0  0  0  0  0  0  0  0  0  0  0  0
  124.7930  130.8970   75.8860 C   0  0  0  0  0  0  0  0  0  0  0  0
  123.9080  131.4650   76.3680 N   0  0  0  0  0  0  0  0  0  0  0  0
  127.1640  130.7920   75.0390 C   0  0  0  0  0  0  0  0  0  0  0  0
  127.5110  132.4980   75.4050 S   0  0  0  0  0  0  0  0  0  0  0  0
  127.3800  133.4320   73.8500 C   0  0  0  0  0  0  0  0  0  0  0  0
  128.6360  133.2930   72.9880 C   0  0  0  0  0  0  0  0  0  0  0  0
  128.9790  132.1760   72.5960 O   0  0  0  0  0  0  0  0  0  0  0  0
  129.2850  134.4460   72.7150 N   0  0  0  0  0  0  0  0  0  0  0  0
  130.4430  134.6020   71.9660 C   0  0  0  0  0  0  0  0  0  0  0  0
  131.7200  134.4180   72.4930 C   0  0  0  0  0  0  0  0  0  0  0  0
  132.5780  134.6630   71.4450 C   0  0  0  0  0  0  0  0  0  0  0  0
  131.8550  134.9820   70.3460 O   0  0  0  0  0  0  0  0  0  0  0  0
  130.5020  134.9410   70.6890 N   0  0  0  0  0  0  0  0  0  0  0  0
  128.2270  130.1130   74.5380 N   0  0  0  0  0  0  0  0  0  0  0  0
  129.9366  127.7605   74.4840 H   0  0  0  0  0  0  0  0  0  0  0  0
  128.9919  127.2607   73.0402 H   0  0  0  0  0  0  0  0  0  0  0  0
  129.8708  128.8273   73.0402 H   0  0  0  0  0  0  0  0  0  0  0  0
  126.7870  127.0625   74.1265 H   0  0  0  0  0  0  0  0  0  0  0  0
  124.2804  127.9205   76.2155 H   0  0  0  0  0  0  0  0  0  0  0  0
  123.6450  128.5877   74.6735 H   0  0  0  0  0  0  0  0  0  0  0  0
  124.5620  127.0432   74.6735 H   0  0  0  0  0  0  0  0  0  0  0  0
  126.5164  133.0558   73.2819 H   0  0  0  0  0  0  0  0  0  0  0  0
  127.2585  134.4956   74.1028 H   0  0  0  0  0  0  0  0  0  0  0  0
  128.9160  135.2930   73.1230 H   0  0  0  0  0  0  0  0  0  0  0  0
  131.9848  134.1377   73.5232 H   0  0  0  0  0  0  0  0  0  0  0  0
  133.6756  134.6083   71.4929 H   0  0  0  0  0  0  0  0  0  0  0  0
  1  2  1  0
  2  3  2  0
  3  4  1  0
  4  5  1  0
  4  6  2  0
  6  7  1  0
  7  8  3  0
  6  9  1  0
  9 10  1  0
 10 11  1  0
 11 12  1  0
 12 13  2  0
 12 14  1  0
 14 15  1  0
 15 16  1  0
 16 17  2  0
 17 18  1  0
 18 19  1  0
  9 20  2  0
 20  2  1  0
 19 15  2  0
  1 21  1  0
  1 22  1  0
  1 23  1  0
  3 24  1  0
  5 25  1  0
  5 26  1  0
  5 27  1  0
 11 28  1  0
 11 29  1  0
 14 30  1  0
 16 31  1  0
 17 32  1  0
M  END
>  <Binding energies>  (1) 
[-7.41]

>  <Ligand effiencies>  (1) 
[-0.35285714285714287]

>  <Interactions>  (1) 
["H-A:LYS:547:NZ:4951, V-B:HIS:456:CD2:9040, V-A:LYS:547:CE:4950, V-B:HIS:456:CG:9038, V-B:HIS:456:CB:9037, V-B:VAL:457:C:9045, V-B:VAL:458:CG2:9059, V-B:ASP:473:CB:9211, V-B:ASP:473:CG:9212, V-A:GLU:543:C:4902, V-A:GLY:544:CA:4914, H-A:GLY:544:N:4915, V-B:HIS:456:C:9033, H-B:TYR:484:N:9312, V-B:TYR:484:CA:9311, V-B:VAL:457:CA:9047, V-B:TYR:484:CB:9313, V-B:TYR:484:C:9309, V-A:VAL:542:CG1:4899, H-B:LEU:472:N:9201, H-B:TYR:484:O:9310"]

$$$$
1j_Grossjean_2025
     RDKit          3D

 32 33  0  0  0  0  0  0  0  0999 V2000
  123.0550  131.5900   76.3810 C   0  0  0  0  0  0  0  0  0  0  0  0
  124.3090  130.8650   75.9270 C   0  0  0  0  0  0  0  0  0  0  0  0
  124.2950  129.5050   75.6230 C   0  0  0  0  0  0  0  0  0  0  0  0
  125.4780  128.8930   75.1970 C   0  0  0  0  0  0  0  0  0  0  0  0
  125.4340  127.4050   74.8520 C   0  0  0  0  0  0  0  0  0  0  0  0
  126.6570  129.6650   75.0930 C   0  0  0  0  0  0  0  0  0  0  0  0
  127.8940  129.0560   74.5980 C   0  0  0  0  0  0  0  0  0  0  0  0
  128.8700  128.5720   74.2050 N   0  0  0  0  0  0  0  0  0  0  0  0
  126.5850  131.0330   75.4470 C   0  0  0  0  0  0  0  0  0  0  0  0
  127.9690  132.1490   75.3790 S   0  0  0  0  0  0  0  0  0  0  0  0
  127.6610  133.3280   74.0300 C   0  0  0  0  0  0  0  0  0  0  0  0
  128.8660  133.4580   73.0960 C   0  0  0  0  0  0  0  0  0  0  0  0
  129.2930  132.4580   72.5180 O   0  0  0  0  0  0  0  0  0  0  0  0
  129.3780  134.7020   72.9750 N   0  0  0  0  0  0  0  0  0  0  0  0
  130.4660  135.0790   72.2000 C   0  0  0  0  0  0  0  0  0  0  0  0
  130.5110  135.2330   70.8930 N   0  0  0  0  0  0  0  0  0  0  0  0
  131.7120  135.6000   70.4920 C   0  0  0  0  0  0  0  0  0  0  0  0
  132.6740  135.7520   71.4850 C   0  0  0  0  0  0  0  0  0  0  0  0
  131.9570  135.3930   73.0270 S   0  0  0  0  0  0  0  0  0  0  0  0
  125.4270  131.6220   75.8390 N   0  0  0  0  0  0  0  0  0  0  0  0
  123.0206  131.6099   77.4803 H   0  0  0  0  0  0  0  0  0  0  0  0
  123.0674  132.6203   75.9959 H   0  0  0  0  0  0  0  0  0  0  0  0
  122.1683  131.0652   75.9959 H   0  0  0  0  0  0  0  0  0  0  0  0
  123.3672  128.9216   75.7168 H   0  0  0  0  0  0  0  0  0  0  0  0
  125.4165  126.8139   75.7795 H   0  0  0  0  0  0  0  0  0  0  0  0
  124.5291  127.1915   74.2641 H   0  0  0  0  0  0  0  0  0  0  0  0
  126.3247  127.1384   74.2641 H   0  0  0  0  0  0  0  0  0  0  0  0
  126.7952  132.9818   73.4465 H   0  0  0  0  0  0  0  0  0  0  0  0
  127.4703  134.3144   74.4778 H   0  0  0  0  0  0  0  0  0  0  0  0
  128.9540  135.4380   73.5210 H   0  0  0  0  0  0  0  0  0  0  0  0
  131.9407  135.7763   69.4306 H   0  0  0  0  0  0  0  0  0  0  0  0
  133.7197  136.0511   71.3209 H   0  0  0  0  0  0  0  0  0  0  0  0
  1  2  1  0
  2  3  2  0
  3  4  1  0
  4  5  1  0
  4  6  2  0
  6  7  1  0
  7  8  3  0
  6  9  1  0
  9 10  1  0
 10 11  1  0
 11 12  1  0
 12 13  2  0
 12 14  1  0
 14 15  1  0
 15 16  2  0
 16 17  1  0
 17 18  2  0
 18 19  1  0
  9 20  2  0
 20  2  1  0
 19 15  1  0
  1 21  1  0
  1 22  1  0
  1 23  1  0
  3 24  1  0
  5 25  1  0
  5 26  1  0
  5 27  1  0
 11 28  1  0
 11 29  1  0
 14 30  1  0
 17 31  1  0
 18 32  1  0
M  END
>  <Binding energies>  (1) 
[-7.12]

>  <Ligand effiencies>  (1) 
[-0.33904761904761904]

>  <Interactions>  (1) 
["H-A:LYS:547:NZ:4951, V-B:LYS:547:CG:9920, V-B:HIS:456:CD2:9040, V-B:LYS:547:CD:9921, V-B:HIS:456:CG:9038, V-B:HIS:456:CB:9037, V-B:VAL:457:C:9045, V-B:VAL:458:CG2:9059, V-B:ASP:473:CB:9211, V-B:ASP:473:CG:9212, V-B:LYS:547:CE:9922, V-B:HIS:456:C:9033, H-B:TYR:484:N:9312, V-B:TYR:484:CA:9311, V-B:VAL:457:CA:9047, V-B:TYR:484:CB:9313, V-B:TYR:484:C:9309, V-B:HIS:456:CA:9035, V-A:VAL:542:CG1:4899, H-B:ASP:473:OD2:9214, H-B:TYR:484:O:9310, V-B:LYS:471:CB:9189, V-B:LYS:471:C:9185, V-B:LEU:472:C:9198, V-B:LEU:472:CA:9200, V-A:VAL:542:C:4894, V-B:SER:483:CB:9305, V-B:LYS:471:CA:9187, V-A:VAL:542:CB:4898"]

$$$$
1k_Grossjean_2025
     RDKit          3D

 50 50  0  0  0  0  0  0  0  0999 V2000
  132.8900  131.4870   61.2410 C   0  0  0  0  0  0  0  0  0  0  0  0
  131.6020  131.8060   61.7410 O   0  0  0  0  0  0  0  0  0  0  0  0
  130.5480  131.4660   60.8500 C   0  0  0  0  0  0  0  0  0  0  0  0
  129.3210  131.0190   61.6550 C   0  0  0  0  0  0  0  0  0  0  0  0
  128.8560  132.1020   62.4500 O   0  0  0  0  0  0  0  0  0  0  0  0
  127.6640  132.7010   61.9580 C   0  0  0  0  0  0  0  0  0  0  0  0
  127.9960  134.0710   61.3510 C   0  0  0  0  0  0  0  0  0  0  0  0
  127.0640  134.3700   60.3190 O   0  0  0  0  0  0  0  0  0  0  0  0
  126.3260  135.5640   60.5440 C   0  0  0  0  0  0  0  0  0  0  0  0
  124.8360  135.3130   60.2500 C   0  0  0  0  0  0  0  0  0  0  0  0
  124.1710  134.4540   61.2310 N   0  0  0  0  0  0  0  0  0  0  0  0
  124.1690  133.1100   61.2080 C   0  0  0  0  0  0  0  0  0  0  0  0
  124.7450  132.4510   60.3410 O   0  0  0  0  0  0  0  0  0  0  0  0
  123.3880  132.4290   62.3430 C   0  0  0  0  0  0  0  0  0  0  0  0
  123.2700  130.6090   62.2410 S   0  0  0  0  0  0  0  0  0  0  0  0
  124.4560  129.8800   63.3620 C   0  0  0  0  0  0  0  0  0  0  0  0
  124.0710  129.8020   64.6630 N   0  0  0  0  0  0  0  0  0  0  0  0
  124.9260  129.2690   65.5660 C   0  0  0  0  0  0  0  0  0  0  0  0
  124.4280  129.2250   66.9980 C   0  0  0  0  0  0  0  0  0  0  0  0
  126.1860  128.7880   65.2170 C   0  0  0  0  0  0  0  0  0  0  0  0
  126.5910  128.8560   63.8800 C   0  0  0  0  0  0  0  0  0  0  0  0
  127.9750  128.3240   63.5170 C   0  0  0  0  0  0  0  0  0  0  0  0
  125.7150  129.4130   62.9210 C   0  0  0  0  0  0  0  0  0  0  0  0
  126.1150  129.5000   61.5130 C   0  0  0  0  0  0  0  0  0  0  0  0
  126.4320  129.5690   60.4020 N   0  0  0  0  0  0  0  0  0  0  0  0
  133.5780  131.3166   62.0822 H   0  0  0  0  0  0  0  0  0  0  0  0
  132.8297  130.5767   60.6265 H   0  0  0  0  0  0  0  0  0  0  0  0
  133.2615  132.3203   60.6265 H   0  0  0  0  0  0  0  0  0  0  0  0
  130.2865  132.3432   60.2400 H   0  0  0  0  0  0  0  0  0  0  0  0
  130.8738  130.6460   60.1931 H   0  0  0  0  0  0  0  0  0  0  0  0
  128.5251  130.7024   60.9649 H   0  0  0  0  0  0  0  0  0  0  0  0
  129.5969  130.1772   62.3071 H   0  0  0  0  0  0  0  0  0  0  0  0
  127.2201  132.0552   61.1860 H   0  0  0  0  0  0  0  0  0  0  0  0
  126.9484  132.8282   62.7837 H   0  0  0  0  0  0  0  0  0  0  0  0
  127.9375  134.8425   62.1329 H   0  0  0  0  0  0  0  0  0  0  0  0
  129.0130  134.0501   60.9323 H   0  0  0  0  0  0  0  0  0  0  0  0
  126.4449  135.8759   61.5921 H   0  0  0  0  0  0  0  0  0  0  0  0
  126.7012  136.3562   59.8794 H   0  0  0  0  0  0  0  0  0  0  0  0
  124.3186  136.2836   60.2334 H   0  0  0  0  0  0  0  0  0  0  0  0
  124.7866  134.7894   59.2839 H   0  0  0  0  0  0  0  0  0  0  0  0
  123.6750  134.9260   61.9720 H   0  0  0  0  0  0  0  0  0  0  0  0
  123.8813  132.6832   63.2928 H   0  0  0  0  0  0  0  0  0  0  0  0
  122.3561  132.8017   62.2631 H   0  0  0  0  0  0  0  0  0  0  0  0
  125.2829  129.3005   67.6860 H   0  0  0  0  0  0  0  0  0  0  0  0
  123.7409  130.0659   67.1733 H   0  0  0  0  0  0  0  0  0  0  0  0
  123.8990  128.2766   67.1733 H   0  0  0  0  0  0  0  0  0  0  0  0
  126.8522  128.3613   65.9813 H   0  0  0  0  0  0  0  0  0  0  0  0
  128.5376  128.1077   64.4372 H   0  0  0  0  0  0  0  0  0  0  0  0
  127.8701  127.4021   62.9261 H   0  0  0  0  0  0  0  0  0  0  0  0
  128.5146  129.0788   62.9261 H   0  0  0  0  0  0  0  0  0  0  0  0
  1  2  1  0
  2  3  1  0
  3  4  1  0
  4  5  1  0
  5  6  1  0
  6  7  1  0
  7  8  1  0
  8  9  1  0
  9 10  1  0
 10 11  1  0
 11 12  1  0
 12 13  2  0
 12 14  1  0
 14 15  1  0
 15 16  1  0
 16 17  2  0
 17 18  1  0
 18 19  1  0
 18 20  2  0
 20 21  1  0
 21 22  1  0
 21 23  2  0
 23 24  1  0
 24 25  3  0
 23 16  1  0
  1 26  1  0
  1 27  1  0
  1 28  1  0
  3 29  1  0
  3 30  1  0
  4 31  1  0
  4 32  1  0
  6 33  1  0
  6 34  1  0
  7 35  1  0
  7 36  1  0
  9 37  1  0
  9 38  1  0
 10 39  1  0
 10 40  1  0
 11 41  1  0
 14 42  1  0
 14 43  1  0
 19 44  1  0
 19 45  1  0
 19 46  1  0
 20 47  1  0
 22 48  1  0
 22 49  1  0
 22 50  1  0
M  END
>  <Binding energies>  (1) 
[-5.85]

>  <Ligand effiencies>  (1) 
[-0.22499999999999998]

>  <Interactions>  (1) 
["V-B:GLU:543:CD:9880, V-A:GLU:543:CD:4908, V-B:SER:385:C:8377, V-B:ILE:369:CD1:8211, V-A:TYR:539:CE1:4875, V-A:PRO:540:CA:4883, V-A:ALA:541:CB:4892, V-B:SER:385:CA:8379, V-A:TYR:539:CD1:4873, V-B:SER:385:CB:8381, V-B:ILE:369:CG2:8209, V-B:ARG:545:CZ:9898, V-B:LEU:475:CD2:9231, V-A:ALA:541:CA:4890, H-A:ALA:541:N:4891, H-B:GLY:454:N:9022, V-B:GLY:453:C:9014, H-B:TYR:484:OH:9320, V-A:ASN:362:CB:3176, V-B:GLY:454:CA:9021, V-B:ARG:545:CD:9895, H-B:ARG:545:NH1:9899, V-B:HIS:456:CE1:9042, V-B:ARG:545:CG:9894, V-A:PRO:540:CB:4885, V-B:TYR:484:CE1:9317, V-B:TYR:484:CZ:9319, H-B:SER:385:OG:8382, H-B:SER:385:O:8378"]

$$$$
1l_Grossjean_2025
     RDKit          3D

 30 30  0  0  0  0  0  0  0  0999 V2000
  133.5810  125.1640   66.5220 C   0  0  0  0  0  0  0  0  0  0  0  0
  133.9270  125.1180   65.1450 O   0  0  0  0  0  0  0  0  0  0  0  0
  132.8300  125.4830   64.3670 N   0  0  0  0  0  0  0  0  0  0  0  0
  132.8090  125.1390   63.0650 C   0  0  0  0  0  0  0  0  0  0  0  0
  133.5890  124.3270   62.5590 O   0  0  0  0  0  0  0  0  0  0  0  0
  131.7200  125.8240   62.2270 C   0  0  0  0  0  0  0  0  0  0  0  0
  131.3570  125.0210   60.6280 S   0  0  0  0  0  0  0  0  0  0  0  0
  130.2460  123.6580   60.9310 C   0  0  0  0  0  0  0  0  0  0  0  0
  128.9320  123.9830   61.0540 N   0  0  0  0  0  0  0  0  0  0  0  0
  128.0340  122.9970   61.2860 C   0  0  0  0  0  0  0  0  0  0  0  0
  126.5880  123.4390   61.4110 C   0  0  0  0  0  0  0  0  0  0  0  0
  128.4010  121.6580   61.4030 C   0  0  0  0  0  0  0  0  0  0  0  0
  129.7490  121.3110   61.2770 C   0  0  0  0  0  0  0  0  0  0  0  0
  130.1290  119.8360   61.4070 C   0  0  0  0  0  0  0  0  0  0  0  0
  130.7040  122.3240   61.0350 C   0  0  0  0  0  0  0  0  0  0  0  0
  132.1250  121.9880   60.8990 C   0  0  0  0  0  0  0  0  0  0  0  0
  133.2450  121.7220   60.7910 N   0  0  0  0  0  0  0  0  0  0  0  0
  134.4882  125.0434   67.1322 H   0  0  0  0  0  0  0  0  0  0  0  0
  133.1118  126.1324   66.7500 H   0  0  0  0  0  0  0  0  0  0  0  0
  132.8751  124.3518   66.7500 H   0  0  0  0  0  0  0  0  0  0  0  0
  132.3430  126.2840   64.7440 H   0  0  0  0  0  0  0  0  0  0  0  0
  130.7931  125.8396   62.8191 H   0  0  0  0  0  0  0  0  0  0  0  0
  132.1022  126.8272   61.9873 H   0  0  0  0  0  0  0  0  0  0  0  0
  126.3203  123.5208   62.4748 H   0  0  0  0  0  0  0  0  0  0  0  0
  126.4602  124.4172   60.9244 H   0  0  0  0  0  0  0  0  0  0  0  0
  125.9351  122.6994   60.9244 H   0  0  0  0  0  0  0  0  0  0  0  0
  127.6411  120.8854   61.5917 H   0  0  0  0  0  0  0  0  0  0  0  0
  130.1981  119.5676   62.4715 H   0  0  0  0  0  0  0  0  0  0  0  0
  129.3614  119.2154   60.9215 H   0  0  0  0  0  0  0  0  0  0  0  0
  131.1009  119.6636   60.9215 H   0  0  0  0  0  0  0  0  0  0  0  0
  1  2  1  0
  2  3  1  0
  3  4  1  0
  4  5  2  0
  4  6  1  0
  6  7  1  0
  7  8  1  0
  8  9  2  0
  9 10  1  0
 10 11  1  0
 10 12  2  0
 12 13  1  0
 13 14  1  0
 13 15  2  0
 15 16  1  0
 16 17  3  0
 15  8  1  0
  1 18  1  0
  1 19  1  0
  1 20  1  0
  3 21  1  0
  6 22  1  0
  6 23  1  0
 11 24  1  0
 11 25  1  0
 11 26  1  0
 12 27  1  0
 14 28  1  0
 14 29  1  0
 14 30  1  0
M  END
>  <Binding energies>  (1) 
[-6.17]

>  <Ligand effiencies>  (1) 
[-0.3427777777777778]

>  <Interactions>  (1) 
["V-B:ALA:541:CB:9864, V-B:TYR:539:CD2:9846, V-A:TYR:484:CZ:4347, V-B:TYR:539:C:9839, V-A:LEU:475:CD1:4258, V-A:LEU:475:CD2:4259, V-B:TYR:539:CE2:9848, H-A:GLU:543:OE2:4910, V-B:PRO:540:C:9853, V-B:PRO:540:CA:9855, H-A:GLU:543:OE1:4909, V-A:ARG:545:CZ:4926, H-A:TYR:484:OH:4348, V-A:ARG:545:CG:4922, H-A:GLY:454:N:4050, V-A:ARG:545:CD:4923, H-A:ARG:545:NE:4924, V-A:ILE:455:C:4052, V-A:TYR:484:CE2:4346, V-A:HIS:456:CE1:4070"]

$$$$
1m_Grossjean_2025
     RDKit          3D

 35 35  0  0  0  0  0  0  0  0999 V2000
  133.7590  125.1240   66.3250 C   0  0  0  0  0  0  0  0  0  0  0  0
  134.1850  125.1300   64.9690 O   0  0  0  0  0  0  0  0  0  0  0  0
  133.2810  125.1150   63.9670 C   0  0  0  0  0  0  0  0  0  0  0  0
  133.4940  124.7240   62.8160 O   0  0  0  0  0  0  0  0  0  0  0  0
  131.9110  125.6480   64.4330 C   0  0  0  0  0  0  0  0  0  0  0  0
  131.0310  126.0150   63.3130 N   0  0  0  0  0  0  0  0  0  0  0  0
  129.8900  125.3860   62.9710 C   0  0  0  0  0  0  0  0  0  0  0  0
  129.4620  124.3980   63.5710 O   0  0  0  0  0  0  0  0  0  0  0  0
  129.1460  125.9750   61.7660 C   0  0  0  0  0  0  0  0  0  0  0  0
  128.9890  124.8460   60.3410 S   0  0  0  0  0  0  0  0  0  0  0  0
  130.6190  124.2810   59.9030 C   0  0  0  0  0  0  0  0  0  0  0  0
  131.1780  124.9780   58.8800 N   0  0  0  0  0  0  0  0  0  0  0  0
  132.4210  124.6410   58.4650 C   0  0  0  0  0  0  0  0  0  0  0  0
  132.9870  125.4760   57.3330 C   0  0  0  0  0  0  0  0  0  0  0  0
  133.1480  123.5980   59.0360 C   0  0  0  0  0  0  0  0  0  0  0  0
  132.5710  122.8560   60.0730 C   0  0  0  0  0  0  0  0  0  0  0  0
  133.3790  121.7070   60.6730 C   0  0  0  0  0  0  0  0  0  0  0  0
  131.2730  123.1890   60.5230 C   0  0  0  0  0  0  0  0  0  0  0  0
  130.6310  122.3940   61.5720 C   0  0  0  0  0  0  0  0  0  0  0  0
  130.1250  121.7660   62.4020 N   0  0  0  0  0  0  0  0  0  0  0  0
  134.6384  125.1364   66.9857 H   0  0  0  0  0  0  0  0  0  0  0  0
  133.1418  126.0135   66.5194 H   0  0  0  0  0  0  0  0  0  0  0  0
  133.1671  124.2174   66.5194 H   0  0  0  0  0  0  0  0  0  0  0  0
  131.4146  124.8679   65.0289 H   0  0  0  0  0  0  0  0  0  0  0  0
  132.0932  126.5583   65.0230 H   0  0  0  0  0  0  0  0  0  0  0  0
  131.3300  126.8020   62.7550 H   0  0  0  0  0  0  0  0  0  0  0  0
  128.1343  126.2575   62.0925 H   0  0  0  0  0  0  0  0  0  0  0  0
  129.7437  126.8312   61.4199 H   0  0  0  0  0  0  0  0  0  0  0  0
  133.5583  126.3188   57.7492 H   0  0  0  0  0  0  0  0  0  0  0  0
  133.6501  124.8535   56.7143 H   0  0  0  0  0  0  0  0  0  0  0  0
  132.1632  125.8614   56.7143 H   0  0  0  0  0  0  0  0  0  0  0  0
  134.1605  123.3614   58.6769 H   0  0  0  0  0  0  0  0  0  0  0  0
  133.3386  121.7644   61.7708 H   0  0  0  0  0  0  0  0  0  0  0  0
  132.9555  120.7479   60.3402 H   0  0  0  0  0  0  0  0  0  0  0  0
  134.4248  121.7812   60.3402 H   0  0  0  0  0  0  0  0  0  0  0  0
  1  2  1  0
  2  3  1  0
  3  4  2  0
  3  5  1  0
  5  6  1  0
  6  7  1  0
  7  8  2  0
  7  9  1  0
  9 10  1  0
 10 11  1  0
 11 12  2  0
 12 13  1  0
 13 14  1  0
 13 15  2  0
 15 16  1  0
 16 17  1  0
 16 18  2  0
 18 19  1  0
 19 20  3  0
 18 11  1  0
  1 21  1  0
  1 22  1  0
  1 23  1  0
  5 24  1  0
  5 25  1  0
  6 26  1  0
  9 27  1  0
  9 28  1  0
 14 29  1  0
 14 30  1  0
 14 31  1  0
 15 32  1  0
 17 33  1  0
 17 34  1  0
 17 35  1  0
M  END
>  <Binding energies>  (1) 
[-5.33]

>  <Ligand effiencies>  (1) 
[-0.2538095238095238]

>  <Interactions>  (1) 
["V-A:TYR:484:CZ:4347, V-A:LEU:475:CD2:4259, V-B:GLU:543:CD:9880, V-A:ILE:369:CG2:3237, V-B:TYR:539:CE2:9848, H-A:GLU:543:OE2:4910, V-A:GLU:543:CD:4908, H-A:GLU:543:OE1:4909, V-A:ARG:545:CZ:4926, H-A:TYR:484:OH:4348, V-A:ASP:366:CG:3213, V-A:ILE:369:CD1:3239, V-A:ASP:366:CB:3212, V-A:ARG:545:CG:4922, H-A:GLY:454:N:4050, V-A:ARG:545:CD:4923, H-A:ARG:545:NE:4924, V-A:ILE:455:C:4052, V-A:TYR:484:CE2:4346, V-A:HIS:456:CE1:4070, V-A:ASP:366:C:3208, V-A:ASP:366:CA:3210, V-A:ILE:369:CB:3236, H-A:ARG:545:NH1:4927, H-A:ARG:545:NH2:4928, V-B:TYR:539:CZ:9849"]

$$$$
1n_Grossjean_2025
     RDKit          3D

 48 49  0  0  0  0  0  0  0  0999 V2000
  133.1810  126.9770   74.0540 C   0  0  0  0  0  0  0  0  0  0  0  0
  131.7590  127.5440   74.1140 C   0  0  0  0  0  0  0  0  0  0  0  0
  130.9330  126.8470   73.1890 O   0  0  0  0  0  0  0  0  0  0  0  0
  129.6810  127.2840   72.9000 C   0  0  0  0  0  0  0  0  0  0  0  0
  128.8460  127.5750   73.7610 O   0  0  0  0  0  0  0  0  0  0  0  0
  129.4160  127.3910   71.4250 C   0  0  0  0  0  0  0  0  0  0  0  0
  130.1600  128.2460   70.5970 C   0  0  0  0  0  0  0  0  0  0  0  0
  129.8870  128.3230   69.2350 C   0  0  0  0  0  0  0  0  0  0  0  0
  128.8640  127.5580   68.6730 C   0  0  0  0  0  0  0  0  0  0  0  0
  128.6700  127.7190   67.2870 N   0  0  0  0  0  0  0  0  0  0  0  0
  128.3500  128.8250   66.5820 C   0  0  0  0  0  0  0  0  0  0  0  0
  128.1700  129.9460   67.0570 O   0  0  0  0  0  0  0  0  0  0  0  0
  128.2120  128.6280   65.0660 C   0  0  0  0  0  0  0  0  0  0  0  0
  127.3430  129.7110   64.3920 C   0  0  0  0  0  0  0  0  0  0  0  0
  128.2310  131.2430   63.9810 S   0  0  0  0  0  0  0  0  0  0  0  0
  127.7390  131.7290   62.3410 C   0  0  0  0  0  0  0  0  0  0  0  0
  126.3970  131.8660   62.1950 N   0  0  0  0  0  0  0  0  0  0  0  0
  125.9090  132.2480   60.9920 C   0  0  0  0  0  0  0  0  0  0  0  0
  124.4020  132.3920   60.9070 C   0  0  0  0  0  0  0  0  0  0  0  0
  126.7290  132.5010   59.8940 C   0  0  0  0  0  0  0  0  0  0  0  0
  128.1130  132.3420   60.0280 C   0  0  0  0  0  0  0  0  0  0  0  0
  128.9900  132.6120   58.8080 C   0  0  0  0  0  0  0  0  0  0  0  0
  128.6440  131.9390   61.2740 C   0  0  0  0  0  0  0  0  0  0  0  0
  130.0840  131.7160   61.4230 C   0  0  0  0  0  0  0  0  0  0  0  0
  131.2220  131.5400   61.5380 N   0  0  0  0  0  0  0  0  0  0  0  0
  128.1220  126.6950   69.4920 C   0  0  0  0  0  0  0  0  0  0  0  0
  128.3990  126.6160   70.8540 C   0  0  0  0  0  0  0  0  0  0  0  0
  133.5591  126.8263   75.0759 H   0  0  0  0  0  0  0  0  0  0  0  0
  133.1698  126.0145   73.5215 H   0  0  0  0  0  0  0  0  0  0  0  0
  133.8351  127.6831   73.5215 H   0  0  0  0  0  0  0  0  0  0  0  0
  131.3572  127.4203   75.1305 H   0  0  0  0  0  0  0  0  0  0  0  0
  131.7785  128.6131   73.8560 H   0  0  0  0  0  0  0  0  0  0  0  0
  130.9647  128.8596   71.0281 H   0  0  0  0  0  0  0  0  0  0  0  0
  130.4821  128.9921   68.5961 H   0  0  0  0  0  0  0  0  0  0  0  0
  128.8360  126.8810   66.7480 H   0  0  0  0  0  0  0  0  0  0  0  0
  129.2157  128.6545   64.6166 H   0  0  0  0  0  0  0  0  0  0  0  0
  127.7143  127.6604   64.9047 H   0  0  0  0  0  0  0  0  0  0  0  0
  126.9323  129.2919   63.4616 H   0  0  0  0  0  0  0  0  0  0  0  0
  126.5657  129.9860   65.1201 H   0  0  0  0  0  0  0  0  0  0  0  0
  123.9797  132.4324   61.9219 H   0  0  0  0  0  0  0  0  0  0  0  0
  124.1519  133.3181   60.3687 H   0  0  0  0  0  0  0  0  0  0  0  0
  123.9811  131.5300   60.3687 H   0  0  0  0  0  0  0  0  0  0  0  0
  126.2946  132.8212   58.9355 H   0  0  0  0  0  0  0  0  0  0  0  0
  129.9928  132.9207   59.1384 H   0  0  0  0  0  0  0  0  0  0  0  0
  129.0689  131.6965   58.2033 H   0  0  0  0  0  0  0  0  0  0  0  0
  128.5403  133.4133   58.2033 H   0  0  0  0  0  0  0  0  0  0  0  0
  127.3202  126.0797   69.0578 H   0  0  0  0  0  0  0  0  0  0  0  0
  127.8119  125.9366   71.4894 H   0  0  0  0  0  0  0  0  0  0  0  0
  1  2  1  0
  2  3  1  0
  3  4  1  0
  4  5  2  0
  4  6  1  0
  6  7  2  0
  7  8  1  0
  8  9  2  0
  9 10  1  0
 10 11  1  0
 11 12  2  0
 11 13  1  0
 13 14  1  0
 14 15  1  0
 15 16  1  0
 16 17  2  0
 17 18  1  0
 18 19  1  0
 18 20  2  0
 20 21  1  0
 21 22  1  0
 21 23  2  0
 23 24  1  0
 24 25  3  0
  9 26  1  0
 26 27  2  0
 27  6  1  0
 23 16  1  0
  1 28  1  0
  1 29  1  0
  1 30  1  0
  2 31  1  0
  2 32  1  0
  7 33  1  0
  8 34  1  0
 10 35  1  0
 13 36  1  0
 13 37  1  0
 14 38  1  0
 14 39  1  0
 19 40  1  0
 19 41  1  0
 19 42  1  0
 20 43  1  0
 22 44  1  0
 22 45  1  0
 22 46  1  0
 26 47  1  0
 27 48  1  0
M  END
>  <Binding energies>  (1) 
[-7.48]

>  <Ligand effiencies>  (1) 
[-0.2671428571428572]

>  <Interactions>  (1) 
["H-B:GLU:543:OE2:9882, V-B:GLU:543:CD:9880, H-A:GLU:543:OE2:4910, V-A:GLU:543:CD:4908, V-B:ILE:369:CD1:8211, V-A:TYR:539:CE1:4875, V-A:PRO:540:CA:4883, V-A:ALA:541:CB:4892, V-A:TYR:539:CD1:4873, V-A:GLU:543:CG:4907, H-A:ALA:541:N:4891, H-B:TYR:484:OH:9320, V-A:TYR:539:C:4867, V-B:HIS:456:CE1:9042, H-B:LYS:547:NZ:9923, V-B:HIS:456:CD2:9040, V-A:LYS:547:CE:4950, V-A:HIS:456:CB:4065, V-A:HIS:456:CD2:4068, V-A:HIS:456:CG:4066, V-A:GLY:544:C:4912, V-A:LYS:547:CD:4949, V-B:GLU:543:CB:9878, V-A:HIS:456:CE1:4070, V-A:GLU:543:CB:4906, V-A:PRO:540:N:4884, V-A:GLU:543:C:4902"]

$$$$
1o_Grossjean_2025
     RDKit          3D

 45 46  0  0  0  0  0  0  0  0999 V2000
  132.0980  126.9970   73.7130 C   0  0  0  0  0  0  0  0  0  0  0  0
  131.1540  127.9600   73.2640 O   0  0  0  0  0  0  0  0  0  0  0  0
  129.8780  127.6020   72.9680 C   0  0  0  0  0  0  0  0  0  0  0  0
  129.0460  127.2800   73.8220 O   0  0  0  0  0  0  0  0  0  0  0  0
  129.5760  127.6410   71.4970 C   0  0  0  0  0  0  0  0  0  0  0  0
  130.2820  128.4730   70.6160 C   0  0  0  0  0  0  0  0  0  0  0  0
  129.9780  128.4830   69.2570 C   0  0  0  0  0  0  0  0  0  0  0  0
  128.9630  127.6700   68.7530 C   0  0  0  0  0  0  0  0  0  0  0  0
  128.7460  127.7520   67.3630 N   0  0  0  0  0  0  0  0  0  0  0  0
  128.3720  128.8080   66.6070 C   0  0  0  0  0  0  0  0  0  0  0  0
  128.1900  129.9510   67.0250 O   0  0  0  0  0  0  0  0  0  0  0  0
  128.2010  128.5200   65.1080 C   0  0  0  0  0  0  0  0  0  0  0  0
  127.0440  129.3080   64.4620 C   0  0  0  0  0  0  0  0  0  0  0  0
  127.5880  130.6390   63.3510 S   0  0  0  0  0  0  0  0  0  0  0  0
  126.1500  131.3500   62.5760 C   0  0  0  0  0  0  0  0  0  0  0  0
  125.0210  130.6190   62.7590 N   0  0  0  0  0  0  0  0  0  0  0  0
  123.8610  131.0660   62.2220 C   0  0  0  0  0  0  0  0  0  0  0  0
  122.6390  130.2050   62.4810 C   0  0  0  0  0  0  0  0  0  0  0  0
  123.7820  132.2410   61.4780 C   0  0  0  0  0  0  0  0  0  0  0  0
  124.9440  132.9880   61.2610 C   0  0  0  0  0  0  0  0  0  0  0  0
  124.8330  134.2650   60.4290 C   0  0  0  0  0  0  0  0  0  0  0  0
  126.1670  132.5390   61.8080 C   0  0  0  0  0  0  0  0  0  0  0  0
  127.4040  133.2770   61.5420 C   0  0  0  0  0  0  0  0  0  0  0  0
  128.3800  133.8620   61.3320 N   0  0  0  0  0  0  0  0  0  0  0  0
  128.2560  126.8310   69.6270 C   0  0  0  0  0  0  0  0  0  0  0  0
  128.5610  126.8220   70.9860 C   0  0  0  0  0  0  0  0  0  0  0  0
  132.1122  126.9825   74.8128 H   0  0  0  0  0  0  0  0  0  0  0  0
  131.8148  126.0029   73.3368 H   0  0  0  0  0  0  0  0  0  0  0  0
  133.0976  127.2603   73.3368 H   0  0  0  0  0  0  0  0  0  0  0  0
  131.0818  129.1225   71.0013 H   0  0  0  0  0  0  0  0  0  0  0  0
  130.5426  129.1369   68.5761 H   0  0  0  0  0  0  0  0  0  0  0  0
  128.9220  126.8910   66.8660 H   0  0  0  0  0  0  0  0  0  0  0  0
  129.1354  128.7870   64.5927 H   0  0  0  0  0  0  0  0  0  0  0  0
  127.9621  127.4510   65.0076 H   0  0  0  0  0  0  0  0  0  0  0  0
  126.4268  128.6048   63.8835 H   0  0  0  0  0  0  0  0  0  0  0  0
  126.4863  129.7848   65.2816 H   0  0  0  0  0  0  0  0  0  0  0  0
  122.4884  130.0989   63.5655 H   0  0  0  0  0  0  0  0  0  0  0  0
  121.7540  130.6801   62.0327 H   0  0  0  0  0  0  0  0  0  0  0  0
  122.7886  129.2117   62.0327 H   0  0  0  0  0  0  0  0  0  0  0  0
  122.8186  132.5767   61.0668 H   0  0  0  0  0  0  0  0  0  0  0  0
  124.7575  135.1339   61.0993 H   0  0  0  0  0  0  0  0  0  0  0  0
  125.7256  134.3679   59.7944 H   0  0  0  0  0  0  0  0  0  0  0  0
  123.9360  134.2124   59.7944 H   0  0  0  0  0  0  0  0  0  0  0  0
  127.4596  126.1792   69.2385 H   0  0  0  0  0  0  0  0  0  0  0  0
  127.9987  126.1646   71.6654 H   0  0  0  0  0  0  0  0  0  0  0  0
  1  2  1  0
  2  3  1  0
  3  4  2  0
  3  5  1  0
  5  6  2  0
  6  7  1  0
  7  8  2  0
  8  9  1  0
  9 10  1  0
 10 11  2  0
 10 12  1  0
 12 13  1  0
 13 14  1  0
 14 15  1  0
 15 16  2  0
 16 17  1  0
 17 18  1  0
 17 19  2  0
 19 20  1  0
 20 21  1  0
 20 22  2  0
 22 23  1  0
 23 24  3  0
  8 25  1  0
 25 26  2  0
 26  5  1  0
 22 15  1  0
  1 27  1  0
  1 28  1  0
  1 29  1  0
  6 30  1  0
  7 31  1  0
  9 32  1  0
 12 33  1  0
 12 34  1  0
 13 35  1  0
 13 36  1  0
 18 37  1  0
 18 38  1  0
 18 39  1  0
 19 40  1  0
 21 41  1  0
 21 42  1  0
 21 43  1  0
 25 44  1  0
 26 45  1  0
M  END
>  <Binding energies>  (1) 
[-7.15]

>  <Ligand effiencies>  (1) 
[-0.26481481481481484]

>  <Interactions>  (1) 
["H-B:GLU:543:OE2:9882, V-B:GLU:543:CD:9880, H-A:GLU:543:OE2:4910, V-A:GLU:543:CD:4908, V-B:ILE:369:CD1:8211, V-A:TYR:539:CE1:4875, V-A:ALA:541:CB:4892, V-A:TYR:539:CD1:4873, V-A:GLU:543:CG:4907, V-B:ILE:369:CG2:8209, V-B:LEU:475:CD2:9231, H-A:ALA:541:N:4891, V-B:GLY:453:C:9014, H-B:TYR:484:OH:9320, V-B:GLY:453:CA:9016, V-B:HIS:456:CE1:9042, H-B:LYS:547:NZ:9923, H-A:LYS:547:NZ:4951, V-B:HIS:456:CD2:9040, V-A:HIS:456:CB:4065, V-A:HIS:456:CD2:4068, V-A:HIS:456:CG:4066, V-A:GLY:544:C:4912, V-B:ASP:366:CG:8185, V-A:HIS:456:CE1:4070, V-A:GLU:543:CB:4906, V-A:GLU:543:C:4902, V-A:GLY:544:CA:4914"]

$$$$
1p_Grossjean_2025
     RDKit          3D

 35 36  0  0  0  0  0  0  0  0999 V2000
  124.1180  127.0110   74.5130 C   0  0  0  0  0  0  0  0  0  0  0  0
  125.0260  128.1400   74.9610 C   0  0  0  0  0  0  0  0  0  0  0  0
  124.5140  129.3070   75.5260 C   0  0  0  0  0  0  0  0  0  0  0  0
  125.3980  130.3210   75.9090 C   0  0  0  0  0  0  0  0  0  0  0  0
  124.8130  131.5970   76.5120 C   0  0  0  0  0  0  0  0  0  0  0  0
  126.7860  130.1360   75.7210 C   0  0  0  0  0  0  0  0  0  0  0  0
  127.7280  131.2010   76.0690 C   0  0  0  0  0  0  0  0  0  0  0  0
  128.4710  132.0450   76.3440 N   0  0  0  0  0  0  0  0  0  0  0  0
  127.2180  128.9100   75.1610 C   0  0  0  0  0  0  0  0  0  0  0  0
  128.9260  128.5100   74.8670 S   0  0  0  0  0  0  0  0  0  0  0  0
  129.1480  128.4410   73.0660 C   0  0  0  0  0  0  0  0  0  0  0  0
  130.5810  128.0780   72.6290 C   0  0  0  0  0  0  0  0  0  0  0  0
  131.1780  126.8960   73.4080 C   0  0  0  0  0  0  0  0  0  0  0  0
  130.4610  125.9370   73.7010 O   0  0  0  0  0  0  0  0  0  0  0  0
  132.4920  126.9990   73.7080 N   0  0  0  0  0  0  0  0  0  0  0  0
  133.2710  126.0780   74.3980 C   0  0  0  0  0  0  0  0  0  0  0  0
  132.7340  124.9900   75.0850 C   0  0  0  0  0  0  0  0  0  0  0  0
  133.8190  124.3340   75.6220 C   0  0  0  0  0  0  0  0  0  0  0  0
  134.9490  124.9940   75.2770 O   0  0  0  0  0  0  0  0  0  0  0  0
  134.5890  126.0980   74.5020 N   0  0  0  0  0  0  0  0  0  0  0  0
  126.3520  127.9400   74.7730 N   0  0  0  0  0  0  0  0  0  0  0  0
  123.7065  126.4993   75.3955 H   0  0  0  0  0  0  0  0  0  0  0  0
  123.2946  127.4203   73.9093 H   0  0  0  0  0  0  0  0  0  0  0  0
  124.6943  126.2945   73.9093 H   0  0  0  0  0  0  0  0  0  0  0  0
  123.4301  129.4287   75.6686 H   0  0  0  0  0  0  0  0  0  0  0  0
  124.8432  131.5311   77.6096 H   0  0  0  0  0  0  0  0  0  0  0  0
  125.4037  132.4636   76.1803 H   0  0  0  0  0  0  0  0  0  0  0  0
  123.7709  131.7150   76.1803 H   0  0  0  0  0  0  0  0  0  0  0  0
  128.4598  127.6848   72.6605 H   0  0  0  0  0  0  0  0  0  0  0  0
  128.9409  129.4496   72.6789 H   0  0  0  0  0  0  0  0  0  0  0  0
  130.5638  127.8177   71.5604 H   0  0  0  0  0  0  0  0  0  0  0  0
  131.2138  128.9539   72.8347 H   0  0  0  0  0  0  0  0  0  0  0  0
  132.9700  127.8370   73.4130 H   0  0  0  0  0  0  0  0  0  0  0  0
  131.6730  124.7151   75.1779 H   0  0  0  0  0  0  0  0  0  0  0  0
  133.7745  123.4205   76.2331 H   0  0  0  0  0  0  0  0  0  0  0  0
  1  2  1  0
  2  3  2  0
  3  4  1  0
  4  5  1  0
  4  6  2  0
  6  7  1  0
  7  8  3  0
  6  9  1  0
  9 10  1  0
 10 11  1  0
 11 12  1  0
 12 13  1  0
 13 14  2  0
 13 15  1  0
 15 16  1  0
 16 17  1  0
 17 18  2  0
 18 19  1  0
 19 20  1  0
  9 21  2  0
 21  2  1  0
 20 16  2  0
  1 22  1  0
  1 23  1  0
  1 24  1  0
  3 25  1  0
  5 26  1  0
  5 27  1  0
  5 28  1  0
 11 29  1  0
 11 30  1  0
 12 31  1  0
 12 32  1  0
 15 33  1  0
 17 34  1  0
 18 35  1  0
M  END
>  <Binding energies>  (1) 
[-6.92]

>  <Ligand effiencies>  (1) 
[-0.3145454545454545]

>  <Interactions>  (1) 
["H-B:LYS:547:NZ:9923, H-A:LYS:547:NZ:4951, V-B:LYS:547:CB:9919, V-A:VAL:458:CG2:4087, V-B:LYS:547:CG:9920, V-B:HIS:456:CD2:9040, V-B:ARG:545:C:9889, V-A:LYS:547:CE:4950, V-A:HIS:456:CB:4065, V-A:HIS:456:CD2:4068, V-B:GLY:544:C:9884, V-B:LYS:547:CD:9921, V-B:HIS:456:CB:9037, V-A:HIS:456:C:4061, V-B:VAL:457:C:9045, H-A:VAL:457:N:4076, V-A:LYS:471:CD:4219, V-A:HIS:456:CG:4066, V-A:GLY:544:C:4912, V-A:HIS:456:CA:4063, V-B:VAL:458:CG2:9059, V-B:ASP:473:CG:9212, V-B:HIS:456:C:9033, H-A:GLY:544:O:4913, V-B:VAL:457:CA:9047, V-B:LYS:471:CB:9189, H-A:VAL:458:N:4084"]

$$$$
1q_Grossjean_2025
     RDKit          3D

 38 38  0  0  0  0  0  0  0  0999 V2000
  133.8530  125.1150   66.2890 C   0  0  0  0  0  0  0  0  0  0  0  0
  134.2410  125.1350   64.9230 O   0  0  0  0  0  0  0  0  0  0  0  0
  133.3070  125.1260   63.9410 C   0  0  0  0  0  0  0  0  0  0  0  0
  133.4850  124.7360   62.7860 O   0  0  0  0  0  0  0  0  0  0  0  0
  131.9380  125.6940   64.3710 C   0  0  0  0  0  0  0  0  0  0  0  0
  131.0800  126.0510   63.2310 N   0  0  0  0  0  0  0  0  0  0  0  0
  130.0600  125.3140   62.7500 C   0  0  0  0  0  0  0  0  0  0  0  0
  129.7260  124.2300   63.2320 O   0  0  0  0  0  0  0  0  0  0  0  0
  129.3040  125.9110   61.5550 C   0  0  0  0  0  0  0  0  0  0  0  0
  128.1070  125.0660   61.0750 C   0  0  0  0  0  0  0  0  0  0  0  0
  128.5690  123.7440   59.9150 S   0  0  0  0  0  0  0  0  0  0  0  0
  130.3460  123.6640   59.8250 C   0  0  0  0  0  0  0  0  0  0  0  0
  130.8780  124.5190   58.9140 N   0  0  0  0  0  0  0  0  0  0  0  0
  132.2210  124.5470   58.7530 C   0  0  0  0  0  0  0  0  0  0  0  0
  132.7400  125.5150   57.7050 C   0  0  0  0  0  0  0  0  0  0  0  0
  133.0840  123.7410   59.4920 C   0  0  0  0  0  0  0  0  0  0  0  0
  132.5500  122.8750   60.4510 C   0  0  0  0  0  0  0  0  0  0  0  0
  133.5180  122.0150   61.2620 C   0  0  0  0  0  0  0  0  0  0  0  0
  131.1500  122.8300   60.6400 C   0  0  0  0  0  0  0  0  0  0  0  0
  130.5770  121.9710   61.6780 C   0  0  0  0  0  0  0  0  0  0  0  0
  130.1280  121.2910   62.5010 N   0  0  0  0  0  0  0  0  0  0  0  0
  134.7490  125.1612   66.9254 H   0  0  0  0  0  0  0  0  0  0  0  0
  133.2085  125.9811   66.4998 H   0  0  0  0  0  0  0  0  0  0  0  0
  133.3010  124.1872   66.4998 H   0  0  0  0  0  0  0  0  0  0  0  0
  131.4189  124.9366   64.9767 H   0  0  0  0  0  0  0  0  0  0  0  0
  132.1285  126.6155   64.9406 H   0  0  0  0  0  0  0  0  0  0  0  0
  131.3040  126.9160   62.7620 H   0  0  0  0  0  0  0  0  0  0  0  0
  128.9303  126.9041   61.8451 H   0  0  0  0  0  0  0  0  0  0  0  0
  130.0174  125.9501   60.7187 H   0  0  0  0  0  0  0  0  0  0  0  0
  127.6305  124.6070   61.9538 H   0  0  0  0  0  0  0  0  0  0  0  0
  127.4277  125.7442   60.5378 H   0  0  0  0  0  0  0  0  0  0  0  0
  133.2036  126.3798   58.2022 H   0  0  0  0  0  0  0  0  0  0  0  0
  133.4878  125.0089   57.0767 H   0  0  0  0  0  0  0  0  0  0  0  0
  131.9047  125.8577   57.0767 H   0  0  0  0  0  0  0  0  0  0  0  0
  134.1701  123.7852   59.3234 H   0  0  0  0  0  0  0  0  0  0  0  0
  133.3388  122.1742   62.3356 H   0  0  0  0  0  0  0  0  0  0  0  0
  133.3596  120.9544   61.0172 H   0  0  0  0  0  0  0  0  0  0  0  0
  134.5526  122.2972   61.0172 H   0  0  0  0  0  0  0  0  0  0  0  0
  1  2  1  0
  2  3  1  0
  3  4  2  0
  3  5  1  0
  5  6  1  0
  6  7  1  0
  7  8  2  0
  7  9  1  0
  9 10  1  0
 10 11  1  0
 11 12  1  0
 12 13  2  0
 13 14  1  0
 14 15  1  0
 14 16  2  0
 16 17  1  0
 17 18  1  0
 17 19  2  0
 19 20  1  0
 20 21  3  0
 19 12  1  0
  1 22  1  0
  1 23  1  0
  1 24  1  0
  5 25  1  0
  5 26  1  0
  6 27  1  0
  9 28  1  0
  9 29  1  0
 10 30  1  0
 10 31  1  0
 15 32  1  0
 15 33  1  0
 15 34  1  0
 16 35  1  0
 18 36  1  0
 18 37  1  0
 18 38  1  0
M  END
>  <Binding energies>  (1) 
[-5.72]

>  <Ligand effiencies>  (1) 
[-0.26]

>  <Interactions>  (1) 
["V-A:TYR:484:CZ:4347, V-A:LEU:475:CD2:4259, V-B:GLU:543:CD:9880, V-A:ILE:369:CG2:3237, V-B:TYR:539:CE2:9848, H-A:GLU:543:OE2:4910, V-A:GLU:543:CD:4908, H-A:GLU:543:OE1:4909, V-A:ARG:545:CZ:4926, H-A:TYR:484:OH:4348, V-A:ASP:366:CG:3213, V-A:GLY:454:CA:4049, V-A:ILE:369:CD1:3239, V-A:ASP:366:CB:3212, V-A:ARG:545:CG:4922, H-A:GLY:454:N:4050, V-A:ARG:545:CD:4923, H-A:ARG:545:NE:4924, V-A:ILE:455:C:4052, V-A:TYR:484:CE2:4346, V-A:HIS:456:CE1:4070, V-A:ASP:366:C:3208, V-A:ASP:366:CA:3210, H-A:ARG:545:NH1:4927, H-A:ARG:545:NH2:4928, V-B:TYR:539:CZ:9849"]

$$$$
2a_Ghoteimi_2023
     RDKit          3D

 85 90  0  0  0  0  0  0  0  0999 V2000
  133.8730  130.4670   57.3770 C   0  0  0  0  0  0  0  0  0  0  0  0
  132.9970  130.5150   58.6320 C   0  0  0  0  0  0  0  0  0  0  0  0
  133.1210  131.7910   59.2460 O   0  0  0  0  0  0  0  0  0  0  0  0
  132.8500  131.9650   60.5650 C   0  0  0  0  0  0  0  0  0  0  0  0
  133.6670  132.4180   61.3730 O   0  0  0  0  0  0  0  0  0  0  0  0
  131.4540  131.5590   60.9410 C   0  0  0  0  0  0  0  0  0  0  0  0
  131.0260  131.5210   62.2770 C   0  0  0  0  0  0  0  0  0  0  0  0
  129.7250  131.1410   62.5910 C   0  0  0  0  0  0  0  0  0  0  0  0
  128.8240  130.7960   61.5820 C   0  0  0  0  0  0  0  0  0  0  0  0
  127.5360  130.4240   62.0140 N   0  0  0  0  0  0  0  0  0  0  0  0
  126.7380  130.9900   62.9460 C   0  0  0  0  0  0  0  0  0  0  0  0
  127.0430  131.9560   63.6470 O   0  0  0  0  0  0  0  0  0  0  0  0
  125.3740  130.3140   63.1330 C   0  0  0  0  0  0  0  0  0  0  0  0
  125.2560  129.2510   64.6080 S   0  0  0  0  0  0  0  0  0  0  0  0
  126.8620  128.5140   64.7980 C   0  0  0  0  0  0  0  0  0  0  0  0
  127.2950  128.4660   66.0800 N   0  0  0  0  0  0  0  0  0  0  0  0
  128.5120  127.9330   66.3530 C   0  0  0  0  0  0  0  0  0  0  0  0
  128.9280  127.9230   67.7890 C   0  0  0  0  0  0  0  0  0  0  0  0
  128.4170  126.9770   68.6860 C   0  0  0  0  0  0  0  0  0  0  0  0
  128.7990  126.9800   70.0240 C   0  0  0  0  0  0  0  0  0  0  0  0
  129.7130  127.9220   70.5150 C   0  0  0  0  0  0  0  0  0  0  0  0
  130.0650  127.9320   71.8690 N   0  0  0  0  0  0  0  0  0  0  0  0
  131.3410  127.3550   72.3370 C   0  0  0  0  0  0  0  0  0  0  0  0
  131.7230  127.7690   73.7740 C   0  0  0  0  0  0  0  0  0  0  0  0
  130.6660  127.4570   74.6670 O   0  0  0  0  0  0  0  0  0  0  0  0
  129.4750  128.1440   74.3210 C   0  0  0  0  0  0  0  0  0  0  0  0
  129.0230  127.7420   72.9010 C   0  0  0  0  0  0  0  0  0  0  0  0
  130.2140  128.8760   69.6140 C   0  0  0  0  0  0  0  0  0  0  0  0
  129.8330  128.8720   68.2760 C   0  0  0  0  0  0  0  0  0  0  0  0
  129.3210  127.4200   65.3360 C   0  0  0  0  0  0  0  0  0  0  0  0
  128.8940  127.4580   64.0010 C   0  0  0  0  0  0  0  0  0  0  0  0
  129.8110  126.8970   62.9630 C   0  0  0  0  0  0  0  0  0  0  0  0
  129.9720  127.5530   61.7400 C   0  0  0  0  0  0  0  0  0  0  0  0
  130.8090  127.0290   60.7590 C   0  0  0  0  0  0  0  0  0  0  0  0
  131.5120  125.8340   60.9730 C   0  0  0  0  0  0  0  0  0  0  0  0
  132.3430  125.2810   59.9950 N   0  0  0  0  0  0  0  0  0  0  0  0
  131.8020  125.0310   58.6430 C   0  0  0  0  0  0  0  0  0  0  0  0
  132.8980  124.7980   57.5820 C   0  0  0  0  0  0  0  0  0  0  0  0
  133.7500  123.7380   57.9870 O   0  0  0  0  0  0  0  0  0  0  0  0
  134.3900  124.0220   59.2220 C   0  0  0  0  0  0  0  0  0  0  0  0
  133.3350  124.2390   60.3260 C   0  0  0  0  0  0  0  0  0  0  0  0
  131.3360  125.1760   62.1990 C   0  0  0  0  0  0  0  0  0  0  0  0
  130.4980  125.6990   63.1790 C   0  0  0  0  0  0  0  0  0  0  0  0
  127.6230  128.0160   63.7180 C   0  0  0  0  0  0  0  0  0  0  0  0
  127.0980  128.0320   62.3490 C   0  0  0  0  0  0  0  0  0  0  0  0
  126.6860  128.0460   61.2670 N   0  0  0  0  0  0  0  0  0  0  0  0
  129.2460  130.8240   60.2450 C   0  0  0  0  0  0  0  0  0  0  0  0
  130.5480  131.2050   59.9320 C   0  0  0  0  0  0  0  0  0  0  0  0
  134.9315  130.4090   57.6707 H   0  0  0  0  0  0  0  0  0  0  0  0
  133.6093  129.5820   56.7794 H   0  0  0  0  0  0  0  0  0  0  0  0
  133.7075  131.3756   56.7794 H   0  0  0  0  0  0  0  0  0  0  0  0
  131.9470  130.3423   58.3534 H   0  0  0  0  0  0  0  0  0  0  0  0
  133.3216  129.7352   59.3366 H   0  0  0  0  0  0  0  0  0  0  0  0
  131.7244  131.7937   63.0819 H   0  0  0  0  0  0  0  0  0  0  0  0
  129.4038  131.1122   63.6427 H   0  0  0  0  0  0  0  0  0  0  0  0
  127.1770  129.5930   61.5690 H   0  0  0  0  0  0  0  0  0  0  0  0
  124.6087  131.1001   63.2134 H   0  0  0  0  0  0  0  0  0  0  0  0
  125.2264  129.6590   62.2617 H   0  0  0  0  0  0  0  0  0  0  0  0
  127.7033  126.2205   68.3278 H   0  0  0  0  0  0  0  0  0  0  0  0
  128.3761  126.2298   70.7083 H   0  0  0  0  0  0  0  0  0  0  0  0
  131.2591  126.2586   72.3023 H   0  0  0  0  0  0  0  0  0  0  0  0
  132.1289  127.7400   71.6729 H   0  0  0  0  0  0  0  0  0  0  0  0
  132.6301  127.2272   74.0800 H   0  0  0  0  0  0  0  0  0  0  0  0
  131.9087  128.8529   73.7997 H   0  0  0  0  0  0  0  0  0  0  0  0
  128.6843  127.8862   75.0409 H   0  0  0  0  0  0  0  0  0  0  0  0
  129.6649  129.2272   74.3448 H   0  0  0  0  0  0  0  0  0  0  0  0
  128.7379  126.6797   72.9151 H   0  0  0  0  0  0  0  0  0  0  0  0
  128.1822  128.3989   72.6334 H   0  0  0  0  0  0  0  0  0  0  0  0
  130.9199  129.6396   69.9726 H   0  0  0  0  0  0  0  0  0  0  0  0
  130.2493  129.6257   67.5914 H   0  0  0  0  0  0  0  0  0  0  0  0
  130.2996  126.9833   65.5843 H   0  0  0  0  0  0  0  0  0  0  0  0
  129.4322  128.4925   61.5505 H   0  0  0  0  0  0  0  0  0  0  0  0
  130.9209  127.5597   59.8020 H   0  0  0  0  0  0  0  0  0  0  0  0
  131.1594  124.1391   58.6832 H   0  0  0  0  0  0  0  0  0  0  0  0
  131.2436  125.9302   58.3435 H   0  0  0  0  0  0  0  0  0  0  0  0
  132.4265  124.5397   56.6223 H   0  0  0  0  0  0  0  0  0  0  0  0
  133.4931  125.7164   57.4709 H   0  0  0  0  0  0  0  0  0  0  0  0
  135.0383  123.1776   59.4988 H   0  0  0  0  0  0  0  0  0  0  0  0
  134.9927  124.9359   59.1143 H   0  0  0  0  0  0  0  0  0  0  0  0
  132.8024  123.2906   60.4901 H   0  0  0  0  0  0  0  0  0  0  0  0
  133.8716  124.5766   61.2249 H   0  0  0  0  0  0  0  0  0  0  0  0
  131.8684  124.2323   62.3887 H   0  0  0  0  0  0  0  0  0  0  0  0
  130.3750  125.1647   64.1326 H   0  0  0  0  0  0  0  0  0  0  0  0
  128.5475  130.5446   59.4425 H   0  0  0  0  0  0  0  0  0  0  0  0
  130.8694  131.2285   58.8803 H   0  0  0  0  0  0  0  0  0  0  0  0
  1  2  1  0
  2  3  1  0
  3  4  1  0
  4  5  2  0
  4  6  1  0
  6  7  2  0
  7  8  1  0
  8  9  2  0
  9 10  1  0
 10 11  1  0
 11 12  2  0
 11 13  1  0
 13 14  1  0
 14 15  1  0
 15 16  2  0
 16 17  1  0
 17 18  1  0
 18 19  2  0
 19 20  1  0
 20 21  2  0
 21 22  1  0
 22 23  1  0
 23 24  1  0
 24 25  1  0
 25 26  1  0
 26 27  1  0
 21 28  1  0
 28 29  2  0
 17 30  2  0
 30 31  1  0
 31 32  1  0
 32 33  2  0
 33 34  1  0
 34 35  2  0
 35 36  1  0
 36 37  1  0
 37 38  1  0
 38 39  1  0
 39 40  1  0
 40 41  1  0
 35 42  1  0
 42 43  2  0
 31 44  2  0
 44 45  1  0
 45 46  3  0
  9 47  1  0
 47 48  2  0
 48  6  1  0
 44 15  1  0
 29 18  1  0
 43 32  1  0
 27 22  1  0
 41 36  1  0
  1 49  1  0
  1 50  1  0
  1 51  1  0
  2 52  1  0
  2 53  1  0
  7 54  1  0
  8 55  1  0
 10 56  1  0
 13 57  1  0
 13 58  1  0
 19 59  1  0
 20 60  1  0
 23 61  1  0
 23 62  1  0
 24 63  1  0
 24 64  1  0
 26 65  1  0
 26 66  1  0
 27 67  1  0
 27 68  1  0
 28 69  1  0
 29 70  1  0
 30 71  1  0
 33 72  1  0
 34 73  1  0
 37 74  1  0
 37 75  1  0
 38 76  1  0
 38 77  1  0
 40 78  1  0
 40 79  1  0
 41 80  1  0
 41 81  1  0
 42 82  1  0
 43 83  1  0
 47 84  1  0
 48 85  1  0
M  END
>  <Binding energies>  (1) 
[-0.66]

>  <Ligand effiencies>  (1) 
[-0.013469387755102041]

>  <Interactions>  (1) 
["V-B:GLU:543:CD:9880, V-A:ILE:369:CG2:3237, V-B:TYR:539:CE2:9848, V-A:GLU:543:CD:4908, V-A:PRO:540:CA:4883, V-A:ALA:541:CB:4892, V-A:GLU:543:CG:4907, V-A:PRO:540:C:4881, V-A:ALA:541:CA:4890, H-A:ALA:541:N:4891, H-B:ARG:545:NE:9896, H-B:TYR:484:OH:9320, V-A:ASN:362:CB:3176, V-B:HIS:456:CE1:9042, V-A:PRO:540:CB:4885, H-A:LYS:547:NZ:4951, V-B:HIS:456:CD2:9040, V-A:LYS:547:CE:4950, V-A:HIS:456:CB:4065, V-A:HIS:456:CD2:4068, V-A:HIS:456:CG:4066, V-A:GLY:544:C:4912, V-A:LYS:547:CD:4949, V-A:ASP:366:CG:3213, V-A:ILE:369:CD1:3239, V-B:GLU:543:CB:9878, H-B:ARG:545:NH2:9900, V-A:ASP:366:CB:3212, V-A:HIS:456:CE1:4070, V-A:ALA:541:C:4888, V-A:GLU:543:CB:4906, V-A:GLU:543:CA:4904, V-A:ASP:366:C:3208, V-A:ASP:366:CA:3210, V-A:ILE:369:CB:3236, V-A:LEU:363:CA:3185, H-B:TYR:539:OH:9850, V-A:LEU:363:CD1:3189, V-A:GLU:543:C:4902, V-B:TYR:539:CZ:9849, V-A:GLY:544:CA:4914, V-A:ILE:369:CG1:3238"]

$$$$
2a_Grossjean_2025
     RDKit          3D

 45 46  0  0  0  0  0  0  0  0999 V2000
  133.3180  127.0020   74.1310 C   0  0  0  0  0  0  0  0  0  0  0  0
  131.8470  126.6000   73.9910 C   0  0  0  0  0  0  0  0  0  0  0  0
  131.1390  127.6340   73.3170 O   0  0  0  0  0  0  0  0  0  0  0  0
  129.8170  127.5090   73.0330 C   0  0  0  0  0  0  0  0  0  0  0  0
  128.9430  127.3920   73.8970 O   0  0  0  0  0  0  0  0  0  0  0  0
  129.5230  127.5480   71.5600 C   0  0  0  0  0  0  0  0  0  0  0  0
  130.2180  128.3970   70.6870 C   0  0  0  0  0  0  0  0  0  0  0  0
  129.9200  128.4100   69.3280 C   0  0  0  0  0  0  0  0  0  0  0  0
  128.9200  127.5830   68.8140 C   0  0  0  0  0  0  0  0  0  0  0  0
  128.6950  127.6890   67.4290 N   0  0  0  0  0  0  0  0  0  0  0  0
  128.4010  128.7730   66.6790 C   0  0  0  0  0  0  0  0  0  0  0  0
  128.2470  129.9180   67.1050 O   0  0  0  0  0  0  0  0  0  0  0  0
  128.2530  128.5140   65.1750 C   0  0  0  0  0  0  0  0  0  0  0  0
  126.5580  128.7890   64.5600 S   0  0  0  0  0  0  0  0  0  0  0  0
  126.5550  130.1340   63.3800 C   0  0  0  0  0  0  0  0  0  0  0  0
  127.7740  130.6360   63.0560 N   0  0  0  0  0  0  0  0  0  0  0  0
  127.8470  131.6620   62.1790 C   0  0  0  0  0  0  0  0  0  0  0  0
  129.2410  132.1860   61.8880 C   0  0  0  0  0  0  0  0  0  0  0  0
  126.7200  132.2230   61.5850 C   0  0  0  0  0  0  0  0  0  0  0  0
  125.4500  131.7150   61.8980 C   0  0  0  0  0  0  0  0  0  0  0  0
  124.2130  132.3470   61.2320 C   0  0  0  0  0  0  0  0  0  0  0  0
  123.5750  131.4360   60.4960 F   0  0  0  0  0  0  0  0  0  0  0  0
  123.3810  132.8120   62.1640 F   0  0  0  0  0  0  0  0  0  0  0  0
  124.5250  133.3660   60.4280 F   0  0  0  0  0  0  0  0  0  0  0  0
  125.3600  130.6410   62.8200 C   0  0  0  0  0  0  0  0  0  0  0  0
  124.0580  130.0730   63.1850 C   0  0  0  0  0  0  0  0  0  0  0  0
  123.0300  129.6250   63.4740 N   0  0  0  0  0  0  0  0  0  0  0  0
  128.2270  126.7250   69.6790 C   0  0  0  0  0  0  0  0  0  0  0  0
  128.5290  126.7100   71.0380 C   0  0  0  0  0  0  0  0  0  0  0  0
  133.5788  127.0733   75.1973 H   0  0  0  0  0  0  0  0  0  0  0  0
  133.9527  126.2444   73.6481 H   0  0  0  0  0  0  0  0  0  0  0  0
  133.4792  127.9771   73.6481 H   0  0  0  0  0  0  0  0  0  0  0  0
  131.7744  125.6674   73.4122 H   0  0  0  0  0  0  0  0  0  0  0  0
  131.4109  126.4447   74.9888 H   0  0  0  0  0  0  0  0  0  0  0  0
  131.0049  129.0579   71.0795 H   0  0  0  0  0  0  0  0  0  0  0  0
  130.4768  129.0771   68.6535 H   0  0  0  0  0  0  0  0  0  0  0  0
  128.8170  126.8240   66.9250 H   0  0  0  0  0  0  0  0  0  0  0  0
  128.9340  129.1888   64.6357 H   0  0  0  0  0  0  0  0  0  0  0  0
  128.4954  127.4553   65.0009 H   0  0  0  0  0  0  0  0  0  0  0  0
  129.7640  132.3826   62.8355 H   0  0  0  0  0  0  0  0  0  0  0  0
  129.8008  131.4369   61.3088 H   0  0  0  0  0  0  0  0  0  0  0  0
  129.1687  133.1183   61.3088 H   0  0  0  0  0  0  0  0  0  0  0  0
  126.8241  133.0576   60.8761 H   0  0  0  0  0  0  0  0  0  0  0  0
  127.4432  126.0623   69.2834 H   0  0  0  0  0  0  0  0  0  0  0  0
  127.9810  126.0326   71.7094 H   0  0  0  0  0  0  0  0  0  0  0  0
  1  2  1  0
  2  3  1  0
  3  4  1  0
  4  5  2  0
  4  6  1  0
  6  7  2  0
  7  8  1  0
  8  9  2  0
  9 10  1  0
 10 11  1  0
 11 12  2  0
 11 13  1  0
 13 14  1  0
 14 15  1  0
 15 16  2  0
 16 17  1  0
 17 18  1  0
 17 19  2  0
 19 20  1  0
 20 21  1  0
 21 22  1  0
 21 23  1  0
 21 24  1  0
 20 25  2  0
 25 26  1  0
 26 27  3  0
  9 28  1  0
 28 29  2  0
 29  6  1  0
 25 15  1  0
  1 30  1  0
  1 31  1  0
  1 32  1  0
  2 33  1  0
  2 34  1  0
  7 35  1  0
  8 36  1  0
 10 37  1  0
 13 38  1  0
 13 39  1  0
 18 40  1  0
 18 41  1  0
 18 42  1  0
 19 43  1  0
 28 44  1  0
 29 45  1  0
M  END
>  <Binding energies>  (1) 
[-7.11]

>  <Ligand effiencies>  (1) 
[-0.23700000000000002]

>  <Interactions>  (1) 
["H-B:GLU:543:OE2:9882, V-B:GLU:543:CD:9880, H-A:GLU:543:OE2:4910, V-A:GLU:543:CD:4908, V-B:ILE:369:CD1:8211, V-A:TYR:539:CE1:4875, V-A:ALA:541:CB:4892, V-A:GLU:543:CG:4907, V-B:ILE:369:CG2:8209, V-B:ARG:545:CZ:9898, V-B:LEU:475:CD2:9231, V-A:ALA:541:CA:4890, H-B:GLY:454:N:9022, V-B:GLY:453:C:9014, H-B:TYR:484:OH:9320, V-B:GLY:454:CA:9021, V-B:GLY:453:CA:9016, H-B:ARG:545:NH1:9899, V-B:HIS:456:CE1:9042, H-B:LYS:547:NZ:9923, H-A:LYS:547:NZ:4951, V-B:HIS:456:CD2:9040, V-A:HIS:456:CB:4065, V-A:HIS:456:CD2:4068, V-A:HIS:456:CG:4066, V-A:GLY:544:C:4912, V-B:GLU:543:CB:9878, H-B:ARG:545:NH2:9900, V-A:HIS:456:CE1:4070, V-A:GLU:543:CB:4906, V-A:GLU:543:C:4902, V-A:GLY:544:CA:4914"]

$$$$
2aa_Ghoteimi_2023
     RDKit          3D

 85 90  0  0  0  0  0  0  0  0999 V2000
  134.8730  127.0260   73.8220 C   0  0  0  0  0  0  0  0  0  0  0  0
  133.5210  126.3490   74.0680 C   0  0  0  0  0  0  0  0  0  0  0  0
  133.0190  126.7480   75.3370 O   0  0  0  0  0  0  0  0  0  0  0  0
  131.8290  127.3920   75.4500 C   0  0  0  0  0  0  0  0  0  0  0  0
  131.4260  127.8980   76.5030 O   0  0  0  0  0  0  0  0  0  0  0  0
  131.0570  127.4430   74.1630 C   0  0  0  0  0  0  0  0  0  0  0  0
  131.1310  128.5440   73.2980 C   0  0  0  0  0  0  0  0  0  0  0  0
  130.4060  128.5600   72.1100 C   0  0  0  0  0  0  0  0  0  0  0  0
  129.5880  127.4830   71.7660 C   0  0  0  0  0  0  0  0  0  0  0  0
  128.9030  127.6020   70.5410 N   0  0  0  0  0  0  0  0  0  0  0  0
  129.3750  127.9060   69.3120 C   0  0  0  0  0  0  0  0  0  0  0  0
  130.5590  128.1140   69.0390 O   0  0  0  0  0  0  0  0  0  0  0  0
  128.3060  127.9560   68.2130 C   0  0  0  0  0  0  0  0  0  0  0  0
  128.5320  129.0940   67.3740 O   0  0  0  0  0  0  0  0  0  0  0  0
  128.6050  128.9400   65.9960 C   0  0  0  0  0  0  0  0  0  0  0  0
  128.0950  129.9320   65.2130 N   0  0  0  0  0  0  0  0  0  0  0  0
  128.1530  129.8150   63.8630 C   0  0  0  0  0  0  0  0  0  0  0  0
  127.5690  130.9400   63.0680 C   0  0  0  0  0  0  0  0  0  0  0  0
  128.3890  131.9430   62.5400 C   0  0  0  0  0  0  0  0  0  0  0  0
  127.8510  132.9890   61.7940 C   0  0  0  0  0  0  0  0  0  0  0  0
  126.4730  133.0630   61.5360 C   0  0  0  0  0  0  0  0  0  0  0  0
  125.9150  134.1130   60.7990 N   0  0  0  0  0  0  0  0  0  0  0  0
  124.4520  134.2550   60.6470 C   0  0  0  0  0  0  0  0  0  0  0  0
  124.0340  135.2360   59.5310 C   0  0  0  0  0  0  0  0  0  0  0  0
  124.6480  136.4980   59.7390 O   0  0  0  0  0  0  0  0  0  0  0  0
  126.0630  136.3970   59.7200 C   0  0  0  0  0  0  0  0  0  0  0  0
  126.5410  135.4510   60.8420 C   0  0  0  0  0  0  0  0  0  0  0  0
  125.6530  132.0660   62.0850 C   0  0  0  0  0  0  0  0  0  0  0  0
  126.1910  131.0230   62.8340 C   0  0  0  0  0  0  0  0  0  0  0  0
  128.7140  128.6860   63.2590 C   0  0  0  0  0  0  0  0  0  0  0  0
  129.2350  127.6470   64.0400 C   0  0  0  0  0  0  0  0  0  0  0  0
  129.7980  126.4540   63.3380 C   0  0  0  0  0  0  0  0  0  0  0  0
  131.1550  126.1430   63.4520 C   0  0  0  0  0  0  0  0  0  0  0  0
  131.6900  125.0450   62.7850 C   0  0  0  0  0  0  0  0  0  0  0  0
  130.8850  124.2330   61.9710 C   0  0  0  0  0  0  0  0  0  0  0  0
  131.3990  123.1230   61.2950 N   0  0  0  0  0  0  0  0  0  0  0  0
  132.4190  123.2720   60.2390 C   0  0  0  0  0  0  0  0  0  0  0  0
  133.1140  121.9450   59.8650 C   0  0  0  0  0  0  0  0  0  0  0  0
  132.1430  120.9760   59.4980 O   0  0  0  0  0  0  0  0  0  0  0  0
  131.2390  120.7140   60.5590 C   0  0  0  0  0  0  0  0  0  0  0  0
  130.4950  122.0080   60.9510 C   0  0  0  0  0  0  0  0  0  0  0  0
  129.5230  124.5480   61.8680 C   0  0  0  0  0  0  0  0  0  0  0  0
  128.9880  125.6460   62.5360 C   0  0  0  0  0  0  0  0  0  0  0  0
  129.1920  127.7860   65.4470 C   0  0  0  0  0  0  0  0  0  0  0  0
  129.7570  126.7740   66.3420 C   0  0  0  0  0  0  0  0  0  0  0  0
  130.2050  125.9740   67.0490 N   0  0  0  0  0  0  0  0  0  0  0  0
  129.5140  126.3750   72.6220 C   0  0  0  0  0  0  0  0  0  0  0  0
  130.2430  126.3600   73.8080 C   0  0  0  0  0  0  0  0  0  0  0  0
  135.3455  127.2626   74.7868 H   0  0  0  0  0  0  0  0  0  0  0  0
  135.5243  126.3477   73.2513 H   0  0  0  0  0  0  0  0  0  0  0  0
  134.7200  127.9538   73.2513 H   0  0  0  0  0  0  0  0  0  0  0  0
  132.8120  126.6481   73.2819 H   0  0  0  0  0  0  0  0  0  0  0  0
  133.6474  125.2565   74.0490 H   0  0  0  0  0  0  0  0  0  0  0  0
  131.7672  129.4021   73.5604 H   0  0  0  0  0  0  0  0  0  0  0  0
  130.4783  129.4276   71.4376 H   0  0  0  0  0  0  0  0  0  0  0  0
  127.9180  127.3880   70.5980 H   0  0  0  0  0  0  0  0  0  0  0  0
  128.3598  127.0388   67.6081 H   0  0  0  0  0  0  0  0  0  0  0  0
  127.3108  128.0348   68.6750 H   0  0  0  0  0  0  0  0  0  0  0  0
  129.4741  131.9050   62.7165 H   0  0  0  0  0  0  0  0  0  0  0  0
  128.5174  133.7706   61.4002 H   0  0  0  0  0  0  0  0  0  0  0  0
  124.0298  133.2660   60.4155 H   0  0  0  0  0  0  0  0  0  0  0  0
  124.0698  134.6648   61.5936 H   0  0  0  0  0  0  0  0  0  0  0  0
  124.3482  134.8343   58.5564 H   0  0  0  0  0  0  0  0  0  0  0  0
  122.9410  135.3589   59.5491 H   0  0  0  0  0  0  0  0  0  0  0  0
  126.3866  135.9999   58.7465 H   0  0  0  0  0  0  0  0  0  0  0  0
  126.4979  137.3947   59.8799 H   0  0  0  0  0  0  0  0  0  0  0  0
  127.6303  135.3276   60.7514 H   0  0  0  0  0  0  0  0  0  0  0  0
  126.2483  135.9119   61.7969 H   0  0  0  0  0  0  0  0  0  0  0  0
  124.5662  132.1090   61.9209 H   0  0  0  0  0  0  0  0  0  0  0  0
  125.5237  130.2528   63.2481 H   0  0  0  0  0  0  0  0  0  0  0  0
  128.7464  128.6132   62.1619 H   0  0  0  0  0  0  0  0  0  0  0  0
  131.8073  126.7723   64.0753 H   0  0  0  0  0  0  0  0  0  0  0  0
  132.7588  124.8102   62.8973 H   0  0  0  0  0  0  0  0  0  0  0  0
  131.9325  123.6763   59.3391 H   0  0  0  0  0  0  0  0  0  0  0  0
  133.1954  123.9456   60.6307 H   0  0  0  0  0  0  0  0  0  0  0  0
  133.7957  122.1164   59.0189 H   0  0  0  0  0  0  0  0  0  0  0  0
  133.6819  121.5773   60.7324 H   0  0  0  0  0  0  0  0  0  0  0  0
  130.5085  119.9574   60.2366 H   0  0  0  0  0  0  0  0  0  0  0  0
  131.8012  120.3434   61.4288 H   0  0  0  0  0  0  0  0  0  0  0  0
  129.8653  122.3183   60.1041 H   0  0  0  0  0  0  0  0  0  0  0  0
  129.9019  121.7820   61.8494 H   0  0  0  0  0  0  0  0  0  0  0  0
  128.8667  123.9178   61.2498 H   0  0  0  0  0  0  0  0  0  0  0  0
  127.9182  125.8795   62.4315 H   0  0  0  0  0  0  0  0  0  0  0  0
  128.8793  125.5168   72.3562 H   0  0  0  0  0  0  0  0  0  0  0  0
  130.1789  125.4871   74.4742 H   0  0  0  0  0  0  0  0  0  0  0  0
  1  2  1  0
  2  3  1  0
  3  4  1  0
  4  5  2  0
  4  6  1  0
  6  7  2  0
  7  8  1  0
  8  9  2  0
  9 10  1  0
 10 11  1  0
 11 12  2  0
 11 13  1  0
 13 14  1  0
 14 15  1  0
 15 16  2  0
 16 17  1  0
 17 18  1  0
 18 19  2  0
 19 20  1  0
 20 21  2  0
 21 22  1  0
 22 23  1  0
 23 24  1  0
 24 25  1  0
 25 26  1  0
 26 27  1  0
 21 28  1  0
 28 29  2  0
 17 30  2  0
 30 31  1  0
 31 32  1  0
 32 33  2  0
 33 34  1  0
 34 35  2  0
 35 36  1  0
 36 37  1  0
 37 38  1  0
 38 39  1  0
 39 40  1  0
 40 41  1  0
 35 42  1  0
 42 43  2  0
 31 44  2  0
 44 45  1  0
 45 46  3  0
  9 47  1  0
 47 48  2  0
 48  6  1  0
 44 15  1  0
 29 18  1  0
 43 32  1  0
 27 22  1  0
 41 36  1  0
  1 49  1  0
  1 50  1  0
  1 51  1  0
  2 52  1  0
  2 53  1  0
  7 54  1  0
  8 55  1  0
 10 56  1  0
 13 57  1  0
 13 58  1  0
 19 59  1  0
 20 60  1  0
 23 61  1  0
 23 62  1  0
 24 63  1  0
 24 64  1  0
 26 65  1  0
 26 66  1  0
 27 67  1  0
 27 68  1  0
 28 69  1  0
 29 70  1  0
 30 71  1  0
 33 72  1  0
 34 73  1  0
 37 74  1  0
 37 75  1  0
 38 76  1  0
 38 77  1  0
 40 78  1  0
 40 79  1  0
 41 80  1  0
 41 81  1  0
 42 82  1  0
 43 83  1  0
 47 84  1  0
 48 85  1  0
M  END
>  <Binding energies>  (1) 
[0.24]

>  <Ligand effiencies>  (1) 
[0.004897959183673469]

>  <Interactions>  (1) 
["V-B:TYR:539:CD2:9846, V-A:LEU:475:CD2:4259, V-B:GLU:543:CD:9880, V-A:ILE:369:CG2:3237, V-B:TYR:539:CE2:9848, V-A:GLU:543:CD:4908, V-A:TYR:539:CE1:4875, V-A:ALA:541:CB:4892, V-B:SER:385:CA:8379, V-A:TYR:539:CD1:4873, V-B:SER:385:CB:8381, V-A:GLU:543:CG:4907, V-B:ILE:369:CG2:8209, V-B:LEU:475:CD2:9231, H-B:TYR:484:OH:9320, V-B:HIS:456:CE1:9042, V-A:VAL:458:CG2:4087, V-A:VAL:457:CA:4075, V-A:VAL:457:C:4073, V-B:HIS:456:CD2:9040, V-A:LYS:547:CE:4950, V-A:HIS:456:CB:4065, V-A:HIS:456:CD2:4068, V-A:HIS:456:C:4061, V-A:HIS:456:CG:4066, V-A:GLY:544:C:4912, V-A:LYS:547:CD:4949, V-A:HIS:456:CA:4063, V-A:ARG:545:C:4917, V-A:ILE:369:CD1:3239, V-A:HIS:456:CE1:4070, V-A:GLU:543:CB:4906, V-A:GLY:544:CA:4914, V-B:LYS:547:CE:9922, H-B:SER:385:OG:8382, V-A:TYR:539:CB:4871, H-A:HIS:456:ND1:4067, H-B:HIS:456:NE2:9043, V-A:TYR:539:CG:4872"]

$$$$
2b_Ghoteimi_2023
     RDKit          3D

 72 77  0  0  0  0  0  0  0  0999 V2000
  128.8870  127.4100   60.9880 N   0  0  0  0  0  0  0  0  0  0  0  0
  128.9630  127.4880   62.1400 C   0  0  0  0  0  0  0  0  0  0  0  0
  129.0570  127.5920   63.5990 C   0  0  0  0  0  0  0  0  0  0  0  0
  128.4440  128.6710   64.2850 C   0  0  0  0  0  0  0  0  0  0  0  0
  127.6740  129.7560   63.6070 C   0  0  0  0  0  0  0  0  0  0  0  0
  128.2760  130.9890   63.3470 C   0  0  0  0  0  0  0  0  0  0  0  0
  127.5640  132.0040   62.7160 C   0  0  0  0  0  0  0  0  0  0  0  0
  126.2230  131.8210   62.3430 C   0  0  0  0  0  0  0  0  0  0  0  0
  125.4910  132.8190   61.6980 N   0  0  0  0  0  0  0  0  0  0  0  0
  126.1910  133.7490   60.7890 C   0  0  0  0  0  0  0  0  0  0  0  0
  125.3660  135.0090   60.4500 C   0  0  0  0  0  0  0  0  0  0  0  0
  124.1000  134.6370   59.9250 O   0  0  0  0  0  0  0  0  0  0  0  0
  123.3560  133.8610   60.8520 C   0  0  0  0  0  0  0  0  0  0  0  0
  124.1270  132.5690   61.1920 C   0  0  0  0  0  0  0  0  0  0  0  0
  125.6260  130.5810   62.6110 C   0  0  0  0  0  0  0  0  0  0  0  0
  126.3400  129.5640   63.2390 C   0  0  0  0  0  0  0  0  0  0  0  0
  128.5560  128.7240   65.6800 C   0  0  0  0  0  0  0  0  0  0  0  0
  129.2310  127.7170   66.3740 C   0  0  0  0  0  0  0  0  0  0  0  0
  129.3530  127.7110   67.8650 C   0  0  0  0  0  0  0  0  0  0  0  0
  128.4370  127.0060   68.6540 C   0  0  0  0  0  0  0  0  0  0  0  0
  128.5550  126.9840   70.0410 C   0  0  0  0  0  0  0  0  0  0  0  0
  129.5860  127.6770   70.6940 C   0  0  0  0  0  0  0  0  0  0  0  0
  129.7350  127.6390   72.0850 N   0  0  0  0  0  0  0  0  0  0  0  0
  131.0730  127.4390   72.6770 C   0  0  0  0  0  0  0  0  0  0  0  0
  131.0360  127.0310   74.1660 C   0  0  0  0  0  0  0  0  0  0  0  0
  130.2860  127.9790   74.9100 O   0  0  0  0  0  0  0  0  0  0  0  0
  128.9470  128.0580   74.4510 C   0  0  0  0  0  0  0  0  0  0  0  0
  128.9200  128.4930   72.9710 C   0  0  0  0  0  0  0  0  0  0  0  0
  130.5060  128.3760   69.8990 C   0  0  0  0  0  0  0  0  0  0  0  0
  130.3890  128.3960   68.5120 C   0  0  0  0  0  0  0  0  0  0  0  0
  129.8160  126.6840   65.7160 N   0  0  0  0  0  0  0  0  0  0  0  0
  129.7500  126.6280   64.3650 C   0  0  0  0  0  0  0  0  0  0  0  0
  130.5750  125.2130   63.6690 S   0  0  0  0  0  0  0  0  0  0  0  0
  129.7000  124.7650   62.1390 C   0  0  0  0  0  0  0  0  0  0  0  0
  128.4580  123.9170   62.4150 C   0  0  0  0  0  0  0  0  0  0  0  0
  128.5440  122.9470   63.1710 O   0  0  0  0  0  0  0  0  0  0  0  0
  127.3320  124.3100   61.7800 N   0  0  0  0  0  0  0  0  0  0  0  0
  126.0740  123.7300   61.8600 C   0  0  0  0  0  0  0  0  0  0  0  0
  125.0560  123.9940   60.9450 C   0  0  0  0  0  0  0  0  0  0  0  0
  123.9890  123.2360   61.3690 C   0  0  0  0  0  0  0  0  0  0  0  0
  124.3460  122.5520   62.4810 O   0  0  0  0  0  0  0  0  0  0  0  0
  125.6720  122.8720   62.7820 N   0  0  0  0  0  0  0  0  0  0  0  0
  129.3216  131.1590   63.6435 H   0  0  0  0  0  0  0  0  0  0  0  0
  128.0589  132.9638   62.5063 H   0  0  0  0  0  0  0  0  0  0  0  0
  127.1297  134.0647   61.2678 H   0  0  0  0  0  0  0  0  0  0  0  0
  126.3670  133.2115   59.8456 H   0  0  0  0  0  0  0  0  0  0  0  0
  125.2203  135.6050   61.3630 H   0  0  0  0  0  0  0  0  0  0  0  0
  125.9073  135.6021   59.6981 H   0  0  0  0  0  0  0  0  0  0  0  0
  123.1973  134.4439   61.7713 H   0  0  0  0  0  0  0  0  0  0  0  0
  122.3851  133.5973   60.4071 H   0  0  0  0  0  0  0  0  0  0  0  0
  123.5647  132.0190   61.9610 H   0  0  0  0  0  0  0  0  0  0  0  0
  124.2257  131.9936   60.2597 H   0  0  0  0  0  0  0  0  0  0  0  0
  124.5789  130.4093   62.3210 H   0  0  0  0  0  0  0  0  0  0  0  0
  125.8498  128.6015   63.4471 H   0  0  0  0  0  0  0  0  0  0  0  0
  128.1096  129.5639   66.2326 H   0  0  0  0  0  0  0  0  0  0  0  0
  127.6120  126.4615   68.1714 H   0  0  0  0  0  0  0  0  0  0  0  0
  127.8269  126.4131   70.6359 H   0  0  0  0  0  0  0  0  0  0  0  0
  131.5883  126.6479   72.1124 H   0  0  0  0  0  0  0  0  0  0  0  0
  131.5982  128.4038   72.6200 H   0  0  0  0  0  0  0  0  0  0  0  0
  130.5675  126.0403   74.2608 H   0  0  0  0  0  0  0  0  0  0  0  0
  132.0637  126.9963   74.5568 H   0  0  0  0  0  0  0  0  0  0  0  0
  128.4697  127.0719   74.5494 H   0  0  0  0  0  0  0  0  0  0  0  0
  128.4021  128.7988   75.0545 H   0  0  0  0  0  0  0  0  0  0  0  0
  127.8781  128.4630   72.6195 H   0  0  0  0  0  0  0  0  0  0  0  0
  129.3501  129.5044   72.9261 H   0  0  0  0  0  0  0  0  0  0  0  0
  131.3341  128.9176   70.3796 H   0  0  0  0  0  0  0  0  0  0  0  0
  131.1217  128.9586   67.9149 H   0  0  0  0  0  0  0  0  0  0  0  0
  129.3929  125.6866   61.6230 H   0  0  0  0  0  0  0  0  0  0  0  0
  130.3858  124.1700   61.5180 H   0  0  0  0  0  0  0  0  0  0  0  0
  127.3930  125.1320   61.1980 H   0  0  0  0  0  0  0  0  0  0  0  0
  125.0969  124.6633   60.0730 H   0  0  0  0  0  0  0  0  0  0  0  0
  123.0035  123.1928   60.8822 H   0  0  0  0  0  0  0  0  0  0  0  0
  1  2  3  0
  2  3  1  0
  3  4  2  0
  4  5  1  0
  5  6  2  0
  6  7  1  0
  7  8  2  0
  8  9  1  0
  9 10  1  0
 10 11  1  0
 11 12  1  0
 12 13  1  0
 13 14  1  0
  8 15  1  0
 15 16  2  0
  4 17  1  0
 17 18  2  0
 18 19  1  0
 19 20  2  0
 20 21  1  0
 21 22  2  0
 22 23  1  0
 23 24  1  0
 24 25  1  0
 25 26  1  0
 26 27  1  0
 27 28  1  0
 22 29  1  0
 29 30  2  0
 18 31  1  0
 31 32  2  0
 32 33  1  0
 33 34  1  0
 34 35  1  0
 35 36  2  0
 35 37  1  0
 37 38  1  0
 38 39  1  0
 39 40  2  0
 40 41  1  0
 41 42  1  0
 32  3  1  0
 42 38  2  0
 16  5  1  0
 30 19  1  0
 14  9  1  0
 28 23  1  0
  6 43  1  0
  7 44  1  0
 10 45  1  0
 10 46  1  0
 11 47  1  0
 11 48  1  0
 13 49  1  0
 13 50  1  0
 14 51  1  0
 14 52  1  0
 15 53  1  0
 16 54  1  0
 17 55  1  0
 20 56  1  0
 21 57  1  0
 24 58  1  0
 24 59  1  0
 25 60  1  0
 25 61  1  0
 27 62  1  0
 27 63  1  0
 28 64  1  0
 28 65  1  0
 29 66  1  0
 30 67  1  0
 34 68  1  0
 34 69  1  0
 37 70  1  0
 39 71  1  0
 40 72  1  0
M  END
>  <Binding energies>  (1) 
[-5.83]

>  <Ligand effiencies>  (1) 
[-0.1355813953488372]

>  <Interactions>  (1) 
["V-B:GLU:543:CG:9879, V-B:GLU:543:CD:9880, H-B:GLU:543:OE1:9881, V-A:GLU:543:CD:4908, V-B:PRO:540:CA:9855, H-A:TYR:484:OH:4348, V-B:SER:385:C:8377, V-B:ILE:369:CD1:8211, V-A:TYR:539:CE1:4875, V-A:ALA:541:CB:4892, V-B:SER:385:CA:8379, V-A:TYR:539:CD1:4873, V-A:GLU:543:CG:4907, V-B:ILE:369:CG2:8209, V-B:LEU:475:CD2:9231, V-B:HIS:456:CE1:9042, H-A:LYS:547:NZ:4951, V-B:HIS:456:CD2:9040, V-A:HIS:456:CD2:4068, V-A:HIS:456:CG:4066, V-A:GLY:544:C:4912, V-B:GLU:543:CB:9878, V-B:ASP:366:CG:8185, H-B:ALA:541:N:9863, V-B:ILE:369:CG1:8210, V-B:ILE:369:CB:8208, V-A:HIS:456:CE1:4070, V-A:GLU:543:CB:4906, V-A:GLU:543:CA:4904, H-B:ASN:362:ND2:8151, V-B:PRO:540:CB:9857, V-B:ASN:362:CB:8148, V-A:GLU:543:C:4902, V-A:GLY:544:CA:4914, H-B:SER:385:OG:8382, V-B:ASN:362:C:8144"]

$$$$
2b_Grossjean_2025
     RDKit          3D

 42 43  0  0  0  0  0  0  0  0999 V2000
  130.8400  125.5290   74.1710 C   0  0  0  0  0  0  0  0  0  0  0  0
  129.7510  126.0410   73.4150 O   0  0  0  0  0  0  0  0  0  0  0  0
  129.7640  127.3150   72.9460 C   0  0  0  0  0  0  0  0  0  0  0  0
  129.9910  128.3000   73.6560 O   0  0  0  0  0  0  0  0  0  0  0  0
  129.4700  127.4080   71.4760 C   0  0  0  0  0  0  0  0  0  0  0  0
  130.1840  128.2680   70.6290 C   0  0  0  0  0  0  0  0  0  0  0  0
  129.8860  128.3310   69.2710 C   0  0  0  0  0  0  0  0  0  0  0  0
  128.8750  127.5360   68.7310 C   0  0  0  0  0  0  0  0  0  0  0  0
  128.6530  127.6840   67.3490 N   0  0  0  0  0  0  0  0  0  0  0  0
  128.3820  128.7960   66.6330 C   0  0  0  0  0  0  0  0  0  0  0  0
  128.2510  129.9290   67.0990 O   0  0  0  0  0  0  0  0  0  0  0  0
  128.2140  128.5780   65.1260 C   0  0  0  0  0  0  0  0  0  0  0  0
  126.5180  128.9030   64.5390 S   0  0  0  0  0  0  0  0  0  0  0  0
  126.5360  130.2010   63.3100 C   0  0  0  0  0  0  0  0  0  0  0  0
  127.7570  130.7140   63.0130 N   0  0  0  0  0  0  0  0  0  0  0  0
  127.8450  131.7020   62.0950 C   0  0  0  0  0  0  0  0  0  0  0  0
  129.2420  132.2300   61.8300 C   0  0  0  0  0  0  0  0  0  0  0  0
  126.7330  132.2130   61.4330 C   0  0  0  0  0  0  0  0  0  0  0  0
  125.4610  131.6930   61.7180 C   0  0  0  0  0  0  0  0  0  0  0  0
  124.2410  132.2660   60.9730 C   0  0  0  0  0  0  0  0  0  0  0  0
  123.3770  132.7880   61.8460 F   0  0  0  0  0  0  0  0  0  0  0  0
  124.6280  133.2210   60.1250 F   0  0  0  0  0  0  0  0  0  0  0  0
  123.5870  131.3430   60.2650 F   0  0  0  0  0  0  0  0  0  0  0  0
  125.3530  130.6600   62.6840 C   0  0  0  0  0  0  0  0  0  0  0  0
  124.0490  130.0830   63.0260 C   0  0  0  0  0  0  0  0  0  0  0  0
  123.0200  129.6280   63.2950 N   0  0  0  0  0  0  0  0  0  0  0  0
  128.1510  126.6790   69.5720 C   0  0  0  0  0  0  0  0  0  0  0  0
  128.4500  126.6170   70.9300 C   0  0  0  0  0  0  0  0  0  0  0  0
  130.6217  125.6316   75.2442 H   0  0  0  0  0  0  0  0  0  0  0  0
  130.9885  124.4667   73.9270 H   0  0  0  0  0  0  0  0  0  0  0  0
  131.7528  126.0923   73.9270 H   0  0  0  0  0  0  0  0  0  0  0  0
  130.9861  128.8978   71.0413 H   0  0  0  0  0  0  0  0  0  0  0  0
  130.4518  129.0126   68.6188 H   0  0  0  0  0  0  0  0  0  0  0  0
  128.6520  126.8150   66.8350 H   0  0  0  0  0  0  0  0  0  0  0  0
  128.9028  129.2523   64.5961 H   0  0  0  0  0  0  0  0  0  0  0  0
  128.4339  127.5197   64.9218 H   0  0  0  0  0  0  0  0  0  0  0  0
  129.7492  132.4217   62.7871 H   0  0  0  0  0  0  0  0  0  0  0  0
  129.8125  131.4855   61.2554 H   0  0  0  0  0  0  0  0  0  0  0  0
  129.1774  133.1658   61.2554 H   0  0  0  0  0  0  0  0  0  0  0  0
  126.8499  133.0179   60.6924 H   0  0  0  0  0  0  0  0  0  0  0  0
  127.3455  126.0547   69.1580 H   0  0  0  0  0  0  0  0  0  0  0  0
  127.8792  125.9395   71.5821 H   0  0  0  0  0  0  0  0  0  0  0  0
  1  2  1  0
  2  3  1  0
  3  4  2  0
  3  5  1  0
  5  6  2  0
  6  7  1  0
  7  8  2  0
  8  9  1  0
  9 10  1  0
 10 11  2  0
 10 12  1  0
 12 13  1  0
 13 14  1  0
 14 15  2  0
 15 16  1  0
 16 17  1  0
 16 18  2  0
 18 19  1  0
 19 20  1  0
 20 21  1  0
 20 22  1  0
 20 23  1  0
 19 24  2  0
 24 25  1  0
 25 26  3  0
  8 27  1  0
 27 28  2  0
 28  5  1  0
 24 14  1  0
  1 29  1  0
  1 30  1  0
  1 31  1  0
  6 32  1  0
  7 33  1  0
  9 34  1  0
 12 35  1  0
 12 36  1  0
 17 37  1  0
 17 38  1  0
 17 39  1  0
 18 40  1  0
 27 41  1  0
 28 42  1  0
M  END
>  <Binding energies>  (1) 
[-6.95]

>  <Ligand effiencies>  (1) 
[-0.2396551724137931]

>  <Interactions>  (1) 
["H-B:GLU:543:OE2:9882, V-B:GLU:543:CD:9880, H-A:GLU:543:OE2:4910, V-A:GLU:543:CD:4908, V-B:ILE:369:CD1:8211, V-A:TYR:539:CE1:4875, V-A:ALA:541:CB:4892, V-A:TYR:539:CD1:4873, V-A:GLU:543:CG:4907, V-B:ILE:369:CG2:8209, V-B:ARG:545:CZ:9898, V-A:ALA:541:CA:4890, H-B:GLY:454:N:9022, H-B:TYR:484:OH:9320, V-B:GLY:454:CA:9021, V-B:GLY:453:CA:9016, H-B:ARG:545:NH1:9899, V-B:HIS:456:CE1:9042, H-B:LYS:547:NZ:9923, H-A:LYS:547:NZ:4951, V-B:HIS:456:CD2:9040, V-A:HIS:456:CB:4065, V-A:HIS:456:CD2:4068, V-A:HIS:456:CG:4066, V-A:GLY:544:C:4912, V-B:GLU:543:CB:9878, H-B:ARG:545:NH2:9900, V-B:ASP:366:CA:8182, V-A:HIS:456:CE1:4070, V-A:GLU:543:CB:4906, V-A:GLU:543:C:4902, V-A:GLY:544:CA:4914, V-B:LYS:547:CE:9922"]

$$$$
2c_Ghoteimi_2023
     RDKit          3D

 72 77  0  0  0  0  0  0  0  0999 V2000
  128.9030  127.3440   61.0140 N   0  0  0  0  0  0  0  0  0  0  0  0
  128.9740  127.4350   62.1650 C   0  0  0  0  0  0  0  0  0  0  0  0
  129.0610  127.5540   63.6240 C   0  0  0  0  0  0  0  0  0  0  0  0
  128.4480  128.6410   64.2960 C   0  0  0  0  0  0  0  0  0  0  0  0
  127.6890  129.7260   63.6050 C   0  0  0  0  0  0  0  0  0  0  0  0
  126.4470  129.4560   63.0270 C   0  0  0  0  0  0  0  0  0  0  0  0
  125.7310  130.4630   62.3850 C   0  0  0  0  0  0  0  0  0  0  0  0
  126.2450  131.7660   62.2900 C   0  0  0  0  0  0  0  0  0  0  0  0
  125.5350  132.7960   61.6680 N   0  0  0  0  0  0  0  0  0  0  0  0
  124.1360  133.0510   62.0650 C   0  0  0  0  0  0  0  0  0  0  0  0
  123.3670  133.9290   61.0550 C   0  0  0  0  0  0  0  0  0  0  0  0
  124.0630  135.1470   60.8400 O   0  0  0  0  0  0  0  0  0  0  0  0
  125.3650  134.9230   60.3210 C   0  0  0  0  0  0  0  0  0  0  0  0
  126.1860  134.0710   61.3110 C   0  0  0  0  0  0  0  0  0  0  0  0
  127.4950  132.0260   62.8700 C   0  0  0  0  0  0  0  0  0  0  0  0
  128.2090  131.0190   63.5140 C   0  0  0  0  0  0  0  0  0  0  0  0
  128.5560  128.7080   65.6910 C   0  0  0  0  0  0  0  0  0  0  0  0
  129.2310  127.7080   66.3980 C   0  0  0  0  0  0  0  0  0  0  0  0
  129.3590  127.7250   67.8880 C   0  0  0  0  0  0  0  0  0  0  0  0
  128.4800  126.9890   68.6890 C   0  0  0  0  0  0  0  0  0  0  0  0
  128.5980  126.9960   70.0770 C   0  0  0  0  0  0  0  0  0  0  0  0
  129.5940  127.7500   70.7160 C   0  0  0  0  0  0  0  0  0  0  0  0
  129.7420  127.7490   72.1070 N   0  0  0  0  0  0  0  0  0  0  0  0
  131.0680  127.4950   72.7060 C   0  0  0  0  0  0  0  0  0  0  0  0
  131.0130  127.1420   74.2070 C   0  0  0  0  0  0  0  0  0  0  0  0
  130.3250  128.1570   74.9190 O   0  0  0  0  0  0  0  0  0  0  0  0
  128.9900  128.2990   74.4600 C   0  0  0  0  0  0  0  0  0  0  0  0
  128.9820  128.6820   72.9650 C   0  0  0  0  0  0  0  0  0  0  0  0
  130.4810  128.4760   69.9080 C   0  0  0  0  0  0  0  0  0  0  0  0
  130.3630  128.4670   68.5210 C   0  0  0  0  0  0  0  0  0  0  0  0
  129.8150  126.6670   65.7520 N   0  0  0  0  0  0  0  0  0  0  0  0
  129.7510  126.5960   64.4010 C   0  0  0  0  0  0  0  0  0  0  0  0
  130.5780  125.1760   63.7220 S   0  0  0  0  0  0  0  0  0  0  0  0
  132.3580  125.5440   63.6900 C   0  0  0  0  0  0  0  0  0  0  0  0
  133.0020  125.1480   62.3600 C   0  0  0  0  0  0  0  0  0  0  0  0
  134.1410  124.6770   62.3570 O   0  0  0  0  0  0  0  0  0  0  0  0
  132.2470  125.3590   61.2610 N   0  0  0  0  0  0  0  0  0  0  0  0
  132.5920  125.0710   59.9490 C   0  0  0  0  0  0  0  0  0  0  0  0
  133.4070  124.1340   59.5160 N   0  0  0  0  0  0  0  0  0  0  0  0
  133.4990  124.1410   58.2010 C   0  0  0  0  0  0  0  0  0  0  0  0
  132.7450  125.1050   57.5370 C   0  0  0  0  0  0  0  0  0  0  0  0
  131.8710  126.0450   58.7090 S   0  0  0  0  0  0  0  0  0  0  0  0
  126.0306  128.4392   63.0793 H   0  0  0  0  0  0  0  0  0  0  0  0
  124.7487  130.2343   61.9460 H   0  0  0  0  0  0  0  0  0  0  0  0
  123.6168  132.0855   62.1551 H   0  0  0  0  0  0  0  0  0  0  0  0
  124.1618  133.5973   63.0194 H   0  0  0  0  0  0  0  0  0  0  0  0
  123.2738  133.3897   60.1008 H   0  0  0  0  0  0  0  0  0  0  0  0
  122.3678  134.1511   61.4580 H   0  0  0  0  0  0  0  0  0  0  0  0
  125.2883  134.3930   59.3602 H   0  0  0  0  0  0  0  0  0  0  0  0
  125.8671  135.8905   60.1732 H   0  0  0  0  0  0  0  0  0  0  0  0
  127.1613  133.8483   60.8536 H   0  0  0  0  0  0  0  0  0  0  0  0
  126.2846  134.6555   62.2377 H   0  0  0  0  0  0  0  0  0  0  0  0
  127.9175  133.0401   62.8154 H   0  0  0  0  0  0  0  0  0  0  0  0
  129.1913  131.2438   63.9550 H   0  0  0  0  0  0  0  0  0  0  0  0
  128.1069  129.5528   66.2339 H   0  0  0  0  0  0  0  0  0  0  0  0
  127.6836  126.3957   68.2159 H   0  0  0  0  0  0  0  0  0  0  0  0
  127.8987  126.4005   70.6822 H   0  0  0  0  0  0  0  0  0  0  0  0
  131.5369  126.6572   72.1691 H   0  0  0  0  0  0  0  0  0  0  0  0
  131.6454  128.4269   72.6158 H   0  0  0  0  0  0  0  0  0  0  0  0
  130.4865  126.1850   74.3371 H   0  0  0  0  0  0  0  0  0  0  0  0
  132.0385  127.0596   74.5964 H   0  0  0  0  0  0  0  0  0  0  0  0
  128.4556  127.3470   74.5947 H   0  0  0  0  0  0  0  0  0  0  0  0
  128.4927  129.0920   75.0378 H   0  0  0  0  0  0  0  0  0  0  0  0
  127.9386  128.7013   72.6174 H   0  0  0  0  0  0  0  0  0  0  0  0
  129.4709  129.6639   72.8828 H   0  0  0  0  0  0  0  0  0  0  0  0
  131.2838  129.0627   70.3784 H   0  0  0  0  0  0  0  0  0  0  0  0
  131.0693  129.0517   67.9134 H   0  0  0  0  0  0  0  0  0  0  0  0
  132.5002  126.6236   63.8457 H   0  0  0  0  0  0  0  0  0  0  0  0
  132.8398  124.9597   64.4878 H   0  0  0  0  0  0  0  0  0  0  0  0
  131.3220  125.7430   61.3970 H   0  0  0  0  0  0  0  0  0  0  0  0
  134.1353  123.4259   57.6590 H   0  0  0  0  0  0  0  0  0  0  0  0
  132.7084  125.2485   56.4470 H   0  0  0  0  0  0  0  0  0  0  0  0
  1  2  3  0
  2  3  1  0
  3  4  2  0
  4  5  1  0
  5  6  2  0
  6  7  1  0
  7  8  2  0
  8  9  1  0
  9 10  1  0
 10 11  1  0
 11 12  1  0
 12 13  1  0
 13 14  1  0
  8 15  1  0
 15 16  2  0
  4 17  1  0
 17 18  2  0
 18 19  1  0
 19 20  2  0
 20 21  1  0
 21 22  2  0
 22 23  1  0
 23 24  1  0
 24 25  1  0
 25 26  1  0
 26 27  1  0
 27 28  1  0
 22 29  1  0
 29 30  2  0
 18 31  1  0
 31 32  2  0
 32 33  1  0
 33 34  1  0
 34 35  1  0
 35 36  2  0
 35 37  1  0
 37 38  1  0
 38 39  2  0
 39 40  1  0
 40 41  2  0
 41 42  1  0
 32  3  1  0
 42 38  1  0
 16  5  1  0
 30 19  1  0
 14  9  1  0
 28 23  1  0
  6 43  1  0
  7 44  1  0
 10 45  1  0
 10 46  1  0
 11 47  1  0
 11 48  1  0
 13 49  1  0
 13 50  1  0
 14 51  1  0
 14 52  1  0
 15 53  1  0
 16 54  1  0
 17 55  1  0
 20 56  1  0
 21 57  1  0
 24 58  1  0
 24 59  1  0
 25 60  1  0
 25 61  1  0
 27 62  1  0
 27 63  1  0
 28 64  1  0
 28 65  1  0
 29 66  1  0
 30 67  1  0
 34 68  1  0
 34 69  1  0
 37 70  1  0
 40 71  1  0
 41 72  1  0
M  END
>  <Binding energies>  (1) 
[-5.49]

>  <Ligand effiencies>  (1) 
[-0.12767441860465117]

>  <Interactions>  (1) 
["V-B:GLU:543:CD:9880, V-A:ILE:369:CG2:3237, V-B:TYR:539:CE2:9848, V-A:GLU:543:CD:4908, V-A:ARG:545:CZ:4926, H-A:TYR:484:OH:4348, V-B:SER:385:C:8377, V-B:ILE:369:CD1:8211, V-A:TYR:539:CE1:4875, V-A:ALA:541:CB:4892, V-B:SER:385:CA:8379, V-A:TYR:539:CD1:4873, V-A:GLU:543:CG:4907, V-B:ILE:369:CG2:8209, V-B:LEU:475:CD2:9231, V-B:GLY:454:CA:9021, V-B:HIS:456:CE1:9042, H-A:LYS:547:NZ:4951, V-B:HIS:456:CD2:9040, V-A:HIS:456:CD2:4068, V-A:HIS:456:CG:4066, V-A:GLY:544:C:4912, V-A:ASP:366:CG:3213, V-B:GLU:543:CB:9878, V-B:ILE:369:CG1:8210, V-B:ILE:369:CB:8208, V-A:ASP:366:CB:3212, H-A:GLY:454:N:4050, V-A:HIS:456:CE1:4070, V-A:GLU:543:CB:4906, V-A:GLU:543:CA:4904, V-A:ASP:366:C:3208, V-A:ASP:366:CA:3210, V-A:ILE:369:CB:3236, H-A:ARG:545:NH2:4928, V-A:GLU:543:C:4902, V-B:TYR:539:CZ:9849, V-A:GLY:544:CA:4914, H-B:SER:385:OG:8382"]

$$$$
2c_Grossjean_2025
     RDKit          3D

 40 41  0  0  0  0  0  0  0  0999 V2000
  130.3590  127.0110   73.4800 C   0  0  0  0  0  0  0  0  0  0  0  0
  129.0670  126.8600   72.8990 O   0  0  0  0  0  0  0  0  0  0  0  0
  128.9210  127.0150   71.5340 C   0  0  0  0  0  0  0  0  0  0  0  0
  129.8230  127.8710   70.9040 C   0  0  0  0  0  0  0  0  0  0  0  0
  129.7540  128.0930   69.5320 C   0  0  0  0  0  0  0  0  0  0  0  0
  128.7610  127.4580   68.7700 C   0  0  0  0  0  0  0  0  0  0  0  0
  128.6240  127.6050   67.3770 N   0  0  0  0  0  0  0  0  0  0  0  0
  128.3730  128.7270   66.6690 C   0  0  0  0  0  0  0  0  0  0  0  0
  128.1640  129.8360   67.1640 O   0  0  0  0  0  0  0  0  0  0  0  0
  128.3210  128.5330   65.1460 C   0  0  0  0  0  0  0  0  0  0  0  0
  126.6620  128.6710   64.3930 S   0  0  0  0  0  0  0  0  0  0  0  0
  126.6170  130.0940   63.3110 C   0  0  0  0  0  0  0  0  0  0  0  0
  127.8260  130.6060   62.9620 N   0  0  0  0  0  0  0  0  0  0  0  0
  127.8680  131.6870   62.1540 C   0  0  0  0  0  0  0  0  0  0  0  0
  129.2540  132.2080   61.8240 C   0  0  0  0  0  0  0  0  0  0  0  0
  126.7200  132.2970   61.6540 C   0  0  0  0  0  0  0  0  0  0  0  0
  125.4620  131.7820   61.9950 C   0  0  0  0  0  0  0  0  0  0  0  0
  124.2010  132.4670   61.4330 C   0  0  0  0  0  0  0  0  0  0  0  0
  123.3760  132.7930   62.4290 F   0  0  0  0  0  0  0  0  0  0  0  0
  124.5380  133.5740   60.7700 F   0  0  0  0  0  0  0  0  0  0  0  0
  123.5220  131.6850   60.5900 F   0  0  0  0  0  0  0  0  0  0  0  0
  125.4020  130.6500   62.8470 C   0  0  0  0  0  0  0  0  0  0  0  0
  124.1120  130.0700   63.2380 C   0  0  0  0  0  0  0  0  0  0  0  0
  123.0950  129.6130   63.5460 N   0  0  0  0  0  0  0  0  0  0  0  0
  127.8660  126.5880   69.3930 C   0  0  0  0  0  0  0  0  0  0  0  0
  127.9390  126.3690   70.7650 C   0  0  0  0  0  0  0  0  0  0  0  0
  130.2714  127.0008   74.5765 H   0  0  0  0  0  0  0  0  0  0  0  0
  131.0058  126.1823   73.1561 H   0  0  0  0  0  0  0  0  0  0  0  0
  130.7973  127.9665   73.1561 H   0  0  0  0  0  0  0  0  0  0  0  0
  130.5982  128.3768   71.4983 H   0  0  0  0  0  0  0  0  0  0  0  0
  130.4764  128.7649   69.0455 H   0  0  0  0  0  0  0  0  0  0  0  0
  128.6590  126.7410   66.8560 H   0  0  0  0  0  0  0  0  0  0  0  0
  128.9671  129.2945   64.6849 H   0  0  0  0  0  0  0  0  0  0  0  0
  128.6522  127.5005   64.9611 H   0  0  0  0  0  0  0  0  0  0  0  0
  129.8002  132.4133   62.7565 H   0  0  0  0  0  0  0  0  0  0  0  0
  129.7994  131.4535   61.2381 H   0  0  0  0  0  0  0  0  0  0  0  0
  129.1674  133.1349   61.2381 H   0  0  0  0  0  0  0  0  0  0  0  0
  126.8001  133.1756   60.9970 H   0  0  0  0  0  0  0  0  0  0  0  0
  127.0988  126.0726   68.7966 H   0  0  0  0  0  0  0  0  0  0  0  0
  127.2247  125.6871   71.2496 H   0  0  0  0  0  0  0  0  0  0  0  0
  1  2  1  0
  2  3  1  0
  3  4  2  0
  4  5  1  0
  5  6  2  0
  6  7  1  0
  7  8  1  0
  8  9  2  0
  8 10  1  0
 10 11  1  0
 11 12  1  0
 12 13  2  0
 13 14  1  0
 14 15  1  0
 14 16  2  0
 16 17  1  0
 17 18  1  0
 18 19  1  0
 18 20  1  0
 18 21  1  0
 17 22  2  0
 22 23  1  0
 23 24  3  0
  6 25  1  0
 25 26  2  0
 26  3  1  0
 22 12  1  0
  1 27  1  0
  1 28  1  0
  1 29  1  0
  4 30  1  0
  5 31  1  0
  7 32  1  0
 10 33  1  0
 10 34  1  0
 15 35  1  0
 15 36  1  0
 15 37  1  0
 16 38  1  0
 25 39  1  0
 26 40  1  0
M  END
>  <Binding energies>  (1) 
[-6.36]

>  <Ligand effiencies>  (1) 
[-0.23555555555555557]

>  <Interactions>  (1) 
["H-B:GLU:543:OE2:9882, V-B:GLU:543:CD:9880, H-A:GLU:543:OE2:4910, V-A:GLU:543:CD:4908, V-B:ILE:369:CD1:8211, V-A:ALA:541:CB:4892, V-A:GLU:543:CG:4907, V-B:ILE:369:CG2:8209, V-B:ARG:545:CZ:9898, V-B:LEU:475:CD2:9231, V-A:ALA:541:CA:4890, H-B:GLY:454:N:9022, V-B:GLY:453:C:9014, H-B:TYR:484:OH:9320, V-B:GLY:454:CA:9021, V-B:GLY:453:CA:9016, H-B:ARG:545:NH1:9899, V-B:HIS:456:CE1:9042, H-B:LYS:547:NZ:9923, V-B:HIS:456:CD2:9040, V-A:HIS:456:CD2:4068, V-B:GLY:544:C:9884, V-B:GLU:543:CB:9878, H-B:ARG:545:NH2:9900, V-B:ILE:369:CB:8208, V-A:HIS:456:CE1:4070, V-A:GLU:543:CB:4906, V-A:GLU:543:C:4902, V-B:GLU:543:C:9874"]

$$$$
2d_Ghoteimi_2023
     RDKit          3D

 68 72  0  0  0  0  0  0  0  0999 V2000
  133.6150  124.3050   61.0120 C   0  0  0  0  0  0  0  0  0  0  0  0
  133.6030  124.0280   62.4040 O   0  0  0  0  0  0  0  0  0  0  0  0
  133.2910  124.9940   63.2920 C   0  0  0  0  0  0  0  0  0  0  0  0
  133.9060  125.2340   64.3350 O   0  0  0  0  0  0  0  0  0  0  0  0
  132.0550  125.7880   62.8430 C   0  0  0  0  0  0  0  0  0  0  0  0
  130.5500  125.2090   63.6990 S   0  0  0  0  0  0  0  0  0  0  0  0
  129.7390  126.6200   64.4220 C   0  0  0  0  0  0  0  0  0  0  0  0
  129.8460  126.6640   65.7730 N   0  0  0  0  0  0  0  0  0  0  0  0
  129.2690  127.6830   66.4580 C   0  0  0  0  0  0  0  0  0  0  0  0
  129.4140  127.6560   67.9460 C   0  0  0  0  0  0  0  0  0  0  0  0
  130.4960  128.2880   68.5680 C   0  0  0  0  0  0  0  0  0  0  0  0
  130.6370  128.2670   69.9530 C   0  0  0  0  0  0  0  0  0  0  0  0
  129.6950  127.6210   70.7670 C   0  0  0  0  0  0  0  0  0  0  0  0
  129.8320  127.5740   72.1590 N   0  0  0  0  0  0  0  0  0  0  0  0
  131.1440  127.3510   72.7990 C   0  0  0  0  0  0  0  0  0  0  0  0
  131.0460  126.9610   74.2890 C   0  0  0  0  0  0  0  0  0  0  0  0
  130.2990  127.9380   74.9960 O   0  0  0  0  0  0  0  0  0  0  0  0
  128.9790  128.0520   74.4910 C   0  0  0  0  0  0  0  0  0  0  0  0
  129.0140  128.4670   73.0050 C   0  0  0  0  0  0  0  0  0  0  0  0
  128.6200  126.9760   70.1390 C   0  0  0  0  0  0  0  0  0  0  0  0
  128.4800  126.9960   68.7540 C   0  0  0  0  0  0  0  0  0  0  0  0
  128.5670  128.6920   65.7940 C   0  0  0  0  0  0  0  0  0  0  0  0
  128.4700  128.6880   64.3970 C   0  0  0  0  0  0  0  0  0  0  0  0
  127.7290  129.8140   63.7530 C   0  0  0  0  0  0  0  0  0  0  0  0
  128.3410  131.0580   63.5960 C   0  0  0  0  0  0  0  0  0  0  0  0
  127.6640  132.1110   62.9860 C   0  0  0  0  0  0  0  0  0  0  0  0
  126.3500  131.9480   62.5180 C   0  0  0  0  0  0  0  0  0  0  0  0
  125.6560  132.9860   61.8910 N   0  0  0  0  0  0  0  0  0  0  0  0
  124.2930  132.7890   61.3590 C   0  0  0  0  0  0  0  0  0  0  0  0
  123.5620  134.1100   61.0370 C   0  0  0  0  0  0  0  0  0  0  0  0
  124.3440  134.8950   60.1510 O   0  0  0  0  0  0  0  0  0  0  0  0
  125.6080  135.2160   60.7120 C   0  0  0  0  0  0  0  0  0  0  0  0
  126.3930  133.9240   61.0220 C   0  0  0  0  0  0  0  0  0  0  0  0
  125.7500  130.6900   62.6640 C   0  0  0  0  0  0  0  0  0  0  0  0
  126.4280  129.6370   63.2730 C   0  0  0  0  0  0  0  0  0  0  0  0
  129.0770  127.6260   63.6820 C   0  0  0  0  0  0  0  0  0  0  0  0
  129.0190  127.5870   62.2170 C   0  0  0  0  0  0  0  0  0  0  0  0
  128.9710  127.5600   61.0610 N   0  0  0  0  0  0  0  0  0  0  0  0
  133.6621  125.3927   60.8550 H   0  0  0  0  0  0  0  0  0  0  0  0
  134.4934  123.8296   60.5511 H   0  0  0  0  0  0  0  0  0  0  0  0
  132.6988  123.9074   60.5511 H   0  0  0  0  0  0  0  0  0  0  0  0
  132.2103  126.8527   63.0714 H   0  0  0  0  0  0  0  0  0  0  0  0
  131.9195  125.6385   61.7617 H   0  0  0  0  0  0  0  0  0  0  0  0
  131.2458  128.8088   67.9543 H   0  0  0  0  0  0  0  0  0  0  0  0
  131.5013  128.7652   70.4164 H   0  0  0  0  0  0  0  0  0  0  0  0
  131.6604  126.5423   72.2611 H   0  0  0  0  0  0  0  0  0  0  0  0
  131.6929  128.3030   72.7501 H   0  0  0  0  0  0  0  0  0  0  0  0
  130.5466  125.9850   74.3784 H   0  0  0  0  0  0  0  0  0  0  0  0
  132.0584  126.9012   74.7149 H   0  0  0  0  0  0  0  0  0  0  0  0
  128.4680  127.0825   74.5861 H   0  0  0  0  0  0  0  0  0  0  0  0
  128.4382  128.8180   75.0662 H   0  0  0  0  0  0  0  0  0  0  0  0
  127.9839  128.4638   72.6190 H   0  0  0  0  0  0  0  0  0  0  0  0
  129.4755  129.4645   72.9602 H   0  0  0  0  0  0  0  0  0  0  0  0
  127.8752  126.4456   70.7505 H   0  0  0  0  0  0  0  0  0  0  0  0
  127.6238  126.4863   68.2880 H   0  0  0  0  0  0  0  0  0  0  0  0
  128.0871  129.4951   66.3725 H   0  0  0  0  0  0  0  0  0  0  0  0
  129.3688  131.2085   63.9578 H   0  0  0  0  0  0  0  0  0  0  0  0
  128.1651  133.0833   62.8692 H   0  0  0  0  0  0  0  0  0  0  0  0
  124.3619  132.1949   60.4358 H   0  0  0  0  0  0  0  0  0  0  0  0
  123.7108  132.2786   62.1404 H   0  0  0  0  0  0  0  0  0  0  0  0
  122.5938  133.8849   60.5659 H   0  0  0  0  0  0  0  0  0  0  0  0
  123.4022  134.6704   61.9700 H   0  0  0  0  0  0  0  0  0  0  0  0
  126.1792  135.8263   59.9970 H   0  0  0  0  0  0  0  0  0  0  0  0
  125.4559  135.7781   61.6452 H   0  0  0  0  0  0  0  0  0  0  0  0
  126.6183  133.4163   60.0725 H   0  0  0  0  0  0  0  0  0  0  0  0
  127.3050  134.2191   61.5616 H   0  0  0  0  0  0  0  0  0  0  0  0
  124.7271  130.5318   62.2916 H   0  0  0  0  0  0  0  0  0  0  0  0
  125.9361  128.6586   63.3771 H   0  0  0  0  0  0  0  0  0  0  0  0
  1  2  1  0
  2  3  1  0
  3  4  2  0
  3  5  1  0
  5  6  1  0
  6  7  1  0
  7  8  2  0
  8  9  1  0
  9 10  1  0
 10 11  2  0
 11 12  1  0
 12 13  2  0
 13 14  1  0
 14 15  1  0
 15 16  1  0
 16 17  1  0
 17 18  1  0
 18 19  1  0
 13 20  1  0
 20 21  2  0
  9 22  2  0
 22 23  1  0
 23 24  1  0
 24 25  2  0
 25 26  1  0
 26 27  2  0
 27 28  1  0
 28 29  1  0
 29 30  1  0
 30 31  1  0
 31 32  1  0
 32 33  1  0
 27 34  1  0
 34 35  2  0
 23 36  2  0
 36 37  1  0
 37 38  3  0
 36  7  1  0
 21 10  1  0
 35 24  1  0
 19 14  1  0
 33 28  1  0
  1 39  1  0
  1 40  1  0
  1 41  1  0
  5 42  1  0
  5 43  1  0
 11 44  1  0
 12 45  1  0
 15 46  1  0
 15 47  1  0
 16 48  1  0
 16 49  1  0
 18 50  1  0
 18 51  1  0
 19 52  1  0
 19 53  1  0
 20 54  1  0
 21 55  1  0
 22 56  1  0
 25 57  1  0
 26 58  1  0
 29 59  1  0
 29 60  1  0
 30 61  1  0
 30 62  1  0
 32 63  1  0
 32 64  1  0
 33 65  1  0
 33 66  1  0
 34 67  1  0
 35 68  1  0
M  END
>  <Binding energies>  (1) 
[-5.01]

>  <Ligand effiencies>  (1) 
[-0.1318421052631579]

>  <Interactions>  (1) 
["V-B:GLU:543:CD:9880, V-A:GLU:543:CD:4908, V-A:ARG:545:CZ:4926, H-A:TYR:484:OH:4348, V-B:SER:385:C:8377, V-B:ILE:369:CD1:8211, V-A:ALA:541:CB:4892, V-B:SER:385:CA:8379, V-A:TYR:539:CD1:4873, V-A:GLU:543:CG:4907, V-B:ILE:369:CG2:8209, V-B:LEU:475:CD2:9231, V-B:HIS:456:CE1:9042, H-A:LYS:547:NZ:4951, V-B:HIS:456:CD2:9040, V-A:HIS:456:CD2:4068, V-A:HIS:456:CG:4066, V-A:GLY:544:C:4912, V-A:ASP:366:CG:3213, V-A:ILE:369:CD1:3239, V-B:GLU:543:CB:9878, H-A:GLY:454:N:4050, H-A:ARG:545:NE:4924, V-A:HIS:456:CE1:4070, V-A:GLU:543:CB:4906, V-A:GLU:543:CA:4904, H-A:ARG:545:NH1:4927, H-A:ARG:545:NH2:4928, V-A:GLU:543:C:4902, V-A:GLY:544:CA:4914, H-B:SER:385:OG:8382"]

$$$$
2d_Grossjean_2025
     RDKit          3D

 36 37  0  0  0  0  0  0  0  0999 V2000
  129.4310  127.7280   72.8770 C   0  0  0  0  0  0  0  0  0  0  0  0
  130.5300  126.8980   73.5120 C   0  0  0  0  0  0  0  0  0  0  0  0
  131.8190  127.3980   73.6760 C   0  0  0  0  0  0  0  0  0  0  0  0
  132.8000  126.5920   74.2740 C   0  0  0  0  0  0  0  0  0  0  0  0
  134.2190  127.1660   74.4560 C   0  0  0  0  0  0  0  0  0  0  0  0
  134.2140  128.1000   75.4080 F   0  0  0  0  0  0  0  0  0  0  0  0
  135.0630  126.1950   74.8070 F   0  0  0  0  0  0  0  0  0  0  0  0
  134.6950  127.7290   73.3440 F   0  0  0  0  0  0  0  0  0  0  0  0
  132.4440  125.2830   74.6860 C   0  0  0  0  0  0  0  0  0  0  0  0
  133.4190  124.4200   75.3570 C   0  0  0  0  0  0  0  0  0  0  0  0
  134.1900  123.7390   75.8880 N   0  0  0  0  0  0  0  0  0  0  0  0
  131.1160  124.8510   74.4560 C   0  0  0  0  0  0  0  0  0  0  0  0
  130.5090  123.2310   74.8830 S   0  0  0  0  0  0  0  0  0  0  0  0
  130.3790  122.2340   73.3610 C   0  0  0  0  0  0  0  0  0  0  0  0
  128.9310  121.9440   72.9570 C   0  0  0  0  0  0  0  0  0  0  0  0
  128.1970  122.8820   72.6450 O   0  0  0  0  0  0  0  0  0  0  0  0
  128.5600  120.6470   73.0060 N   0  0  0  0  0  0  0  0  0  0  0  0
  127.3170  120.0660   72.6950 C   0  0  0  0  0  0  0  0  0  0  0  0
  126.2440  120.4450   73.5050 C   0  0  0  0  0  0  0  0  0  0  0  0
  124.9740  119.9190   73.2790 C   0  0  0  0  0  0  0  0  0  0  0  0
  124.7800  119.0050   72.2470 C   0  0  0  0  0  0  0  0  0  0  0  0
  125.8440  118.6090   71.4410 C   0  0  0  0  0  0  0  0  0  0  0  0
  127.1140  119.1340   71.6630 C   0  0  0  0  0  0  0  0  0  0  0  0
  130.1750  125.6500   73.8970 N   0  0  0  0  0  0  0  0  0  0  0  0
  128.8188  128.1904   73.6653 H   0  0  0  0  0  0  0  0  0  0  0  0
  129.8798  128.5145   72.2526 H   0  0  0  0  0  0  0  0  0  0  0  0
  128.7973  127.0811   72.2526 H   0  0  0  0  0  0  0  0  0  0  0  0
  132.0663  128.4158   73.3398 H   0  0  0  0  0  0  0  0  0  0  0  0
  130.8688  122.7802   72.5414 H   0  0  0  0  0  0  0  0  0  0  0  0
  130.8651  121.2672   73.5587 H   0  0  0  0  0  0  0  0  0  0  0  0
  129.2450  119.9990   73.3670 H   0  0  0  0  0  0  0  0  0  0  0  0
  126.4024  121.1615   74.3244 H   0  0  0  0  0  0  0  0  0  0  0  0
  124.1285  120.2244   73.9129 H   0  0  0  0  0  0  0  0  0  0  0  0
  123.7766  118.5918   72.0666 H   0  0  0  0  0  0  0  0  0  0  0  0
  125.6814  117.8830   70.6307 H   0  0  0  0  0  0  0  0  0  0  0  0
  127.9578  118.8196   71.0312 H   0  0  0  0  0  0  0  0  0  0  0  0
  1  2  1  0
  2  3  2  0
  3  4  1  0
  4  5  1  0
  5  6  1  0
  5  7  1  0
  5  8  1  0
  4  9  2  0
  9 10  1  0
 10 11  3  0
  9 12  1  0
 12 13  1  0
 13 14  1  0
 14 15  1  0
 15 16  2  0
 15 17  1  0
 17 18  1  0
 18 19  2  0
 19 20  1  0
 20 21  2  0
 21 22  1  0
 22 23  2  0
 12 24  2  0
 24  2  1  0
 23 18  1  0
  1 25  1  0
  1 26  1  0
  1 27  1  0
  3 28  1  0
 14 29  1  0
 14 30  1  0
 17 31  1  0
 19 32  1  0
 20 33  1  0
 21 34  1  0
 22 35  1  0
 23 36  1  0
M  END
>  <Binding energies>  (1) 
[-6.98]

>  <Ligand effiencies>  (1) 
[-0.2792]

>  <Interactions>  (1) 
["H-B:LYS:547:NZ:9923, V-A:VAL:458:CG2:4087, V-A:VAL:457:CA:4075, V-A:VAL:457:C:4073, V-B:HIS:456:CD2:9040, V-A:HIS:456:CB:4065, V-A:HIS:456:CD2:4068, V-A:HIS:456:C:4061, V-A:LYS:471:CD:4219, V-A:ASP:473:CG:4240, V-A:HIS:456:CG:4066, V-A:LYS:547:CG:4948, V-A:LYS:547:CB:4947, V-A:GLY:544:C:4912, V-A:LYS:547:CD:4949, V-A:HIS:456:CA:4063, V-A:ARG:545:C:4917, V-B:LYS:547:CE:9922, V-A:ILE:546:CA:4936, V-A:ARG:545:CA:4919, V-A:TYR:484:CB:4341, V-A:ASP:473:CB:4239, V-A:TYR:484:C:4337, H-B:GLY:544:N:9887, V-B:GLY:544:CA:9886, V-B:VAL:542:CG1:9871, H-A:TYR:484:O:4338, V-A:VAL:458:CB:4085, V-B:VAL:542:CB:9870, V-A:TYR:484:CA:4339, V-B:VAL:542:C:9866"]

$$$$
2e_Grossjean_2025
     RDKit          3D

 38 39  0  0  0  0  0  0  0  0999 V2000
  123.3350  129.6290   67.0100 C   0  0  0  0  0  0  0  0  0  0  0  0
  124.4330  129.4280   65.9830 C   0  0  0  0  0  0  0  0  0  0  0  0
  125.6670  128.8720   66.3300 C   0  0  0  0  0  0  0  0  0  0  0  0
  126.6260  128.7060   65.3290 C   0  0  0  0  0  0  0  0  0  0  0  0
  126.3320  129.0960   64.0200 C   0  0  0  0  0  0  0  0  0  0  0  0
  125.0790  129.6550   63.7440 C   0  0  0  0  0  0  0  0  0  0  0  0
  124.8200  129.9900   62.4030 N   0  0  0  0  0  0  0  0  0  0  0  0
  123.6480  130.3760   61.8520 C   0  0  0  0  0  0  0  0  0  0  0  0
  122.6040  130.5710   62.4760 O   0  0  0  0  0  0  0  0  0  0  0  0
  123.6480  130.5300   60.3280 C   0  0  0  0  0  0  0  0  0  0  0  0
  123.7320  132.2770   59.8170 S   0  0  0  0  0  0  0  0  0  0  0  0
  125.2910  132.8760   60.4300 C   0  0  0  0  0  0  0  0  0  0  0  0
  126.0930  131.9220   60.9650 N   0  0  0  0  0  0  0  0  0  0  0  0
  127.2780  132.2990   61.4960 C   0  0  0  0  0  0  0  0  0  0  0  0
  128.1240  131.1820   62.0760 C   0  0  0  0  0  0  0  0  0  0  0  0
  127.7050  133.6260   61.5200 C   0  0  0  0  0  0  0  0  0  0  0  0
  126.8830  134.6250   60.9780 C   0  0  0  0  0  0  0  0  0  0  0  0
  127.3590  136.0890   61.0320 C   0  0  0  0  0  0  0  0  0  0  0  0
  126.7200  136.7440   62.0020 F   0  0  0  0  0  0  0  0  0  0  0  0
  128.6700  136.1340   61.2700 F   0  0  0  0  0  0  0  0  0  0  0  0
  127.1350  136.7450   59.8910 F   0  0  0  0  0  0  0  0  0  0  0  0
  125.6400  134.2460   60.4140 C   0  0  0  0  0  0  0  0  0  0  0  0
  124.7230  135.2470   59.8590 C   0  0  0  0  0  0  0  0  0  0  0  0
  123.9990  136.0380   59.4220 N   0  0  0  0  0  0  0  0  0  0  0  0
  124.1340  129.8130   64.7160 N   0  0  0  0  0  0  0  0  0  0  0  0
  123.7603  129.5511   68.0215 H   0  0  0  0  0  0  0  0  0  0  0  0
  122.8859  130.6243   66.8767 H   0  0  0  0  0  0  0  0  0  0  0  0
  122.5625  128.8573   66.8767 H   0  0  0  0  0  0  0  0  0  0  0  0
  125.8779  128.5722   67.3671 H   0  0  0  0  0  0  0  0  0  0  0  0
  127.6072  128.2708   65.5695 H   0  0  0  0  0  0  0  0  0  0  0  0
  127.0741  128.9657   63.2185 H   0  0  0  0  0  0  0  0  0  0  0  0
  125.6260  129.9710   61.7960 H   0  0  0  0  0  0  0  0  0  0  0  0
  124.5188  129.9979   59.9175 H   0  0  0  0  0  0  0  0  0  0  0  0
  122.7068  130.1093   59.9445 H   0  0  0  0  0  0  0  0  0  0  0  0
  128.0891  131.2281   63.1745 H   0  0  0  0  0  0  0  0  0  0  0  0
  127.7323  130.2116   61.7371 H   0  0  0  0  0  0  0  0  0  0  0  0
  129.1643  131.2961   61.7371 H   0  0  0  0  0  0  0  0  0  0  0  0
  128.6785  133.8874   61.9604 H   0  0  0  0  0  0  0  0  0  0  0  0
  1  2  1  0
  2  3  2  0
  3  4  1  0
  4  5  2  0
  5  6  1  0
  6  7  1  0
  7  8  1  0
  8  9  2  0
  8 10  1  0
 10 11  1  0
 11 12  1  0
 12 13  2  0
 13 14  1  0
 14 15  1  0
 14 16  2  0
 16 17  1  0
 17 18  1  0
 18 19  1  0
 18 20  1  0
 18 21  1  0
 17 22  2  0
 22 23  1  0
 23 24  3  0
  6 25  2  0
 25  2  1  0
 22 12  1  0
  1 26  1  0
  1 27  1  0
  1 28  1  0
  3 29  1  0
  4 30  1  0
  5 31  1  0
  7 32  1  0
 10 33  1  0
 10 34  1  0
 15 35  1  0
 15 36  1  0
 15 37  1  0
 16 38  1  0
M  END
>  <Binding energies>  (1) 
[-7.11]

>  <Ligand effiencies>  (1) 
[-0.2734615384615385]

>  <Interactions>  (1) 
["V-B:GLU:543:CD:9880, V-B:ILE:369:CD1:8211, V-A:TYR:539:CE1:4875, V-A:PRO:540:CA:4883, V-A:ALA:541:CB:4892, V-B:SER:385:CA:8379, V-A:TYR:539:CD1:4873, V-B:ILE:369:CG2:8209, V-B:ARG:545:CZ:9898, V-A:PRO:540:C:4881, V-B:LEU:475:CD2:9231, V-A:ALA:541:CA:4890, H-B:GLY:454:N:9022, V-B:GLY:453:C:9014, H-B:TYR:484:OH:9320, V-B:ILE:455:C:9024, V-B:GLY:454:CA:9021, V-A:TYR:539:C:4867, V-B:GLY:453:CA:9016, V-B:ARG:545:CD:9895, H-B:ARG:545:NH1:9899, V-B:HIS:456:CE1:9042, V-B:ARG:545:CG:9894, V-B:ARG:545:CB:9893, V-B:TYR:484:CE1:9317, V-B:TYR:484:CZ:9319, V-B:ASP:366:CG:8185, V-B:PRO:482:CG:9299, V-B:PRO:482:CB:9298, V-B:ASP:366:CA:8182, V-B:ASP:366:CB:8184, H-B:SER:385:OG:8382, V-A:TYR:539:CB:4871, V-A:TYR:539:CG:4872, V-B:LEU:475:CG:9229, V-B:LEU:475:CD1:9230"]

$$$$
2f_Grossjean_2025
     RDKit          3D

 35 36  0  0  0  0  0  0  0  0999 V2000
  128.0290  122.5630   60.1540 C   0  0  0  0  0  0  0  0  0  0  0  0
  129.2820  123.0970   60.8210 C   0  0  0  0  0  0  0  0  0  0  0  0
  130.5340  122.5380   60.5760 C   0  0  0  0  0  0  0  0  0  0  0  0
  131.6630  123.0620   61.2240 C   0  0  0  0  0  0  0  0  0  0  0  0
  133.0370  122.4230   60.9480 C   0  0  0  0  0  0  0  0  0  0  0  0
  133.8560  123.3180   60.3930 F   0  0  0  0  0  0  0  0  0  0  0  0
  133.5770  121.9950   62.0900 F   0  0  0  0  0  0  0  0  0  0  0  0
  132.9660  121.3790   60.1200 F   0  0  0  0  0  0  0  0  0  0  0  0
  131.4890  124.1570   62.1100 C   0  0  0  0  0  0  0  0  0  0  0  0
  132.6280  124.7020   62.8540 C   0  0  0  0  0  0  0  0  0  0  0  0
  133.5280  125.1330   63.4400 N   0  0  0  0  0  0  0  0  0  0  0  0
  130.1830  124.6760   62.2780 C   0  0  0  0  0  0  0  0  0  0  0  0
  129.7830  126.0510   63.3380 S   0  0  0  0  0  0  0  0  0  0  0  0
  129.1580  127.4090   62.2920 C   0  0  0  0  0  0  0  0  0  0  0  0
  127.7680  127.9380   62.6740 C   0  0  0  0  0  0  0  0  0  0  0  0
  126.9340  128.1970   61.8050 O   0  0  0  0  0  0  0  0  0  0  0  0
  127.5750  128.1010   64.0000 N   0  0  0  0  0  0  0  0  0  0  0  0
  126.4330  128.5500   64.6900 C   0  0  0  0  0  0  0  0  0  0  0  0
  126.1710  128.3420   66.0570 C   0  0  0  0  0  0  0  0  0  0  0  0
  124.9980  128.8480   66.6200 C   0  0  0  0  0  0  0  0  0  0  0  0
  124.1150  129.5540   65.8030 C   0  0  0  0  0  0  0  0  0  0  0  0
  124.3490  129.7760   64.4850 N   0  0  0  0  0  0  0  0  0  0  0  0
  125.4940  129.2790   63.9520 C   0  0  0  0  0  0  0  0  0  0  0  0
  129.1010  124.1420   61.6600 N   0  0  0  0  0  0  0  0  0  0  0  0
  127.3065  122.2551   60.9241 H   0  0  0  0  0  0  0  0  0  0  0  0
  127.5837  123.3495   59.5270 H   0  0  0  0  0  0  0  0  0  0  0  0
  128.2880  121.6971   59.5270 H   0  0  0  0  0  0  0  0  0  0  0  0
  130.6369  121.6924   59.8800 H   0  0  0  0  0  0  0  0  0  0  0  0
  129.8704  128.2447   62.3567 H   0  0  0  0  0  0  0  0  0  0  0  0
  129.0602  126.9946   61.2777 H   0  0  0  0  0  0  0  0  0  0  0  0
  128.3690  127.9050   64.5940 H   0  0  0  0  0  0  0  0  0  0  0  0
  126.8866  127.7837   66.6785 H   0  0  0  0  0  0  0  0  0  0  0  0
  124.7747  128.6931   67.6859 H   0  0  0  0  0  0  0  0  0  0  0  0
  123.1886  129.9479   66.2465 H   0  0  0  0  0  0  0  0  0  0  0  0
  125.6940  129.4585   62.8853 H   0  0  0  0  0  0  0  0  0  0  0  0
  1  2  1  0
  2  3  2  0
  3  4  1  0
  4  5  1  0
  5  6  1  0
  5  7  1  0
  5  8  1  0
  4  9  2  0
  9 10  1  0
 10 11  3  0
  9 12  1  0
 12 13  1  0
 13 14  1  0
 14 15  1  0
 15 16  2  0
 15 17  1  0
 17 18  1  0
 18 19  2  0
 19 20  1  0
 20 21  2  0
 21 22  1  0
 22 23  2  0
 12 24  2  0
 24  2  1  0
 23 18  1  0
  1 25  1  0
  1 26  1  0
  1 27  1  0
  3 28  1  0
 14 29  1  0
 14 30  1  0
 17 31  1  0
 19 32  1  0
 20 33  1  0
 21 34  1  0
 23 35  1  0
M  END
>  <Binding energies>  (1) 
[-6.09]

>  <Ligand effiencies>  (1) 
[-0.24359999999999998]

>  <Interactions>  (1) 
["V-B:TYR:539:CD2:9846, H-B:GLU:543:OE2:9882, V-B:TYR:539:C:9839, V-A:LEU:475:CD2:4259, V-B:GLU:543:CD:9880, H-B:GLU:543:OE1:9881, V-A:ILE:369:CG2:3237, V-B:TYR:539:CE2:9848, H-A:GLU:543:OE2:4910, V-A:GLU:543:CD:4908, V-B:PRO:540:CA:9855, H-A:GLU:543:OE1:4909, H-A:TYR:484:OH:4348, V-B:ARG:545:CZ:9898, H-B:GLY:454:N:9022, V-B:GLY:453:C:9014, H-B:TYR:484:OH:9320, V-B:GLY:454:CA:9021, V-B:GLY:453:CA:9016, V-B:ARG:545:CD:9895, V-B:HIS:456:CE1:9042, V-B:ARG:545:CG:9894, V-A:GLY:454:CA:4049, V-A:ILE:369:CD1:3239, V-B:TYR:484:CZ:9319, H-A:GLY:454:N:4050, H-A:ARG:545:NE:4924, V-A:ILE:369:CB:3236, H-A:ARG:545:NH1:4927, H-A:ARG:545:NH2:4928, V-B:PRO:540:N:9856"]

$$$$
2g_Grossjean_2025
     RDKit          3D

 39 40  0  0  0  0  0  0  0  0999 V2000
  129.0570  132.8220   60.7170 C   0  0  0  0  0  0  0  0  0  0  0  0
  127.8930  132.1600   61.4300 C   0  0  0  0  0  0  0  0  0  0  0  0
  126.5880  132.6230   61.2810 C   0  0  0  0  0  0  0  0  0  0  0  0
  125.5460  131.9820   61.9680 C   0  0  0  0  0  0  0  0  0  0  0  0
  124.1100  132.5140   61.7980 C   0  0  0  0  0  0  0  0  0  0  0  0
  123.2690  131.5070   61.5540 F   0  0  0  0  0  0  0  0  0  0  0  0
  123.7250  133.1390   62.9110 F   0  0  0  0  0  0  0  0  0  0  0  0
  123.9960  133.3800   60.7890 F   0  0  0  0  0  0  0  0  0  0  0  0
  125.8590  130.8690   62.7900 C   0  0  0  0  0  0  0  0  0  0  0  0
  124.8170  130.1990   63.5730 C   0  0  0  0  0  0  0  0  0  0  0  0
  123.9940  129.6710   64.1900 N   0  0  0  0  0  0  0  0  0  0  0  0
  127.2100  130.4500   62.8570 C   0  0  0  0  0  0  0  0  0  0  0  0
  127.7730  129.0620   63.8180 S   0  0  0  0  0  0  0  0  0  0  0  0
  127.0800  129.2400   65.4960 C   0  0  0  0  0  0  0  0  0  0  0  0
  128.1220  129.2580   66.6230 C   0  0  0  0  0  0  0  0  0  0  0  0
  128.2790  130.2500   67.3370 O   0  0  0  0  0  0  0  0  0  0  0  0
  128.8410  128.1290   66.7630 N   0  0  0  0  0  0  0  0  0  0  0  0
  129.8830  127.9040   67.7660 C   0  0  0  0  0  0  0  0  0  0  0  0
  129.3540  127.5690   69.1570 C   0  0  0  0  0  0  0  0  0  0  0  0
  128.2500  126.7230   69.2960 C   0  0  0  0  0  0  0  0  0  0  0  0
  127.7890  126.3850   70.5660 C   0  0  0  0  0  0  0  0  0  0  0  0
  128.4390  126.8860   71.6920 C   0  0  0  0  0  0  0  0  0  0  0  0
  129.5480  127.7190   71.5600 C   0  0  0  0  0  0  0  0  0  0  0  0
  130.0100  128.0570   70.2910 C   0  0  0  0  0  0  0  0  0  0  0  0
  128.2080  131.0970   62.2040 N   0  0  0  0  0  0  0  0  0  0  0  0
  129.7620  133.2230   61.4601 H   0  0  0  0  0  0  0  0  0  0  0  0
  129.5705  132.0808   60.0870 H   0  0  0  0  0  0  0  0  0  0  0  0
  128.6825  133.6422   60.0870 H   0  0  0  0  0  0  0  0  0  0  0  0
  126.3760  133.4841   60.6301 H   0  0  0  0  0  0  0  0  0  0  0  0
  126.5166  130.1840   65.5354 H   0  0  0  0  0  0  0  0  0  0  0  0
  126.4524  128.3532   65.6680 H   0  0  0  0  0  0  0  0  0  0  0  0
  128.6360  127.3500   66.1540 H   0  0  0  0  0  0  0  0  0  0  0  0
  130.5130  127.0686   67.4267 H   0  0  0  0  0  0  0  0  0  0  0  0
  130.4391  128.8485   67.8597 H   0  0  0  0  0  0  0  0  0  0  0  0
  127.7458  126.3246   68.4032 H   0  0  0  0  0  0  0  0  0  0  0  0
  126.9159  125.7256   70.6796 H   0  0  0  0  0  0  0  0  0  0  0  0
  128.0730  126.6213   72.6950 H   0  0  0  0  0  0  0  0  0  0  0  0
  130.0563  128.1079   72.4546 H   0  0  0  0  0  0  0  0  0  0  0  0
  130.8903  128.7073   70.1807 H   0  0  0  0  0  0  0  0  0  0  0  0
  1  2  1  0
  2  3  2  0
  3  4  1  0
  4  5  1  0
  5  6  1  0
  5  7  1  0
  5  8  1  0
  4  9  2  0
  9 10  1  0
 10 11  3  0
  9 12  1  0
 12 13  1  0
 13 14  1  0
 14 15  1  0
 15 16  2  0
 15 17  1  0
 17 18  1  0
 18 19  1  0
 19 20  2  0
 20 21  1  0
 21 22  2  0
 22 23  1  0
 23 24  2  0
 12 25  2  0
 25  2  1  0
 24 19  1  0
  1 26  1  0
  1 27  1  0
  1 28  1  0
  3 29  1  0
 14 30  1  0
 14 31  1  0
 17 32  1  0
 18 33  1  0
 18 34  1  0
 20 35  1  0
 21 36  1  0
 22 37  1  0
 23 38  1  0
 24 39  1  0
M  END
>  <Binding energies>  (1) 
[-6.49]

>  <Ligand effiencies>  (1) 
[-0.24961538461538463]

>  <Interactions>  (1) 
["H-B:GLU:543:OE2:9882, H-A:GLU:543:OE2:4910, V-A:GLU:543:CD:4908, V-B:ILE:369:CD1:8211, V-A:PRO:540:CA:4883, V-A:ALA:541:CB:4892, V-A:GLU:543:CG:4907, V-B:ILE:369:CG2:8209, V-A:PRO:540:C:4881, V-B:LEU:475:CD2:9231, H-B:GLY:454:N:9022, V-B:GLY:453:C:9014, H-B:TYR:484:OH:9320, V-B:GLY:454:CA:9021, H-B:ARG:545:NH1:9899, V-B:HIS:456:CE1:9042, V-B:HIS:456:CD2:9040, V-A:HIS:456:CD2:4068, V-B:GLY:544:C:9884, V-B:GLU:543:CB:9878, V-B:TYR:484:CZ:9319, H-B:ARG:545:NH2:9900, V-A:HIS:456:CE1:4070, V-A:GLU:543:CB:4906, V-B:GLU:543:C:9874"]

$$$$
2h_Grossjean_2025
     RDKit          3D

 51 52  0  0  0  0  0  0  0  0999 V2000
  131.8290  131.5960   57.3800 C   0  0  0  0  0  0  0  0  0  0  0  0
  130.9160  130.8710   58.1960 O   0  0  0  0  0  0  0  0  0  0  0  0
  129.7610  131.4900   58.6390 C   0  0  0  0  0  0  0  0  0  0  0  0
  128.6000  131.6280   57.8620 C   0  0  0  0  0  0  0  0  0  0  0  0
  127.4700  132.2580   58.3790 C   0  0  0  0  0  0  0  0  0  0  0  0
  127.4750  132.7640   59.6800 C   0  0  0  0  0  0  0  0  0  0  0  0
  126.2170  133.4330   60.2330 C   0  0  0  0  0  0  0  0  0  0  0  0
  125.4660  132.5920   61.1650 N   0  0  0  0  0  0  0  0  0  0  0  0
  124.1400  132.3780   61.1130 C   0  0  0  0  0  0  0  0  0  0  0  0
  123.3960  132.9440   60.3100 O   0  0  0  0  0  0  0  0  0  0  0  0
  123.5920  131.3620   62.1260 C   0  0  0  0  0  0  0  0  0  0  0  0
  124.4970  129.7800   62.1970 S   0  0  0  0  0  0  0  0  0  0  0  0
  124.9500  129.5230   63.8980 C   0  0  0  0  0  0  0  0  0  0  0  0
  123.9070  129.6140   64.7600 N   0  0  0  0  0  0  0  0  0  0  0  0
  124.1430  129.4530   66.0810 C   0  0  0  0  0  0  0  0  0  0  0  0
  122.9310  129.5760   66.9860 C   0  0  0  0  0  0  0  0  0  0  0  0
  125.4120  129.1930   66.5930 C   0  0  0  0  0  0  0  0  0  0  0  0
  126.5000  129.0740   65.7150 C   0  0  0  0  0  0  0  0  0  0  0  0
  127.8950  128.7770   66.2990 C   0  0  0  0  0  0  0  0  0  0  0  0
  128.4980  129.9160   66.6390 F   0  0  0  0  0  0  0  0  0  0  0  0
  127.8450  128.0090   67.3900 F   0  0  0  0  0  0  0  0  0  0  0  0
  128.6440  128.1430   65.3960 F   0  0  0  0  0  0  0  0  0  0  0  0
  126.2680  129.2330   64.3250 C   0  0  0  0  0  0  0  0  0  0  0  0
  127.3590  129.0610   63.3620 C   0  0  0  0  0  0  0  0  0  0  0  0
  128.2210  128.9210   62.6030 N   0  0  0  0  0  0  0  0  0  0  0  0
  128.6360  132.6550   60.4600 C   0  0  0  0  0  0  0  0  0  0  0  0
  128.6500  133.1530   61.7410 O   0  0  0  0  0  0  0  0  0  0  0  0
  128.3570  132.1920   62.7470 C   0  0  0  0  0  0  0  0  0  0  0  0
  129.7680  132.0020   59.9430 C   0  0  0  0  0  0  0  0  0  0  0  0
  130.9020  131.8760   60.7100 O   0  0  0  0  0  0  0  0  0  0  0  0
  131.2680  130.5320   60.9900 C   0  0  0  0  0  0  0  0  0  0  0  0
  132.5300  132.1526   58.0194 H   0  0  0  0  0  0  0  0  0  0  0  0
  132.3899  130.8945   56.7449 H   0  0  0  0  0  0  0  0  0  0  0  0
  131.2729  132.3013   56.7449 H   0  0  0  0  0  0  0  0  0  0  0  0
  128.5823  131.2348   56.8348 H   0  0  0  0  0  0  0  0  0  0  0  0
  126.5677  132.3574   57.7577 H   0  0  0  0  0  0  0  0  0  0  0  0
  126.5147  134.3529   60.7576 H   0  0  0  0  0  0  0  0  0  0  0  0
  125.5564  133.6338   59.3767 H   0  0  0  0  0  0  0  0  0  0  0  0
  126.0150  132.0660   61.8310 H   0  0  0  0  0  0  0  0  0  0  0  0
  123.6293  131.8217   63.1247 H   0  0  0  0  0  0  0  0  0  0  0  0
  122.5716  131.1180   61.7956 H   0  0  0  0  0  0  0  0  0  0  0  0
  123.2535  129.5433   68.0372 H   0  0  0  0  0  0  0  0  0  0  0  0
  122.4212  130.5305   66.7884 H   0  0  0  0  0  0  0  0  0  0  0  0
  122.2398  128.7434   66.7884 H   0  0  0  0  0  0  0  0  0  0  0  0
  125.5601  129.0818   67.6773 H   0  0  0  0  0  0  0  0  0  0  0  0
  128.4954  132.6461   63.7393 H   0  0  0  0  0  0  0  0  0  0  0  0
  127.3153  131.8551   62.6400 H   0  0  0  0  0  0  0  0  0  0  0  0
  129.0335  131.3313   62.6400 H   0  0  0  0  0  0  0  0  0  0  0  0
  131.3088  130.3824   62.0790 H   0  0  0  0  0  0  0  0  0  0  0  0
  130.5227  129.8506   60.5539 H   0  0  0  0  0  0  0  0  0  0  0  0
  132.2559  130.3225   60.5539 H   0  0  0  0  0  0  0  0  0  0  0  0
  1  2  1  0
  2  3  1  0
  3  4  2  0
  4  5  1  0
  5  6  2  0
  6  7  1  0
  7  8  1  0
  8  9  1  0
  9 10  2  0
  9 11  1  0
 11 12  1  0
 12 13  1  0
 13 14  2  0
 14 15  1  0
 15 16  1  0
 15 17  2  0
 17 18  1  0
 18 19  1  0
 19 20  1  0
 19 21  1  0
 19 22  1  0
 18 23  2  0
 23 24  1  0
 24 25  3  0
  6 26  1  0
 26 27  1  0
 27 28  1  0
 26 29  2  0
 29 30  1  0
 30 31  1  0
 29  3  1  0
 23 13  1  0
  1 32  1  0
  1 33  1  0
  1 34  1  0
  4 35  1  0
  5 36  1  0
  7 37  1  0
  7 38  1  0
  8 39  1  0
 11 40  1  0
 11 41  1  0
 16 42  1  0
 16 43  1  0
 16 44  1  0
 17 45  1  0
 28 46  1  0
 28 47  1  0
 28 48  1  0
 31 49  1  0
 31 50  1  0
 31 51  1  0
M  END
>  <Binding energies>  (1) 
[-5.74]

>  <Ligand effiencies>  (1) 
[-0.179375]

>  <Interactions>  (1) 
["V-B:GLU:543:CD:9880, V-A:GLU:543:CD:4908, V-B:ILE:369:CD1:8211, V-A:TYR:539:CE1:4875, V-A:PRO:540:CA:4883, V-A:ALA:541:CB:4892, V-A:TYR:539:CD1:4873, V-A:GLU:543:CG:4907, V-B:ARG:545:CZ:9898, H-A:ALA:541:N:4891, H-B:GLY:454:N:9022, H-B:ARG:545:NE:9896, V-B:GLY:453:C:9014, H-B:TYR:484:OH:9320, V-B:ILE:455:C:9024, V-B:GLY:454:CA:9021, V-B:GLY:453:CA:9016, V-B:ARG:545:CD:9895, H-B:ARG:545:NH1:9899, V-B:HIS:456:CE1:9042, V-B:ARG:545:CG:9894, V-B:ARG:545:CB:9893, V-A:PRO:540:CB:4885, V-B:TYR:484:CE1:9317, V-B:TYR:484:CZ:9319, H-B:ARG:545:NH2:9900, V-A:GLU:543:CB:4906, V-B:TYR:484:CE2:9318, V-A:GLU:543:CA:4904, V-A:PRO:540:N:4884"]

$$$$
2i_Grossjean_2025
     RDKit          3D

 32 33  0  0  0  0  0  0  0  0999 V2000
  129.4450  127.7330   72.7240 C   0  0  0  0  0  0  0  0  0  0  0  0
  130.5160  126.8940   73.3960 C   0  0  0  0  0  0  0  0  0  0  0  0
  131.8130  127.3700   73.5730 C   0  0  0  0  0  0  0  0  0  0  0  0
  132.7660  126.5560   74.2020 C   0  0  0  0  0  0  0  0  0  0  0  0
  134.1960  127.0980   74.3880 C   0  0  0  0  0  0  0  0  0  0  0  0
  134.9930  126.1340   74.8530 F   0  0  0  0  0  0  0  0  0  0  0  0
  134.6770  127.5320   73.2230 F   0  0  0  0  0  0  0  0  0  0  0  0
  134.2550  128.1170   75.2500 F   0  0  0  0  0  0  0  0  0  0  0  0
  132.3720  125.2670   74.6410 C   0  0  0  0  0  0  0  0  0  0  0  0
  133.3280  124.3750   75.3060 C   0  0  0  0  0  0  0  0  0  0  0  0
  134.0810  123.6710   75.8320 N   0  0  0  0  0  0  0  0  0  0  0  0
  131.0350  124.8630   74.4190 C   0  0  0  0  0  0  0  0  0  0  0  0
  130.4290  123.2600   74.9210 S   0  0  0  0  0  0  0  0  0  0  0  0
  130.4490  122.1680   73.4670 C   0  0  0  0  0  0  0  0  0  0  0  0
  129.0500  121.9440   72.8910 C   0  0  0  0  0  0  0  0  0  0  0  0
  128.3500  122.9210   72.6210 O   0  0  0  0  0  0  0  0  0  0  0  0
  128.6740  120.6550   72.7450 N   0  0  0  0  0  0  0  0  0  0  0  0
  127.4580  120.1970   72.2640 C   0  0  0  0  0  0  0  0  0  0  0  0
  126.2080  120.1220   72.8940 C   0  0  0  0  0  0  0  0  0  0  0  0
  125.3680  119.5920   71.9430 C   0  0  0  0  0  0  0  0  0  0  0  0
  126.0690  119.3690   70.8060 O   0  0  0  0  0  0  0  0  0  0  0  0
  127.3910  119.7630   71.0240 N   0  0  0  0  0  0  0  0  0  0  0  0
  130.1270  125.6670   73.8090 N   0  0  0  0  0  0  0  0  0  0  0  0
  128.8247  128.2190   73.4915 H   0  0  0  0  0  0  0  0  0  0  0  0
  129.9209  128.5011   72.0967 H   0  0  0  0  0  0  0  0  0  0  0  0
  128.8131  127.0871   72.0967 H   0  0  0  0  0  0  0  0  0  0  0  0
  132.0874  128.3759   73.2224 H   0  0  0  0  0  0  0  0  0  0  0  0
  131.0824  122.6231   72.6913 H   0  0  0  0  0  0  0  0  0  0  0  0
  130.8429  121.1913   73.7847 H   0  0  0  0  0  0  0  0  0  0  0  0
  129.3230  119.9400   73.0400 H   0  0  0  0  0  0  0  0  0  0  0  0
  125.9550  120.4210   73.9219 H   0  0  0  0  0  0  0  0  0  0  0  0
  124.2973  119.3826   72.0834 H   0  0  0  0  0  0  0  0  0  0  0  0
  1  2  1  0
  2  3  2  0
  3  4  1  0
  4  5  1  0
  5  6  1  0
  5  7  1  0
  5  8  1  0
  4  9  2  0
  9 10  1  0
 10 11  3  0
  9 12  1  0
 12 13  1  0
 13 14  1  0
 14 15  1  0
 15 16  2  0
 15 17  1  0
 17 18  1  0
 18 19  1  0
 19 20  2  0
 20 21  1  0
 21 22  1  0
 12 23  2  0
 23  2  1  0
 22 18  2  0
  1 24  1  0
  1 25  1  0
  1 26  1  0
  3 27  1  0
 14 28  1  0
 14 29  1  0
 17 30  1  0
 19 31  1  0
 20 32  1  0
M  END
>  <Binding energies>  (1) 
[-6.62]

>  <Ligand effiencies>  (1) 
[-0.2758333333333333]

>  <Interactions>  (1) 
["H-B:LYS:547:NZ:9923, V-A:VAL:458:CG2:4087, V-A:VAL:457:CA:4075, V-A:VAL:457:C:4073, V-B:HIS:456:CD2:9040, V-A:HIS:456:CB:4065, V-A:HIS:456:CD2:4068, V-A:HIS:456:C:4061, V-A:LYS:471:CD:4219, V-A:ASP:473:CG:4240, V-A:HIS:456:CG:4066, V-A:LYS:547:CG:4948, V-A:LYS:547:CB:4947, V-A:GLY:544:C:4912, V-A:LYS:547:CD:4949, V-A:HIS:456:CA:4063, V-A:ARG:545:C:4917, V-B:GLU:543:C:9874, V-B:LYS:547:CE:9922, V-A:ARG:545:CA:4919, V-A:TYR:484:CB:4341, V-A:ASP:473:CB:4239, H-A:TYR:484:N:4340, V-A:TYR:484:C:4337, H-B:GLY:544:N:9887, V-B:GLY:544:CA:9886, V-B:VAL:542:CG1:9871, H-A:TYR:484:O:4338, V-A:VAL:458:CB:4085, H-A:SER:483:OG:4334"]

$$$$
2j_Grossjean_2025
     RDKit          3D

 32 33  0  0  0  0  0  0  0  0999 V2000
  129.4580  127.7010   72.6540 C   0  0  0  0  0  0  0  0  0  0  0  0
  130.5240  126.8940   73.3700 C   0  0  0  0  0  0  0  0  0  0  0  0
  131.8040  127.4000   73.5810 C   0  0  0  0  0  0  0  0  0  0  0  0
  132.7550  126.6160   74.2520 C   0  0  0  0  0  0  0  0  0  0  0  0
  134.1660  127.1930   74.4780 C   0  0  0  0  0  0  0  0  0  0  0  0
  135.0040  126.2190   74.8370 F   0  0  0  0  0  0  0  0  0  0  0  0
  134.6140  127.7570   73.3550 F   0  0  0  0  0  0  0  0  0  0  0  0
  134.1960  128.1230   75.4340 F   0  0  0  0  0  0  0  0  0  0  0  0
  132.3760  125.3240   74.6940 C   0  0  0  0  0  0  0  0  0  0  0  0
  133.3280  124.4620   75.4000 C   0  0  0  0  0  0  0  0  0  0  0  0
  134.0810  123.7810   75.9580 N   0  0  0  0  0  0  0  0  0  0  0  0
  131.0540  124.8890   74.4370 C   0  0  0  0  0  0  0  0  0  0  0  0
  130.4660  123.2820   74.9500 S   0  0  0  0  0  0  0  0  0  0  0  0
  130.3950  122.2000   73.4810 C   0  0  0  0  0  0  0  0  0  0  0  0
  128.9820  121.9370   72.9410 C   0  0  0  0  0  0  0  0  0  0  0  0
  128.2340  122.8730   72.6510 O   0  0  0  0  0  0  0  0  0  0  0  0
  128.6510  120.6300   72.8320 N   0  0  0  0  0  0  0  0  0  0  0  0
  127.4460  120.1150   72.3730 C   0  0  0  0  0  0  0  0  0  0  0  0
  127.2160  119.4880   71.2400 N   0  0  0  0  0  0  0  0  0  0  0  0
  125.9510  119.1320   71.1300 C   0  0  0  0  0  0  0  0  0  0  0  0
  125.1210  119.4730   72.1940 C   0  0  0  0  0  0  0  0  0  0  0  0
  126.0600  120.3040   73.3980 S   0  0  0  0  0  0  0  0  0  0  0  0
  130.1480  125.6640   73.7880 N   0  0  0  0  0  0  0  0  0  0  0  0
  128.8099  128.1916   73.3952 H   0  0  0  0  0  0  0  0  0  0  0  0
  129.9376  128.4644   72.0238 H   0  0  0  0  0  0  0  0  0  0  0  0
  128.8534  127.0323   72.0238 H   0  0  0  0  0  0  0  0  0  0  0  0
  132.0677  128.4066   73.2244 H   0  0  0  0  0  0  0  0  0  0  0  0
  130.9847  122.6709   72.6807 H   0  0  0  0  0  0  0  0  0  0  0  0
  130.7918  121.2239   73.7967 H   0  0  0  0  0  0  0  0  0  0  0  0
  129.3430  119.9490   73.1100 H   0  0  0  0  0  0  0  0  0  0  0  0
  125.5731  118.5957   70.2471 H   0  0  0  0  0  0  0  0  0  0  0  0
  124.0455  119.2525   72.2620 H   0  0  0  0  0  0  0  0  0  0  0  0
  1  2  1  0
  2  3  2  0
  3  4  1  0
  4  5  1  0
  5  6  1  0
  5  7  1  0
  5  8  1  0
  4  9  2  0
  9 10  1  0
 10 11  3  0
  9 12  1  0
 12 13  1  0
 13 14  1  0
 14 15  1  0
 15 16  2  0
 15 17  1  0
 17 18  1  0
 18 19  2  0
 19 20  1  0
 20 21  2  0
 21 22  1  0
 12 23  2  0
 23  2  1  0
 22 18  1  0
  1 24  1  0
  1 25  1  0
  1 26  1  0
  3 27  1  0
 14 28  1  0
 14 29  1  0
 17 30  1  0
 20 31  1  0
 21 32  1  0
M  END
>  <Binding energies>  (1) 
[-6.66]

>  <Ligand effiencies>  (1) 
[-0.2775]

>  <Interactions>  (1) 
["H-B:LYS:547:NZ:9923, V-A:VAL:458:CG2:4087, V-A:VAL:457:CA:4075, V-A:VAL:457:C:4073, V-B:HIS:456:CD2:9040, V-A:HIS:456:CB:4065, V-A:HIS:456:CD2:4068, V-A:HIS:456:C:4061, V-A:LYS:471:CD:4219, V-A:ASP:473:CG:4240, V-A:HIS:456:CG:4066, V-A:LYS:547:CG:4948, V-A:LYS:547:CB:4947, V-A:GLY:544:C:4912, V-A:LYS:547:CD:4949, V-A:HIS:456:CA:4063, V-A:ARG:545:C:4917, V-B:GLU:543:C:9874, V-B:LYS:547:CE:9922, V-A:ILE:546:CA:4936, V-A:ARG:545:CA:4919, V-A:TYR:484:CB:4341, V-A:ASP:473:CB:4239, H-A:TYR:484:N:4340, V-A:TYR:484:C:4337, H-B:GLY:544:N:9887, V-B:GLY:544:CA:9886, V-B:VAL:542:CG1:9871, H-A:TYR:484:O:4338, V-A:VAL:458:CB:4085, H-A:SER:483:OG:4334, V-B:VAL:542:CB:9870, V-B:VAL:542:C:9866"]

$$$$
2k_Grossjean_2025
     RDKit          3D

 50 50  0  0  0  0  0  0  0  0999 V2000
  132.9900  122.1930   61.2200 C   0  0  0  0  0  0  0  0  0  0  0  0
  131.7550  121.8670   61.8390 O   0  0  0  0  0  0  0  0  0  0  0  0
  130.8740  121.1370   60.9950 C   0  0  0  0  0  0  0  0  0  0  0  0
  129.5200  120.9560   61.6920 C   0  0  0  0  0  0  0  0  0  0  0  0
  129.5000  121.7410   62.8750 O   0  0  0  0  0  0  0  0  0  0  0  0
  128.5430  122.7940   62.8620 C   0  0  0  0  0  0  0  0  0  0  0  0
  127.5280  122.5120   61.7460 C   0  0  0  0  0  0  0  0  0  0  0  0
  126.2400  122.8560   62.2330 O   0  0  0  0  0  0  0  0  0  0  0  0
  125.4810  123.7060   61.3860 C   0  0  0  0  0  0  0  0  0  0  0  0
  126.4240  124.7350   60.7370 C   0  0  0  0  0  0  0  0  0  0  0  0
  126.9880  125.6830   61.7020 N   0  0  0  0  0  0  0  0  0  0  0  0
  128.2540  126.1410   61.7030 C   0  0  0  0  0  0  0  0  0  0  0  0
  129.0900  125.8250   60.8530 O   0  0  0  0  0  0  0  0  0  0  0  0
  128.6210  127.0840   62.8580 C   0  0  0  0  0  0  0  0  0  0  0  0
  127.2520  128.1120   63.4940 S   0  0  0  0  0  0  0  0  0  0  0  0
  126.3160  128.7700   62.1200 C   0  0  0  0  0  0  0  0  0  0  0  0
  126.8200  128.5120   60.8870 N   0  0  0  0  0  0  0  0  0  0  0  0
  126.1660  128.9830   59.8020 C   0  0  0  0  0  0  0  0  0  0  0  0
  126.7990  128.6640   58.4620 C   0  0  0  0  0  0  0  0  0  0  0  0
  124.9850  129.7140   59.8960 C   0  0  0  0  0  0  0  0  0  0  0  0
  124.4400  129.9850   61.1610 C   0  0  0  0  0  0  0  0  0  0  0  0
  123.1300  130.7910   61.2470 C   0  0  0  0  0  0  0  0  0  0  0  0
  122.1870  130.1700   61.9570 F   0  0  0  0  0  0  0  0  0  0  0  0
  123.3560  131.9710   61.8260 F   0  0  0  0  0  0  0  0  0  0  0  0
  122.6400  130.9970   60.0240 F   0  0  0  0  0  0  0  0  0  0  0  0
  125.1210  129.5040   62.3080 C   0  0  0  0  0  0  0  0  0  0  0  0
  124.5990  129.7610   63.6540 C   0  0  0  0  0  0  0  0  0  0  0  0
  124.1860  129.9630   64.7170 N   0  0  0  0  0  0  0  0  0  0  0  0
  133.7463  122.3926   61.9934 H   0  0  0  0  0  0  0  0  0  0  0  0
  133.3196  121.3511   60.5935 H   0  0  0  0  0  0  0  0  0  0  0  0
  132.8612  123.0879   60.5935 H   0  0  0  0  0  0  0  0  0  0  0  0
  130.7297  121.6877   60.0537 H   0  0  0  0  0  0  0  0  0  0  0  0
  131.3088  120.1491   60.7828 H   0  0  0  0  0  0  0  0  0  0  0  0
  128.7127  121.2818   61.0196 H   0  0  0  0  0  0  0  0  0  0  0  0
  129.3722  119.8962   61.9469 H   0  0  0  0  0  0  0  0  0  0  0  0
  128.0260  122.8382   63.8319 H   0  0  0  0  0  0  0  0  0  0  0  0
  129.0432  123.7573   62.6835 H   0  0  0  0  0  0  0  0  0  0  0  0
  127.7675  123.1190   60.8604 H   0  0  0  0  0  0  0  0  0  0  0  0
  127.5588  121.4508   61.4582 H   0  0  0  0  0  0  0  0  0  0  0  0
  124.9933  123.1069   60.6030 H   0  0  0  0  0  0  0  0  0  0  0  0
  124.7103  124.2259   61.9740 H   0  0  0  0  0  0  0  0  0  0  0  0
  127.2506  124.1956   60.2513 H   0  0  0  0  0  0  0  0  0  0  0  0
  125.8312  125.3147   60.0141 H   0  0  0  0  0  0  0  0  0  0  0  0
  126.3620  126.0050   62.4260 H   0  0  0  0  0  0  0  0  0  0  0  0
  129.0000  126.4713   63.6892 H   0  0  0  0  0  0  0  0  0  0  0  0
  129.3643  127.7860   62.4521 H   0  0  0  0  0  0  0  0  0  0  0  0
  127.7708  128.1743   58.6228 H   0  0  0  0  0  0  0  0  0  0  0  0
  126.1386  127.9911   57.8954 H   0  0  0  0  0  0  0  0  0  0  0  0
  126.9470  129.5952   57.8954 H   0  0  0  0  0  0  0  0  0  0  0  0
  124.4831  130.0762   58.9867 H   0  0  0  0  0  0  0  0  0  0  0  0
  1  2  1  0
  2  3  1  0
  3  4  1  0
  4  5  1  0
  5  6  1  0
  6  7  1  0
  7  8  1  0
  8  9  1  0
  9 10  1  0
 10 11  1  0
 11 12  1  0
 12 13  2  0
 12 14  1  0
 14 15  1  0
 15 16  1  0
 16 17  2  0
 17 18  1  0
 18 19  1  0
 18 20  2  0
 20 21  1  0
 21 22  1  0
 22 23  1  0
 22 24  1  0
 22 25  1  0
 21 26  2  0
 26 27  1  0
 27 28  3  0
 26 16  1  0
  1 29  1  0
  1 30  1  0
  1 31  1  0
  3 32  1  0
  3 33  1  0
  4 34  1  0
  4 35  1  0
  6 36  1  0
  6 37  1  0
  7 38  1  0
  7 39  1  0
  9 40  1  0
  9 41  1  0
 10 42  1  0
 10 43  1  0
 11 44  1  0
 14 45  1  0
 14 46  1  0
 19 47  1  0
 19 48  1  0
 19 49  1  0
 20 50  1  0
M  END
>  <Binding energies>  (1) 
[-5.05]

>  <Ligand effiencies>  (1) 
[-0.17413793103448275]

>  <Interactions>  (1) 
["V-B:ALA:541:CB:9864, V-B:TYR:539:CD2:9846, V-B:GLU:543:CG:9879, V-A:TYR:484:CZ:4347, H-B:GLU:543:OE2:9882, V-A:TYR:484:CE1:4345, V-A:LEU:475:CD2:4259, V-B:GLU:543:CD:9880, H-B:GLU:543:OE1:9881, V-B:TYR:539:CE2:9848, V-A:GLU:543:CD:4908, V-B:PRO:540:C:9853, V-B:PRO:540:CA:9855, H-A:TYR:484:OH:4348, V-B:ILE:369:CD1:8211, V-B:ILE:369:CG2:8209, V-B:ARG:545:CZ:9898, H-B:GLY:454:N:9022, V-B:GLY:453:C:9014, H-B:TYR:484:OH:9320, V-B:GLY:453:CA:9016, V-B:ASP:366:CG:8185, H-B:ALA:541:N:9863, V-B:ILE:369:CG1:8210, V-B:ILE:369:CB:8208, V-B:ASP:366:CA:8182, V-B:ASP:366:CB:8184, V-B:ASP:366:C:8180, H-B:ASP:366:OD2:8187, V-B:PRO:540:CB:9857"]

$$$$
3aa_Grossjean_2025
     RDKit          3D

 52 54  0  0  0  0  0  0  0  0999 V2000
  133.3100  126.9900   74.0820 C   0  0  0  0  0  0  0  0  0  0  0  0
  131.7860  126.8360   74.0990 C   0  0  0  0  0  0  0  0  0  0  0  0
  131.2160  127.6430   73.0760 O   0  0  0  0  0  0  0  0  0  0  0  0
  129.8920  127.5680   72.7830 C   0  0  0  0  0  0  0  0  0  0  0  0
  129.0100  127.4560   73.6400 O   0  0  0  0  0  0  0  0  0  0  0  0
  129.6070  127.6190   71.3090 C   0  0  0  0  0  0  0  0  0  0  0  0
  130.3500  128.4270   70.4350 C   0  0  0  0  0  0  0  0  0  0  0  0
  130.0620  128.4470   69.0730 C   0  0  0  0  0  0  0  0  0  0  0  0
  129.0330  127.6580   68.5560 C   0  0  0  0  0  0  0  0  0  0  0  0
  128.8270  127.7490   67.1650 N   0  0  0  0  0  0  0  0  0  0  0  0
  128.4310  128.8050   66.4210 C   0  0  0  0  0  0  0  0  0  0  0  0
  128.1450  129.9200   66.8590 O   0  0  0  0  0  0  0  0  0  0  0  0
  128.3280  128.5500   64.9170 C   0  0  0  0  0  0  0  0  0  0  0  0
  126.6820  128.9730   64.2710 S   0  0  0  0  0  0  0  0  0  0  0  0
  126.9280  130.0960   62.9130 C   0  0  0  0  0  0  0  0  0  0  0  0
  128.2270  130.2470   62.5610 N   0  0  0  0  0  0  0  0  0  0  0  0
  128.5560  131.0790   61.5390 C   0  0  0  0  0  0  0  0  0  0  0  0
  130.0130  131.1800   61.2010 C   0  0  0  0  0  0  0  0  0  0  0  0
  130.4610  130.9440   59.8910 C   0  0  0  0  0  0  0  0  0  0  0  0
  131.8120  131.0380   59.5690 C   0  0  0  0  0  0  0  0  0  0  0  0
  132.7350  131.3700   60.5550 C   0  0  0  0  0  0  0  0  0  0  0  0
  132.3170  131.6110   61.8590 C   0  0  0  0  0  0  0  0  0  0  0  0
  130.9640  131.5190   62.1780 C   0  0  0  0  0  0  0  0  0  0  0  0
  127.5690  131.7780   60.8360 C   0  0  0  0  0  0  0  0  0  0  0  0
  126.2180  131.6510   61.1940 C   0  0  0  0  0  0  0  0  0  0  0  0
  125.1630  132.4470   60.4030 C   0  0  0  0  0  0  0  0  0  0  0  0
  124.3400  131.6630   59.7040 F   0  0  0  0  0  0  0  0  0  0  0  0
  124.4120  133.1690   61.2360 F   0  0  0  0  0  0  0  0  0  0  0  0
  125.7640  133.2680   59.5420 F   0  0  0  0  0  0  0  0  0  0  0  0
  125.8820  130.7960   62.2710 C   0  0  0  0  0  0  0  0  0  0  0  0
  124.4940  130.6690   62.7250 C   0  0  0  0  0  0  0  0  0  0  0  0
  123.3980  130.5690   63.0850 N   0  0  0  0  0  0  0  0  0  0  0  0
  128.2770  126.8570   69.4260 C   0  0  0  0  0  0  0  0  0  0  0  0
  128.5660  126.8400   70.7860 C   0  0  0  0  0  0  0  0  0  0  0  0
  133.6862  127.0280   75.1150 H   0  0  0  0  0  0  0  0  0  0  0  0
  133.7594  126.1327   73.5594 H   0  0  0  0  0  0  0  0  0  0  0  0
  133.5788  127.9199   73.5594 H   0  0  0  0  0  0  0  0  0  0  0  0
  131.5221  125.7825   73.9246 H   0  0  0  0  0  0  0  0  0  0  0  0
  131.3964  127.1548   75.0770 H   0  0  0  0  0  0  0  0  0  0  0  0
  131.1667  129.0497   70.8291 H   0  0  0  0  0  0  0  0  0  0  0  0
  130.6492  129.0888   68.3998 H   0  0  0  0  0  0  0  0  0  0  0  0
  128.9530  126.8780   66.6700 H   0  0  0  0  0  0  0  0  0  0  0  0
  129.0815  129.1621   64.3998 H   0  0  0  0  0  0  0  0  0  0  0  0
  128.4995  127.4780   64.7396 H   0  0  0  0  0  0  0  0  0  0  0  0
  129.7340  130.6812   59.1084 H   0  0  0  0  0  0  0  0  0  0  0  0
  132.1483  130.8504   58.5386 H   0  0  0  0  0  0  0  0  0  0  0  0
  133.8029  131.4424   60.3015 H   0  0  0  0  0  0  0  0  0  0  0  0
  133.0512  131.8731   62.6351 H   0  0  0  0  0  0  0  0  0  0  0  0
  130.6356  131.7146   63.2095 H   0  0  0  0  0  0  0  0  0  0  0  0
  127.8535  132.4310   59.9977 H   0  0  0  0  0  0  0  0  0  0  0  0
  127.4548  126.2419   69.0314 H   0  0  0  0  0  0  0  0  0  0  0  0
  127.9700  126.2071   71.4599 H   0  0  0  0  0  0  0  0  0  0  0  0
  1  2  1  0
  2  3  1  0
  3  4  1  0
  4  5  2  0
  4  6  1  0
  6  7  2  0
  7  8  1  0
  8  9  2  0
  9 10  1  0
 10 11  1  0
 11 12  2  0
 11 13  1  0
 13 14  1  0
 14 15  1  0
 15 16  2  0
 16 17  1  0
 17 18  1  0
 18 19  2  0
 19 20  1  0
 20 21  2  0
 21 22  1  0
 22 23  2  0
 17 24  2  0
 24 25  1  0
 25 26  1  0
 26 27  1  0
 26 28  1  0
 26 29  1  0
 25 30  2  0
 30 31  1  0
 31 32  3  0
  9 33  1  0
 33 34  2  0
 34  6  1  0
 30 15  1  0
 23 18  1  0
  1 35  1  0
  1 36  1  0
  1 37  1  0
  2 38  1  0
  2 39  1  0
  7 40  1  0
  8 41  1  0
 10 42  1  0
 13 43  1  0
 13 44  1  0
 19 45  1  0
 20 46  1  0
 21 47  1  0
 22 48  1  0
 23 49  1  0
 24 50  1  0
 33 51  1  0
 34 52  1  0
M  END
>  <Binding energies>  (1) 
[-7.9]

>  <Ligand effiencies>  (1) 
[-0.22571428571428573]

>  <Interactions>  (1) 
["H-B:GLU:543:OE2:9882, V-B:GLU:543:CD:9880, H-A:GLU:543:OE2:4910, V-A:GLU:543:CD:4908, V-B:ILE:369:CD1:8211, V-A:TYR:539:CE1:4875, V-A:PRO:540:CA:4883, V-A:ALA:541:CB:4892, V-A:TYR:539:CD1:4873, V-A:GLU:543:CG:4907, V-B:LEU:475:CD2:9231, V-A:ALA:541:CA:4890, H-B:GLY:454:N:9022, H-B:TYR:484:OH:9320, V-A:ASN:362:CB:3176, V-B:HIS:456:CE1:9042, V-A:PRO:540:CB:4885, H-B:LYS:547:NZ:9923, V-B:HIS:456:CD2:9040, V-A:HIS:456:CB:4065, V-A:HIS:456:CD2:4068, V-A:HIS:456:CG:4066, V-A:GLY:544:C:4912, V-B:GLU:543:CB:9878, V-A:HIS:456:CE1:4070, V-A:ALA:541:C:4888, V-A:GLU:543:CB:4906, V-A:GLU:543:CA:4904, V-A:GLU:543:C:4902, V-A:GLY:544:CA:4914"]

$$$$
3ab_Grossjean_2025
     RDKit          3D

 49 51  0  0  0  0  0  0  0  0999 V2000
  130.8810  125.7040   74.1940 C   0  0  0  0  0  0  0  0  0  0  0  0
  129.7550  126.0920   73.4180 O   0  0  0  0  0  0  0  0  0  0  0  0
  129.6460  127.3530   72.9290 C   0  0  0  0  0  0  0  0  0  0  0  0
  129.7700  128.3660   73.6230 O   0  0  0  0  0  0  0  0  0  0  0  0
  129.3620  127.3950   71.4550 C   0  0  0  0  0  0  0  0  0  0  0  0
  128.3390  126.6310   70.8730 C   0  0  0  0  0  0  0  0  0  0  0  0
  128.0980  126.6900   69.5030 C   0  0  0  0  0  0  0  0  0  0  0  0
  128.8820  127.5190   68.6860 C   0  0  0  0  0  0  0  0  0  0  0  0
  128.7240  127.6620   67.2940 N   0  0  0  0  0  0  0  0  0  0  0  0
  128.4430  128.7600   66.5620 C   0  0  0  0  0  0  0  0  0  0  0  0
  128.2530  129.8900   67.0120 O   0  0  0  0  0  0  0  0  0  0  0  0
  128.3610  128.5370   65.0500 C   0  0  0  0  0  0  0  0  0  0  0  0
  126.6990  128.8760   64.3980 S   0  0  0  0  0  0  0  0  0  0  0  0
  126.8850  129.9600   62.9970 C   0  0  0  0  0  0  0  0  0  0  0  0
  128.1730  130.1400   62.6190 N   0  0  0  0  0  0  0  0  0  0  0  0
  128.4620  130.9390   61.5600 C   0  0  0  0  0  0  0  0  0  0  0  0
  129.9120  131.0830   61.2050 C   0  0  0  0  0  0  0  0  0  0  0  0
  130.8490  131.5000   62.1640 C   0  0  0  0  0  0  0  0  0  0  0  0
  132.1960  131.6350   61.8400 C   0  0  0  0  0  0  0  0  0  0  0  0
  132.6270  131.3550   60.5470 C   0  0  0  0  0  0  0  0  0  0  0  0
  131.7190  130.9440   59.5760 C   0  0  0  0  0  0  0  0  0  0  0  0
  130.3730  130.8110   59.9050 C   0  0  0  0  0  0  0  0  0  0  0  0
  127.4440  131.6000   60.8630 C   0  0  0  0  0  0  0  0  0  0  0  0
  126.1040  131.4450   61.2470 C   0  0  0  0  0  0  0  0  0  0  0  0
  125.0140  132.1940   60.4570 C   0  0  0  0  0  0  0  0  0  0  0  0
  125.5150  132.9730   59.4950 F   0  0  0  0  0  0  0  0  0  0  0  0
  124.1870  131.3250   59.8760 F   0  0  0  0  0  0  0  0  0  0  0  0
  124.3110  132.9750   61.2800 F   0  0  0  0  0  0  0  0  0  0  0  0
  125.8080  130.6080   62.3520 C   0  0  0  0  0  0  0  0  0  0  0  0
  124.4310  130.4570   62.8300 C   0  0  0  0  0  0  0  0  0  0  0  0
  123.3430  130.3390   63.2050 N   0  0  0  0  0  0  0  0  0  0  0  0
  129.8970  128.2850   69.2620 C   0  0  0  0  0  0  0  0  0  0  0  0
  130.1370  128.2220   70.6320 C   0  0  0  0  0  0  0  0  0  0  0  0
  130.6362  125.7884   75.2631 H   0  0  0  0  0  0  0  0  0  0  0  0
  131.1465  124.6625   73.9597 H   0  0  0  0  0  0  0  0  0  0  0  0
  131.7317  126.3608   73.9597 H   0  0  0  0  0  0  0  0  0  0  0  0
  127.7204  125.9781   71.5063 H   0  0  0  0  0  0  0  0  0  0  0  0
  127.2921  126.0861   69.0605 H   0  0  0  0  0  0  0  0  0  0  0  0
  128.8030  126.7950   66.7820 H   0  0  0  0  0  0  0  0  0  0  0  0
  129.0799  129.2053   64.5534 H   0  0  0  0  0  0  0  0  0  0  0  0
  128.5942  127.4807   64.8503 H   0  0  0  0  0  0  0  0  0  0  0  0
  130.5133  131.7235   63.1874 H   0  0  0  0  0  0  0  0  0  0  0  0
  132.9172  131.9619   62.6035 H   0  0  0  0  0  0  0  0  0  0  0  0
  133.6917  131.4591   60.2909 H   0  0  0  0  0  0  0  0  0  0  0  0
  132.0629  130.7254   58.5543 H   0  0  0  0  0  0  0  0  0  0  0  0
  129.6577  130.4875   59.1345 H   0  0  0  0  0  0  0  0  0  0  0  0
  127.6965  132.2452   60.0086 H   0  0  0  0  0  0  0  0  0  0  0  0
  130.5112  128.9427   68.6294 H   0  0  0  0  0  0  0  0  0  0  0  0
  130.9430  128.8275   71.0723 H   0  0  0  0  0  0  0  0  0  0  0  0
  1  2  1  0
  2  3  1  0
  3  4  2  0
  3  5  1  0
  5  6  2  0
  6  7  1  0
  7  8  2  0
  8  9  1  0
  9 10  1  0
 10 11  2  0
 10 12  1  0
 12 13  1  0
 13 14  1  0
 14 15  2  0
 15 16  1  0
 16 17  1  0
 17 18  2  0
 18 19  1  0
 19 20  2  0
 20 21  1  0
 21 22  2  0
 16 23  2  0
 23 24  1  0
 24 25  1  0
 25 26  1  0
 25 27  1  0
 25 28  1  0
 24 29  2  0
 29 30  1  0
 30 31  3  0
  8 32  1  0
 32 33  2  0
 33  5  1  0
 29 14  1  0
 22 17  1  0
  1 34  1  0
  1 35  1  0
  1 36  1  0
  6 37  1  0
  7 38  1  0
  9 39  1  0
 12 40  1  0
 12 41  1  0
 18 42  1  0
 19 43  1  0
 20 44  1  0
 21 45  1  0
 22 46  1  0
 23 47  1  0
 32 48  1  0
 33 49  1  0
M  END
>  <Binding energies>  (1) 
[-7.79]

>  <Ligand effiencies>  (1) 
[-0.22911764705882354]

>  <Interactions>  (1) 
["H-B:GLU:543:OE2:9882, V-B:GLU:543:CD:9880, H-A:GLU:543:OE2:4910, V-A:GLU:543:CD:4908, V-B:ILE:369:CD1:8211, V-A:TYR:539:CE1:4875, V-A:PRO:540:CA:4883, V-A:ALA:541:CB:4892, V-A:TYR:539:CD1:4873, V-A:GLU:543:CG:4907, V-B:LEU:475:CD2:9231, V-A:ALA:541:CA:4890, H-B:GLY:454:N:9022, H-B:TYR:484:OH:9320, V-A:ASN:362:CB:3176, H-B:ARG:545:NH1:9899, V-B:HIS:456:CE1:9042, V-A:PRO:540:CB:4885, H-B:LYS:547:NZ:9923, H-A:LYS:547:NZ:4951, V-B:HIS:456:CD2:9040, V-A:HIS:456:CB:4065, V-A:HIS:456:CD2:4068, V-A:HIS:456:CG:4066, V-A:GLY:544:C:4912, V-B:GLU:543:CB:9878, V-A:HIS:456:CE1:4070, V-A:ALA:541:C:4888, V-A:GLU:543:CB:4906, V-A:GLU:543:C:4902"]

$$$$
3ac_Grossjean_2025
     RDKit          3D

 47 49  0  0  0  0  0  0  0  0999 V2000
  130.4460  127.1300   73.3500 C   0  0  0  0  0  0  0  0  0  0  0  0
  129.2090  127.0540   72.6480 O   0  0  0  0  0  0  0  0  0  0  0  0
  129.1900  127.2890   71.2870 C   0  0  0  0  0  0  0  0  0  0  0  0
  128.2220  126.6060   70.5510 C   0  0  0  0  0  0  0  0  0  0  0  0
  128.1240  126.7830   69.1740 C   0  0  0  0  0  0  0  0  0  0  0  0
  129.0010  127.6400   68.5100 C   0  0  0  0  0  0  0  0  0  0  0  0
  128.8110  127.7690   67.1210 N   0  0  0  0  0  0  0  0  0  0  0  0
  128.4120  128.8480   66.4130 C   0  0  0  0  0  0  0  0  0  0  0  0
  128.1790  129.9620   66.8840 O   0  0  0  0  0  0  0  0  0  0  0  0
  128.2540  128.6270   64.9080 C   0  0  0  0  0  0  0  0  0  0  0  0
  126.5400  128.8790   64.3530 S   0  0  0  0  0  0  0  0  0  0  0  0
  126.5610  129.8370   62.8500 C   0  0  0  0  0  0  0  0  0  0  0  0
  127.8130  130.0780   62.3890 N   0  0  0  0  0  0  0  0  0  0  0  0
  127.9880  130.7920   61.2470 C   0  0  0  0  0  0  0  0  0  0  0  0
  129.4040  131.0200   60.8100 C   0  0  0  0  0  0  0  0  0  0  0  0
  130.4090  131.3050   61.7500 C   0  0  0  0  0  0  0  0  0  0  0  0
  131.7260  131.5120   61.3510 C   0  0  0  0  0  0  0  0  0  0  0  0
  132.0580  131.4400   60.0020 C   0  0  0  0  0  0  0  0  0  0  0  0
  131.0820  131.1650   59.0510 C   0  0  0  0  0  0  0  0  0  0  0  0
  129.7660  130.9590   59.4540 C   0  0  0  0  0  0  0  0  0  0  0  0
  126.8900  131.3000   60.5450 C   0  0  0  0  0  0  0  0  0  0  0  0
  125.5860  131.0840   61.0120 C   0  0  0  0  0  0  0  0  0  0  0  0
  124.4060  131.6660   60.2090 C   0  0  0  0  0  0  0  0  0  0  0  0
  124.7910  132.2580   59.0770 F   0  0  0  0  0  0  0  0  0  0  0  0
  123.5490  130.6980   59.8790 F   0  0  0  0  0  0  0  0  0  0  0  0
  123.7660  132.5770   60.9430 F   0  0  0  0  0  0  0  0  0  0  0  0
  125.4080  130.3430   62.2070 C   0  0  0  0  0  0  0  0  0  0  0  0
  124.0710  130.1580   62.7750 C   0  0  0  0  0  0  0  0  0  0  0  0
  123.0140  130.0120   63.2230 N   0  0  0  0  0  0  0  0  0  0  0  0
  129.9740  128.3370   69.2440 C   0  0  0  0  0  0  0  0  0  0  0  0
  130.0690  128.1590   70.6220 C   0  0  0  0  0  0  0  0  0  0  0  0
  130.2543  127.1182   74.4331 H   0  0  0  0  0  0  0  0  0  0  0  0
  131.0746  126.2688   73.0795 H   0  0  0  0  0  0  0  0  0  0  0  0
  130.9645  128.0617   73.0795 H   0  0  0  0  0  0  0  0  0  0  0  0
  127.5300  125.9214   71.0633 H   0  0  0  0  0  0  0  0  0  0  0  0
  127.3509  126.2442   68.6066 H   0  0  0  0  0  0  0  0  0  0  0  0
  129.0560  126.9480   66.5880 H   0  0  0  0  0  0  0  0  0  0  0  0
  128.9065  129.3347   64.3756 H   0  0  0  0  0  0  0  0  0  0  0  0
  128.5304  127.5851   64.6887 H   0  0  0  0  0  0  0  0  0  0  0  0
  130.1507  131.3654   62.8175 H   0  0  0  0  0  0  0  0  0  0  0  0
  132.5016  131.7317   62.0995 H   0  0  0  0  0  0  0  0  0  0  0  0
  133.0991  131.6016   59.6859 H   0  0  0  0  0  0  0  0  0  0  0  0
  131.3486  131.1105   57.9852 H   0  0  0  0  0  0  0  0  0  0  0  0
  128.9962  130.7448   58.6980 H   0  0  0  0  0  0  0  0  0  0  0  0
  127.0509  131.8730   59.6199 H   0  0  0  0  0  0  0  0  0  0  0  0
  130.6620  129.0244   68.7301 H   0  0  0  0  0  0  0  0  0  0  0  0
  130.8365  128.7027   71.1924 H   0  0  0  0  0  0  0  0  0  0  0  0
  1  2  1  0
  2  3  1  0
  3  4  2  0
  4  5  1  0
  5  6  2  0
  6  7  1  0
  7  8  1  0
  8  9  2  0
  8 10  1  0
 10 11  1  0
 11 12  1  0
 12 13  2  0
 13 14  1  0
 14 15  1  0
 15 16  2  0
 16 17  1  0
 17 18  2  0
 18 19  1  0
 19 20  2  0
 14 21  2  0
 21 22  1  0
 22 23  1  0
 23 24  1  0
 23 25  1  0
 23 26  1  0
 22 27  2  0
 27 28  1  0
 28 29  3  0
  6 30  1  0
 30 31  2  0
 31  3  1  0
 27 12  1  0
 20 15  1  0
  1 32  1  0
  1 33  1  0
  1 34  1  0
  4 35  1  0
  5 36  1  0
  7 37  1  0
 10 38  1  0
 10 39  1  0
 16 40  1  0
 17 41  1  0
 18 42  1  0
 19 43  1  0
 20 44  1  0
 21 45  1  0
 30 46  1  0
 31 47  1  0
M  END
>  <Binding energies>  (1) 
[-7.11]

>  <Ligand effiencies>  (1) 
[-0.2221875]

>  <Interactions>  (1) 
["H-B:GLU:543:OE2:9882, V-B:GLU:543:CD:9880, H-A:GLU:543:OE2:4910, V-A:GLU:543:CD:4908, V-B:ILE:369:CD1:8211, V-A:TYR:539:CE1:4875, V-A:PRO:540:CA:4883, V-A:ALA:541:CB:4892, V-A:TYR:539:CD1:4873, V-A:GLU:543:CG:4907, V-B:ILE:369:CG2:8209, V-A:PRO:540:C:4881, H-B:GLY:454:N:9022, H-B:TYR:484:OH:9320, H-B:ARG:545:NH1:9899, V-B:HIS:456:CE1:9042, V-A:PRO:540:CB:4885, H-B:LYS:547:NZ:9923, V-B:HIS:456:CD2:9040, V-A:HIS:456:CD2:4068, V-A:GLY:544:C:4912, V-B:GLU:543:CB:9878, V-B:ASP:366:CG:8185, V-B:ASP:366:CA:8182, V-B:ASP:366:CB:8184, V-A:HIS:456:CE1:4070, V-A:GLU:543:CB:4906, V-A:TYR:539:CZ:4877, V-A:GLU:543:C:4902"]

$$$$
3ad_Grossjean_2025
     RDKit          3D

 43 45  0  0  0  0  0  0  0  0999 V2000
  123.7360  131.4230   75.9660 N   0  0  0  0  0  0  0  0  0  0  0  0
  124.6710  130.8650   75.5750 C   0  0  0  0  0  0  0  0  0  0  0  0
  125.8540  130.1540   75.0790 C   0  0  0  0  0  0  0  0  0  0  0  0
  125.7930  128.7730   74.7740 C   0  0  0  0  0  0  0  0  0  0  0  0
  124.4970  127.9490   74.8970 C   0  0  0  0  0  0  0  0  0  0  0  0
  124.7250  126.6440   75.0570 F   0  0  0  0  0  0  0  0  0  0  0  0
  123.7910  128.3670   75.9490 F   0  0  0  0  0  0  0  0  0  0  0  0
  123.7570  128.0920   73.7960 F   0  0  0  0  0  0  0  0  0  0  0  0
  126.9650  128.1290   74.3470 C   0  0  0  0  0  0  0  0  0  0  0  0
  128.1630  128.8430   74.2310 C   0  0  0  0  0  0  0  0  0  0  0  0
  129.4460  128.2010   73.7950 C   0  0  0  0  0  0  0  0  0  0  0  0
  129.8380  128.2260   72.4470 C   0  0  0  0  0  0  0  0  0  0  0  0
  131.0280  127.6330   72.0350 C   0  0  0  0  0  0  0  0  0  0  0  0
  131.8470  127.0070   72.9700 C   0  0  0  0  0  0  0  0  0  0  0  0
  131.4830  126.9720   74.3120 C   0  0  0  0  0  0  0  0  0  0  0  0
  130.2920  127.5660   74.7200 C   0  0  0  0  0  0  0  0  0  0  0  0
  128.2170  130.1650   74.5310 N   0  0  0  0  0  0  0  0  0  0  0  0
  127.0940  130.8130   74.9250 C   0  0  0  0  0  0  0  0  0  0  0  0
  127.3490  132.5410   75.2620 S   0  0  0  0  0  0  0  0  0  0  0  0
  127.4310  133.3970   73.6600 C   0  0  0  0  0  0  0  0  0  0  0  0
  128.8350  133.3530   73.0530 C   0  0  0  0  0  0  0  0  0  0  0  0
  129.2630  132.2870   72.6100 O   0  0  0  0  0  0  0  0  0  0  0  0
  129.5050  134.5260   73.0580 N   0  0  0  0  0  0  0  0  0  0  0  0
  130.7900  134.8320   72.5730 C   0  0  0  0  0  0  0  0  0  0  0  0
  130.8620  135.9130   71.6890 C   0  0  0  0  0  0  0  0  0  0  0  0
  132.0860  136.2970   71.1470 C   0  0  0  0  0  0  0  0  0  0  0  0
  133.2400  135.5970   71.4840 C   0  0  0  0  0  0  0  0  0  0  0  0
  133.1820  134.5140   72.3570 C   0  0  0  0  0  0  0  0  0  0  0  0
  131.9600  134.1260   72.9020 C   0  0  0  0  0  0  0  0  0  0  0  0
  126.9416  127.0569   74.1021 H   0  0  0  0  0  0  0  0  0  0  0  0
  129.1948  128.7218   71.7051 H   0  0  0  0  0  0  0  0  0  0  0  0
  131.3199  127.6591   70.9748 H   0  0  0  0  0  0  0  0  0  0  0  0
  132.7874  126.5373   72.6459 H   0  0  0  0  0  0  0  0  0  0  0  0
  132.1336  126.4769   75.0479 H   0  0  0  0  0  0  0  0  0  0  0  0
  130.0088  127.5379   75.7826 H   0  0  0  0  0  0  0  0  0  0  0  0
  126.7288  132.9146   72.9641 H   0  0  0  0  0  0  0  0  0  0  0  0
  127.1678  134.4520   73.8267 H   0  0  0  0  0  0  0  0  0  0  0  0
  129.0390  135.3010   73.5070 H   0  0  0  0  0  0  0  0  0  0  0  0
  129.9477  136.4626   71.4205 H   0  0  0  0  0  0  0  0  0  0  0  0
  132.1401  137.1505   70.4551 H   0  0  0  0  0  0  0  0  0  0  0  0
  134.2068  135.9018   71.0570 H   0  0  0  0  0  0  0  0  0  0  0  0
  134.0997  133.9655   72.6160 H   0  0  0  0  0  0  0  0  0  0  0  0
  131.9109  133.2682   73.5889 H   0  0  0  0  0  0  0  0  0  0  0  0
  1  2  3  0
  2  3  1  0
  3  4  2  0
  4  5  1  0
  5  6  1  0
  5  7  1  0
  5  8  1  0
  4  9  1  0
  9 10  2  0
 10 11  1  0
 11 12  2  0
 12 13  1  0
 13 14  2  0
 14 15  1  0
 15 16  2  0
 10 17  1  0
 17 18  2  0
 18 19  1  0
 19 20  1  0
 20 21  1  0
 21 22  2  0
 21 23  1  0
 23 24  1  0
 24 25  2  0
 25 26  1  0
 26 27  2  0
 27 28  1  0
 28 29  2  0
 18  3  1  0
 29 24  1  0
 16 11  1  0
  9 30  1  0
 12 31  1  0
 13 32  1  0
 14 33  1  0
 15 34  1  0
 16 35  1  0
 20 36  1  0
 20 37  1  0
 23 38  1  0
 25 39  1  0
 26 40  1  0
 27 41  1  0
 28 42  1  0
 29 43  1  0
M  END
>  <Binding energies>  (1) 
[-7.34]

>  <Ligand effiencies>  (1) 
[-0.24466666666666667]

>  <Interactions>  (1) 
["H-A:LYS:547:NZ:4951, V-B:LYS:547:CB:9919, V-B:LYS:547:CG:9920, V-B:HIS:456:CD2:9040, V-B:ARG:545:C:9889, V-A:LYS:547:CE:4950, V-A:HIS:456:CB:4065, V-A:HIS:456:CD2:4068, V-B:LYS:547:CD:9921, V-B:HIS:456:CG:9038, V-B:HIS:456:CB:9037, V-B:VAL:457:C:9045, V-A:HIS:456:CG:4066, V-A:GLY:544:C:4912, V-B:VAL:458:CG2:9059, V-B:ASP:473:CB:9211, V-B:ASP:473:CG:9212, V-A:HIS:456:CE1:4070, V-A:GLY:544:CA:4914, V-B:LYS:547:CE:9922, V-B:ARG:545:CA:9891, V-B:HIS:456:C:9033, H-B:VAL:457:N:9048, V-B:TYR:484:CA:9311, V-B:VAL:458:CA:9055, V-B:VAL:457:CA:9047, V-B:TYR:484:CB:9313, V-B:TYR:484:C:9309, V-B:HIS:456:CA:9035, V-A:VAL:542:CG1:4899, V-B:VAL:458:CB:9057, H-B:ASP:473:OD2:9214, H-B:LEU:472:N:9201, H-B:TYR:484:O:9310, V-B:SER:483:CB:9305"]

$$$$
3af_Grossjean_2025
     RDKit          3D

 42 44  0  0  0  0  0  0  0  0999 V2000
  123.7160  131.3840   76.0280 N   0  0  0  0  0  0  0  0  0  0  0  0
  124.6610  130.8360   75.6450 C   0  0  0  0  0  0  0  0  0  0  0  0
  125.8560  130.1410   75.1610 C   0  0  0  0  0  0  0  0  0  0  0  0
  125.8090  128.7630   74.8370 C   0  0  0  0  0  0  0  0  0  0  0  0
  124.5140  127.9320   74.9220 C   0  0  0  0  0  0  0  0  0  0  0  0
  123.7440  128.0590   73.8390 F   0  0  0  0  0  0  0  0  0  0  0  0
  124.8110  126.6390   75.0550 F   0  0  0  0  0  0  0  0  0  0  0  0
  123.7890  128.3200   75.9720 F   0  0  0  0  0  0  0  0  0  0  0  0
  126.9930  128.1290   74.4290 C   0  0  0  0  0  0  0  0  0  0  0  0
  128.1890  128.8490   74.3480 C   0  0  0  0  0  0  0  0  0  0  0  0
  129.4850  128.2180   73.9370 C   0  0  0  0  0  0  0  0  0  0  0  0
  129.8770  128.1960   72.5890 C   0  0  0  0  0  0  0  0  0  0  0  0
  131.0810  127.6130   72.2010 C   0  0  0  0  0  0  0  0  0  0  0  0
  131.9110  127.0430   73.1590 C   0  0  0  0  0  0  0  0  0  0  0  0
  131.5490  127.0540   74.5020 C   0  0  0  0  0  0  0  0  0  0  0  0
  130.3440  127.6380   74.8860 C   0  0  0  0  0  0  0  0  0  0  0  0
  128.2310  130.1690   74.6630 N   0  0  0  0  0  0  0  0  0  0  0  0
  127.0960  130.8090   75.0380 C   0  0  0  0  0  0  0  0  0  0  0  0
  127.3460  132.5360   75.3960 S   0  0  0  0  0  0  0  0  0  0  0  0
  127.3370  133.4430   73.8200 C   0  0  0  0  0  0  0  0  0  0  0  0
  128.6710  133.3180   73.0850 C   0  0  0  0  0  0  0  0  0  0  0  0
  128.9990  132.2270   72.6200 O   0  0  0  0  0  0  0  0  0  0  0  0
  129.4010  134.4520   73.0140 N   0  0  0  0  0  0  0  0  0  0  0  0
  130.6600  134.6740   72.4230 C   0  0  0  0  0  0  0  0  0  0  0  0
  130.8950  135.3890   71.2340 C   0  0  0  0  0  0  0  0  0  0  0  0
  132.2010  135.5310   70.7590 C   0  0  0  0  0  0  0  0  0  0  0  0
  133.2420  134.9520   71.4850 C   0  0  0  0  0  0  0  0  0  0  0  0
  133.0430  134.2590   72.6330 N   0  0  0  0  0  0  0  0  0  0  0  0
  131.7690  134.1310   73.0820 C   0  0  0  0  0  0  0  0  0  0  0  0
  126.9800  127.0596   74.1715 H   0  0  0  0  0  0  0  0  0  0  0  0
  129.2232  128.6461   71.8275 H   0  0  0  0  0  0  0  0  0  0  0  0
  131.3737  127.6038   71.1407 H   0  0  0  0  0  0  0  0  0  0  0  0
  132.8607  126.5800   72.8531 H   0  0  0  0  0  0  0  0  0  0  0  0
  132.2107  126.6040   75.2568 H   0  0  0  0  0  0  0  0  0  0  0  0
  130.0604  127.6453   75.9488 H   0  0  0  0  0  0  0  0  0  0  0  0
  126.5390  133.0377   73.1806 H   0  0  0  0  0  0  0  0  0  0  0  0
  127.1661  134.5073   74.0393 H   0  0  0  0  0  0  0  0  0  0  0  0
  128.9930  135.2710   73.4380 H   0  0  0  0  0  0  0  0  0  0  0  0
  130.0544  135.8339   70.6813 H   0  0  0  0  0  0  0  0  0  0  0  0
  132.4042  136.0875   69.8322 H   0  0  0  0  0  0  0  0  0  0  0  0
  134.2699  135.0627   71.1093 H   0  0  0  0  0  0  0  0  0  0  0  0
  131.5987  133.5708   74.0132 H   0  0  0  0  0  0  0  0  0  0  0  0
  1  2  3  0
  2  3  1  0
  3  4  2  0
  4  5  1  0
  5  6  1  0
  5  7  1  0
  5  8  1  0
  4  9  1  0
  9 10  2  0
 10 11  1  0
 11 12  2  0
 12 13  1  0
 13 14  2  0
 14 15  1  0
 15 16  2  0
 10 17  1  0
 17 18  2  0
 18 19  1  0
 19 20  1  0
 20 21  1  0
 21 22  2  0
 21 23  1  0
 23 24  1  0
 24 25  2  0
 25 26  1  0
 26 27  2  0
 27 28  1  0
 28 29  2  0
 18  3  1  0
 29 24  1  0
 16 11  1  0
  9 30  1  0
 12 31  1  0
 13 32  1  0
 14 33  1  0
 15 34  1  0
 16 35  1  0
 20 36  1  0
 20 37  1  0
 23 38  1  0
 25 39  1  0
 26 40  1  0
 27 41  1  0
 29 42  1  0
M  END
>  <Binding energies>  (1) 
[-7.2]

>  <Ligand effiencies>  (1) 
[-0.24000000000000002]

>  <Interactions>  (1) 
["H-A:LYS:547:NZ:4951, V-B:LYS:547:CB:9919, V-B:LYS:547:CG:9920, V-B:HIS:456:CD2:9040, V-B:ARG:545:C:9889, V-A:LYS:547:CE:4950, V-A:HIS:456:CB:4065, V-A:HIS:456:CD2:4068, V-B:LYS:547:CD:9921, V-B:HIS:456:CG:9038, V-B:HIS:456:CB:9037, V-B:VAL:457:C:9045, V-A:HIS:456:CG:4066, V-A:GLY:544:C:4912, V-B:VAL:458:CG2:9059, V-B:ASP:473:CB:9211, V-B:ASP:473:CG:9212, V-A:HIS:456:CE1:4070, V-A:GLY:544:CA:4914, V-B:LYS:547:CE:9922, V-B:ARG:545:CA:9891, V-B:HIS:456:C:9033, H-B:VAL:457:N:9048, V-B:TYR:484:CA:9311, V-B:VAL:458:CA:9055, V-B:VAL:457:CA:9047, V-B:TYR:484:CB:9313, V-B:TYR:484:C:9309, V-B:HIS:456:CA:9035, V-A:VAL:542:CG1:4899, V-B:VAL:458:CB:9057, H-B:LEU:472:N:9201, H-B:TYR:484:O:9310, V-A:VAL:542:C:4894, V-A:VAL:542:CB:4898"]

$$$$
3ag_Grossjean_2025
     RDKit          3D

 46 48  0  0  0  0  0  0  0  0999 V2000
  124.0430  130.3720   63.4660 N   0  0  0  0  0  0  0  0  0  0  0  0
  125.1210  130.5530   63.0830 C   0  0  0  0  0  0  0  0  0  0  0  0
  126.4830  130.7870   62.5970 C   0  0  0  0  0  0  0  0  0  0  0  0
  126.7660  131.8680   61.7270 C   0  0  0  0  0  0  0  0  0  0  0  0
  125.6950  132.8860   61.2890 C   0  0  0  0  0  0  0  0  0  0  0  0
  124.9000  132.4180   60.3250 F   0  0  0  0  0  0  0  0  0  0  0  0
  124.9220  133.2060   62.3280 F   0  0  0  0  0  0  0  0  0  0  0  0
  126.2760  133.9930   60.8250 F   0  0  0  0  0  0  0  0  0  0  0  0
  128.0760  132.0180   61.2470 C   0  0  0  0  0  0  0  0  0  0  0  0
  129.0720  131.1070   61.6140 C   0  0  0  0  0  0  0  0  0  0  0  0
  130.4860  131.2170   61.1290 C   0  0  0  0  0  0  0  0  0  0  0  0
  130.7940  131.0400   59.7710 C   0  0  0  0  0  0  0  0  0  0  0  0
  132.1050  131.1410   59.3130 C   0  0  0  0  0  0  0  0  0  0  0  0
  133.1300  131.4210   60.2110 C   0  0  0  0  0  0  0  0  0  0  0  0
  132.8520  131.5980   61.5630 C   0  0  0  0  0  0  0  0  0  0  0  0
  131.5400  131.4960   62.0160 C   0  0  0  0  0  0  0  0  0  0  0  0
  128.8000  130.0790   62.4590 N   0  0  0  0  0  0  0  0  0  0  0  0
  127.5470  129.9270   62.9500 C   0  0  0  0  0  0  0  0  0  0  0  0
  127.3760  128.5310   64.0410 S   0  0  0  0  0  0  0  0  0  0  0  0
  126.8440  129.1690   65.6580 C   0  0  0  0  0  0  0  0  0  0  0  0
  128.0000  129.2490   66.6560 C   0  0  0  0  0  0  0  0  0  0  0  0
  128.2370  130.3090   67.2380 O   0  0  0  0  0  0  0  0  0  0  0  0
  128.7030  128.1190   66.8470 N   0  0  0  0  0  0  0  0  0  0  0  0
  129.8200  127.9620   67.7780 C   0  0  0  0  0  0  0  0  0  0  0  0
  129.3980  127.6640   69.2120 C   0  0  0  0  0  0  0  0  0  0  0  0
  128.2960  126.8400   69.4550 C   0  0  0  0  0  0  0  0  0  0  0  0
  127.9260  126.5410   70.7640 C   0  0  0  0  0  0  0  0  0  0  0  0
  128.6640  127.0610   71.8250 C   0  0  0  0  0  0  0  0  0  0  0  0
  129.7730  127.8710   71.5900 C   0  0  0  0  0  0  0  0  0  0  0  0
  130.1440  128.1690   70.2820 C   0  0  0  0  0  0  0  0  0  0  0  0
  128.3210  132.8565   60.5785 H   0  0  0  0  0  0  0  0  0  0  0  0
  129.9869  130.8180   59.0574 H   0  0  0  0  0  0  0  0  0  0  0  0
  132.3294  131.0000   58.2454 H   0  0  0  0  0  0  0  0  0  0  0  0
  134.1660  131.5029   59.8503 H   0  0  0  0  0  0  0  0  0  0  0  0
  133.6654  131.8175   62.2703 H   0  0  0  0  0  0  0  0  0  0  0  0
  131.3244  131.6360   63.0855 H   0  0  0  0  0  0  0  0  0  0  0  0
  126.4241  130.1764   65.5207 H   0  0  0  0  0  0  0  0  0  0  0  0
  126.0939  128.4748   66.0649 H   0  0  0  0  0  0  0  0  0  0  0  0
  128.4330  127.2920   66.3350 H   0  0  0  0  0  0  0  0  0  0  0  0
  130.4506  127.1331   67.4242 H   0  0  0  0  0  0  0  0  0  0  0  0
  130.3538  128.9236   67.7979 H   0  0  0  0  0  0  0  0  0  0  0  0
  127.7209  126.4276   68.6128 H   0  0  0  0  0  0  0  0  0  0  0  0
  127.0554  125.8975   70.9591 H   0  0  0  0  0  0  0  0  0  0  0  0
  128.3681  126.8297   72.8589 H   0  0  0  0  0  0  0  0  0  0  0  0
  130.3526  128.2730   72.4341 H   0  0  0  0  0  0  0  0  0  0  0  0
  131.0234  128.8013   70.0899 H   0  0  0  0  0  0  0  0  0  0  0  0
  1  2  3  0
  2  3  1  0
  3  4  2  0
  4  5  1  0
  5  6  1  0
  5  7  1  0
  5  8  1  0
  4  9  1  0
  9 10  2  0
 10 11  1  0
 11 12  2  0
 12 13  1  0
 13 14  2  0
 14 15  1  0
 15 16  2  0
 10 17  1  0
 17 18  2  0
 18 19  1  0
 19 20  1  0
 20 21  1  0
 21 22  2  0
 21 23  1  0
 23 24  1  0
 24 25  1  0
 25 26  2  0
 26 27  1  0
 27 28  2  0
 28 29  1  0
 29 30  2  0
 18  3  1  0
 30 25  1  0
 16 11  1  0
  9 31  1  0
 12 32  1  0
 13 33  1  0
 14 34  1  0
 15 35  1  0
 16 36  1  0
 20 37  1  0
 20 38  1  0
 23 39  1  0
 24 40  1  0
 24 41  1  0
 26 42  1  0
 27 43  1  0
 28 44  1  0
 29 45  1  0
 30 46  1  0
M  END
>  <Binding energies>  (1) 
[-7.57]

>  <Ligand effiencies>  (1) 
[-0.24419354838709678]

>  <Interactions>  (1) 
["H-B:GLU:543:OE2:9882, H-A:GLU:543:OE2:4910, V-A:GLU:543:CD:4908, V-A:TYR:539:CE1:4875, V-A:PRO:540:CA:4883, V-A:ALA:541:CB:4892, V-A:TYR:539:CD1:4873, V-A:GLU:543:CG:4907, V-B:LEU:475:CD2:9231, V-A:ALA:541:CA:4890, H-B:GLY:454:N:9022, H-B:TYR:484:OH:9320, V-A:ASN:362:CB:3176, V-B:HIS:456:CE1:9042, V-A:PRO:540:CB:4885, V-B:HIS:456:CD2:9040, V-A:HIS:456:CD2:4068, V-B:GLY:544:C:9884, V-A:GLY:544:C:4912, V-B:GLU:543:CB:9878, V-B:TYR:484:CZ:9319, V-A:HIS:456:CE1:4070, V-A:ALA:541:C:4888, V-A:GLU:543:CB:4906, V-A:GLU:543:C:4902"]

$$$$
3ai_Grossjean_2025
     RDKit          3D

 39 41  0  0  0  0  0  0  0  0999 V2000
  123.7810  131.3750   76.1660 N   0  0  0  0  0  0  0  0  0  0  0  0
  124.7100  130.8240   75.7530 C   0  0  0  0  0  0  0  0  0  0  0  0
  125.8870  130.1240   75.2270 C   0  0  0  0  0  0  0  0  0  0  0  0
  125.8000  128.7720   74.8130 C   0  0  0  0  0  0  0  0  0  0  0  0
  124.4810  127.9770   74.8420 C   0  0  0  0  0  0  0  0  0  0  0  0
  123.7350  128.1700   73.7530 F   0  0  0  0  0  0  0  0  0  0  0  0
  124.7400  126.6700   74.9260 F   0  0  0  0  0  0  0  0  0  0  0  0
  123.7490  128.3410   75.8950 F   0  0  0  0  0  0  0  0  0  0  0  0
  126.9650  128.1330   74.3630 C   0  0  0  0  0  0  0  0  0  0  0  0
  128.1820  128.8210   74.3300 C   0  0  0  0  0  0  0  0  0  0  0  0
  129.4590  128.1850   73.8690 C   0  0  0  0  0  0  0  0  0  0  0  0
  130.3120  127.5470   74.7840 C   0  0  0  0  0  0  0  0  0  0  0  0
  131.4970  126.9500   74.3620 C   0  0  0  0  0  0  0  0  0  0  0  0
  131.8450  126.9820   73.0160 C   0  0  0  0  0  0  0  0  0  0  0  0
  131.0160  127.6050   72.0890 C   0  0  0  0  0  0  0  0  0  0  0  0
  129.8320  128.2010   72.5140 C   0  0  0  0  0  0  0  0  0  0  0  0
  128.2620  130.1140   74.7360 N   0  0  0  0  0  0  0  0  0  0  0  0
  127.1460  130.7610   75.1520 C   0  0  0  0  0  0  0  0  0  0  0  0
  127.4410  132.4530   75.6220 S   0  0  0  0  0  0  0  0  0  0  0  0
  127.3130  133.4820   74.1200 C   0  0  0  0  0  0  0  0  0  0  0  0
  128.4790  133.3350   73.1320 C   0  0  0  0  0  0  0  0  0  0  0  0
  128.7420  132.2420   72.6240 O   0  0  0  0  0  0  0  0  0  0  0  0
  129.1600  134.4780   72.8890 N   0  0  0  0  0  0  0  0  0  0  0  0
  130.2470  134.6460   72.0420 C   0  0  0  0  0  0  0  0  0  0  0  0
  131.5700  134.5560   72.4740 C   0  0  0  0  0  0  0  0  0  0  0  0
  132.3300  134.7830   71.3500 C   0  0  0  0  0  0  0  0  0  0  0  0
  131.5080  134.9970   70.2950 O   0  0  0  0  0  0  0  0  0  0  0  0
  130.1900  134.9070   70.7470 N   0  0  0  0  0  0  0  0  0  0  0  0
  126.9209  127.0843   74.0341 H   0  0  0  0  0  0  0  0  0  0  0  0
  130.0401  127.5185   75.8495 H   0  0  0  0  0  0  0  0  0  0  0  0
  132.1556  126.4548   75.0907 H   0  0  0  0  0  0  0  0  0  0  0  0
  132.7817  126.5117   72.6823 H   0  0  0  0  0  0  0  0  0  0  0  0
  131.2947  127.6266   71.0251 H   0  0  0  0  0  0  0  0  0  0  0  0
  129.1783  128.6920   71.7781 H   0  0  0  0  0  0  0  0  0  0  0  0
  126.3853  133.2077   73.5964 H   0  0  0  0  0  0  0  0  0  0  0  0
  127.3289  134.5276   74.4612 H   0  0  0  0  0  0  0  0  0  0  0  0
  128.8500  135.3120   73.3680 H   0  0  0  0  0  0  0  0  0  0  0  0
  131.9283  134.3484   73.4931 H   0  0  0  0  0  0  0  0  0  0  0  0
  133.4294  134.7896   71.3138 H   0  0  0  0  0  0  0  0  0  0  0  0
  1  2  3  0
  2  3  1  0
  3  4  2  0
  4  5  1  0
  5  6  1  0
  5  7  1  0
  5  8  1  0
  4  9  1  0
  9 10  2  0
 10 11  1  0
 11 12  2  0
 12 13  1  0
 13 14  2  0
 14 15  1  0
 15 16  2  0
 10 17  1  0
 17 18  2  0
 18 19  1  0
 19 20  1  0
 20 21  1  0
 21 22  2  0
 21 23  1  0
 23 24  1  0
 24 25  1  0
 25 26  2  0
 26 27  1  0
 27 28  1  0
 18  3  1  0
 28 24  2  0
 16 11  1  0
  9 29  1  0
 12 30  1  0
 13 31  1  0
 14 32  1  0
 15 33  1  0
 16 34  1  0
 20 35  1  0
 20 36  1  0
 23 37  1  0
 25 38  1  0
 26 39  1  0
M  END
>  <Binding energies>  (1) 
[-7.68]

>  <Ligand effiencies>  (1) 
[-0.26482758620689656]

>  <Interactions>  (1) 
["H-A:LYS:547:NZ:4951, V-B:LYS:547:CB:9919, V-B:LYS:547:CG:9920, V-B:HIS:456:CD2:9040, V-B:ARG:545:C:9889, V-A:LYS:547:CE:4950, V-A:HIS:456:CB:4065, V-A:HIS:456:CD2:4068, V-B:LYS:547:CD:9921, V-B:HIS:456:CG:9038, V-B:HIS:456:CB:9037, V-B:VAL:457:C:9045, V-A:HIS:456:CG:4066, V-A:GLY:544:C:4912, V-B:VAL:458:CG2:9059, V-B:ASP:473:CB:9211, V-B:ASP:473:CG:9212, V-A:HIS:456:CE1:4070, V-A:GLU:543:C:4902, V-A:GLY:544:CA:4914, V-B:LYS:547:CE:9922, V-B:ARG:545:CA:9891, H-A:GLY:544:N:4915, V-B:HIS:456:C:9033, H-B:VAL:457:N:9048, H-B:TYR:484:N:9312, V-B:TYR:484:CA:9311, V-B:VAL:458:CA:9055, V-B:VAL:457:CA:9047, V-B:TYR:484:CB:9313, V-B:TYR:484:C:9309, V-B:HIS:456:CA:9035, V-A:VAL:542:CG1:4899, V-B:VAL:458:CB:9057, H-B:ASP:473:OD2:9214, H-B:LEU:472:N:9201, H-B:TYR:484:O:9310"]

$$$$
3aj_Grossjean_2025
     RDKit          3D

 39 41  0  0  0  0  0  0  0  0999 V2000
  123.8790  129.4880   64.9530 N   0  0  0  0  0  0  0  0  0  0  0  0
  124.6760  129.7570   64.1590 C   0  0  0  0  0  0  0  0  0  0  0  0
  125.6880  130.0970   63.1550 C   0  0  0  0  0  0  0  0  0  0  0  0
  127.0680  130.0520   63.4730 C   0  0  0  0  0  0  0  0  0  0  0  0
  127.5890  129.6100   64.8540 C   0  0  0  0  0  0  0  0  0  0  0  0
  126.6080  129.2510   65.6860 F   0  0  0  0  0  0  0  0  0  0  0  0
  128.4060  128.5660   64.7210 F   0  0  0  0  0  0  0  0  0  0  0  0
  128.2550  130.6100   65.4320 F   0  0  0  0  0  0  0  0  0  0  0  0
  127.9950  130.4330   62.4900 C   0  0  0  0  0  0  0  0  0  0  0  0
  127.5570  130.8490   61.2290 C   0  0  0  0  0  0  0  0  0  0  0  0
  128.5030  131.2750   60.1480 C   0  0  0  0  0  0  0  0  0  0  0  0
  128.0230  131.8540   58.9630 C   0  0  0  0  0  0  0  0  0  0  0  0
  128.8970  132.2560   57.9550 C   0  0  0  0  0  0  0  0  0  0  0  0
  130.2670  132.0820   58.1210 C   0  0  0  0  0  0  0  0  0  0  0  0
  130.7680  131.5120   59.2870 C   0  0  0  0  0  0  0  0  0  0  0  0
  129.8920  131.1140   60.2910 C   0  0  0  0  0  0  0  0  0  0  0  0
  126.2340  130.8980   60.9310 N   0  0  0  0  0  0  0  0  0  0  0  0
  125.3210  130.5130   61.8540 C   0  0  0  0  0  0  0  0  0  0  0  0
  123.6400  130.6210   61.2790 S   0  0  0  0  0  0  0  0  0  0  0  0
  123.5660  131.9330   60.0120 C   0  0  0  0  0  0  0  0  0  0  0  0
  124.1100  133.2980   60.4580 C   0  0  0  0  0  0  0  0  0  0  0  0
  123.3670  134.1330   60.9800 O   0  0  0  0  0  0  0  0  0  0  0  0
  125.4290  133.4820   60.2300 N   0  0  0  0  0  0  0  0  0  0  0  0
  126.1740  134.6130   60.5390 C   0  0  0  0  0  0  0  0  0  0  0  0
  125.8830  135.8680   60.2750 N   0  0  0  0  0  0  0  0  0  0  0  0
  126.8170  136.6870   60.7180 C   0  0  0  0  0  0  0  0  0  0  0  0
  127.9020  136.0930   61.3590 C   0  0  0  0  0  0  0  0  0  0  0  0
  127.6750  134.3700   61.3750 S   0  0  0  0  0  0  0  0  0  0  0  0
  129.0718  130.4041   62.7130 H   0  0  0  0  0  0  0  0  0  0  0  0
  126.9402  131.9926   58.8279 H   0  0  0  0  0  0  0  0  0  0  0  0
  128.5053  132.7089   57.0322 H   0  0  0  0  0  0  0  0  0  0  0  0
  130.9584  132.3970   57.3256 H   0  0  0  0  0  0  0  0  0  0  0  0
  131.8522  131.3767   59.4142 H   0  0  0  0  0  0  0  0  0  0  0  0
  130.2927  130.6658   61.2122 H   0  0  0  0  0  0  0  0  0  0  0  0
  124.1510  131.6004   59.1419 H   0  0  0  0  0  0  0  0  0  0  0  0
  122.4996  132.0852   59.7893 H   0  0  0  0  0  0  0  0  0  0  0  0
  125.9380  132.7240   59.8000 H   0  0  0  0  0  0  0  0  0  0  0  0
  126.7435  137.7769   60.5888 H   0  0  0  0  0  0  0  0  0  0  0  0
  128.7631  136.6280   61.7859 H   0  0  0  0  0  0  0  0  0  0  0  0
  1  2  3  0
  2  3  1  0
  3  4  2  0
  4  5  1  0
  5  6  1  0
  5  7  1  0
  5  8  1  0
  4  9  1  0
  9 10  2  0
 10 11  1  0
 11 12  2  0
 12 13  1  0
 13 14  2  0
 14 15  1  0
 15 16  2  0
 10 17  1  0
 17 18  2  0
 18 19  1  0
 19 20  1  0
 20 21  1  0
 21 22  2  0
 21 23  1  0
 23 24  1  0
 24 25  2  0
 25 26  1  0
 26 27  2  0
 27 28  1  0
 18  3  1  0
 28 24  1  0
 16 11  1  0
  9 29  1  0
 12 30  1  0
 13 31  1  0
 14 32  1  0
 15 33  1  0
 16 34  1  0
 20 35  1  0
 20 36  1  0
 23 37  1  0
 26 38  1  0
 27 39  1  0
M  END
>  <Binding energies>  (1) 
[-6.13]

>  <Ligand effiencies>  (1) 
[-0.21137931034482757]

>  <Interactions>  (1) 
["V-B:GLU:543:CD:9880, V-A:GLU:543:CD:4908, V-B:ILE:369:CD1:8211, V-A:TYR:539:CE1:4875, V-A:PRO:540:CA:4883, V-A:ALA:541:CB:4892, V-A:TYR:539:CD1:4873, V-A:GLU:543:CG:4907, V-B:ILE:369:CG2:8209, V-B:ARG:545:CZ:9898, V-A:PRO:540:C:4881, V-B:LEU:475:CD2:9231, V-A:ALA:541:CA:4890, H-B:GLY:454:N:9022, H-B:ARG:545:NE:9896, H-B:TYR:484:OH:9320, V-A:TYR:539:C:4867, H-B:ARG:545:NH1:9899, V-B:HIS:456:CE1:9042, V-A:PRO:540:CB:4885, V-B:TYR:484:CZ:9319, V-B:PRO:482:CG:9299, V-B:PRO:482:CB:9298, H-B:ARG:545:NH2:9900, V-B:ILE:369:CB:8208, V-A:GLU:543:CB:4906, V-B:TYR:484:CE2:9318, V-A:GLU:543:CA:4904, V-A:PRO:540:N:4884, H-B:SER:385:OG:8382"]

$$$$
3ak_Grossjean_2025
     RDKit          3D

 57 58  0  0  0  0  0  0  0  0999 V2000
  124.5320  127.4090   74.5040 C   0  0  0  0  0  0  0  0  0  0  0  0
  125.9500  127.3800   74.5180 O   0  0  0  0  0  0  0  0  0  0  0  0
  126.5390  128.6380   74.8190 C   0  0  0  0  0  0  0  0  0  0  0  0
  128.0570  128.5380   74.6270 C   0  0  0  0  0  0  0  0  0  0  0  0
  128.3270  127.7150   73.4970 O   0  0  0  0  0  0  0  0  0  0  0  0
  129.5230  128.0220   72.7840 C   0  0  0  0  0  0  0  0  0  0  0  0
  129.4460  127.7050   71.2800 C   0  0  0  0  0  0  0  0  0  0  0  0
  130.2850  128.6060   70.5690 O   0  0  0  0  0  0  0  0  0  0  0  0
  130.2920  128.3990   69.1630 C   0  0  0  0  0  0  0  0  0  0  0  0
  128.9820  127.7240   68.7180 C   0  0  0  0  0  0  0  0  0  0  0  0
  128.7990  127.7010   67.2660 N   0  0  0  0  0  0  0  0  0  0  0  0
  128.4260  128.7440   66.5000 C   0  0  0  0  0  0  0  0  0  0  0  0
  128.2120  129.8660   66.9600 O   0  0  0  0  0  0  0  0  0  0  0  0
  128.2600  128.5290   64.9860 C   0  0  0  0  0  0  0  0  0  0  0  0
  126.6580  129.0360   64.2590 S   0  0  0  0  0  0  0  0  0  0  0  0
  126.9690  130.2060   62.9460 C   0  0  0  0  0  0  0  0  0  0  0  0
  128.2620  130.3160   62.5530 N   0  0  0  0  0  0  0  0  0  0  0  0
  128.6000  131.1840   61.5650 C   0  0  0  0  0  0  0  0  0  0  0  0
  130.0520  131.2400   61.1930 C   0  0  0  0  0  0  0  0  0  0  0  0
  130.4610  131.0410   59.8660 C   0  0  0  0  0  0  0  0  0  0  0  0
  131.8070  131.0950   59.5140 C   0  0  0  0  0  0  0  0  0  0  0  0
  132.7650  131.3530   60.4890 C   0  0  0  0  0  0  0  0  0  0  0  0
  132.3870  131.5580   61.8110 C   0  0  0  0  0  0  0  0  0  0  0  0
  131.0400  131.5030   62.1590 C   0  0  0  0  0  0  0  0  0  0  0  0
  127.6260  131.9620   60.9300 C   0  0  0  0  0  0  0  0  0  0  0  0
  126.2810  131.8660   61.3160 C   0  0  0  0  0  0  0  0  0  0  0  0
  125.2360  132.7410   60.5940 C   0  0  0  0  0  0  0  0  0  0  0  0
  124.4560  133.3510   61.4870 F   0  0  0  0  0  0  0  0  0  0  0  0
  125.8480  133.6650   59.8520 F   0  0  0  0  0  0  0  0  0  0  0  0
  124.4430  132.0370   59.7830 F   0  0  0  0  0  0  0  0  0  0  0  0
  125.9370  130.9660   62.3530 C   0  0  0  0  0  0  0  0  0  0  0  0
  124.5470  130.8250   62.7990 C   0  0  0  0  0  0  0  0  0  0  0  0
  123.4500  130.7140   63.1520 N   0  0  0  0  0  0  0  0  0  0  0  0
  124.1552  127.4167   75.5374 H   0  0  0  0  0  0  0  0  0  0  0  0
  124.1889  128.3143   73.9819 H   0  0  0  0  0  0  0  0  0  0  0  0
  124.1522  126.5184   73.9819 H   0  0  0  0  0  0  0  0  0  0  0  0
  126.1320  129.4063   74.1452 H   0  0  0  0  0  0  0  0  0  0  0  0
  126.3137  128.9140   75.8597 H   0  0  0  0  0  0  0  0  0  0  0  0
  128.4748  129.5419   74.4606 H   0  0  0  0  0  0  0  0  0  0  0  0
  128.5176  128.1001   75.5248 H   0  0  0  0  0  0  0  0  0  0  0  0
  129.7318  129.0955   72.9023 H   0  0  0  0  0  0  0  0  0  0  0  0
  130.3191  127.3903   73.2050 H   0  0  0  0  0  0  0  0  0  0  0  0
  129.7821  126.6725   71.1039 H   0  0  0  0  0  0  0  0  0  0  0  0
  128.4082  127.8135   70.9320 H   0  0  0  0  0  0  0  0  0  0  0  0
  130.3923  129.3687   68.6535 H   0  0  0  0  0  0  0  0  0  0  0  0
  131.1385  127.7474   68.9006 H   0  0  0  0  0  0  0  0  0  0  0  0
  128.9829  126.6870   69.0849 H   0  0  0  0  0  0  0  0  0  0  0  0
  128.1552  128.3155   69.1382 H   0  0  0  0  0  0  0  0  0  0  0  0
  128.9760  126.8170   66.8110 H   0  0  0  0  0  0  0  0  0  0  0  0
  129.0524  129.0990   64.4788 H   0  0  0  0  0  0  0  0  0  0  0  0
  128.3144  127.4402   64.8392 H   0  0  0  0  0  0  0  0  0  0  0  0
  129.7065  130.8391   59.0914 H   0  0  0  0  0  0  0  0  0  0  0  0
  132.1116  130.9343   58.4693 H   0  0  0  0  0  0  0  0  0  0  0  0
  133.8287  131.3951   60.2121 H   0  0  0  0  0  0  0  0  0  0  0  0
  133.1482  131.7626   62.5782 H   0  0  0  0  0  0  0  0  0  0  0  0
  130.7439  131.6678   63.2055 H   0  0  0  0  0  0  0  0  0  0  0  0
  127.9164  132.6522   60.1242 H   0  0  0  0  0  0  0  0  0  0  0  0
  1  2  1  0
  2  3  1  0
  3  4  1  0
  4  5  1  0
  5  6  1  0
  6  7  1  0
  7  8  1  0
  8  9  1  0
  9 10  1  0
 10 11  1  0
 11 12  1  0
 12 13  2  0
 12 14  1  0
 14 15  1  0
 15 16  1  0
 16 17  2  0
 17 18  1  0
 18 19  1  0
 19 20  2  0
 20 21  1  0
 21 22  2  0
 22 23  1  0
 23 24  2  0
 18 25  2  0
 25 26  1  0
 26 27  1  0
 27 28  1  0
 27 29  1  0
 27 30  1  0
 26 31  2  0
 31 32  1  0
 32 33  3  0
 31 16  1  0
 24 19  1  0
  1 34  1  0
  1 35  1  0
  1 36  1  0
  3 37  1  0
  3 38  1  0
  4 39  1  0
  4 40  1  0
  6 41  1  0
  6 42  1  0
  7 43  1  0
  7 44  1  0
  9 45  1  0
  9 46  1  0
 10 47  1  0
 10 48  1  0
 11 49  1  0
 14 50  1  0
 14 51  1  0
 20 52  1  0
 21 53  1  0
 22 54  1  0
 23 55  1  0
 24 56  1  0
 25 57  1  0
M  END
>  <Binding energies>  (1) 
[-6.28]

>  <Ligand effiencies>  (1) 
[-0.1847058823529412]

>  <Interactions>  (1) 
["H-B:GLU:543:OE2:9882, V-B:GLU:543:CD:9880, H-A:GLU:543:OE2:4910, V-A:GLU:543:CD:4908, V-B:ILE:369:CD1:8211, V-A:TYR:539:CE1:4875, V-A:PRO:540:CA:4883, V-A:ALA:541:CB:4892, V-A:TYR:539:CD1:4873, V-A:GLU:543:CG:4907, V-B:ILE:369:CG2:8209, V-B:LEU:475:CD2:9231, V-A:ALA:541:CA:4890, H-B:GLY:454:N:9022, H-B:TYR:484:OH:9320, V-A:ASN:362:CB:3176, V-B:HIS:456:CE1:9042, V-A:PRO:540:CB:4885, H-B:LYS:547:NZ:9923, V-B:LYS:547:CG:9920, V-B:HIS:456:CD2:9040, V-B:ARG:545:C:9889, V-A:HIS:456:CD2:4068, V-B:LYS:547:CD:9921, V-B:HIS:456:CG:9038, V-B:HIS:456:CB:9037, V-B:VAL:457:C:9045, V-A:HIS:456:CE1:4070, V-A:ALA:541:C:4888, V-A:GLU:543:CB:4906, V-A:GLU:543:CA:4904, V-A:GLU:543:C:4902"]

$$$$
3bc_Grossjean_2025
     RDKit          3D

 47 49  0  0  0  0  0  0  0  0999 V2000
  135.4980  134.1790   71.8860 C   0  0  0  0  0  0  0  0  0  0  0  0
  134.5530  135.1760   71.5150 O   0  0  0  0  0  0  0  0  0  0  0  0
  133.2110  134.9600   71.7680 C   0  0  0  0  0  0  0  0  0  0  0  0
  132.8480  134.8080   73.1070 C   0  0  0  0  0  0  0  0  0  0  0  0
  131.5190  134.5870   73.4600 C   0  0  0  0  0  0  0  0  0  0  0  0
  130.5340  134.5050   72.4740 C   0  0  0  0  0  0  0  0  0  0  0  0
  129.2190  134.2910   72.9280 N   0  0  0  0  0  0  0  0  0  0  0  0
  128.4990  133.1490   72.9460 C   0  0  0  0  0  0  0  0  0  0  0  0
  128.9190  132.0490   72.5830 O   0  0  0  0  0  0  0  0  0  0  0  0
  127.0780  133.2960   73.5070 C   0  0  0  0  0  0  0  0  0  0  0  0
  126.8340  132.6240   75.1860 S   0  0  0  0  0  0  0  0  0  0  0  0
  126.7260  130.8530   75.0530 C   0  0  0  0  0  0  0  0  0  0  0  0
  127.8690  130.2700   74.6140 N   0  0  0  0  0  0  0  0  0  0  0  0
  127.9260  128.9200   74.4690 C   0  0  0  0  0  0  0  0  0  0  0  0
  129.2180  128.3550   73.9580 C   0  0  0  0  0  0  0  0  0  0  0  0
  130.1160  127.7180   74.8280 C   0  0  0  0  0  0  0  0  0  0  0  0
  131.3170  127.1910   74.3610 C   0  0  0  0  0  0  0  0  0  0  0  0
  131.6380  127.2960   73.0120 C   0  0  0  0  0  0  0  0  0  0  0  0
  130.7670  127.9250   72.1280 C   0  0  0  0  0  0  0  0  0  0  0  0
  129.5670  128.4520   72.6000 C   0  0  0  0  0  0  0  0  0  0  0  0
  126.8200  128.1180   74.7660 C   0  0  0  0  0  0  0  0  0  0  0  0
  125.6410  128.7020   75.2420 C   0  0  0  0  0  0  0  0  0  0  0  0
  124.4630  127.7860   75.5710 C   0  0  0  0  0  0  0  0  0  0  0  0
  125.5810  130.1030   75.4050 C   0  0  0  0  0  0  0  0  0  0  0  0
  124.3760  130.7320   75.9480 C   0  0  0  0  0  0  0  0  0  0  0  0
  123.4210  131.2260   76.3770 N   0  0  0  0  0  0  0  0  0  0  0  0
  130.8890  134.6700   71.1270 C   0  0  0  0  0  0  0  0  0  0  0  0
  132.2190  134.8920   70.7780 C   0  0  0  0  0  0  0  0  0  0  0  0
  135.5555  134.1183   72.9828 H   0  0  0  0  0  0  0  0  0  0  0  0
  135.1827  133.2061   71.4810 H   0  0  0  0  0  0  0  0  0  0  0  0
  136.4864  134.4418   71.4810 H   0  0  0  0  0  0  0  0  0  0  0  0
  133.6183  134.8632   73.8904 H   0  0  0  0  0  0  0  0  0  0  0  0
  131.2444  134.4767   74.5195 H   0  0  0  0  0  0  0  0  0  0  0  0
  128.7860  135.1010   73.3480 H   0  0  0  0  0  0  0  0  0  0  0  0
  126.8299  134.3674   73.5296 H   0  0  0  0  0  0  0  0  0  0  0  0
  126.4253  132.7085   72.8445 H   0  0  0  0  0  0  0  0  0  0  0  0
  129.8670  127.6337   75.8961 H   0  0  0  0  0  0  0  0  0  0  0  0
  132.0092  126.6936   75.0563 H   0  0  0  0  0  0  0  0  0  0  0  0
  132.5862  126.8793   72.6416 H   0  0  0  0  0  0  0  0  0  0  0  0
  131.0247  128.0058   71.0617 H   0  0  0  0  0  0  0  0  0  0  0  0
  128.8821  128.9517   71.8992 H   0  0  0  0  0  0  0  0  0  0  0  0
  126.8767  127.0285   74.6255 H   0  0  0  0  0  0  0  0  0  0  0  0
  124.3566  127.7033   76.6627 H   0  0  0  0  0  0  0  0  0  0  0  0
  123.5409  128.2067   75.1436 H   0  0  0  0  0  0  0  0  0  0  0  0
  124.6435  126.7886   75.1436 H   0  0  0  0  0  0  0  0  0  0  0  0
  130.1162  134.6240   70.3455 H   0  0  0  0  0  0  0  0  0  0  0  0
  132.4933  135.0148   69.7199 H   0  0  0  0  0  0  0  0  0  0  0  0
  1  2  1  0
  2  3  1  0
  3  4  2  0
  4  5  1  0
  5  6  2  0
  6  7  1  0
  7  8  1  0
  8  9  2  0
  8 10  1  0
 10 11  1  0
 11 12  1  0
 12 13  2  0
 13 14  1  0
 14 15  1  0
 15 16  2  0
 16 17  1  0
 17 18  2  0
 18 19  1  0
 19 20  2  0
 14 21  2  0
 21 22  1  0
 22 23  1  0
 22 24  2  0
 24 25  1  0
 25 26  3  0
  6 27  1  0
 27 28  2  0
 28  3  1  0
 24 12  1  0
 20 15  1  0
  1 29  1  0
  1 30  1  0
  1 31  1  0
  4 32  1  0
  5 33  1  0
  7 34  1  0
 10 35  1  0
 10 36  1  0
 16 37  1  0
 17 38  1  0
 18 39  1  0
 19 40  1  0
 20 41  1  0
 21 42  1  0
 23 43  1  0
 23 44  1  0
 23 45  1  0
 27 46  1  0
 28 47  1  0
M  END
>  <Binding energies>  (1) 
[-8.54]

>  <Ligand effiencies>  (1) 
[-0.2944827586206896]

>  <Interactions>  (1) 
["H-A:LYS:547:NZ:4951, V-B:LYS:547:CB:9919, V-B:LYS:547:CG:9920, V-B:HIS:456:CD2:9040, V-A:LYS:547:CE:4950, V-A:HIS:456:CB:4065, V-A:HIS:456:CD2:4068, V-B:LYS:547:CD:9921, V-B:HIS:456:CG:9038, V-B:HIS:456:CB:9037, V-B:VAL:457:C:9045, V-A:HIS:456:CG:4066, V-A:GLY:544:C:4912, V-B:VAL:458:CG2:9059, V-B:ASP:473:CB:9211, V-B:ASP:473:CG:9212, V-A:GLU:543:C:4902, V-A:GLY:544:CA:4914, V-B:LYS:547:CE:9922, V-B:HIS:456:C:9033, H-B:VAL:457:N:9048, V-B:TYR:484:CA:9311, V-B:VAL:457:CA:9047, V-B:TYR:484:CB:9313, V-B:TYR:484:C:9309, V-A:VAL:542:CG1:4899, H-B:ASP:473:OD2:9214, H-B:LEU:472:N:9201, H-B:TYR:484:O:9310, V-A:VAL:542:C:4894, V-A:GLU:357:CB:3134, H-B:VAL:458:N:9056, V-A:GLU:357:CD:3136"]

$$$$
3bd_Grossjean_2025
     RDKit          3D

 43 45  0  0  0  0  0  0  0  0999 V2000
  124.3810  127.9010   75.2630 C   0  0  0  0  0  0  0  0  0  0  0  0
  125.6250  128.7580   75.0330 C   0  0  0  0  0  0  0  0  0  0  0  0
  126.7890  128.1260   74.5820 C   0  0  0  0  0  0  0  0  0  0  0  0
  127.9510  128.8750   74.3640 C   0  0  0  0  0  0  0  0  0  0  0  0
  129.2310  128.2620   73.8770 C   0  0  0  0  0  0  0  0  0  0  0  0
  129.5700  128.2960   72.5150 C   0  0  0  0  0  0  0  0  0  0  0  0
  130.7550  127.7280   72.0560 C   0  0  0  0  0  0  0  0  0  0  0  0
  131.6210  127.1140   72.9570 C   0  0  0  0  0  0  0  0  0  0  0  0
  131.3060  127.0640   74.3100 C   0  0  0  0  0  0  0  0  0  0  0  0
  130.1200  127.6340   74.7650 C   0  0  0  0  0  0  0  0  0  0  0  0
  127.9620  130.2180   74.5710 N   0  0  0  0  0  0  0  0  0  0  0  0
  126.8420  130.8470   75.0090 C   0  0  0  0  0  0  0  0  0  0  0  0
  126.9900  132.6090   75.2530 S   0  0  0  0  0  0  0  0  0  0  0  0
  127.1570  133.3920   73.6210 C   0  0  0  0  0  0  0  0  0  0  0  0
  128.5690  133.2390   73.0530 C   0  0  0  0  0  0  0  0  0  0  0  0
  128.9240  132.1410   72.6230 O   0  0  0  0  0  0  0  0  0  0  0  0
  129.3360  134.3500   73.0840 N   0  0  0  0  0  0  0  0  0  0  0  0
  130.6520  134.5300   72.6180 C   0  0  0  0  0  0  0  0  0  0  0  0
  130.7970  134.7010   71.2390 C   0  0  0  0  0  0  0  0  0  0  0  0
  132.0620  134.8780   70.6840 C   0  0  0  0  0  0  0  0  0  0  0  0
  133.1840  134.8740   71.5080 C   0  0  0  0  0  0  0  0  0  0  0  0
  133.0540  134.6910   72.8820 C   0  0  0  0  0  0  0  0  0  0  0  0
  131.7900  134.5150   73.4400 C   0  0  0  0  0  0  0  0  0  0  0  0
  125.6390  130.1510   75.2570 C   0  0  0  0  0  0  0  0  0  0  0  0
  124.4350  130.8430   75.7290 C   0  0  0  0  0  0  0  0  0  0  0  0
  123.4840  131.3870   76.1000 N   0  0  0  0  0  0  0  0  0  0  0  0
  124.2110  127.7839   76.3435 H   0  0  0  0  0  0  0  0  0  0  0  0
  123.5087  128.3907   74.8056 H   0  0  0  0  0  0  0  0  0  0  0  0
  124.5277  126.9115   74.8056 H   0  0  0  0  0  0  0  0  0  0  0  0
  126.7908  127.0413   74.3989 H   0  0  0  0  0  0  0  0  0  0  0  0
  128.8885  128.7791   71.7994 H   0  0  0  0  0  0  0  0  0  0  0  0
  131.0063  127.7641   70.9857 H   0  0  0  0  0  0  0  0  0  0  0  0
  132.5589  126.6664   72.5964 H   0  0  0  0  0  0  0  0  0  0  0  0
  131.9913  126.5759   75.0186 H   0  0  0  0  0  0  0  0  0  0  0  0
  129.8753  127.5919   75.8366 H   0  0  0  0  0  0  0  0  0  0  0  0
  126.4428  132.9236   72.9278 H   0  0  0  0  0  0  0  0  0  0  0  0
  126.9526  134.4665   73.7375 H   0  0  0  0  0  0  0  0  0  0  0  0
  128.9430  135.1540   73.5510 H   0  0  0  0  0  0  0  0  0  0  0  0
  129.9092  134.6958   70.5896 H   0  0  0  0  0  0  0  0  0  0  0  0
  132.1741  135.0204   69.5990 H   0  0  0  0  0  0  0  0  0  0  0  0
  134.1826  135.0168   71.0694 H   0  0  0  0  0  0  0  0  0  0  0  0
  133.9466  134.6854   73.5248 H   0  0  0  0  0  0  0  0  0  0  0  0
  131.6834  134.3643   74.5244 H   0  0  0  0  0  0  0  0  0  0  0  0
  1  2  1  0
  2  3  2  0
  3  4  1  0
  4  5  1  0
  5  6  2  0
  6  7  1  0
  7  8  2  0
  8  9  1  0
  9 10  2  0
  4 11  2  0
 11 12  1  0
 12 13  1  0
 13 14  1  0
 14 15  1  0
 15 16  2  0
 15 17  1  0
 17 18  1  0
 18 19  2  0
 19 20  1  0
 20 21  2  0
 21 22  1  0
 22 23  2  0
 12 24  2  0
 24 25  1  0
 25 26  3  0
 24  2  1  0
 10  5  1  0
 23 18  1  0
  1 27  1  0
  1 28  1  0
  1 29  1  0
  3 30  1  0
  6 31  1  0
  7 32  1  0
  8 33  1  0
  9 34  1  0
 10 35  1  0
 14 36  1  0
 14 37  1  0
 17 38  1  0
 19 39  1  0
 20 40  1  0
 21 41  1  0
 22 42  1  0
 23 43  1  0
M  END
>  <Binding energies>  (1) 
[-8.6]

>  <Ligand effiencies>  (1) 
[-0.3185185185185185]

>  <Interactions>  (1) 
["H-A:LYS:547:NZ:4951, V-B:LYS:547:CG:9920, V-B:HIS:456:CD2:9040, V-A:LYS:547:CE:4950, V-A:HIS:456:CB:4065, V-A:HIS:456:CD2:4068, V-B:LYS:547:CD:9921, V-B:HIS:456:CG:9038, V-B:HIS:456:CB:9037, V-B:VAL:457:C:9045, V-A:HIS:456:CG:4066, V-A:GLY:544:C:4912, V-B:VAL:458:CG2:9059, V-B:ASP:473:CB:9211, V-B:ASP:473:CG:9212, V-A:HIS:456:CE1:4070, V-A:GLU:543:C:4902, V-A:GLY:544:CA:4914, V-B:LYS:547:CE:9922, V-B:HIS:456:C:9033, H-B:VAL:457:N:9048, V-B:VAL:457:CA:9047, V-B:TYR:484:CB:9313, V-B:TYR:484:C:9309, V-B:HIS:456:CA:9035, V-A:VAL:542:CG1:4899, H-B:ASP:473:OD2:9214, H-B:LEU:472:N:9201, H-B:TYR:484:O:9310, V-A:VAL:542:C:4894"]

$$$$
3be_Grossjean_2025
     RDKit          3D

 45 47  0  0  0  0  0  0  0  0999 V2000
  123.6060  129.5300   67.3810 C   0  0  0  0  0  0  0  0  0  0  0  0
  124.4620  129.3360   66.1450 C   0  0  0  0  0  0  0  0  0  0  0  0
  125.7670  128.8440   66.2290 C   0  0  0  0  0  0  0  0  0  0  0  0
  126.4980  128.6940   65.0510 C   0  0  0  0  0  0  0  0  0  0  0  0
  125.9130  129.0350   63.8280 C   0  0  0  0  0  0  0  0  0  0  0  0
  124.6010  129.5190   63.8140 C   0  0  0  0  0  0  0  0  0  0  0  0
  124.0720  129.8550   62.5540 N   0  0  0  0  0  0  0  0  0  0  0  0
  124.0650  131.0540   61.9330 C   0  0  0  0  0  0  0  0  0  0  0  0
  124.5380  132.0900   62.4040 O   0  0  0  0  0  0  0  0  0  0  0  0
  123.4050  131.0550   60.5440 C   0  0  0  0  0  0  0  0  0  0  0  0
  124.5380  131.3680   59.1480 S   0  0  0  0  0  0  0  0  0  0  0  0
  125.8850  132.3670   59.7410 C   0  0  0  0  0  0  0  0  0  0  0  0
  127.1040  131.8080   59.5440 N   0  0  0  0  0  0  0  0  0  0  0  0
  128.2240  132.4660   59.9460 C   0  0  0  0  0  0  0  0  0  0  0  0
  129.5320  131.7730   59.7040 C   0  0  0  0  0  0  0  0  0  0  0  0
  129.9610  131.4850   58.3980 C   0  0  0  0  0  0  0  0  0  0  0  0
  131.1720  130.8400   58.1670 C   0  0  0  0  0  0  0  0  0  0  0  0
  131.9740  130.4710   59.2410 C   0  0  0  0  0  0  0  0  0  0  0  0
  131.5720  130.7420   60.5440 C   0  0  0  0  0  0  0  0  0  0  0  0
  130.3590  131.3870   60.7720 C   0  0  0  0  0  0  0  0  0  0  0  0
  128.1370  133.7160   60.5670 C   0  0  0  0  0  0  0  0  0  0  0  0
  126.8890  134.3180   60.7560 C   0  0  0  0  0  0  0  0  0  0  0  0
  126.8440  135.6920   61.4230 C   0  0  0  0  0  0  0  0  0  0  0  0
  125.7250  133.6430   60.3270 C   0  0  0  0  0  0  0  0  0  0  0  0
  124.4130  134.2790   60.4660 C   0  0  0  0  0  0  0  0  0  0  0  0
  123.3770  134.7830   60.5760 N   0  0  0  0  0  0  0  0  0  0  0  0
  123.8810  129.6710   64.9650 N   0  0  0  0  0  0  0  0  0  0  0  0
  124.2236  129.3900   68.2804 H   0  0  0  0  0  0  0  0  0  0  0  0
  123.1851  130.5463   67.3797 H   0  0  0  0  0  0  0  0  0  0  0  0
  122.7881  128.7944   67.3797 H   0  0  0  0  0  0  0  0  0  0  0  0
  126.2076  128.5810   67.2020 H   0  0  0  0  0  0  0  0  0  0  0  0
  127.5282  128.3099   65.0839 H   0  0  0  0  0  0  0  0  0  0  0  0
  126.4767  128.9242   62.8899 H   0  0  0  0  0  0  0  0  0  0  0  0
  123.6190  129.0930   62.0710 H   0  0  0  0  0  0  0  0  0  0  0  0
  122.9366  130.0719   60.3887 H   0  0  0  0  0  0  0  0  0  0  0  0
  122.6861  131.8876   60.5473 H   0  0  0  0  0  0  0  0  0  0  0  0
  129.3299  131.7738   57.5446 H   0  0  0  0  0  0  0  0  0  0  0  0
  131.4938  130.6227   57.1378 H   0  0  0  0  0  0  0  0  0  0  0  0
  132.9319  129.9618   59.0588 H   0  0  0  0  0  0  0  0  0  0  0  0
  132.2092  130.4482   61.3911 H   0  0  0  0  0  0  0  0  0  0  0  0
  130.0435  131.5975   61.8045 H   0  0  0  0  0  0  0  0  0  0  0  0
  129.0505  134.2259   60.9069 H   0  0  0  0  0  0  0  0  0  0  0  0
  126.8480  135.5692   62.5161 H   0  0  0  0  0  0  0  0  0  0  0  0
  127.7235  136.2773   61.1165 H   0  0  0  0  0  0  0  0  0  0  0  0
  125.9281  136.2185   61.1165 H   0  0  0  0  0  0  0  0  0  0  0  0
  1  2  1  0
  2  3  2  0
  3  4  1  0
  4  5  2  0
  5  6  1  0
  6  7  1  0
  7  8  1  0
  8  9  2  0
  8 10  1  0
 10 11  1  0
 11 12  1  0
 12 13  2  0
 13 14  1  0
 14 15  1  0
 15 16  2  0
 16 17  1  0
 17 18  2  0
 18 19  1  0
 19 20  2  0
 14 21  2  0
 21 22  1  0
 22 23  1  0
 22 24  2  0
 24 25  1  0
 25 26  3  0
  6 27  2  0
 27  2  1  0
 24 12  1  0
 20 15  1  0
  1 28  1  0
  1 29  1  0
  1 30  1  0
  3 31  1  0
  4 32  1  0
  5 33  1  0
  7 34  1  0
 10 35  1  0
 10 36  1  0
 16 37  1  0
 17 38  1  0
 18 39  1  0
 19 40  1  0
 20 41  1  0
 21 42  1  0
 23 43  1  0
 23 44  1  0
 23 45  1  0
M  END
>  <Binding energies>  (1) 
[-8.04]

>  <Ligand effiencies>  (1) 
[-0.2871428571428571]

>  <Interactions>  (1) 
["V-B:GLU:543:CD:9880, V-B:ILE:369:CD1:8211, V-A:TYR:539:CE1:4875, V-A:PRO:540:CA:4883, V-A:ALA:541:CB:4892, V-A:TYR:539:CD1:4873, V-B:ILE:369:CG2:8209, V-B:ARG:545:CZ:9898, V-A:PRO:540:C:4881, V-B:LEU:475:CD2:9231, H-B:GLY:454:N:9022, H-B:ARG:545:NE:9896, H-B:TYR:484:OH:9320, V-B:ILE:455:C:9024, V-A:TYR:539:C:4867, V-B:ARG:545:CD:9895, H-B:ARG:545:NH1:9899, V-B:HIS:456:CE1:9042, V-B:ARG:545:CG:9894, V-B:ARG:545:CB:9893, V-A:ASP:366:CG:3213, V-B:TYR:484:CE1:9317, V-B:TYR:484:CZ:9319, V-B:ASP:366:CG:8185, V-B:ASP:366:CA:8182, H-B:ASP:366:OD2:8187, H-B:ASP:366:OD1:8186, H-B:SER:385:OG:8382, V-B:LEU:475:CG:9229"]

$$$$
3bf_Grossjean_2025
     RDKit          3D

 42 44  0  0  0  0  0  0  0  0999 V2000
  124.2820  127.9200   75.2470 C   0  0  0  0  0  0  0  0  0  0  0  0
  125.5530  128.7560   75.1070 C   0  0  0  0  0  0  0  0  0  0  0  0
  126.7110  128.1220   74.6480 C   0  0  0  0  0  0  0  0  0  0  0  0
  127.8940  128.8540   74.4910 C   0  0  0  0  0  0  0  0  0  0  0  0
  129.1630  128.2390   73.9830 C   0  0  0  0  0  0  0  0  0  0  0  0
  129.5370  128.3790   72.6370 C   0  0  0  0  0  0  0  0  0  0  0  0
  130.7140  127.8100   72.1570 C   0  0  0  0  0  0  0  0  0  0  0  0
  131.5350  127.0920   73.0200 C   0  0  0  0  0  0  0  0  0  0  0  0
  131.1860  126.9380   74.3580 C   0  0  0  0  0  0  0  0  0  0  0  0
  130.0080  127.5070   74.8330 C   0  0  0  0  0  0  0  0  0  0  0  0
  127.9350  130.1820   74.7810 N   0  0  0  0  0  0  0  0  0  0  0  0
  126.8270  130.8050   75.2510 C   0  0  0  0  0  0  0  0  0  0  0  0
  127.0690  132.5380   75.5810 S   0  0  0  0  0  0  0  0  0  0  0  0
  127.1090  133.4180   73.9830 C   0  0  0  0  0  0  0  0  0  0  0  0
  128.4060  133.2490   73.1780 C   0  0  0  0  0  0  0  0  0  0  0  0
  128.7040  132.1590   72.6880 O   0  0  0  0  0  0  0  0  0  0  0  0
  129.1350  134.3780   73.0430 N   0  0  0  0  0  0  0  0  0  0  0  0
  130.3650  134.5610   72.3820 C   0  0  0  0  0  0  0  0  0  0  0  0
  131.5270  134.4330   73.1500 C   0  0  0  0  0  0  0  0  0  0  0  0
  132.7780  134.5900   72.5500 C   0  0  0  0  0  0  0  0  0  0  0  0
  132.8320  134.8680   71.1840 C   0  0  0  0  0  0  0  0  0  0  0  0
  131.7220  134.9860   70.4130 N   0  0  0  0  0  0  0  0  0  0  0  0
  130.5120  134.8310   71.0100 C   0  0  0  0  0  0  0  0  0  0  0  0
  125.5950  130.1330   75.4150 C   0  0  0  0  0  0  0  0  0  0  0  0
  124.3800  130.8280   75.8500 C   0  0  0  0  0  0  0  0  0  0  0  0
  123.4200  131.3750   76.1950 N   0  0  0  0  0  0  0  0  0  0  0  0
  124.0564  127.7716   76.3133 H   0  0  0  0  0  0  0  0  0  0  0  0
  123.4437  128.4436   74.7642 H   0  0  0  0  0  0  0  0  0  0  0  0
  124.4308  126.9429   74.7642 H   0  0  0  0  0  0  0  0  0  0  0  0
  126.6928  127.0482   74.4102 H   0  0  0  0  0  0  0  0  0  0  0  0
  128.8907  128.9466   71.9513 H   0  0  0  0  0  0  0  0  0  0  0  0
  130.9932  127.9280   71.0996 H   0  0  0  0  0  0  0  0  0  0  0  0
  132.4657  126.6433   72.6425 H   0  0  0  0  0  0  0  0  0  0  0  0
  131.8380  126.3692   75.0372 H   0  0  0  0  0  0  0  0  0  0  0  0
  129.7345  127.3814   75.8910 H   0  0  0  0  0  0  0  0  0  0  0  0
  126.2758  133.0464   73.3685 H   0  0  0  0  0  0  0  0  0  0  0  0
  127.0341  134.4892   74.2215 H   0  0  0  0  0  0  0  0  0  0  0  0
  128.7340  135.2220   73.4240 H   0  0  0  0  0  0  0  0  0  0  0  0
  131.4554  134.2091   74.2246 H   0  0  0  0  0  0  0  0  0  0  0  0
  133.7007  134.4965   73.1415 H   0  0  0  0  0  0  0  0  0  0  0  0
  133.8170  134.9971   70.7117 H   0  0  0  0  0  0  0  0  0  0  0  0
  129.6062  134.9207   70.3923 H   0  0  0  0  0  0  0  0  0  0  0  0
  1  2  1  0
  2  3  2  0
  3  4  1  0
  4  5  1  0
  5  6  2  0
  6  7  1  0
  7  8  2  0
  8  9  1  0
  9 10  2  0
  4 11  2  0
 11 12  1  0
 12 13  1  0
 13 14  1  0
 14 15  1  0
 15 16  2  0
 15 17  1  0
 17 18  1  0
 18 19  2  0
 19 20  1  0
 20 21  2  0
 21 22  1  0
 22 23  2  0
 12 24  2  0
 24 25  1  0
 25 26  3  0
 24  2  1  0
 10  5  1  0
 23 18  1  0
  1 27  1  0
  1 28  1  0
  1 29  1  0
  3 30  1  0
  6 31  1  0
  7 32  1  0
  8 33  1  0
  9 34  1  0
 10 35  1  0
 14 36  1  0
 14 37  1  0
 17 38  1  0
 19 39  1  0
 20 40  1  0
 21 41  1  0
 23 42  1  0
M  END
>  <Binding energies>  (1) 
[-8.38]

>  <Ligand effiencies>  (1) 
[-0.3103703703703704]

>  <Interactions>  (1) 
["H-A:LYS:547:NZ:4951, V-B:LYS:547:CG:9920, V-B:HIS:456:CD2:9040, V-A:LYS:547:CE:4950, V-A:HIS:456:CB:4065, V-A:HIS:456:CD2:4068, V-B:LYS:547:CD:9921, V-B:HIS:456:CB:9037, V-B:VAL:457:C:9045, V-A:HIS:456:CG:4066, V-A:GLY:544:C:4912, V-B:VAL:458:CG2:9059, V-B:ASP:473:CB:9211, V-B:ASP:473:CG:9212, V-A:HIS:456:CE1:4070, V-A:GLU:543:C:4902, V-A:GLY:544:CA:4914, V-B:LYS:547:CE:9922, H-A:GLY:544:N:4915, V-B:HIS:456:C:9033, H-B:VAL:457:N:9048, V-B:TYR:484:CA:9311, V-B:VAL:457:CA:9047, V-B:TYR:484:CB:9313, V-B:TYR:484:C:9309, V-A:VAL:542:CG1:4899, H-B:ASP:473:OD2:9214, H-B:LEU:472:N:9201, H-B:TYR:484:O:9310, V-B:TYR:484:CD2:9316"]

$$$$
3bg_Grossjean_2025
     RDKit          3D

 46 48  0  0  0  0  0  0  0  0999 V2000
  125.9630  133.1000   61.6220 C   0  0  0  0  0  0  0  0  0  0  0  0
  126.9970  132.0100   61.9000 C   0  0  0  0  0  0  0  0  0  0  0  0
  128.2780  132.1620   61.3620 C   0  0  0  0  0  0  0  0  0  0  0  0
  129.2590  131.1890   61.5990 C   0  0  0  0  0  0  0  0  0  0  0  0
  130.6590  131.2970   61.0600 C   0  0  0  0  0  0  0  0  0  0  0  0
  131.7520  131.5020   61.9180 C   0  0  0  0  0  0  0  0  0  0  0  0
  133.0510  131.5840   61.4250 C   0  0  0  0  0  0  0  0  0  0  0  0
  133.2790  131.4650   60.0580 C   0  0  0  0  0  0  0  0  0  0  0  0
  132.2160  131.2740   59.1840 C   0  0  0  0  0  0  0  0  0  0  0  0
  130.9190  131.1940   59.6820 C   0  0  0  0  0  0  0  0  0  0  0  0
  128.9820  130.1020   62.3670 N   0  0  0  0  0  0  0  0  0  0  0  0
  127.7440  129.9410   62.9000 C   0  0  0  0  0  0  0  0  0  0  0  0
  127.5210  128.4890   63.9160 S   0  0  0  0  0  0  0  0  0  0  0  0
  126.8430  129.0160   65.5240 C   0  0  0  0  0  0  0  0  0  0  0  0
  127.9440  129.2170   66.5690 C   0  0  0  0  0  0  0  0  0  0  0  0
  128.2330  130.3540   66.9450 O   0  0  0  0  0  0  0  0  0  0  0  0
  128.5630  128.1070   67.0080 N   0  0  0  0  0  0  0  0  0  0  0  0
  129.7530  128.0780   67.8590 C   0  0  0  0  0  0  0  0  0  0  0  0
  129.4090  127.7240   69.3010 C   0  0  0  0  0  0  0  0  0  0  0  0
  128.3250  126.8840   69.5770 C   0  0  0  0  0  0  0  0  0  0  0  0
  128.0050  126.5690   70.8930 C   0  0  0  0  0  0  0  0  0  0  0  0
  128.7780  127.0850   71.9330 C   0  0  0  0  0  0  0  0  0  0  0  0
  129.8710  127.9060   71.6660 C   0  0  0  0  0  0  0  0  0  0  0  0
  130.1900  128.2210   70.3470 C   0  0  0  0  0  0  0  0  0  0  0  0
  126.7080  130.8740   62.6850 C   0  0  0  0  0  0  0  0  0  0  0  0
  125.3770  130.6910   63.2690 C   0  0  0  0  0  0  0  0  0  0  0  0
  124.3250  130.5480   63.7290 N   0  0  0  0  0  0  0  0  0  0  0  0
  125.5850  133.4985   62.5751 H   0  0  0  0  0  0  0  0  0  0  0  0
  126.4314  133.9113   61.0454 H   0  0  0  0  0  0  0  0  0  0  0  0
  125.1282  132.6750   61.0454 H   0  0  0  0  0  0  0  0  0  0  0  0
  128.5166  133.0458   60.7521 H   0  0  0  0  0  0  0  0  0  0  0  0
  131.5781  131.5996   62.9998 H   0  0  0  0  0  0  0  0  0  0  0  0
  133.8940  131.7423   62.1137 H   0  0  0  0  0  0  0  0  0  0  0  0
  134.3056  131.5224   59.6671 H   0  0  0  0  0  0  0  0  0  0  0  0
  132.3988  131.1864   58.1028 H   0  0  0  0  0  0  0  0  0  0  0  0
  130.0813  131.0474   58.9844 H   0  0  0  0  0  0  0  0  0  0  0  0
  126.3034  129.9650   65.3887 H   0  0  0  0  0  0  0  0  0  0  0  0
  126.1694  128.2252   65.8859 H   0  0  0  0  0  0  0  0  0  0  0  0
  128.2620  127.2170   66.6390 H   0  0  0  0  0  0  0  0  0  0  0  0
  130.4539  127.3271   67.4655 H   0  0  0  0  0  0  0  0  0  0  0  0
  130.2034  129.0815   67.8514 H   0  0  0  0  0  0  0  0  0  0  0  0
  127.7251  126.4722   68.7521 H   0  0  0  0  0  0  0  0  0  0  0  0
  127.1471  125.9165   71.1126 H   0  0  0  0  0  0  0  0  0  0  0  0
  128.5218  126.8411   72.9746 H   0  0  0  0  0  0  0  0  0  0  0  0
  130.4790  128.3035   72.4921 H   0  0  0  0  0  0  0  0  0  0  0  0
  131.0574  128.8615   70.1291 H   0  0  0  0  0  0  0  0  0  0  0  0
  1  2  1  0
  2  3  2  0
  3  4  1  0
  4  5  1  0
  5  6  2  0
  6  7  1  0
  7  8  2  0
  8  9  1  0
  9 10  2  0
  4 11  2  0
 11 12  1  0
 12 13  1  0
 13 14  1  0
 14 15  1  0
 15 16  2  0
 15 17  1  0
 17 18  1  0
 18 19  1  0
 19 20  2  0
 20 21  1  0
 21 22  2  0
 22 23  1  0
 23 24  2  0
 12 25  2  0
 25 26  1  0
 26 27  3  0
 25  2  1  0
 10  5  1  0
 24 19  1  0
  1 28  1  0
  1 29  1  0
  1 30  1  0
  3 31  1  0
  6 32  1  0
  7 33  1  0
  8 34  1  0
  9 35  1  0
 10 36  1  0
 14 37  1  0
 14 38  1  0
 17 39  1  0
 18 40  1  0
 18 41  1  0
 20 42  1  0
 21 43  1  0
 22 44  1  0
 23 45  1  0
 24 46  1  0
M  END
>  <Binding energies>  (1) 
[-8.02]

>  <Ligand effiencies>  (1) 
[-0.2864285714285714]

>  <Interactions>  (1) 
["H-B:GLU:543:OE2:9882, V-A:GLU:543:CD:4908, V-A:PRO:540:CA:4883, V-A:ALA:541:CB:4892, V-A:GLU:543:CG:4907, V-B:LEU:475:CD2:9231, V-A:ALA:541:CA:4890, H-B:GLY:454:N:9022, H-B:TYR:484:OH:9320, V-A:ASN:362:CB:3176, V-B:HIS:456:CE1:9042, V-A:PRO:540:CB:4885, V-B:HIS:456:CD2:9040, V-A:HIS:456:CD2:4068, V-B:GLY:544:C:9884, V-A:GLY:544:C:4912, V-A:ASP:366:CG:3213, V-B:TYR:484:CZ:9319, V-A:HIS:456:CE1:4070, V-A:ASN:362:C:3172, V-A:ALA:541:C:4888, V-A:GLU:543:CB:4906, V-A:GLU:543:C:4902"]

$$$$
3bk_Grossjean_2025
     RDKit          3D

 57 58  0  0  0  0  0  0  0  0999 V2000
  125.2730  123.2810   61.7660 C   0  0  0  0  0  0  0  0  0  0  0  0
  126.3110  122.6820   62.5270 O   0  0  0  0  0  0  0  0  0  0  0  0
  127.5190  122.5090   61.7980 C   0  0  0  0  0  0  0  0  0  0  0  0
  128.7120  122.9150   62.6750 C   0  0  0  0  0  0  0  0  0  0  0  0
  129.8860  122.2730   62.1990 O   0  0  0  0  0  0  0  0  0  0  0  0
  129.7560  120.8640   62.0620 C   0  0  0  0  0  0  0  0  0  0  0  0
  130.5340  120.4010   60.8240 C   0  0  0  0  0  0  0  0  0  0  0  0
  131.3220  121.4760   60.3330 O   0  0  0  0  0  0  0  0  0  0  0  0
  132.7220  121.2840   60.4930 C   0  0  0  0  0  0  0  0  0  0  0  0
  133.3720  122.6030   60.9350 C   0  0  0  0  0  0  0  0  0  0  0  0
  132.4120  123.5150   61.5600 N   0  0  0  0  0  0  0  0  0  0  0  0
  132.7100  124.4570   62.4710 C   0  0  0  0  0  0  0  0  0  0  0  0
  133.8520  124.6770   62.8780 O   0  0  0  0  0  0  0  0  0  0  0  0
  131.5420  125.3010   62.9860 C   0  0  0  0  0  0  0  0  0  0  0  0
  131.0940  126.6270   61.8220 S   0  0  0  0  0  0  0  0  0  0  0  0
  129.3790  126.4400   61.3610 C   0  0  0  0  0  0  0  0  0  0  0  0
  128.5040  127.2710   61.9820 N   0  0  0  0  0  0  0  0  0  0  0  0
  127.1770  127.1980   61.6970 C   0  0  0  0  0  0  0  0  0  0  0  0
  126.2830  128.1660   62.4120 C   0  0  0  0  0  0  0  0  0  0  0  0
  125.3440  128.9330   61.7040 C   0  0  0  0  0  0  0  0  0  0  0  0
  124.5150  129.8370   62.3630 C   0  0  0  0  0  0  0  0  0  0  0  0
  124.6130  129.9860   63.7420 C   0  0  0  0  0  0  0  0  0  0  0  0
  125.5330  129.2350   64.4670 C   0  0  0  0  0  0  0  0  0  0  0  0
  126.3590  128.3310   63.8050 C   0  0  0  0  0  0  0  0  0  0  0  0
  126.6950  126.2770   60.7600 C   0  0  0  0  0  0  0  0  0  0  0  0
  127.5830  125.4120   60.1110 C   0  0  0  0  0  0  0  0  0  0  0  0
  127.0140  124.4210   59.0960 C   0  0  0  0  0  0  0  0  0  0  0  0
  128.9600  125.4850   60.4100 C   0  0  0  0  0  0  0  0  0  0  0  0
  129.9130  124.5940   59.7440 C   0  0  0  0  0  0  0  0  0  0  0  0
  130.6660  123.8890   59.2180 N   0  0  0  0  0  0  0  0  0  0  0  0
  124.5234  123.7136   62.4449 H   0  0  0  0  0  0  0  0  0  0  0  0
  125.6946  124.0747   61.1317 H   0  0  0  0  0  0  0  0  0  0  0  0
  124.7967  122.5189   61.1317 H   0  0  0  0  0  0  0  0  0  0  0  0
  127.6221  121.4537   61.5053 H   0  0  0  0  0  0  0  0  0  0  0  0
  127.4959  123.1402   60.8974 H   0  0  0  0  0  0  0  0  0  0  0  0
  128.8462  124.0059   62.6303 H   0  0  0  0  0  0  0  0  0  0  0  0
  128.5234  122.6126   63.7157 H   0  0  0  0  0  0  0  0  0  0  0  0
  130.1611  120.3689   62.9569 H   0  0  0  0  0  0  0  0  0  0  0  0
  128.6938  120.6013   61.9492 H   0  0  0  0  0  0  0  0  0  0  0  0
  131.1889  119.5599   61.0954 H   0  0  0  0  0  0  0  0  0  0  0  0
  129.8273  120.0778   60.0455 H   0  0  0  0  0  0  0  0  0  0  0  0
  132.9015  120.5128   61.2566 H   0  0  0  0  0  0  0  0  0  0  0  0
  133.1597  120.9618   59.5366 H   0  0  0  0  0  0  0  0  0  0  0  0
  134.1695  122.3790   61.6587 H   0  0  0  0  0  0  0  0  0  0  0  0
  133.7707  123.0984   60.0374 H   0  0  0  0  0  0  0  0  0  0  0  0
  131.4590  123.4410   61.2360 H   0  0  0  0  0  0  0  0  0  0  0  0
  130.6694  124.6476   63.1331 H   0  0  0  0  0  0  0  0  0  0  0  0
  131.8521  125.7693   63.9318 H   0  0  0  0  0  0  0  0  0  0  0  0
  125.2621  128.8181   60.6131 H   0  0  0  0  0  0  0  0  0  0  0  0
  123.7847  130.4315   61.7944 H   0  0  0  0  0  0  0  0  0  0  0  0
  123.9596  130.7015   64.2626 H   0  0  0  0  0  0  0  0  0  0  0  0
  125.6072  129.3550   65.5579 H   0  0  0  0  0  0  0  0  0  0  0  0
  127.0827  127.7364   64.3818 H   0  0  0  0  0  0  0  0  0  0  0  0
  125.6194  126.2331   60.5340 H   0  0  0  0  0  0  0  0  0  0  0  0
  126.5346  123.5860   59.6279 H   0  0  0  0  0  0  0  0  0  0  0  0
  126.2701  124.9291   58.4648 H   0  0  0  0  0  0  0  0  0  0  0  0
  127.8278  124.0347   58.4648 H   0  0  0  0  0  0  0  0  0  0  0  0
  1  2  1  0
  2  3  1  0
  3  4  1  0
  4  5  1  0
  5  6  1  0
  6  7  1  0
  7  8  1  0
  8  9  1  0
  9 10  1  0
 10 11  1  0
 11 12  1  0
 12 13  2  0
 12 14  1  0
 14 15  1  0
 15 16  1  0
 16 17  2  0
 17 18  1  0
 18 19  1  0
 19 20  2  0
 20 21  1  0
 21 22  2  0
 22 23  1  0
 23 24  2  0
 18 25  2  0
 25 26  1  0
 26 27  1  0
 26 28  2  0
 28 29  1  0
 29 30  3  0
 28 16  1  0
 24 19  1  0
  1 31  1  0
  1 32  1  0
  1 33  1  0
  3 34  1  0
  3 35  1  0
  4 36  1  0
  4 37  1  0
  6 38  1  0
  6 39  1  0
  7 40  1  0
  7 41  1  0
  9 42  1  0
  9 43  1  0
 10 44  1  0
 10 45  1  0
 11 46  1  0
 14 47  1  0
 14 48  1  0
 20 49  1  0
 21 50  1  0
 22 51  1  0
 23 52  1  0
 24 53  1  0
 25 54  1  0
 27 55  1  0
 27 56  1  0
 27 57  1  0
M  END
>  <Binding energies>  (1) 
[-5.39]

>  <Ligand effiencies>  (1) 
[-0.17387096774193547]

>  <Interactions>  (1) 
["V-B:ALA:541:CB:9864, V-B:TYR:539:CD2:9846, V-B:GLU:543:CG:9879, V-A:TYR:484:CE1:4345, V-A:LEU:475:CD2:4259, V-B:GLU:543:CD:9880, V-A:ILE:369:CG2:3237, V-B:TYR:539:CE2:9848, V-B:PRO:540:C:9853, V-B:PRO:540:CA:9855, H-A:TYR:484:OH:4348, V-B:ARG:545:CZ:9898, V-A:ILE:369:CD1:3239, V-B:ASP:366:CG:8185, H-B:ALA:541:N:9863, H-A:GLY:454:N:4050, V-B:PRO:540:CB:9857, H-A:ARG:545:NH2:4928"]

$$$$
3ca_Grossjean_2025
     RDKit          3D

 52 54  0  0  0  0  0  0  0  0999 V2000
  132.9930  126.9740   73.8140 C   0  0  0  0  0  0  0  0  0  0  0  0
  131.5560  127.4890   73.9300 C   0  0  0  0  0  0  0  0  0  0  0  0
  130.7180  126.7560   73.0440 O   0  0  0  0  0  0  0  0  0  0  0  0
  129.4940  127.2230   72.6900 C   0  0  0  0  0  0  0  0  0  0  0  0
  128.5970  127.4670   73.5030 O   0  0  0  0  0  0  0  0  0  0  0  0
  129.3390  127.4200   71.2090 C   0  0  0  0  0  0  0  0  0  0  0  0
  128.3810  126.6690   70.5160 C   0  0  0  0  0  0  0  0  0  0  0  0
  128.2130  126.8290   69.1430 C   0  0  0  0  0  0  0  0  0  0  0  0
  129.0040  127.7350   68.4340 C   0  0  0  0  0  0  0  0  0  0  0  0
  128.7520  127.8180   67.0520 N   0  0  0  0  0  0  0  0  0  0  0  0
  128.4340  128.8920   66.2970 C   0  0  0  0  0  0  0  0  0  0  0  0
  128.3230  130.0460   66.7110 O   0  0  0  0  0  0  0  0  0  0  0  0
  128.2240  128.6060   64.8060 C   0  0  0  0  0  0  0  0  0  0  0  0
  126.9310  129.6460   64.0500 S   0  0  0  0  0  0  0  0  0  0  0  0
  127.6820  130.8700   62.9860 C   0  0  0  0  0  0  0  0  0  0  0  0
  128.9560  130.6100   62.5980 N   0  0  0  0  0  0  0  0  0  0  0  0
  129.5800  131.4820   61.7760 C   0  0  0  0  0  0  0  0  0  0  0  0
  130.9930  131.1120   61.3740 C   0  0  0  0  0  0  0  0  0  0  0  0
  128.9710  132.6500   61.3220 C   0  0  0  0  0  0  0  0  0  0  0  0
  127.6630  132.9500   61.7220 C   0  0  0  0  0  0  0  0  0  0  0  0
  127.0550  134.2200   61.2210 C   0  0  0  0  0  0  0  0  0  0  0  0
  125.7860  134.2060   60.6310 C   0  0  0  0  0  0  0  0  0  0  0  0
  125.2160  135.3830   60.1520 C   0  0  0  0  0  0  0  0  0  0  0  0
  125.9180  136.5810   60.2580 C   0  0  0  0  0  0  0  0  0  0  0  0
  127.1840  136.6110   60.8360 C   0  0  0  0  0  0  0  0  0  0  0  0
  127.7510  135.4320   61.3130 C   0  0  0  0  0  0  0  0  0  0  0  0
  126.9910  132.0340   62.5720 C   0  0  0  0  0  0  0  0  0  0  0  0
  125.6030  132.2690   62.9820 C   0  0  0  0  0  0  0  0  0  0  0  0
  124.5070  132.4560   63.3060 N   0  0  0  0  0  0  0  0  0  0  0  0
  129.9610  128.4970   69.1220 C   0  0  0  0  0  0  0  0  0  0  0  0
  130.1250  128.3370   70.4960 C   0  0  0  0  0  0  0  0  0  0  0  0
  133.4111  126.8241   74.8203 H   0  0  0  0  0  0  0  0  0  0  0  0
  132.9972  126.0184   73.2692 H   0  0  0  0  0  0  0  0  0  0  0  0
  133.6032  127.7094   73.2692 H   0  0  0  0  0  0  0  0  0  0  0  0
  131.2015  127.3579   74.9630 H   0  0  0  0  0  0  0  0  0  0  0  0
  131.5258  128.5563   73.6654 H   0  0  0  0  0  0  0  0  0  0  0  0
  127.7559  125.9465   71.0612 H   0  0  0  0  0  0  0  0  0  0  0  0
  127.4518  126.2374   68.6133 H   0  0  0  0  0  0  0  0  0  0  0  0
  128.8780  126.9490   66.5550 H   0  0  0  0  0  0  0  0  0  0  0  0
  129.1718  128.7879   64.2783 H   0  0  0  0  0  0  0  0  0  0  0  0
  127.8955  127.5600   64.7170 H   0  0  0  0  0  0  0  0  0  0  0  0
  131.6012  130.9527   62.2766 H   0  0  0  0  0  0  0  0  0  0  0  0
  130.9744  130.1885   60.7767 H   0  0  0  0  0  0  0  0  0  0  0  0
  131.4294  131.9262   60.7767 H   0  0  0  0  0  0  0  0  0  0  0  0
  129.5149  133.3329   60.6528 H   0  0  0  0  0  0  0  0  0  0  0  0
  125.2346  133.2581   60.5449 H   0  0  0  0  0  0  0  0  0  0  0  0
  124.2167  135.3664   59.6924 H   0  0  0  0  0  0  0  0  0  0  0  0
  125.4682  137.5117   59.8817 H   0  0  0  0  0  0  0  0  0  0  0  0
  127.7334  137.5607   60.9155 H   0  0  0  0  0  0  0  0  0  0  0  0
  128.7534  135.4527   61.7656 H   0  0  0  0  0  0  0  0  0  0  0  0
  130.5824  129.2216   68.5754 H   0  0  0  0  0  0  0  0  0  0  0  0
  130.8790  128.9362   71.0275 H   0  0  0  0  0  0  0  0  0  0  0  0
  1  2  1  0
  2  3  1  0
  3  4  1  0
  4  5  2  0
  4  6  1  0
  6  7  2  0
  7  8  1  0
  8  9  2  0
  9 10  1  0
 10 11  1  0
 11 12  2  0
 11 13  1  0
 13 14  1  0
 14 15  1  0
 15 16  2  0
 16 17  1  0
 17 18  1  0
 17 19  2  0
 19 20  1  0
 20 21  1  0
 21 22  2  0
 22 23  1  0
 23 24  2  0
 24 25  1  0
 25 26  2  0
 20 27  2  0
 27 28  1  0
 28 29  3  0
  9 30  1  0
 30 31  2  0
 31  6  1  0
 27 15  1  0
 26 21  1  0
  1 32  1  0
  1 33  1  0
  1 34  1  0
  2 35  1  0
  2 36  1  0
  7 37  1  0
  8 38  1  0
 10 39  1  0
 13 40  1  0
 13 41  1  0
 18 42  1  0
 18 43  1  0
 18 44  1  0
 19 45  1  0
 22 46  1  0
 23 47  1  0
 24 48  1  0
 25 49  1  0
 26 50  1  0
 30 51  1  0
 31 52  1  0
M  END
>  <Binding energies>  (1) 
[-8.88]

>  <Ligand effiencies>  (1) 
[-0.2775]

>  <Interactions>  (1) 
["H-B:GLU:543:OE2:9882, V-B:GLU:543:CD:9880, H-A:GLU:543:OE2:4910, V-A:GLU:543:CD:4908, V-A:TYR:539:CE1:4875, V-A:ALA:541:CB:4892, V-A:TYR:539:CD1:4873, V-B:SER:385:CB:8381, V-A:GLU:543:CG:4907, V-A:PRO:540:C:4881, V-B:LEU:475:CD2:9231, V-A:ALA:541:CA:4890, H-B:GLY:454:N:9022, H-B:TYR:484:OH:9320, V-B:HIS:456:CE1:9042, H-B:LYS:547:NZ:9923, V-B:HIS:456:CD2:9040, V-A:LYS:547:CE:4950, V-A:HIS:456:CB:4065, V-A:HIS:456:CD2:4068, V-A:HIS:456:CG:4066, V-A:GLY:544:C:4912, V-B:GLU:543:CB:9878, V-B:PRO:482:CG:9299, V-B:PRO:482:CB:9298, V-A:HIS:456:CE1:4070, V-A:GLU:543:CB:4906, V-A:GLU:543:CA:4904, V-A:GLU:543:C:4902, V-A:GLY:544:CA:4914"]

$$$$
3cb_Grossjean_2025
     RDKit          3D

 49 51  0  0  0  0  0  0  0  0999 V2000
  128.2390  128.5120   74.1370 C   0  0  0  0  0  0  0  0  0  0  0  0
  128.3480  127.4350   73.2190 O   0  0  0  0  0  0  0  0  0  0  0  0
  129.4970  127.2190   72.5280 C   0  0  0  0  0  0  0  0  0  0  0  0
  130.5580  126.8800   73.0600 O   0  0  0  0  0  0  0  0  0  0  0  0
  129.3490  127.4350   71.0490 C   0  0  0  0  0  0  0  0  0  0  0  0
  130.1600  128.3380   70.3440 C   0  0  0  0  0  0  0  0  0  0  0  0
  129.9980  128.5130   68.9730 C   0  0  0  0  0  0  0  0  0  0  0  0
  129.0230  127.7970   68.2770 C   0  0  0  0  0  0  0  0  0  0  0  0
  128.9500  128.0500   66.8930 N   0  0  0  0  0  0  0  0  0  0  0  0
  127.9600  128.6100   66.1650 C   0  0  0  0  0  0  0  0  0  0  0  0
  126.8990  129.0350   66.6250 O   0  0  0  0  0  0  0  0  0  0  0  0
  128.2540  128.7080   64.6600 C   0  0  0  0  0  0  0  0  0  0  0  0
  126.9170  129.4490   63.6610 S   0  0  0  0  0  0  0  0  0  0  0  0
  127.6330  130.7400   62.6660 C   0  0  0  0  0  0  0  0  0  0  0  0
  128.8830  130.4540   62.2290 N   0  0  0  0  0  0  0  0  0  0  0  0
  129.5260  131.3630   61.4620 C   0  0  0  0  0  0  0  0  0  0  0  0
  130.9160  130.9710   60.9990 C   0  0  0  0  0  0  0  0  0  0  0  0
  128.9570  132.5830   61.1090 C   0  0  0  0  0  0  0  0  0  0  0  0
  127.6720  132.9080   61.5630 C   0  0  0  0  0  0  0  0  0  0  0  0
  127.1070  134.2320   61.1620 C   0  0  0  0  0  0  0  0  0  0  0  0
  127.8470  135.4040   61.3630 C   0  0  0  0  0  0  0  0  0  0  0  0
  127.3340  136.6410   60.9830 C   0  0  0  0  0  0  0  0  0  0  0  0
  126.0750  136.7120   60.3930 C   0  0  0  0  0  0  0  0  0  0  0  0
  125.3280  135.5570   60.1790 C   0  0  0  0  0  0  0  0  0  0  0  0
  125.8450  134.3210   60.5580 C   0  0  0  0  0  0  0  0  0  0  0  0
  126.9880  131.9700   62.3800 C   0  0  0  0  0  0  0  0  0  0  0  0
  125.6810  132.2950   62.9590 C   0  0  0  0  0  0  0  0  0  0  0  0
  124.6500  132.5510   63.4160 N   0  0  0  0  0  0  0  0  0  0  0  0
  128.2110  126.8890   68.9730 C   0  0  0  0  0  0  0  0  0  0  0  0
  128.3740  126.7140   70.3450 C   0  0  0  0  0  0  0  0  0  0  0  0
  128.2784  128.1229   75.1651 H   0  0  0  0  0  0  0  0  0  0  0  0
  129.0707  129.2143   73.9787 H   0  0  0  0  0  0  0  0  0  0  0  0
  127.2835  129.0335   73.9787 H   0  0  0  0  0  0  0  0  0  0  0  0
  130.9302  128.9122   70.8798 H   0  0  0  0  0  0  0  0  0  0  0  0
  130.6437  129.2215   68.4334 H   0  0  0  0  0  0  0  0  0  0  0  0
  129.7820  127.7890   66.3830 H   0  0  0  0  0  0  0  0  0  0  0  0
  129.1584  129.3200   64.5278 H   0  0  0  0  0  0  0  0  0  0  0  0
  128.3705  127.6748   64.3009 H   0  0  0  0  0  0  0  0  0  0  0  0
  131.5568  130.7903   61.8746 H   0  0  0  0  0  0  0  0  0  0  0  0
  130.8559  130.0548   60.3933 H   0  0  0  0  0  0  0  0  0  0  0  0
  131.3435  131.7836   60.3933 H   0  0  0  0  0  0  0  0  0  0  0  0
  129.5140  133.2894   60.4760 H   0  0  0  0  0  0  0  0  0  0  0  0
  128.8433  135.3464   61.8257 H   0  0  0  0  0  0  0  0  0  0  0  0
  127.9200  137.5572   61.1479 H   0  0  0  0  0  0  0  0  0  0  0  0
  125.6672  137.6887   60.0935 H   0  0  0  0  0  0  0  0  0  0  0  0
  124.3338  135.6205   59.7126 H   0  0  0  0  0  0  0  0  0  0  0  0
  125.2586  133.4071   60.3821 H   0  0  0  0  0  0  0  0  0  0  0  0
  127.4438  126.3140   68.4338 H   0  0  0  0  0  0  0  0  0  0  0  0
  127.7305  126.0020   70.8825 H   0  0  0  0  0  0  0  0  0  0  0  0
  1  2  1  0
  2  3  1  0
  3  4  2  0
  3  5  1  0
  5  6  2  0
  6  7  1  0
  7  8  2  0
  8  9  1  0
  9 10  1  0
 10 11  2  0
 10 12  1  0
 12 13  1  0
 13 14  1  0
 14 15  2  0
 15 16  1  0
 16 17  1  0
 16 18  2  0
 18 19  1  0
 19 20  1  0
 20 21  2  0
 21 22  1  0
 22 23  2  0
 23 24  1  0
 24 25  2  0
 19 26  2  0
 26 27  1  0
 27 28  3  0
  8 29  1  0
 29 30  2  0
 30  5  1  0
 26 14  1  0
 25 20  1  0
  1 31  1  0
  1 32  1  0
  1 33  1  0
  6 34  1  0
  7 35  1  0
  9 36  1  0
 12 37  1  0
 12 38  1  0
 17 39  1  0
 17 40  1  0
 17 41  1  0
 18 42  1  0
 21 43  1  0
 22 44  1  0
 23 45  1  0
 24 46  1  0
 25 47  1  0
 29 48  1  0
 30 49  1  0
M  END
>  <Binding energies>  (1) 
[-8.06]

>  <Ligand effiencies>  (1) 
[-0.26]

>  <Interactions>  (1) 
["H-B:GLU:543:OE2:9882, V-B:GLU:543:CD:9880, H-A:GLU:543:OE2:4910, V-A:GLU:543:CD:4908, H-A:GLU:543:OE1:4909, V-A:TYR:539:CE1:4875, V-A:PRO:540:CA:4883, V-A:ALA:541:CB:4892, V-A:TYR:539:CD1:4873, V-A:GLU:543:CG:4907, V-A:PRO:540:C:4881, V-B:LEU:475:CD2:9231, V-A:ALA:541:CA:4890, H-B:GLY:454:N:9022, H-B:TYR:484:OH:9320, V-B:HIS:456:CE1:9042, H-B:LYS:547:NZ:9923, V-B:HIS:456:CD2:9040, V-A:HIS:456:CD2:4068, V-A:GLY:544:C:4912, V-B:GLU:543:CB:9878, V-B:PRO:482:CG:9299, V-B:PRO:482:CB:9298, V-A:HIS:456:CE1:4070, V-A:GLU:543:CB:4906, V-A:GLU:543:CA:4904, V-A:GLU:543:C:4902, V-A:GLY:544:CA:4914"]

$$$$
3ce_Grossjean_2025
     RDKit          3D

 45 47  0  0  0  0  0  0  0  0999 V2000
  123.7140  129.5450   67.1250 C   0  0  0  0  0  0  0  0  0  0  0  0
  124.5300  129.3480   65.8620 C   0  0  0  0  0  0  0  0  0  0  0  0
  125.8610  128.9260   65.9090 C   0  0  0  0  0  0  0  0  0  0  0  0
  126.5460  128.7570   64.7070 C   0  0  0  0  0  0  0  0  0  0  0  0
  125.8940  129.0110   63.4980 C   0  0  0  0  0  0  0  0  0  0  0  0
  124.5630  129.4420   63.5220 C   0  0  0  0  0  0  0  0  0  0  0  0
  123.9520  129.6640   62.2760 N   0  0  0  0  0  0  0  0  0  0  0  0
  123.6850  130.8450   61.6750 C   0  0  0  0  0  0  0  0  0  0  0  0
  123.9520  131.9520   62.1430 O   0  0  0  0  0  0  0  0  0  0  0  0
  123.0060  130.7540   60.3090 C   0  0  0  0  0  0  0  0  0  0  0  0
  124.1960  130.9360   58.9470 S   0  0  0  0  0  0  0  0  0  0  0  0
  125.5220  131.9280   59.5930 C   0  0  0  0  0  0  0  0  0  0  0  0
  125.1680  133.2060   59.8730 N   0  0  0  0  0  0  0  0  0  0  0  0
  126.1030  134.0380   60.3860 C   0  0  0  0  0  0  0  0  0  0  0  0
  125.6370  135.4490   60.6890 C   0  0  0  0  0  0  0  0  0  0  0  0
  127.4150  133.6370   60.6230 C   0  0  0  0  0  0  0  0  0  0  0  0
  127.8070  132.3280   60.3150 C   0  0  0  0  0  0  0  0  0  0  0  0
  129.2310  131.9510   60.5630 C   0  0  0  0  0  0  0  0  0  0  0  0
  130.0760  131.6500   59.4880 C   0  0  0  0  0  0  0  0  0  0  0  0
  131.4030  131.2920   59.7120 C   0  0  0  0  0  0  0  0  0  0  0  0
  131.8910  131.2280   61.0140 C   0  0  0  0  0  0  0  0  0  0  0  0
  131.0600  131.5150   62.0950 C   0  0  0  0  0  0  0  0  0  0  0  0
  129.7340  131.8730   61.8680 C   0  0  0  0  0  0  0  0  0  0  0  0
  126.8360  131.4390   59.7880 C   0  0  0  0  0  0  0  0  0  0  0  0
  127.1840  130.0530   59.4610 C   0  0  0  0  0  0  0  0  0  0  0  0
  127.4590  128.9590   59.2030 N   0  0  0  0  0  0  0  0  0  0  0  0
  123.8830  129.6020   64.6960 N   0  0  0  0  0  0  0  0  0  0  0  0
  124.3563  129.3899   68.0044 H   0  0  0  0  0  0  0  0  0  0  0  0
  123.3077  130.5670   67.1433 H   0  0  0  0  0  0  0  0  0  0  0  0
  122.8861  128.8209   67.1433 H   0  0  0  0  0  0  0  0  0  0  0  0
  126.3565  128.7318   66.8717 H   0  0  0  0  0  0  0  0  0  0  0  0
  127.5948  128.4253   64.7104 H   0  0  0  0  0  0  0  0  0  0  0  0
  126.4192  128.8742   62.5412 H   0  0  0  0  0  0  0  0  0  0  0  0
  123.7740  128.8300   61.7360 H   0  0  0  0  0  0  0  0  0  0  0  0
  122.5126  129.7748   60.2217 H   0  0  0  0  0  0  0  0  0  0  0  0
  122.2762  131.5737   60.2358 H   0  0  0  0  0  0  0  0  0  0  0  0
  125.5893  135.5934   61.7784 H   0  0  0  0  0  0  0  0  0  0  0  0
  126.3447  136.1702   60.2542 H   0  0  0  0  0  0  0  0  0  0  0  0
  124.6390  135.6069   60.2542 H   0  0  0  0  0  0  0  0  0  0  0  0
  128.1405  134.3449   61.0502 H   0  0  0  0  0  0  0  0  0  0  0  0
  129.6890  131.6966   58.4594 H   0  0  0  0  0  0  0  0  0  0  0  0
  132.0632  131.0606   58.8631 H   0  0  0  0  0  0  0  0  0  0  0  0
  132.9402  130.9489   61.1908 H   0  0  0  0  0  0  0  0  0  0  0  0
  131.4496  131.4590   63.1222 H   0  0  0  0  0  0  0  0  0  0  0  0
  129.0758  132.0965   62.7205 H   0  0  0  0  0  0  0  0  0  0  0  0
  1  2  1  0
  2  3  2  0
  3  4  1  0
  4  5  2  0
  5  6  1  0
  6  7  1  0
  7  8  1  0
  8  9  2  0
  8 10  1  0
 10 11  1  0
 11 12  1  0
 12 13  2  0
 13 14  1  0
 14 15  1  0
 14 16  2  0
 16 17  1  0
 17 18  1  0
 18 19  2  0
 19 20  1  0
 20 21  2  0
 21 22  1  0
 22 23  2  0
 17 24  2  0
 24 25  1  0
 25 26  3  0
  6 27  2  0
 27  2  1  0
 24 12  1  0
 23 18  1  0
  1 28  1  0
  1 29  1  0
  1 30  1  0
  3 31  1  0
  4 32  1  0
  5 33  1  0
  7 34  1  0
 10 35  1  0
 10 36  1  0
 15 37  1  0
 15 38  1  0
 15 39  1  0
 16 40  1  0
 19 41  1  0
 20 42  1  0
 21 43  1  0
 22 44  1  0
 23 45  1  0
M  END
>  <Binding energies>  (1) 
[-7.94]

>  <Ligand effiencies>  (1) 
[-0.2835714285714286]

>  <Interactions>  (1) 
["V-B:GLU:543:CD:9880, V-A:GLU:543:CD:4908, V-B:ILE:369:CD1:8211, V-A:TYR:539:CE1:4875, V-A:PRO:540:CA:4883, V-A:ALA:541:CB:4892, V-A:TYR:539:CD1:4873, V-A:GLU:543:CG:4907, V-B:ARG:545:CZ:9898, V-B:LEU:475:CD2:9231, V-A:ALA:541:CA:4890, H-B:GLY:454:N:9022, H-B:ARG:545:NE:9896, H-B:TYR:484:OH:9320, V-B:ILE:455:C:9024, V-B:ARG:545:CD:9895, H-B:ARG:545:NH1:9899, V-B:HIS:456:CE1:9042, V-B:ARG:545:CG:9894, V-B:ARG:545:CB:9893, V-A:PRO:540:CB:4885, V-B:TYR:484:CE1:9317, V-B:TYR:484:CZ:9319, V-B:ASP:366:CG:8185, H-B:ARG:545:NH2:9900, V-B:ILE:369:CB:8208, V-B:ASP:366:CA:8182, V-B:ASP:366:CB:8184, H-B:ASP:366:OD2:8187, H-B:ASP:366:OD1:8186"]

$$$$
3ch_Grossjean_2025
     RDKit          3D

 55 57  0  0  0  0  0  0  0  0999 V2000
  124.3040  130.0730   59.9560 C   0  0  0  0  0  0  0  0  0  0  0  0
  125.4150  130.5290   60.7210 O   0  0  0  0  0  0  0  0  0  0  0  0
  125.7060  129.9250   61.9310 C   0  0  0  0  0  0  0  0  0  0  0  0
  126.8230  129.1030   62.1500 C   0  0  0  0  0  0  0  0  0  0  0  0
  127.0590  128.5320   63.4080 C   0  0  0  0  0  0  0  0  0  0  0  0
  128.1510  127.7010   63.7240 N   0  0  0  0  0  0  0  0  0  0  0  0
  128.9300  126.9540   62.9120 C   0  0  0  0  0  0  0  0  0  0  0  0
  128.8200  126.8770   61.6880 O   0  0  0  0  0  0  0  0  0  0  0  0
  130.0570  126.1860   63.6030 C   0  0  0  0  0  0  0  0  0  0  0  0
  131.0880  125.2680   62.4200 S   0  0  0  0  0  0  0  0  0  0  0  0
  130.1430  123.8370   61.9480 C   0  0  0  0  0  0  0  0  0  0  0  0
  128.8080  124.0620   61.8640 N   0  0  0  0  0  0  0  0  0  0  0  0
  128.0000  123.0340   61.5190 C   0  0  0  0  0  0  0  0  0  0  0  0
  126.5190  123.3540   61.4490 C   0  0  0  0  0  0  0  0  0  0  0  0
  128.4830  121.7570   61.2490 C   0  0  0  0  0  0  0  0  0  0  0  0
  129.8610  121.5050   61.3240 C   0  0  0  0  0  0  0  0  0  0  0  0
  130.3330  120.1170   61.0360 C   0  0  0  0  0  0  0  0  0  0  0  0
  129.6780  119.0190   61.6060 C   0  0  0  0  0  0  0  0  0  0  0  0
  130.1170  117.7220   61.3490 C   0  0  0  0  0  0  0  0  0  0  0  0
  131.2190  117.5200   60.5210 C   0  0  0  0  0  0  0  0  0  0  0  0
  131.8850  118.6010   59.9520 C   0  0  0  0  0  0  0  0  0  0  0  0
  131.4430  119.8960   60.2120 C   0  0  0  0  0  0  0  0  0  0  0  0
  130.7230  122.5780   61.6650 C   0  0  0  0  0  0  0  0  0  0  0  0
  132.1780  122.3960   61.6650 C   0  0  0  0  0  0  0  0  0  0  0  0
  133.3270  122.2530   61.6670 N   0  0  0  0  0  0  0  0  0  0  0  0
  126.1560  128.7730   64.4450 C   0  0  0  0  0  0  0  0  0  0  0  0
  125.0310  129.5890   64.2500 C   0  0  0  0  0  0  0  0  0  0  0  0
  124.1020  129.8730   65.2360 O   0  0  0  0  0  0  0  0  0  0  0  0
  124.2970  129.3610   66.5500 C   0  0  0  0  0  0  0  0  0  0  0  0
  124.8160  130.1570   62.9880 C   0  0  0  0  0  0  0  0  0  0  0  0
  123.7270  130.9720   62.7890 O   0  0  0  0  0  0  0  0  0  0  0  0
  124.0550  132.3440   62.6100 C   0  0  0  0  0  0  0  0  0  0  0  0
  123.5025  129.7440   60.6337 H   0  0  0  0  0  0  0  0  0  0  0  0
  123.9346  130.8922   59.3217 H   0  0  0  0  0  0  0  0  0  0  0  0
  124.6167  129.2305   59.3217 H   0  0  0  0  0  0  0  0  0  0  0  0
  127.5217  128.9047   61.3239 H   0  0  0  0  0  0  0  0  0  0  0  0
  128.4040  127.7050   64.7020 H   0  0  0  0  0  0  0  0  0  0  0  0
  130.6922  126.9014   64.1459 H   0  0  0  0  0  0  0  0  0  0  0  0
  129.5988  125.4575   64.2881 H   0  0  0  0  0  0  0  0  0  0  0  0
  126.1142  123.4415   62.4681 H   0  0  0  0  0  0  0  0  0  0  0  0
  126.3741  124.3042   60.9141 H   0  0  0  0  0  0  0  0  0  0  0  0
  125.9947  122.5484   60.9141 H   0  0  0  0  0  0  0  0  0  0  0  0
  127.7875  120.9490   60.9780 H   0  0  0  0  0  0  0  0  0  0  0  0
  128.8100  119.1815   62.2619 H   0  0  0  0  0  0  0  0  0  0  0  0
  129.5967  116.8627   61.7971 H   0  0  0  0  0  0  0  0  0  0  0  0
  131.5657  116.4966   60.3152 H   0  0  0  0  0  0  0  0  0  0  0  0
  132.7555  118.4339   59.3006 H   0  0  0  0  0  0  0  0  0  0  0  0
  131.9705  120.7522   59.7662 H   0  0  0  0  0  0  0  0  0  0  0  0
  126.3290  128.3161   65.4305 H   0  0  0  0  0  0  0  0  0  0  0  0
  124.0065  130.1237   67.2875 H   0  0  0  0  0  0  0  0  0  0  0  0
  123.6782  128.4622   66.6889 H   0  0  0  0  0  0  0  0  0  0  0  0
  125.3569  129.1015   66.6889 H   0  0  0  0  0  0  0  0  0  0  0  0
  124.1699  132.8247   63.5927 H   0  0  0  0  0  0  0  0  0  0  0  0
  124.9979  132.4255   62.0494 H   0  0  0  0  0  0  0  0  0  0  0  0
  123.2509  132.8431   62.0494 H   0  0  0  0  0  0  0  0  0  0  0  0
  1  2  1  0
  2  3  1  0
  3  4  2  0
  4  5  1  0
  5  6  1  0
  6  7  1  0
  7  8  2  0
  7  9  1  0
  9 10  1  0
 10 11  1  0
 11 12  2  0
 12 13  1  0
 13 14  1  0
 13 15  2  0
 15 16  1  0
 16 17  1  0
 17 18  2  0
 18 19  1  0
 19 20  2  0
 20 21  1  0
 21 22  2  0
 16 23  2  0
 23 24  1  0
 24 25  3  0
  5 26  2  0
 26 27  1  0
 27 28  1  0
 28 29  1  0
 27 30  2  0
 30 31  1  0
 31 32  1  0
 30  3  1  0
 23 11  1  0
 22 17  1  0
  1 33  1  0
  1 34  1  0
  1 35  1  0
  4 36  1  0
  6 37  1  0
  9 38  1  0
  9 39  1  0
 14 40  1  0
 14 41  1  0
 14 42  1  0
 15 43  1  0
 18 44  1  0
 19 45  1  0
 20 46  1  0
 21 47  1  0
 22 48  1  0
 26 49  1  0
 29 50  1  0
 29 51  1  0
 29 52  1  0
 32 53  1  0
 32 54  1  0
 32 55  1  0
M  END
>  <Binding energies>  (1) 
[-7.98]

>  <Ligand effiencies>  (1) 
[-0.24181818181818182]

>  <Interactions>  (1) 
["V-B:ALA:541:CB:9864, V-B:TYR:539:CD2:9846, H-B:GLU:543:OE2:9882, V-A:PRO:482:CG:4327, V-A:PRO:482:CB:4326, V-B:TYR:539:C:9839, V-A:LEU:475:CD1:4258, V-A:LEU:475:CD2:4259, V-B:GLU:543:CD:9880, V-A:SER:385:CB:3409, H-B:GLU:543:OE1:9881, V-B:TYR:539:CE2:9848, H-A:GLU:543:OE2:4910, V-A:GLU:543:CD:4908, V-B:PRO:540:C:9853, V-B:PRO:540:CA:9855, H-A:GLU:543:OE1:4909, H-A:TYR:484:OH:4348, V-B:ILE:369:CD1:8211, V-B:ARG:545:CZ:9898, V-B:LEU:475:CD2:9231, H-B:GLY:454:N:9022, H-B:TYR:484:OH:9320, V-B:GLY:454:CA:9021, V-B:ARG:545:CD:9895, V-B:HIS:456:CE1:9042, V-B:ARG:545:CG:9894, V-A:LEU:475:CG:4257, V-B:TYR:484:CE1:9317, V-B:TYR:484:CZ:9319, V-B:ASP:366:CG:8185, V-B:ASP:366:CA:8182, V-B:ASP:366:CB:8184, H-A:GLY:454:N:4050, V-B:PRO:540:CB:9857"]

$$$$
3ci_Grossjean_2025
     RDKit          3D

 39 41  0  0  0  0  0  0  0  0999 V2000
  134.2110  124.0590   60.9090 C   0  0  0  0  0  0  0  0  0  0  0  0
  132.7730  123.5770   60.8920 C   0  0  0  0  0  0  0  0  0  0  0  0
  132.4570  122.2210   60.9070 C   0  0  0  0  0  0  0  0  0  0  0  0
  131.1120  121.8240   60.9070 C   0  0  0  0  0  0  0  0  0  0  0  0
  130.8200  120.3590   60.9400 C   0  0  0  0  0  0  0  0  0  0  0  0
  129.7830  119.8530   61.7330 C   0  0  0  0  0  0  0  0  0  0  0  0
  129.5200  118.4860   61.7670 C   0  0  0  0  0  0  0  0  0  0  0  0
  130.3000  117.6170   61.0090 C   0  0  0  0  0  0  0  0  0  0  0  0
  131.3400  118.1030   60.2220 C   0  0  0  0  0  0  0  0  0  0  0  0
  131.6000  119.4700   60.1910 C   0  0  0  0  0  0  0  0  0  0  0  0
  130.1120  122.8300   60.8800 C   0  0  0  0  0  0  0  0  0  0  0  0
  128.6900  122.4740   60.8350 C   0  0  0  0  0  0  0  0  0  0  0  0
  127.5680  122.1910   60.8010 N   0  0  0  0  0  0  0  0  0  0  0  0
  130.5220  124.1850   60.8710 C   0  0  0  0  0  0  0  0  0  0  0  0
  129.3470  125.5330   60.8580 S   0  0  0  0  0  0  0  0  0  0  0  0
  129.3340  126.3440   62.4910 C   0  0  0  0  0  0  0  0  0  0  0  0
  130.2240  125.6440   63.5240 C   0  0  0  0  0  0  0  0  0  0  0  0
  129.7510  124.7330   64.2070 O   0  0  0  0  0  0  0  0  0  0  0  0
  131.4900  126.1060   63.6170 N   0  0  0  0  0  0  0  0  0  0  0  0
  132.4990  125.6340   64.4450 C   0  0  0  0  0  0  0  0  0  0  0  0
  132.4000  125.6260   65.8360 C   0  0  0  0  0  0  0  0  0  0  0  0
  133.5900  125.0920   66.2770 C   0  0  0  0  0  0  0  0  0  0  0  0
  134.3640  124.7930   65.2050 O   0  0  0  0  0  0  0  0  0  0  0  0
  133.6620  125.1420   64.0510 N   0  0  0  0  0  0  0  0  0  0  0  0
  131.8310  124.5450   60.8700 N   0  0  0  0  0  0  0  0  0  0  0  0
  134.5476  124.1718   61.9501 H   0  0  0  0  0  0  0  0  0  0  0  0
  134.8496  123.3258   60.3946 H   0  0  0  0  0  0  0  0  0  0  0  0
  134.2787  125.0290   60.3946 H   0  0  0  0  0  0  0  0  0  0  0  0
  133.2571  121.4662   60.9188 H   0  0  0  0  0  0  0  0  0  0  0  0
  129.1708  120.5412   62.3343 H   0  0  0  0  0  0  0  0  0  0  0  0
  128.7011  118.0952   62.3889 H   0  0  0  0  0  0  0  0  0  0  0  0
  130.0926  116.5370   61.0323 H   0  0  0  0  0  0  0  0  0  0  0  0
  131.9535  117.4101   59.6274 H   0  0  0  0  0  0  0  0  0  0  0  0
  132.4248  119.8548   59.5732 H   0  0  0  0  0  0  0  0  0  0  0  0
  129.6877  127.3785   62.3696 H   0  0  0  0  0  0  0  0  0  0  0  0
  128.3015  126.2998   62.8679 H   0  0  0  0  0  0  0  0  0  0  0  0
  131.7510  126.8630   63.0040 H   0  0  0  0  0  0  0  0  0  0  0  0
  131.5541  125.9716   66.4484 H   0  0  0  0  0  0  0  0  0  0  0  0
  133.8678  124.9336   67.3295 H   0  0  0  0  0  0  0  0  0  0  0  0
  1  2  1  0
  2  3  2  0
  3  4  1  0
  4  5  1  0
  5  6  2  0
  6  7  1  0
  7  8  2  0
  8  9  1  0
  9 10  2  0
  4 11  2  0
 11 12  1  0
 12 13  3  0
 11 14  1  0
 14 15  1  0
 15 16  1  0
 16 17  1  0
 17 18  2  0
 17 19  1  0
 19 20  1  0
 20 21  1  0
 21 22  2  0
 22 23  1  0
 23 24  1  0
 14 25  2  0
 25  2  1  0
 10  5  1  0
 24 20  2  0
  1 26  1  0
  1 27  1  0
  1 28  1  0
  3 29  1  0
  6 30  1  0
  7 31  1  0
  8 32  1  0
  9 33  1  0
 10 34  1  0
 16 35  1  0
 16 36  1  0
 19 37  1  0
 21 38  1  0
 22 39  1  0
M  END
>  <Binding energies>  (1) 
[-7.44]

>  <Ligand effiencies>  (1) 
[-0.28615384615384615]

>  <Interactions>  (1) 
["V-B:ALA:541:CB:9864, V-B:TYR:539:CD2:9846, V-A:TYR:484:CZ:4347, V-A:PRO:482:CG:4327, V-A:PRO:482:CB:4326, V-A:LEU:475:CD1:4258, V-A:LEU:475:CD2:4259, V-B:GLU:543:CD:9880, V-A:SER:385:CB:3409, V-B:TYR:539:CE2:9848, H-A:GLU:543:OE2:4910, V-A:GLU:543:CD:4908, V-B:PRO:540:CA:9855, H-A:GLU:543:OE1:4909, V-A:ARG:545:CZ:4926, H-A:TYR:484:OH:4348, V-A:ASP:366:CG:3213, V-A:LEU:475:CG:4257, V-A:ILE:369:CD1:3239, H-B:ALA:541:N:9863, V-A:ARG:545:CG:4922, H-A:GLY:454:N:4050, V-A:ARG:545:CD:4923, H-A:ARG:545:NE:4924, V-A:ILE:455:C:4052, V-A:TYR:484:CE2:4346, V-A:HIS:456:CE1:4070, H-A:ARG:545:NH1:4927, H-A:ARG:545:NH2:4928, H-A:ILE:455:N:4055"]

$$$$
3cj_Grossjean_2025
     RDKit          3D

 39 41  0  0  0  0  0  0  0  0999 V2000
  125.5330  135.3150   60.6020 C   0  0  0  0  0  0  0  0  0  0  0  0
  126.0130  133.9020   60.3350 C   0  0  0  0  0  0  0  0  0  0  0  0
  127.3620  133.5630   60.4180 C   0  0  0  0  0  0  0  0  0  0  0  0
  127.7590  132.2390   60.1860 C   0  0  0  0  0  0  0  0  0  0  0  0
  129.2040  131.9080   60.3490 C   0  0  0  0  0  0  0  0  0  0  0  0
  129.7690  131.7940   61.6250 C   0  0  0  0  0  0  0  0  0  0  0  0
  131.1210  131.4980   61.7750 C   0  0  0  0  0  0  0  0  0  0  0  0
  131.9160  131.3210   60.6470 C   0  0  0  0  0  0  0  0  0  0  0  0
  131.3720  131.4410   59.3710 C   0  0  0  0  0  0  0  0  0  0  0  0
  130.0190  131.7360   59.2230 C   0  0  0  0  0  0  0  0  0  0  0  0
  126.7660  131.2880   59.8400 C   0  0  0  0  0  0  0  0  0  0  0  0
  127.1230  129.8940   59.5570 C   0  0  0  0  0  0  0  0  0  0  0  0
  127.4040  128.7930   59.3350 N   0  0  0  0  0  0  0  0  0  0  0  0
  125.4220  131.7190   59.7830 C   0  0  0  0  0  0  0  0  0  0  0  0
  124.0660  130.6030   59.4930 S   0  0  0  0  0  0  0  0  0  0  0  0
  122.9940  130.7790   60.9540 C   0  0  0  0  0  0  0  0  0  0  0  0
  123.8040  130.8290   62.2540 C   0  0  0  0  0  0  0  0  0  0  0  0
  124.1860  131.9170   62.6900 O   0  0  0  0  0  0  0  0  0  0  0  0
  124.0090  129.6370   62.8540 N   0  0  0  0  0  0  0  0  0  0  0  0
  124.5880  129.4240   64.0940 C   0  0  0  0  0  0  0  0  0  0  0  0
  124.0430  129.5900   65.2800 N   0  0  0  0  0  0  0  0  0  0  0  0
  124.8780  129.2610   66.2450 C   0  0  0  0  0  0  0  0  0  0  0  0
  126.1360  128.8160   65.8480 C   0  0  0  0  0  0  0  0  0  0  0  0
  126.2200  128.8340   64.1120 S   0  0  0  0  0  0  0  0  0  0  0  0
  125.0520  132.9990   60.0370 N   0  0  0  0  0  0  0  0  0  0  0  0
  125.4757  135.4838   61.6875 H   0  0  0  0  0  0  0  0  0  0  0  0
  126.2379  136.0321   60.1561 H   0  0  0  0  0  0  0  0  0  0  0  0
  124.5371  135.4543   60.1561 H   0  0  0  0  0  0  0  0  0  0  0  0
  128.1110  134.3301   60.6642 H   0  0  0  0  0  0  0  0  0  0  0  0
  129.1399  131.9394   62.5156 H   0  0  0  0  0  0  0  0  0  0  0  0
  131.5584  131.4046   62.7800 H   0  0  0  0  0  0  0  0  0  0  0  0
  132.9838  131.0842   60.7643 H   0  0  0  0  0  0  0  0  0  0  0  0
  132.0079  131.3035   58.4840 H   0  0  0  0  0  0  0  0  0  0  0  0
  129.5879  131.8345   58.2158 H   0  0  0  0  0  0  0  0  0  0  0  0
  122.4145  131.7092   60.8600 H   0  0  0  0  0  0  0  0  0  0  0  0
  122.3314  129.9021   60.9985 H   0  0  0  0  0  0  0  0  0  0  0  0
  123.6280  128.8180   62.4010 H   0  0  0  0  0  0  0  0  0  0  0  0
  124.5965  129.3340   67.3059 H   0  0  0  0  0  0  0  0  0  0  0  0
  126.9458  128.5035   66.5237 H   0  0  0  0  0  0  0  0  0  0  0  0
  1  2  1  0
  2  3  2  0
  3  4  1  0
  4  5  1  0
  5  6  2  0
  6  7  1  0
  7  8  2  0
  8  9  1  0
  9 10  2  0
  4 11  2  0
 11 12  1  0
 12 13  3  0
 11 14  1  0
 14 15  1  0
 15 16  1  0
 16 17  1  0
 17 18  2  0
 17 19  1  0
 19 20  1  0
 20 21  2  0
 21 22  1  0
 22 23  2  0
 23 24  1  0
 14 25  2  0
 25  2  1  0
 10  5  1  0
 24 20  1  0
  1 26  1  0
  1 27  1  0
  1 28  1  0
  3 29  1  0
  6 30  1  0
  7 31  1  0
  8 32  1  0
  9 33  1  0
 10 34  1  0
 16 35  1  0
 16 36  1  0
 19 37  1  0
 22 38  1  0
 23 39  1  0
M  END
>  <Binding energies>  (1) 
[-6.97]

>  <Ligand effiencies>  (1) 
[-0.26807692307692305]

>  <Interactions>  (1) 
["V-A:GLU:543:CD:4908, V-B:ILE:369:CD1:8211, V-A:TYR:539:CE1:4875, V-A:PRO:540:CA:4883, V-A:ALA:541:CB:4892, V-A:TYR:539:CD1:4873, V-A:GLU:543:CG:4907, V-B:ARG:545:CZ:9898, V-B:LEU:475:CD2:9231, V-A:ALA:541:CA:4890, H-B:GLY:454:N:9022, H-B:ARG:545:NE:9896, H-B:TYR:484:OH:9320, V-B:GLY:453:CA:9016, V-B:ARG:545:CD:9895, H-B:ARG:545:NH1:9899, V-B:HIS:456:CE1:9042, V-B:ARG:545:CG:9894, V-A:PRO:540:CB:4885, V-B:TYR:484:CE1:9317, V-B:TYR:484:CZ:9319, V-B:ASP:366:CG:8185, V-B:ASP:366:CA:8182, H-B:ASP:366:OD2:8187, H-B:ASP:366:OD1:8186"]

$$$$
3ck_Grossjean_2025
     RDKit          3D

 57 58  0  0  0  0  0  0  0  0999 V2000
  124.0590  130.0290   62.7290 C   0  0  0  0  0  0  0  0  0  0  0  0
  124.4980  129.9590   64.0770 O   0  0  0  0  0  0  0  0  0  0  0  0
  125.6520  129.1490   64.2550 C   0  0  0  0  0  0  0  0  0  0  0  0
  126.4560  129.1070   62.9490 C   0  0  0  0  0  0  0  0  0  0  0  0
  126.4460  127.7820   62.4330 O   0  0  0  0  0  0  0  0  0  0  0  0
  127.1820  127.6270   61.2270 C   0  0  0  0  0  0  0  0  0  0  0  0
  128.6750  127.5240   61.5600 C   0  0  0  0  0  0  0  0  0  0  0  0
  128.8750  126.3730   62.3670 O   0  0  0  0  0  0  0  0  0  0  0  0
  129.4820  126.6250   63.6250 C   0  0  0  0  0  0  0  0  0  0  0  0
  130.5110  125.5210   63.9310 C   0  0  0  0  0  0  0  0  0  0  0  0
  131.5240  125.3510   62.8850 N   0  0  0  0  0  0  0  0  0  0  0  0
  132.8260  125.0840   63.0900 C   0  0  0  0  0  0  0  0  0  0  0  0
  133.3150  124.9240   64.2110 O   0  0  0  0  0  0  0  0  0  0  0  0
  133.6880  124.9810   61.8220 C   0  0  0  0  0  0  0  0  0  0  0  0
  132.7670  125.0020   60.2450 S   0  0  0  0  0  0  0  0  0  0  0  0
  131.4040  123.8510   60.3490 C   0  0  0  0  0  0  0  0  0  0  0  0
  130.1660  124.4010   60.2720 N   0  0  0  0  0  0  0  0  0  0  0  0
  129.0880  123.5890   60.3480 C   0  0  0  0  0  0  0  0  0  0  0  0
  127.7390  124.2750   60.2580 C   0  0  0  0  0  0  0  0  0  0  0  0
  129.1970  122.2090   60.5020 C   0  0  0  0  0  0  0  0  0  0  0  0
  130.4660  121.6200   60.5900 C   0  0  0  0  0  0  0  0  0  0  0  0
  130.5340  120.1400   60.7780 C   0  0  0  0  0  0  0  0  0  0  0  0
  129.6680  119.5050   61.6760 C   0  0  0  0  0  0  0  0  0  0  0  0
  129.7330  118.1260   61.8640 C   0  0  0  0  0  0  0  0  0  0  0  0
  130.6700  117.3780   61.1590 C   0  0  0  0  0  0  0  0  0  0  0  0
  131.5450  117.9960   60.2680 C   0  0  0  0  0  0  0  0  0  0  0  0
  131.4770  119.3740   60.0820 C   0  0  0  0  0  0  0  0  0  0  0  0
  131.6060  122.4600   60.4990 C   0  0  0  0  0  0  0  0  0  0  0  0
  132.9590  121.8940   60.5430 C   0  0  0  0  0  0  0  0  0  0  0  0
  134.0260  121.4470   60.5760 N   0  0  0  0  0  0  0  0  0  0  0  0
  122.9730  130.2022   62.7056 H   0  0  0  0  0  0  0  0  0  0  0  0
  124.5733  130.8565   62.2184 H   0  0  0  0  0  0  0  0  0  0  0  0
  124.2905  129.0826   62.2184 H   0  0  0  0  0  0  0  0  0  0  0  0
  126.2762  129.5717   65.0561 H   0  0  0  0  0  0  0  0  0  0  0  0
  125.3444  128.1289   64.5283 H   0  0  0  0  0  0  0  0  0  0  0  0
  126.0021  129.7901   62.2160 H   0  0  0  0  0  0  0  0  0  0  0  0
  127.4927  129.4183   63.1445 H   0  0  0  0  0  0  0  0  0  0  0  0
  126.8556  126.7118   60.7114 H   0  0  0  0  0  0  0  0  0  0  0  0
  127.0073  128.4935   60.5723 H   0  0  0  0  0  0  0  0  0  0  0  0
  129.2575  127.4326   60.6314 H   0  0  0  0  0  0  0  0  0  0  0  0
  129.0058  128.4250   62.0975 H   0  0  0  0  0  0  0  0  0  0  0  0
  129.9888  127.6009   63.5983 H   0  0  0  0  0  0  0  0  0  0  0  0
  128.7101  126.6330   64.4086 H   0  0  0  0  0  0  0  0  0  0  0  0
  131.0224  125.7744   64.8714 H   0  0  0  0  0  0  0  0  0  0  0  0
  129.9554  124.5739   63.9963 H   0  0  0  0  0  0  0  0  0  0  0  0
  131.2000  125.4510   61.9340 H   0  0  0  0  0  0  0  0  0  0  0  0
  134.3879  125.8296   61.8176 H   0  0  0  0  0  0  0  0  0  0  0  0
  134.1831  123.9999   61.8709 H   0  0  0  0  0  0  0  0  0  0  0  0
  127.3579  124.4688   61.2715 H   0  0  0  0  0  0  0  0  0  0  0  0
  127.8473  125.2275   59.7186 H   0  0  0  0  0  0  0  0  0  0  0  0
  127.0331  123.6264   59.7186 H   0  0  0  0  0  0  0  0  0  0  0  0
  128.2926  121.5850   60.5543 H   0  0  0  0  0  0  0  0  0  0  0  0
  128.9312  120.0987   62.2370 H   0  0  0  0  0  0  0  0  0  0  0  0
  129.0465  117.6312   62.5667 H   0  0  0  0  0  0  0  0  0  0  0  0
  130.7207  116.2891   61.3061 H   0  0  0  0  0  0  0  0  0  0  0  0
  132.2849  117.3988   59.7150 H   0  0  0  0  0  0  0  0  0  0  0  0
  132.1697  119.8650   59.3826 H   0  0  0  0  0  0  0  0  0  0  0  0
  1  2  1  0
  2  3  1  0
  3  4  1  0
  4  5  1  0
  5  6  1  0
  6  7  1  0
  7  8  1  0
  8  9  1  0
  9 10  1  0
 10 11  1  0
 11 12  1  0
 12 13  2  0
 12 14  1  0
 14 15  1  0
 15 16  1  0
 16 17  2  0
 17 18  1  0
 18 19  1  0
 18 20  2  0
 20 21  1  0
 21 22  1  0
 22 23  2  0
 23 24  1  0
 24 25  2  0
 25 26  1  0
 26 27  2  0
 21 28  2  0
 28 29  1  0
 29 30  3  0
 28 16  1  0
 27 22  1  0
  1 31  1  0
  1 32  1  0
  1 33  1  0
  3 34  1  0
  3 35  1  0
  4 36  1  0
  4 37  1  0
  6 38  1  0
  6 39  1  0
  7 40  1  0
  7 41  1  0
  9 42  1  0
  9 43  1  0
 10 44  1  0
 10 45  1  0
 11 46  1  0
 14 47  1  0
 14 48  1  0
 19 49  1  0
 19 50  1  0
 19 51  1  0
 20 52  1  0
 23 53  1  0
 24 54  1  0
 25 55  1  0
 26 56  1  0
 27 57  1  0
M  END
>  <Binding energies>  (1) 
[-5.09]

>  <Ligand effiencies>  (1) 
[-0.16419354838709677]

>  <Interactions>  (1) 
["V-B:ALA:541:CB:9864, V-B:TYR:539:CD2:9846, V-A:TYR:484:CZ:4347, V-A:PRO:482:CG:4327, V-A:PRO:482:CB:4326, V-A:LEU:475:CD1:4258, V-A:LEU:475:CD2:4259, V-B:GLU:543:CD:9880, V-A:SER:385:CB:3409, V-A:ILE:369:CG2:3237, V-B:TYR:539:CE2:9848, V-A:GLU:543:CD:4908, V-A:ARG:545:CZ:4926, H-A:TYR:484:OH:4348, V-B:ARG:545:CZ:9898, H-B:GLY:454:N:9022, H-B:TYR:484:OH:9320, V-A:ASP:366:CG:3213, V-A:LEU:475:CG:4257, H-B:ARG:545:NH2:9900, H-A:GLY:454:N:4050, H-A:ARG:545:NE:4924, H-A:ARG:545:NH2:4928"]

$$$$
4aa_Grossjean_2025
     RDKit          3D

 45 47  0  0  0  0  0  0  0  0999 V2000
  130.8260  117.6190   60.7640 C   0  0  0  0  0  0  0  0  0  0  0  0
  129.6250  118.3020   61.4270 C   0  0  0  0  0  0  0  0  0  0  0  0
  130.0240  119.5650   61.9410 O   0  0  0  0  0  0  0  0  0  0  0  0
  130.4710  120.5480   61.1170 C   0  0  0  0  0  0  0  0  0  0  0  0
  131.4290  120.4100   60.3500 O   0  0  0  0  0  0  0  0  0  0  0  0
  129.6860  121.8230   61.2350 C   0  0  0  0  0  0  0  0  0  0  0  0
  130.2510  123.0190   60.7750 C   0  0  0  0  0  0  0  0  0  0  0  0
  129.5510  124.2180   60.8740 C   0  0  0  0  0  0  0  0  0  0  0  0
  128.2700  124.2450   61.4260 C   0  0  0  0  0  0  0  0  0  0  0  0
  127.6560  125.5110   61.4860 N   0  0  0  0  0  0  0  0  0  0  0  0
  127.7520  126.5690   60.6440 C   0  0  0  0  0  0  0  0  0  0  0  0
  128.4770  126.5980   59.6490 O   0  0  0  0  0  0  0  0  0  0  0  0
  126.9370  127.7300   61.0050 C   0  0  0  0  0  0  0  0  0  0  0  0
  126.4770  128.9120   59.7760 S   0  0  0  0  0  0  0  0  0  0  0  0
  125.6420  129.8890   60.9620 C   0  0  0  0  0  0  0  0  0  0  0  0
  125.0240  131.0240   60.6310 N   0  0  0  0  0  0  0  0  0  0  0  0
  124.4180  131.6890   61.6460 C   0  0  0  0  0  0  0  0  0  0  0  0
  123.7250  132.9800   61.2500 C   0  0  0  0  0  0  0  0  0  0  0  0
  124.4130  131.2480   62.9670 C   0  0  0  0  0  0  0  0  0  0  0  0
  125.0610  130.0560   63.3100 C   0  0  0  0  0  0  0  0  0  0  0  0
  125.0280  129.6160   64.7660 C   0  0  0  0  0  0  0  0  0  0  0  0
  125.7120  129.3330   62.2740 C   0  0  0  0  0  0  0  0  0  0  0  0
  126.4600  128.1040   62.2710 C   0  0  0  0  0  0  0  0  0  0  0  0
  126.6730  127.3750   63.4140 N   0  0  0  0  0  0  0  0  0  0  0  0
  127.6970  123.0540   61.8940 C   0  0  0  0  0  0  0  0  0  0  0  0
  128.4010  121.8550   61.7970 C   0  0  0  0  0  0  0  0  0  0  0  0
  131.5034  117.2338   61.5404 H   0  0  0  0  0  0  0  0  0  0  0  0
  130.4744  116.7858   60.1379 H   0  0  0  0  0  0  0  0  0  0  0  0
  131.3623  118.3472   60.1379 H   0  0  0  0  0  0  0  0  0  0  0  0
  128.8271  118.4441   60.6832 H   0  0  0  0  0  0  0  0  0  0  0  0
  129.2520  117.6726   62.2484 H   0  0  0  0  0  0  0  0  0  0  0  0
  131.2575  123.0108   60.3313 H   0  0  0  0  0  0  0  0  0  0  0  0
  130.0108  125.1504   60.5146 H   0  0  0  0  0  0  0  0  0  0  0  0
  127.0650  125.6450   62.2940 H   0  0  0  0  0  0  0  0  0  0  0  0
  123.4296  133.5303   62.1555 H   0  0  0  0  0  0  0  0  0  0  0  0
  124.4129  133.5975   60.6537 H   0  0  0  0  0  0  0  0  0  0  0  0
  122.8302  132.7479   60.6537 H   0  0  0  0  0  0  0  0  0  0  0  0
  123.8994  131.8369   63.7412 H   0  0  0  0  0  0  0  0  0  0  0  0
  125.0943  130.4997   65.4177 H   0  0  0  0  0  0  0  0  0  0  0  0
  124.0873  129.0823   64.9665 H   0  0  0  0  0  0  0  0  0  0  0  0
  125.8786  128.9479   64.9665 H   0  0  0  0  0  0  0  0  0  0  0  0
  126.0120  126.6840   63.7370 H   0  0  0  0  0  0  0  0  0  0  0  0
  127.5030  127.5080   63.9750 H   0  0  0  0  0  0  0  0  0  0  0  0
  126.6907  123.0659   62.3382 H   0  0  0  0  0  0  0  0  0  0  0  0
  127.9444  120.9243   62.1649 H   0  0  0  0  0  0  0  0  0  0  0  0
  1  2  1  0
  2  3  1  0
  3  4  1  0
  4  5  2  0
  4  6  1  0
  6  7  2  0
  7  8  1  0
  8  9  2  0
  9 10  1  0
 10 11  1  0
 11 12  2  0
 11 13  1  0
 13 14  1  0
 14 15  1  0
 15 16  2  0
 16 17  1  0
 17 18  1  0
 17 19  2  0
 19 20  1  0
 20 21  1  0
 20 22  2  0
 22 23  1  0
 23 24  1  0
  9 25  1  0
 25 26  2  0
 26  6  1  0
 23 13  2  0
 22 15  1  0
  1 27  1  0
  1 28  1  0
  1 29  1  0
  2 30  1  0
  2 31  1  0
  7 32  1  0
  8 33  1  0
 10 34  1  0
 18 35  1  0
 18 36  1  0
 18 37  1  0
 19 38  1  0
 21 39  1  0
 21 40  1  0
 21 41  1  0
 24 42  1  0
 24 43  1  0
 25 44  1  0
 26 45  1  0
M  END
>  <Binding energies>  (1) 
[-5.89]

>  <Ligand effiencies>  (1) 
[-0.20310344827586205]

>  <Interactions>  (1) 
["V-B:ALA:541:CB:9864, V-B:TYR:539:CD2:9846, H-B:GLU:543:OE2:9882, V-A:PRO:482:CG:4327, V-A:PRO:482:CB:4326, V-B:TYR:539:C:9839, V-A:LEU:475:CD1:4258, V-A:LEU:475:CD2:4259, V-B:GLU:543:CD:9880, V-A:SER:385:CB:3409, H-B:GLU:543:OE1:9881, V-B:PRO:540:C:9853, V-B:ALA:541:CA:9862, V-B:PRO:540:CA:9855, V-B:ILE:369:CD1:8211, V-B:ILE:369:CG2:8209, V-B:ARG:545:CZ:9898, V-B:GLY:454:CA:9021, V-A:LEU:475:CG:4257"]

$$$$
4ab_Grossjean_2025
     RDKit          3D

 42 44  0  0  0  0  0  0  0  0999 V2000
  124.2920  129.5860   66.2720 C   0  0  0  0  0  0  0  0  0  0  0  0
  123.7530  129.8890   64.9930 O   0  0  0  0  0  0  0  0  0  0  0  0
  124.5400  130.3800   64.0010 C   0  0  0  0  0  0  0  0  0  0  0  0
  124.4810  131.5470   63.6000 O   0  0  0  0  0  0  0  0  0  0  0  0
  125.4850  129.3600   63.4350 C   0  0  0  0  0  0  0  0  0  0  0  0
  126.5580  128.9130   64.2180 C   0  0  0  0  0  0  0  0  0  0  0  0
  127.4520  127.9690   63.7200 C   0  0  0  0  0  0  0  0  0  0  0  0
  127.2890  127.4480   62.4360 C   0  0  0  0  0  0  0  0  0  0  0  0
  128.2550  126.5070   62.0330 N   0  0  0  0  0  0  0  0  0  0  0  0
  129.0450  126.4830   60.9320 C   0  0  0  0  0  0  0  0  0  0  0  0
  129.0060  127.3240   60.0330 O   0  0  0  0  0  0  0  0  0  0  0  0
  129.9680  125.3490   60.8500 C   0  0  0  0  0  0  0  0  0  0  0  0
  129.3990  123.7760   60.2860 S   0  0  0  0  0  0  0  0  0  0  0  0
  130.9780  123.0650   60.5260 C   0  0  0  0  0  0  0  0  0  0  0  0
  131.2230  121.7820   60.2580 N   0  0  0  0  0  0  0  0  0  0  0  0
  132.4880  121.3560   60.4900 C   0  0  0  0  0  0  0  0  0  0  0  0
  132.7440  119.8920   60.1840 C   0  0  0  0  0  0  0  0  0  0  0  0
  133.5050  122.1750   60.9760 C   0  0  0  0  0  0  0  0  0  0  0  0
  133.2450  123.5210   61.2570 C   0  0  0  0  0  0  0  0  0  0  0  0
  134.3870  124.3750   61.7870 C   0  0  0  0  0  0  0  0  0  0  0  0
  131.9280  124.0040   61.0300 C   0  0  0  0  0  0  0  0  0  0  0  0
  131.3240  125.2970   61.2110 C   0  0  0  0  0  0  0  0  0  0  0  0
  132.0280  126.3720   61.6920 N   0  0  0  0  0  0  0  0  0  0  0  0
  126.2210  127.8930   61.6430 C   0  0  0  0  0  0  0  0  0  0  0  0
  125.3290  128.8390   62.1410 C   0  0  0  0  0  0  0  0  0  0  0  0
  123.6172  129.9653   67.0535 H   0  0  0  0  0  0  0  0  0  0  0  0
  124.3980  128.4961   66.3764 H   0  0  0  0  0  0  0  0  0  0  0  0
  125.2782  130.0619   66.3764 H   0  0  0  0  0  0  0  0  0  0  0  0
  126.6949  129.3112   65.2342 H   0  0  0  0  0  0  0  0  0  0  0  0
  128.2930  127.6314   64.3434 H   0  0  0  0  0  0  0  0  0  0  0  0
  128.3570  125.7250   62.6630 H   0  0  0  0  0  0  0  0  0  0  0  0
  132.8419  119.3322   61.1258 H   0  0  0  0  0  0  0  0  0  0  0  0
  131.9031  119.4865   59.6022 H   0  0  0  0  0  0  0  0  0  0  0  0
  133.6726  119.7959   59.6022 H   0  0  0  0  0  0  0  0  0  0  0  0
  134.5121  121.7636   61.1388 H   0  0  0  0  0  0  0  0  0  0  0  0
  134.3729  124.3645   62.8869 H   0  0  0  0  0  0  0  0  0  0  0  0
  135.3448  123.9698   61.4287 H   0  0  0  0  0  0  0  0  0  0  0  0
  134.2690  125.4083   61.4287 H   0  0  0  0  0  0  0  0  0  0  0  0
  131.5850  127.1020   62.2290 H   0  0  0  0  0  0  0  0  0  0  0  0
  133.0190  126.4710   61.5170 H   0  0  0  0  0  0  0  0  0  0  0  0
  126.0880  127.4941   60.6265 H   0  0  0  0  0  0  0  0  0  0  0  0
  124.4930  129.1818   61.5136 H   0  0  0  0  0  0  0  0  0  0  0  0
  1  2  1  0
  2  3  1  0
  3  4  2  0
  3  5  1  0
  5  6  2  0
  6  7  1  0
  7  8  2  0
  8  9  1  0
  9 10  1  0
 10 11  2  0
 10 12  1  0
 12 13  1  0
 13 14  1  0
 14 15  2  0
 15 16  1  0
 16 17  1  0
 16 18  2  0
 18 19  1  0
 19 20  1  0
 19 21  2  0
 21 22  1  0
 22 23  1  0
  8 24  1  0
 24 25  2  0
 25  5  1  0
 22 12  2  0
 21 14  1  0
  1 26  1  0
  1 27  1  0
  1 28  1  0
  6 29  1  0
  7 30  1  0
  9 31  1  0
 17 32  1  0
 17 33  1  0
 17 34  1  0
 18 35  1  0
 20 36  1  0
 20 37  1  0
 20 38  1  0
 23 39  1  0
 23 40  1  0
 24 41  1  0
 25 42  1  0
M  END
>  <Binding energies>  (1) 
[-5.74]

>  <Ligand effiencies>  (1) 
[-0.20500000000000002]

>  <Interactions>  (1) 
["V-B:TYR:539:CD2:9846, H-B:GLU:543:OE2:9882, V-A:LEU:475:CD2:4259, V-B:GLU:543:CD:9880, V-A:SER:385:CB:3409, H-B:GLU:543:OE1:9881, V-A:ILE:369:CG2:3237, V-B:TYR:539:CE2:9848, H-A:GLU:543:OE2:4910, V-A:SER:385:CA:3407, H-A:GLU:543:OE1:4909, V-A:ARG:545:CZ:4926, V-B:ARG:545:CZ:9898, H-B:GLY:454:N:9022, H-B:TYR:484:OH:9320, V-B:GLY:454:CA:9021, V-B:ARG:545:CD:9895, H-B:ARG:545:NH1:9899, V-B:HIS:456:CE1:9042, V-B:ARG:545:CG:9894, H-A:ASP:366:OD1:3214, V-A:ASP:366:CG:3213, V-A:ILE:369:CD1:3239, V-A:GLY:453:CA:4044, V-A:GLY:453:C:4042, V-B:TYR:484:CE1:9317, H-A:ASP:366:OD2:3215, V-B:TYR:484:CZ:9319, V-B:ASP:366:CG:8185"]

$$$$
4ac_Grossjean_2025
     RDKit          3D

 40 42  0  0  0  0  0  0  0  0999 V2000
  123.4080  129.6310   67.3870 C   0  0  0  0  0  0  0  0  0  0  0  0
  123.6020  130.0530   66.0410 O   0  0  0  0  0  0  0  0  0  0  0  0
  124.5980  129.4660   65.2860 C   0  0  0  0  0  0  0  0  0  0  0  0
  125.5900  128.7830   65.9890 C   0  0  0  0  0  0  0  0  0  0  0  0
  126.6350  128.1590   65.3130 C   0  0  0  0  0  0  0  0  0  0  0  0
  126.6960  128.2020   63.9200 C   0  0  0  0  0  0  0  0  0  0  0  0
  127.7950  127.5540   63.3250 N   0  0  0  0  0  0  0  0  0  0  0  0
  127.8680  126.9060   62.1380 C   0  0  0  0  0  0  0  0  0  0  0  0
  126.9110  126.7530   61.3760 O   0  0  0  0  0  0  0  0  0  0  0  0
  129.1870  126.3690   61.7960 C   0  0  0  0  0  0  0  0  0  0  0  0
  129.5960  126.0070   60.1180 S   0  0  0  0  0  0  0  0  0  0  0  0
  131.1930  125.4590   60.5750 C   0  0  0  0  0  0  0  0  0  0  0  0
  132.0720  125.0170   59.6760 N   0  0  0  0  0  0  0  0  0  0  0  0
  133.2730  124.6210   60.1610 C   0  0  0  0  0  0  0  0  0  0  0  0
  134.2590  124.1220   59.1220 C   0  0  0  0  0  0  0  0  0  0  0  0
  133.6120  124.6560   61.5130 C   0  0  0  0  0  0  0  0  0  0  0  0
  132.6870  125.1200   62.4550 C   0  0  0  0  0  0  0  0  0  0  0  0
  133.1040  125.1390   63.9180 C   0  0  0  0  0  0  0  0  0  0  0  0
  131.4170  125.5460   61.9820 C   0  0  0  0  0  0  0  0  0  0  0  0
  130.2580  126.0700   62.6540 C   0  0  0  0  0  0  0  0  0  0  0  0
  130.2210  126.2510   64.0130 N   0  0  0  0  0  0  0  0  0  0  0  0
  125.7090  128.8980   63.2060 C   0  0  0  0  0  0  0  0  0  0  0  0
  124.6660  129.5210   63.8860 C   0  0  0  0  0  0  0  0  0  0  0  0
  123.7675  130.4131   68.0719 H   0  0  0  0  0  0  0  0  0  0  0  0
  122.3373  129.4521   67.5645 H   0  0  0  0  0  0  0  0  0  0  0  0
  123.9693  128.7018   67.5645 H   0  0  0  0  0  0  0  0  0  0  0  0
  125.5465  128.7369   67.0872 H   0  0  0  0  0  0  0  0  0  0  0  0
  127.4156  127.6300   65.8795 H   0  0  0  0  0  0  0  0  0  0  0  0
  128.6340  127.5520   63.8870 H   0  0  0  0  0  0  0  0  0  0  0  0
  135.1312  123.6806   59.6264 H   0  0  0  0  0  0  0  0  0  0  0  0
  133.7749  123.3604   58.4930 H   0  0  0  0  0  0  0  0  0  0  0  0
  134.5860  124.9631   58.4930 H   0  0  0  0  0  0  0  0  0  0  0  0
  134.6069  124.3188   61.8393 H   0  0  0  0  0  0  0  0  0  0  0  0
  132.2082  125.0982   64.5551 H   0  0  0  0  0  0  0  0  0  0  0  0
  133.7435  124.2691   64.1283 H   0  0  0  0  0  0  0  0  0  0  0  0
  133.6617  126.0635   64.1283 H   0  0  0  0  0  0  0  0  0  0  0  0
  129.3760  126.1110   64.5470 H   0  0  0  0  0  0  0  0  0  0  0  0
  131.0440  126.5320   64.5280 H   0  0  0  0  0  0  0  0  0  0  0  0
  125.7592  128.9515   62.1085 H   0  0  0  0  0  0  0  0  0  0  0  0
  123.8904  130.0597   63.3219 H   0  0  0  0  0  0  0  0  0  0  0  0
  1  2  1  0
  2  3  1  0
  3  4  2  0
  4  5  1  0
  5  6  2  0
  6  7  1  0
  7  8  1  0
  8  9  2  0
  8 10  1  0
 10 11  1  0
 11 12  1  0
 12 13  2  0
 13 14  1  0
 14 15  1  0
 14 16  2  0
 16 17  1  0
 17 18  1  0
 17 19  2  0
 19 20  1  0
 20 21  1  0
  6 22  1  0
 22 23  2  0
 23  3  1  0
 20 10  2  0
 19 12  1  0
  1 24  1  0
  1 25  1  0
  1 26  1  0
  4 27  1  0
  5 28  1  0
  7 29  1  0
 15 30  1  0
 15 31  1  0
 15 32  1  0
 16 33  1  0
 18 34  1  0
 18 35  1  0
 18 36  1  0
 21 37  1  0
 21 38  1  0
 22 39  1  0
 23 40  1  0
M  END
>  <Binding energies>  (1) 
[-5.97]

>  <Ligand effiencies>  (1) 
[-0.2296153846153846]

>  <Interactions>  (1) 
["V-A:TYR:484:CZ:4347, H-B:GLU:543:OE2:9882, V-B:GLU:543:CD:9880, H-B:GLU:543:OE1:9881, V-A:ILE:369:CG2:3237, H-A:GLU:543:OE2:4910, V-A:GLU:543:CD:4908, H-A:GLU:543:OE1:4909, V-A:ARG:545:CZ:4926, H-A:TYR:484:OH:4348, V-B:ARG:545:CZ:9898, H-B:GLY:454:N:9022, H-B:TYR:484:OH:9320, V-B:ILE:455:C:9024, V-B:ARG:545:CD:9895, V-B:HIS:456:CE1:9042, V-B:ARG:545:CG:9894, V-B:ARG:545:CB:9893, V-A:ASP:366:CG:3213, V-A:ILE:369:CD1:3239, V-B:TYR:484:CE1:9317, H-B:ARG:545:NH2:9900, V-A:ASP:366:CB:3212, H-B:ILE:455:N:9027, V-A:ASP:366:CA:3210, V-A:ILE:369:CB:3236, V-A:ILE:369:CG1:3238"]

$$$$
4ad_Grossjean_2025
     RDKit          3D

 36 38  0  0  0  0  0  0  0  0999 V2000
  122.4670  130.3860   62.1330 C   0  0  0  0  0  0  0  0  0  0  0  0
  123.7390  131.1090   61.7300 C   0  0  0  0  0  0  0  0  0  0  0  0
  123.7020  132.4200   61.2600 C   0  0  0  0  0  0  0  0  0  0  0  0
  124.8880  133.0660   60.8920 C   0  0  0  0  0  0  0  0  0  0  0  0
  124.7970  134.4960   60.3820 C   0  0  0  0  0  0  0  0  0  0  0  0
  126.1040  132.3400   61.0160 C   0  0  0  0  0  0  0  0  0  0  0  0
  127.4720  132.6850   60.7370 C   0  0  0  0  0  0  0  0  0  0  0  0
  127.8310  133.9200   60.2570 N   0  0  0  0  0  0  0  0  0  0  0  0
  128.3860  131.6530   61.0010 C   0  0  0  0  0  0  0  0  0  0  0  0
  129.8390  131.6530   60.8170 C   0  0  0  0  0  0  0  0  0  0  0  0
  130.5890  131.9480   61.7500 O   0  0  0  0  0  0  0  0  0  0  0  0
  130.2680  131.3010   59.5800 N   0  0  0  0  0  0  0  0  0  0  0  0
  131.5790  131.2430   59.0700 C   0  0  0  0  0  0  0  0  0  0  0  0
  132.6030  131.5080   59.9850 C   0  0  0  0  0  0  0  0  0  0  0  0
  133.9340  131.4650   59.5800 C   0  0  0  0  0  0  0  0  0  0  0  0
  134.2440  131.1490   58.2610 C   0  0  0  0  0  0  0  0  0  0  0  0
  133.2350  130.8700   57.3430 C   0  0  0  0  0  0  0  0  0  0  0  0
  131.9020  130.9130   57.7440 C   0  0  0  0  0  0  0  0  0  0  0  0
  127.5640  130.2160   61.6120 S   0  0  0  0  0  0  0  0  0  0  0  0
  126.0070  131.0040   61.5090 C   0  0  0  0  0  0  0  0  0  0  0  0
  124.8780  130.3870   61.8610 N   0  0  0  0  0  0  0  0  0  0  0  0
  122.3991  130.3474   63.2302 H   0  0  0  0  0  0  0  0  0  0  0  0
  121.5961  130.9241   61.7304 H   0  0  0  0  0  0  0  0  0  0  0  0
  122.4838  129.3624   61.7304 H   0  0  0  0  0  0  0  0  0  0  0  0
  122.7403  132.9477   61.1781 H   0  0  0  0  0  0  0  0  0  0  0  0
  124.7530  135.1878   61.2361 H   0  0  0  0  0  0  0  0  0  0  0  0
  125.6824  134.7243   59.7705 H   0  0  0  0  0  0  0  0  0  0  0  0
  123.8898  134.6102   59.7705 H   0  0  0  0  0  0  0  0  0  0  0  0
  127.3160  134.3770   59.5180 H   0  0  0  0  0  0  0  0  0  0  0  0
  128.6260  134.4180   60.6330 H   0  0  0  0  0  0  0  0  0  0  0  0
  129.5530  131.0230   58.9240 H   0  0  0  0  0  0  0  0  0  0  0  0
  132.3556  131.7514   61.0288 H   0  0  0  0  0  0  0  0  0  0  0  0
  134.7375  131.6800   60.2998 H   0  0  0  0  0  0  0  0  0  0  0  0
  135.2958  131.1193   57.9405 H   0  0  0  0  0  0  0  0  0  0  0  0
  133.4901  130.6162   56.3035 H   0  0  0  0  0  0  0  0  0  0  0  0
  131.1027  130.6886   57.0224 H   0  0  0  0  0  0  0  0  0  0  0  0
  1  2  1  0
  2  3  2  0
  3  4  1  0
  4  5  1  0
  4  6  2  0
  6  7  1  0
  7  8  1  0
  7  9  2  0
  9 10  1  0
 10 11  2  0
 10 12  1  0
 12 13  1  0
 13 14  2  0
 14 15  1  0
 15 16  2  0
 16 17  1  0
 17 18  2  0
  9 19  1  0
 19 20  1  0
 20 21  2  0
 21  2  1  0
 20  6  1  0
 18 13  1  0
  1 22  1  0
  1 23  1  0
  1 24  1  0
  3 25  1  0
  5 26  1  0
  5 27  1  0
  5 28  1  0
  8 29  1  0
  8 30  1  0
 12 31  1  0
 14 32  1  0
 15 33  1  0
 16 34  1  0
 17 35  1  0
 18 36  1  0
M  END
>  <Binding energies>  (1) 
[-6.05]

>  <Ligand effiencies>  (1) 
[-0.2520833333333333]

>  <Interactions>  (1) 
["V-B:ILE:369:CD1:8211, V-A:TYR:539:CE1:4875, V-A:PRO:540:CA:4883, V-A:TYR:539:CD1:4873, V-B:ILE:369:CG2:8209, V-B:LEU:475:CD2:9231, H-A:ALA:541:N:4891, V-B:GLY:453:C:9014, V-A:ASN:362:CB:3176, V-A:TYR:539:C:4867, V-B:GLY:453:CA:9016, V-A:PRO:540:CB:4885, V-A:ASP:366:CG:3213, V-B:ASP:366:CG:8185, V-A:ASP:366:CB:3212, V-A:ASN:362:C:3172, V-A:LEU:363:CB:3187, V-A:LEU:363:CA:3185, V-A:LEU:363:CD1:3189, H-A:TYR:539:O:4868, V-A:LEU:363:CG:3188, V-A:LEU:363:C:3183"]

$$$$
4ae_Grossjean_2025
     RDKit          3D

 38 40  0  0  0  0  0  0  0  0999 V2000
  124.4880  129.3070   66.0830 C   0  0  0  0  0  0  0  0  0  0  0  0
  125.0220  129.2460   64.6650 C   0  0  0  0  0  0  0  0  0  0  0  0
  124.6630  130.1980   63.7070 C   0  0  0  0  0  0  0  0  0  0  0  0
  125.1870  130.0730   62.4200 C   0  0  0  0  0  0  0  0  0  0  0  0
  126.0460  129.0130   62.1240 C   0  0  0  0  0  0  0  0  0  0  0  0
  126.3710  128.0990   63.1330 C   0  0  0  0  0  0  0  0  0  0  0  0
  127.2230  127.0420   62.7690 N   0  0  0  0  0  0  0  0  0  0  0  0
  128.4810  127.1020   62.2650 C   0  0  0  0  0  0  0  0  0  0  0  0
  129.0790  128.1550   62.0370 O   0  0  0  0  0  0  0  0  0  0  0  0
  129.1090  125.8080   61.9920 C   0  0  0  0  0  0  0  0  0  0  0  0
  128.1180  124.3620   61.7880 S   0  0  0  0  0  0  0  0  0  0  0  0
  129.5360  123.3640   61.5630 C   0  0  0  0  0  0  0  0  0  0  0  0
  129.4470  122.0500   61.3500 N   0  0  0  0  0  0  0  0  0  0  0  0
  130.6210  121.3920   61.1970 C   0  0  0  0  0  0  0  0  0  0  0  0
  130.4980  119.8970   60.9630 C   0  0  0  0  0  0  0  0  0  0  0  0
  131.8700  122.0100   61.2490 C   0  0  0  0  0  0  0  0  0  0  0  0
  131.9590  123.3890   61.4720 C   0  0  0  0  0  0  0  0  0  0  0  0
  133.3430  124.0170   61.5240 C   0  0  0  0  0  0  0  0  0  0  0  0
  130.7480  124.1130   61.6390 C   0  0  0  0  0  0  0  0  0  0  0  0
  130.4760  125.5050   61.8820 C   0  0  0  0  0  0  0  0  0  0  0  0
  131.4760  126.4380   61.9950 N   0  0  0  0  0  0  0  0  0  0  0  0
  125.8570  128.2110   64.3930 N   0  0  0  0  0  0  0  0  0  0  0  0
  125.3224  129.2117   66.7934 H   0  0  0  0  0  0  0  0  0  0  0  0
  123.9791  130.2691   66.2421 H   0  0  0  0  0  0  0  0  0  0  0  0
  123.7752  128.4844   66.2421 H   0  0  0  0  0  0  0  0  0  0  0  0
  123.9842  131.0253   63.9613 H   0  0  0  0  0  0  0  0  0  0  0  0
  124.9247  130.8057   61.6426 H   0  0  0  0  0  0  0  0  0  0  0  0
  126.4615  128.8977   61.1121 H   0  0  0  0  0  0  0  0  0  0  0  0
  126.8160  126.1230   62.8530 H   0  0  0  0  0  0  0  0  0  0  0  0
  130.4552  119.3766   61.9312 H   0  0  0  0  0  0  0  0  0  0  0  0
  129.5797  119.6892   60.3941 H   0  0  0  0  0  0  0  0  0  0  0  0
  131.3700  119.5419   60.3941 H   0  0  0  0  0  0  0  0  0  0  0  0
  132.7848  121.4141   61.1148 H   0  0  0  0  0  0  0  0  0  0  0  0
  133.6444  124.1538   62.5730 H   0  0  0  0  0  0  0  0  0  0  0  0
  134.0640  123.3579   61.0183 H   0  0  0  0  0  0  0  0  0  0  0  0
  133.3217  124.9936   61.0183 H   0  0  0  0  0  0  0  0  0  0  0  0
  132.4510  126.1890   61.9090 H   0  0  0  0  0  0  0  0  0  0  0  0
  131.2670  127.4120   62.1690 H   0  0  0  0  0  0  0  0  0  0  0  0
  1  2  1  0
  2  3  2  0
  3  4  1  0
  4  5  2  0
  5  6  1  0
  6  7  1  0
  7  8  1  0
  8  9  2  0
  8 10  1  0
 10 11  1  0
 11 12  1  0
 12 13  2  0
 13 14  1  0
 14 15  1  0
 14 16  2  0
 16 17  1  0
 17 18  1  0
 17 19  2  0
 19 20  1  0
 20 21  1  0
  6 22  2  0
 22  2  1  0
 20 10  2  0
 19 12  1  0
  1 23  1  0
  1 24  1  0
  1 25  1  0
  3 26  1  0
  4 27  1  0
  5 28  1  0
  7 29  1  0
 15 30  1  0
 15 31  1  0
 15 32  1  0
 16 33  1  0
 18 34  1  0
 18 35  1  0
 18 36  1  0
 21 37  1  0
 21 38  1  0
M  END
>  <Binding energies>  (1) 
[-5.85]

>  <Ligand effiencies>  (1) 
[-0.23399999999999999]

>  <Interactions>  (1) 
["V-B:TYR:539:CD2:9846, H-B:GLU:543:OE2:9882, V-A:LEU:475:CD2:4259, V-B:GLU:543:CD:9880, H-B:GLU:543:OE1:9881, H-A:GLU:543:OE2:4910, V-A:GLU:543:CD:4908, H-A:GLU:543:OE1:4909, V-B:ARG:545:CZ:9898, H-B:ARG:545:NE:9896, V-B:ARG:545:CD:9895, V-B:HIS:456:CE1:9042, V-B:ARG:545:CG:9894, H-A:ASP:366:OD1:3214, V-A:ILE:369:CD1:3239, H-A:ASP:366:OD2:3215, V-B:TYR:484:CZ:9319, H-B:ARG:545:NH2:9900"]

$$$$
4af_Grossjean_2025
     RDKit          3D

 35 37  0  0  0  0  0  0  0  0999 V2000
  133.1100  124.3880   58.6510 C   0  0  0  0  0  0  0  0  0  0  0  0
  132.2840  124.9390   59.7990 C   0  0  0  0  0  0  0  0  0  0  0  0
  132.7670  124.9170   61.1060 C   0  0  0  0  0  0  0  0  0  0  0  0
  131.9870  125.4290   62.1500 C   0  0  0  0  0  0  0  0  0  0  0  0
  132.5560  125.3800   63.5590 C   0  0  0  0  0  0  0  0  0  0  0  0
  130.7100  125.9590   61.8240 C   0  0  0  0  0  0  0  0  0  0  0  0
  129.6720  126.5490   62.6270 C   0  0  0  0  0  0  0  0  0  0  0  0
  129.7930  126.6990   63.9850 N   0  0  0  0  0  0  0  0  0  0  0  0
  128.5430  126.9500   61.8940 C   0  0  0  0  0  0  0  0  0  0  0  0
  127.3030  127.5520   62.3880 C   0  0  0  0  0  0  0  0  0  0  0  0
  126.3820  127.8160   61.6140 O   0  0  0  0  0  0  0  0  0  0  0  0
  127.2560  127.7680   63.7250 N   0  0  0  0  0  0  0  0  0  0  0  0
  126.2440  128.3660   64.5010 C   0  0  0  0  0  0  0  0  0  0  0  0
  126.1030  128.2400   65.8940 C   0  0  0  0  0  0  0  0  0  0  0  0
  125.0400  128.8720   66.5410 C   0  0  0  0  0  0  0  0  0  0  0  0
  124.1380  129.6150   65.7770 C   0  0  0  0  0  0  0  0  0  0  0  0
  124.2470  129.7450   64.4310 N   0  0  0  0  0  0  0  0  0  0  0  0
  125.2860  129.1240   63.8170 C   0  0  0  0  0  0  0  0  0  0  0  0
  128.7410  126.5990   60.1750 S   0  0  0  0  0  0  0  0  0  0  0  0
  130.3320  125.9240   60.4490 C   0  0  0  0  0  0  0  0  0  0  0  0
  131.0720  125.4380   59.4520 N   0  0  0  0  0  0  0  0  0  0  0  0
  133.9621  123.8196   59.0521 H   0  0  0  0  0  0  0  0  0  0  0  0
  132.4849  123.7254   58.0345 H   0  0  0  0  0  0  0  0  0  0  0  0
  133.4817  125.2197   58.0345 H   0  0  0  0  0  0  0  0  0  0  0  0
  133.7615  124.4972   61.3176 H   0  0  0  0  0  0  0  0  0  0  0  0
  131.7356  125.4506   64.2884 H   0  0  0  0  0  0  0  0  0  0  0  0
  133.0950  124.4321   63.7040 H   0  0  0  0  0  0  0  0  0  0  0  0
  133.2491  126.2218   63.7040 H   0  0  0  0  0  0  0  0  0  0  0  0
  130.6660  126.9650   64.4170 H   0  0  0  0  0  0  0  0  0  0  0  0
  129.0050  126.5510   64.6010 H   0  0  0  0  0  0  0  0  0  0  0  0
  128.0550  127.4540   64.2550 H   0  0  0  0  0  0  0  0  0  0  0  0
  126.8270  127.6462   66.4713 H   0  0  0  0  0  0  0  0  0  0  0  0
  124.9154  128.7865   67.6306 H   0  0  0  0  0  0  0  0  0  0  0  0
  123.3031  130.1165   66.2884 H   0  0  0  0  0  0  0  0  0  0  0  0
  125.3803  129.2213   62.7254 H   0  0  0  0  0  0  0  0  0  0  0  0
  1  2  1  0
  2  3  2  0
  3  4  1  0
  4  5  1  0
  4  6  2  0
  6  7  1  0
  7  8  1  0
  7  9  2  0
  9 10  1  0
 10 11  2  0
 10 12  1  0
 12 13  1  0
 13 14  2  0
 14 15  1  0
 15 16  2  0
 16 17  1  0
 17 18  2  0
  9 19  1  0
 19 20  1  0
 20 21  2  0
 21  2  1  0
 20  6  1  0
 18 13  1  0
  1 22  1  0
  1 23  1  0
  1 24  1  0
  3 25  1  0
  5 26  1  0
  5 27  1  0
  5 28  1  0
  8 29  1  0
  8 30  1  0
 12 31  1  0
 14 32  1  0
 15 33  1  0
 16 34  1  0
 18 35  1  0
M  END
>  <Binding energies>  (1) 
[-6.25]

>  <Ligand effiencies>  (1) 
[-0.2604166666666667]

>  <Interactions>  (1) 
["H-B:GLU:543:OE2:9882, V-B:GLU:543:CD:9880, H-B:GLU:543:OE1:9881, V-A:ILE:369:CG2:3237, V-B:TYR:539:CE2:9848, H-A:GLU:543:OE2:4910, V-A:GLU:543:CD:4908, H-A:GLU:543:OE1:4909, V-A:ARG:545:CZ:4926, V-B:ARG:545:CZ:9898, H-B:GLY:454:N:9022, V-B:GLY:453:C:9014, H-B:TYR:484:OH:9320, V-B:GLY:454:CA:9021, V-B:GLY:453:CA:9016, V-B:ARG:545:CD:9895, H-B:ARG:545:NH1:9899, V-B:HIS:456:CE1:9042, V-B:ARG:545:CG:9894, V-A:ASP:366:CG:3213, V-B:TYR:484:CZ:9319, H-B:ARG:545:NH2:9900, V-A:ASP:366:CB:3212, V-A:ASP:366:CA:3210"]

$$$$
4ag_Grossjean_2025
     RDKit          3D

 39 41  0  0  0  0  0  0  0  0999 V2000
  122.0770  130.0080   62.0640 C   0  0  0  0  0  0  0  0  0  0  0  0
  123.5200  130.0230   62.5330 C   0  0  0  0  0  0  0  0  0  0  0  0
  124.5460  130.4300   61.6820 C   0  0  0  0  0  0  0  0  0  0  0  0
  125.8700  130.4370   62.1350 C   0  0  0  0  0  0  0  0  0  0  0  0
  126.9550  130.8900   61.1700 C   0  0  0  0  0  0  0  0  0  0  0  0
  126.1160  130.0190   63.4710 C   0  0  0  0  0  0  0  0  0  0  0  0
  127.3230  129.9050   64.2440 C   0  0  0  0  0  0  0  0  0  0  0  0
  128.5560  130.2260   63.7310 N   0  0  0  0  0  0  0  0  0  0  0  0
  127.1200  129.4390   65.5510 C   0  0  0  0  0  0  0  0  0  0  0  0
  128.1140  129.2170   66.6010 C   0  0  0  0  0  0  0  0  0  0  0  0
  128.2950  130.0420   67.4990 O   0  0  0  0  0  0  0  0  0  0  0  0
  128.8250  128.0730   66.5140 N   0  0  0  0  0  0  0  0  0  0  0  0
  129.8460  127.6350   67.4640 C   0  0  0  0  0  0  0  0  0  0  0  0
  129.3250  127.4280   68.8810 C   0  0  0  0  0  0  0  0  0  0  0  0
  128.2030  126.6230   69.0990 C   0  0  0  0  0  0  0  0  0  0  0  0
  127.7400  126.4110   70.3950 C   0  0  0  0  0  0  0  0  0  0  0  0
  128.4070  126.9960   71.4700 C   0  0  0  0  0  0  0  0  0  0  0  0
  129.5340  127.7860   71.2620 C   0  0  0  0  0  0  0  0  0  0  0  0
  129.9980  127.9970   69.9660 C   0  0  0  0  0  0  0  0  0  0  0  0
  125.4110  129.1370   65.8640 S   0  0  0  0  0  0  0  0  0  0  0  0
  124.9800  129.6270   64.2410 C   0  0  0  0  0  0  0  0  0  0  0  0
  123.7170  129.6210   63.8120 N   0  0  0  0  0  0  0  0  0  0  0  0
  121.4078  130.0010   62.9370 H   0  0  0  0  0  0  0  0  0  0  0  0
  121.8792  130.9041   61.4575 H   0  0  0  0  0  0  0  0  0  0  0  0
  121.8979  129.1079   61.4575 H   0  0  0  0  0  0  0  0  0  0  0  0
  124.3149  130.7458   60.6540 H   0  0  0  0  0  0  0  0  0  0  0  0
  127.8237  131.2527   61.7390 H   0  0  0  0  0  0  0  0  0  0  0  0
  127.2590  130.0436   60.5365 H   0  0  0  0  0  0  0  0  0  0  0  0
  126.5669  131.7013   60.5365 H   0  0  0  0  0  0  0  0  0  0  0  0
  128.9050  131.1730   63.7370 H   0  0  0  0  0  0  0  0  0  0  0  0
  129.1590  129.5190   63.3330 H   0  0  0  0  0  0  0  0  0  0  0  0
  128.5840  127.4160   65.7850 H   0  0  0  0  0  0  0  0  0  0  0  0
  130.2652  126.6828   67.1069 H   0  0  0  0  0  0  0  0  0  0  0  0
  130.5983  128.4359   67.5150 H   0  0  0  0  0  0  0  0  0  0  0  0
  127.6861  126.1572   68.2470 H   0  0  0  0  0  0  0  0  0  0  0  0
  126.8524  125.7851   70.5695 H   0  0  0  0  0  0  0  0  0  0  0  0
  128.0389  126.8317   72.4935 H   0  0  0  0  0  0  0  0  0  0  0  0
  130.0554  128.2413   72.1169 H   0  0  0  0  0  0  0  0  0  0  0  0
  130.8943  128.6116   69.7961 H   0  0  0  0  0  0  0  0  0  0  0  0
  1  2  1  0
  2  3  2  0
  3  4  1  0
  4  5  1  0
  4  6  2  0
  6  7  1  0
  7  8  1  0
  7  9  2  0
  9 10  1  0
 10 11  2  0
 10 12  1  0
 12 13  1  0
 13 14  1  0
 14 15  2  0
 15 16  1  0
 16 17  2  0
 17 18  1  0
 18 19  2  0
  9 20  1  0
 20 21  1  0
 21 22  2  0
 22  2  1  0
 21  6  1  0
 19 14  1  0
  1 23  1  0
  1 24  1  0
  1 25  1  0
  3 26  1  0
  5 27  1  0
  5 28  1  0
  5 29  1  0
  8 30  1  0
  8 31  1  0
 12 32  1  0
 13 33  1  0
 13 34  1  0
 15 35  1  0
 16 36  1  0
 17 37  1  0
 18 38  1  0
 19 39  1  0
M  END
>  <Binding energies>  (1) 
[-6.44]

>  <Ligand effiencies>  (1) 
[-0.2576]

>  <Interactions>  (1) 
["H-B:GLU:543:OE2:9882, V-B:GLU:543:CD:9880, H-A:GLU:543:OE2:4910, V-A:GLU:543:CD:4908, H-A:GLU:543:OE1:4909, V-B:ILE:369:CD1:8211, V-A:GLU:543:CG:4907, V-B:ARG:545:CZ:9898, H-B:GLY:454:N:9022, V-B:GLY:453:C:9014, H-B:TYR:484:OH:9320, V-B:GLY:453:CA:9016, V-B:ARG:545:CD:9895, H-B:ARG:545:NH1:9899, V-B:HIS:456:CE1:9042, V-B:HIS:456:CD2:9040, V-A:HIS:456:CD2:4068, V-B:GLY:544:C:9884, V-B:GLU:543:CB:9878, V-B:TYR:484:CZ:9319, V-B:ASP:366:CG:8185, H-B:ARG:545:NH2:9900, V-B:ASP:366:CA:8182, V-A:HIS:456:CE1:4070, V-A:GLU:543:CB:4906, V-B:GLU:543:C:9874"]

$$$$
4ah_Grossjean_2025
     RDKit          3D

 51 53  0  0  0  0  0  0  0  0999 V2000
  123.2300  130.4270   61.7880 C   0  0  0  0  0  0  0  0  0  0  0  0
  123.3910  130.3460   63.2000 O   0  0  0  0  0  0  0  0  0  0  0  0
  124.5760  129.8590   63.7220 C   0  0  0  0  0  0  0  0  0  0  0  0
  125.8040  129.8930   63.0420 C   0  0  0  0  0  0  0  0  0  0  0  0
  126.9610  129.3810   63.6310 C   0  0  0  0  0  0  0  0  0  0  0  0
  128.2950  129.4690   62.8960 C   0  0  0  0  0  0  0  0  0  0  0  0
  128.8840  128.1640   62.5950 N   0  0  0  0  0  0  0  0  0  0  0  0
  128.1920  127.0360   62.3310 C   0  0  0  0  0  0  0  0  0  0  0  0
  126.9610  126.9900   62.3570 O   0  0  0  0  0  0  0  0  0  0  0  0
  128.9920  125.8440   62.0510 C   0  0  0  0  0  0  0  0  0  0  0  0
  128.2170  124.3760   61.4550 S   0  0  0  0  0  0  0  0  0  0  0  0
  129.7440  123.5230   61.4380 C   0  0  0  0  0  0  0  0  0  0  0  0
  129.8390  122.2530   61.0440 N   0  0  0  0  0  0  0  0  0  0  0  0
  131.0800  121.7100   61.0760 C   0  0  0  0  0  0  0  0  0  0  0  0
  131.1650  120.2640   60.6270 C   0  0  0  0  0  0  0  0  0  0  0  0
  132.2170  122.4020   61.4880 C   0  0  0  0  0  0  0  0  0  0  0  0
  132.1150  123.7340   61.9040 C   0  0  0  0  0  0  0  0  0  0  0  0
  133.3840  124.4470   62.3460 C   0  0  0  0  0  0  0  0  0  0  0  0
  130.8280  124.3370   61.8850 C   0  0  0  0  0  0  0  0  0  0  0  0
  130.3690  125.6530   62.2410 C   0  0  0  0  0  0  0  0  0  0  0  0
  131.2160  126.6240   62.7110 N   0  0  0  0  0  0  0  0  0  0  0  0
  126.9020  128.8540   64.9210 C   0  0  0  0  0  0  0  0  0  0  0  0
  125.6870  128.8020   65.6230 C   0  0  0  0  0  0  0  0  0  0  0  0
  125.5530  128.2800   66.8970 O   0  0  0  0  0  0  0  0  0  0  0  0
  126.5150  127.3460   67.3730 C   0  0  0  0  0  0  0  0  0  0  0  0
  124.5300  129.3020   65.0080 C   0  0  0  0  0  0  0  0  0  0  0  0
  123.3370  129.2750   65.6900 O   0  0  0  0  0  0  0  0  0  0  0  0
  123.3810  129.9120   66.9600 C   0  0  0  0  0  0  0  0  0  0  0  0
  122.2695  130.9102   61.5556 H   0  0  0  0  0  0  0  0  0  0  0  0
  124.0517  131.0190   61.3586 H   0  0  0  0  0  0  0  0  0  0  0  0
  123.2444  129.4144   61.3586 H   0  0  0  0  0  0  0  0  0  0  0  0
  125.8547  130.3283   62.0331 H   0  0  0  0  0  0  0  0  0  0  0  0
  128.1358  130.0056   61.9491 H   0  0  0  0  0  0  0  0  0  0  0  0
  128.9962  129.9942   63.5611 H   0  0  0  0  0  0  0  0  0  0  0  0
  129.8860  128.1480   62.4760 H   0  0  0  0  0  0  0  0  0  0  0  0
  131.2036  119.6078   61.5090 H   0  0  0  0  0  0  0  0  0  0  0  0
  130.2799  120.0149   60.0231 H   0  0  0  0  0  0  0  0  0  0  0  0
  132.0731  120.1203   60.0231 H   0  0  0  0  0  0  0  0  0  0  0  0
  133.1960  121.9005   61.4862 H   0  0  0  0  0  0  0  0  0  0  0  0
  133.4272  124.4713   63.4449 H   0  0  0  0  0  0  0  0  0  0  0  0
  134.2612  123.9096   61.9564 H   0  0  0  0  0  0  0  0  0  0  0  0
  133.3813  125.4757   61.9564 H   0  0  0  0  0  0  0  0  0  0  0  0
  131.5290  127.3870   62.1300 H   0  0  0  0  0  0  0  0  0  0  0  0
  131.5590  126.6040   63.6620 H   0  0  0  0  0  0  0  0  0  0  0  0
  127.8193  128.4741   65.3947 H   0  0  0  0  0  0  0  0  0  0  0  0
  126.5140  127.3470   68.4730 H   0  0  0  0  0  0  0  0  0  0  0  0
  126.2617  126.3401   67.0070 H   0  0  0  0  0  0  0  0  0  0  0  0
  127.5130  127.6288   67.0070 H   0  0  0  0  0  0  0  0  0  0  0  0
  123.3285  129.1519   67.7534 H   0  0  0  0  0  0  0  0  0  0  0  0
  124.3203  130.4766   67.0547 H   0  0  0  0  0  0  0  0  0  0  0  0
  122.5283  130.6004   67.0547 H   0  0  0  0  0  0  0  0  0  0  0  0
  1  2  1  0
  2  3  1  0
  3  4  2  0
  4  5  1  0
  5  6  1  0
  6  7  1  0
  7  8  1  0
  8  9  2  0
  8 10  1  0
 10 11  1  0
 11 12  1  0
 12 13  2  0
 13 14  1  0
 14 15  1  0
 14 16  2  0
 16 17  1  0
 17 18  1  0
 17 19  2  0
 19 20  1  0
 20 21  1  0
  5 22  2  0
 22 23  1  0
 23 24  1  0
 24 25  1  0
 23 26  2  0
 26 27  1  0
 27 28  1  0
 26  3  1  0
 20 10  2  0
 19 12  1  0
  1 29  1  0
  1 30  1  0
  1 31  1  0
  4 32  1  0
  6 33  1  0
  6 34  1  0
  7 35  1  0
 15 36  1  0
 15 37  1  0
 15 38  1  0
 16 39  1  0
 18 40  1  0
 18 41  1  0
 18 42  1  0
 21 43  1  0
 21 44  1  0
 22 45  1  0
 25 46  1  0
 25 47  1  0
 25 48  1  0
 28 49  1  0
 28 50  1  0
 28 51  1  0
M  END
>  <Binding energies>  (1) 
[-6.88]

>  <Ligand effiencies>  (1) 
[-0.22193548387096773]

>  <Interactions>  (1) 
["V-B:TYR:539:CD2:9846, V-A:LEU:475:CD2:4259, V-B:GLU:543:CD:9880, V-B:TYR:539:CE2:9848, H-A:GLU:543:OE2:4910, V-A:GLU:543:CD:4908, H-A:GLU:543:OE1:4909, V-A:ARG:545:CZ:4926, V-B:ILE:369:CD1:8211, V-A:GLU:543:CG:4907, V-B:ARG:545:CZ:9898, H-B:GLY:454:N:9022, H-B:ARG:545:NE:9896, V-B:GLY:453:C:9014, V-B:GLY:454:C:9019, V-B:ILE:455:C:9024, V-B:GLY:454:CA:9021, V-B:GLY:453:CA:9016, V-B:ARG:545:CD:9895, H-B:ARG:545:NH1:9899, V-B:HIS:456:CE1:9042, V-B:ARG:545:CG:9894, H-A:ASP:366:OD1:3214, V-B:TYR:484:CE1:9317, H-B:HIS:456:ND1:9039, V-B:GLU:543:CB:9878, V-B:TYR:484:CZ:9319, V-B:ASP:366:CG:8185, H-B:ARG:545:NH2:9900"]

$$$$
4ai_Grossjean_2025
     RDKit          3D

 32 34  0  0  0  0  0  0  0  0999 V2000
  132.4100  124.6340   59.5130 C   0  0  0  0  0  0  0  0  0  0  0  0
  130.9840  124.8900   59.9680 C   0  0  0  0  0  0  0  0  0  0  0  0
  129.9880  123.9350   59.7750 C   0  0  0  0  0  0  0  0  0  0  0  0
  128.6810  124.1890   60.2080 C   0  0  0  0  0  0  0  0  0  0  0  0
  127.6290  123.1150   59.9760 C   0  0  0  0  0  0  0  0  0  0  0  0
  128.4230  125.4360   60.8390 C   0  0  0  0  0  0  0  0  0  0  0  0
  127.2270  126.0130   61.3920 C   0  0  0  0  0  0  0  0  0  0  0  0
  126.0230  125.3550   61.3780 N   0  0  0  0  0  0  0  0  0  0  0  0
  127.4130  127.2900   61.9450 C   0  0  0  0  0  0  0  0  0  0  0  0
  126.4200  128.1620   62.5770 C   0  0  0  0  0  0  0  0  0  0  0  0
  125.7410  128.9360   61.9000 O   0  0  0  0  0  0  0  0  0  0  0  0
  126.3080  128.0340   63.9230 N   0  0  0  0  0  0  0  0  0  0  0  0
  125.4470  128.7240   64.7670 C   0  0  0  0  0  0  0  0  0  0  0  0
  125.5160  128.6420   66.1580 C   0  0  0  0  0  0  0  0  0  0  0  0
  124.5060  129.4560   66.6160 C   0  0  0  0  0  0  0  0  0  0  0  0
  123.8630  130.0020   65.5560 O   0  0  0  0  0  0  0  0  0  0  0  0
  124.4690  129.5310   64.3900 N   0  0  0  0  0  0  0  0  0  0  0  0
  129.0860  127.8230   61.7680 S   0  0  0  0  0  0  0  0  0  0  0  0
  129.5290  126.3270   60.9760 C   0  0  0  0  0  0  0  0  0  0  0  0
  130.7750  126.0890   60.5640 N   0  0  0  0  0  0  0  0  0  0  0  0
  133.0602  124.5173   60.3926 H   0  0  0  0  0  0  0  0  0  0  0  0
  132.4427  123.7156   58.9084 H   0  0  0  0  0  0  0  0  0  0  0  0
  132.7601  125.4837   58.9084 H   0  0  0  0  0  0  0  0  0  0  0  0
  130.2286  122.9814   59.2824 H   0  0  0  0  0  0  0  0  0  0  0  0
  127.2647  122.7431   60.9450 H   0  0  0  0  0  0  0  0  0  0  0  0
  126.7891  123.5411   59.4076 H   0  0  0  0  0  0  0  0  0  0  0  0
  128.0724  122.2841   59.4076 H   0  0  0  0  0  0  0  0  0  0  0  0
  125.3740  125.4490   60.6100 H   0  0  0  0  0  0  0  0  0  0  0  0
  125.7430  124.7560   62.1420 H   0  0  0  0  0  0  0  0  0  0  0  0
  126.9070  127.3580   64.3720 H   0  0  0  0  0  0  0  0  0  0  0  0
  126.2250  128.0535   66.7588 H   0  0  0  0  0  0  0  0  0  0  0  0
  124.2600  129.6348   67.6731 H   0  0  0  0  0  0  0  0  0  0  0  0
  1  2  1  0
  2  3  2  0
  3  4  1  0
  4  5  1  0
  4  6  2  0
  6  7  1  0
  7  8  1  0
  7  9  2  0
  9 10  1  0
 10 11  2  0
 10 12  1  0
 12 13  1  0
 13 14  1  0
 14 15  2  0
 15 16  1  0
 16 17  1  0
  9 18  1  0
 18 19  1  0
 19 20  2  0
 20  2  1  0
 19  6  1  0
 17 13  2  0
  1 21  1  0
  1 22  1  0
  1 23  1  0
  3 24  1  0
  5 25  1  0
  5 26  1  0
  5 27  1  0
  8 28  1  0
  8 29  1  0
 12 30  1  0
 14 31  1  0
 15 32  1  0
M  END
>  <Binding energies>  (1) 
[-5.86]

>  <Ligand effiencies>  (1) 
[-0.25478260869565217]

>  <Interactions>  (1) 
["H-B:GLU:543:OE2:9882, V-B:GLU:543:CD:9880, H-B:GLU:543:OE1:9881, V-B:TYR:539:CE2:9848, V-A:GLU:543:CD:4908, V-B:PRO:540:CA:9855, V-B:ARG:545:CZ:9898, H-B:GLY:454:N:9022, H-B:ARG:545:NE:9896, H-B:TYR:484:OH:9320, V-B:ARG:545:CD:9895, H-B:ARG:545:NH1:9899, V-B:HIS:456:CE1:9042, V-B:ARG:545:CG:9894, V-A:ASP:366:CG:3213, V-B:TYR:484:CE1:9317, V-B:TYR:484:CZ:9319, V-B:ASP:366:CG:8185, H-B:ARG:545:NH2:9900, H-B:ASP:366:OD2:8187, H-B:ASP:366:OD1:8186"]

$$$$
4aj_Grossjean_2025
     RDKit          3D

 32 34  0  0  0  0  0  0  0  0999 V2000
  122.4270  130.4000   62.1040 C   0  0  0  0  0  0  0  0  0  0  0  0
  123.7270  131.1230   61.7980 C   0  0  0  0  0  0  0  0  0  0  0  0
  123.7240  132.4200   61.2920 C   0  0  0  0  0  0  0  0  0  0  0  0
  124.9340  133.0650   61.0120 C   0  0  0  0  0  0  0  0  0  0  0  0
  124.8780  134.4810   60.4590 C   0  0  0  0  0  0  0  0  0  0  0  0
  126.1380  132.3550   61.2630 C   0  0  0  0  0  0  0  0  0  0  0  0
  127.5230  132.7040   61.0930 C   0  0  0  0  0  0  0  0  0  0  0  0
  127.9170  133.9220   60.6020 N   0  0  0  0  0  0  0  0  0  0  0  0
  128.4170  131.6920   61.4800 C   0  0  0  0  0  0  0  0  0  0  0  0
  129.8810  131.7030   61.4330 C   0  0  0  0  0  0  0  0  0  0  0  0
  130.5420  131.9030   62.4540 O   0  0  0  0  0  0  0  0  0  0  0  0
  130.4250  131.4690   60.2130 N   0  0  0  0  0  0  0  0  0  0  0  0
  131.7770  131.4140   59.9010 C   0  0  0  0  0  0  0  0  0  0  0  0
  132.7990  131.6710   60.6890 N   0  0  0  0  0  0  0  0  0  0  0  0
  133.9470  131.5140   60.0590 C   0  0  0  0  0  0  0  0  0  0  0  0
  133.8700  131.1200   58.7260 C   0  0  0  0  0  0  0  0  0  0  0  0
  132.1970  130.9490   58.2840 S   0  0  0  0  0  0  0  0  0  0  0  0
  127.5540  130.2640   62.0530 S   0  0  0  0  0  0  0  0  0  0  0  0
  126.0060  131.0320   61.7850 C   0  0  0  0  0  0  0  0  0  0  0  0
  124.8550  130.4140   62.0520 N   0  0  0  0  0  0  0  0  0  0  0  0
  122.2958  130.3270   63.1937 H   0  0  0  0  0  0  0  0  0  0  0  0
  121.5853  130.9596   61.6700 H   0  0  0  0  0  0  0  0  0  0  0  0
  122.4584  129.3897   61.6700 H   0  0  0  0  0  0  0  0  0  0  0  0
  122.7703  132.9379   61.1122 H   0  0  0  0  0  0  0  0  0  0  0  0
  124.8496  135.1990   61.2918 H   0  0  0  0  0  0  0  0  0  0  0  0
  125.7694  134.6694   59.8426 H   0  0  0  0  0  0  0  0  0  0  0  0
  123.9745  134.5985   59.8426 H   0  0  0  0  0  0  0  0  0  0  0  0
  127.2520  134.6530   60.3950 H   0  0  0  0  0  0  0  0  0  0  0  0
  128.8910  134.1290   60.4280 H   0  0  0  0  0  0  0  0  0  0  0  0
  129.7900  131.3120   59.4450 H   0  0  0  0  0  0  0  0  0  0  0  0
  134.9117  131.6849   60.5591 H   0  0  0  0  0  0  0  0  0  0  0  0
  134.7282  130.9452   58.0604 H   0  0  0  0  0  0  0  0  0  0  0  0
  1  2  1  0
  2  3  2  0
  3  4  1  0
  4  5  1  0
  4  6  2  0
  6  7  1  0
  7  8  1  0
  7  9  2  0
  9 10  1  0
 10 11  2  0
 10 12  1  0
 12 13  1  0
 13 14  2  0
 14 15  1  0
 15 16  2  0
 16 17  1  0
  9 18  1  0
 18 19  1  0
 19 20  2  0
 20  2  1  0
 19  6  1  0
 17 13  1  0
  1 21  1  0
  1 22  1  0
  1 23  1  0
  3 24  1  0
  5 25  1  0
  5 26  1  0
  5 27  1  0
  8 28  1  0
  8 29  1  0
 12 30  1  0
 15 31  1  0
 16 32  1  0
M  END
>  <Binding energies>  (1) 
[-5.78]

>  <Ligand effiencies>  (1) 
[-0.25130434782608696]

>  <Interactions>  (1) 
["V-B:ILE:369:CD1:8211, V-A:TYR:539:CE1:4875, V-A:PRO:540:CA:4883, V-A:ALA:541:CB:4892, V-A:TYR:539:CD1:4873, V-B:ILE:369:CG2:8209, V-B:LEU:475:CD2:9231, H-A:ALA:541:N:4891, V-B:GLY:453:C:9014, V-A:ASN:362:CB:3176, V-A:TYR:539:C:4867, V-B:GLY:453:CA:9016, V-A:PRO:540:CB:4885, V-A:ASP:366:CG:3213, V-B:ASP:366:CG:8185, V-A:ASP:366:CB:3212, V-A:ASN:362:C:3172, V-A:LEU:363:CB:3187, V-A:ASN:362:CA:3174, V-A:LEU:363:CA:3185, V-A:LEU:363:CD1:3189, H-A:TYR:539:O:4868"]

$$$$
4ak_Grossjean_2025
     RDKit          3D

 50 51  0  0  0  0  0  0  0  0999 V2000
  128.8490  122.3610   62.4840 C   0  0  0  0  0  0  0  0  0  0  0  0
  130.0880  121.6700   62.4920 O   0  0  0  0  0  0  0  0  0  0  0  0
  130.5830  121.3800   61.1910 C   0  0  0  0  0  0  0  0  0  0  0  0
  131.4450  122.5500   60.6990 C   0  0  0  0  0  0  0  0  0  0  0  0
  132.7340  122.4670   61.2920 O   0  0  0  0  0  0  0  0  0  0  0  0
  133.0160  123.5230   62.2010 C   0  0  0  0  0  0  0  0  0  0  0  0
  133.1310  124.8420   61.4270 C   0  0  0  0  0  0  0  0  0  0  0  0
  131.9210  125.5740   61.5650 O   0  0  0  0  0  0  0  0  0  0  0  0
  131.5830  125.8780   62.9120 C   0  0  0  0  0  0  0  0  0  0  0  0
  130.1140  125.4950   63.1680 C   0  0  0  0  0  0  0  0  0  0  0  0
  129.1840  126.6150   63.0300 N   0  0  0  0  0  0  0  0  0  0  0  0
  129.1220  127.4530   61.9750 C   0  0  0  0  0  0  0  0  0  0  0  0
  129.8540  127.3320   60.9920 O   0  0  0  0  0  0  0  0  0  0  0  0
  128.1240  128.5180   62.0570 C   0  0  0  0  0  0  0  0  0  0  0  0
  128.1720  129.8720   60.9280 S   0  0  0  0  0  0  0  0  0  0  0  0
  126.7550  130.5910   61.6580 C   0  0  0  0  0  0  0  0  0  0  0  0
  126.2410  131.7410   61.2190 N   0  0  0  0  0  0  0  0  0  0  0  0
  125.1430  132.1900   61.8740 C   0  0  0  0  0  0  0  0  0  0  0  0
  124.5730  133.4990   61.3590 C   0  0  0  0  0  0  0  0  0  0  0  0
  124.5520  131.5240   62.9450 C   0  0  0  0  0  0  0  0  0  0  0  0
  125.0930  130.3170   63.4040 C   0  0  0  0  0  0  0  0  0  0  0  0
  124.4160  129.6280   64.5780 C   0  0  0  0  0  0  0  0  0  0  0  0
  126.2460  129.8140   62.7420 C   0  0  0  0  0  0  0  0  0  0  0  0
  127.0430  128.6340   62.9450 C   0  0  0  0  0  0  0  0  0  0  0  0
  126.7590  127.7160   63.9240 N   0  0  0  0  0  0  0  0  0  0  0  0
  128.5237  122.5424   63.5190 H   0  0  0  0  0  0  0  0  0  0  0  0
  128.9688  123.3226   61.9634 H   0  0  0  0  0  0  0  0  0  0  0  0
  128.0939  121.7538   61.9634 H   0  0  0  0  0  0  0  0  0  0  0  0
  131.1925  120.4650   61.2262 H   0  0  0  0  0  0  0  0  0  0  0  0
  129.7384  121.2318   60.5020 H   0  0  0  0  0  0  0  0  0  0  0  0
  131.5405  122.5009   59.6043 H   0  0  0  0  0  0  0  0  0  0  0  0
  130.9704  123.5012   60.9818 H   0  0  0  0  0  0  0  0  0  0  0  0
  132.2035  123.5996   62.9385 H   0  0  0  0  0  0  0  0  0  0  0  0
  133.9631  123.3177   62.7214 H   0  0  0  0  0  0  0  0  0  0  0  0
  133.9663  125.4332   61.8304 H   0  0  0  0  0  0  0  0  0  0  0  0
  133.3146  124.6305   60.3633 H   0  0  0  0  0  0  0  0  0  0  0  0
  132.2346  125.3091   63.5915 H   0  0  0  0  0  0  0  0  0  0  0  0
  131.7193  126.9546   63.0916 H   0  0  0  0  0  0  0  0  0  0  0  0
  129.8276  124.7145   62.4477 H   0  0  0  0  0  0  0  0  0  0  0  0
  130.0482  125.1478   64.2097 H   0  0  0  0  0  0  0  0  0  0  0  0
  128.5500  126.7670   63.8020 H   0  0  0  0  0  0  0  0  0  0  0  0
  124.2948  134.1379   62.2101 H   0  0  0  0  0  0  0  0  0  0  0  0
  125.3290  134.0125   60.7468 H   0  0  0  0  0  0  0  0  0  0  0  0
  123.6821  133.2953   60.7468 H   0  0  0  0  0  0  0  0  0  0  0  0
  123.6599  131.9465   63.4304 H   0  0  0  0  0  0  0  0  0  0  0  0
  124.8140  130.0331   65.5201 H   0  0  0  0  0  0  0  0  0  0  0  0
  123.3314  129.8057   64.5317 H   0  0  0  0  0  0  0  0  0  0  0  0
  124.6127  128.5467   64.5317 H   0  0  0  0  0  0  0  0  0  0  0  0
  127.2090  127.7440   64.8280 H   0  0  0  0  0  0  0  0  0  0  0  0
  126.0830  126.9810   63.7730 H   0  0  0  0  0  0  0  0  0  0  0  0
  1  2  1  0
  2  3  1  0
  3  4  1  0
  4  5  1  0
  5  6  1  0
  6  7  1  0
  7  8  1  0
  8  9  1  0
  9 10  1  0
 10 11  1  0
 11 12  1  0
 12 13  2  0
 12 14  1  0
 14 15  1  0
 15 16  1  0
 16 17  2  0
 17 18  1  0
 18 19  1  0
 18 20  2  0
 20 21  1  0
 21 22  1  0
 21 23  2  0
 23 24  1  0
 24 25  1  0
 24 14  2  0
 23 16  1  0
  1 26  1  0
  1 27  1  0
  1 28  1  0
  3 29  1  0
  3 30  1  0
  4 31  1  0
  4 32  1  0
  6 33  1  0
  6 34  1  0
  7 35  1  0
  7 36  1  0
  9 37  1  0
  9 38  1  0
 10 39  1  0
 10 40  1  0
 11 41  1  0
 19 42  1  0
 19 43  1  0
 19 44  1  0
 20 45  1  0
 22 46  1  0
 22 47  1  0
 22 48  1  0
 25 49  1  0
 25 50  1  0
M  END
>  <Binding energies>  (1) 
[-4.51]

>  <Ligand effiencies>  (1) 
[-0.16107142857142856]

>  <Interactions>  (1) 
["V-B:ALA:541:CB:9864, V-B:TYR:539:CD2:9846, H-B:GLU:543:OE2:9882, V-A:TYR:484:CE1:4345, V-A:LEU:475:CD2:4259, V-B:GLU:543:CD:9880, H-B:GLU:543:OE1:9881, V-B:TYR:539:CE2:9848, V-A:GLU:543:CD:4908, H-A:GLU:543:OE1:4909, V-A:ARG:545:CZ:4926, H-A:TYR:484:OH:4348, V-B:ARG:545:CZ:9898, V-B:LEU:475:CD2:9231, V-B:GLY:454:CA:9021, V-A:ASP:366:CG:3213, V-A:GLY:454:CA:4049, H-A:ARG:545:NH2:4928"]

$$$$
4al_Grossjean_2025
     RDKit          3D

 28 29  0  0  0  0  0  0  0  0999 V2000
  126.0670  123.6490   59.3970 C   0  0  0  0  0  0  0  0  0  0  0  0
  125.2570  123.5270   60.5570 O   0  0  0  0  0  0  0  0  0  0  0  0
  125.8000  123.1880   61.7540 C   0  0  0  0  0  0  0  0  0  0  0  0
  125.1390  122.8650   62.7450 O   0  0  0  0  0  0  0  0  0  0  0  0
  127.2780  123.2440   61.7530 C   0  0  0  0  0  0  0  0  0  0  0  0
  128.2170  121.7500   61.7550 S   0  0  0  0  0  0  0  0  0  0  0  0
  129.7190  122.6450   61.7530 C   0  0  0  0  0  0  0  0  0  0  0  0
  130.9040  122.0340   61.7530 N   0  0  0  0  0  0  0  0  0  0  0  0
  131.9920  122.8440   61.7510 C   0  0  0  0  0  0  0  0  0  0  0  0
  133.3300  122.1280   61.7510 C   0  0  0  0  0  0  0  0  0  0  0  0
  131.9220  124.2350   61.7480 C   0  0  0  0  0  0  0  0  0  0  0  0
  130.6770  124.8740   61.7480 C   0  0  0  0  0  0  0  0  0  0  0  0
  130.6510  126.3940   61.7460 C   0  0  0  0  0  0  0  0  0  0  0  0
  129.5140  124.0570   61.7500 C   0  0  0  0  0  0  0  0  0  0  0  0
  128.1120  124.3690   61.7510 C   0  0  0  0  0  0  0  0  0  0  0  0
  127.6410  125.6570   61.7490 N   0  0  0  0  0  0  0  0  0  0  0  0
  127.1139  123.8067   59.6957 H   0  0  0  0  0  0  0  0  0  0  0  0
  125.9911  122.7293   58.7984 H   0  0  0  0  0  0  0  0  0  0  0  0
  125.7235  124.5055   58.7984 H   0  0  0  0  0  0  0  0  0  0  0  0
  133.6533  121.9550   62.7881 H   0  0  0  0  0  0  0  0  0  0  0  0
  133.2295  121.1631   61.2325 H   0  0  0  0  0  0  0  0  0  0  0  0
  134.0771  122.7469   61.2325 H   0  0  0  0  0  0  0  0  0  0  0  0
  132.8460  124.8318   61.7456 H   0  0  0  0  0  0  0  0  0  0  0  0
  130.6447  126.7620   62.7826 H   0  0  0  0  0  0  0  0  0  0  0  0
  131.5428  126.7753   61.2270 H   0  0  0  0  0  0  0  0  0  0  0  0
  129.7467  126.7446   61.2270 H   0  0  0  0  0  0  0  0  0  0  0  0
  127.8450  126.3000   60.9980 H   0  0  0  0  0  0  0  0  0  0  0  0
  127.0700  126.0090   62.5060 H   0  0  0  0  0  0  0  0  0  0  0  0
  1  2  1  0
  2  3  1  0
  3  4  2  0
  3  5  1  0
  5  6  1  0
  6  7  1  0
  7  8  2  0
  8  9  1  0
  9 10  1  0
  9 11  2  0
 11 12  1  0
 12 13  1  0
 12 14  2  0
 14 15  1  0
 15 16  1  0
 15  5  2  0
 14  7  1  0
  1 17  1  0
  1 18  1  0
  1 19  1  0
 10 20  1  0
 10 21  1  0
 10 22  1  0
 11 23  1  0
 13 24  1  0
 13 25  1  0
 13 26  1  0
 16 27  1  0
 16 28  1  0
M  END
>  <Binding energies>  (1) 
[-5.0]

>  <Ligand effiencies>  (1) 
[-0.2777777777777778]

>  <Interactions>  (1) 
["V-B:ALA:541:CB:9864, H-B:GLU:543:OE2:9882, V-A:LEU:475:CD2:4259, V-B:GLU:543:CD:9880, H-B:GLU:543:OE1:9881, V-B:PRO:540:C:9853, V-B:ALA:541:CA:9862, V-B:PRO:540:CA:9855, H-A:TYR:484:OH:4348, V-A:GLY:454:CA:4049, V-A:ILE:369:CD1:3239, H-B:ALA:541:N:9863, H-B:ARG:545:NH2:9900, H-B:ASN:362:ND2:8151, V-B:PRO:540:CB:9857"]

$$$$
4ba_Grossjean_2025
     RDKit          3D

 44 46  0  0  0  0  0  0  0  0999 V2000
  131.1020  117.7580   59.9020 C   0  0  0  0  0  0  0  0  0  0  0  0
  131.1760  119.2350   60.3320 C   0  0  0  0  0  0  0  0  0  0  0  0
  130.1240  119.6670   61.3750 C   0  0  0  0  0  0  0  0  0  0  0  0
  129.6270  118.8200   62.1210 O   0  0  0  0  0  0  0  0  0  0  0  0
  129.7560  121.1200   61.4350 C   0  0  0  0  0  0  0  0  0  0  0  0
  130.7660  122.0890   61.3650 C   0  0  0  0  0  0  0  0  0  0  0  0
  130.4530  123.4440   61.4200 C   0  0  0  0  0  0  0  0  0  0  0  0
  129.1260  123.8600   61.5410 C   0  0  0  0  0  0  0  0  0  0  0  0
  128.9240  125.2520   61.5960 N   0  0  0  0  0  0  0  0  0  0  0  0
  129.8250  126.2650   61.5880 C   0  0  0  0  0  0  0  0  0  0  0  0
  131.0460  126.1050   61.5720 O   0  0  0  0  0  0  0  0  0  0  0  0
  129.2510  127.6120   61.6260 C   0  0  0  0  0  0  0  0  0  0  0  0
  129.9760  128.9110   60.6820 S   0  0  0  0  0  0  0  0  0  0  0  0
  128.8170  130.0670   61.2950 C   0  0  0  0  0  0  0  0  0  0  0  0
  128.8460  131.3450   60.9210 N   0  0  0  0  0  0  0  0  0  0  0  0
  127.8990  132.1440   61.4620 C   0  0  0  0  0  0  0  0  0  0  0  0
  127.9560  133.5980   61.0290 C   0  0  0  0  0  0  0  0  0  0  0  0
  126.9290  131.6990   62.3560 C   0  0  0  0  0  0  0  0  0  0  0  0
  126.8920  130.3530   62.7540 C   0  0  0  0  0  0  0  0  0  0  0  0
  125.8050  129.9100   63.7390 C   0  0  0  0  0  0  0  0  0  0  0  0
  125.0950  128.8690   63.2980 F   0  0  0  0  0  0  0  0  0  0  0  0
  126.3610  129.5520   64.8970 F   0  0  0  0  0  0  0  0  0  0  0  0
  124.9530  130.9140   63.9510 F   0  0  0  0  0  0  0  0  0  0  0  0
  127.8830  129.4840   62.2060 C   0  0  0  0  0  0  0  0  0  0  0  0
  128.1630  128.0800   62.3820 C   0  0  0  0  0  0  0  0  0  0  0  0
  127.4260  127.2770   63.2150 N   0  0  0  0  0  0  0  0  0  0  0  0
  128.1100  122.8960   61.6180 C   0  0  0  0  0  0  0  0  0  0  0  0
  128.4240  121.5410   61.5640 C   0  0  0  0  0  0  0  0  0  0  0  0
  131.0699  117.1172   60.7955 H   0  0  0  0  0  0  0  0  0  0  0  0
  130.1946  117.5959   59.3017 H   0  0  0  0  0  0  0  0  0  0  0  0
  131.9886  117.5060   59.3017 H   0  0  0  0  0  0  0  0  0  0  0  0
  132.1734  119.4159   60.7591 H   0  0  0  0  0  0  0  0  0  0  0  0
  130.9722  119.8276   59.4280 H   0  0  0  0  0  0  0  0  0  0  0  0
  131.8158  121.7758   61.2657 H   0  0  0  0  0  0  0  0  0  0  0  0
  131.2572  124.1927   61.3677 H   0  0  0  0  0  0  0  0  0  0  0  0
  127.9550  125.5240   61.6660 H   0  0  0  0  0  0  0  0  0  0  0  0
  127.9814  134.2447   61.9184 H   0  0  0  0  0  0  0  0  0  0  0  0
  128.8614  133.7662   60.4274 H   0  0  0  0  0  0  0  0  0  0  0  0
  127.0665  133.8366   60.4274 H   0  0  0  0  0  0  0  0  0  0  0  0
  126.1865  132.4067   62.7533 H   0  0  0  0  0  0  0  0  0  0  0  0
  126.7520  126.6140   62.8610 H   0  0  0  0  0  0  0  0  0  0  0  0
  127.5280  127.3280   64.2190 H   0  0  0  0  0  0  0  0  0  0  0  0
  127.0614  123.2119   61.7214 H   0  0  0  0  0  0  0  0  0  0  0  0
  127.6197  120.7929   61.6231 H   0  0  0  0  0  0  0  0  0  0  0  0
  1  2  1  0
  2  3  1  0
  3  4  2  0
  3  5  1  0
  5  6  2  0
  6  7  1  0
  7  8  2  0
  8  9  1  0
  9 10  1  0
 10 11  2  0
 10 12  1  0
 12 13  1  0
 13 14  1  0
 14 15  2  0
 15 16  1  0
 16 17  1  0
 16 18  2  0
 18 19  1  0
 19 20  1  0
 20 21  1  0
 20 22  1  0
 20 23  1  0
 19 24  2  0
 24 25  1  0
 25 26  1  0
  8 27  1  0
 27 28  2  0
 28  5  1  0
 25 12  2  0
 24 14  1  0
  1 29  1  0
  1 30  1  0
  1 31  1  0
  2 32  1  0
  2 33  1  0
  6 34  1  0
  7 35  1  0
  9 36  1  0
 17 37  1  0
 17 38  1  0
 17 39  1  0
 18 40  1  0
 26 41  1  0
 26 42  1  0
 27 43  1  0
 28 44  1  0
M  END
>  <Binding energies>  (1) 
[-5.66]

>  <Ligand effiencies>  (1) 
[-0.18258064516129033]

>  <Interactions>  (1) 
["V-B:ALA:541:CB:9864, V-B:TYR:539:CD2:9846, H-B:GLU:543:OE2:9882, V-A:LEU:475:CD1:4258, V-A:LEU:475:CD2:4259, V-B:GLU:543:CD:9880, V-A:SER:385:CB:3409, H-B:GLU:543:OE1:9881, V-B:PRO:540:C:9853, V-B:ALA:541:CA:9862, V-B:PRO:540:CA:9855, V-A:ALA:541:CB:4892, V-B:ARG:545:CZ:9898, V-B:GLY:454:CA:9021, V-B:TYR:484:CZ:9319, H-A:ARG:545:NH2:4928, V-B:TYR:539:CB:9843"]

$$$$
4bb_Grossjean_2025
     RDKit          3D

 41 43  0  0  0  0  0  0  0  0999 V2000
  123.4410  131.4710   61.6230 C   0  0  0  0  0  0  0  0  0  0  0  0
  124.4200  131.1430   62.7520 C   0  0  0  0  0  0  0  0  0  0  0  0
  124.5010  131.9290   63.6970 O   0  0  0  0  0  0  0  0  0  0  0  0
  125.2360  129.8890   62.6430 C   0  0  0  0  0  0  0  0  0  0  0  0
  125.3400  129.2430   61.4050 C   0  0  0  0  0  0  0  0  0  0  0  0
  126.0900  128.0770   61.2770 C   0  0  0  0  0  0  0  0  0  0  0  0
  126.7560  127.5400   62.3800 C   0  0  0  0  0  0  0  0  0  0  0  0
  127.4830  126.3570   62.1390 N   0  0  0  0  0  0  0  0  0  0  0  0
  128.7830  126.1890   61.7940 C   0  0  0  0  0  0  0  0  0  0  0  0
  129.5720  127.1130   61.5980 O   0  0  0  0  0  0  0  0  0  0  0  0
  129.2090  124.7960   61.6300 C   0  0  0  0  0  0  0  0  0  0  0  0
  128.0930  123.4790   61.9820 S   0  0  0  0  0  0  0  0  0  0  0  0
  129.3110  122.2830   61.6020 C   0  0  0  0  0  0  0  0  0  0  0  0
  129.0520  120.9790   61.6800 N   0  0  0  0  0  0  0  0  0  0  0  0
  130.0740  120.1510   61.3620 C   0  0  0  0  0  0  0  0  0  0  0  0
  129.7580  118.6690   61.4570 C   0  0  0  0  0  0  0  0  0  0  0  0
  131.3360  120.5920   60.9730 C   0  0  0  0  0  0  0  0  0  0  0  0
  131.6140  121.9650   60.8890 C   0  0  0  0  0  0  0  0  0  0  0  0
  133.0170  122.4020   60.4550 C   0  0  0  0  0  0  0  0  0  0  0  0
  133.6120  123.2030   61.3430 F   0  0  0  0  0  0  0  0  0  0  0  0
  133.7950  121.3300   60.2990 F   0  0  0  0  0  0  0  0  0  0  0  0
  132.9470  123.0670   59.3020 F   0  0  0  0  0  0  0  0  0  0  0  0
  130.5570  122.8670   61.2170 C   0  0  0  0  0  0  0  0  0  0  0  0
  130.4690  124.3050   61.2480 C   0  0  0  0  0  0  0  0  0  0  0  0
  131.5240  125.1190   60.9230 N   0  0  0  0  0  0  0  0  0  0  0  0
  126.6490  128.1780   63.6250 C   0  0  0  0  0  0  0  0  0  0  0  0
  125.8970  129.3430   63.7510 C   0  0  0  0  0  0  0  0  0  0  0  0
  122.4807  131.7927   62.0523 H   0  0  0  0  0  0  0  0  0  0  0  0
  123.8545  132.2797   61.0025 H   0  0  0  0  0  0  0  0  0  0  0  0
  123.2839  130.5764   61.0025 H   0  0  0  0  0  0  0  0  0  0  0  0
  124.8252  129.6600   60.5269 H   0  0  0  0  0  0  0  0  0  0  0  0
  126.1582  127.5757   60.3003 H   0  0  0  0  0  0  0  0  0  0  0  0
  126.9340  125.5130   62.2190 H   0  0  0  0  0  0  0  0  0  0  0  0
  129.6952  118.3746   62.5150 H   0  0  0  0  0  0  0  0  0  0  0  0
  128.7965  118.4667   60.9624 H   0  0  0  0  0  0  0  0  0  0  0  0
  130.5533  118.0921   60.9624 H   0  0  0  0  0  0  0  0  0  0  0  0
  132.1200  119.8597   60.7300 H   0  0  0  0  0  0  0  0  0  0  0  0
  132.4140  124.7470   60.6230 H   0  0  0  0  0  0  0  0  0  0  0  0
  131.4480  126.1260   60.9750 H   0  0  0  0  0  0  0  0  0  0  0  0
  127.1602  127.7570   64.5033 H   0  0  0  0  0  0  0  0  0  0  0  0
  125.8212  129.8394   64.7297 H   0  0  0  0  0  0  0  0  0  0  0  0
  1  2  1  0
  2  3  2  0
  2  4  1  0
  4  5  2  0
  5  6  1  0
  6  7  2  0
  7  8  1  0
  8  9  1  0
  9 10  2  0
  9 11  1  0
 11 12  1  0
 12 13  1  0
 13 14  2  0
 14 15  1  0
 15 16  1  0
 15 17  2  0
 17 18  1  0
 18 19  1  0
 19 20  1  0
 19 21  1  0
 19 22  1  0
 18 23  2  0
 23 24  1  0
 24 25  1  0
  7 26  1  0
 26 27  2  0
 27  4  1  0
 24 11  2  0
 23 13  1  0
  1 28  1  0
  1 29  1  0
  1 30  1  0
  5 31  1  0
  6 32  1  0
  8 33  1  0
 16 34  1  0
 16 35  1  0
 16 36  1  0
 17 37  1  0
 25 38  1  0
 25 39  1  0
 26 40  1  0
 27 41  1  0
M  END
>  <Binding energies>  (1) 
[-5.33]

>  <Ligand effiencies>  (1) 
[-0.17766666666666667]

>  <Interactions>  (1) 
["V-B:ALA:541:CB:9864, V-B:TYR:539:CD2:9846, H-B:GLU:543:OE2:9882, V-A:PRO:482:CG:4327, V-A:PRO:482:CB:4326, V-B:TYR:539:C:9839, V-A:LEU:475:CD1:4258, V-A:LEU:475:CD2:4259, V-B:GLU:543:CD:9880, H-B:GLU:543:OE1:9881, V-A:ILE:369:CG2:3237, V-B:TYR:539:CE2:9848, V-A:SER:385:C:3405, V-B:ILE:369:CD1:8211, V-B:ARG:545:CZ:9898, H-B:GLY:454:N:9022, H-B:TYR:484:OH:9320, V-B:GLY:454:CA:9021, H-A:ASP:366:OD1:3214, V-A:LEU:475:CG:4257, V-A:ILE:369:CD1:3239, H-A:ASP:366:OD2:3215, V-B:ASP:366:CG:8185, H-B:ALA:541:N:9863, V-A:ILE:369:CB:3236, V-A:ILE:369:CG1:3238"]

$$$$
4bc_Grossjean_2025
     RDKit          3D

 40 42  0  0  0  0  0  0  0  0999 V2000
  123.7780  132.3890   62.2400 C   0  0  0  0  0  0  0  0  0  0  0  0
  123.7500  131.3810   63.2450 O   0  0  0  0  0  0  0  0  0  0  0  0
  124.6180  130.3100   63.1490 C   0  0  0  0  0  0  0  0  0  0  0  0
  124.9920  129.9260   61.8620 C   0  0  0  0  0  0  0  0  0  0  0  0
  125.8620  128.8570   61.6650 C   0  0  0  0  0  0  0  0  0  0  0  0
  126.3790  128.1610   62.7600 C   0  0  0  0  0  0  0  0  0  0  0  0
  127.2380  127.0870   62.4640 N   0  0  0  0  0  0  0  0  0  0  0  0
  128.5280  127.1100   62.0500 C   0  0  0  0  0  0  0  0  0  0  0  0
  129.1600  128.1430   61.8270 O   0  0  0  0  0  0  0  0  0  0  0  0
  129.1540  125.7970   61.8660 C   0  0  0  0  0  0  0  0  0  0  0  0
  128.1560  124.3610   61.6520 S   0  0  0  0  0  0  0  0  0  0  0  0
  129.5700  123.3420   61.5210 C   0  0  0  0  0  0  0  0  0  0  0  0
  129.4640  122.0270   61.3300 N   0  0  0  0  0  0  0  0  0  0  0  0
  130.6290  121.3430   61.2460 C   0  0  0  0  0  0  0  0  0  0  0  0
  130.4860  119.8490   61.0240 C   0  0  0  0  0  0  0  0  0  0  0  0
  131.8850  121.9370   61.3480 C   0  0  0  0  0  0  0  0  0  0  0  0
  132.0020  123.3210   61.5490 C   0  0  0  0  0  0  0  0  0  0  0  0
  133.4060  123.9280   61.6570 C   0  0  0  0  0  0  0  0  0  0  0  0
  133.5570  124.7030   62.7330 F   0  0  0  0  0  0  0  0  0  0  0  0
  134.3120  122.9540   61.7350 F   0  0  0  0  0  0  0  0  0  0  0  0
  133.6570  124.6800   60.5860 F   0  0  0  0  0  0  0  0  0  0  0  0
  130.7920  124.0720   61.6410 C   0  0  0  0  0  0  0  0  0  0  0  0
  130.5200  125.4760   61.8350 C   0  0  0  0  0  0  0  0  0  0  0  0
  131.5150  126.4100   61.9760 N   0  0  0  0  0  0  0  0  0  0  0  0
  125.9970  128.5330   64.0580 C   0  0  0  0  0  0  0  0  0  0  0  0
  125.1260  129.6020   64.2500 C   0  0  0  0  0  0  0  0  0  0  0  0
  123.8055  133.3804   62.7157 H   0  0  0  0  0  0  0  0  0  0  0  0
  124.6728  132.2578   61.6139 H   0  0  0  0  0  0  0  0  0  0  0  0
  122.8772  132.3076   61.6139 H   0  0  0  0  0  0  0  0  0  0  0  0
  124.5959  130.4729   60.9937 H   0  0  0  0  0  0  0  0  0  0  0  0
  126.1430  128.5597   60.6439 H   0  0  0  0  0  0  0  0  0  0  0  0
  126.8110  126.1760   62.5470 H   0  0  0  0  0  0  0  0  0  0  0  0
  130.4370  119.3369   61.9963 H   0  0  0  0  0  0  0  0  0  0  0  0
  129.5646  119.6490   60.4574 H   0  0  0  0  0  0  0  0  0  0  0  0
  131.3527  119.4779   60.4574 H   0  0  0  0  0  0  0  0  0  0  0  0
  132.7906  121.3174   61.2705 H   0  0  0  0  0  0  0  0  0  0  0  0
  132.4910  126.1700   61.8830 H   0  0  0  0  0  0  0  0  0  0  0  0
  131.3010  127.3770   62.1750 H   0  0  0  0  0  0  0  0  0  0  0  0
  126.3863  127.9792   64.9250 H   0  0  0  0  0  0  0  0  0  0  0  0
  124.8342  129.8935   65.2697 H   0  0  0  0  0  0  0  0  0  0  0  0
  1  2  1  0
  2  3  1  0
  3  4  2  0
  4  5  1  0
  5  6  2  0
  6  7  1  0
  7  8  1  0
  8  9  2  0
  8 10  1  0
 10 11  1  0
 11 12  1  0
 12 13  2  0
 13 14  1  0
 14 15  1  0
 14 16  2  0
 16 17  1  0
 17 18  1  0
 18 19  1  0
 18 20  1  0
 18 21  1  0
 17 22  2  0
 22 23  1  0
 23 24  1  0
  6 25  1  0
 25 26  2  0
 26  3  1  0
 23 10  2  0
 22 12  1  0
  1 27  1  0
  1 28  1  0
  1 29  1  0
  4 30  1  0
  5 31  1  0
  7 32  1  0
 15 33  1  0
 15 34  1  0
 15 35  1  0
 16 36  1  0
 24 37  1  0
 24 38  1  0
 25 39  1  0
 26 40  1  0
M  END
>  <Binding energies>  (1) 
[-5.52]

>  <Ligand effiencies>  (1) 
[-0.19034482758620688]

>  <Interactions>  (1) 
["V-B:TYR:539:CD2:9846, H-B:GLU:543:OE2:9882, V-A:LEU:475:CD2:4259, V-B:GLU:543:CD:9880, H-B:GLU:543:OE1:9881, H-A:GLU:543:OE2:4910, V-A:GLU:543:CD:4908, H-A:GLU:543:OE1:4909, V-A:ARG:545:CZ:4926, V-B:ILE:369:CD1:8211, V-B:ARG:545:CZ:9898, V-B:LEU:475:CD2:9231, H-B:GLY:454:N:9022, H-B:TYR:484:OH:9320, V-B:GLY:454:CA:9021, H-A:ASP:366:OD1:3214, V-A:ASP:366:CG:3213, V-A:GLY:454:CA:4049, V-A:ILE:369:CD1:3239, V-A:GLY:453:CA:4044, V-A:GLY:453:C:4042, H-A:ASP:366:OD2:3215, V-B:ASP:366:CG:8185, V-A:ASP:366:CB:3212"]

$$$$
4bd_Grossjean_2025
     RDKit          3D

 36 38  0  0  0  0  0  0  0  0999 V2000
  130.4580  119.8650   61.0000 C   0  0  0  0  0  0  0  0  0  0  0  0
  130.5960  121.3610   61.2150 C   0  0  0  0  0  0  0  0  0  0  0  0
  131.8490  121.9660   61.2700 C   0  0  0  0  0  0  0  0  0  0  0  0
  131.9620  123.3500   61.4710 C   0  0  0  0  0  0  0  0  0  0  0  0
  133.3620  123.9710   61.5280 C   0  0  0  0  0  0  0  0  0  0  0  0
  133.5470  124.7460   62.5990 F   0  0  0  0  0  0  0  0  0  0  0  0
  134.2820  123.0070   61.5690 F   0  0  0  0  0  0  0  0  0  0  0  0
  133.5640  124.7270   60.4500 F   0  0  0  0  0  0  0  0  0  0  0  0
  130.7510  124.0910   61.6120 C   0  0  0  0  0  0  0  0  0  0  0  0
  130.4750  125.4910   61.8250 C   0  0  0  0  0  0  0  0  0  0  0  0
  131.4660  126.4320   61.9310 N   0  0  0  0  0  0  0  0  0  0  0  0
  129.1070  125.7990   61.9160 C   0  0  0  0  0  0  0  0  0  0  0  0
  128.4780  127.1030   62.1440 C   0  0  0  0  0  0  0  0  0  0  0  0
  129.1200  128.1440   61.9970 O   0  0  0  0  0  0  0  0  0  0  0  0
  127.1710  127.0630   62.5040 N   0  0  0  0  0  0  0  0  0  0  0  0
  126.3010  128.1190   62.8320 C   0  0  0  0  0  0  0  0  0  0  0  0
  125.6940  128.7700   61.7530 C   0  0  0  0  0  0  0  0  0  0  0  0
  124.8080  129.8210   61.9750 C   0  0  0  0  0  0  0  0  0  0  0  0
  124.5210  130.2190   63.2770 C   0  0  0  0  0  0  0  0  0  0  0  0
  125.1080  129.5700   64.3610 C   0  0  0  0  0  0  0  0  0  0  0  0
  125.9950  128.5190   64.1440 C   0  0  0  0  0  0  0  0  0  0  0  0
  128.1150  124.3550   61.7300 S   0  0  0  0  0  0  0  0  0  0  0  0
  129.5320  123.3490   61.5380 C   0  0  0  0  0  0  0  0  0  0  0  0
  129.4300  122.0350   61.3450 N   0  0  0  0  0  0  0  0  0  0  0  0
  130.4112  119.3573   61.9747 H   0  0  0  0  0  0  0  0  0  0  0  0
  129.5371  119.6592   60.4347 H   0  0  0  0  0  0  0  0  0  0  0  0
  131.3258  119.4942   60.4347 H   0  0  0  0  0  0  0  0  0  0  0  0
  132.7563  121.3548   61.1551 H   0  0  0  0  0  0  0  0  0  0  0  0
  132.4410  126.2000   61.8000 H   0  0  0  0  0  0  0  0  0  0  0  0
  131.2540  127.3980   62.1380 H   0  0  0  0  0  0  0  0  0  0  0  0
  126.7440  126.1490   62.5280 H   0  0  0  0  0  0  0  0  0  0  0  0
  125.9176  128.4503   60.7245 H   0  0  0  0  0  0  0  0  0  0  0  0
  124.3367  130.3347   61.1242 H   0  0  0  0  0  0  0  0  0  0  0  0
  123.8251  131.0527   63.4518 H   0  0  0  0  0  0  0  0  0  0  0  0
  124.8710  129.8875   65.3871 H   0  0  0  0  0  0  0  0  0  0  0  0
  126.4559  128.0022   64.9987 H   0  0  0  0  0  0  0  0  0  0  0  0
  1  2  1  0
  2  3  2  0
  3  4  1  0
  4  5  1  0
  5  6  1  0
  5  7  1  0
  5  8  1  0
  4  9  2  0
  9 10  1  0
 10 11  1  0
 10 12  2  0
 12 13  1  0
 13 14  2  0
 13 15  1  0
 15 16  1  0
 16 17  2  0
 17 18  1  0
 18 19  2  0
 19 20  1  0
 20 21  2  0
 12 22  1  0
 22 23  1  0
 23 24  2  0
 24  2  1  0
 23  9  1  0
 21 16  1  0
  1 25  1  0
  1 26  1  0
  1 27  1  0
  3 28  1  0
 11 29  1  0
 11 30  1  0
 15 31  1  0
 17 32  1  0
 18 33  1  0
 19 34  1  0
 20 35  1  0
 21 36  1  0
M  END
>  <Binding energies>  (1) 
[-5.39]

>  <Ligand effiencies>  (1) 
[-0.19962962962962963]

>  <Interactions>  (1) 
["V-B:TYR:539:CD2:9846, H-B:GLU:543:OE2:9882, V-A:LEU:475:CD2:4259, V-B:GLU:543:CD:9880, H-B:GLU:543:OE1:9881, H-A:GLU:543:OE2:4910, V-A:GLU:543:CD:4908, H-A:GLU:543:OE1:4909, V-A:ARG:545:CZ:4926, V-B:ARG:545:CZ:9898, H-A:ASP:366:OD1:3214, V-A:ASP:366:CG:3213, V-A:GLY:454:CA:4049, V-A:ILE:369:CD1:3239, V-A:GLY:453:C:4042, H-A:ASP:366:OD2:3215, V-B:ASP:366:CG:8185, V-A:ASP:366:CB:3212"]

$$$$
4be_Grossjean_2025
     RDKit          3D

 38 40  0  0  0  0  0  0  0  0999 V2000
  124.2460  129.5050   65.9510 C   0  0  0  0  0  0  0  0  0  0  0  0
  124.8440  129.4280   64.5590 C   0  0  0  0  0  0  0  0  0  0  0  0
  124.5350  130.3730   63.5780 C   0  0  0  0  0  0  0  0  0  0  0  0
  125.1210  130.2380   62.3190 C   0  0  0  0  0  0  0  0  0  0  0  0
  125.9920  129.1730   62.0730 C   0  0  0  0  0  0  0  0  0  0  0  0
  126.2630  128.2660   63.1040 C   0  0  0  0  0  0  0  0  0  0  0  0
  127.1420  127.2130   62.7900 N   0  0  0  0  0  0  0  0  0  0  0  0
  128.3950  127.2740   62.2760 C   0  0  0  0  0  0  0  0  0  0  0  0
  128.9740  128.3280   62.0020 O   0  0  0  0  0  0  0  0  0  0  0  0
  129.0400  125.9810   62.0350 C   0  0  0  0  0  0  0  0  0  0  0  0
  128.0610  124.5420   61.7520 S   0  0  0  0  0  0  0  0  0  0  0  0
  129.4880  123.5440   61.6090 C   0  0  0  0  0  0  0  0  0  0  0  0
  129.4000  122.2360   61.3690 N   0  0  0  0  0  0  0  0  0  0  0  0
  130.5740  121.5690   61.2780 C   0  0  0  0  0  0  0  0  0  0  0  0
  130.4520  120.0810   61.0070 C   0  0  0  0  0  0  0  0  0  0  0  0
  131.8200  122.1730   61.4170 C   0  0  0  0  0  0  0  0  0  0  0  0
  131.9200  123.5500   61.6690 C   0  0  0  0  0  0  0  0  0  0  0  0
  133.3140  124.1700   61.8110 C   0  0  0  0  0  0  0  0  0  0  0  0
  133.5060  124.7550   62.9960 F   0  0  0  0  0  0  0  0  0  0  0  0
  134.2440  123.2250   61.6780 F   0  0  0  0  0  0  0  0  0  0  0  0
  133.4930  125.0990   60.8720 F   0  0  0  0  0  0  0  0  0  0  0  0
  130.7000  124.2830   61.7760 C   0  0  0  0  0  0  0  0  0  0  0  0
  130.4100  125.6730   62.0290 C   0  0  0  0  0  0  0  0  0  0  0  0
  131.3900  126.6090   62.2370 N   0  0  0  0  0  0  0  0  0  0  0  0
  125.6890  128.3890   64.3360 N   0  0  0  0  0  0  0  0  0  0  0  0
  125.0453  129.4021   66.6997 H   0  0  0  0  0  0  0  0  0  0  0  0
  123.7442  130.4752   66.0814 H   0  0  0  0  0  0  0  0  0  0  0  0
  123.5148  128.6936   66.0814 H   0  0  0  0  0  0  0  0  0  0  0  0
  123.8464  131.2035   63.7928 H   0  0  0  0  0  0  0  0  0  0  0  0
  124.8987  130.9656   61.5245 H   0  0  0  0  0  0  0  0  0  0  0  0
  126.4575  129.0495   61.0840 H   0  0  0  0  0  0  0  0  0  0  0  0
  126.7600  126.2900   62.9350 H   0  0  0  0  0  0  0  0  0  0  0  0
  130.4074  119.5368   61.9619 H   0  0  0  0  0  0  0  0  0  0  0  0
  129.5349  119.8871   60.4313 H   0  0  0  0  0  0  0  0  0  0  0  0
  131.3252  119.7403   60.4313 H   0  0  0  0  0  0  0  0  0  0  0  0
  132.7335  121.5665   61.3287 H   0  0  0  0  0  0  0  0  0  0  0  0
  132.3640  126.3550   62.3170 H   0  0  0  0  0  0  0  0  0  0  0  0
  131.1680  127.5910   62.3250 H   0  0  0  0  0  0  0  0  0  0  0  0
  1  2  1  0
  2  3  2  0
  3  4  1  0
  4  5  2  0
  5  6  1  0
  6  7  1  0
  7  8  1  0
  8  9  2  0
  8 10  1  0
 10 11  1  0
 11 12  1  0
 12 13  2  0
 13 14  1  0
 14 15  1  0
 14 16  2  0
 16 17  1  0
 17 18  1  0
 18 19  1  0
 18 20  1  0
 18 21  1  0
 17 22  2  0
 22 23  1  0
 23 24  1  0
  6 25  2  0
 25  2  1  0
 23 10  2  0
 22 12  1  0
  1 26  1  0
  1 27  1  0
  1 28  1  0
  3 29  1  0
  4 30  1  0
  5 31  1  0
  7 32  1  0
 15 33  1  0
 15 34  1  0
 15 35  1  0
 16 36  1  0
 24 37  1  0
 24 38  1  0
M  END
>  <Binding energies>  (1) 
[-5.61]

>  <Ligand effiencies>  (1) 
[-0.20035714285714287]

>  <Interactions>  (1) 
["V-B:TYR:539:CD2:9846, H-B:GLU:543:OE2:9882, V-A:LEU:475:CD2:4259, V-B:GLU:543:CD:9880, H-B:GLU:543:OE1:9881, H-A:GLU:543:OE2:4910, V-A:GLU:543:CD:4908, H-A:GLU:543:OE1:4909, V-A:ARG:545:CZ:4926, V-B:ARG:545:CZ:9898, H-B:ARG:545:NE:9896, V-B:GLY:454:CA:9021, V-B:ARG:545:CD:9895, V-B:ARG:545:CG:9894, H-A:ASP:366:OD1:3214, V-A:ASP:366:CG:3213, V-A:GLY:454:CA:4049, V-A:ILE:369:CD1:3239, V-A:GLY:453:CA:4044, V-A:GLY:453:C:4042, H-A:ASP:366:OD2:3215, V-B:TYR:484:CZ:9319, H-B:ARG:545:NH2:9900, V-A:ASP:366:CB:3212"]

$$$$
4bf_Grossjean_2025
     RDKit          3D

 35 37  0  0  0  0  0  0  0  0999 V2000
  127.1850  133.8870   61.6220 C   0  0  0  0  0  0  0  0  0  0  0  0
  127.2570  132.4020   61.9310 C   0  0  0  0  0  0  0  0  0  0  0  0
  126.3110  131.7940   62.7520 C   0  0  0  0  0  0  0  0  0  0  0  0
  126.3920  130.4210   63.0320 C   0  0  0  0  0  0  0  0  0  0  0  0
  125.3300  129.7960   63.9430 C   0  0  0  0  0  0  0  0  0  0  0  0
  124.5870  128.8750   63.3240 F   0  0  0  0  0  0  0  0  0  0  0  0
  125.9190  129.2010   64.9810 F   0  0  0  0  0  0  0  0  0  0  0  0
  124.5030  130.7420   64.3880 F   0  0  0  0  0  0  0  0  0  0  0  0
  127.4710  129.6970   62.4430 C   0  0  0  0  0  0  0  0  0  0  0  0
  127.8710  128.3130   62.5010 C   0  0  0  0  0  0  0  0  0  0  0  0
  127.1780  127.3720   63.2210 N   0  0  0  0  0  0  0  0  0  0  0  0
  129.0240  128.0160   61.7560 C   0  0  0  0  0  0  0  0  0  0  0  0
  129.7190  126.7320   61.6200 C   0  0  0  0  0  0  0  0  0  0  0  0
  129.0840  125.6900   61.4550 O   0  0  0  0  0  0  0  0  0  0  0  0
  131.0720  126.7950   61.6730 N   0  0  0  0  0  0  0  0  0  0  0  0
  132.0200  125.7560   61.6250 C   0  0  0  0  0  0  0  0  0  0  0  0
  132.4220  125.0730   60.4640 C   0  0  0  0  0  0  0  0  0  0  0  0
  133.3650  124.0460   60.5570 C   0  0  0  0  0  0  0  0  0  0  0  0
  133.8800  123.7250   61.8130 C   0  0  0  0  0  0  0  0  0  0  0  0
  133.5040  124.3640   62.9490 N   0  0  0  0  0  0  0  0  0  0  0  0
  132.5870  125.3590   62.8420 C   0  0  0  0  0  0  0  0  0  0  0  0
  129.6550  129.4550   60.9590 S   0  0  0  0  0  0  0  0  0  0  0  0
  128.3720  130.4410   61.6200 C   0  0  0  0  0  0  0  0  0  0  0  0
  128.2910  131.7440   61.3560 N   0  0  0  0  0  0  0  0  0  0  0  0
  127.1574  134.4564   62.5628 H   0  0  0  0  0  0  0  0  0  0  0  0
  128.0698  134.1837   61.0397 H   0  0  0  0  0  0  0  0  0  0  0  0
  126.2756  134.0967   61.0397 H   0  0  0  0  0  0  0  0  0  0  0  0
  125.4956  132.3930   63.1836 H   0  0  0  0  0  0  0  0  0  0  0  0
  126.6540  126.6360   62.7710 H   0  0  0  0  0  0  0  0  0  0  0  0
  127.1720  127.3840   64.2310 H   0  0  0  0  0  0  0  0  0  0  0  0
  131.4700  127.7190   61.7520 H   0  0  0  0  0  0  0  0  0  0  0  0
  131.9963  125.3457   59.4870 H   0  0  0  0  0  0  0  0  0  0  0  0
  133.6941  123.5024   59.6591 H   0  0  0  0  0  0  0  0  0  0  0  0
  134.6239  122.9180   61.8855 H   0  0  0  0  0  0  0  0  0  0  0  0
  132.2732  125.8802   63.7585 H   0  0  0  0  0  0  0  0  0  0  0  0
  1  2  1  0
  2  3  2  0
  3  4  1  0
  4  5  1  0
  5  6  1  0
  5  7  1  0
  5  8  1  0
  4  9  2  0
  9 10  1  0
 10 11  1  0
 10 12  2  0
 12 13  1  0
 13 14  2  0
 13 15  1  0
 15 16  1  0
 16 17  2  0
 17 18  1  0
 18 19  2  0
 19 20  1  0
 20 21  2  0
 12 22  1  0
 22 23  1  0
 23 24  2  0
 24  2  1  0
 23  9  1  0
 21 16  1  0
  1 25  1  0
  1 26  1  0
  1 27  1  0
  3 28  1  0
 11 29  1  0
 11 30  1  0
 15 31  1  0
 17 32  1  0
 18 33  1  0
 19 34  1  0
 21 35  1  0
M  END
>  <Binding energies>  (1) 
[-5.48]

>  <Ligand effiencies>  (1) 
[-0.20296296296296298]

>  <Interactions>  (1) 
["H-B:GLU:543:OE2:9882, V-B:GLU:543:CD:9880, H-B:GLU:543:OE1:9881, H-A:GLU:543:OE2:4910, V-A:GLU:543:CD:4908, H-A:GLU:543:OE1:4909, V-A:ARG:545:CZ:4926, H-A:TYR:484:OH:4348, V-A:ALA:541:CB:4892, V-B:ARG:545:CZ:9898, V-B:LEU:475:CD2:9231, V-B:GLY:453:C:9014, V-B:GLY:454:CA:9021, H-A:ASP:366:OD1:3214, V-A:ASP:366:CG:3213, V-A:GLY:454:CA:4049, V-A:ILE:369:CD1:3239, V-A:GLY:453:C:4042, V-B:TYR:484:CZ:9319, H-A:GLY:454:N:4050"]

$$$$
4bg_Grossjean_2025
     RDKit          3D

 39 41  0  0  0  0  0  0  0  0999 V2000
  130.1200  120.0010   61.5780 C   0  0  0  0  0  0  0  0  0  0  0  0
  130.3270  121.5030   61.6450 C   0  0  0  0  0  0  0  0  0  0  0  0
  131.6060  122.0510   61.6800 C   0  0  0  0  0  0  0  0  0  0  0  0
  131.7830  123.4420   61.7490 C   0  0  0  0  0  0  0  0  0  0  0  0
  133.2100  123.9980   61.7860 C   0  0  0  0  0  0  0  0  0  0  0  0
  133.4490  124.7490   62.8630 F   0  0  0  0  0  0  0  0  0  0  0  0
  134.0850  122.9930   61.7970 F   0  0  0  0  0  0  0  0  0  0  0  0
  133.4260  124.7590   60.7130 F   0  0  0  0  0  0  0  0  0  0  0  0
  130.6060  124.2480   61.7780 C   0  0  0  0  0  0  0  0  0  0  0  0
  130.3930  125.6720   61.8520 C   0  0  0  0  0  0  0  0  0  0  0  0
  131.4240  126.5750   61.9240 N   0  0  0  0  0  0  0  0  0  0  0  0
  129.0420  126.0510   61.8330 C   0  0  0  0  0  0  0  0  0  0  0  0
  128.4690  127.3940   61.9230 C   0  0  0  0  0  0  0  0  0  0  0  0
  129.0810  128.3820   61.5150 O   0  0  0  0  0  0  0  0  0  0  0  0
  127.2250  127.4720   62.4380 N   0  0  0  0  0  0  0  0  0  0  0  0
  126.4640  128.7060   62.6360 C   0  0  0  0  0  0  0  0  0  0  0  0
  125.9060  128.8580   64.0450 C   0  0  0  0  0  0  0  0  0  0  0  0
  126.6910  128.5210   65.1520 C   0  0  0  0  0  0  0  0  0  0  0  0
  126.1920  128.6980   66.4390 C   0  0  0  0  0  0  0  0  0  0  0  0
  124.9150  129.2250   66.6180 C   0  0  0  0  0  0  0  0  0  0  0  0
  124.1330  129.5790   65.5210 C   0  0  0  0  0  0  0  0  0  0  0  0
  124.6310  129.4010   64.2330 C   0  0  0  0  0  0  0  0  0  0  0  0
  127.9830  124.6450   61.7630 S   0  0  0  0  0  0  0  0  0  0  0  0
  129.3530  123.5610   61.7290 C   0  0  0  0  0  0  0  0  0  0  0  0
  129.1920  122.2390   61.6670 N   0  0  0  0  0  0  0  0  0  0  0  0
  130.0637  119.5928   62.5979 H   0  0  0  0  0  0  0  0  0  0  0  0
  129.1834  119.7834   61.0438 H   0  0  0  0  0  0  0  0  0  0  0  0
  130.9628  119.5382   61.0438 H   0  0  0  0  0  0  0  0  0  0  0  0
  132.4844  121.3894   61.6534 H   0  0  0  0  0  0  0  0  0  0  0  0
  132.3860  126.2990   61.7920 H   0  0  0  0  0  0  0  0  0  0  0  0
  131.2540  127.5510   62.1240 H   0  0  0  0  0  0  0  0  0  0  0  0
  126.8160  126.6330   62.8250 H   0  0  0  0  0  0  0  0  0  0  0  0
  127.1262  129.5599   62.4301 H   0  0  0  0  0  0  0  0  0  0  0  0
  125.6044  128.6688   61.9506 H   0  0  0  0  0  0  0  0  0  0  0  0
  127.7032  128.1159   65.0055 H   0  0  0  0  0  0  0  0  0  0  0  0
  126.8033  128.4230   67.3111 H   0  0  0  0  0  0  0  0  0  0  0  0
  124.5204  129.3629   67.6355 H   0  0  0  0  0  0  0  0  0  0  0  0
  123.1268  129.9972   65.6715 H   0  0  0  0  0  0  0  0  0  0  0  0
  124.0215  129.6875   63.3632 H   0  0  0  0  0  0  0  0  0  0  0  0
  1  2  1  0
  2  3  2  0
  3  4  1  0
  4  5  1  0
  5  6  1  0
  5  7  1  0
  5  8  1  0
  4  9  2  0
  9 10  1  0
 10 11  1  0
 10 12  2  0
 12 13  1  0
 13 14  2  0
 13 15  1  0
 15 16  1  0
 16 17  1  0
 17 18  2  0
 18 19  1  0
 19 20  2  0
 20 21  1  0
 21 22  2  0
 12 23  1  0
 23 24  1  0
 24 25  2  0
 25  2  1  0
 24  9  1  0
 22 17  1  0
  1 26  1  0
  1 27  1  0
  1 28  1  0
  3 29  1  0
 11 30  1  0
 11 31  1  0
 15 32  1  0
 16 33  1  0
 16 34  1  0
 18 35  1  0
 19 36  1  0
 20 37  1  0
 21 38  1  0
 22 39  1  0
M  END
>  <Binding energies>  (1) 
[-5.89]

>  <Ligand effiencies>  (1) 
[-0.21035714285714285]

>  <Interactions>  (1) 
["V-B:ALA:541:CB:9864, H-B:GLU:543:OE2:9882, V-A:LEU:475:CD1:4258, V-A:LEU:475:CD2:4259, V-B:GLU:543:CD:9880, H-B:GLU:543:OE1:9881, H-A:GLU:543:OE2:4910, V-A:GLU:543:CD:4908, H-A:GLU:543:OE1:4909, V-A:ARG:545:CZ:4926, V-B:ARG:545:CZ:9898, V-B:GLY:453:C:9014, V-B:GLY:454:CA:9021, V-B:GLY:453:CA:9016, V-B:ARG:545:CD:9895, V-B:HIS:456:CE1:9042, V-B:ARG:545:CG:9894, H-A:ASP:366:OD1:3214, V-A:ASP:366:CG:3213, V-A:GLY:454:CA:4049, V-A:ILE:369:CD1:3239, V-A:GLY:453:C:4042, V-B:TYR:484:CE1:9317, H-A:ASP:366:OD2:3215, V-B:TYR:484:CZ:9319"]

$$$$
4bh_Grossjean_2025
     RDKit          3D

 51 53  0  0  0  0  0  0  0  0999 V2000
  126.5050  127.3720   67.3840 C   0  0  0  0  0  0  0  0  0  0  0  0
  125.4530  128.1740   66.8580 O   0  0  0  0  0  0  0  0  0  0  0  0
  125.6130  128.7800   65.6250 C   0  0  0  0  0  0  0  0  0  0  0  0
  126.8390  128.8670   64.9480 C   0  0  0  0  0  0  0  0  0  0  0  0
  126.9280  129.4970   63.7060 C   0  0  0  0  0  0  0  0  0  0  0  0
  128.2590  129.5420   62.9640 C   0  0  0  0  0  0  0  0  0  0  0  0
  128.8000  128.2180   62.6550 N   0  0  0  0  0  0  0  0  0  0  0  0
  128.0710  127.1350   62.3140 C   0  0  0  0  0  0  0  0  0  0  0  0
  126.8400  127.1530   62.2690 O   0  0  0  0  0  0  0  0  0  0  0  0
  128.8260  125.9120   62.0420 C   0  0  0  0  0  0  0  0  0  0  0  0
  127.9920  124.4680   61.4750 S   0  0  0  0  0  0  0  0  0  0  0  0
  129.4860  123.5600   61.4550 C   0  0  0  0  0  0  0  0  0  0  0  0
  129.5180  122.2830   61.0770 N   0  0  0  0  0  0  0  0  0  0  0  0
  130.7320  121.6870   61.1010 C   0  0  0  0  0  0  0  0  0  0  0  0
  130.7460  120.2320   60.6680 C   0  0  0  0  0  0  0  0  0  0  0  0
  131.9040  122.3310   61.4880 C   0  0  0  0  0  0  0  0  0  0  0  0
  131.8760  123.6760   61.8890 C   0  0  0  0  0  0  0  0  0  0  0  0
  133.1920  124.3440   62.3040 C   0  0  0  0  0  0  0  0  0  0  0  0
  133.2380  124.6460   63.6030 F   0  0  0  0  0  0  0  0  0  0  0  0
  134.2130  123.5270   62.0480 F   0  0  0  0  0  0  0  0  0  0  0  0
  133.3550  125.4790   61.6240 F   0  0  0  0  0  0  0  0  0  0  0  0
  130.6110  124.3340   61.8780 C   0  0  0  0  0  0  0  0  0  0  0  0
  130.1980  125.6730   62.2200 C   0  0  0  0  0  0  0  0  0  0  0  0
  131.0720  126.6280   62.6720 N   0  0  0  0  0  0  0  0  0  0  0  0
  125.7760  130.0210   63.1170 C   0  0  0  0  0  0  0  0  0  0  0  0
  124.5380  129.9550   63.7750 C   0  0  0  0  0  0  0  0  0  0  0  0
  123.3600  130.4650   63.2580 O   0  0  0  0  0  0  0  0  0  0  0  0
  123.1330  130.4080   61.8530 C   0  0  0  0  0  0  0  0  0  0  0  0
  124.4710  129.3370   65.0320 C   0  0  0  0  0  0  0  0  0  0  0  0
  123.2610  129.2490   65.6790 O   0  0  0  0  0  0  0  0  0  0  0  0
  123.2750  129.7660   67.0020 C   0  0  0  0  0  0  0  0  0  0  0  0
  126.4712  127.3978   68.4832 H   0  0  0  0  0  0  0  0  0  0  0  0
  126.3838  126.3350   67.0376 H   0  0  0  0  0  0  0  0  0  0  0  0
  127.4729  127.7635   67.0376 H   0  0  0  0  0  0  0  0  0  0  0  0
  127.7419  128.4329   65.4023 H   0  0  0  0  0  0  0  0  0  0  0  0
  128.1131  130.0875   62.0200 H   0  0  0  0  0  0  0  0  0  0  0  0
  128.9820  130.0404   63.6264 H   0  0  0  0  0  0  0  0  0  0  0  0
  129.8060  128.1550   62.5910 H   0  0  0  0  0  0  0  0  0  0  0  0
  130.7522  119.5848   61.5574 H   0  0  0  0  0  0  0  0  0  0  0  0
  129.8499  120.0198   60.0664 H   0  0  0  0  0  0  0  0  0  0  0  0
  131.6461  120.0371   60.0664 H   0  0  0  0  0  0  0  0  0  0  0  0
  132.8576  121.7827   61.4795 H   0  0  0  0  0  0  0  0  0  0  0  0
  131.3830  127.3890   62.0830 H   0  0  0  0  0  0  0  0  0  0  0  0
  131.4440  126.5980   63.6110 H   0  0  0  0  0  0  0  0  0  0  0  0
  125.8393  130.4915   62.1247 H   0  0  0  0  0  0  0  0  0  0  0  0
  122.0824  130.1442   61.6617 H   0  0  0  0  0  0  0  0  0  0  0  0
  123.3519  131.3890   61.4061 H   0  0  0  0  0  0  0  0  0  0  0  0
  123.7894  129.6468   61.4061 H   0  0  0  0  0  0  0  0  0  0  0  0
  123.2525  128.9339   67.7211 H   0  0  0  0  0  0  0  0  0  0  0  0
  124.1895  130.3579   67.1547 H   0  0  0  0  0  0  0  0  0  0  0  0
  122.3939  130.4065   67.1547 H   0  0  0  0  0  0  0  0  0  0  0  0
  1  2  1  0
  2  3  1  0
  3  4  2  0
  4  5  1  0
  5  6  1  0
  6  7  1  0
  7  8  1  0
  8  9  2  0
  8 10  1  0
 10 11  1  0
 11 12  1  0
 12 13  2  0
 13 14  1  0
 14 15  1  0
 14 16  2  0
 16 17  1  0
 17 18  1  0
 18 19  1  0
 18 20  1  0
 18 21  1  0
 17 22  2  0
 22 23  1  0
 23 24  1  0
  5 25  2  0
 25 26  1  0
 26 27  1  0
 27 28  1  0
 26 29  2  0
 29 30  1  0
 30 31  1  0
 29  3  1  0
 23 10  2  0
 22 12  1  0
  1 32  1  0
  1 33  1  0
  1 34  1  0
  4 35  1  0
  6 36  1  0
  6 37  1  0
  7 38  1  0
 15 39  1  0
 15 40  1  0
 15 41  1  0
 16 42  1  0
 24 43  1  0
 24 44  1  0
 25 45  1  0
 28 46  1  0
 28 47  1  0
 28 48  1  0
 31 49  1  0
 31 50  1  0
 31 51  1  0
M  END
>  <Binding energies>  (1) 
[-6.49]

>  <Ligand effiencies>  (1) 
[-0.19088235294117648]

>  <Interactions>  (1) 
["V-B:TYR:539:CD2:9846, V-A:TYR:484:CZ:4347, V-A:LEU:475:CD2:4259, V-B:GLU:543:CD:9880, V-B:TYR:539:CE2:9848, H-A:GLU:543:OE2:4910, V-A:GLU:543:CD:4908, H-A:GLU:543:OE1:4909, V-A:ARG:545:CZ:4926, V-B:ILE:369:CD1:8211, V-A:GLU:543:CG:4907, V-B:ARG:545:CZ:9898, H-B:GLY:454:N:9022, H-B:ARG:545:NE:9896, V-B:GLY:453:C:9014, V-B:GLY:454:C:9019, V-B:ILE:455:C:9024, V-B:GLY:454:CA:9021, V-B:GLY:453:CA:9016, V-B:ARG:545:CD:9895, H-B:ARG:545:NH1:9899, V-B:HIS:456:CE1:9042, V-B:ARG:545:CG:9894, H-A:ASP:366:OD1:3214, V-A:ASP:366:CG:3213, V-A:GLY:454:CA:4049, V-A:ILE:369:CD1:3239, V-A:GLY:453:CA:4044, V-A:GLY:453:C:4042, V-B:TYR:484:CE1:9317, H-B:HIS:456:ND1:9039, V-B:GLU:543:CB:9878, V-B:ASP:366:CG:8185, H-B:ARG:545:NH2:9900"]

$$$$
4bi_Grossjean_2025
     RDKit          3D

 32 34  0  0  0  0  0  0  0  0999 V2000
  132.3800  124.7850   59.4100 C   0  0  0  0  0  0  0  0  0  0  0  0
  130.9570  125.0100   59.8890 C   0  0  0  0  0  0  0  0  0  0  0  0
  129.9760  124.0390   59.7060 C   0  0  0  0  0  0  0  0  0  0  0  0
  128.6650  124.2600   60.1590 C   0  0  0  0  0  0  0  0  0  0  0  0
  127.6210  123.1590   59.9420 C   0  0  0  0  0  0  0  0  0  0  0  0
  126.5310  123.5910   59.3050 F   0  0  0  0  0  0  0  0  0  0  0  0
  128.1470  122.1760   59.2120 F   0  0  0  0  0  0  0  0  0  0  0  0
  127.2290  122.6710   61.1190 F   0  0  0  0  0  0  0  0  0  0  0  0
  128.3970  125.5070   60.7980 C   0  0  0  0  0  0  0  0  0  0  0  0
  127.2030  126.0770   61.3740 C   0  0  0  0  0  0  0  0  0  0  0  0
  125.9990  125.4220   61.3840 N   0  0  0  0  0  0  0  0  0  0  0  0
  127.3870  127.3560   61.9260 C   0  0  0  0  0  0  0  0  0  0  0  0
  126.3980  128.2220   62.5730 C   0  0  0  0  0  0  0  0  0  0  0  0
  125.7310  129.0210   61.9100 O   0  0  0  0  0  0  0  0  0  0  0  0
  126.2700  128.0620   63.9140 N   0  0  0  0  0  0  0  0  0  0  0  0
  125.4080  128.7360   64.7680 C   0  0  0  0  0  0  0  0  0  0  0  0
  125.4840  128.6410   66.1570 C   0  0  0  0  0  0  0  0  0  0  0  0
  124.4710  129.4460   66.6270 C   0  0  0  0  0  0  0  0  0  0  0  0
  123.8200  129.9980   65.5750 O   0  0  0  0  0  0  0  0  0  0  0  0
  124.4240  129.5400   64.4020 N   0  0  0  0  0  0  0  0  0  0  0  0
  129.0500  127.9040   61.7260 S   0  0  0  0  0  0  0  0  0  0  0  0
  129.4920  126.4160   60.9230 C   0  0  0  0  0  0  0  0  0  0  0  0
  130.7350  126.2010   60.4930 N   0  0  0  0  0  0  0  0  0  0  0  0
  133.0469  124.6796   60.2784 H   0  0  0  0  0  0  0  0  0  0  0  0
  132.4218  123.8691   58.8023 H   0  0  0  0  0  0  0  0  0  0  0  0
  132.7023  125.6433   58.8023 H   0  0  0  0  0  0  0  0  0  0  0  0
  130.2291  123.0936   59.2039 H   0  0  0  0  0  0  0  0  0  0  0  0
  125.3370  125.5090   60.6250 H   0  0  0  0  0  0  0  0  0  0  0  0
  125.7280  124.8310   62.1580 H   0  0  0  0  0  0  0  0  0  0  0  0
  126.8590  127.3670   64.3510 H   0  0  0  0  0  0  0  0  0  0  0  0
  126.1987  128.0506   66.7491 H   0  0  0  0  0  0  0  0  0  0  0  0
  124.2290  129.6141   67.6868 H   0  0  0  0  0  0  0  0  0  0  0  0
  1  2  1  0
  2  3  2  0
  3  4  1  0
  4  5  1  0
  5  6  1  0
  5  7  1  0
  5  8  1  0
  4  9  2  0
  9 10  1  0
 10 11  1  0
 10 12  2  0
 12 13  1  0
 13 14  2  0
 13 15  1  0
 15 16  1  0
 16 17  1  0
 17 18  2  0
 18 19  1  0
 19 20  1  0
 12 21  1  0
 21 22  1  0
 22 23  2  0
 23  2  1  0
 22  9  1  0
 20 16  2  0
  1 24  1  0
  1 25  1  0
  1 26  1  0
  3 27  1  0
 11 28  1  0
 11 29  1  0
 15 30  1  0
 17 31  1  0
 18 32  1  0
M  END
>  <Binding energies>  (1) 
[-5.74]

>  <Ligand effiencies>  (1) 
[-0.22076923076923077]

>  <Interactions>  (1) 
["V-B:TYR:539:CD2:9846, H-B:GLU:543:OE2:9882, V-B:TYR:539:C:9839, V-B:GLU:543:CD:9880, H-B:GLU:543:OE1:9881, V-B:TYR:539:CE2:9848, V-A:GLU:543:CD:4908, V-B:PRO:540:C:9853, V-B:PRO:540:CA:9855, V-B:ARG:545:CZ:9898, H-B:GLY:454:N:9022, H-B:ARG:545:NE:9896, H-B:TYR:484:OH:9320, V-B:ARG:545:CD:9895, H-B:ARG:545:NH1:9899, V-B:HIS:456:CE1:9042, V-B:ARG:545:CG:9894, V-A:ASP:366:CG:3213, V-B:TYR:484:CE1:9317, V-B:TYR:484:CZ:9319, V-B:ASP:366:CG:8185, H-B:ARG:545:NH2:9900, H-B:ASP:366:OD2:8187, V-B:PRO:540:CB:9857, H-B:ASP:366:OD1:8186, V-B:PRO:540:N:9856"]

$$$$
4bj_Grossjean_2025
     RDKit          3D

 32 34  0  0  0  0  0  0  0  0999 V2000
  122.0320  130.3340   62.0890 C   0  0  0  0  0  0  0  0  0  0  0  0
  123.5390  130.3550   62.2680 C   0  0  0  0  0  0  0  0  0  0  0  0
  124.1460  129.6700   63.3170 C   0  0  0  0  0  0  0  0  0  0  0  0
  125.5410  129.7030   63.4740 C   0  0  0  0  0  0  0  0  0  0  0  0
  126.1640  128.9360   64.6460 C   0  0  0  0  0  0  0  0  0  0  0  0
  127.0740  129.6500   65.3120 F   0  0  0  0  0  0  0  0  0  0  0  0
  125.2140  128.5890   65.5140 F   0  0  0  0  0  0  0  0  0  0  0  0
  126.7700  127.8390   64.1930 F   0  0  0  0  0  0  0  0  0  0  0  0
  126.2870  130.4580   62.5210 C   0  0  0  0  0  0  0  0  0  0  0  0
  127.6970  130.7210   62.3640 C   0  0  0  0  0  0  0  0  0  0  0  0
  128.6440  130.2230   63.2220 N   0  0  0  0  0  0  0  0  0  0  0  0
  128.0100  131.5240   61.2550 C   0  0  0  0  0  0  0  0  0  0  0  0
  129.3250  131.9900   60.8080 C   0  0  0  0  0  0  0  0  0  0  0  0
  129.4450  133.0620   60.2100 O   0  0  0  0  0  0  0  0  0  0  0  0
  130.3660  131.1760   61.1110 N   0  0  0  0  0  0  0  0  0  0  0  0
  131.7050  131.3890   60.8150 C   0  0  0  0  0  0  0  0  0  0  0  0
  132.6450  131.8570   61.6080 N   0  0  0  0  0  0  0  0  0  0  0  0
  133.8090  131.9230   60.9950 C   0  0  0  0  0  0  0  0  0  0  0  0
  133.8310  131.5010   59.6690 C   0  0  0  0  0  0  0  0  0  0  0  0
  132.2330  130.9960   59.2090 S   0  0  0  0  0  0  0  0  0  0  0  0
  126.5570  131.9990   60.3790 S   0  0  0  0  0  0  0  0  0  0  0  0
  125.5420  131.1100   61.4900 C   0  0  0  0  0  0  0  0  0  0  0  0
  124.2180  131.0770   61.3470 N   0  0  0  0  0  0  0  0  0  0  0  0
  121.5456  130.3272   63.0756 H   0  0  0  0  0  0  0  0  0  0  0  0
  121.7166  131.2278   61.5308 H   0  0  0  0  0  0  0  0  0  0  0  0
  121.7416  129.4317   61.5308 H   0  0  0  0  0  0  0  0  0  0  0  0
  123.5292  129.0996   64.0270 H   0  0  0  0  0  0  0  0  0  0  0  0
  128.4810  130.1510   64.2150 H   0  0  0  0  0  0  0  0  0  0  0  0
  129.5460  129.9140   62.8850 H   0  0  0  0  0  0  0  0  0  0  0  0
  130.1590  130.3250   61.6120 H   0  0  0  0  0  0  0  0  0  0  0  0
  134.7128  132.2910   61.5026 H   0  0  0  0  0  0  0  0  0  0  0  0
  134.7170  131.4890   59.0172 H   0  0  0  0  0  0  0  0  0  0  0  0
  1  2  1  0
  2  3  2  0
  3  4  1  0
  4  5  1  0
  5  6  1  0
  5  7  1  0
  5  8  1  0
  4  9  2  0
  9 10  1  0
 10 11  1  0
 10 12  2  0
 12 13  1  0
 13 14  2  0
 13 15  1  0
 15 16  1  0
 16 17  2  0
 17 18  1  0
 18 19  2  0
 19 20  1  0
 12 21  1  0
 21 22  1  0
 22 23  2  0
 23  2  1  0
 22  9  1  0
 20 16  1  0
  1 24  1  0
  1 25  1  0
  1 26  1  0
  3 27  1  0
 11 28  1  0
 11 29  1  0
 15 30  1  0
 18 31  1  0
 19 32  1  0
M  END
>  <Binding energies>  (1) 
[-5.06]

>  <Ligand effiencies>  (1) 
[-0.1946153846153846]

>  <Interactions>  (1) 
["V-B:GLU:543:CD:9880, H-A:GLU:543:OE2:4910, V-A:GLU:543:CD:4908, H-A:GLU:543:OE1:4909, V-B:ILE:369:CD1:8211, V-A:PRO:540:CA:4883, V-A:ALA:541:CB:4892, V-A:GLU:543:CG:4907, V-B:ARG:545:CZ:9898, H-A:ALA:541:N:4891, V-B:GLY:453:C:9014, H-B:TYR:484:OH:9320, V-A:ASN:362:CB:3176, V-B:GLY:453:CA:9016, V-B:ARG:545:CD:9895, V-B:ARG:545:CG:9894, V-A:PRO:540:CB:4885, V-A:ASP:366:CG:3213, V-B:TYR:484:CZ:9319, V-B:ASP:366:CG:8185, V-B:ASP:366:CA:8182, V-A:ASN:362:C:3172, V-A:ASN:362:CA:3174, V-A:LEU:363:CA:3185"]

$$$$
4bk_Grossjean_2025
     RDKit          3D

 50 51  0  0  0  0  0  0  0  0999 V2000
  132.3590  125.4910   63.4430 C   0  0  0  0  0  0  0  0  0  0  0  0
  133.5530  124.7610   63.2110 O   0  0  0  0  0  0  0  0  0  0  0  0
  133.5540  124.0540   61.9780 C   0  0  0  0  0  0  0  0  0  0  0  0
  132.1130  123.6950   61.5930 C   0  0  0  0  0  0  0  0  0  0  0  0
  131.9140  122.2980   61.7610 O   0  0  0  0  0  0  0  0  0  0  0  0
  131.0310  121.7240   60.8060 C   0  0  0  0  0  0  0  0  0  0  0  0
  129.6790  121.4350   61.4710 C   0  0  0  0  0  0  0  0  0  0  0  0
  129.6700  121.9900   62.7790 O   0  0  0  0  0  0  0  0  0  0  0  0
  128.9580  123.2180   62.8770 C   0  0  0  0  0  0  0  0  0  0  0  0
  127.6390  123.1070   62.0950 C   0  0  0  0  0  0  0  0  0  0  0  0
  127.0690  124.4010   61.7160 N   0  0  0  0  0  0  0  0  0  0  0  0
  127.6500  125.2970   60.8910 C   0  0  0  0  0  0  0  0  0  0  0  0
  128.7370  125.0880   60.3500 O   0  0  0  0  0  0  0  0  0  0  0  0
  126.9070  126.5370   60.6620 C   0  0  0  0  0  0  0  0  0  0  0  0
  126.3900  126.9700   59.0350 S   0  0  0  0  0  0  0  0  0  0  0  0
  125.6260  128.4290   59.6190 C   0  0  0  0  0  0  0  0  0  0  0  0
  125.0020  129.2670   58.7910 N   0  0  0  0  0  0  0  0  0  0  0  0
  124.4460  130.3610   59.3610 C   0  0  0  0  0  0  0  0  0  0  0  0
  123.7390  131.3000   58.3990 C   0  0  0  0  0  0  0  0  0  0  0  0
  124.5000  130.6360   60.7250 C   0  0  0  0  0  0  0  0  0  0  0  0
  125.1570  129.7590   61.6020 C   0  0  0  0  0  0  0  0  0  0  0  0
  125.1920  130.1050   63.0940 C   0  0  0  0  0  0  0  0  0  0  0  0
  124.5170  129.2360   63.8480 F   0  0  0  0  0  0  0  0  0  0  0  0
  126.4540  130.1130   63.5250 F   0  0  0  0  0  0  0  0  0  0  0  0
  124.6530  131.3070   63.2910 F   0  0  0  0  0  0  0  0  0  0  0  0
  125.7520  128.5930   61.0340 C   0  0  0  0  0  0  0  0  0  0  0  0
  126.4880  127.4910   61.6020 C   0  0  0  0  0  0  0  0  0  0  0  0
  126.7540  127.3890   62.9430 N   0  0  0  0  0  0  0  0  0  0  0  0
  132.1951  125.5912   64.5261 H   0  0  0  0  0  0  0  0  0  0  0  0
  132.4465  126.4902   62.9914 H   0  0  0  0  0  0  0  0  0  0  0  0
  131.5095  124.9576   62.9914 H   0  0  0  0  0  0  0  0  0  0  0  0
  133.9966  124.6855   61.1936 H   0  0  0  0  0  0  0  0  0  0  0  0
  134.1455  123.1326   62.0842 H   0  0  0  0  0  0  0  0  0  0  0  0
  131.4126  124.2457   62.2381 H   0  0  0  0  0  0  0  0  0  0  0  0
  131.9343  123.9680   60.5425 H   0  0  0  0  0  0  0  0  0  0  0  0
  130.8868  122.4257   59.9712 H   0  0  0  0  0  0  0  0  0  0  0  0
  131.4611  120.7859   60.4252 H   0  0  0  0  0  0  0  0  0  0  0  0
  128.8724  121.8866   60.8748 H   0  0  0  0  0  0  0  0  0  0  0  0
  129.5233  120.3477   61.5313 H   0  0  0  0  0  0  0  0  0  0  0  0
  128.7412  123.4333   63.9337 H   0  0  0  0  0  0  0  0  0  0  0  0
  129.5677  124.0310   62.4558 H   0  0  0  0  0  0  0  0  0  0  0  0
  127.8263  122.5282   61.1785 H   0  0  0  0  0  0  0  0  0  0  0  0
  126.9116  122.6174   62.7593 H   0  0  0  0  0  0  0  0  0  0  0  0
  126.1770  124.6320   62.1270 H   0  0  0  0  0  0  0  0  0  0  0  0
  123.1732  132.0514   58.9693 H   0  0  0  0  0  0  0  0  0  0  0  0
  124.4834  131.8045   57.7655 H   0  0  0  0  0  0  0  0  0  0  0  0
  123.0484  130.7241   57.7655 H   0  0  0  0  0  0  0  0  0  0  0  0
  124.0245  131.5468   61.1178 H   0  0  0  0  0  0  0  0  0  0  0  0
  126.3770  126.6400   63.5080 H   0  0  0  0  0  0  0  0  0  0  0  0
  127.3440  128.0610   63.4140 H   0  0  0  0  0  0  0  0  0  0  0  0
  1  2  1  0
  2  3  1  0
  3  4  1  0
  4  5  1  0
  5  6  1  0
  6  7  1  0
  7  8  1  0
  8  9  1  0
  9 10  1  0
 10 11  1  0
 11 12  1  0
 12 13  2  0
 12 14  1  0
 14 15  1  0
 15 16  1  0
 16 17  2  0
 17 18  1  0
 18 19  1  0
 18 20  2  0
 20 21  1  0
 21 22  1  0
 22 23  1  0
 22 24  1  0
 22 25  1  0
 21 26  2  0
 26 27  1  0
 27 28  1  0
 27 14  2  0
 26 16  1  0
  1 29  1  0
  1 30  1  0
  1 31  1  0
  3 32  1  0
  3 33  1  0
  4 34  1  0
  4 35  1  0
  6 36  1  0
  6 37  1  0
  7 38  1  0
  7 39  1  0
  9 40  1  0
  9 41  1  0
 10 42  1  0
 10 43  1  0
 11 44  1  0
 19 45  1  0
 19 46  1  0
 19 47  1  0
 20 48  1  0
 28 49  1  0
 28 50  1  0
M  END
>  <Binding energies>  (1) 
[-4.74]

>  <Ligand effiencies>  (1) 
[-0.15290322580645163]

>  <Interactions>  (1) 
["V-B:ALA:541:CB:9864, V-B:TYR:539:CD2:9846, V-B:GLU:543:CG:9879, V-A:TYR:484:CZ:4347, H-B:GLU:543:OE2:9882, V-A:TYR:484:CE1:4345, V-A:LEU:475:CD2:4259, V-B:GLU:543:CD:9880, H-B:GLU:543:OE1:9881, V-B:TYR:539:CE2:9848, V-A:ARG:545:CZ:4926, H-A:TYR:484:OH:4348, V-A:TYR:539:CE1:4875, V-B:ILE:369:CG2:8209, V-B:ARG:545:CZ:9898, V-B:GLY:454:CA:9021, V-A:ILE:369:CD1:3239, V-B:ASP:366:CG:8185, V-B:ILE:369:CB:8208, V-B:ASP:366:CA:8182, V-B:ASP:366:CB:8184, H-A:GLY:454:N:4050, V-B:ASP:366:C:8180, H-B:ASP:366:OD2:8187, H-A:ARG:545:NH2:4928"]

$$$$
4ca_Grossjean_2025
     RDKit          3D

 52 55  0  0  0  0  0  0  0  0999 V2000
  131.9620  118.0540   58.8080 C   0  0  0  0  0  0  0  0  0  0  0  0
  131.3330  118.2600   60.1890 C   0  0  0  0  0  0  0  0  0  0  0  0
  130.9270  119.6160   60.3260 O   0  0  0  0  0  0  0  0  0  0  0  0
  130.1190  120.0070   61.3460 C   0  0  0  0  0  0  0  0  0  0  0  0
  129.6350  119.2220   62.1680 O   0  0  0  0  0  0  0  0  0  0  0  0
  129.8780  121.4880   61.3760 C   0  0  0  0  0  0  0  0  0  0  0  0
  128.5740  121.9650   61.5670 C   0  0  0  0  0  0  0  0  0  0  0  0
  128.3190  123.3330   61.6040 C   0  0  0  0  0  0  0  0  0  0  0  0
  129.3570  124.2500   61.4430 C   0  0  0  0  0  0  0  0  0  0  0  0
  128.9880  125.6080   61.5070 N   0  0  0  0  0  0  0  0  0  0  0  0
  129.7390  126.7250   61.3440 C   0  0  0  0  0  0  0  0  0  0  0  0
  130.9340  126.7170   61.0490 O   0  0  0  0  0  0  0  0  0  0  0  0
  129.0250  127.9910   61.5260 C   0  0  0  0  0  0  0  0  0  0  0  0
  129.4710  129.4050   60.5730 S   0  0  0  0  0  0  0  0  0  0  0  0
  128.2090  130.3590   61.3160 C   0  0  0  0  0  0  0  0  0  0  0  0
  128.0140  131.6320   60.9810 N   0  0  0  0  0  0  0  0  0  0  0  0
  127.0010  132.2900   61.6010 C   0  0  0  0  0  0  0  0  0  0  0  0
  126.8000  133.7210   61.1940 C   0  0  0  0  0  0  0  0  0  0  0  0
  127.8180  134.6700   61.3790 C   0  0  0  0  0  0  0  0  0  0  0  0
  127.6360  136.0000   61.0100 C   0  0  0  0  0  0  0  0  0  0  0  0
  126.4280  136.4020   60.4490 C   0  0  0  0  0  0  0  0  0  0  0  0
  125.4020  135.4830   60.2570 C   0  0  0  0  0  0  0  0  0  0  0  0
  125.5880  134.1540   60.6280 C   0  0  0  0  0  0  0  0  0  0  0  0
  126.2020  131.6720   62.5690 C   0  0  0  0  0  0  0  0  0  0  0  0
  126.4030  130.3310   62.9330 C   0  0  0  0  0  0  0  0  0  0  0  0
  125.4890  129.7160   63.9990 C   0  0  0  0  0  0  0  0  0  0  0  0
  126.1420  129.3690   65.1100 F   0  0  0  0  0  0  0  0  0  0  0  0
  124.5480  130.5930   64.3480 F   0  0  0  0  0  0  0  0  0  0  0  0
  124.9100  128.6160   63.5180 F   0  0  0  0  0  0  0  0  0  0  0  0
  127.4520  129.6270   62.2760 C   0  0  0  0  0  0  0  0  0  0  0  0
  127.9400  128.2730   62.3740 C   0  0  0  0  0  0  0  0  0  0  0  0
  127.3910  127.3470   63.2240 N   0  0  0  0  0  0  0  0  0  0  0  0
  130.6660  123.7830   61.2570 C   0  0  0  0  0  0  0  0  0  0  0  0
  130.9200  122.4140   61.2230 C   0  0  0  0  0  0  0  0  0  0  0  0
  133.0014  117.7136   58.9256 H   0  0  0  0  0  0  0  0  0  0  0  0
  131.3887  117.2967   58.2532 H   0  0  0  0  0  0  0  0  0  0  0  0
  131.9478  119.0038   58.2532 H   0  0  0  0  0  0  0  0  0  0  0  0
  130.4577  117.6024   60.2953 H   0  0  0  0  0  0  0  0  0  0  0  0
  132.0702  118.0168   60.9683 H   0  0  0  0  0  0  0  0  0  0  0  0
  127.7450  121.2523   61.6887 H   0  0  0  0  0  0  0  0  0  0  0  0
  127.2916  123.6931   61.7613 H   0  0  0  0  0  0  0  0  0  0  0  0
  128.0080  125.7610   61.6910 H   0  0  0  0  0  0  0  0  0  0  0  0
  128.7749  134.3576   61.8227 H   0  0  0  0  0  0  0  0  0  0  0  0
  128.4444  136.7304   61.1615 H   0  0  0  0  0  0  0  0  0  0  0  0
  126.2836  137.4523   60.1557 H   0  0  0  0  0  0  0  0  0  0  0  0
  124.4479  135.8046   59.8140 H   0  0  0  0  0  0  0  0  0  0  0  0
  124.7732  133.4308   60.4758 H   0  0  0  0  0  0  0  0  0  0  0  0
  125.4005  132.2481   63.0545 H   0  0  0  0  0  0  0  0  0  0  0  0
  127.6300  127.3150   64.2050 H   0  0  0  0  0  0  0  0  0  0  0  0
  126.7230  126.6620   62.8960 H   0  0  0  0  0  0  0  0  0  0  0  0
  131.4930  124.4985   61.1378 H   0  0  0  0  0  0  0  0  0  0  0  0
  131.9492  122.0552   61.0745 H   0  0  0  0  0  0  0  0  0  0  0  0
  1  2  1  0
  2  3  1  0
  3  4  1  0
  4  5  2  0
  4  6  1  0
  6  7  2  0
  7  8  1  0
  8  9  2  0
  9 10  1  0
 10 11  1  0
 11 12  2  0
 11 13  1  0
 13 14  1  0
 14 15  1  0
 15 16  2  0
 16 17  1  0
 17 18  1  0
 18 19  2  0
 19 20  1  0
 20 21  2  0
 21 22  1  0
 22 23  2  0
 17 24  2  0
 24 25  1  0
 25 26  1  0
 26 27  1  0
 26 28  1  0
 26 29  1  0
 25 30  2  0
 30 31  1  0
 31 32  1  0
  9 33  1  0
 33 34  2  0
 34  6  1  0
 31 13  2  0
 30 15  1  0
 23 18  1  0
  1 35  1  0
  1 36  1  0
  1 37  1  0
  2 38  1  0
  2 39  1  0
  7 40  1  0
  8 41  1  0
 10 42  1  0
 19 43  1  0
 20 44  1  0
 21 45  1  0
 22 46  1  0
 23 47  1  0
 24 48  1  0
 32 49  1  0
 32 50  1  0
 33 51  1  0
 34 52  1  0
M  END
>  <Binding energies>  (1) 
[-7.01]

>  <Ligand effiencies>  (1) 
[-0.18945945945945947]

>  <Interactions>  (1) 
["V-B:ALA:541:CB:9864, V-B:TYR:539:CD2:9846, H-B:GLU:543:OE2:9882, V-A:LEU:475:CD2:4259, V-B:GLU:543:CD:9880, V-A:SER:385:CB:3409, H-B:GLU:543:OE1:9881, V-B:PRO:540:C:9853, V-B:PRO:540:CA:9855, V-A:TYR:539:CE1:4875, V-A:ALA:541:CB:4892, V-A:TYR:539:CD1:4873, V-B:ARG:545:CZ:9898, V-B:LEU:475:CD2:9231, V-A:ALA:541:CA:4890, V-B:GLY:453:C:9014, V-B:GLY:454:CA:9021, V-A:TYR:539:C:4867, V-B:TYR:484:CZ:9319, V-B:PRO:482:CG:9299, V-B:PRO:482:CB:9298, H-A:ARG:545:NH2:4928, V-B:TYR:539:CB:9843, V-B:TYR:539:CG:9844, V-A:LEU:373:CD1:3280"]

$$$$
4cb_Grossjean_2025
     RDKit          3D

 49 52  0  0  0  0  0  0  0  0999 V2000
  125.5470  135.4710   60.2720 C   0  0  0  0  0  0  0  0  0  0  0  0
  125.9840  134.2020   60.7370 O   0  0  0  0  0  0  0  0  0  0  0  0
  127.1950  134.0550   61.3330 C   0  0  0  0  0  0  0  0  0  0  0  0
  127.8820  135.0040   61.7220 O   0  0  0  0  0  0  0  0  0  0  0  0
  127.6170  132.6200   61.4750 C   0  0  0  0  0  0  0  0  0  0  0  0
  127.5060  131.7620   60.3730 C   0  0  0  0  0  0  0  0  0  0  0  0
  127.8960  130.4300   60.4700 C   0  0  0  0  0  0  0  0  0  0  0  0
  128.3980  129.9260   61.6710 C   0  0  0  0  0  0  0  0  0  0  0  0
  128.7750  128.5690   61.6530 N   0  0  0  0  0  0  0  0  0  0  0  0
  128.0340  127.4540   61.8660 C   0  0  0  0  0  0  0  0  0  0  0  0
  126.8210  127.4600   62.0770 O   0  0  0  0  0  0  0  0  0  0  0  0
  128.7750  126.1910   61.8110 C   0  0  0  0  0  0  0  0  0  0  0  0
  127.9450  124.6940   61.3940 S   0  0  0  0  0  0  0  0  0  0  0  0
  129.4330  123.7840   61.5030 C   0  0  0  0  0  0  0  0  0  0  0  0
  129.4660  122.4740   61.2740 N   0  0  0  0  0  0  0  0  0  0  0  0
  130.6710  121.8540   61.3720 C   0  0  0  0  0  0  0  0  0  0  0  0
  130.6760  120.3780   61.1030 C   0  0  0  0  0  0  0  0  0  0  0  0
  131.6310  119.8080   60.2450 C   0  0  0  0  0  0  0  0  0  0  0  0
  131.6390  118.4400   59.9870 C   0  0  0  0  0  0  0  0  0  0  0  0
  130.6900  117.6190   60.5860 C   0  0  0  0  0  0  0  0  0  0  0  0
  129.7310  118.1570   61.4380 C   0  0  0  0  0  0  0  0  0  0  0  0
  129.7250  119.5260   61.6910 C   0  0  0  0  0  0  0  0  0  0  0  0
  131.8330  122.5510   61.7220 C   0  0  0  0  0  0  0  0  0  0  0  0
  131.8090  123.9320   61.9690 C   0  0  0  0  0  0  0  0  0  0  0  0
  133.1200  124.6340   62.3460 C   0  0  0  0  0  0  0  0  0  0  0  0
  133.2660  125.8210   61.7540 F   0  0  0  0  0  0  0  0  0  0  0  0
  133.1580  124.8380   63.6630 F   0  0  0  0  0  0  0  0  0  0  0  0
  134.1560  123.8780   61.9870 F   0  0  0  0  0  0  0  0  0  0  0  0
  130.5530  124.5940   61.8530 C   0  0  0  0  0  0  0  0  0  0  0  0
  130.1470  125.9690   62.0170 C   0  0  0  0  0  0  0  0  0  0  0  0
  131.0280  126.9670   62.3480 N   0  0  0  0  0  0  0  0  0  0  0  0
  128.5150  130.7780   62.7780 C   0  0  0  0  0  0  0  0  0  0  0  0
  128.1260  132.1110   62.6790 C   0  0  0  0  0  0  0  0  0  0  0  0
  125.3236  136.1196   61.1319 H   0  0  0  0  0  0  0  0  0  0  0  0
  126.3387  135.9305   59.6620 H   0  0  0  0  0  0  0  0  0  0  0  0
  124.6403  135.3456   59.6620 H   0  0  0  0  0  0  0  0  0  0  0  0
  127.1068  132.1450   59.4222 H   0  0  0  0  0  0  0  0  0  0  0  0
  127.8082  129.7698   59.5946 H   0  0  0  0  0  0  0  0  0  0  0  0
  129.7500  128.4150   61.4380 H   0  0  0  0  0  0  0  0  0  0  0  0
  132.3846  120.4529   59.7694 H   0  0  0  0  0  0  0  0  0  0  0  0
  132.3934  118.0101   59.3117 H   0  0  0  0  0  0  0  0  0  0  0  0
  130.6976  116.5376   60.3849 H   0  0  0  0  0  0  0  0  0  0  0  0
  128.9814  117.5043   61.9093 H   0  0  0  0  0  0  0  0  0  0  0  0
  128.9630  119.9482   62.3626 H   0  0  0  0  0  0  0  0  0  0  0  0
  132.7844  122.0052   61.8051 H   0  0  0  0  0  0  0  0  0  0  0  0
  131.1820  127.7640   61.7470 H   0  0  0  0  0  0  0  0  0  0  0  0
  131.5520  126.9410   63.2110 H   0  0  0  0  0  0  0  0  0  0  0  0
  128.9152  130.3923   63.7273 H   0  0  0  0  0  0  0  0  0  0  0  0
  128.2187  132.7717   63.5536 H   0  0  0  0  0  0  0  0  0  0  0  0
  1  2  1  0
  2  3  1  0
  3  4  2  0
  3  5  1  0
  5  6  2  0
  6  7  1  0
  7  8  2  0
  8  9  1  0
  9 10  1  0
 10 11  2  0
 10 12  1  0
 12 13  1  0
 13 14  1  0
 14 15  2  0
 15 16  1  0
 16 17  1  0
 17 18  2  0
 18 19  1  0
 19 20  2  0
 20 21  1  0
 21 22  2  0
 16 23  2  0
 23 24  1  0
 24 25  1  0
 25 26  1  0
 25 27  1  0
 25 28  1  0
 24 29  2  0
 29 30  1  0
 30 31  1  0
  8 32  1  0
 32 33  2  0
 33  5  1  0
 30 12  2  0
 29 14  1  0
 22 17  1  0
  1 34  1  0
  1 35  1  0
  1 36  1  0
  6 37  1  0
  7 38  1  0
  9 39  1  0
 18 40  1  0
 19 41  1  0
 20 42  1  0
 21 43  1  0
 22 44  1  0
 23 45  1  0
 31 46  1  0
 31 47  1  0
 32 48  1  0
 33 49  1  0
M  END
>  <Binding energies>  (1) 
[-6.71]

>  <Ligand effiencies>  (1) 
[-0.18638888888888888]

>  <Interactions>  (1) 
["V-B:ALA:541:CB:9864, V-B:TYR:539:CD2:9846, V-A:TYR:484:CZ:4347, V-A:PRO:482:CG:4327, V-A:PRO:482:CB:4326, V-A:LEU:475:CD1:4258, V-A:LEU:475:CD2:4259, V-B:GLU:543:CD:9880, V-A:SER:385:CB:3409, V-B:TYR:539:CE2:9848, H-A:GLU:543:OE2:4910, V-A:GLU:543:CD:4908, H-A:GLU:543:OE1:4909, V-A:ARG:545:CZ:4926, V-A:TYR:539:CE1:4875, V-A:ALA:541:CB:4892, V-A:TYR:539:CD1:4873, V-A:GLU:543:CG:4907, V-B:LEU:475:CD2:9231, H-A:ALA:541:N:4891, H-A:ASP:366:OD1:3214, V-A:ASP:366:CG:3213, V-A:LEU:475:CG:4257, V-A:GLY:454:CA:4049, V-A:ILE:369:CD1:3239, V-A:GLY:453:CA:4044, V-A:GLY:453:C:4042, H-B:ARG:545:NH2:9900"]

$$$$
4cc_Grossjean_2025
     RDKit          3D

 47 50  0  0  0  0  0  0  0  0999 V2000
  123.8570  132.5380   62.2980 C   0  0  0  0  0  0  0  0  0  0  0  0
  123.5120  131.2840   62.8770 O   0  0  0  0  0  0  0  0  0  0  0  0
  124.4330  130.2550   62.8570 C   0  0  0  0  0  0  0  0  0  0  0  0
  124.7690  129.7460   61.6030 C   0  0  0  0  0  0  0  0  0  0  0  0
  125.6900  128.7090   61.4810 C   0  0  0  0  0  0  0  0  0  0  0  0
  126.2810  128.1580   62.6200 C   0  0  0  0  0  0  0  0  0  0  0  0
  127.2110  127.1250   62.3980 N   0  0  0  0  0  0  0  0  0  0  0  0
  128.5120  127.2070   62.0290 C   0  0  0  0  0  0  0  0  0  0  0  0
  129.1140  128.2690   61.8610 O   0  0  0  0  0  0  0  0  0  0  0  0
  129.1940  125.9240   61.8340 C   0  0  0  0  0  0  0  0  0  0  0  0
  128.2590  124.4450   61.6250 S   0  0  0  0  0  0  0  0  0  0  0  0
  129.7170  123.4940   61.4620 C   0  0  0  0  0  0  0  0  0  0  0  0
  129.6690  122.1790   61.2640 N   0  0  0  0  0  0  0  0  0  0  0  0
  130.8540  121.5260   61.1400 C   0  0  0  0  0  0  0  0  0  0  0  0
  130.7700  120.0440   60.9200 C   0  0  0  0  0  0  0  0  0  0  0  0
  129.7960  119.2750   61.5790 C   0  0  0  0  0  0  0  0  0  0  0  0
  129.7130  117.8980   61.3810 C   0  0  0  0  0  0  0  0  0  0  0  0
  130.6060  117.2700   60.5200 C   0  0  0  0  0  0  0  0  0  0  0  0
  131.5820  118.0070   59.8580 C   0  0  0  0  0  0  0  0  0  0  0  0
  131.6630  119.3830   60.0590 C   0  0  0  0  0  0  0  0  0  0  0  0
  132.0790  122.1940   61.2320 C   0  0  0  0  0  0  0  0  0  0  0  0
  132.1400  123.5810   61.4420 C   0  0  0  0  0  0  0  0  0  0  0  0
  133.5170  124.2500   61.5270 C   0  0  0  0  0  0  0  0  0  0  0  0
  134.5210  123.3740   61.6120 F   0  0  0  0  0  0  0  0  0  0  0  0
  133.7260  124.9910   60.4390 F   0  0  0  0  0  0  0  0  0  0  0  0
  133.5750  125.0290   62.6070 F   0  0  0  0  0  0  0  0  0  0  0  0
  130.9040  124.2770   61.5650 C   0  0  0  0  0  0  0  0  0  0  0  0
  130.5730  125.6640   61.7820 C   0  0  0  0  0  0  0  0  0  0  0  0
  131.5270  126.6410   61.9210 N   0  0  0  0  0  0  0  0  0  0  0  0
  125.9570  128.6720   63.8840 C   0  0  0  0  0  0  0  0  0  0  0  0
  125.0370  129.7100   64.0000 C   0  0  0  0  0  0  0  0  0  0  0  0
  124.0577  133.2676   63.0963 H   0  0  0  0  0  0  0  0  0  0  0  0
  124.7559  132.4194   61.6752 H   0  0  0  0  0  0  0  0  0  0  0  0
  123.0239  132.8959   61.6752 H   0  0  0  0  0  0  0  0  0  0  0  0
  124.3017  130.1680   60.7011 H   0  0  0  0  0  0  0  0  0  0  0  0
  125.9527  128.3228   60.4851 H   0  0  0  0  0  0  0  0  0  0  0  0
  126.8540  126.1970   62.5680 H   0  0  0  0  0  0  0  0  0  0  0  0
  129.0880  119.7675   62.2618 H   0  0  0  0  0  0  0  0  0  0  0  0
  128.9440  117.3103   61.9038 H   0  0  0  0  0  0  0  0  0  0  0  0
  130.5401  116.1835   60.3615 H   0  0  0  0  0  0  0  0  0  0  0  0
  132.2870  117.5055   59.1786 H   0  0  0  0  0  0  0  0  0  0  0  0
  132.4383  119.9616   59.5355 H   0  0  0  0  0  0  0  0  0  0  0  0
  133.0135  121.6215   61.1380 H   0  0  0  0  0  0  0  0  0  0  0  0
  132.5030  126.4640   61.7330 H   0  0  0  0  0  0  0  0  0  0  0  0
  131.2830  127.5740   62.2220 H   0  0  0  0  0  0  0  0  0  0  0  0
  126.4305  128.2543   64.7848 H   0  0  0  0  0  0  0  0  0  0  0  0
  124.7819  130.1056   64.9942 H   0  0  0  0  0  0  0  0  0  0  0  0
  1  2  1  0
  2  3  1  0
  3  4  2  0
  4  5  1  0
  5  6  2  0
  6  7  1  0
  7  8  1  0
  8  9  2  0
  8 10  1  0
 10 11  1  0
 11 12  1  0
 12 13  2  0
 13 14  1  0
 14 15  1  0
 15 16  2  0
 16 17  1  0
 17 18  2  0
 18 19  1  0
 19 20  2  0
 14 21  2  0
 21 22  1  0
 22 23  1  0
 23 24  1  0
 23 25  1  0
 23 26  1  0
 22 27  2  0
 27 28  1  0
 28 29  1  0
  6 30  1  0
 30 31  2  0
 31  3  1  0
 28 10  2  0
 27 12  1  0
 20 15  1  0
  1 32  1  0
  1 33  1  0
  1 34  1  0
  4 35  1  0
  5 36  1  0
  7 37  1  0
 16 38  1  0
 17 39  1  0
 18 40  1  0
 19 41  1  0
 20 42  1  0
 21 43  1  0
 29 44  1  0
 29 45  1  0
 30 46  1  0
 31 47  1  0
M  END
>  <Binding energies>  (1) 
[-7.22]

>  <Ligand effiencies>  (1) 
[-0.21235294117647058]

>  <Interactions>  (1) 
["V-B:ALA:541:CB:9864, V-B:TYR:539:CD2:9846, H-B:GLU:543:OE2:9882, V-A:PRO:482:CG:4327, V-A:PRO:482:CB:4326, V-A:LEU:475:CD1:4258, V-A:LEU:475:CD2:4259, V-B:GLU:543:CD:9880, V-A:SER:385:CB:3409, H-B:GLU:543:OE1:9881, V-B:TYR:539:CE2:9848, H-A:GLU:543:OE2:4910, V-A:GLU:543:CD:4908, H-A:GLU:543:OE1:4909, V-A:ARG:545:CZ:4926, V-B:ILE:369:CD1:8211, V-B:ARG:545:CZ:9898, V-B:LEU:475:CD2:9231, H-B:GLY:454:N:9022, V-B:GLY:454:CA:9021, H-A:ASP:366:OD1:3214, V-A:ASP:366:CG:3213, V-A:LEU:475:CG:4257, V-A:GLY:454:CA:4049, V-A:ILE:369:CD1:3239, V-A:GLY:453:CA:4044, V-A:GLY:453:C:4042, H-A:ASP:366:OD2:3215, V-B:ASP:366:CG:8185, V-A:ASP:366:CB:3212, V-A:ASP:366:CA:3210, V-B:TYR:539:CB:9843"]

$$$$
4cd_Grossjean_2025
     RDKit          3D

 43 46  0  0  0  0  0  0  0  0999 V2000
  131.5260  126.7170   61.8830 N   0  0  0  0  0  0  0  0  0  0  0  0
  130.5720  125.7340   61.7960 C   0  0  0  0  0  0  0  0  0  0  0  0
  129.1960  125.9850   61.9210 C   0  0  0  0  0  0  0  0  0  0  0  0
  128.5190  127.2600   62.1730 C   0  0  0  0  0  0  0  0  0  0  0  0
  129.0870  128.3290   61.9440 O   0  0  0  0  0  0  0  0  0  0  0  0
  127.2560  127.1620   62.6540 N   0  0  0  0  0  0  0  0  0  0  0  0
  126.3640  128.1780   63.0440 C   0  0  0  0  0  0  0  0  0  0  0  0
  125.7490  128.8850   62.0070 C   0  0  0  0  0  0  0  0  0  0  0  0
  124.8400  129.9000   62.2910 C   0  0  0  0  0  0  0  0  0  0  0  0
  124.5380  130.2050   63.6150 C   0  0  0  0  0  0  0  0  0  0  0  0
  125.1320  129.5000   64.6580 C   0  0  0  0  0  0  0  0  0  0  0  0
  126.0430  128.4830   64.3780 C   0  0  0  0  0  0  0  0  0  0  0  0
  128.2620  124.5010   61.7470 S   0  0  0  0  0  0  0  0  0  0  0  0
  129.7150  123.5580   61.5190 C   0  0  0  0  0  0  0  0  0  0  0  0
  129.6670  122.2420   61.3240 N   0  0  0  0  0  0  0  0  0  0  0  0
  130.8510  121.5930   61.1710 C   0  0  0  0  0  0  0  0  0  0  0  0
  130.7640  120.1100   60.9560 C   0  0  0  0  0  0  0  0  0  0  0  0
  131.6910  119.4480   60.1340 C   0  0  0  0  0  0  0  0  0  0  0  0
  131.6170  118.0730   59.9310 C   0  0  0  0  0  0  0  0  0  0  0  0
  130.6120  117.3370   60.5490 C   0  0  0  0  0  0  0  0  0  0  0  0
  129.6840  117.9670   61.3710 C   0  0  0  0  0  0  0  0  0  0  0  0
  129.7620  119.3420   61.5730 C   0  0  0  0  0  0  0  0  0  0  0  0
  132.0740  122.2700   61.1940 C   0  0  0  0  0  0  0  0  0  0  0  0
  132.1350  123.6590   61.3950 C   0  0  0  0  0  0  0  0  0  0  0  0
  133.5100  124.3370   61.4120 C   0  0  0  0  0  0  0  0  0  0  0  0
  133.6800  125.1500   62.4580 F   0  0  0  0  0  0  0  0  0  0  0  0
  134.4690  123.4130   61.4660 F   0  0  0  0  0  0  0  0  0  0  0  0
  133.6660  125.0700   60.3090 F   0  0  0  0  0  0  0  0  0  0  0  0
  130.9020  124.3480   61.5690 C   0  0  0  0  0  0  0  0  0  0  0  0
  132.5040  126.5280   61.7120 H   0  0  0  0  0  0  0  0  0  0  0  0
  131.2810  127.6680   62.1190 H   0  0  0  0  0  0  0  0  0  0  0  0
  126.8830  126.2270   62.7370 H   0  0  0  0  0  0  0  0  0  0  0  0
  125.9845  128.6380   60.9613 H   0  0  0  0  0  0  0  0  0  0  0  0
  124.3624  130.4587   61.4726 H   0  0  0  0  0  0  0  0  0  0  0  0
  123.8233  131.0106   63.8393 H   0  0  0  0  0  0  0  0  0  0  0  0
  124.8829  129.7450   65.7010 H   0  0  0  0  0  0  0  0  0  0  0  0
  126.5100  127.9200   65.1996 H   0  0  0  0  0  0  0  0  0  0  0  0
  132.4881  120.0255   59.6429 H   0  0  0  0  0  0  0  0  0  0  0  0
  132.3509  117.5703   59.2840 H   0  0  0  0  0  0  0  0  0  0  0  0
  130.5507  116.2508   60.3868 H   0  0  0  0  0  0  0  0  0  0  0  0
  128.8915  117.3811   61.8596 H   0  0  0  0  0  0  0  0  0  0  0  0
  129.0273  119.8354   62.2263 H   0  0  0  0  0  0  0  0  0  0  0  0
  133.0065  121.7041   61.0520 H   0  0  0  0  0  0  0  0  0  0  0  0
  1  2  1  0
  2  3  2  0
  3  4  1  0
  4  5  2  0
  4  6  1  0
  6  7  1  0
  7  8  2  0
  8  9  1  0
  9 10  2  0
 10 11  1  0
 11 12  2  0
  3 13  1  0
 13 14  1  0
 14 15  2  0
 15 16  1  0
 16 17  1  0
 17 18  2  0
 18 19  1  0
 19 20  2  0
 20 21  1  0
 21 22  2  0
 16 23  2  0
 23 24  1  0
 24 25  1  0
 25 26  1  0
 25 27  1  0
 25 28  1  0
 24 29  2  0
 29  2  1  0
 12  7  1  0
 29 14  1  0
 22 17  1  0
  1 30  1  0
  1 31  1  0
  6 32  1  0
  8 33  1  0
  9 34  1  0
 10 35  1  0
 11 36  1  0
 12 37  1  0
 18 38  1  0
 19 39  1  0
 20 40  1  0
 21 41  1  0
 22 42  1  0
 23 43  1  0
M  END
>  <Binding energies>  (1) 
[-7.17]

>  <Ligand effiencies>  (1) 
[-0.2240625]

>  <Interactions>  (1) 
["V-B:ALA:541:CB:9864, V-B:TYR:539:CD2:9846, H-B:GLU:543:OE2:9882, V-A:PRO:482:CG:4327, V-A:PRO:482:CB:4326, V-A:LEU:475:CD1:4258, V-A:LEU:475:CD2:4259, V-B:GLU:543:CD:9880, V-A:SER:385:CB:3409, H-B:GLU:543:OE1:9881, V-B:TYR:539:CE2:9848, H-A:GLU:543:OE2:4910, V-A:GLU:543:CD:4908, H-A:GLU:543:OE1:4909, V-A:ARG:545:CZ:4926, V-B:ARG:545:CZ:9898, H-A:ASP:366:OD1:3214, V-A:ASP:366:CG:3213, V-A:LEU:475:CG:4257, V-A:GLY:454:CA:4049, V-A:ILE:369:CD1:3239, V-A:GLY:453:CA:4044, V-A:GLY:453:C:4042, H-A:ASP:366:OD2:3215, V-B:ASP:366:CG:8185, V-A:ASP:366:CB:3212, V-A:ASP:366:CA:3210"]

$$$$
4ce_Grossjean_2025
     RDKit          3D

 45 48  0  0  0  0  0  0  0  0999 V2000
  124.3250  129.4380   65.9480 C   0  0  0  0  0  0  0  0  0  0  0  0
  124.9310  129.3670   64.5590 C   0  0  0  0  0  0  0  0  0  0  0  0
  124.6410  130.3270   63.5860 C   0  0  0  0  0  0  0  0  0  0  0  0
  125.2410  130.2030   62.3320 C   0  0  0  0  0  0  0  0  0  0  0  0
  126.1070  129.1370   62.0840 C   0  0  0  0  0  0  0  0  0  0  0  0
  126.3500  128.2080   63.1030 C   0  0  0  0  0  0  0  0  0  0  0  0
  127.2500  127.1700   62.8000 N   0  0  0  0  0  0  0  0  0  0  0  0
  128.4690  127.2490   62.2090 C   0  0  0  0  0  0  0  0  0  0  0  0
  128.9890  128.3070   61.8510 O   0  0  0  0  0  0  0  0  0  0  0  0
  129.1580  125.9710   62.0140 C   0  0  0  0  0  0  0  0  0  0  0  0
  128.2310  124.4860   61.8130 S   0  0  0  0  0  0  0  0  0  0  0  0
  129.6910  123.5490   61.6110 C   0  0  0  0  0  0  0  0  0  0  0  0
  129.6500  122.2360   61.3990 N   0  0  0  0  0  0  0  0  0  0  0  0
  130.8370  121.5950   61.2380 C   0  0  0  0  0  0  0  0  0  0  0  0
  130.7550  120.1170   60.9960 C   0  0  0  0  0  0  0  0  0  0  0  0
  129.7470  119.3470   61.5990 C   0  0  0  0  0  0  0  0  0  0  0  0
  129.6690  117.9730   61.3840 C   0  0  0  0  0  0  0  0  0  0  0  0
  130.5990  117.3490   60.5600 C   0  0  0  0  0  0  0  0  0  0  0  0
  131.6080  118.0880   59.9520 C   0  0  0  0  0  0  0  0  0  0  0  0
  131.6850  119.4620   60.1710 C   0  0  0  0  0  0  0  0  0  0  0  0
  132.0590  122.2710   61.3110 C   0  0  0  0  0  0  0  0  0  0  0  0
  132.1140  123.6560   61.5400 C   0  0  0  0  0  0  0  0  0  0  0  0
  133.4870  124.3340   61.6060 C   0  0  0  0  0  0  0  0  0  0  0  0
  134.4980  123.4650   61.6700 F   0  0  0  0  0  0  0  0  0  0  0  0
  133.6730  125.0840   60.5190 F   0  0  0  0  0  0  0  0  0  0  0  0
  133.5560  125.1060   62.6900 F   0  0  0  0  0  0  0  0  0  0  0  0
  130.8750  124.3410   61.6940 C   0  0  0  0  0  0  0  0  0  0  0  0
  130.5380  125.7240   61.9270 C   0  0  0  0  0  0  0  0  0  0  0  0
  131.4850  126.7070   62.0510 N   0  0  0  0  0  0  0  0  0  0  0  0
  125.7710  128.3240   64.3330 N   0  0  0  0  0  0  0  0  0  0  0  0
  125.1216  129.3447   66.7008 H   0  0  0  0  0  0  0  0  0  0  0  0
  123.8115  130.4024   66.0752 H   0  0  0  0  0  0  0  0  0  0  0  0
  123.6025  128.6184   66.0752 H   0  0  0  0  0  0  0  0  0  0  0  0
  123.9564  131.1602   63.8031 H   0  0  0  0  0  0  0  0  0  0  0  0
  125.0325  130.9412   61.5436 H   0  0  0  0  0  0  0  0  0  0  0  0
  126.5915  129.0283   61.1025 H   0  0  0  0  0  0  0  0  0  0  0  0
  126.9550  126.2540   63.1030 H   0  0  0  0  0  0  0  0  0  0  0  0
  129.0082  119.8363   62.2507 H   0  0  0  0  0  0  0  0  0  0  0  0
  128.8743  117.3835   61.8645 H   0  0  0  0  0  0  0  0  0  0  0  0
  130.5363  116.2643   60.3880 H   0  0  0  0  0  0  0  0  0  0  0  0
  132.3419  117.5902   59.3012 H   0  0  0  0  0  0  0  0  0  0  0  0
  132.4862  120.0429   59.6906 H   0  0  0  0  0  0  0  0  0  0  0  0
  132.9954  121.7073   61.1867 H   0  0  0  0  0  0  0  0  0  0  0  0
  132.4740  126.5090   61.9840 H   0  0  0  0  0  0  0  0  0  0  0  0
  131.2250  127.6690   62.2180 H   0  0  0  0  0  0  0  0  0  0  0  0
  1  2  1  0
  2  3  2  0
  3  4  1  0
  4  5  2  0
  5  6  1  0
  6  7  1  0
  7  8  1  0
  8  9  2  0
  8 10  1  0
 10 11  1  0
 11 12  1  0
 12 13  2  0
 13 14  1  0
 14 15  1  0
 15 16  2  0
 16 17  1  0
 17 18  2  0
 18 19  1  0
 19 20  2  0
 14 21  2  0
 21 22  1  0
 22 23  1  0
 23 24  1  0
 23 25  1  0
 23 26  1  0
 22 27  2  0
 27 28  1  0
 28 29  1  0
  6 30  2  0
 30  2  1  0
 28 10  2  0
 27 12  1  0
 20 15  1  0
  1 31  1  0
  1 32  1  0
  1 33  1  0
  3 34  1  0
  4 35  1  0
  5 36  1  0
  7 37  1  0
 16 38  1  0
 17 39  1  0
 18 40  1  0
 19 41  1  0
 20 42  1  0
 21 43  1  0
 29 44  1  0
 29 45  1  0
M  END
>  <Binding energies>  (1) 
[-7.45]

>  <Ligand effiencies>  (1) 
[-0.22575757575757577]

>  <Interactions>  (1) 
["V-B:ALA:541:CB:9864, V-B:TYR:539:CD2:9846, H-B:GLU:543:OE2:9882, V-A:PRO:482:CG:4327, V-A:PRO:482:CB:4326, V-A:LEU:475:CD1:4258, V-A:LEU:475:CD2:4259, V-B:GLU:543:CD:9880, V-A:SER:385:CB:3409, H-B:GLU:543:OE1:9881, V-B:TYR:539:CE2:9848, H-A:GLU:543:OE2:4910, V-A:GLU:543:CD:4908, H-A:GLU:543:OE1:4909, V-A:ARG:545:CZ:4926, V-B:ARG:545:CZ:9898, H-B:ARG:545:NE:9896, V-B:ARG:545:CD:9895, V-B:ARG:545:CG:9894, H-A:ASP:366:OD1:3214, V-A:ASP:366:CG:3213, V-A:LEU:475:CG:4257, V-A:GLY:454:CA:4049, V-A:ILE:369:CD1:3239, V-A:GLY:453:CA:4044, V-A:GLY:453:C:4042, H-A:ASP:366:OD2:3215, V-B:TYR:484:CZ:9319, H-B:ARG:545:NH2:9900, V-A:ASP:366:CB:3212, V-A:ASP:366:CA:3210"]

$$$$
4cf_Grossjean_2025
     RDKit          3D

 42 45  0  0  0  0  0  0  0  0999 V2000
  127.4100  127.3620   63.1600 N   0  0  0  0  0  0  0  0  0  0  0  0
  127.9010  128.2860   62.2730 C   0  0  0  0  0  0  0  0  0  0  0  0
  128.9370  128.0080   61.3670 C   0  0  0  0  0  0  0  0  0  0  0  0
  129.6990  126.7670   61.2030 C   0  0  0  0  0  0  0  0  0  0  0  0
  129.1460  125.7380   60.8130 O   0  0  0  0  0  0  0  0  0  0  0  0
  131.0190  126.8530   61.4970 N   0  0  0  0  0  0  0  0  0  0  0  0
  132.0080  125.8510   61.4940 C   0  0  0  0  0  0  0  0  0  0  0  0
  132.4680  125.1610   60.3550 C   0  0  0  0  0  0  0  0  0  0  0  0
  133.4460  124.1750   60.4940 C   0  0  0  0  0  0  0  0  0  0  0  0
  133.9410  123.8990   61.7690 C   0  0  0  0  0  0  0  0  0  0  0  0
  133.5100  124.5430   62.8830 N   0  0  0  0  0  0  0  0  0  0  0  0
  132.5570  125.4990   62.7320 C   0  0  0  0  0  0  0  0  0  0  0  0
  129.3110  129.4170   60.3770 S   0  0  0  0  0  0  0  0  0  0  0  0
  128.0870  130.3670   61.1860 C   0  0  0  0  0  0  0  0  0  0  0  0
  127.8670  131.6390   60.8620 N   0  0  0  0  0  0  0  0  0  0  0  0
  126.9050  132.3000   61.5580 C   0  0  0  0  0  0  0  0  0  0  0  0
  126.6850  133.7350   61.1760 C   0  0  0  0  0  0  0  0  0  0  0  0
  125.4690  134.1480   60.6100 C   0  0  0  0  0  0  0  0  0  0  0  0
  125.2560  135.4770   60.2530 C   0  0  0  0  0  0  0  0  0  0  0  0
  126.2610  136.4150   60.4610 C   0  0  0  0  0  0  0  0  0  0  0  0
  127.4750  136.0350   61.0230 C   0  0  0  0  0  0  0  0  0  0  0  0
  127.6830  134.7050   61.3780 C   0  0  0  0  0  0  0  0  0  0  0  0
  126.1550  131.6750   62.5580 C   0  0  0  0  0  0  0  0  0  0  0  0
  126.3760  130.3330   62.9050 C   0  0  0  0  0  0  0  0  0  0  0  0
  125.5200  129.7110   64.0140 C   0  0  0  0  0  0  0  0  0  0  0  0
  126.2140  129.4350   65.1200 F   0  0  0  0  0  0  0  0  0  0  0  0
  124.5440  130.5520   64.3560 F   0  0  0  0  0  0  0  0  0  0  0  0
  124.9850  128.5670   63.5850 F   0  0  0  0  0  0  0  0  0  0  0  0
  127.3940  129.6340   62.1940 C   0  0  0  0  0  0  0  0  0  0  0  0
  126.7670  126.6370   62.8750 H   0  0  0  0  0  0  0  0  0  0  0  0
  127.6770  127.3750   64.1350 H   0  0  0  0  0  0  0  0  0  0  0  0
  131.3580  127.7690   61.7550 H   0  0  0  0  0  0  0  0  0  0  0  0
  132.0587  125.3980   59.3619 H   0  0  0  0  0  0  0  0  0  0  0  0
  133.8189  123.6267   59.6163 H   0  0  0  0  0  0  0  0  0  0  0  0
  134.7151  123.1249   61.8759 H   0  0  0  0  0  0  0  0  0  0  0  0
  132.1981  126.0238   63.6297 H   0  0  0  0  0  0  0  0  0  0  0  0
  124.6706  133.4094   60.4456 H   0  0  0  0  0  0  0  0  0  0  0  0
  124.2975  135.7832   59.8087 H   0  0  0  0  0  0  0  0  0  0  0  0
  126.0947  137.4652   60.1790 H   0  0  0  0  0  0  0  0  0  0  0  0
  128.2666  136.7812   61.1861 H   0  0  0  0  0  0  0  0  0  0  0  0
  128.6437  134.4080   61.8238 H   0  0  0  0  0  0  0  0  0  0  0  0
  125.3758  132.2463   63.0838 H   0  0  0  0  0  0  0  0  0  0  0  0
  1  2  1  0
  2  3  2  0
  3  4  1  0
  4  5  2  0
  4  6  1  0
  6  7  1  0
  7  8  2  0
  8  9  1  0
  9 10  2  0
 10 11  1  0
 11 12  2  0
  3 13  1  0
 13 14  1  0
 14 15  2  0
 15 16  1  0
 16 17  1  0
 17 18  2  0
 18 19  1  0
 19 20  2  0
 20 21  1  0
 21 22  2  0
 16 23  2  0
 23 24  1  0
 24 25  1  0
 25 26  1  0
 25 27  1  0
 25 28  1  0
 24 29  2  0
 29  2  1  0
 12  7  1  0
 29 14  1  0
 22 17  1  0
  1 30  1  0
  1 31  1  0
  6 32  1  0
  8 33  1  0
  9 34  1  0
 10 35  1  0
 12 36  1  0
 18 37  1  0
 19 38  1  0
 20 39  1  0
 21 40  1  0
 22 41  1  0
 23 42  1  0
M  END
>  <Binding energies>  (1) 
[-7.36]

>  <Ligand effiencies>  (1) 
[-0.23]

>  <Interactions>  (1) 
["H-B:GLU:543:OE2:9882, V-B:GLU:543:CD:9880, H-B:GLU:543:OE1:9881, H-A:GLU:543:OE2:4910, V-A:GLU:543:CD:4908, H-A:GLU:543:OE1:4909, V-A:ARG:545:CZ:4926, H-A:TYR:484:OH:4348, V-A:TYR:539:CE1:4875, V-A:ALA:541:CB:4892, V-A:TYR:539:CD1:4873, V-B:ARG:545:CZ:9898, V-B:LEU:475:CD2:9231, V-B:GLY:453:C:9014, V-B:GLY:454:CA:9021, H-A:ASP:366:OD1:3214, V-A:ASP:366:CG:3213, V-A:GLY:454:CA:4049, V-A:ILE:369:CD1:3239, V-A:GLY:453:C:4042, V-B:TYR:484:CZ:9319, V-B:PRO:482:CG:9299, V-B:PRO:482:CB:9298, H-A:GLY:454:N:4050, H-A:ARG:545:NH2:4928"]

$$$$
4cg_Grossjean_2025
     RDKit          3D

 46 49  0  0  0  0  0  0  0  0999 V2000
  130.9870  126.9930   62.3340 N   0  0  0  0  0  0  0  0  0  0  0  0
  130.1210  125.9890   61.9850 C   0  0  0  0  0  0  0  0  0  0  0  0
  128.7530  126.2000   61.7560 C   0  0  0  0  0  0  0  0  0  0  0  0
  128.0070  127.4570   61.7870 C   0  0  0  0  0  0  0  0  0  0  0  0
  128.3570  128.4290   61.1150 O   0  0  0  0  0  0  0  0  0  0  0  0
  126.9450  127.4950   62.6200 N   0  0  0  0  0  0  0  0  0  0  0  0
  126.0460  128.6330   62.7960 C   0  0  0  0  0  0  0  0  0  0  0  0
  125.6030  128.8400   64.2400 C   0  0  0  0  0  0  0  0  0  0  0  0
  124.3820  129.4640   64.5090 C   0  0  0  0  0  0  0  0  0  0  0  0
  123.9590  129.6260   65.8260 C   0  0  0  0  0  0  0  0  0  0  0  0
  124.7540  129.1550   66.8680 C   0  0  0  0  0  0  0  0  0  0  0  0
  125.9650  128.5170   66.6060 C   0  0  0  0  0  0  0  0  0  0  0  0
  126.3870  128.3530   65.2890 C   0  0  0  0  0  0  0  0  0  0  0  0
  127.9390  124.7040   61.3080 S   0  0  0  0  0  0  0  0  0  0  0  0
  129.4290  123.8010   61.4510 C   0  0  0  0  0  0  0  0  0  0  0  0
  129.4730  122.4930   61.2190 N   0  0  0  0  0  0  0  0  0  0  0  0
  130.6770  121.8760   61.3510 C   0  0  0  0  0  0  0  0  0  0  0  0
  130.6920  120.3980   61.0840 C   0  0  0  0  0  0  0  0  0  0  0  0
  129.7480  119.5470   61.6810 C   0  0  0  0  0  0  0  0  0  0  0  0
  129.7590  118.1770   61.4380 C   0  0  0  0  0  0  0  0  0  0  0  0
  130.7200  117.6340   60.5910 C   0  0  0  0  0  0  0  0  0  0  0  0
  131.6690  118.4520   59.9890 C   0  0  0  0  0  0  0  0  0  0  0  0
  131.6540  119.8220   60.2350 C   0  0  0  0  0  0  0  0  0  0  0  0
  131.8260  122.5770   61.7330 C   0  0  0  0  0  0  0  0  0  0  0  0
  131.7910  123.9580   61.9810 C   0  0  0  0  0  0  0  0  0  0  0  0
  133.0880  124.6630   62.3970 C   0  0  0  0  0  0  0  0  0  0  0  0
  133.1400  124.9350   63.7030 F   0  0  0  0  0  0  0  0  0  0  0  0
  134.1340  123.8890   62.1080 F   0  0  0  0  0  0  0  0  0  0  0  0
  133.2020  125.8180   61.7450 F   0  0  0  0  0  0  0  0  0  0  0  0
  130.5360  124.6160   61.8310 C   0  0  0  0  0  0  0  0  0  0  0  0
  131.1650  127.7810   61.7270 H   0  0  0  0  0  0  0  0  0  0  0  0
  131.4730  126.9830   63.2200 H   0  0  0  0  0  0  0  0  0  0  0  0
  126.6740  126.6400   63.0830 H   0  0  0  0  0  0  0  0  0  0  0  0
  126.5645  129.5420   62.4571 H   0  0  0  0  0  0  0  0  0  0  0  0
  125.1410  128.4247   62.2065 H   0  0  0  0  0  0  0  0  0  0  0  0
  123.7553  129.8270   63.6811 H   0  0  0  0  0  0  0  0  0  0  0  0
  123.0020  130.1234   66.0421 H   0  0  0  0  0  0  0  0  0  0  0  0
  124.4227  129.2879   67.9085 H   0  0  0  0  0  0  0  0  0  0  0  0
  126.5844  128.1448   67.4353 H   0  0  0  0  0  0  0  0  0  0  0  0
  127.3365  127.8406   65.0748 H   0  0  0  0  0  0  0  0  0  0  0  0
  128.9866  119.9707   62.3524 H   0  0  0  0  0  0  0  0  0  0  0  0
  129.0109  117.5258   61.9137 H   0  0  0  0  0  0  0  0  0  0  0  0
  130.7288  116.5513   60.3967 H   0  0  0  0  0  0  0  0  0  0  0  0
  132.4283  118.0187   59.3213 H   0  0  0  0  0  0  0  0  0  0  0  0
  132.4076  120.4652   59.7571 H   0  0  0  0  0  0  0  0  0  0  0  0
  132.7767  122.0344   61.8412 H   0  0  0  0  0  0  0  0  0  0  0  0
  1  2  1  0
  2  3  2  0
  3  4  1  0
  4  5  2  0
  4  6  1  0
  6  7  1  0
  7  8  1  0
  8  9  2  0
  9 10  1  0
 10 11  2  0
 11 12  1  0
 12 13  2  0
  3 14  1  0
 14 15  1  0
 15 16  2  0
 16 17  1  0
 17 18  1  0
 18 19  2  0
 19 20  1  0
 20 21  2  0
 21 22  1  0
 22 23  2  0
 17 24  2  0
 24 25  1  0
 25 26  1  0
 26 27  1  0
 26 28  1  0
 26 29  1  0
 25 30  2  0
 30  2  1  0
 13  8  1  0
 30 15  1  0
 23 18  1  0
  1 31  1  0
  1 32  1  0
  6 33  1  0
  7 34  1  0
  7 35  1  0
  9 36  1  0
 10 37  1  0
 11 38  1  0
 12 39  1  0
 13 40  1  0
 19 41  1  0
 20 42  1  0
 21 43  1  0
 22 44  1  0
 23 45  1  0
 24 46  1  0
M  END
>  <Binding energies>  (1) 
[-7.84]

>  <Ligand effiencies>  (1) 
[-0.23757575757575758]

>  <Interactions>  (1) 
["V-B:ALA:541:CB:9864, V-B:TYR:539:CD2:9846, V-A:TYR:484:CZ:4347, H-B:GLU:543:OE2:9882, V-A:PRO:482:CG:4327, V-A:PRO:482:CB:4326, V-A:LEU:475:CD1:4258, V-A:LEU:475:CD2:4259, V-B:GLU:543:CD:9880, V-A:SER:385:CB:3409, H-B:GLU:543:OE1:9881, V-B:TYR:539:CE2:9848, H-A:GLU:543:OE2:4910, V-A:GLU:543:CD:4908, H-A:GLU:543:OE1:4909, V-A:ARG:545:CZ:4926, V-B:ARG:545:CZ:9898, V-B:GLY:453:C:9014, V-B:GLY:454:CA:9021, V-B:GLY:453:CA:9016, V-B:ARG:545:CD:9895, V-B:HIS:456:CE1:9042, V-B:ARG:545:CG:9894, H-A:ASP:366:OD1:3214, V-A:ASP:366:CG:3213, V-A:LEU:475:CG:4257, V-A:GLY:454:CA:4049, V-A:ILE:369:CD1:3239, V-A:GLY:453:CA:4044, V-A:GLY:453:C:4042, V-B:TYR:484:CE1:9317, V-B:TYR:484:CZ:9319"]

$$$$
4ch_Grossjean_2025
     RDKit          3D

 58 61  0  0  0  0  0  0  0  0999 V2000
  124.3330  132.4560   60.7010 C   0  0  0  0  0  0  0  0  0  0  0  0
  125.4690  133.0340   61.3350 O   0  0  0  0  0  0  0  0  0  0  0  0
  126.4720  132.2090   61.8110 C   0  0  0  0  0  0  0  0  0  0  0  0
  126.2440  131.0780   62.6100 C   0  0  0  0  0  0  0  0  0  0  0  0
  127.3060  130.2890   63.0540 C   0  0  0  0  0  0  0  0  0  0  0  0
  127.0400  129.0800   63.9440 C   0  0  0  0  0  0  0  0  0  0  0  0
  127.7490  127.8660   63.5360 N   0  0  0  0  0  0  0  0  0  0  0  0
  127.6820  127.2910   62.3180 C   0  0  0  0  0  0  0  0  0  0  0  0
  127.0150  127.7670   61.3960 O   0  0  0  0  0  0  0  0  0  0  0  0
  128.4800  126.0790   62.1360 C   0  0  0  0  0  0  0  0  0  0  0  0
  127.6920  124.5520   61.7500 S   0  0  0  0  0  0  0  0  0  0  0  0
  129.2290  123.7250   61.6830 C   0  0  0  0  0  0  0  0  0  0  0  0
  129.3070  122.4240   61.4160 N   0  0  0  0  0  0  0  0  0  0  0  0
  130.5470  121.8690   61.3790 C   0  0  0  0  0  0  0  0  0  0  0  0
  130.5990  120.3980   61.0810 C   0  0  0  0  0  0  0  0  0  0  0  0
  129.6730  119.5140   61.6590 C   0  0  0  0  0  0  0  0  0  0  0  0
  129.7170  118.1490   61.3880 C   0  0  0  0  0  0  0  0  0  0  0  0
  130.6920  117.6460   60.5330 C   0  0  0  0  0  0  0  0  0  0  0  0
  131.6240  118.4980   59.9510 C   0  0  0  0  0  0  0  0  0  0  0  0
  131.5770  119.8620   60.2260 C   0  0  0  0  0  0  0  0  0  0  0  0
  131.7000  122.6200   61.6280 C   0  0  0  0  0  0  0  0  0  0  0  0
  131.6300  123.9940   61.9120 C   0  0  0  0  0  0  0  0  0  0  0  0
  132.9320  124.7570   62.1750 C   0  0  0  0  0  0  0  0  0  0  0  0
  134.0250  124.0200   61.9590 F   0  0  0  0  0  0  0  0  0  0  0  0
  133.0040  125.8180   61.3730 F   0  0  0  0  0  0  0  0  0  0  0  0
  132.9700  125.1620   63.4440 F   0  0  0  0  0  0  0  0  0  0  0  0
  130.3360  124.5880   61.9400 C   0  0  0  0  0  0  0  0  0  0  0  0
  129.8760  125.9340   62.1850 C   0  0  0  0  0  0  0  0  0  0  0  0
  130.7290  126.9740   62.4510 N   0  0  0  0  0  0  0  0  0  0  0  0
  128.6130  130.6390   62.7130 C   0  0  0  0  0  0  0  0  0  0  0  0
  128.8710  131.7660   61.9160 C   0  0  0  0  0  0  0  0  0  0  0  0
  130.1390  132.1700   61.5390 O   0  0  0  0  0  0  0  0  0  0  0  0
  131.0600  131.2060   61.0390 C   0  0  0  0  0  0  0  0  0  0  0  0
  127.7910  132.5390   61.4660 C   0  0  0  0  0  0  0  0  0  0  0  0
  128.0300  133.6530   60.6980 O   0  0  0  0  0  0  0  0  0  0  0  0
  127.8080  134.8820   61.3760 C   0  0  0  0  0  0  0  0  0  0  0  0
  123.6287  132.0977   61.4663 H   0  0  0  0  0  0  0  0  0  0  0  0
  123.8389  133.2123   60.0734 H   0  0  0  0  0  0  0  0  0  0  0  0
  124.6535  131.6114   60.0734 H   0  0  0  0  0  0  0  0  0  0  0  0
  125.2146  130.8099   62.8900 H   0  0  0  0  0  0  0  0  0  0  0  0
  127.3492  129.3318   64.9692 H   0  0  0  0  0  0  0  0  0  0  0  0
  125.9652  128.8598   63.8645 H   0  0  0  0  0  0  0  0  0  0  0  0
  128.2710  127.3930   64.2590 H   0  0  0  0  0  0  0  0  0  0  0  0
  128.9006  119.9065   62.3367 H   0  0  0  0  0  0  0  0  0  0  0  0
  128.9834  117.4709   61.8484 H   0  0  0  0  0  0  0  0  0  0  0  0
  130.7259  116.5681   60.3161 H   0  0  0  0  0  0  0  0  0  0  0  0
  132.3946  118.0963   59.2766 H   0  0  0  0  0  0  0  0  0  0  0  0
  132.3184  120.5319   59.7660 H   0  0  0  0  0  0  0  0  0  0  0  0
  132.6818  122.1248   61.6009 H   0  0  0  0  0  0  0  0  0  0  0  0
  130.8670  127.7330   61.7980 H   0  0  0  0  0  0  0  0  0  0  0  0
  131.2470  127.0190   63.3170 H   0  0  0  0  0  0  0  0  0  0  0  0
  129.4515  130.0246   63.0729 H   0  0  0  0  0  0  0  0  0  0  0  0
  131.5487  130.6945   61.8813 H   0  0  0  0  0  0  0  0  0  0  0  0
  130.5220  130.4690   60.4247 H   0  0  0  0  0  0  0  0  0  0  0  0
  131.8208  131.7099   60.4247 H   0  0  0  0  0  0  0  0  0  0  0  0
  127.8387  134.7122   62.4624 H   0  0  0  0  0  0  0  0  0  0  0  0
  128.5906  135.6022   61.0952 H   0  0  0  0  0  0  0  0  0  0  0  0
  126.8229  135.2829   61.0952 H   0  0  0  0  0  0  0  0  0  0  0  0
  1  2  1  0
  2  3  1  0
  3  4  2  0
  4  5  1  0
  5  6  1  0
  6  7  1  0
  7  8  1  0
  8  9  2  0
  8 10  1  0
 10 11  1  0
 11 12  1  0
 12 13  2  0
 13 14  1  0
 14 15  1  0
 15 16  2  0
 16 17  1  0
 17 18  2  0
 18 19  1  0
 19 20  2  0
 14 21  2  0
 21 22  1  0
 22 23  1  0
 23 24  1  0
 23 25  1  0
 23 26  1  0
 22 27  2  0
 27 28  1  0
 28 29  1  0
  5 30  2  0
 30 31  1  0
 31 32  1  0
 32 33  1  0
 31 34  2  0
 34 35  1  0
 35 36  1  0
 34  3  1  0
 28 10  2  0
 27 12  1  0
 20 15  1  0
  1 37  1  0
  1 38  1  0
  1 39  1  0
  4 40  1  0
  6 41  1  0
  6 42  1  0
  7 43  1  0
 16 44  1  0
 17 45  1  0
 18 46  1  0
 19 47  1  0
 20 48  1  0
 21 49  1  0
 29 50  1  0
 29 51  1  0
 30 52  1  0
 33 53  1  0
 33 54  1  0
 33 55  1  0
 36 56  1  0
 36 57  1  0
 36 58  1  0
M  END
>  <Binding energies>  (1) 
[-7.5]

>  <Ligand effiencies>  (1) 
[-0.19230769230769232]

>  <Interactions>  (1) 
["V-B:ALA:541:CB:9864, V-B:TYR:539:CD2:9846, H-B:GLU:543:OE2:9882, V-A:PRO:482:CG:4327, V-A:PRO:482:CB:4326, V-A:LEU:475:CD1:4258, V-A:LEU:475:CD2:4259, V-B:GLU:543:CD:9880, V-A:SER:385:CB:3409, H-B:GLU:543:OE1:9881, V-B:TYR:539:CE2:9848, H-A:GLU:543:OE2:4910, V-A:GLU:543:CD:4908, H-A:GLU:543:OE1:4909, V-A:ARG:545:CZ:4926, V-B:ILE:369:CD1:8211, V-A:PRO:540:CA:4883, V-A:ALA:541:CB:4892, V-A:GLU:543:CG:4907, V-B:LEU:475:CD2:9231, V-A:ALA:541:CA:4890, H-A:ALA:541:N:4891, H-A:ASP:366:OD1:3214, V-A:ASP:366:CG:3213, V-A:LEU:475:CG:4257, V-A:GLY:454:CA:4049, V-A:ILE:369:CD1:3239, V-A:GLY:453:CA:4044, V-A:GLY:453:C:4042"]

$$$$
4ci_Grossjean_2025
     RDKit          3D

 39 42  0  0  0  0  0  0  0  0999 V2000
  130.2010  127.0940   62.2910 N   0  0  0  0  0  0  0  0  0  0  0  0
  129.4200  126.0120   61.9770 C   0  0  0  0  0  0  0  0  0  0  0  0
  128.0310  126.0940   61.7900 C   0  0  0  0  0  0  0  0  0  0  0  0
  127.1670  127.2750   61.8710 C   0  0  0  0  0  0  0  0  0  0  0  0
  126.8800  127.9150   60.8570 O   0  0  0  0  0  0  0  0  0  0  0  0
  126.7350  127.5980   63.1160 N   0  0  0  0  0  0  0  0  0  0  0  0
  125.9160  128.6600   63.4780 C   0  0  0  0  0  0  0  0  0  0  0  0
  125.7490  129.7980   62.6900 C   0  0  0  0  0  0  0  0  0  0  0  0
  124.8760  130.5960   63.3920 C   0  0  0  0  0  0  0  0  0  0  0  0
  124.5340  129.9700   64.5440 O   0  0  0  0  0  0  0  0  0  0  0  0
  125.2010  128.7450   64.5870 N   0  0  0  0  0  0  0  0  0  0  0  0
  127.3480  124.5200   61.3880 S   0  0  0  0  0  0  0  0  0  0  0  0
  128.9210  123.7630   61.4820 C   0  0  0  0  0  0  0  0  0  0  0  0
  129.0810  122.4610   61.2590 N   0  0  0  0  0  0  0  0  0  0  0  0
  130.3420  121.9640   61.3510 C   0  0  0  0  0  0  0  0  0  0  0  0
  130.4890  120.4900   61.0990 C   0  0  0  0  0  0  0  0  0  0  0  0
  129.6140  119.5670   61.6940 C   0  0  0  0  0  0  0  0  0  0  0  0
  129.7450  118.2000   61.4630 C   0  0  0  0  0  0  0  0  0  0  0  0
  130.7590  117.7350   60.6320 C   0  0  0  0  0  0  0  0  0  0  0  0
  131.6420  118.6260   60.0340 C   0  0  0  0  0  0  0  0  0  0  0  0
  131.5080  119.9920   60.2680 C   0  0  0  0  0  0  0  0  0  0  0  0
  131.4320  122.7740   61.6830 C   0  0  0  0  0  0  0  0  0  0  0  0
  131.2750  124.1500   61.9200 C   0  0  0  0  0  0  0  0  0  0  0  0
  132.5140  124.9780   62.2800 C   0  0  0  0  0  0  0  0  0  0  0  0
  132.4150  125.5820   63.4650 F   0  0  0  0  0  0  0  0  0  0  0  0
  133.5860  124.1870   62.3230 F   0  0  0  0  0  0  0  0  0  0  0  0
  132.7040  125.9270   61.3620 F   0  0  0  0  0  0  0  0  0  0  0  0
  129.9590  124.6830   61.8140 C   0  0  0  0  0  0  0  0  0  0  0  0
  130.1290  127.9690   61.7910 H   0  0  0  0  0  0  0  0  0  0  0  0
  130.8750  127.0540   63.0430 H   0  0  0  0  0  0  0  0  0  0  0  0
  127.0400  127.0080   63.8760 H   0  0  0  0  0  0  0  0  0  0  0  0
  126.2150  130.0116   61.7167 H   0  0  0  0  0  0  0  0  0  0  0  0
  124.5138  131.5835   63.0700 H   0  0  0  0  0  0  0  0  0  0  0  0
  128.8118  119.9297   62.3535 H   0  0  0  0  0  0  0  0  0  0  0  0
  129.0495  117.4909   61.9357 H   0  0  0  0  0  0  0  0  0  0  0  0
  130.8625  116.6556   60.4471 H   0  0  0  0  0  0  0  0  0  0  0  0
  132.4433  118.2538   59.3787 H   0  0  0  0  0  0  0  0  0  0  0  0
  132.2111  120.6933   59.7948 H   0  0  0  0  0  0  0  0  0  0  0  0
  132.4331  122.3249   61.7603 H   0  0  0  0  0  0  0  0  0  0  0  0
  1  2  1  0
  2  3  2  0
  3  4  1  0
  4  5  2  0
  4  6  1  0
  6  7  1  0
  7  8  1  0
  8  9  2  0
  9 10  1  0
 10 11  1  0
  3 12  1  0
 12 13  1  0
 13 14  2  0
 14 15  1  0
 15 16  1  0
 16 17  2  0
 17 18  1  0
 18 19  2  0
 19 20  1  0
 20 21  2  0
 15 22  2  0
 22 23  1  0
 23 24  1  0
 24 25  1  0
 24 26  1  0
 24 27  1  0
 23 28  2  0
 28  2  1  0
 11  7  2  0
 28 13  1  0
 21 16  1  0
  1 29  1  0
  1 30  1  0
  6 31  1  0
  8 32  1  0
  9 33  1  0
 17 34  1  0
 18 35  1  0
 19 36  1  0
 20 37  1  0
 21 38  1  0
 22 39  1  0
M  END
>  <Binding energies>  (1) 
[-7.38]

>  <Ligand effiencies>  (1) 
[-0.23806451612903226]

>  <Interactions>  (1) 
["V-B:ALA:541:CB:9864, V-B:TYR:539:CD2:9846, H-B:GLU:543:OE2:9882, V-A:PRO:482:CG:4327, V-A:PRO:482:CB:4326, V-A:LEU:475:CD1:4258, V-A:LEU:475:CD2:4259, V-B:GLU:543:CD:9880, V-A:SER:385:CB:3409, H-B:GLU:543:OE1:9881, V-B:TYR:539:CE2:9848, H-A:GLU:543:OE2:4910, V-A:GLU:543:CD:4908, H-A:GLU:543:OE1:4909, V-A:ARG:545:CZ:4926, V-B:ARG:545:CZ:9898, H-B:GLY:454:N:9022, H-B:ARG:545:NE:9896, H-B:TYR:484:OH:9320, V-A:ASP:366:CG:3213, V-A:LEU:475:CG:4257, V-A:GLY:454:CA:4049, H-B:ARG:545:NH2:9900"]

$$$$
4cj_Grossjean_2025
     RDKit          3D

 39 42  0  0  0  0  0  0  0  0999 V2000
  130.7690  126.9840   62.3200 N   0  0  0  0  0  0  0  0  0  0  0  0
  129.9280  125.9520   61.9880 C   0  0  0  0  0  0  0  0  0  0  0  0
  128.5510  126.1220   61.7710 C   0  0  0  0  0  0  0  0  0  0  0  0
  127.7610  127.3530   61.8370 C   0  0  0  0  0  0  0  0  0  0  0  0
  127.9270  128.2550   61.0130 O   0  0  0  0  0  0  0  0  0  0  0  0
  126.8670  127.4180   62.8550 N   0  0  0  0  0  0  0  0  0  0  0  0
  126.0020  128.4660   63.1400 C   0  0  0  0  0  0  0  0  0  0  0  0
  125.4310  129.2940   62.2920 N   0  0  0  0  0  0  0  0  0  0  0  0
  124.6640  130.1690   62.9110 C   0  0  0  0  0  0  0  0  0  0  0  0
  124.6000  130.0600   64.2970 C   0  0  0  0  0  0  0  0  0  0  0  0
  125.6030  128.7340   64.8070 S   0  0  0  0  0  0  0  0  0  0  0  0
  127.7800  124.5940   61.3520 S   0  0  0  0  0  0  0  0  0  0  0  0
  129.3020  123.7420   61.4720 C   0  0  0  0  0  0  0  0  0  0  0  0
  129.3850  122.4340   61.2430 N   0  0  0  0  0  0  0  0  0  0  0  0
  130.6100  121.8600   61.3520 C   0  0  0  0  0  0  0  0  0  0  0  0
  130.6720  120.3850   61.0740 C   0  0  0  0  0  0  0  0  0  0  0  0
  129.7510  119.5040   61.6640 C   0  0  0  0  0  0  0  0  0  0  0  0
  129.8060  118.1350   61.4150 C   0  0  0  0  0  0  0  0  0  0  0  0
  130.7880  117.6260   60.5700 C   0  0  0  0  0  0  0  0  0  0  0  0
  131.7120  118.4760   59.9750 C   0  0  0  0  0  0  0  0  0  0  0  0
  131.6530  119.8440   60.2260 C   0  0  0  0  0  0  0  0  0  0  0  0
  131.7420  122.5980   61.7160 C   0  0  0  0  0  0  0  0  0  0  0  0
  131.6650  123.9780   61.9630 C   0  0  0  0  0  0  0  0  0  0  0  0
  132.9450  124.7260   62.3540 C   0  0  0  0  0  0  0  0  0  0  0  0
  134.0520  124.0070   62.1610 F   0  0  0  0  0  0  0  0  0  0  0  0
  133.0570  125.8360   61.6260 F   0  0  0  0  0  0  0  0  0  0  0  0
  132.9000  125.0510   63.6470 F   0  0  0  0  0  0  0  0  0  0  0  0
  130.3870  124.5930   61.8320 C   0  0  0  0  0  0  0  0  0  0  0  0
  130.9210  127.7700   61.7030 H   0  0  0  0  0  0  0  0  0  0  0  0
  131.2640  126.9950   63.2010 H   0  0  0  0  0  0  0  0  0  0  0  0
  126.8240  126.6300   63.4850 H   0  0  0  0  0  0  0  0  0  0  0  0
  124.1057  130.9422   62.3628 H   0  0  0  0  0  0  0  0  0  0  0  0
  124.0103  130.7078   64.9623 H   0  0  0  0  0  0  0  0  0  0  0  0
  128.9739  119.9017   62.3334 H   0  0  0  0  0  0  0  0  0  0  0  0
  129.0764  117.4586   61.8842 H   0  0  0  0  0  0  0  0  0  0  0  0
  130.8327  116.5449   60.3722 H   0  0  0  0  0  0  0  0  0  0  0  0
  132.4869  118.0697   59.3084 H   0  0  0  0  0  0  0  0  0  0  0  0
  132.3868  120.5127   59.7524 H   0  0  0  0  0  0  0  0  0  0  0  0
  132.7114  122.0867   61.8105 H   0  0  0  0  0  0  0  0  0  0  0  0
  1  2  1  0
  2  3  2  0
  3  4  1  0
  4  5  2  0
  4  6  1  0
  6  7  1  0
  7  8  2  0
  8  9  1  0
  9 10  2  0
 10 11  1  0
  3 12  1  0
 12 13  1  0
 13 14  2  0
 14 15  1  0
 15 16  1  0
 16 17  2  0
 17 18  1  0
 18 19  2  0
 19 20  1  0
 20 21  2  0
 15 22  2  0
 22 23  1  0
 23 24  1  0
 24 25  1  0
 24 26  1  0
 24 27  1  0
 23 28  2  0
 28  2  1  0
 11  7  1  0
 28 13  1  0
 21 16  1  0
  1 29  1  0
  1 30  1  0
  6 31  1  0
  9 32  1  0
 10 33  1  0
 17 34  1  0
 18 35  1  0
 19 36  1  0
 20 37  1  0
 21 38  1  0
 22 39  1  0
M  END
>  <Binding energies>  (1) 
[-6.89]

>  <Ligand effiencies>  (1) 
[-0.22225806451612903]

>  <Interactions>  (1) 
["V-B:ALA:541:CB:9864, V-B:TYR:539:CD2:9846, V-A:TYR:484:CZ:4347, H-B:GLU:543:OE2:9882, V-A:PRO:482:CG:4327, V-A:PRO:482:CB:4326, V-A:LEU:475:CD1:4258, V-A:LEU:475:CD2:4259, V-B:GLU:543:CD:9880, V-A:SER:385:CB:3409, H-B:GLU:543:OE1:9881, V-B:TYR:539:CE2:9848, H-A:GLU:543:OE2:4910, V-A:GLU:543:CD:4908, H-A:GLU:543:OE1:4909, V-A:ARG:545:CZ:4926, V-B:ARG:545:CZ:9898, V-B:GLY:454:CA:9021, H-A:ASP:366:OD1:3214, V-A:ASP:366:CG:3213, V-A:LEU:475:CG:4257, V-A:GLY:454:CA:4049, V-A:ILE:369:CD1:3239, V-A:GLY:453:CA:4044, V-A:GLY:453:C:4042, H-B:ARG:545:NH2:9900"]

$$$$
4ck_Grossjean_2025
     RDKit          3D

 57 59  0  0  0  0  0  0  0  0999 V2000
  123.4600  129.6020   67.3730 C   0  0  0  0  0  0  0  0  0  0  0  0
  123.7520  129.9240   66.0230 O   0  0  0  0  0  0  0  0  0  0  0  0
  124.7930  129.1350   65.4660 C   0  0  0  0  0  0  0  0  0  0  0  0
  124.7910  129.3060   63.9410 C   0  0  0  0  0  0  0  0  0  0  0  0
  124.5540  130.6710   63.6280 O   0  0  0  0  0  0  0  0  0  0  0  0
  125.2120  131.1050   62.4450 C   0  0  0  0  0  0  0  0  0  0  0  0
  125.8240  129.8890   61.7370 C   0  0  0  0  0  0  0  0  0  0  0  0
  126.9920  130.3060   61.0410 O   0  0  0  0  0  0  0  0  0  0  0  0
  128.1500  130.3890   61.8620 C   0  0  0  0  0  0  0  0  0  0  0  0
  128.0010  129.4420   63.0620 C   0  0  0  0  0  0  0  0  0  0  0  0
  128.5730  128.1220   62.7950 N   0  0  0  0  0  0  0  0  0  0  0  0
  127.8770  127.0010   62.5130 C   0  0  0  0  0  0  0  0  0  0  0  0
  126.6480  126.9860   62.4220 O   0  0  0  0  0  0  0  0  0  0  0  0
  128.6710  125.7900   62.3070 C   0  0  0  0  0  0  0  0  0  0  0  0
  127.8900  124.2980   61.7890 S   0  0  0  0  0  0  0  0  0  0  0  0
  129.4240  123.4630   61.7330 C   0  0  0  0  0  0  0  0  0  0  0  0
  129.5070  122.1840   61.3770 N   0  0  0  0  0  0  0  0  0  0  0  0
  130.7430  121.6200   61.3640 C   0  0  0  0  0  0  0  0  0  0  0  0
  130.8040  120.1810   60.9400 C   0  0  0  0  0  0  0  0  0  0  0  0
  129.8500  119.2560   61.3940 C   0  0  0  0  0  0  0  0  0  0  0  0
  129.9020  117.9190   61.0070 C   0  0  0  0  0  0  0  0  0  0  0  0
  130.9130  117.4870   60.1550 C   0  0  0  0  0  0  0  0  0  0  0  0
  131.8680  118.3820   59.6860 C   0  0  0  0  0  0  0  0  0  0  0  0
  131.8110  119.7180   60.0750 C   0  0  0  0  0  0  0  0  0  0  0  0
  131.8900  122.3460   61.6990 C   0  0  0  0  0  0  0  0  0  0  0  0
  131.8140  123.6960   62.0770 C   0  0  0  0  0  0  0  0  0  0  0  0
  133.1120  124.4310   62.4370 C   0  0  0  0  0  0  0  0  0  0  0  0
  133.2200  124.6940   63.7400 F   0  0  0  0  0  0  0  0  0  0  0  0
  134.1620  123.6870   62.0900 F   0  0  0  0  0  0  0  0  0  0  0  0
  133.1630  125.5950   61.7890 F   0  0  0  0  0  0  0  0  0  0  0  0
  130.5230  124.2960   62.0970 C   0  0  0  0  0  0  0  0  0  0  0  0
  130.0610  125.6260   62.4130 C   0  0  0  0  0  0  0  0  0  0  0  0
  130.9080  126.6380   62.7890 N   0  0  0  0  0  0  0  0  0  0  0  0
  124.0477  130.2500   68.0399 H   0  0  0  0  0  0  0  0  0  0  0  0
  122.3876  129.7564   67.5631 H   0  0  0  0  0  0  0  0  0  0  0  0
  123.7183  128.5498   67.5631 H   0  0  0  0  0  0  0  0  0  0  0  0
  125.7613  129.4627   65.8722 H   0  0  0  0  0  0  0  0  0  0  0  0
  124.6330  128.0769   65.7207 H   0  0  0  0  0  0  0  0  0  0  0  0
  125.7657  128.9984   63.5343 H   0  0  0  0  0  0  0  0  0  0  0  0
  124.0012  128.6812   63.4985 H   0  0  0  0  0  0  0  0  0  0  0  0
  124.4865  131.5933   61.7778 H   0  0  0  0  0  0  0  0  0  0  0  0
  126.0053  131.8218   62.7035 H   0  0  0  0  0  0  0  0  0  0  0  0
  126.0899  129.1230   62.4804 H   0  0  0  0  0  0  0  0  0  0  0  0
  125.0979  129.4633   61.0288 H   0  0  0  0  0  0  0  0  0  0  0  0
  129.0353  130.1008   61.2762 H   0  0  0  0  0  0  0  0  0  0  0  0
  128.2674  131.4211   62.2240 H   0  0  0  0  0  0  0  0  0  0  0  0
  128.5158  129.8832   63.9282 H   0  0  0  0  0  0  0  0  0  0  0  0
  126.9268  129.3122   63.2601 H   0  0  0  0  0  0  0  0  0  0  0  0
  129.5810  128.0740   62.7640 H   0  0  0  0  0  0  0  0  0  0  0  0
  129.0478  119.5931   62.0669 H   0  0  0  0  0  0  0  0  0  0  0  0
  129.1469  117.2080   61.3735 H   0  0  0  0  0  0  0  0  0  0  0  0
  130.9572  116.4309   59.8504 H   0  0  0  0  0  0  0  0  0  0  0  0
  132.6648  118.0365   59.0109 H   0  0  0  0  0  0  0  0  0  0  0  0
  132.5669  120.4232   59.6990 H   0  0  0  0  0  0  0  0  0  0  0  0
  132.8711  121.8497   61.6657 H   0  0  0  0  0  0  0  0  0  0  0  0
  131.2960  126.6940   63.7200 H   0  0  0  0  0  0  0  0  0  0  0  0
  131.1790  127.3640   62.1390 H   0  0  0  0  0  0  0  0  0  0  0  0
  1  2  1  0
  2  3  1  0
  3  4  1  0
  4  5  1  0
  5  6  1  0
  6  7  1  0
  7  8  1  0
  8  9  1  0
  9 10  1  0
 10 11  1  0
 11 12  1  0
 12 13  2  0
 12 14  1  0
 14 15  1  0
 15 16  1  0
 16 17  2  0
 17 18  1  0
 18 19  1  0
 19 20  2  0
 20 21  1  0
 21 22  2  0
 22 23  1  0
 23 24  2  0
 18 25  2  0
 25 26  1  0
 26 27  1  0
 27 28  1  0
 27 29  1  0
 27 30  1  0
 26 31  2  0
 31 32  1  0
 32 33  1  0
 32 14  2  0
 31 16  1  0
 24 19  1  0
  1 34  1  0
  1 35  1  0
  1 36  1  0
  3 37  1  0
  3 38  1  0
  4 39  1  0
  4 40  1  0
  6 41  1  0
  6 42  1  0
  7 43  1  0
  7 44  1  0
  9 45  1  0
  9 46  1  0
 10 47  1  0
 10 48  1  0
 11 49  1  0
 20 50  1  0
 21 51  1  0
 22 52  1  0
 23 53  1  0
 24 54  1  0
 25 55  1  0
 33 56  1  0
 33 57  1  0
M  END
>  <Binding energies>  (1) 
[-6.47]

>  <Ligand effiencies>  (1) 
[-0.17972222222222223]

>  <Interactions>  (1) 
["V-B:ALA:541:CB:9864, V-B:TYR:539:CD2:9846, V-A:TYR:484:CZ:4347, V-A:PRO:482:CG:4327, V-A:PRO:482:CB:4326, V-B:TYR:539:C:9839, V-A:LEU:475:CD1:4258, V-A:LEU:475:CD2:4259, V-B:GLU:543:CD:9880, V-A:SER:385:CB:3409, V-B:TYR:539:CE2:9848, H-A:GLU:543:OE2:4910, V-A:GLU:543:CD:4908, H-A:GLU:543:OE1:4909, V-A:ARG:545:CZ:4926, V-B:ARG:545:CZ:9898, H-B:GLY:454:N:9022, H-B:TYR:484:OH:9320, V-B:ILE:455:C:9024, V-B:ARG:545:CD:9895, V-B:HIS:456:CE1:9042, V-B:ARG:545:CG:9894, V-B:ARG:545:CB:9893, H-A:ASP:366:OD1:3214, V-A:ASP:366:CG:3213, V-A:GLY:454:CA:4049, V-A:ILE:369:CD1:3239, V-A:GLY:453:CA:4044, V-A:GLY:453:C:4042, V-B:TYR:484:CE1:9317, H-B:ARG:545:NH2:9900, V-B:TYR:539:CB:9843"]

$$$$
4dd_Grossjean_2025
     RDKit          3D

 43 46  0  0  0  0  0  0  0  0999 V2000
  133.4540  124.3660   61.4550 C   0  0  0  0  0  0  0  0  0  0  0  0
  132.0950  123.6830   61.4160 C   0  0  0  0  0  0  0  0  0  0  0  0
  132.0580  122.2990   61.2100 C   0  0  0  0  0  0  0  0  0  0  0  0
  130.8390  121.6110   61.1640 C   0  0  0  0  0  0  0  0  0  0  0  0
  130.7690  120.1300   60.9400 C   0  0  0  0  0  0  0  0  0  0  0  0
  129.7770  119.3540   61.5620 C   0  0  0  0  0  0  0  0  0  0  0  0
  129.7040  117.9790   61.3560 C   0  0  0  0  0  0  0  0  0  0  0  0
  130.6270  117.3570   60.5230 C   0  0  0  0  0  0  0  0  0  0  0  0
  131.6190  118.1000   59.8920 C   0  0  0  0  0  0  0  0  0  0  0  0
  131.6870  119.4760   60.1000 C   0  0  0  0  0  0  0  0  0  0  0  0
  129.6460  122.2520   61.3030 N   0  0  0  0  0  0  0  0  0  0  0  0
  129.6810  123.5690   61.5050 C   0  0  0  0  0  0  0  0  0  0  0  0
  128.2240  124.5130   61.7170 S   0  0  0  0  0  0  0  0  0  0  0  0
  129.1590  125.9980   61.9100 C   0  0  0  0  0  0  0  0  0  0  0  0
  128.4830  127.2730   62.1570 C   0  0  0  0  0  0  0  0  0  0  0  0
  129.0580  128.3410   61.9400 O   0  0  0  0  0  0  0  0  0  0  0  0
  127.2130  127.1760   62.6200 N   0  0  0  0  0  0  0  0  0  0  0  0
  126.3190  128.1920   63.0030 C   0  0  0  0  0  0  0  0  0  0  0  0
  125.7070  128.8940   61.9600 C   0  0  0  0  0  0  0  0  0  0  0  0
  124.7950  129.9090   62.2360 C   0  0  0  0  0  0  0  0  0  0  0  0
  124.4870  130.2190   63.5580 C   0  0  0  0  0  0  0  0  0  0  0  0
  125.0790  129.5200   64.6060 C   0  0  0  0  0  0  0  0  0  0  0  0
  125.9920  128.5040   64.3340 C   0  0  0  0  0  0  0  0  0  0  0  0
  130.5360  125.7460   61.8040 C   0  0  0  0  0  0  0  0  0  0  0  0
  131.5010  126.7170   61.9080 N   0  0  0  0  0  0  0  0  0  0  0  0
  130.8600  124.3630   61.5750 C   0  0  0  0  0  0  0  0  0  0  0  0
  133.7578  124.5187   62.5011 H   0  0  0  0  0  0  0  0  0  0  0  0
  134.1967  123.7341   60.9460 H   0  0  0  0  0  0  0  0  0  0  0  0
  133.3901  125.3391   60.9460 H   0  0  0  0  0  0  0  0  0  0  0  0
  132.9992  121.7442   61.0825 H   0  0  0  0  0  0  0  0  0  0  0  0
  129.0452  119.8411   62.2232 H   0  0  0  0  0  0  0  0  0  0  0  0
  128.9194  117.3873   61.8502 H   0  0  0  0  0  0  0  0  0  0  0  0
  130.5724  116.2702   60.3619 H   0  0  0  0  0  0  0  0  0  0  0  0
  132.3461  117.6039   59.2322 H   0  0  0  0  0  0  0  0  0  0  0  0
  132.4723  120.0605   59.5984 H   0  0  0  0  0  0  0  0  0  0  0  0
  126.8380  126.2420   62.6940 H   0  0  0  0  0  0  0  0  0  0  0  0
  125.9473  128.6430   60.9163 H   0  0  0  0  0  0  0  0  0  0  0  0
  124.3199  130.4636   61.4134 H   0  0  0  0  0  0  0  0  0  0  0  0
  123.7693  131.0236   63.7762 H   0  0  0  0  0  0  0  0  0  0  0  0
  124.8262  129.7695   65.6471 H   0  0  0  0  0  0  0  0  0  0  0  0
  126.4569  127.9461   65.1602 H   0  0  0  0  0  0  0  0  0  0  0  0
  132.4800  126.5140   61.7650 H   0  0  0  0  0  0  0  0  0  0  0  0
  131.2600  127.6730   62.1290 H   0  0  0  0  0  0  0  0  0  0  0  0
  1  2  1  0
  2  3  2  0
  3  4  1  0
  4  5  1  0
  5  6  2  0
  6  7  1  0
  7  8  2  0
  8  9  1  0
  9 10  2  0
  4 11  2  0
 11 12  1  0
 12 13  1  0
 13 14  1  0
 14 15  1  0
 15 16  2  0
 15 17  1  0
 17 18  1  0
 18 19  2  0
 19 20  1  0
 20 21  2  0
 21 22  1  0
 22 23  2  0
 14 24  2  0
 24 25  1  0
 24 26  1  0
 26  2  1  0
 10  5  1  0
 26 12  2  0
 23 18  1  0
  1 27  1  0
  1 28  1  0
  1 29  1  0
  3 30  1  0
  6 31  1  0
  7 32  1  0
  8 33  1  0
  9 34  1  0
 10 35  1  0
 17 36  1  0
 19 37  1  0
 20 38  1  0
 21 39  1  0
 22 40  1  0
 23 41  1  0
 25 42  1  0
 25 43  1  0
M  END
>  <Binding energies>  (1) 
[-7.5]

>  <Ligand effiencies>  (1) 
[-0.25862068965517243]

>  <Interactions>  (1) 
["V-B:ALA:541:CB:9864, V-B:TYR:539:CD2:9846, H-B:GLU:543:OE2:9882, V-A:PRO:482:CG:4327, V-A:PRO:482:CB:4326, V-A:LEU:475:CD1:4258, V-A:LEU:475:CD2:4259, V-B:GLU:543:CD:9880, V-A:SER:385:CB:3409, H-B:GLU:543:OE1:9881, V-B:TYR:539:CE2:9848, H-A:GLU:543:OE2:4910, V-A:GLU:543:CD:4908, H-A:GLU:543:OE1:4909, V-A:ARG:545:CZ:4926, V-B:ARG:545:CZ:9898, H-A:ASP:366:OD1:3214, V-A:ASP:366:CG:3213, V-A:LEU:475:CG:4257, V-A:ILE:369:CD1:3239, H-A:ASP:366:OD2:3215, V-B:ASP:366:CG:8185"]

$$$$
4dg_Grossjean_2025
     RDKit          3D

 46 49  0  0  0  0  0  0  0  0999 V2000
  133.1640  124.4180   62.3440 C   0  0  0  0  0  0  0  0  0  0  0  0
  131.8790  123.6820   61.9970 C   0  0  0  0  0  0  0  0  0  0  0  0
  131.9690  122.3330   61.6340 C   0  0  0  0  0  0  0  0  0  0  0  0
  130.8230  121.5990   61.3030 C   0  0  0  0  0  0  0  0  0  0  0  0
  130.8870  120.1500   60.9110 C   0  0  0  0  0  0  0  0  0  0  0  0
  131.8720  119.6860   60.0230 C   0  0  0  0  0  0  0  0  0  0  0  0
  131.9330  118.3450   59.6530 C   0  0  0  0  0  0  0  0  0  0  0  0
  131.0080  117.4440   60.1680 C   0  0  0  0  0  0  0  0  0  0  0  0
  130.0200  117.8760   61.0470 C   0  0  0  0  0  0  0  0  0  0  0  0
  129.9620  119.2170   61.4130 C   0  0  0  0  0  0  0  0  0  0  0  0
  129.5810  122.1530   61.3380 N   0  0  0  0  0  0  0  0  0  0  0  0
  129.4940  123.4380   61.6830 C   0  0  0  0  0  0  0  0  0  0  0  0
  127.9610  124.2740   61.7610 S   0  0  0  0  0  0  0  0  0  0  0  0
  128.7520  125.7690   62.2570 C   0  0  0  0  0  0  0  0  0  0  0  0
  127.9640  126.9820   62.4690 C   0  0  0  0  0  0  0  0  0  0  0  0
  126.7470  127.0000   62.2700 O   0  0  0  0  0  0  0  0  0  0  0  0
  128.6550  128.0750   62.8530 N   0  0  0  0  0  0  0  0  0  0  0  0
  128.0750  129.3850   63.1430 C   0  0  0  0  0  0  0  0  0  0  0  0
  126.8670  129.3210   64.0710 C   0  0  0  0  0  0  0  0  0  0  0  0
  125.6050  129.6870   63.5930 C   0  0  0  0  0  0  0  0  0  0  0  0
  124.4940  129.5990   64.4280 C   0  0  0  0  0  0  0  0  0  0  0  0
  124.6460  129.1350   65.7320 C   0  0  0  0  0  0  0  0  0  0  0  0
  125.8980  128.7530   66.2100 C   0  0  0  0  0  0  0  0  0  0  0  0
  127.0090  128.8390   65.3750 C   0  0  0  0  0  0  0  0  0  0  0  0
  130.1430  125.6080   62.3360 C   0  0  0  0  0  0  0  0  0  0  0  0
  131.0090  126.6120   62.6860 N   0  0  0  0  0  0  0  0  0  0  0  0
  130.5920  124.2770   62.0240 C   0  0  0  0  0  0  0  0  0  0  0  0
  133.2685  124.4778   63.4374 H   0  0  0  0  0  0  0  0  0  0  0  0
  134.0228  123.8749   61.9228 H   0  0  0  0  0  0  0  0  0  0  0  0
  133.1301  125.4336   61.9228 H   0  0  0  0  0  0  0  0  0  0  0  0
  132.9533  121.8427   61.6084 H   0  0  0  0  0  0  0  0  0  0  0  0
  132.6074  120.3940   59.6132 H   0  0  0  0  0  0  0  0  0  0  0  0
  132.7104  117.9997   58.9556 H   0  0  0  0  0  0  0  0  0  0  0  0
  131.0576  116.3838   59.8789 H   0  0  0  0  0  0  0  0  0  0  0  0
  129.2882  117.1608   61.4507 H   0  0  0  0  0  0  0  0  0  0  0  0
  129.1784  119.5537   62.1077 H   0  0  0  0  0  0  0  0  0  0  0  0
  129.6350  127.9650   63.0720 H   0  0  0  0  0  0  0  0  0  0  0  0
  128.8459  130.0103   63.6170 H   0  0  0  0  0  0  0  0  0  0  0  0
  127.7281  129.8050   62.1874 H   0  0  0  0  0  0  0  0  0  0  0  0
  125.4899  130.0439   62.5589 H   0  0  0  0  0  0  0  0  0  0  0  0
  123.5008  129.8947   64.0591 H   0  0  0  0  0  0  0  0  0  0  0  0
  123.7684  129.0693   66.3919 H   0  0  0  0  0  0  0  0  0  0  0  0
  126.0080  128.3856   67.2410 H   0  0  0  0  0  0  0  0  0  0  0  0
  127.9982  128.5276   65.7417 H   0  0  0  0  0  0  0  0  0  0  0  0
  131.4370  126.6560   63.5990 H   0  0  0  0  0  0  0  0  0  0  0  0
  131.2540  127.3440   62.0320 H   0  0  0  0  0  0  0  0  0  0  0  0
  1  2  1  0
  2  3  2  0
  3  4  1  0
  4  5  1  0
  5  6  2  0
  6  7  1  0
  7  8  2  0
  8  9  1  0
  9 10  2  0
  4 11  2  0
 11 12  1  0
 12 13  1  0
 13 14  1  0
 14 15  1  0
 15 16  2  0
 15 17  1  0
 17 18  1  0
 18 19  1  0
 19 20  2  0
 20 21  1  0
 21 22  2  0
 22 23  1  0
 23 24  2  0
 14 25  2  0
 25 26  1  0
 25 27  1  0
 27  2  1  0
 10  5  1  0
 27 12  2  0
 24 19  1  0
  1 28  1  0
  1 29  1  0
  1 30  1  0
  3 31  1  0
  6 32  1  0
  7 33  1  0
  8 34  1  0
  9 35  1  0
 10 36  1  0
 17 37  1  0
 18 38  1  0
 18 39  1  0
 20 40  1  0
 21 41  1  0
 22 42  1  0
 23 43  1  0
 24 44  1  0
 26 45  1  0
 26 46  1  0
M  END
>  <Binding energies>  (1) 
[-7.95]

>  <Ligand effiencies>  (1) 
[-0.265]

>  <Interactions>  (1) 
["V-B:ALA:541:CB:9864, V-B:TYR:539:CD2:9846, V-A:PRO:482:CG:4327, V-A:PRO:482:CB:4326, V-A:LEU:475:CD1:4258, V-A:LEU:475:CD2:4259, V-B:GLU:543:CD:9880, V-A:SER:385:CB:3409, V-B:TYR:539:CE2:9848, H-A:GLU:543:OE2:4910, V-A:GLU:543:CD:4908, H-A:GLU:543:OE1:4909, V-A:GLU:543:CG:4907, V-B:ARG:545:CZ:9898, V-B:ARG:545:CD:9895, V-B:HIS:456:CE1:9042, V-B:ARG:545:CG:9894, H-A:ASP:366:OD1:3214, V-A:LEU:475:CG:4257, V-B:TYR:484:CZ:9319, H-B:ARG:545:NH2:9900"]

$$$$
4dj_Grossjean_2025
     RDKit          3D

 39 42  0  0  0  0  0  0  0  0999 V2000
  133.3980  124.3480   61.7720 C   0  0  0  0  0  0  0  0  0  0  0  0
  132.0440  123.6700   61.6290 C   0  0  0  0  0  0  0  0  0  0  0  0
  132.0190  122.2910   61.3890 C   0  0  0  0  0  0  0  0  0  0  0  0
  130.8050  121.6070   61.2460 C   0  0  0  0  0  0  0  0  0  0  0  0
  130.7480  120.1270   60.9930 C   0  0  0  0  0  0  0  0  0  0  0  0
  131.6740  119.5050   60.1390 C   0  0  0  0  0  0  0  0  0  0  0  0
  131.6260  118.1350   59.9010 C   0  0  0  0  0  0  0  0  0  0  0  0
  130.6440  117.3620   60.5120 C   0  0  0  0  0  0  0  0  0  0  0  0
  129.7120  117.9520   61.3590 C   0  0  0  0  0  0  0  0  0  0  0  0
  129.7640  119.3220   61.5950 C   0  0  0  0  0  0  0  0  0  0  0  0
  129.6060  122.2420   61.3490 N   0  0  0  0  0  0  0  0  0  0  0  0
  129.6280  123.5550   61.5760 C   0  0  0  0  0  0  0  0  0  0  0  0
  128.1610  124.4960   61.7240 S   0  0  0  0  0  0  0  0  0  0  0  0
  129.0830  125.9770   61.9930 C   0  0  0  0  0  0  0  0  0  0  0  0
  128.3920  127.2510   62.1980 C   0  0  0  0  0  0  0  0  0  0  0  0
  128.9860  128.3220   62.0440 O   0  0  0  0  0  0  0  0  0  0  0  0
  127.0910  127.1570   62.5670 N   0  0  0  0  0  0  0  0  0  0  0  0
  126.2180  128.2050   62.8240 C   0  0  0  0  0  0  0  0  0  0  0  0
  125.4970  128.8860   61.9590 N   0  0  0  0  0  0  0  0  0  0  0  0
  124.7760  129.8160   62.5550 C   0  0  0  0  0  0  0  0  0  0  0  0
  124.9050  129.9030   63.9380 C   0  0  0  0  0  0  0  0  0  0  0  0
  126.0350  128.6960   64.4770 S   0  0  0  0  0  0  0  0  0  0  0  0
  130.4630  125.7260   61.9620 C   0  0  0  0  0  0  0  0  0  0  0  0
  131.4190  126.6950   62.1390 N   0  0  0  0  0  0  0  0  0  0  0  0
  130.8010  124.3480   61.7280 C   0  0  0  0  0  0  0  0  0  0  0  0
  133.6372  124.4678   62.8390 H   0  0  0  0  0  0  0  0  0  0  0  0
  134.1701  123.7302   61.2902 H   0  0  0  0  0  0  0  0  0  0  0  0
  133.3659  125.3364   61.2902 H   0  0  0  0  0  0  0  0  0  0  0  0
  132.9660  121.7368   61.3116 H   0  0  0  0  0  0  0  0  0  0  0  0
  132.4505  120.1116   59.6500 H   0  0  0  0  0  0  0  0  0  0  0  0
  132.3619  117.6648   59.2321 H   0  0  0  0  0  0  0  0  0  0  0  0
  130.6045  116.2789   60.3243 H   0  0  0  0  0  0  0  0  0  0  0  0
  128.9368  117.3378   61.8404 H   0  0  0  0  0  0  0  0  0  0  0  0
  129.0228  119.7837   62.2639 H   0  0  0  0  0  0  0  0  0  0  0  0
  126.7050  126.2300   62.6730 H   0  0  0  0  0  0  0  0  0  0  0  0
  124.1101  130.4853   61.9905 H   0  0  0  0  0  0  0  0  0  0  0  0
  124.3776  130.6192   64.5853 H   0  0  0  0  0  0  0  0  0  0  0  0
  132.4040  126.4790   62.1370 H   0  0  0  0  0  0  0  0  0  0  0  0
  131.1640  127.6630   62.2780 H   0  0  0  0  0  0  0  0  0  0  0  0
  1  2  1  0
  2  3  2  0
  3  4  1  0
  4  5  1  0
  5  6  2  0
  6  7  1  0
  7  8  2  0
  8  9  1  0
  9 10  2  0
  4 11  2  0
 11 12  1  0
 12 13  1  0
 13 14  1  0
 14 15  1  0
 15 16  2  0
 15 17  1  0
 17 18  1  0
 18 19  2  0
 19 20  1  0
 20 21  2  0
 21 22  1  0
 14 23  2  0
 23 24  1  0
 23 25  1  0
 25  2  1  0
 10  5  1  0
 25 12  2  0
 22 18  1  0
  1 26  1  0
  1 27  1  0
  1 28  1  0
  3 29  1  0
  6 30  1  0
  7 31  1  0
  8 32  1  0
  9 33  1  0
 10 34  1  0
 17 35  1  0
 20 36  1  0
 21 37  1  0
 24 38  1  0
 24 39  1  0
M  END
>  <Binding energies>  (1) 
[-6.96]

>  <Ligand effiencies>  (1) 
[-0.24857142857142858]

>  <Interactions>  (1) 
["V-B:ALA:541:CB:9864, V-B:TYR:539:CD2:9846, H-B:GLU:543:OE2:9882, V-A:PRO:482:CG:4327, V-A:PRO:482:CB:4326, V-A:LEU:475:CD1:4258, V-A:LEU:475:CD2:4259, V-B:GLU:543:CD:9880, V-A:SER:385:CB:3409, H-B:GLU:543:OE1:9881, V-B:TYR:539:CE2:9848, H-A:GLU:543:OE2:4910, V-A:GLU:543:CD:4908, H-A:GLU:543:OE1:4909, V-A:ARG:545:CZ:4926, V-B:ARG:545:CZ:9898, H-A:ASP:366:OD1:3214, V-A:LEU:475:CG:4257, H-A:ASP:366:OD2:3215, H-B:ARG:545:NH2:9900"]

$$$$
4ea_Grossjean_2025
     RDKit          3D

 52 55  0  0  0  0  0  0  0  0999 V2000
  131.6370  117.3460   58.7680 C   0  0  0  0  0  0  0  0  0  0  0  0
  130.9070  117.5390   60.1000 C   0  0  0  0  0  0  0  0  0  0  0  0
  130.9100  118.9170   60.4460 O   0  0  0  0  0  0  0  0  0  0  0  0
  130.0450  119.4120   61.3680 C   0  0  0  0  0  0  0  0  0  0  0  0
  129.3840  118.7000   62.1310 O   0  0  0  0  0  0  0  0  0  0  0  0
  129.9710  120.9110   61.3680 C   0  0  0  0  0  0  0  0  0  0  0  0
  128.7790  121.5370   61.7550 C   0  0  0  0  0  0  0  0  0  0  0  0
  128.6790  122.9250   61.7660 C   0  0  0  0  0  0  0  0  0  0  0  0
  129.7650  123.7160   61.3910 C   0  0  0  0  0  0  0  0  0  0  0  0
  129.5490  125.1070   61.4400 N   0  0  0  0  0  0  0  0  0  0  0  0
  130.2770  126.1280   60.9260 C   0  0  0  0  0  0  0  0  0  0  0  0
  131.3200  125.9840   60.2870 O   0  0  0  0  0  0  0  0  0  0  0  0
  129.7390  127.4680   61.1780 C   0  0  0  0  0  0  0  0  0  0  0  0
  130.2100  128.8280   60.1550 S   0  0  0  0  0  0  0  0  0  0  0  0
  129.2050  129.9270   61.0700 C   0  0  0  0  0  0  0  0  0  0  0  0
  129.1200  131.2230   60.7660 N   0  0  0  0  0  0  0  0  0  0  0  0
  128.3060  131.9680   61.5540 C   0  0  0  0  0  0  0  0  0  0  0  0
  128.2240  133.4390   61.1900 C   0  0  0  0  0  0  0  0  0  0  0  0
  127.5820  131.4530   62.6260 C   0  0  0  0  0  0  0  0  0  0  0  0
  127.6730  130.0930   62.9420 C   0  0  0  0  0  0  0  0  0  0  0  0
  126.8980  129.5600   64.0840 C   0  0  0  0  0  0  0  0  0  0  0  0
  125.5000  129.5990   64.0650 C   0  0  0  0  0  0  0  0  0  0  0  0
  124.7700  129.0960   65.1380 C   0  0  0  0  0  0  0  0  0  0  0  0
  125.4390  128.5570   66.2350 C   0  0  0  0  0  0  0  0  0  0  0  0
  126.8310  128.5180   66.2670 C   0  0  0  0  0  0  0  0  0  0  0  0
  127.5590  129.0210   65.1930 C   0  0  0  0  0  0  0  0  0  0  0  0
  128.5180  129.2770   62.1390 C   0  0  0  0  0  0  0  0  0  0  0  0
  128.8400  127.8740   62.1780 C   0  0  0  0  0  0  0  0  0  0  0  0
  128.3080  127.0260   63.1150 N   0  0  0  0  0  0  0  0  0  0  0  0
  130.9640  123.0980   61.0020 C   0  0  0  0  0  0  0  0  0  0  0  0
  131.0620  121.7100   60.9920 C   0  0  0  0  0  0  0  0  0  0  0  0
  132.6841  117.0692   58.9605 H   0  0  0  0  0  0  0  0  0  0  0  0
  131.1461  116.5468   58.1933 H   0  0  0  0  0  0  0  0  0  0  0  0
  131.6053  118.2834   58.1933 H   0  0  0  0  0  0  0  0  0  0  0  0
  129.8692  117.1873   60.0037 H   0  0  0  0  0  0  0  0  0  0  0  0
  131.4180  116.9625   60.8852 H   0  0  0  0  0  0  0  0  0  0  0  0
  127.9142  120.9259   62.0529 H   0  0  0  0  0  0  0  0  0  0  0  0
  127.7364  123.4019   62.0727 H   0  0  0  0  0  0  0  0  0  0  0  0
  128.7140  125.3730   61.9420 H   0  0  0  0  0  0  0  0  0  0  0  0
  128.1903  134.0428   62.1089 H   0  0  0  0  0  0  0  0  0  0  0  0
  129.1079  133.7202   60.5986 H   0  0  0  0  0  0  0  0  0  0  0  0
  127.3144  133.6202   60.5986 H   0  0  0  0  0  0  0  0  0  0  0  0
  126.9387  132.1150   63.2243 H   0  0  0  0  0  0  0  0  0  0  0  0
  124.9755  130.0288   63.1989 H   0  0  0  0  0  0  0  0  0  0  0  0
  123.6705  129.1238   65.1201 H   0  0  0  0  0  0  0  0  0  0  0  0
  124.8628  128.1588   67.0832 H   0  0  0  0  0  0  0  0  0  0  0  0
  127.3522  128.0917   67.1369 H   0  0  0  0  0  0  0  0  0  0  0  0
  128.6584  128.9947   65.2161 H   0  0  0  0  0  0  0  0  0  0  0  0
  127.5340  126.4120   62.9010 H   0  0  0  0  0  0  0  0  0  0  0  0
  128.6730  126.9870   64.0570 H   0  0  0  0  0  0  0  0  0  0  0  0
  131.8271  123.7118   60.7047 H   0  0  0  0  0  0  0  0  0  0  0  0
  132.0051  121.2336   60.6860 H   0  0  0  0  0  0  0  0  0  0  0  0
  1  2  1  0
  2  3  1  0
  3  4  1  0
  4  5  2  0
  4  6  1  0
  6  7  2  0
  7  8  1  0
  8  9  2  0
  9 10  1  0
 10 11  1  0
 11 12  2  0
 11 13  1  0
 13 14  1  0
 14 15  1  0
 15 16  2  0
 16 17  1  0
 17 18  1  0
 17 19  2  0
 19 20  1  0
 20 21  1  0
 21 22  2  0
 22 23  1  0
 23 24  2  0
 24 25  1  0
 25 26  2  0
 20 27  2  0
 27 28  1  0
 28 29  1  0
  9 30  1  0
 30 31  2  0
 31  6  1  0
 28 13  2  0
 27 15  1  0
 26 21  1  0
  1 32  1  0
  1 33  1  0
  1 34  1  0
  2 35  1  0
  2 36  1  0
  7 37  1  0
  8 38  1  0
 10 39  1  0
 18 40  1  0
 18 41  1  0
 18 42  1  0
 19 43  1  0
 22 44  1  0
 23 45  1  0
 24 46  1  0
 25 47  1  0
 26 48  1  0
 29 49  1  0
 29 50  1  0
 30 51  1  0
 31 52  1  0
M  END
>  <Binding energies>  (1) 
[-7.33]

>  <Ligand effiencies>  (1) 
[-0.21558823529411764]

>  <Interactions>  (1) 
["V-B:ALA:541:CB:9864, V-B:TYR:539:CD2:9846, H-B:GLU:543:OE2:9882, V-A:LEU:475:CD1:4258, V-A:LEU:475:CD2:4259, V-B:GLU:543:CD:9880, V-A:SER:385:CB:3409, H-B:GLU:543:OE1:9881, V-B:TYR:539:CE2:9848, H-A:GLU:543:OE2:4910, V-A:GLU:543:CD:4908, V-B:PRO:540:C:9853, V-B:PRO:540:CA:9855, H-A:GLU:543:OE1:4909, V-A:ALA:541:CB:4892, V-A:GLU:543:CG:4907, V-B:ARG:545:CZ:9898, V-B:ARG:545:CD:9895, V-B:HIS:456:CE1:9042, V-B:ARG:545:CG:9894, V-B:TYR:539:CB:9843, V-B:TYR:539:CG:9844, V-A:LEU:373:CD1:3280"]

$$$$
4eb_Grossjean_2025
     RDKit          3D

 49 52  0  0  0  0  0  0  0  0999 V2000
  131.2430  117.8140   59.7570 C   0  0  0  0  0  0  0  0  0  0  0  0
  131.1100  119.1230   60.2910 O   0  0  0  0  0  0  0  0  0  0  0  0
  130.1450  119.4100   61.2040 C   0  0  0  0  0  0  0  0  0  0  0  0
  129.5750  118.5520   61.8830 O   0  0  0  0  0  0  0  0  0  0  0  0
  129.8420  120.8780   61.3050 C   0  0  0  0  0  0  0  0  0  0  0  0
  130.8270  121.8050   60.9400 C   0  0  0  0  0  0  0  0  0  0  0  0
  130.5770  123.1720   61.0220 C   0  0  0  0  0  0  0  0  0  0  0  0
  129.3410  123.6400   61.4690 C   0  0  0  0  0  0  0  0  0  0  0  0
  129.2010  125.0410   61.5110 N   0  0  0  0  0  0  0  0  0  0  0  0
  130.0980  126.0210   61.2440 C   0  0  0  0  0  0  0  0  0  0  0  0
  131.2630  125.8200   60.8970 O   0  0  0  0  0  0  0  0  0  0  0  0
  129.5940  127.3890   61.3940 C   0  0  0  0  0  0  0  0  0  0  0  0
  130.1900  128.6800   60.3490 S   0  0  0  0  0  0  0  0  0  0  0  0
  129.1620  129.8560   61.1350 C   0  0  0  0  0  0  0  0  0  0  0  0
  129.1490  131.1390   60.7670 N   0  0  0  0  0  0  0  0  0  0  0  0
  128.3090  131.9480   61.4560 C   0  0  0  0  0  0  0  0  0  0  0  0
  128.3100  133.4020   61.0200 C   0  0  0  0  0  0  0  0  0  0  0  0
  127.4890  131.5110   62.4930 C   0  0  0  0  0  0  0  0  0  0  0  0
  127.5060  130.1650   62.8770 C   0  0  0  0  0  0  0  0  0  0  0  0
  126.6280  129.7150   63.9820 C   0  0  0  0  0  0  0  0  0  0  0  0
  127.1870  129.2140   65.1620 C   0  0  0  0  0  0  0  0  0  0  0  0
  126.3620  128.7920   66.2030 C   0  0  0  0  0  0  0  0  0  0  0  0
  124.9790  128.8690   66.0600 C   0  0  0  0  0  0  0  0  0  0  0  0
  124.4130  129.3640   64.8870 C   0  0  0  0  0  0  0  0  0  0  0  0
  125.2390  129.7850   63.8480 C   0  0  0  0  0  0  0  0  0  0  0  0
  128.3750  129.2830   62.1780 C   0  0  0  0  0  0  0  0  0  0  0  0
  128.6410  127.8740   62.3040 C   0  0  0  0  0  0  0  0  0  0  0  0
  128.0100  127.0900   63.2370 N   0  0  0  0  0  0  0  0  0  0  0  0
  128.3480  122.7180   61.8360 C   0  0  0  0  0  0  0  0  0  0  0  0
  128.6000  121.3520   61.7540 C   0  0  0  0  0  0  0  0  0  0  0  0
  131.3168  117.0880   60.5801 H   0  0  0  0  0  0  0  0  0  0  0  0
  130.3641  117.5792   59.1386 H   0  0  0  0  0  0  0  0  0  0  0  0
  132.1512  117.7608   59.1386 H   0  0  0  0  0  0  0  0  0  0  0  0
  131.8059  121.4498   60.5857 H   0  0  0  0  0  0  0  0  0  0  0  0
  131.3597  123.8885   60.7322 H   0  0  0  0  0  0  0  0  0  0  0  0
  128.2810  125.3530   61.7850 H   0  0  0  0  0  0  0  0  0  0  0  0
  128.3104  134.0511   61.9081 H   0  0  0  0  0  0  0  0  0  0  0  0
  129.2083  133.6037   60.4180 H   0  0  0  0  0  0  0  0  0  0  0  0
  127.4120  133.6049   60.4180 H   0  0  0  0  0  0  0  0  0  0  0  0
  126.8285  132.2227   63.0099 H   0  0  0  0  0  0  0  0  0  0  0  0
  128.2801  129.1529   65.2687 H   0  0  0  0  0  0  0  0  0  0  0  0
  126.8009  128.4003   67.1325 H   0  0  0  0  0  0  0  0  0  0  0  0
  124.3271  128.5358   66.8810 H   0  0  0  0  0  0  0  0  0  0  0  0
  123.3195  129.4219   64.7823 H   0  0  0  0  0  0  0  0  0  0  0  0
  124.7966  130.1738   62.9190 H   0  0  0  0  0  0  0  0  0  0  0  0
  127.1830  126.5560   63.0090 H   0  0  0  0  0  0  0  0  0  0  0  0
  128.3520  127.0200   64.1860 H   0  0  0  0  0  0  0  0  0  0  0  0
  127.3695  123.0759   62.1888 H   0  0  0  0  0  0  0  0  0  0  0  0
  127.8171  120.6360   62.0443 H   0  0  0  0  0  0  0  0  0  0  0  0
  1  2  1  0
  2  3  1  0
  3  4  2  0
  3  5  1  0
  5  6  2  0
  6  7  1  0
  7  8  2  0
  8  9  1  0
  9 10  1  0
 10 11  2  0
 10 12  1  0
 12 13  1  0
 13 14  1  0
 14 15  2  0
 15 16  1  0
 16 17  1  0
 16 18  2  0
 18 19  1  0
 19 20  1  0
 20 21  2  0
 21 22  1  0
 22 23  2  0
 23 24  1  0
 24 25  2  0
 19 26  2  0
 26 27  1  0
 27 28  1  0
  8 29  1  0
 29 30  2  0
 30  5  1  0
 27 12  2  0
 26 14  1  0
 25 20  1  0
  1 31  1  0
  1 32  1  0
  1 33  1  0
  6 34  1  0
  7 35  1  0
  9 36  1  0
 17 37  1  0
 17 38  1  0
 17 39  1  0
 18 40  1  0
 21 41  1  0
 22 42  1  0
 23 43  1  0
 24 44  1  0
 25 45  1  0
 28 46  1  0
 28 47  1  0
 29 48  1  0
 30 49  1  0
M  END
>  <Binding energies>  (1) 
[-7.04]

>  <Ligand effiencies>  (1) 
[-0.21333333333333335]

>  <Interactions>  (1) 
["V-B:ALA:541:CB:9864, V-B:TYR:539:CD2:9846, H-B:GLU:543:OE2:9882, V-A:LEU:475:CD1:4258, V-A:LEU:475:CD2:4259, V-B:GLU:543:CD:9880, V-A:SER:385:CB:3409, H-B:GLU:543:OE1:9881, V-B:TYR:539:CE2:9848, H-A:GLU:543:OE2:4910, V-A:GLU:543:CD:4908, V-B:PRO:540:C:9853, V-B:ALA:541:CA:9862, V-B:PRO:540:CA:9855, H-A:GLU:543:OE1:4909, V-A:ALA:541:CB:4892, V-B:ARG:545:CZ:9898, V-B:ARG:545:CD:9895, V-B:HIS:456:CE1:9042, V-B:ARG:545:CG:9894, V-B:TYR:484:CZ:9319, V-B:TYR:539:CB:9843"]

$$$$
8a_Ghoteimi_2023
     RDKit          3D

 67 71  0  0  0  0  0  0  0  0999 V2000
  130.0700  117.8400   60.9810 C   0  0  0  0  0  0  0  0  0  0  0  0
  131.4680  117.9530   60.3680 C   0  0  0  0  0  0  0  0  0  0  0  0
  131.5750  119.1780   59.6540 O   0  0  0  0  0  0  0  0  0  0  0  0
  132.4330  120.1520   60.0560 C   0  0  0  0  0  0  0  0  0  0  0  0
  133.6460  119.9700   60.2030 O   0  0  0  0  0  0  0  0  0  0  0  0
  131.7590  121.4690   60.3090 C   0  0  0  0  0  0  0  0  0  0  0  0
  132.3490  122.6430   59.8240 C   0  0  0  0  0  0  0  0  0  0  0  0
  131.7500  123.8800   60.0430 C   0  0  0  0  0  0  0  0  0  0  0  0
  130.5510  123.9710   60.7520 C   0  0  0  0  0  0  0  0  0  0  0  0
  130.0400  125.2740   60.9160 N   0  0  0  0  0  0  0  0  0  0  0  0
  130.5980  126.4770   60.6330 C   0  0  0  0  0  0  0  0  0  0  0  0
  131.7220  126.6250   60.1540 O   0  0  0  0  0  0  0  0  0  0  0  0
  129.7570  127.6410   60.9310 C   0  0  0  0  0  0  0  0  0  0  0  0
  129.5980  128.9480   59.7590 S   0  0  0  0  0  0  0  0  0  0  0  0
  128.5370  129.8390   60.8260 C   0  0  0  0  0  0  0  0  0  0  0  0
  128.0470  131.0320   60.4910 N   0  0  0  0  0  0  0  0  0  0  0  0
  127.2360  131.6420   61.3950 C   0  0  0  0  0  0  0  0  0  0  0  0
  126.7140  132.9880   61.0070 C   0  0  0  0  0  0  0  0  0  0  0  0
  125.3800  133.1610   60.6110 C   0  0  0  0  0  0  0  0  0  0  0  0
  124.9040  134.4150   60.2400 C   0  0  0  0  0  0  0  0  0  0  0  0
  125.7440  135.5260   60.2570 C   0  0  0  0  0  0  0  0  0  0  0  0
  125.1850  136.7290   59.8710 O   0  0  0  0  0  0  0  0  0  0  0  0
  124.1440  136.7300   58.9000 C   0  0  0  0  0  0  0  0  0  0  0  0
  127.0780  135.3650   60.6580 C   0  0  0  0  0  0  0  0  0  0  0  0
  127.5540  134.1090   61.0260 C   0  0  0  0  0  0  0  0  0  0  0  0
  126.9130  131.0570   62.6220 C   0  0  0  0  0  0  0  0  0  0  0  0
  127.4120  129.7970   62.9710 C   0  0  0  0  0  0  0  0  0  0  0  0
  127.0110  129.2070   64.2730 C   0  0  0  0  0  0  0  0  0  0  0  0
  125.7050  128.7530   64.4670 C   0  0  0  0  0  0  0  0  0  0  0  0
  125.3300  128.1800   65.6790 C   0  0  0  0  0  0  0  0  0  0  0  0
  126.2550  128.0460   66.7160 C   0  0  0  0  0  0  0  0  0  0  0  0
  125.7940  127.4660   67.8820 O   0  0  0  0  0  0  0  0  0  0  0  0
  126.6590  126.6120   68.6210 C   0  0  0  0  0  0  0  0  0  0  0  0
  127.5700  128.4950   66.5200 C   0  0  0  0  0  0  0  0  0  0  0  0
  127.9420  129.0660   65.3060 C   0  0  0  0  0  0  0  0  0  0  0  0
  128.2810  129.1490   62.0480 C   0  0  0  0  0  0  0  0  0  0  0  0
  129.0070  127.9040   62.0880 C   0  0  0  0  0  0  0  0  0  0  0  0
  128.9730  127.0660   63.1750 N   0  0  0  0  0  0  0  0  0  0  0  0
  129.9500  122.8000   61.2380 C   0  0  0  0  0  0  0  0  0  0  0  0
  130.5510  121.5630   61.0170 C   0  0  0  0  0  0  0  0  0  0  0  0
  130.1491  117.8464   62.0781 H   0  0  0  0  0  0  0  0  0  0  0  0
  129.4558  118.6914   60.6527 H   0  0  0  0  0  0  0  0  0  0  0  0
  129.6005  116.9010   60.6527 H   0  0  0  0  0  0  0  0  0  0  0  0
  132.2223  117.9279   61.1682 H   0  0  0  0  0  0  0  0  0  0  0  0
  131.6356  117.1116   59.6796 H   0  0  0  0  0  0  0  0  0  0  0  0
  133.2946  122.5868   59.2648 H   0  0  0  0  0  0  0  0  0  0  0  0
  132.2250  124.7929   59.6544 H   0  0  0  0  0  0  0  0  0  0  0  0
  129.1050  125.3040   61.2970 H   0  0  0  0  0  0  0  0  0  0  0  0
  124.7017  132.2952   60.5934 H   0  0  0  0  0  0  0  0  0  0  0  0
  123.8547  134.5299   59.9305 H   0  0  0  0  0  0  0  0  0  0  0  0
  123.1685  136.7309   59.4083 H   0  0  0  0  0  0  0  0  0  0  0  0
  124.2304  137.6281   58.2707 H   0  0  0  0  0  0  0  0  0  0  0  0
  124.2287  135.8318   58.2707 H   0  0  0  0  0  0  0  0  0  0  0  0
  127.7514  136.2345   60.6820 H   0  0  0  0  0  0  0  0  0  0  0  0
  128.6034  133.9957   61.3357 H   0  0  0  0  0  0  0  0  0  0  0  0
  126.2575  131.5942   63.3233 H   0  0  0  0  0  0  0  0  0  0  0  0
  124.9674  128.8487   63.6566 H   0  0  0  0  0  0  0  0  0  0  0  0
  124.2968  127.8301   65.8207 H   0  0  0  0  0  0  0  0  0  0  0  0
  126.4986  126.7704   69.6976 H   0  0  0  0  0  0  0  0  0  0  0  0
  126.4426  125.5635   68.3684 H   0  0  0  0  0  0  0  0  0  0  0  0
  127.7047  126.8418   68.3684 H   0  0  0  0  0  0  0  0  0  0  0  0
  128.3094  128.3955   67.3283 H   0  0  0  0  0  0  0  0  0  0  0  0
  128.9767  129.4089   65.1586 H   0  0  0  0  0  0  0  0  0  0  0  0
  129.8210  126.7760   63.6420 H   0  0  0  0  0  0  0  0  0  0  0  0
  128.1030  126.7140   63.5470 H   0  0  0  0  0  0  0  0  0  0  0  0
  129.0029  122.8589   61.7943 H   0  0  0  0  0  0  0  0  0  0  0  0
  130.0735  120.6498   61.4017 H   0  0  0  0  0  0  0  0  0  0  0  0
  1  2  1  0
  2  3  1  0
  3  4  1  0
  4  5  2  0
  4  6  1  0
  6  7  2  0
  7  8  1  0
  8  9  2  0
  9 10  1  0
 10 11  1  0
 11 12  2  0
 11 13  1  0
 13 14  1  0
 14 15  1  0
 15 16  2  0
 16 17  1  0
 17 18  1  0
 18 19  2  0
 19 20  1  0
 20 21  2  0
 21 22  1  0
 22 23  1  0
 21 24  1  0
 24 25  2  0
 17 26  2  0
 26 27  1  0
 27 28  1  0
 28 29  2  0
 29 30  1  0
 30 31  2  0
 31 32  1  0
 32 33  1  0
 31 34  1  0
 34 35  2  0
 27 36  2  0
 36 37  1  0
 37 38  1  0
  9 39  1  0
 39 40  2  0
 40  6  1  0
 37 13  2  0
 36 15  1  0
 25 18  1  0
 35 28  1  0
  1 41  1  0
  1 42  1  0
  1 43  1  0
  2 44  1  0
  2 45  1  0
  7 46  1  0
  8 47  1  0
 10 48  1  0
 19 49  1  0
 20 50  1  0
 23 51  1  0
 23 52  1  0
 23 53  1  0
 24 54  1  0
 25 55  1  0
 26 56  1  0
 29 57  1  0
 30 58  1  0
 33 59  1  0
 33 60  1  0
 33 61  1  0
 34 62  1  0
 35 63  1  0
 38 64  1  0
 38 65  1  0
 39 66  1  0
 40 67  1  0
M  END
>  <Binding energies>  (1) 
[-6.32]

>  <Ligand effiencies>  (1) 
[-0.14697674418604653]

>  <Interactions>  (1) 
["V-B:TYR:539:CD2:9846, H-B:GLU:543:OE2:9882, V-A:PRO:482:CG:4327, V-A:PRO:482:CB:4326, V-A:LEU:475:CD1:4258, V-A:LEU:475:CD2:4259, V-B:GLU:543:CD:9880, V-A:SER:385:CB:3409, H-B:GLU:543:OE1:9881, V-A:ILE:369:CG2:3237, V-B:TYR:539:CE2:9848, H-A:GLU:543:OE2:4910, V-A:GLU:543:CD:4908, H-A:GLU:543:OE1:4909, V-A:TYR:539:CE1:4875, V-A:ALA:541:CB:4892, V-B:SER:385:CA:8379, V-A:TYR:539:CD1:4873, V-B:SER:385:CB:8381, V-A:GLU:543:CG:4907, V-B:ILE:369:CG2:8209, V-B:ARG:545:CZ:9898, V-B:LEU:475:CD2:9231, H-B:ARG:545:NE:9896, V-B:ARG:545:CD:9895, V-B:HIS:456:CE1:9042, V-B:ARG:545:CG:9894, V-A:LEU:475:CG:4257, H-B:HIS:456:ND1:9039, V-B:GLU:543:CB:9878, V-A:GLU:543:CB:4906, H-A:ARG:545:NH2:4928, V-B:GLU:543:C:9874, H-B:SER:385:OG:8382, V-B:HIS:383:CD2:8364, V-B:ARG:545:CA:9891"]

$$$$
8b_Ghoteimi_2023
     RDKit          3D

 54 58  0  0  0  0  0  0  0  0999 V2000
  124.0040  136.7130   58.7490 C   0  0  0  0  0  0  0  0  0  0  0  0
  124.8940  136.7410   59.8600 O   0  0  0  0  0  0  0  0  0  0  0  0
  125.5230  135.5730   60.2490 C   0  0  0  0  0  0  0  0  0  0  0  0
  124.7540  134.4120   60.2180 C   0  0  0  0  0  0  0  0  0  0  0  0
  125.3030  133.1900   60.5930 C   0  0  0  0  0  0  0  0  0  0  0  0
  126.6380  133.0970   61.0110 C   0  0  0  0  0  0  0  0  0  0  0  0
  127.2330  131.7860   61.4180 C   0  0  0  0  0  0  0  0  0  0  0  0
  126.8760  131.1550   62.6140 C   0  0  0  0  0  0  0  0  0  0  0  0
  127.4470  129.9290   62.9700 C   0  0  0  0  0  0  0  0  0  0  0  0
  127.0540  129.2910   64.2480 C   0  0  0  0  0  0  0  0  0  0  0  0
  125.7560  128.8090   64.4240 C   0  0  0  0  0  0  0  0  0  0  0  0
  125.3920  128.2010   65.6230 C   0  0  0  0  0  0  0  0  0  0  0  0
  126.3160  128.0690   66.6610 C   0  0  0  0  0  0  0  0  0  0  0  0
  125.8660  127.4510   67.8120 O   0  0  0  0  0  0  0  0  0  0  0  0
  126.7600  126.6270   68.5520 C   0  0  0  0  0  0  0  0  0  0  0  0
  127.6190  128.5580   66.4820 C   0  0  0  0  0  0  0  0  0  0  0  0
  127.9820  129.1650   65.2830 C   0  0  0  0  0  0  0  0  0  0  0  0
  128.3880  129.3460   62.0810 C   0  0  0  0  0  0  0  0  0  0  0  0
  129.1460  128.1220   62.1260 C   0  0  0  0  0  0  0  0  0  0  0  0
  129.0500  127.2380   63.1690 N   0  0  0  0  0  0  0  0  0  0  0  0
  129.9780  127.9280   61.0130 C   0  0  0  0  0  0  0  0  0  0  0  0
  130.8740  126.8050   60.7300 C   0  0  0  0  0  0  0  0  0  0  0  0
  130.8590  126.2490   59.6290 O   0  0  0  0  0  0  0  0  0  0  0  0
  131.6920  126.4420   61.7500 N   0  0  0  0  0  0  0  0  0  0  0  0
  132.6350  125.4230   61.7560 C   0  0  0  0  0  0  0  0  0  0  0  0
  132.8400  124.5690   60.6730 C   0  0  0  0  0  0  0  0  0  0  0  0
  133.8400  123.7130   61.0760 C   0  0  0  0  0  0  0  0  0  0  0  0
  134.2200  124.0370   62.3340 O   0  0  0  0  0  0  0  0  0  0  0  0
  133.4510  125.1240   62.7540 N   0  0  0  0  0  0  0  0  0  0  0  0
  129.8390  129.2670   59.8720 S   0  0  0  0  0  0  0  0  0  0  0  0
  128.6710  130.0750   60.8910 C   0  0  0  0  0  0  0  0  0  0  0  0
  128.1300  131.2450   60.5510 N   0  0  0  0  0  0  0  0  0  0  0  0
  127.4070  134.2690   61.0380 C   0  0  0  0  0  0  0  0  0  0  0  0
  126.8600  135.4940   60.6640 C   0  0  0  0  0  0  0  0  0  0  0  0
  122.9660  136.6803   59.1115 H   0  0  0  0  0  0  0  0  0  0  0  0
  124.1510  137.6162   58.1386 H   0  0  0  0  0  0  0  0  0  0  0  0
  124.2075  135.8208   58.1386 H   0  0  0  0  0  0  0  0  0  0  0  0
  123.7039  134.4618   59.8943 H   0  0  0  0  0  0  0  0  0  0  0  0
  124.6806  132.2836   60.5611 H   0  0  0  0  0  0  0  0  0  0  0  0
  126.1395  131.6273   63.2807 H   0  0  0  0  0  0  0  0  0  0  0  0
  125.0188  128.9096   63.6138 H   0  0  0  0  0  0  0  0  0  0  0  0
  124.3677  127.8216   65.7531 H   0  0  0  0  0  0  0  0  0  0  0  0
  126.5938  126.7802   69.6285 H   0  0  0  0  0  0  0  0  0  0  0  0
  126.5798  125.5716   68.2997 H   0  0  0  0  0  0  0  0  0  0  0  0
  127.7973  126.8924   68.2997 H   0  0  0  0  0  0  0  0  0  0  0  0
  128.3565  128.4613   67.2924 H   0  0  0  0  0  0  0  0  0  0  0  0
  129.0050  129.5471   65.1506 H   0  0  0  0  0  0  0  0  0  0  0  0
  128.1580  127.0120   63.5880 H   0  0  0  0  0  0  0  0  0  0  0  0
  129.8650  126.7830   63.5580 H   0  0  0  0  0  0  0  0  0  0  0  0
  131.6170  126.9690   62.6070 H   0  0  0  0  0  0  0  0  0  0  0  0
  132.3160  124.5774   59.7058 H   0  0  0  0  0  0  0  0  0  0  0  0
  134.2626  122.8964   60.4722 H   0  0  0  0  0  0  0  0  0  0  0  0
  128.4579  134.2203   61.3593 H   0  0  0  0  0  0  0  0  0  0  0  0
  127.4791  136.4028   60.6943 H   0  0  0  0  0  0  0  0  0  0  0  0
  1  2  1  0
  2  3  1  0
  3  4  2  0
  4  5  1  0
  5  6  2  0
  6  7  1  0
  7  8  2  0
  8  9  1  0
  9 10  1  0
 10 11  2  0
 11 12  1  0
 12 13  2  0
 13 14  1  0
 14 15  1  0
 13 16  1  0
 16 17  2  0
  9 18  2  0
 18 19  1  0
 19 20  1  0
 19 21  2  0
 21 22  1  0
 22 23  2  0
 22 24  1  0
 24 25  1  0
 25 26  1  0
 26 27  2  0
 27 28  1  0
 28 29  1  0
 21 30  1  0
 30 31  1  0
 31 32  2  0
  6 33  1  0
 33 34  2  0
 34  3  1  0
 32  7  1  0
 17 10  1  0
 31 18  1  0
 29 25  2  0
  1 35  1  0
  1 36  1  0
  1 37  1  0
  4 38  1  0
  5 39  1  0
  8 40  1  0
 11 41  1  0
 12 42  1  0
 15 43  1  0
 15 44  1  0
 15 45  1  0
 16 46  1  0
 17 47  1  0
 20 48  1  0
 20 49  1  0
 24 50  1  0
 26 51  1  0
 27 52  1  0
 33 53  1  0
 34 54  1  0
M  END
>  <Binding energies>  (1) 
[-6.97]

>  <Ligand effiencies>  (1) 
[-0.18837837837837837]

>  <Interactions>  (1) 
["H-B:GLU:543:OE2:9882, V-B:GLU:543:CD:9880, H-B:GLU:543:OE1:9881, H-A:GLU:543:OE2:4910, V-A:GLU:543:CD:4908, H-A:GLU:543:OE1:4909, V-A:ARG:545:CZ:4926, H-A:TYR:484:OH:4348, V-A:TYR:539:CE1:4875, V-A:ALA:541:CB:4892, V-B:SER:385:CA:8379, V-A:TYR:539:CD1:4873, V-B:SER:385:CB:8381, V-A:GLU:543:CG:4907, V-B:ILE:369:CG2:8209, V-B:ARG:545:CZ:9898, V-B:LEU:475:CD2:9231, H-B:ARG:545:NE:9896, V-B:ARG:545:CD:9895, V-B:HIS:456:CE1:9042, V-B:ARG:545:CG:9894, V-A:ASP:366:CG:3213, V-A:ILE:369:CD1:3239, H-B:HIS:456:ND1:9039, V-B:GLU:543:CB:9878, H-A:GLY:454:N:4050, V-A:GLU:543:CB:4906, H-A:ARG:545:NH2:4928, V-B:GLU:543:C:9874, H-B:SER:385:OG:8382, V-B:VAL:384:C:8369, V-B:HIS:383:CD2:8364, V-B:ARG:545:CA:9891"]

$$$$
8c_Ghoteimi_2023
     RDKit          3D

 54 58  0  0  0  0  0  0  0  0999 V2000
  123.7580  136.7440   58.4360 C   0  0  0  0  0  0  0  0  0  0  0  0
  124.4940  136.7490   59.6540 O   0  0  0  0  0  0  0  0  0  0  0  0
  125.1450  135.5970   60.0530 C   0  0  0  0  0  0  0  0  0  0  0  0
  124.4500  134.4000   59.8880 C   0  0  0  0  0  0  0  0  0  0  0  0
  125.0260  133.1910   60.2650 C   0  0  0  0  0  0  0  0  0  0  0  0
  126.3140  133.1470   60.8180 C   0  0  0  0  0  0  0  0  0  0  0  0
  126.9370  131.8500   61.2290 C   0  0  0  0  0  0  0  0  0  0  0  0
  126.6300  131.2380   62.4470 C   0  0  0  0  0  0  0  0  0  0  0  0
  127.2250  130.0240   62.8060 C   0  0  0  0  0  0  0  0  0  0  0  0
  126.8840  129.4060   64.1080 C   0  0  0  0  0  0  0  0  0  0  0  0
  125.5630  129.0510   64.3950 C   0  0  0  0  0  0  0  0  0  0  0  0
  125.2470  128.4620   65.6150 C   0  0  0  0  0  0  0  0  0  0  0  0
  126.2390  128.2220   66.5660 C   0  0  0  0  0  0  0  0  0  0  0  0
  125.8330  127.6310   67.7470 O   0  0  0  0  0  0  0  0  0  0  0  0
  126.6490  126.6260   68.3370 C   0  0  0  0  0  0  0  0  0  0  0  0
  127.5650  128.5830   66.2780 C   0  0  0  0  0  0  0  0  0  0  0  0
  127.8810  129.1720   65.0570 C   0  0  0  0  0  0  0  0  0  0  0  0
  128.1410  129.4340   61.8960 C   0  0  0  0  0  0  0  0  0  0  0  0
  128.9140  128.2210   61.9380 C   0  0  0  0  0  0  0  0  0  0  0  0
  128.8660  127.3550   63.0020 N   0  0  0  0  0  0  0  0  0  0  0  0
  129.7110  128.0140   60.8000 C   0  0  0  0  0  0  0  0  0  0  0  0
  130.6110  126.8960   60.5080 C   0  0  0  0  0  0  0  0  0  0  0  0
  130.5810  126.3340   59.4110 O   0  0  0  0  0  0  0  0  0  0  0  0
  131.4480  126.5450   61.5150 N   0  0  0  0  0  0  0  0  0  0  0  0
  132.3940  125.5300   61.4980 C   0  0  0  0  0  0  0  0  0  0  0  0
  133.0530  125.0220   62.5170 N   0  0  0  0  0  0  0  0  0  0  0  0
  133.8740  124.0650   62.1350 C   0  0  0  0  0  0  0  0  0  0  0  0
  133.8940  123.7780   60.7740 C   0  0  0  0  0  0  0  0  0  0  0  0
  132.7720  124.8260   59.9590 S   0  0  0  0  0  0  0  0  0  0  0  0
  129.5150  129.3270   59.6390 S   0  0  0  0  0  0  0  0  0  0  0  0
  128.3740  130.1430   60.6820 C   0  0  0  0  0  0  0  0  0  0  0  0
  127.8090  131.3010   60.3400 N   0  0  0  0  0  0  0  0  0  0  0  0
  127.0070  134.3540   60.9780 C   0  0  0  0  0  0  0  0  0  0  0  0
  126.4340  135.5660   60.6030 C   0  0  0  0  0  0  0  0  0  0  0  0
  122.6808  136.7367   58.6586 H   0  0  0  0  0  0  0  0  0  0  0  0
  124.0061  137.6439   57.8540 H   0  0  0  0  0  0  0  0  0  0  0  0
  124.0183  135.8476   57.8540 H   0  0  0  0  0  0  0  0  0  0  0  0
  123.4383  134.4114   59.4564 H   0  0  0  0  0  0  0  0  0  0  0  0
  124.4630  132.2561   60.1273 H   0  0  0  0  0  0  0  0  0  0  0  0
  125.9129  131.7159   63.1307 H   0  0  0  0  0  0  0  0  0  0  0  0
  124.7714  129.2378   63.6545 H   0  0  0  0  0  0  0  0  0  0  0  0
  124.2053  128.1829   65.8318 H   0  0  0  0  0  0  0  0  0  0  0  0
  126.5882  126.7009   69.4328 H   0  0  0  0  0  0  0  0  0  0  0  0
  126.2976  125.6339   68.0172 H   0  0  0  0  0  0  0  0  0  0  0  0
  127.6921  126.7662   68.0172 H   0  0  0  0  0  0  0  0  0  0  0  0
  128.3565  128.3998   67.0196 H   0  0  0  0  0  0  0  0  0  0  0  0
  128.9214  129.4545   64.8387 H   0  0  0  0  0  0  0  0  0  0  0  0
  129.7090  126.9680   63.4040 H   0  0  0  0  0  0  0  0  0  0  0  0
  127.9900  127.0730   63.4170 H   0  0  0  0  0  0  0  0  0  0  0  0
  131.3880  127.0750   62.3730 H   0  0  0  0  0  0  0  0  0  0  0  0
  134.5082  123.5232   62.8522 H   0  0  0  0  0  0  0  0  0  0  0  0
  134.5187  123.0118   60.2916 H   0  0  0  0  0  0  0  0  0  0  0  0
  128.0200  134.3438   61.4067 H   0  0  0  0  0  0  0  0  0  0  0  0
  126.9947  136.5026   60.7387 H   0  0  0  0  0  0  0  0  0  0  0  0
  1  2  1  0
  2  3  1  0
  3  4  2  0
  4  5  1  0
  5  6  2  0
  6  7  1  0
  7  8  2  0
  8  9  1  0
  9 10  1  0
 10 11  2  0
 11 12  1  0
 12 13  2  0
 13 14  1  0
 14 15  1  0
 13 16  1  0
 16 17  2  0
  9 18  2  0
 18 19  1  0
 19 20  1  0
 19 21  2  0
 21 22  1  0
 22 23  2  0
 22 24  1  0
 24 25  1  0
 25 26  2  0
 26 27  1  0
 27 28  2  0
 28 29  1  0
 21 30  1  0
 30 31  1  0
 31 32  2  0
  6 33  1  0
 33 34  2  0
 34  3  1  0
 32  7  1  0
 17 10  1  0
 31 18  1  0
 29 25  1  0
  1 35  1  0
  1 36  1  0
  1 37  1  0
  4 38  1  0
  5 39  1  0
  8 40  1  0
 11 41  1  0
 12 42  1  0
 15 43  1  0
 15 44  1  0
 15 45  1  0
 16 46  1  0
 17 47  1  0
 20 48  1  0
 20 49  1  0
 24 50  1  0
 27 51  1  0
 28 52  1  0
 33 53  1  0
 34 54  1  0
M  END
>  <Binding energies>  (1) 
[-6.23]

>  <Ligand effiencies>  (1) 
[-0.16837837837837838]

>  <Interactions>  (1) 
["V-B:GLU:543:CG:9879, H-B:GLU:543:OE2:9882, V-B:GLU:543:CD:9880, H-B:GLU:543:OE1:9881, V-A:ILE:369:CG2:3237, H-A:GLU:543:OE2:4910, V-A:GLU:543:CD:4908, H-A:GLU:543:OE1:4909, H-A:TYR:484:OH:4348, V-A:TYR:539:CE1:4875, V-B:SER:385:CA:8379, V-A:TYR:539:CD1:4873, V-B:SER:385:CB:8381, V-A:GLU:543:CG:4907, V-B:ILE:369:CG2:8209, V-B:ARG:545:CZ:9898, V-B:LEU:475:CD2:9231, H-B:ARG:545:NE:9896, V-B:ARG:545:CD:9895, V-B:HIS:456:CE1:9042, V-B:ARG:545:CG:9894, V-A:ASP:366:CG:3213, V-A:GLY:454:CA:4049, V-A:ILE:369:CD1:3239, V-A:GLY:453:CA:4044, V-A:GLY:453:C:4042, H-B:HIS:456:ND1:9039, V-B:GLU:543:CB:9878, V-A:ASP:366:CB:3212, H-A:ARG:545:NH2:4928, H-B:SER:385:OG:8382, V-B:VAL:384:C:8369, V-B:HIS:383:CD2:8364"]

$$$$
8d_Ghoteimi_2023
     RDKit          3D

 50 53  0  0  0  0  0  0  0  0999 V2000
  132.6760  131.2960   61.3860 C   0  0  0  0  0  0  0  0  0  0  0  0
  131.5610  131.8830   60.7300 O   0  0  0  0  0  0  0  0  0  0  0  0
  130.8710  131.1980   59.7810 C   0  0  0  0  0  0  0  0  0  0  0  0
  130.6640  131.6170   58.6400 O   0  0  0  0  0  0  0  0  0  0  0  0
  130.3880  129.8830   60.2580 C   0  0  0  0  0  0  0  0  0  0  0  0
  131.2070  128.4060   59.7450 S   0  0  0  0  0  0  0  0  0  0  0  0
  130.0980  127.4230   60.6740 C   0  0  0  0  0  0  0  0  0  0  0  0
  130.1930  126.0940   60.7040 N   0  0  0  0  0  0  0  0  0  0  0  0
  129.2800  125.4250   61.4600 C   0  0  0  0  0  0  0  0  0  0  0  0
  129.4060  123.9350   61.4740 C   0  0  0  0  0  0  0  0  0  0  0  0
  128.2980  123.1160   61.7330 C   0  0  0  0  0  0  0  0  0  0  0  0
  128.4210  121.7300   61.7450 C   0  0  0  0  0  0  0  0  0  0  0  0
  129.6530  121.1250   61.4990 C   0  0  0  0  0  0  0  0  0  0  0  0
  129.6810  119.7450   61.5310 O   0  0  0  0  0  0  0  0  0  0  0  0
  130.5370  119.0470   60.6320 C   0  0  0  0  0  0  0  0  0  0  0  0
  130.7680  121.9340   61.2370 C   0  0  0  0  0  0  0  0  0  0  0  0
  130.6400  123.3210   61.2250 C   0  0  0  0  0  0  0  0  0  0  0  0
  128.2750  126.0850   62.1730 C   0  0  0  0  0  0  0  0  0  0  0  0
  128.1780  127.4800   62.1430 C   0  0  0  0  0  0  0  0  0  0  0  0
  127.1070  128.1500   62.9170 C   0  0  0  0  0  0  0  0  0  0  0  0
  127.2320  128.3070   64.2990 C   0  0  0  0  0  0  0  0  0  0  0  0
  126.2220  128.9290   65.0270 C   0  0  0  0  0  0  0  0  0  0  0  0
  125.0770  129.4060   64.3870 C   0  0  0  0  0  0  0  0  0  0  0  0
  124.1280  130.0080   65.1900 O   0  0  0  0  0  0  0  0  0  0  0  0
  124.0250  129.6190   66.5540 C   0  0  0  0  0  0  0  0  0  0  0  0
  124.9560  129.2510   62.9960 C   0  0  0  0  0  0  0  0  0  0  0  0
  125.9670  128.6280   62.2700 C   0  0  0  0  0  0  0  0  0  0  0  0
  129.1220  128.1980   61.3630 C   0  0  0  0  0  0  0  0  0  0  0  0
  129.3120  129.5990   61.1070 C   0  0  0  0  0  0  0  0  0  0  0  0
  128.5020  130.5660   61.6470 N   0  0  0  0  0  0  0  0  0  0  0  0
  132.5400  131.3676   62.4752 H   0  0  0  0  0  0  0  0  0  0  0  0
  132.7573  130.2382   61.0954 H   0  0  0  0  0  0  0  0  0  0  0  0
  133.5941  131.8277   61.0954 H   0  0  0  0  0  0  0  0  0  0  0  0
  127.3180  123.5753   61.9294 H   0  0  0  0  0  0  0  0  0  0  0  0
  127.5386  121.1061   61.9504 H   0  0  0  0  0  0  0  0  0  0  0  0
  131.2648  118.4536   61.2049 H   0  0  0  0  0  0  0  0  0  0  0  0
  129.9361  118.3781   59.9984 H   0  0  0  0  0  0  0  0  0  0  0  0
  131.0713  119.7702   59.9984 H   0  0  0  0  0  0  0  0  0  0  0  0
  131.7467  121.4719   61.0404 H   0  0  0  0  0  0  0  0  0  0  0  0
  131.5222  123.9441   61.0166 H   0  0  0  0  0  0  0  0  0  0  0  0
  127.5533  125.5015   62.7635 H   0  0  0  0  0  0  0  0  0  0  0  0
  128.1314  127.9380   64.8137 H   0  0  0  0  0  0  0  0  0  0  0  0
  126.3270  129.0456   66.1157 H   0  0  0  0  0  0  0  0  0  0  0  0
  124.2530  130.4803   67.1991 H   0  0  0  0  0  0  0  0  0  0  0  0
  123.0029  129.2678   66.7590 H   0  0  0  0  0  0  0  0  0  0  0  0
  124.7394  128.8080   66.7590 H   0  0  0  0  0  0  0  0  0  0  0  0
  124.0593  129.6232   62.4789 H   0  0  0  0  0  0  0  0  0  0  0  0
  125.8667  128.5119   61.1807 H   0  0  0  0  0  0  0  0  0  0  0  0
  127.7660  130.9990   61.1070 H   0  0  0  0  0  0  0  0  0  0  0  0
  128.6090  130.8740   62.6030 H   0  0  0  0  0  0  0  0  0  0  0  0
  1  2  1  0
  2  3  1  0
  3  4  2  0
  3  5  1  0
  5  6  1  0
  6  7  1  0
  7  8  2  0
  8  9  1  0
  9 10  1  0
 10 11  2  0
 11 12  1  0
 12 13  2  0
 13 14  1  0
 14 15  1  0
 13 16  1  0
 16 17  2  0
  9 18  2  0
 18 19  1  0
 19 20  1  0
 20 21  2  0
 21 22  1  0
 22 23  2  0
 23 24  1  0
 24 25  1  0
 23 26  1  0
 26 27  2  0
 19 28  2  0
 28 29  1  0
 29 30  1  0
 29  5  2  0
 28  7  1  0
 17 10  1  0
 27 20  1  0
  1 31  1  0
  1 32  1  0
  1 33  1  0
 11 34  1  0
 12 35  1  0
 15 36  1  0
 15 37  1  0
 15 38  1  0
 16 39  1  0
 17 40  1  0
 18 41  1  0
 21 42  1  0
 22 43  1  0
 25 44  1  0
 25 45  1  0
 25 46  1  0
 26 47  1  0
 27 48  1  0
 30 49  1  0
 30 50  1  0
M  END
>  <Binding energies>  (1) 
[-6.14]

>  <Ligand effiencies>  (1) 
[-0.191875]

>  <Interactions>  (1) 
["V-B:ALA:541:CB:9864, V-B:TYR:539:CD2:9846, V-B:TYR:539:C:9839, V-A:LEU:475:CD2:4259, V-B:GLU:543:CD:9880, V-B:PRO:540:C:9853, V-B:ALA:541:CA:9862, V-B:PRO:540:CA:9855, H-A:GLU:543:OE1:4909, V-A:PRO:540:CA:4883, V-B:ARG:545:CZ:9898, H-A:ALA:541:N:4891, H-B:GLY:454:N:9022, H-B:TYR:484:OH:9320, V-A:ASN:362:CB:3176, V-B:ARG:545:CD:9895, V-B:HIS:456:CE1:9042, V-B:ARG:545:CG:9894, V-A:PRO:540:CB:4885, V-A:ASP:366:CG:3213, V-B:TYR:484:CE1:9317, V-B:TYR:484:CZ:9319"]

$$$$
9a_Ghoteimi_2023
     RDKit          3D

 85 91  0  0  0  0  0  0  0  0999 V2000
  133.5610  124.5700   75.3720 C   0  0  0  0  0  0  0  0  0  0  0  0
  132.0490  124.8160   75.4190 C   0  0  0  0  0  0  0  0  0  0  0  0
  131.8000  126.1540   75.8350 O   0  0  0  0  0  0  0  0  0  0  0  0
  132.3650  127.2060   75.1890 C   0  0  0  0  0  0  0  0  0  0  0  0
  133.3000  127.8660   75.6530 O   0  0  0  0  0  0  0  0  0  0  0  0
  131.7360  127.4920   73.8560 C   0  0  0  0  0  0  0  0  0  0  0  0
  132.3910  127.0830   72.6870 C   0  0  0  0  0  0  0  0  0  0  0  0
  131.8350  127.3360   71.4370 C   0  0  0  0  0  0  0  0  0  0  0  0
  130.6130  128.0000   71.3270 C   0  0  0  0  0  0  0  0  0  0  0  0
  130.1460  128.2010   70.0140 N   0  0  0  0  0  0  0  0  0  0  0  0
  129.3520  127.4250   69.2350 C   0  0  0  0  0  0  0  0  0  0  0  0
  128.8800  126.3440   69.5880 O   0  0  0  0  0  0  0  0  0  0  0  0
  129.0650  127.9620   67.9020 C   0  0  0  0  0  0  0  0  0  0  0  0
  128.2440  129.5140   67.7250 S   0  0  0  0  0  0  0  0  0  0  0  0
  128.3150  129.4040   65.9820 C   0  0  0  0  0  0  0  0  0  0  0  0
  127.8340  130.3710   65.2010 N   0  0  0  0  0  0  0  0  0  0  0  0
  127.9490  130.1930   63.8580 C   0  0  0  0  0  0  0  0  0  0  0  0
  127.4120  131.2940   63.0020 C   0  0  0  0  0  0  0  0  0  0  0  0
  127.9940  132.5660   63.0320 C   0  0  0  0  0  0  0  0  0  0  0  0
  127.5010  133.5970   62.2370 C   0  0  0  0  0  0  0  0  0  0  0  0
  126.4150  133.3910   61.3710 C   0  0  0  0  0  0  0  0  0  0  0  0
  125.8970  134.4220   60.5810 N   0  0  0  0  0  0  0  0  0  0  0  0
  124.4600  134.4890   60.2450 C   0  0  0  0  0  0  0  0  0  0  0  0
  124.1350  135.4610   59.0910 C   0  0  0  0  0  0  0  0  0  0  0  0
  124.6520  136.7500   59.3800 O   0  0  0  0  0  0  0  0  0  0  0  0
  126.0610  136.7210   59.5420 C   0  0  0  0  0  0  0  0  0  0  0  0
  126.4380  135.7910   60.7130 C   0  0  0  0  0  0  0  0  0  0  0  0
  125.8260  132.1180   61.3560 C   0  0  0  0  0  0  0  0  0  0  0  0
  126.3180  131.0890   62.1530 C   0  0  0  0  0  0  0  0  0  0  0  0
  128.5170  129.0440   63.3040 C   0  0  0  0  0  0  0  0  0  0  0  0
  129.0060  128.0180   64.1200 C   0  0  0  0  0  0  0  0  0  0  0  0
  129.5670  126.8020   63.4790 C   0  0  0  0  0  0  0  0  0  0  0  0
  130.8290  126.3240   63.8410 C   0  0  0  0  0  0  0  0  0  0  0  0
  131.3470  125.1770   63.2480 C   0  0  0  0  0  0  0  0  0  0  0  0
  130.6090  124.4640   62.2900 C   0  0  0  0  0  0  0  0  0  0  0  0
  131.1130  123.3160   61.6740 N   0  0  0  0  0  0  0  0  0  0  0  0
  132.3560  123.4100   60.8830 C   0  0  0  0  0  0  0  0  0  0  0  0
  132.9970  122.0380   60.5860 C   0  0  0  0  0  0  0  0  0  0  0  0
  132.0550  121.1890   59.9500 O   0  0  0  0  0  0  0  0  0  0  0  0
  130.9120  120.9700   60.7620 C   0  0  0  0  0  0  0  0  0  0  0  0
  130.2150  122.3150   61.0640 C   0  0  0  0  0  0  0  0  0  0  0  0
  129.3420  124.9500   61.9370 C   0  0  0  0  0  0  0  0  0  0  0  0
  128.8260  126.1000   62.5260 C   0  0  0  0  0  0  0  0  0  0  0  0
  128.9280  128.1990   65.5310 C   0  0  0  0  0  0  0  0  0  0  0  0
  129.3690  127.4040   66.6510 C   0  0  0  0  0  0  0  0  0  0  0  0
  130.0380  126.2170   66.4950 N   0  0  0  0  0  0  0  0  0  0  0  0
  129.9470  128.4100   72.4930 C   0  0  0  0  0  0  0  0  0  0  0  0
  130.5050  128.1570   73.7430 C   0  0  0  0  0  0  0  0  0  0  0  0
  133.9541  124.5060   76.3974 H   0  0  0  0  0  0  0  0  0  0  0  0
  133.7628  123.6272   74.8425 H   0  0  0  0  0  0  0  0  0  0  0  0
  134.0513  125.4002   74.8425 H   0  0  0  0  0  0  0  0  0  0  0  0
  131.6201  124.6570   74.4186 H   0  0  0  0  0  0  0  0  0  0  0  0
  131.5853  124.1177   76.1313 H   0  0  0  0  0  0  0  0  0  0  0  0
  133.3543  126.5567   72.7582 H   0  0  0  0  0  0  0  0  0  0  0  0
  132.3629  127.0100   70.5286 H   0  0  0  0  0  0  0  0  0  0  0  0
  130.4580  129.0650   69.5960 H   0  0  0  0  0  0  0  0  0  0  0  0
  128.8530  132.7540   63.6929 H   0  0  0  0  0  0  0  0  0  0  0  0
  127.9704  134.5905   62.2881 H   0  0  0  0  0  0  0  0  0  0  0  0
  124.1242  133.4823   59.9555 H   0  0  0  0  0  0  0  0  0  0  0  0
  123.9394  134.8659   61.1377 H   0  0  0  0  0  0  0  0  0  0  0  0
  124.5887  135.0869   58.1614 H   0  0  0  0  0  0  0  0  0  0  0  0
  123.0434  135.5286   58.9735 H   0  0  0  0  0  0  0  0  0  0  0  0
  126.5265  136.3494   58.6172 H   0  0  0  0  0  0  0  0  0  0  0  0
  126.4207  137.7378   59.7581 H   0  0  0  0  0  0  0  0  0  0  0  0
  127.5348  135.7275   60.7670 H   0  0  0  0  0  0  0  0  0  0  0  0
  125.9979  136.2247   61.6231 H   0  0  0  0  0  0  0  0  0  0  0  0
  124.9607  131.9301   60.7033 H   0  0  0  0  0  0  0  0  0  0  0  0
  125.8399  130.0991   62.1154 H   0  0  0  0  0  0  0  0  0  0  0  0
  128.5809  128.9440   62.2104 H   0  0  0  0  0  0  0  0  0  0  0  0
  131.4177  126.8588   64.6009 H   0  0  0  0  0  0  0  0  0  0  0  0
  132.3488  124.8239   63.5338 H   0  0  0  0  0  0  0  0  0  0  0  0
  132.1246  123.9014   59.9265 H   0  0  0  0  0  0  0  0  0  0  0  0
  133.0792  123.9845   61.4805 H   0  0  0  0  0  0  0  0  0  0  0  0
  133.8657  122.1772   59.9257 H   0  0  0  0  0  0  0  0  0  0  0  0
  133.3171  121.5770   61.5321 H   0  0  0  0  0  0  0  0  0  0  0  0
  130.2112  120.3067   60.2338 H   0  0  0  0  0  0  0  0  0  0  0  0
  131.2243  120.5039   61.7082 H   0  0  0  0  0  0  0  0  0  0  0  0
  129.8248  122.7252   60.1209 H   0  0  0  0  0  0  0  0  0  0  0  0
  129.4148  122.1105   61.7906 H   0  0  0  0  0  0  0  0  0  0  0  0
  128.7470  124.4139   61.1830 H   0  0  0  0  0  0  0  0  0  0  0  0
  127.8267  126.4590   62.2388 H   0  0  0  0  0  0  0  0  0  0  0  0
  129.5520  125.3320   66.4650 H   0  0  0  0  0  0  0  0  0  0  0  0
  131.0440  126.1890   66.4060 H   0  0  0  0  0  0  0  0  0  0  0  0
  128.9819  128.9325   72.4186 H   0  0  0  0  0  0  0  0  0  0  0  0
  129.9760  128.4814   74.6512 H   0  0  0  0  0  0  0  0  0  0  0  0
  1  2  1  0
  2  3  1  0
  3  4  1  0
  4  5  2  0
  4  6  1  0
  6  7  2  0
  7  8  1  0
  8  9  2  0
  9 10  1  0
 10 11  1  0
 11 12  2  0
 11 13  1  0
 13 14  1  0
 14 15  1  0
 15 16  2  0
 16 17  1  0
 17 18  1  0
 18 19  2  0
 19 20  1  0
 20 21  2  0
 21 22  1  0
 22 23  1  0
 23 24  1  0
 24 25  1  0
 25 26  1  0
 26 27  1  0
 21 28  1  0
 28 29  2  0
 17 30  2  0
 30 31  1  0
 31 32  1  0
 32 33  2  0
 33 34  1  0
 34 35  2  0
 35 36  1  0
 36 37  1  0
 37 38  1  0
 38 39  1  0
 39 40  1  0
 40 41  1  0
 35 42  1  0
 42 43  2  0
 31 44  2  0
 44 45  1  0
 45 46  1  0
  9 47  1  0
 47 48  2  0
 48  6  1  0
 45 13  2  0
 44 15  1  0
 29 18  1  0
 43 32  1  0
 27 22  1  0
 41 36  1  0
  1 49  1  0
  1 50  1  0
  1 51  1  0
  2 52  1  0
  2 53  1  0
  7 54  1  0
  8 55  1  0
 10 56  1  0
 19 57  1  0
 20 58  1  0
 23 59  1  0
 23 60  1  0
 24 61  1  0
 24 62  1  0
 26 63  1  0
 26 64  1  0
 27 65  1  0
 27 66  1  0
 28 67  1  0
 29 68  1  0
 30 69  1  0
 33 70  1  0
 34 71  1  0
 37 72  1  0
 37 73  1  0
 38 74  1  0
 38 75  1  0
 40 76  1  0
 40 77  1  0
 41 78  1  0
 41 79  1  0
 42 80  1  0
 43 81  1  0
 46 82  1  0
 46 83  1  0
 47 84  1  0
 48 85  1  0
M  END
>  <Binding energies>  (1) 
[-1.5]

>  <Ligand effiencies>  (1) 
[-0.029411764705882353]

>  <Interactions>  (1) 
["V-B:TYR:539:CD2:9846, V-A:TYR:484:CZ:4347, H-B:GLU:543:OE2:9882, V-A:LEU:475:CD2:4259, V-B:GLU:543:CD:9880, V-A:ILE:369:CG2:3237, V-B:TYR:539:CE2:9848, H-A:GLU:543:OE2:4910, V-A:GLU:543:CD:4908, H-A:TYR:484:OH:4348, V-A:TYR:539:CE1:4875, V-A:ALA:541:CB:4892, V-B:SER:385:CA:8379, V-A:TYR:539:CD1:4873, V-A:GLU:543:CG:4907, V-B:ILE:369:CG2:8209, V-B:LEU:475:CD2:9231, H-B:TYR:484:OH:9320, V-B:HIS:456:CE1:9042, V-A:VAL:458:CG2:4087, V-B:HIS:456:CD2:9040, V-A:LYS:547:CE:4950, V-A:HIS:456:CB:4065, V-A:HIS:456:CD2:4068, V-A:HIS:456:C:4061, V-A:LYS:471:CD:4219, V-A:HIS:456:CG:4066, V-A:GLY:544:C:4912, V-A:LYS:547:CD:4949, V-B:TYR:484:CZ:9319, V-A:TYR:484:CE2:4346, V-A:HIS:456:CE1:4070, V-A:GLU:543:CB:4906, V-B:TYR:484:CE2:9318, V-A:GLU:543:CA:4904, V-A:GLU:543:C:4902, V-A:GLY:544:CA:4914, H-B:SER:385:OG:8382, V-A:TYR:539:CB:4871, H-B:HIS:456:NE2:9043, V-A:ARG:545:CA:4919, V-A:TYR:539:CG:4872, H-A:GLU:543:O:4903"]

$$$$
9b_Ghoteimi_2023
     RDKit          3D

 72 78  0  0  0  0  0  0  0  0999 V2000
  128.8000  127.7260   61.4680 N   0  0  0  0  0  0  0  0  0  0  0  0
  129.4460  127.0490   62.4720 C   0  0  0  0  0  0  0  0  0  0  0  0
  130.2830  125.9450   62.2460 C   0  0  0  0  0  0  0  0  0  0  0  0
  130.6530  125.3250   60.9720 C   0  0  0  0  0  0  0  0  0  0  0  0
  129.8330  124.6580   60.3350 O   0  0  0  0  0  0  0  0  0  0  0  0
  131.9310  125.5350   60.5710 N   0  0  0  0  0  0  0  0  0  0  0  0
  132.5470  125.0590   59.4200 C   0  0  0  0  0  0  0  0  0  0  0  0
  132.1830  125.4670   58.1380 C   0  0  0  0  0  0  0  0  0  0  0  0
  133.0210  124.7780   57.2920 C   0  0  0  0  0  0  0  0  0  0  0  0
  133.8460  123.9950   58.0270 O   0  0  0  0  0  0  0  0  0  0  0  0
  133.5360  124.1820   59.3740 N   0  0  0  0  0  0  0  0  0  0  0  0
  130.9160  125.3050   63.7620 S   0  0  0  0  0  0  0  0  0  0  0  0
  130.0440  126.5040   64.6860 C   0  0  0  0  0  0  0  0  0  0  0  0
  130.0950  126.5340   66.0170 N   0  0  0  0  0  0  0  0  0  0  0  0
  129.3660  127.4960   66.6410 C   0  0  0  0  0  0  0  0  0  0  0  0
  129.4240  127.4940   68.1340 C   0  0  0  0  0  0  0  0  0  0  0  0
  128.4390  126.8540   68.8960 C   0  0  0  0  0  0  0  0  0  0  0  0
  128.4910  126.8680   70.2870 C   0  0  0  0  0  0  0  0  0  0  0  0
  129.5220  127.5340   70.9670 C   0  0  0  0  0  0  0  0  0  0  0  0
  129.5890  127.5540   72.3650 N   0  0  0  0  0  0  0  0  0  0  0  0
  128.7030  128.4240   73.1650 C   0  0  0  0  0  0  0  0  0  0  0  0
  128.6700  128.0680   74.6660 C   0  0  0  0  0  0  0  0  0  0  0  0
  129.9870  128.0630   75.1920 O   0  0  0  0  0  0  0  0  0  0  0  0
  130.8040  127.1050   74.5400 C   0  0  0  0  0  0  0  0  0  0  0  0
  130.9010  127.4270   73.0330 C   0  0  0  0  0  0  0  0  0  0  0  0
  130.5160  128.1560   70.1980 C   0  0  0  0  0  0  0  0  0  0  0  0
  130.4670  128.1390   68.8070 C   0  0  0  0  0  0  0  0  0  0  0  0
  128.6120  128.4370   65.9350 C   0  0  0  0  0  0  0  0  0  0  0  0
  128.5720  128.4220   64.5360 C   0  0  0  0  0  0  0  0  0  0  0  0
  127.7810  129.4630   63.8320 C   0  0  0  0  0  0  0  0  0  0  0  0
  126.3900  129.3680   63.7670 C   0  0  0  0  0  0  0  0  0  0  0  0
  125.6440  130.3510   63.1250 C   0  0  0  0  0  0  0  0  0  0  0  0
  126.2690  131.4580   62.5290 C   0  0  0  0  0  0  0  0  0  0  0  0
  125.5390  132.4650   61.8930 N   0  0  0  0  0  0  0  0  0  0  0  0
  126.2200  133.3540   60.9320 C   0  0  0  0  0  0  0  0  0  0  0  0
  125.4210  134.6380   60.6200 C   0  0  0  0  0  0  0  0  0  0  0  0
  124.1220  134.3000   60.1570 O   0  0  0  0  0  0  0  0  0  0  0  0
  123.3970  133.5550   61.1240 C   0  0  0  0  0  0  0  0  0  0  0  0
  124.1460  132.2460   61.4530 C   0  0  0  0  0  0  0  0  0  0  0  0
  127.6660  131.5530   62.6170 C   0  0  0  0  0  0  0  0  0  0  0  0
  128.4120  130.5690   63.2590 C   0  0  0  0  0  0  0  0  0  0  0  0
  129.3010  127.4020   63.8630 C   0  0  0  0  0  0  0  0  0  0  0  0
  129.2430  128.4840   60.9670 H   0  0  0  0  0  0  0  0  0  0  0  0
  127.8570  127.4890   61.1950 H   0  0  0  0  0  0  0  0  0  0  0  0
  132.5110  126.1050   61.1680 H   0  0  0  0  0  0  0  0  0  0  0  0
  131.3961  126.1845   57.8623 H   0  0  0  0  0  0  0  0  0  0  0  0
  133.0209  124.8514   56.1944 H   0  0  0  0  0  0  0  0  0  0  0  0
  127.6133  126.3334   68.3889 H   0  0  0  0  0  0  0  0  0  0  0  0
  127.7109  126.3483   70.8627 H   0  0  0  0  0  0  0  0  0  0  0  0
  129.0518  129.4622   73.0625 H   0  0  0  0  0  0  0  0  0  0  0  0
  127.6824  128.2825   72.7798 H   0  0  0  0  0  0  0  0  0  0  0  0
  128.0656  128.8132   75.2040 H   0  0  0  0  0  0  0  0  0  0  0  0
  128.2274  127.0687   74.7906 H   0  0  0  0  0  0  0  0  0  0  0  0
  131.8112  127.1250   74.9818 H   0  0  0  0  0  0  0  0  0  0  0  0
  130.3591  126.1070   74.6667 H   0  0  0  0  0  0  0  0  0  0  0  0
  131.4435  128.3767   72.9154 H   0  0  0  0  0  0  0  0  0  0  0  0
  131.4223  126.5830   72.5578 H   0  0  0  0  0  0  0  0  0  0  0  0
  131.3493  128.6665   70.7030 H   0  0  0  0  0  0  0  0  0  0  0  0
  131.2585  128.6391   68.2296 H   0  0  0  0  0  0  0  0  0  0  0  0
  128.0423  129.1997   66.4860 H   0  0  0  0  0  0  0  0  0  0  0  0
  125.8796  128.5090   64.2271 H   0  0  0  0  0  0  0  0  0  0  0  0
  124.5486  130.2597   63.0837 H   0  0  0  0  0  0  0  0  0  0  0  0
  127.1948  133.6422   61.3525 H   0  0  0  0  0  0  0  0  0  0  0  0
  126.3252  132.7971   59.9892 H   0  0  0  0  0  0  0  0  0  0  0  0
  125.3359  135.2452   61.5332 H   0  0  0  0  0  0  0  0  0  0  0  0
  125.9454  135.2096   59.8401 H   0  0  0  0  0  0  0  0  0  0  0  0
  123.2907  134.1540   62.0405 H   0  0  0  0  0  0  0  0  0  0  0  0
  122.4033  133.3105   60.7205 H   0  0  0  0  0  0  0  0  0  0  0  0
  123.6037  131.7258   62.2564 H   0  0  0  0  0  0  0  0  0  0  0  0
  124.1859  131.6520   60.5280 H   0  0  0  0  0  0  0  0  0  0  0  0
  128.1793  132.4181   62.1719 H   0  0  0  0  0  0  0  0  0  0  0  0
  129.5065  130.6632   63.3154 H   0  0  0  0  0  0  0  0  0  0  0  0
  1  2  1  0
  2  3  2  0
  3  4  1  0
  4  5  2  0
  4  6  1  0
  6  7  1  0
  7  8  1  0
  8  9  2  0
  9 10  1  0
 10 11  1  0
  3 12  1  0
 12 13  1  0
 13 14  2  0
 14 15  1  0
 15 16  1  0
 16 17  2  0
 17 18  1  0
 18 19  2  0
 19 20  1  0
 20 21  1  0
 21 22  1  0
 22 23  1  0
 23 24  1  0
 24 25  1  0
 19 26  1  0
 26 27  2  0
 15 28  2  0
 28 29  1  0
 29 30  1  0
 30 31  2  0
 31 32  1  0
 32 33  2  0
 33 34  1  0
 34 35  1  0
 35 36  1  0
 36 37  1  0
 37 38  1  0
 38 39  1  0
 33 40  1  0
 40 41  2  0
 29 42  2  0
 42  2  1  0
 11  7  2  0
 42 13  1  0
 27 16  1  0
 41 30  1  0
 25 20  1  0
 39 34  1  0
  1 43  1  0
  1 44  1  0
  6 45  1  0
  8 46  1  0
  9 47  1  0
 17 48  1  0
 18 49  1  0
 21 50  1  0
 21 51  1  0
 22 52  1  0
 22 53  1  0
 24 54  1  0
 24 55  1  0
 25 56  1  0
 25 57  1  0
 26 58  1  0
 27 59  1  0
 28 60  1  0
 31 61  1  0
 32 62  1  0
 35 63  1  0
 35 64  1  0
 36 65  1  0
 36 66  1  0
 38 67  1  0
 38 68  1  0
 39 69  1  0
 39 70  1  0
 40 71  1  0
 41 72  1  0
M  END
>  <Binding energies>  (1) 
[-4.61]

>  <Ligand effiencies>  (1) 
[-0.10244444444444445]

>  <Interactions>  (1) 
["V-A:TYR:484:CZ:4347, V-B:GLU:543:CD:9880, V-B:TYR:539:CE2:9848, V-A:GLU:543:CD:4908, H-A:GLU:543:OE1:4909, V-B:SER:385:C:8377, V-B:ILE:369:CD1:8211, V-A:TYR:539:CE1:4875, V-B:SER:385:CA:8379, V-A:TYR:539:CD1:4873, V-A:GLU:543:CG:4907, V-B:ILE:369:CG2:8209, V-B:LEU:475:CD2:9231, V-B:HIS:456:CE1:9042, H-A:LYS:547:NZ:4951, V-B:HIS:456:CD2:9040, V-A:HIS:456:CD2:4068, V-A:HIS:456:CG:4066, V-A:GLY:544:C:4912, H-A:ASP:366:OD1:3214, V-A:ASP:366:CG:3213, V-B:GLU:543:CB:9878, H-A:ASP:366:OD2:3215, V-B:ILE:369:CG1:8210, V-B:ILE:369:CB:8208, V-A:ASP:366:CB:3212, V-A:HIS:456:CE1:4070, V-A:GLU:543:CB:4906, V-A:ASP:366:C:3208, V-A:ASP:366:CA:3210, H-B:TYR:539:OH:9850, V-A:GLU:543:C:4902, V-B:TYR:539:CZ:9849, V-A:GLY:544:CA:4914, H-B:SER:385:OG:8382"]

$$$$
9c_Ghoteimi_2023
     RDKit          3D

 72 78  0  0  0  0  0  0  0  0999 V2000
  128.5470  128.0200   61.6220 N   0  0  0  0  0  0  0  0  0  0  0  0
  129.1700  127.2990   62.6090 C   0  0  0  0  0  0  0  0  0  0  0  0
  129.9640  126.1700   62.3580 C   0  0  0  0  0  0  0  0  0  0  0  0
  130.3010  125.5580   61.0690 C   0  0  0  0  0  0  0  0  0  0  0  0
  129.4620  124.9110   60.4400 O   0  0  0  0  0  0  0  0  0  0  0  0
  131.5740  125.7550   60.6480 N   0  0  0  0  0  0  0  0  0  0  0  0
  132.1500  125.2760   59.4800 C   0  0  0  0  0  0  0  0  0  0  0  0
  131.8780  125.6260   58.2410 N   0  0  0  0  0  0  0  0  0  0  0  0
  132.6180  124.9600   57.3760 C   0  0  0  0  0  0  0  0  0  0  0  0
  133.5160  124.0410   57.9110 C   0  0  0  0  0  0  0  0  0  0  0  0
  133.3770  124.0600   59.6440 S   0  0  0  0  0  0  0  0  0  0  0  0
  130.5810  125.4780   63.8580 S   0  0  0  0  0  0  0  0  0  0  0  0
  129.7580  126.6910   64.8100 C   0  0  0  0  0  0  0  0  0  0  0  0
  129.8190  126.6940   66.1400 N   0  0  0  0  0  0  0  0  0  0  0  0
  129.1290  127.6700   66.7860 C   0  0  0  0  0  0  0  0  0  0  0  0
  129.1970  127.6380   68.2790 C   0  0  0  0  0  0  0  0  0  0  0  0
  128.3060  126.8600   69.0280 C   0  0  0  0  0  0  0  0  0  0  0  0
  128.3670  126.8400   70.4180 C   0  0  0  0  0  0  0  0  0  0  0  0
  129.3150  127.6090   71.1120 C   0  0  0  0  0  0  0  0  0  0  0  0
  129.3940  127.5950   72.5090 N   0  0  0  0  0  0  0  0  0  0  0  0
  128.5850  128.5150   73.3350 C   0  0  0  0  0  0  0  0  0  0  0  0
  128.5320  128.1290   74.8280 C   0  0  0  0  0  0  0  0  0  0  0  0
  129.8480  128.0100   75.3440 O   0  0  0  0  0  0  0  0  0  0  0  0
  130.5820  127.0040   74.6650 C   0  0  0  0  0  0  0  0  0  0  0  0
  130.6960  127.3500   73.1650 C   0  0  0  0  0  0  0  0  0  0  0  0
  130.2180  128.3710   70.3560 C   0  0  0  0  0  0  0  0  0  0  0  0
  130.1580  128.3870   68.9650 C   0  0  0  0  0  0  0  0  0  0  0  0
  128.4080  128.6530   66.1030 C   0  0  0  0  0  0  0  0  0  0  0  0
  128.3600  128.6660   64.7050 C   0  0  0  0  0  0  0  0  0  0  0  0
  127.6070  129.7490   64.0240 C   0  0  0  0  0  0  0  0  0  0  0  0
  128.2670  130.8960   63.5810 C   0  0  0  0  0  0  0  0  0  0  0  0
  127.5670  131.9060   62.9270 C   0  0  0  0  0  0  0  0  0  0  0  0
  126.1860  131.7960   62.7010 C   0  0  0  0  0  0  0  0  0  0  0  0
  125.4650  132.7930   62.0370 N   0  0  0  0  0  0  0  0  0  0  0  0
  126.1930  133.7970   61.2370 C   0  0  0  0  0  0  0  0  0  0  0  0
  125.3400  135.0370   60.8930 C   0  0  0  0  0  0  0  0  0  0  0  0
  124.1480  134.6390   60.2340 O   0  0  0  0  0  0  0  0  0  0  0  0
  123.3640  133.7770   61.0440 C   0  0  0  0  0  0  0  0  0  0  0  0
  124.1670  132.5060   61.3970 C   0  0  0  0  0  0  0  0  0  0  0  0
  125.5370  130.6300   63.1320 C   0  0  0  0  0  0  0  0  0  0  0  0
  126.2370  129.6190   63.7860 C   0  0  0  0  0  0  0  0  0  0  0  0
  129.0460  127.6310   64.0070 C   0  0  0  0  0  0  0  0  0  0  0  0
  128.9750  128.8350   61.2050 H   0  0  0  0  0  0  0  0  0  0  0  0
  127.6330  127.7600   61.2770 H   0  0  0  0  0  0  0  0  0  0  0  0
  132.1780  126.3100   61.2380 H   0  0  0  0  0  0  0  0  0  0  0  0
  132.5303  125.1219   56.2915 H   0  0  0  0  0  0  0  0  0  0  0  0
  134.2022  123.4059   57.3316 H   0  0  0  0  0  0  0  0  0  0  0  0
  127.5466  126.2557   68.5101 H   0  0  0  0  0  0  0  0  0  0  0  0
  127.6616  126.2120   70.9819 H   0  0  0  0  0  0  0  0  0  0  0  0
  129.0153  129.5240   73.2528 H   0  0  0  0  0  0  0  0  0  0  0  0
  127.5542  128.4643   72.9545 H   0  0  0  0  0  0  0  0  0  0  0  0
  127.9904  128.9066   75.3866 H   0  0  0  0  0  0  0  0  0  0  0  0
  128.0134  127.1648   74.9341 H   0  0  0  0  0  0  0  0  0  0  0  0
  131.5901  126.9336   75.0995 H   0  0  0  0  0  0  0  0  0  0  0  0
  130.0590  126.0424   74.7734 H   0  0  0  0  0  0  0  0  0  0  0  0
  131.3114  128.2561   73.0638 H   0  0  0  0  0  0  0  0  0  0  0  0
  131.1462  126.4780   72.6682 H   0  0  0  0  0  0  0  0  0  0  0  0
  130.9867  128.9661   70.8708 H   0  0  0  0  0  0  0  0  0  0  0  0
  130.8764  128.9972   68.3980 H   0  0  0  0  0  0  0  0  0  0  0  0
  127.8713  129.4265   66.6719 H   0  0  0  0  0  0  0  0  0  0  0  0
  129.3487  131.0028   63.7499 H   0  0  0  0  0  0  0  0  0  0  0  0
  128.1034  132.8025   62.5826 H   0  0  0  0  0  0  0  0  0  0  0  0
  127.0740  134.1263   61.8074 H   0  0  0  0  0  0  0  0  0  0  0  0
  126.4708  133.3180   60.2865 H   0  0  0  0  0  0  0  0  0  0  0  0
  125.0829  135.5707   61.8199 H   0  0  0  0  0  0  0  0  0  0  0  0
  125.9159  135.6983   60.2289 H   0  0  0  0  0  0  0  0  0  0  0  0
  123.0862  134.3010   61.9704 H   0  0  0  0  0  0  0  0  0  0  0  0
  122.4577  133.4887   60.4913 H   0  0  0  0  0  0  0  0  0  0  0  0
  123.5662  131.8938   62.0857 H   0  0  0  0  0  0  0  0  0  0  0  0
  124.3786  131.9825   60.4530 H   0  0  0  0  0  0  0  0  0  0  0  0
  124.4585  130.5120   62.9508 H   0  0  0  0  0  0  0  0  0  0  0  0
  125.7079  128.7132   64.1169 H   0  0  0  0  0  0  0  0  0  0  0  0
  1  2  1  0
  2  3  2  0
  3  4  1  0
  4  5  2  0
  4  6  1  0
  6  7  1  0
  7  8  2  0
  8  9  1  0
  9 10  2  0
 10 11  1  0
  3 12  1  0
 12 13  1  0
 13 14  2  0
 14 15  1  0
 15 16  1  0
 16 17  2  0
 17 18  1  0
 18 19  2  0
 19 20  1  0
 20 21  1  0
 21 22  1  0
 22 23  1  0
 23 24  1  0
 24 25  1  0
 19 26  1  0
 26 27  2  0
 15 28  2  0
 28 29  1  0
 29 30  1  0
 30 31  2  0
 31 32  1  0
 32 33  2  0
 33 34  1  0
 34 35  1  0
 35 36  1  0
 36 37  1  0
 37 38  1  0
 38 39  1  0
 33 40  1  0
 40 41  2  0
 29 42  2  0
 42  2  1  0
 11  7  1  0
 42 13  1  0
 27 16  1  0
 41 30  1  0
 25 20  1  0
 39 34  1  0
  1 43  1  0
  1 44  1  0
  6 45  1  0
  9 46  1  0
 10 47  1  0
 17 48  1  0
 18 49  1  0
 21 50  1  0
 21 51  1  0
 22 52  1  0
 22 53  1  0
 24 54  1  0
 24 55  1  0
 25 56  1  0
 25 57  1  0
 26 58  1  0
 27 59  1  0
 28 60  1  0
 31 61  1  0
 32 62  1  0
 35 63  1  0
 35 64  1  0
 36 65  1  0
 36 66  1  0
 38 67  1  0
 38 68  1  0
 39 69  1  0
 39 70  1  0
 40 71  1  0
 41 72  1  0
M  END
>  <Binding energies>  (1) 
[-4.64]

>  <Ligand effiencies>  (1) 
[-0.1031111111111111]

>  <Interactions>  (1) 
["V-A:TYR:484:CZ:4347, V-B:GLU:543:CD:9880, V-A:ILE:369:CG2:3237, V-B:TYR:539:CE2:9848, V-A:GLU:543:CD:4908, H-A:GLU:543:OE1:4909, V-B:SER:385:C:8377, V-B:ILE:369:CD1:8211, V-A:ALA:541:CB:4892, V-B:SER:385:CA:8379, V-A:TYR:539:CD1:4873, V-A:GLU:543:CG:4907, V-B:ILE:369:CG2:8209, V-B:LEU:475:CD2:9231, V-B:HIS:456:CE1:9042, H-A:LYS:547:NZ:4951, V-B:HIS:456:CD2:9040, V-A:HIS:456:CD2:4068, V-A:GLY:544:C:4912, H-A:ASP:366:OD1:3214, V-A:ASP:366:CG:3213, V-A:ILE:369:CD1:3239, V-B:GLU:543:CB:9878, H-A:ASP:366:OD2:3215, V-B:ILE:369:CG1:8210, V-B:ILE:369:CB:8208, V-A:ASP:366:CB:3212, V-A:HIS:456:CE1:4070, V-A:GLU:543:CB:4906, V-A:GLU:543:CA:4904, V-A:ASP:366:C:3208, V-A:ASP:366:CA:3210, V-A:ILE:369:CB:3236, H-B:TYR:539:OH:9850, V-A:GLU:543:C:4902, V-B:TYR:539:CZ:9849, V-A:GLY:544:CA:4914, H-B:SER:385:OG:8382"]

$$$$
9d_Ghoteimi_2023
     RDKit          3D

 68 73  0  0  0  0  0  0  0  0999 V2000
  132.5780  124.7370   60.9820 C   0  0  0  0  0  0  0  0  0  0  0  0
  131.1800  124.4890   60.9400 O   0  0  0  0  0  0  0  0  0  0  0  0
  130.2940  125.5130   60.8300 C   0  0  0  0  0  0  0  0  0  0  0  0
  129.8180  125.9010   59.7590 O   0  0  0  0  0  0  0  0  0  0  0  0
  129.9580  126.1270   62.1330 C   0  0  0  0  0  0  0  0  0  0  0  0
  130.4730  125.3490   63.6290 S   0  0  0  0  0  0  0  0  0  0  0  0
  129.7590  126.6260   64.5850 C   0  0  0  0  0  0  0  0  0  0  0  0
  129.8460  126.6340   65.9150 N   0  0  0  0  0  0  0  0  0  0  0  0
  129.2730  127.6800   66.5650 C   0  0  0  0  0  0  0  0  0  0  0  0
  129.4040  127.6810   68.0540 C   0  0  0  0  0  0  0  0  0  0  0  0
  130.4540  128.3670   68.6740 C   0  0  0  0  0  0  0  0  0  0  0  0
  130.5870  128.3720   70.0600 C   0  0  0  0  0  0  0  0  0  0  0  0
  129.6650  127.6990   70.8790 C   0  0  0  0  0  0  0  0  0  0  0  0
  129.7960  127.6800   72.2720 N   0  0  0  0  0  0  0  0  0  0  0  0
  131.1060  127.4630   72.9180 C   0  0  0  0  0  0  0  0  0  0  0  0
  131.0120  127.1280   74.4210 C   0  0  0  0  0  0  0  0  0  0  0  0
  130.2720  128.1310   75.0970 O   0  0  0  0  0  0  0  0  0  0  0  0
  128.9500  128.2290   74.5930 C   0  0  0  0  0  0  0  0  0  0  0  0
  128.9780  128.5960   73.0940 C   0  0  0  0  0  0  0  0  0  0  0  0
  128.6240  127.0000   70.2510 C   0  0  0  0  0  0  0  0  0  0  0  0
  128.4940  126.9930   68.8650 C   0  0  0  0  0  0  0  0  0  0  0  0
  128.5890  128.6940   65.8890 C   0  0  0  0  0  0  0  0  0  0  0  0
  128.4790  128.6800   64.4940 C   0  0  0  0  0  0  0  0  0  0  0  0
  127.7170  129.7690   63.8270 C   0  0  0  0  0  0  0  0  0  0  0  0
  128.2360  131.0630   63.7570 C   0  0  0  0  0  0  0  0  0  0  0  0
  127.5270  132.0750   63.1140 C   0  0  0  0  0  0  0  0  0  0  0  0
  126.2870  131.8140   62.5100 C   0  0  0  0  0  0  0  0  0  0  0  0
  125.5520  132.8140   61.8680 N   0  0  0  0  0  0  0  0  0  0  0  0
  124.1780  132.5180   61.4190 C   0  0  0  0  0  0  0  0  0  0  0  0
  123.3580  133.7840   61.0920 C   0  0  0  0  0  0  0  0  0  0  0  0
  124.0450  134.5750   60.1340 O   0  0  0  0  0  0  0  0  0  0  0  0
  125.3190  134.9860   60.6100 C   0  0  0  0  0  0  0  0  0  0  0  0
  126.1880  133.7480   60.9200 C   0  0  0  0  0  0  0  0  0  0  0  0
  125.7750  130.5110   62.5880 C   0  0  0  0  0  0  0  0  0  0  0  0
  126.4830  129.5010   63.2320 C   0  0  0  0  0  0  0  0  0  0  0  0
  129.1080  127.6150   63.7900 C   0  0  0  0  0  0  0  0  0  0  0  0
  129.2560  127.3110   62.3910 C   0  0  0  0  0  0  0  0  0  0  0  0
  128.7720  128.1230   61.3970 N   0  0  0  0  0  0  0  0  0  0  0  0
  132.9087  124.7957   62.0295 H   0  0  0  0  0  0  0  0  0  0  0  0
  133.1108  123.9194   60.4745 H   0  0  0  0  0  0  0  0  0  0  0  0
  132.7971  125.6880   60.4745 H   0  0  0  0  0  0  0  0  0  0  0  0
  131.1852  128.9104   68.0574 H   0  0  0  0  0  0  0  0  0  0  0  0
  131.4274  128.9115   70.5211 H   0  0  0  0  0  0  0  0  0  0  0  0
  131.6102  126.6290   72.4078 H   0  0  0  0  0  0  0  0  0  0  0  0
  131.6642  128.4072   72.8348 H   0  0  0  0  0  0  0  0  0  0  0  0
  130.5095  126.1576   74.5470 H   0  0  0  0  0  0  0  0  0  0  0  0
  132.0263  127.0812   74.8442 H   0  0  0  0  0  0  0  0  0  0  0  0
  128.4395  127.2631   74.7213 H   0  0  0  0  0  0  0  0  0  0  0  0
  128.4121  129.0138   75.1451 H   0  0  0  0  0  0  0  0  0  0  0  0
  127.9464  128.5768   72.7127 H   0  0  0  0  0  0  0  0  0  0  0  0
  129.4365  129.5929   73.0162 H   0  0  0  0  0  0  0  0  0  0  0  0
  127.8972  126.4474   70.8645 H   0  0  0  0  0  0  0  0  0  0  0  0
  127.6647  126.4391   68.4008 H   0  0  0  0  0  0  0  0  0  0  0  0
  128.1309  129.5142   66.4612 H   0  0  0  0  0  0  0  0  0  0  0  0
  129.2121  131.2851   64.2130 H   0  0  0  0  0  0  0  0  0  0  0  0
  127.9443  133.0922   63.0791 H   0  0  0  0  0  0  0  0  0  0  0  0
  124.2327  131.8939   60.5148 H   0  0  0  0  0  0  0  0  0  0  0  0
  123.6679  132.0035   62.2467 H   0  0  0  0  0  0  0  0  0  0  0  0
  122.3792  133.4889   60.6859 H   0  0  0  0  0  0  0  0  0  0  0  0
  123.2194  134.3713   62.0117 H   0  0  0  0  0  0  0  0  0  0  0  0
  125.8156  135.5973   59.8420 H   0  0  0  0  0  0  0  0  0  0  0  0
  125.1892  135.5769   61.5287 H   0  0  0  0  0  0  0  0  0  0  0  0
  126.3821  133.2126   59.9789 H   0  0  0  0  0  0  0  0  0  0  0  0
  127.1152  134.1088   61.3891 H   0  0  0  0  0  0  0  0  0  0  0  0
  124.7994  130.2839   62.1334 H   0  0  0  0  0  0  0  0  0  0  0  0
  126.0671  128.4835   63.2726 H   0  0  0  0  0  0  0  0  0  0  0  0
  128.3740  129.0290   61.5970 H   0  0  0  0  0  0  0  0  0  0  0  0
  128.8020  127.8430   60.4270 H   0  0  0  0  0  0  0  0  0  0  0  0
  1  2  1  0
  2  3  1  0
  3  4  2  0
  3  5  1  0
  5  6  1  0
  6  7  1  0
  7  8  2  0
  8  9  1  0
  9 10  1  0
 10 11  2  0
 11 12  1  0
 12 13  2  0
 13 14  1  0
 14 15  1  0
 15 16  1  0
 16 17  1  0
 17 18  1  0
 18 19  1  0
 13 20  1  0
 20 21  2  0
  9 22  2  0
 22 23  1  0
 23 24  1  0
 24 25  2  0
 25 26  1  0
 26 27  2  0
 27 28  1  0
 28 29  1  0
 29 30  1  0
 30 31  1  0
 31 32  1  0
 32 33  1  0
 27 34  1  0
 34 35  2  0
 23 36  2  0
 36 37  1  0
 37 38  1  0
 37  5  2  0
 36  7  1  0
 21 10  1  0
 35 24  1  0
 19 14  1  0
 33 28  1  0
  1 39  1  0
  1 40  1  0
  1 41  1  0
 11 42  1  0
 12 43  1  0
 15 44  1  0
 15 45  1  0
 16 46  1  0
 16 47  1  0
 18 48  1  0
 18 49  1  0
 19 50  1  0
 19 51  1  0
 20 52  1  0
 21 53  1  0
 22 54  1  0
 25 55  1  0
 26 56  1  0
 29 57  1  0
 29 58  1  0
 30 59  1  0
 30 60  1  0
 32 61  1  0
 32 62  1  0
 33 63  1  0
 33 64  1  0
 34 65  1  0
 35 66  1  0
 38 67  1  0
 38 68  1  0
M  END
>  <Binding energies>  (1) 
[-3.37]

>  <Ligand effiencies>  (1) 
[-0.08425]

>  <Interactions>  (1) 
["V-A:TYR:484:CZ:4347, V-B:GLU:543:CD:9880, V-A:GLU:543:CD:4908, H-A:GLU:543:OE1:4909, V-B:SER:385:C:8377, V-B:ILE:369:CD1:8211, V-A:TYR:539:CE1:4875, V-A:ALA:541:CB:4892, V-B:SER:385:CA:8379, V-A:TYR:539:CD1:4873, V-A:GLU:543:CG:4907, V-B:ILE:369:CG2:8209, V-B:LEU:475:CD2:9231, V-B:HIS:456:CE1:9042, H-A:LYS:547:NZ:4951, V-B:HIS:456:CD2:9040, V-A:HIS:456:CD2:4068, V-A:HIS:456:CG:4066, V-A:GLY:544:C:4912, V-A:ASP:366:CG:3213, V-B:GLU:543:CB:9878, V-B:ILE:369:CG1:8210, V-B:ILE:369:CB:8208, V-A:HIS:456:CE1:4070, V-A:GLU:543:CB:4906, V-A:GLU:543:CA:4904, V-A:GLU:543:C:4902, V-A:GLY:544:CA:4914, H-B:SER:385:OG:8382"]

$$$$
RR10_Rahimova_2017
     RDKit          3D

 66 70  0  0  0  0  0  0  0  0999 V2000
  134.4830  124.5720   75.2520 C   0  0  0  0  0  0  0  0  0  0  0  0
  133.0810  124.8100   75.8380 C   0  0  1  0  0  0  0  0  0  0  0  0
  132.7600  126.3170   75.9720 C   0  0  0  0  0  0  0  0  0  0  0  0
  131.3620  126.5330   76.5940 C   0  0  0  0  0  0  0  0  0  0  0  0
  130.2430  125.8460   75.7700 C   0  0  1  0  0  0  0  0  0  0  0  0
  130.0730  126.5090   74.4700 N   0  0  0  0  0  0  0  0  0  0  0  0
  129.1100  127.4000   74.1690 C   0  0  0  0  0  0  0  0  0  0  0  0
  128.2640  127.7760   74.9840 O   0  0  0  0  0  0  0  0  0  0  0  0
  129.0920  127.9400   72.7240 C   0  0  1  0  0  0  0  0  0  0  0  0
  130.5120  128.4300   72.3400 C   0  0  0  0  0  0  0  0  0  0  0  0
  130.5190  128.8870   70.8610 C   0  0  0  0  0  0  0  0  0  0  0  0
  129.9450  127.8140   69.9070 C   0  0  0  0  0  0  0  0  0  0  0  0
  128.6120  127.3510   70.3800 N   0  0  0  0  0  0  0  0  0  0  0  0
  127.7290  126.3490   69.2160 S   0  0  0  0  0  0  0  0  0  0  0  0
  126.3700  126.1420   69.7300 O   0  0  0  0  0  0  0  0  0  0  0  0
  128.5750  125.1970   68.8780 O   0  0  0  0  0  0  0  0  0  0  0  0
  127.5740  127.3670   67.7480 C   0  0  0  0  0  0  0  0  0  0  0  0
  128.7030  128.0250   67.2490 C   0  0  0  0  0  0  0  0  0  0  0  0
  128.6480  128.8350   66.1110 C   0  0  0  0  0  0  0  0  0  0  0  0
  127.4030  128.9550   65.4890 C   0  0  0  0  0  0  0  0  0  0  0  0
  126.9510  129.6400   64.3860 N   0  0  0  0  0  0  0  0  0  0  0  0
  125.6030  129.3810   64.2480 C   0  0  0  0  0  0  0  0  0  0  0  0
  124.7530  129.9640   63.1560 C   0  0  0  0  0  0  0  0  0  0  0  0
  125.3290  130.7590   62.1560 C   0  0  0  0  0  0  0  0  0  0  0  0
  124.5430  131.2970   61.1410 C   0  0  0  0  0  0  0  0  0  0  0  0
  123.1740  131.0440   61.1210 C   0  0  0  0  0  0  0  0  0  0  0  0
  122.5860  130.2560   62.1070 C   0  0  0  0  0  0  0  0  0  0  0  0
  123.3740  129.7180   63.1210 C   0  0  0  0  0  0  0  0  0  0  0  0
  125.1590  128.5710   65.1830 N   0  0  0  0  0  0  0  0  0  0  0  0
  126.2480  128.2920   65.9670 C   0  0  0  0  0  0  0  0  0  0  0  0
  126.3330  127.4840   67.1100 C   0  0  0  0  0  0  0  0  0  0  0  0
  128.6280  126.8160   71.7650 C   0  0  0  0  0  0  0  0  0  0  0  0
  130.5870  124.3380   75.6300 C   0  0  0  0  0  0  0  0  0  0  0  0
  131.9810  124.1180   75.0000 C   0  0  0  0  0  0  0  0  0  0  0  0
  135.2068  124.4491   76.0712 H   0  0  0  0  0  0  0  0  0  0  0  0
  134.4721  123.6628   74.6329 H   0  0  0  0  0  0  0  0  0  0  0  0
  134.7728  125.4338   74.6329 H   0  0  0  0  0  0  0  0  0  0  0  0
  133.0899  124.3628   76.8430 H   0  0  0  0  0  0  0  0  0  0  0  0
  133.5167  126.7900   76.6151 H   0  0  0  0  0  0  0  0  0  0  0  0
  132.7703  126.7678   74.9686 H   0  0  0  0  0  0  0  0  0  0  0  0
  131.3589  126.1166   77.6121 H   0  0  0  0  0  0  0  0  0  0  0  0
  131.1596  127.6142   76.6035 H   0  0  0  0  0  0  0  0  0  0  0  0
  129.2766  125.9354   76.2878 H   0  0  0  0  0  0  0  0  0  0  0  0
  130.6610  126.1720   73.7230 H   0  0  0  0  0  0  0  0  0  0  0  0
  128.3930  128.7858   72.6464 H   0  0  0  0  0  0  0  0  0  0  0  0
  130.7955  129.2742   72.9858 H   0  0  0  0  0  0  0  0  0  0  0  0
  131.2313  127.6084   72.4728 H   0  0  0  0  0  0  0  0  0  0  0  0
  129.9121  129.8000   70.7710 H   0  0  0  0  0  0  0  0  0  0  0  0
  131.5650  129.0665   70.5716 H   0  0  0  0  0  0  0  0  0  0  0  0
  129.8418  128.2439   68.8998 H   0  0  0  0  0  0  0  0  0  0  0  0
  130.6316  126.9548   69.8858 H   0  0  0  0  0  0  0  0  0  0  0  0
  129.6646  127.9011   67.7685 H   0  0  0  0  0  0  0  0  0  0  0  0
  129.5393  129.3514   65.7251 H   0  0  0  0  0  0  0  0  0  0  0  0
  127.4680  130.2410   63.7610 H   0  0  0  0  0  0  0  0  0  0  0  0
  126.4105  130.9594   62.1733 H   0  0  0  0  0  0  0  0  0  0  0  0
  125.0013  131.9192   60.3582 H   0  0  0  0  0  0  0  0  0  0  0  0
  122.5520  131.4700   60.3200 H   0  0  0  0  0  0  0  0  0  0  0  0
  121.5039  130.0594   62.0849 H   0  0  0  0  0  0  0  0  0  0  0  0
  122.9106  129.0952   63.9004 H   0  0  0  0  0  0  0  0  0  0  0  0
  125.4482  126.9561   67.4952 H   0  0  0  0  0  0  0  0  0  0  0  0
  127.6177  126.4834   72.0454 H   0  0  0  0  0  0  0  0  0  0  0  0
  129.3158  125.9599   71.8290 H   0  0  0  0  0  0  0  0  0  0  0  0
  130.5715  123.8761   76.6282 H   0  0  0  0  0  0  0  0  0  0  0  0
  129.8385  123.8790   74.9674 H   0  0  0  0  0  0  0  0  0  0  0  0
  132.1890  123.0388   74.9537 H   0  0  0  0  0  0  0  0  0  0  0  0
  131.9827  124.5535   73.9899 H   0  0  0  0  0  0  0  0  0  0  0  0
  1  2  1  0
  2  3  1  0
  3  4  1  0
  4  5  1  0
  5  6  1  0
  6  7  1  0
  7  8  2  0
  7  9  1  0
  9 10  1  0
 10 11  1  0
 11 12  1  0
 12 13  1  0
 13 14  1  0
 14 15  2  0
 14 16  2  0
 14 17  1  0
 17 18  2  0
 18 19  1  0
 19 20  2  0
 20 21  1  0
 21 22  1  0
 22 23  1  0
 23 24  2  0
 24 25  1  0
 25 26  2  0
 26 27  1  0
 27 28  2  0
 22 29  2  0
 29 30  1  0
 30 31  2  0
 13 32  1  0
  5 33  1  0
 33 34  1  0
 34  2  1  0
 32  9  1  0
 31 17  1  0
 30 20  1  0
 28 23  1  0
  1 35  1  0
  1 36  1  0
  1 37  1  0
  2 38  1  1
  3 39  1  0
  3 40  1  0
  4 41  1  0
  4 42  1  0
  5 43  1  1
  6 44  1  0
  9 45  1  1
 10 46  1  0
 10 47  1  0
 11 48  1  0
 11 49  1  0
 12 50  1  0
 12 51  1  0
 18 52  1  0
 19 53  1  0
 21 54  1  0
 24 55  1  0
 25 56  1  0
 26 57  1  0
 27 58  1  0
 28 59  1  0
 31 60  1  0
 32 61  1  0
 32 62  1  0
 33 63  1  0
 33 64  1  0
 34 65  1  0
 34 66  1  0
M  END
>  <Binding energies>  (1) 
[-8.37]

>  <Ligand effiencies>  (1) 
[-0.23249999999999998]

>  <Interactions>  (1) 
["V-B:GLU:543:CD:9880, V-A:GLU:543:CD:4908, V-B:ILE:369:CD1:8211, V-A:GLU:543:CG:4907, V-B:ARG:545:CZ:9898, H-B:ARG:545:NE:9896, V-B:GLY:453:C:9014, H-B:TYR:484:OH:9320, V-B:GLY:453:CA:9016, V-B:ARG:545:CD:9895, V-B:HIS:456:CE1:9042, V-B:ARG:545:CG:9894, H-B:LYS:547:NZ:9923, V-A:VAL:458:CG2:4087, V-A:VAL:457:CA:4075, V-A:VAL:457:C:4073, V-B:HIS:456:CD2:9040, V-A:LYS:547:CE:4950, V-A:HIS:456:CB:4065, V-A:HIS:456:CD2:4068, V-A:HIS:456:C:4061, V-A:LYS:471:CD:4219, V-A:GLY:544:C:4912, V-A:HIS:456:CA:4063, V-B:GLU:543:CB:9878, V-B:ASP:366:CG:8185, H-B:ARG:545:NH2:9900, V-B:ASP:366:CA:8182, V-A:HIS:456:CE1:4070, V-A:GLU:543:CB:4906, V-A:GLU:543:C:4902, V-B:GLU:543:C:9874, V-A:GLY:544:CA:4914, V-B:LYS:547:CE:9922, H-B:ARG:545:N:9892"]

$$$$
RR11_Rahimova_2017
     RDKit          3D

 55 60  0  0  0  0  0  0  0  0999 V2000
  133.4930  119.8970   60.1400 N   0  0  0  0  0  0  0  0  0  0  0  0
  132.7350  121.0660   60.1790 C   0  0  0  0  0  0  0  0  0  0  0  0
  133.3290  122.2880   59.8680 C   0  0  0  0  0  0  0  0  0  0  0  0
  132.5700  123.4540   59.9040 C   0  0  0  0  0  0  0  0  0  0  0  0
  131.2130  123.4110   60.2510 C   0  0  0  0  0  0  0  0  0  0  0  0
  130.3960  124.6680   60.2840 C   0  0  0  0  0  0  0  0  0  0  0  0
  129.7720  125.1210   61.3490 N   0  0  0  0  0  0  0  0  0  0  0  0
  129.1680  126.2840   60.9480 C   0  0  0  0  0  0  0  0  0  0  0  0
  128.3810  127.1750   61.6900 C   0  0  0  0  0  0  0  0  0  0  0  0
  127.8850  128.3170   61.0500 C   0  0  0  0  0  0  0  0  0  0  0  0
  127.0220  129.3000   61.8300 C   0  0  0  0  0  0  0  0  0  0  0  0
  126.9770  128.9980   63.3210 C   0  0  0  0  0  0  0  0  0  0  0  0
  125.7380  128.8440   63.9550 C   0  0  0  0  0  0  0  0  0  0  0  0
  125.6450  128.5570   65.3180 C   0  0  0  0  0  0  0  0  0  0  0  0
  126.8340  128.4190   66.0470 C   0  0  0  0  0  0  0  0  0  0  0  0
  127.0100  128.1490   67.3790 N   0  0  0  0  0  0  0  0  0  0  0  0
  128.3130  128.1280   67.5610 C   0  0  0  0  0  0  0  0  0  0  0  0
  128.9820  127.8840   68.8830 C   0  0  0  0  0  0  0  0  0  0  0  0
  128.4000  127.0260   69.8250 C   0  0  0  0  0  0  0  0  0  0  0  0
  129.0150  126.8070   71.0550 C   0  0  0  0  0  0  0  0  0  0  0  0
  130.2180  127.4450   71.3510 C   0  0  0  0  0  0  0  0  0  0  0  0
  130.8320  127.2300   72.5850 N   0  0  0  0  0  0  0  0  0  0  0  0
  130.8090  128.2960   70.4220 C   0  0  0  0  0  0  0  0  0  0  0  0
  130.1940  128.5150   69.1930 C   0  0  0  0  0  0  0  0  0  0  0  0
  129.0010  128.3680   66.3900 N   0  0  0  0  0  0  0  0  0  0  0  0
  128.0790  128.5640   65.3890 C   0  0  0  0  0  0  0  0  0  0  0  0
  128.1790  128.8460   64.0240 C   0  0  0  0  0  0  0  0  0  0  0  0
  128.1500  128.5470   59.6960 C   0  0  0  0  0  0  0  0  0  0  0  0
  128.9270  127.6760   58.9280 C   0  0  0  0  0  0  0  0  0  0  0  0
  129.4280  126.5490   59.5830 C   0  0  0  0  0  0  0  0  0  0  0  0
  130.2150  125.4910   59.1910 N   0  0  0  0  0  0  0  0  0  0  0  0
  130.6300  122.1750   60.5630 C   0  0  0  0  0  0  0  0  0  0  0  0
  131.3860  121.0070   60.5260 C   0  0  0  0  0  0  0  0  0  0  0  0
  133.3530  119.2390   59.3860 H   0  0  0  0  0  0  0  0  0  0  0  0
  134.2010  119.7410   60.8420 H   0  0  0  0  0  0  0  0  0  0  0  0
  134.3938  122.3306   59.5951 H   0  0  0  0  0  0  0  0  0  0  0  0
  133.0395  124.4179   59.6579 H   0  0  0  0  0  0  0  0  0  0  0  0
  128.1584  126.9817   62.7497 H   0  0  0  0  0  0  0  0  0  0  0  0
  127.4291  130.3122   61.6894 H   0  0  0  0  0  0  0  0  0  0  0  0
  125.9950  129.2136   61.4454 H   0  0  0  0  0  0  0  0  0  0  0  0
  124.8159  128.9517   63.3649 H   0  0  0  0  0  0  0  0  0  0  0  0
  124.6659  128.4424   65.8062 H   0  0  0  0  0  0  0  0  0  0  0  0
  127.4507  126.5218   69.5915 H   0  0  0  0  0  0  0  0  0  0  0  0
  128.5526  126.1325   71.7907 H   0  0  0  0  0  0  0  0  0  0  0  0
  131.5670  127.8520   72.8900 H   0  0  0  0  0  0  0  0  0  0  0  0
  130.5110  126.4750   73.1750 H   0  0  0  0  0  0  0  0  0  0  0  0
  131.7605  128.7946   70.6587 H   0  0  0  0  0  0  0  0  0  0  0  0
  130.6626  129.1881   68.4599 H   0  0  0  0  0  0  0  0  0  0  0  0
  130.0080  128.3920   66.3340 H   0  0  0  0  0  0  0  0  0  0  0  0
  129.1547  128.9439   63.5256 H   0  0  0  0  0  0  0  0  0  0  0  0
  127.7318  129.4456   59.2188 H   0  0  0  0  0  0  0  0  0  0  0  0
  129.1330  127.8677   57.8646 H   0  0  0  0  0  0  0  0  0  0  0  0
  130.6160  125.3060   58.2840 H   0  0  0  0  0  0  0  0  0  0  0  0
  129.5663  122.1278   60.8393 H   0  0  0  0  0  0  0  0  0  0  0  0
  130.9207  120.0405   60.7697 H   0  0  0  0  0  0  0  0  0  0  0  0
  1  2  1  0
  2  3  2  0
  3  4  1  0
  4  5  2  0
  5  6  1  0
  6  7  2  0
  7  8  1  0
  8  9  2  0
  9 10  1  0
 10 11  1  0
 11 12  1  0
 12 13  2  0
 13 14  1  0
 14 15  2  0
 15 16  1  0
 16 17  2  0
 17 18  1  0
 18 19  2  0
 19 20  1  0
 20 21  2  0
 21 22  1  0
 21 23  1  0
 23 24  2  0
 17 25  1  0
 25 26  1  0
 26 27  2  0
 10 28  2  0
 28 29  1  0
 29 30  2  0
 30 31  1  0
  5 32  1  0
 32 33  2  0
 33  2  1  0
 31  6  1  0
 30  8  1  0
 27 12  1  0
 26 15  1  0
 24 18  1  0
  1 34  1  0
  1 35  1  0
  3 36  1  0
  4 37  1  0
  9 38  1  0
 11 39  1  0
 11 40  1  0
 13 41  1  0
 14 42  1  0
 19 43  1  0
 20 44  1  0
 22 45  1  0
 22 46  1  0
 23 47  1  0
 24 48  1  0
 25 49  1  0
 27 50  1  0
 28 51  1  0
 29 52  1  0
 31 53  1  0
 32 54  1  0
 33 55  1  0
M  END
>  <Binding energies>  (1) 
[-4.76]

>  <Ligand effiencies>  (1) 
[-0.12205128205128205]

>  <Interactions>  (1) 
["V-B:TYR:539:CD2:9846, H-B:GLU:543:OE2:9882, V-A:LEU:475:CD2:4259, V-B:GLU:543:CD:9880, V-A:SER:385:CB:3409, V-A:ILE:369:CG2:3237, V-B:TYR:539:CE2:9848, H-A:GLU:543:OE2:4910, V-A:GLU:543:CD:4908, V-A:SER:385:C:3405, V-A:SER:385:CA:3407, H-A:GLU:543:OE1:4909, V-A:GLU:543:CG:4907, V-B:ARG:545:CZ:9898, V-B:ARG:545:CD:9895, V-B:HIS:456:CE1:9042, V-B:HIS:456:CD2:9040, V-A:HIS:456:CD2:4068, V-A:HIS:456:CG:4066, V-A:GLY:544:C:4912, V-A:ILE:369:CD1:3239, H-B:HIS:456:ND1:9039, V-A:HIS:456:CE1:4070, V-A:GLU:543:CB:4906, V-A:GLU:543:CA:4904, H-A:SER:385:O:3406, V-A:ILE:369:CB:3236, H-B:TYR:539:OH:9850, V-A:GLU:543:C:4902, V-A:GLY:544:CA:4914, H-A:SER:385:OG:3410, H-A:HIS:456:NE2:4071, H-A:GLY:544:O:4913"]

$$$$
RR11_Rahimova_2017-again1
     RDKit          3D

 56 61  0  0  0  0  0  0  0  0999 V2000
  131.9930  117.8870   60.4440 N   0  0  0  0  0  0  0  0  0  0  0  0
  131.7060  119.2500   60.3750 C   0  0  0  0  0  0  0  0  0  0  0  0
  130.4370  119.7100   60.7210 C   0  0  0  0  0  0  0  0  0  0  0  0
  130.1510  121.0710   60.6490 C   0  0  0  0  0  0  0  0  0  0  0  0
  131.1290  121.9820   60.2310 C   0  0  0  0  0  0  0  0  0  0  0  0
  130.8170  123.4480   60.1450 C   0  0  0  0  0  0  0  0  0  0  0  0
  131.5960  124.3410   59.5760 N   0  0  0  0  0  0  0  0  0  0  0  0
  130.9530  125.5400   59.7390 C   0  0  0  0  0  0  0  0  0  0  0  0
  131.3440  126.8200   59.3270 C   0  0  0  0  0  0  0  0  0  0  0  0
  130.5060  127.8940   59.6310 C   0  0  0  0  0  0  0  0  0  0  0  0
  129.3070  127.7140   60.3300 C   0  0  0  0  0  0  0  0  0  0  0  0
  128.4330  128.9210   60.6400 C   0  0  0  0  0  0  0  0  0  0  0  0
  128.2900  129.1740   62.1340 C   0  0  0  0  0  0  0  0  0  0  0  0
  127.6980  130.3610   62.5810 C   0  0  0  0  0  0  0  0  0  0  0  0
  127.5410  130.6490   63.9390 C   0  0  0  0  0  0  0  0  0  0  0  0
  128.0050  129.6870   64.8400 C   0  0  0  0  0  0  0  0  0  0  0  0
  128.0210  129.6500   66.2290 N   0  0  0  0  0  0  0  0  0  0  0  0
  128.5940  128.4770   66.6640 C   0  0  0  0  0  0  0  0  0  0  0  0
  128.8170  128.0580   68.0810 C   0  0  0  0  0  0  0  0  0  0  0  0
  129.7500  128.7350   68.8750 C   0  0  0  0  0  0  0  0  0  0  0  0
  129.9560  128.3540   70.1980 C   0  0  0  0  0  0  0  0  0  0  0  0
  129.2280  127.2920   70.7340 C   0  0  0  0  0  0  0  0  0  0  0  0
  129.4320  126.9150   72.0600 N   0  0  0  0  0  0  0  0  0  0  0  0
  128.2970  126.6110   69.9510 C   0  0  0  0  0  0  0  0  0  0  0  0
  128.0930  126.9920   68.6280 C   0  0  0  0  0  0  0  0  0  0  0  0
  128.9330  127.7690   65.5340 N   0  0  0  0  0  0  0  0  0  0  0  0
  128.5870  128.4870   64.3980 C   0  0  0  0  0  0  0  0  0  0  0  0
  128.7350  128.2010   63.0390 C   0  0  0  0  0  0  0  0  0  0  0  0
  128.8830  126.4400   60.7310 C   0  0  0  0  0  0  0  0  0  0  0  0
  129.7300  125.3710   60.4310 C   0  0  0  0  0  0  0  0  0  0  0  0
  129.6750  124.0170   60.6680 N   0  0  0  0  0  0  0  0  0  0  0  0
  132.4020  121.5050   59.8870 C   0  0  0  0  0  0  0  0  0  0  0  0
  132.6890  120.1440   59.9600 C   0  0  0  0  0  0  0  0  0  0  0  0
  131.7380  117.2870   59.6730 H   0  0  0  0  0  0  0  0  0  0  0  0
  132.4150  117.5100   61.2800 H   0  0  0  0  0  0  0  0  0  0  0  0
  129.6636  119.0003   61.0500 H   0  0  0  0  0  0  0  0  0  0  0  0
  129.1491  121.4333   60.9226 H   0  0  0  0  0  0  0  0  0  0  0  0
  132.2852  126.9747   58.7791 H   0  0  0  0  0  0  0  0  0  0  0  0
  130.7951  128.9067   59.3134 H   0  0  0  0  0  0  0  0  0  0  0  0
  128.8826  129.8102   60.1739 H   0  0  0  0  0  0  0  0  0  0  0  0
  127.4290  128.7159   60.2400 H   0  0  0  0  0  0  0  0  0  0  0  0
  127.3446  131.0914   61.8383 H   0  0  0  0  0  0  0  0  0  0  0  0
  127.0759  131.5852   64.2815 H   0  0  0  0  0  0  0  0  0  0  0  0
  127.6810  130.3560   66.8660 H   0  0  0  0  0  0  0  0  0  0  0  0
  130.3235  129.5726   68.4513 H   0  0  0  0  0  0  0  0  0  0  0  0
  130.6903  128.8886   70.8184 H   0  0  0  0  0  0  0  0  0  0  0  0
  128.7270  127.1280   72.7520 H   0  0  0  0  0  0  0  0  0  0  0  0
  130.2930  126.4580   72.3210 H   0  0  0  0  0  0  0  0  0  0  0  0
  127.7248  125.7742   70.3780 H   0  0  0  0  0  0  0  0  0  0  0  0
  127.3599  126.4533   68.0097 H   0  0  0  0  0  0  0  0  0  0  0  0
  129.3740  126.8630   65.5780 H   0  0  0  0  0  0  0  0  0  0  0  0
  129.1802  127.2558   62.6950 H   0  0  0  0  0  0  0  0  0  0  0  0
  127.9287  126.2892   61.2569 H   0  0  0  0  0  0  0  0  0  0  0  0
  128.9590  123.4880   61.1430 H   0  0  0  0  0  0  0  0  0  0  0  0
  133.1791  122.2103   59.5573 H   0  0  0  0  0  0  0  0  0  0  0  0
  133.6901  119.7765   59.6903 H   0  0  0  0  0  0  0  0  0  0  0  0
  1  2  1  0
  2  3  2  0
  3  4  1  0
  4  5  2  0
  5  6  1  0
  6  7  2  0
  7  8  1  0
  8  9  2  0
  9 10  1  0
 10 11  2  0
 11 12  1  0
 12 13  1  0
 13 14  2  0
 14 15  1  0
 15 16  2  0
 16 17  1  0
 17 18  1  0
 18 19  1  0
 19 20  2  0
 20 21  1  0
 21 22  2  0
 22 23  1  0
 22 24  1  0
 24 25  2  0
 18 26  2  0
 26 27  1  0
 27 28  2  0
 11 29  1  0
 29 30  2  0
 30 31  1  0
  5 32  1  0
 32 33  2  0
 33  2  1  0
 31  6  1  0
 30  8  1  0
 28 13  1  0
 27 16  1  0
 25 19  1  0
  1 34  1  0
  1 35  1  0
  3 36  1  0
  4 37  1  0
  9 38  1  0
 10 39  1  0
 12 40  1  0
 12 41  1  0
 14 42  1  0
 15 43  1  0
 17 44  1  0
 20 45  1  0
 21 46  1  0
 23 47  1  0
 23 48  1  0
 24 49  1  0
 25 50  1  0
 26 51  1  0
 28 52  1  0
 29 53  1  0
 31 54  1  0
 32 55  1  0
 33 56  1  0
M  CHG  1  26   1
M  END
>  <Binding energies>  (1) 
[-5.29]

>  <Ligand effiencies>  (1) 
[-0.13225]

>  <Interactions>  (1) 
["V-B:TYR:539:CD2:9846, H-B:GLU:543:OE2:9882, V-B:TYR:539:C:9839, V-A:LEU:475:CD2:4259, V-B:GLU:543:CD:9880, V-A:SER:385:CB:3409, V-A:ILE:369:CG2:3237, V-B:TYR:539:CE2:9848, H-A:GLU:543:OE2:4910, V-A:GLU:543:CD:4908, H-A:GLU:543:OE1:4909, V-A:GLU:543:CG:4907, H-B:TYR:484:OH:9320, V-B:HIS:456:CE1:9042, V-B:HIS:456:CD2:9040, V-A:HIS:456:CD2:4068, V-A:GLY:544:C:4912, V-A:ASP:366:CG:3213, V-A:LEU:475:CG:4257, V-B:GLU:543:CB:9878, V-B:TYR:484:CZ:9319, V-A:ASP:366:CB:3212, V-A:HIS:456:CE1:4070, V-A:GLU:543:CB:4906, V-B:TYR:484:CE2:9318, V-A:GLU:543:CA:4904, V-A:GLU:543:C:4902, H-B:HIS:456:NE2:9043, H-A:SER:385:OG:3410, H-A:HIS:456:NE2:4071"]

$$$$
RR11_Rahimova_2017-again2
     RDKit          3D

 57 62  0  0  0  0  0  0  0  0999 V2000
  130.2640  127.2680   71.6910 N   0  0  0  0  0  0  0  0  0  0  0  0
  129.6260  127.5210   70.4770 C   0  0  0  0  0  0  0  0  0  0  0  0
  130.0560  128.5740   69.6730 C   0  0  0  0  0  0  0  0  0  0  0  0
  129.4150  128.8300   68.4640 C   0  0  0  0  0  0  0  0  0  0  0  0
  128.3390  128.0330   68.0520 C   0  0  0  0  0  0  0  0  0  0  0  0
  127.6440  128.3140   66.7600 C   0  0  0  0  0  0  0  0  0  0  0  0
  128.1860  128.2270   65.4980 N   0  0  0  0  0  0  0  0  0  0  0  0
  127.2270  128.5440   64.5450 C   0  0  0  0  0  0  0  0  0  0  0  0
  127.2830  128.5900   63.1490 C   0  0  0  0  0  0  0  0  0  0  0  0
  126.1040  128.9350   62.4780 C   0  0  0  0  0  0  0  0  0  0  0  0
  126.1010  128.9970   60.9560 C   0  0  0  0  0  0  0  0  0  0  0  0
  126.8690  127.8470   60.3180 C   0  0  0  0  0  0  0  0  0  0  0  0
  126.6490  127.5330   58.9720 C   0  0  0  0  0  0  0  0  0  0  0  0
  127.3230  126.4900   58.3320 C   0  0  0  0  0  0  0  0  0  0  0  0
  128.2380  125.7690   59.1030 C   0  0  0  0  0  0  0  0  0  0  0  0
  129.0540  124.6890   58.7980 N   0  0  0  0  0  0  0  0  0  0  0  0
  129.7850  124.3210   59.9040 C   0  0  0  0  0  0  0  0  0  0  0  0
  130.7660  123.1970   59.9990 C   0  0  0  0  0  0  0  0  0  0  0  0
  132.1110  123.4050   59.6760 C   0  0  0  0  0  0  0  0  0  0  0  0
  133.0270  122.3600   59.7740 C   0  0  0  0  0  0  0  0  0  0  0  0
  132.6010  121.1030   60.1960 C   0  0  0  0  0  0  0  0  0  0  0  0
  133.5180  120.0580   60.3000 N   0  0  0  0  0  0  0  0  0  0  0  0
  131.2620  120.8840   60.5170 C   0  0  0  0  0  0  0  0  0  0  0  0
  130.3470  121.9290   60.4190 C   0  0  0  0  0  0  0  0  0  0  0  0
  129.4280  125.1880   60.9100 N   0  0  0  0  0  0  0  0  0  0  0  0
  128.4740  126.0870   60.4500 C   0  0  0  0  0  0  0  0  0  0  0  0
  127.8020  127.1360   61.0840 C   0  0  0  0  0  0  0  0  0  0  0  0
  124.9340  129.2480   63.1810 C   0  0  0  0  0  0  0  0  0  0  0  0
  124.8740  129.2100   64.5770 C   0  0  0  0  0  0  0  0  0  0  0  0
  126.0470  128.8460   65.2440 C   0  0  0  0  0  0  0  0  0  0  0  0
  126.3340  128.6980   66.5950 N   0  0  0  0  0  0  0  0  0  0  0  0
  127.9180  126.9750   68.8660 C   0  0  0  0  0  0  0  0  0  0  0  0
  128.5590  126.7190   70.0760 C   0  0  0  0  0  0  0  0  0  0  0  0
  129.8960  126.5580   72.3070 H   0  0  0  0  0  0  0  0  0  0  0  0
  131.0470  127.8410   71.9710 H   0  0  0  0  0  0  0  0  0  0  0  0
  130.9005  129.2021   69.9927 H   0  0  0  0  0  0  0  0  0  0  0  0
  129.7549  129.6617   67.8294 H   0  0  0  0  0  0  0  0  0  0  0  0
  129.1460  127.9600   65.3390 H   0  0  0  0  0  0  0  0  0  0  0  0
  128.2110  128.3654   62.6028 H   0  0  0  0  0  0  0  0  0  0  0  0
  125.0592  128.9618   60.6047 H   0  0  0  0  0  0  0  0  0  0  0  0
  126.5991  129.9324   60.6612 H   0  0  0  0  0  0  0  0  0  0  0  0
  125.9215  128.1269   58.3992 H   0  0  0  0  0  0  0  0  0  0  0  0
  127.1423  126.2486   57.2741 H   0  0  0  0  0  0  0  0  0  0  0  0
  129.1320  124.2060   57.9150 H   0  0  0  0  0  0  0  0  0  0  0  0
  132.4469  124.3982   59.3431 H   0  0  0  0  0  0  0  0  0  0  0  0
  134.0838  122.5272   59.5188 H   0  0  0  0  0  0  0  0  0  0  0  0
  133.5390  119.3400   59.5910 H   0  0  0  0  0  0  0  0  0  0  0  0
  134.1080  119.9950   61.1180 H   0  0  0  0  0  0  0  0  0  0  0  0
  130.9294  119.8887   60.8467 H   0  0  0  0  0  0  0  0  0  0  0  0
  129.2905  121.7575   60.6727 H   0  0  0  0  0  0  0  0  0  0  0  0
  129.8250  125.1340   61.8380 H   0  0  0  0  0  0  0  0  0  0  0  0
  127.9968  127.3915   62.1360 H   0  0  0  0  0  0  0  0  0  0  0  0
  124.0337  129.5328   62.6168 H   0  0  0  0  0  0  0  0  0  0  0  0
  123.9507  129.4541   65.1228 H   0  0  0  0  0  0  0  0  0  0  0  0
  125.7090  128.8350   67.3750 H   0  0  0  0  0  0  0  0  0  0  0  0
  127.0762  126.3421   68.5484 H   0  0  0  0  0  0  0  0  0  0  0  0
  128.2242  125.8868   70.7127 H   0  0  0  0  0  0  0  0  0  0  0  0
  1  2  1  0
  2  3  2  0
  3  4  1  0
  4  5  2  0
  5  6  1  0
  6  7  1  0
  7  8  1  0
  8  9  2  0
  9 10  1  0
 10 11  1  0
 11 12  1  0
 12 13  2  0
 13 14  1  0
 14 15  2  0
 15 16  1  0
 16 17  1  0
 17 18  1  0
 18 19  2  0
 19 20  1  0
 20 21  2  0
 21 22  1  0
 21 23  1  0
 23 24  2  0
 17 25  2  0
 25 26  1  0
 26 27  2  0
 10 28  2  0
 28 29  1  0
 29 30  2  0
 30 31  1  0
  5 32  1  0
 32 33  2  0
 33  2  1  0
 31  6  2  0
 30  8  1  0
 27 12  1  0
 26 15  1  0
 24 18  1  0
  1 34  1  0
  1 35  1  0
  3 36  1  0
  4 37  1  0
  7 38  1  0
  9 39  1  0
 11 40  1  0
 11 41  1  0
 13 42  1  0
 14 43  1  0
 16 44  1  0
 19 45  1  0
 20 46  1  0
 22 47  1  0
 22 48  1  0
 23 49  1  0
 24 50  1  0
 25 51  1  0
 27 52  1  0
 28 53  1  0
 29 54  1  0
 31 55  1  0
 32 56  1  0
 33 57  1  0
M  CHG  2  25   1  31   1
M  END
>  <Binding energies>  (1) 
[-5.75]

>  <Ligand effiencies>  (1) 
[-0.1402439024390244]

>  <Interactions>  (1) 
["V-B:TYR:539:CD2:9846, H-B:GLU:543:OE2:9882, V-A:LEU:475:CD2:4259, V-B:GLU:543:CD:9880, V-A:SER:385:CB:3409, V-A:ILE:369:CG2:3237, V-B:TYR:539:CE2:9848, H-A:GLU:543:OE2:4910, V-A:GLU:543:CD:4908, V-A:SER:385:C:3405, V-A:SER:385:CA:3407, H-A:GLU:543:OE1:4909, V-A:GLU:543:CG:4907, V-B:ARG:545:CZ:9898, H-B:TYR:484:OH:9320, V-B:HIS:456:CE1:9042, V-B:HIS:456:CD2:9040, V-A:HIS:456:CD2:4068, V-A:HIS:456:CG:4066, V-A:GLY:544:C:4912, V-B:GLU:543:CB:9878, V-B:TYR:484:CZ:9319, V-B:ASP:366:CG:8185, V-A:HIS:456:CE1:4070, V-A:GLU:543:CB:4906, V-A:GLU:543:CA:4904, H-A:SER:385:O:3406, V-A:GLU:543:C:4902, H-B:HIS:456:NE2:9043, H-A:SER:385:OG:3410, H-A:HIS:456:NE2:4071, H-A:GLY:544:O:4913"]

$$$$
RR12_Rahimova_2017
     RDKit          3D

 51 53  0  0  0  0  0  0  0  0999 V2000
  125.7830  134.4290   60.6160 C   0  0  0  0  0  0  0  0  0  0  0  0
  127.2600  134.0160   60.5770 C   0  0  0  0  0  0  0  0  0  0  0  0
  127.4510  132.5410   60.1760 C   0  0  0  0  0  0  0  0  0  0  0  0
  128.8420  132.1320   60.3560 N   0  0  0  0  0  0  0  0  0  0  0  0
  129.4850  131.8270   61.5460 C   0  0  0  0  0  0  0  0  0  0  0  0
  128.8270  131.9200   62.9120 C   0  0  0  0  0  0  0  0  0  0  0  0
  127.4820  131.1710   62.9680 C   0  0  0  0  0  0  0  0  0  0  0  0
  126.2740  132.1230   63.0520 C   0  0  0  0  0  0  0  0  0  0  0  0
  125.0740  131.6130   62.3900 N   0  0  0  0  0  0  0  0  0  0  0  0
  124.2240  130.7140   62.9180 C   0  0  0  0  0  0  0  0  0  0  0  0
  124.3770  130.2150   64.0350 O   0  0  0  0  0  0  0  0  0  0  0  0
  123.0260  130.3370   62.0380 C   0  0  0  0  0  0  0  0  0  0  0  0
  123.0190  131.1530   60.8660 O   0  0  0  0  0  0  0  0  0  0  0  0
  123.7260  130.7430   59.7520 C   0  0  0  0  0  0  0  0  0  0  0  0
  123.3360  131.2980   58.5310 C   0  0  0  0  0  0  0  0  0  0  0  0
  123.9910  130.9480   57.3530 C   0  0  0  0  0  0  0  0  0  0  0  0
  125.0450  130.0390   57.3950 C   0  0  0  0  0  0  0  0  0  0  0  0
  125.4460  129.4750   58.6040 C   0  0  0  0  0  0  0  0  0  0  0  0
  124.7890  129.8250   59.7810 C   0  0  0  0  0  0  0  0  0  0  0  0
  130.7330  131.4640   61.3840 N   0  0  0  0  0  0  0  0  0  0  0  0
  130.9360  131.4990   60.0330 C   0  0  0  0  0  0  0  0  0  0  0  0
  132.0970  131.1900   59.3070 C   0  0  0  0  0  0  0  0  0  0  0  0
  132.0500  131.2990   57.9170 C   0  0  0  0  0  0  0  0  0  0  0  0
  130.8870  131.7030   57.2600 C   0  0  0  0  0  0  0  0  0  0  0  0
  129.7170  132.0180   57.9540 C   0  0  0  0  0  0  0  0  0  0  0  0
  129.7650  131.9100   59.3500 C   0  0  0  0  0  0  0  0  0  0  0  0
  125.4554  134.5206   61.6621 H   0  0  0  0  0  0  0  0  0  0  0  0
  125.6592  135.3962   60.1069 H   0  0  0  0  0  0  0  0  0  0  0  0
  125.1754  133.6663   60.1069 H   0  0  0  0  0  0  0  0  0  0  0  0
  127.7843  134.6505   59.8472 H   0  0  0  0  0  0  0  0  0  0  0  0
  127.6686  134.1419   61.5905 H   0  0  0  0  0  0  0  0  0  0  0  0
  126.8050  131.9097   60.8039 H   0  0  0  0  0  0  0  0  0  0  0  0
  127.1833  132.4257   59.1153 H   0  0  0  0  0  0  0  0  0  0  0  0
  129.5050  131.4851   63.6611 H   0  0  0  0  0  0  0  0  0  0  0  0
  128.6282  132.9823   63.1169 H   0  0  0  0  0  0  0  0  0  0  0  0
  127.3834  130.5566   62.0609 H   0  0  0  0  0  0  0  0  0  0  0  0
  127.4829  130.5545   63.8790 H   0  0  0  0  0  0  0  0  0  0  0  0
  126.0392  132.2927   64.1132 H   0  0  0  0  0  0  0  0  0  0  0  0
  126.5587  133.0489   62.5308 H   0  0  0  0  0  0  0  0  0  0  0  0
  124.8810  131.9800   61.4690 H   0  0  0  0  0  0  0  0  0  0  0  0
  123.1035  129.2789   61.7473 H   0  0  0  0  0  0  0  0  0  0  0  0
  122.0942  130.4962   62.6005 H   0  0  0  0  0  0  0  0  0  0  0  0
  122.5046  132.0175   58.4997 H   0  0  0  0  0  0  0  0  0  0  0  0
  123.6775  131.3872   56.3945 H   0  0  0  0  0  0  0  0  0  0  0  0
  125.5653  129.7640   56.4657 H   0  0  0  0  0  0  0  0  0  0  0  0
  126.2782  128.7561   58.6289 H   0  0  0  0  0  0  0  0  0  0  0  0
  125.1036  129.3810   60.7370 H   0  0  0  0  0  0  0  0  0  0  0  0
  133.0169  130.8713   59.8191 H   0  0  0  0  0  0  0  0  0  0  0  0
  132.9476  131.0618   57.3271 H   0  0  0  0  0  0  0  0  0  0  0  0
  130.8921  131.7755   56.1624 H   0  0  0  0  0  0  0  0  0  0  0  0
  128.8030  132.3352   57.4306 H   0  0  0  0  0  0  0  0  0  0  0  0
  1  2  1  0
  2  3  1  0
  3  4  1  0
  4  5  1  0
  5  6  1  0
  6  7  1  0
  7  8  1  0
  8  9  1  0
  9 10  1  0
 10 11  2  0
 10 12  1  0
 12 13  1  0
 13 14  1  0
 14 15  2  0
 15 16  1  0
 16 17  2  0
 17 18  1  0
 18 19  2  0
  5 20  2  0
 20 21  1  0
 21 22  2  0
 22 23  1  0
 23 24  2  0
 24 25  1  0
 25 26  2  0
 26  4  1  0
 19 14  1  0
 26 21  1  0
  1 27  1  0
  1 28  1  0
  1 29  1  0
  2 30  1  0
  2 31  1  0
  3 32  1  0
  3 33  1  0
  6 34  1  0
  6 35  1  0
  7 36  1  0
  7 37  1  0
  8 38  1  0
  8 39  1  0
  9 40  1  0
 12 41  1  0
 12 42  1  0
 15 43  1  0
 16 44  1  0
 17 45  1  0
 18 46  1  0
 19 47  1  0
 22 48  1  0
 23 49  1  0
 24 50  1  0
 25 51  1  0
M  END
>  <Binding energies>  (1) 
[-6.1]

>  <Ligand effiencies>  (1) 
[-0.22592592592592592]

>  <Interactions>  (1) 
["V-B:ILE:369:CD1:8211, V-A:TYR:539:CE1:4875, V-A:PRO:540:CA:4883, V-A:ALA:541:CB:4892, V-A:TYR:539:CD1:4873, V-A:GLU:543:CG:4907, V-B:ILE:369:CG2:8209, V-B:LEU:475:CD2:9231, H-A:ALA:541:N:4891, H-B:GLY:454:N:9022, V-B:GLY:453:C:9014, H-B:TYR:484:OH:9320, V-B:GLY:454:CA:9021, V-A:TYR:539:C:4867, V-B:GLY:453:CA:9016, V-A:PRO:540:CB:4885, V-B:ASP:366:CG:8185, V-B:ILE:369:CB:8208, V-B:ASP:366:CA:8182, V-B:ASP:366:CB:8184, V-A:TYR:539:CZ:4877, V-B:ASP:366:C:8180, V-A:PRO:540:N:4884"]

$$$$
RR13_Rahimova_2017
     RDKit          3D

 84 90  0  0  0  0  0  0  0  0999 V2000
  131.5990  130.5630   57.3120 Cl  0  0  0  0  0  0  0  0  0  0  0  0
  132.1140  130.8900   58.9320 C   0  0  0  0  0  0  0  0  0  0  0  0
  133.3610  131.4940   59.1090 C   0  0  0  0  0  0  0  0  0  0  0  0
  133.8420  131.7640   60.3870 C   0  0  0  0  0  0  0  0  0  0  0  0
  133.0780  131.4270   61.5010 C   0  0  0  0  0  0  0  0  0  0  0  0
  131.8330  130.8230   61.3340 C   0  0  0  0  0  0  0  0  0  0  0  0
  131.3260  130.5550   60.0520 C   0  0  0  0  0  0  0  0  0  0  0  0
  129.9540  129.8630   59.8940 C   0  0  1  0  0  0  0  0  0  0  0  0
  129.0490  130.6450   58.9300 C   0  0  0  0  0  0  0  0  0  0  0  0
  128.5100  130.1940   57.8190 N   0  0  0  0  0  0  0  0  0  0  0  0
  127.8010  131.2620   57.2770 N   0  0  0  0  0  0  0  0  0  0  0  0
  127.9410  132.3780   58.0790 N   0  0  0  0  0  0  0  0  0  0  0  0
  128.7350  131.9790   59.0780 N   0  0  0  0  0  0  0  0  0  0  0  0
  129.0780  132.8950   60.1590 C   0  0  0  0  0  0  0  0  0  0  0  0
  128.0140  132.8320   61.2710 C   0  0  0  0  0  0  0  0  0  0  0  0
  126.7410  133.5720   60.8910 C   0  0  0  0  0  0  0  0  0  0  0  0
  125.5330  132.8770   60.7930 C   0  0  0  0  0  0  0  0  0  0  0  0
  124.3690  133.5540   60.4370 C   0  0  0  0  0  0  0  0  0  0  0  0
  124.4180  134.9230   60.1810 C   0  0  0  0  0  0  0  0  0  0  0  0
  125.6190  135.6210   60.2760 C   0  0  0  0  0  0  0  0  0  0  0  0
  126.7840  134.9450   60.6320 C   0  0  0  0  0  0  0  0  0  0  0  0
  130.0550  128.4280   59.5350 N   0  0  0  0  0  0  0  0  0  0  0  0
  129.9730  127.5860   60.7430 C   0  0  0  0  0  0  0  0  0  0  0  0
  129.9440  126.0860   60.3660 C   0  0  0  0  0  0  0  0  0  0  0  0
  131.1730  125.7070   59.6500 N   0  0  0  0  0  0  0  0  0  0  0  0
  131.2240  124.2590   59.3410 C   0  0  1  0  0  0  0  0  0  0  0  0
  132.2000  123.4280   60.2030 C   0  0  0  0  0  0  0  0  0  0  0  0
  132.7490  122.2780   59.6200 C   0  0  0  0  0  0  0  0  0  0  0  0
  133.6520  121.4770   60.3180 C   0  0  0  0  0  0  0  0  0  0  0  0
  134.0160  121.8130   61.6190 C   0  0  0  0  0  0  0  0  0  0  0  0
  133.4700  122.9420   62.2220 C   0  0  0  0  0  0  0  0  0  0  0  0
  132.5610  123.7500   61.5320 C   0  0  0  0  0  0  0  0  0  0  0  0
  131.8860  125.0920   62.3930 Cl  0  0  0  0  0  0  0  0  0  0  0  0
  129.8440  123.5980   59.3240 C   0  0  0  0  0  0  0  0  0  0  0  0
  129.0250  123.5690   58.2980 N   0  0  0  0  0  0  0  0  0  0  0  0
  127.9080  122.8570   58.7210 N   0  0  0  0  0  0  0  0  0  0  0  0
  128.0770  122.4410   60.0260 N   0  0  0  0  0  0  0  0  0  0  0  0
  129.2890  122.8920   60.3710 N   0  0  0  0  0  0  0  0  0  0  0  0
  129.8020  122.6520   61.7150 C   0  0  0  0  0  0  0  0  0  0  0  0
  129.2630  121.3190   62.2660 C   0  0  0  0  0  0  0  0  0  0  0  0
  129.8250  120.1200   61.5180 C   0  0  0  0  0  0  0  0  0  0  0  0
  129.2580  118.8560   61.7000 C   0  0  0  0  0  0  0  0  0  0  0  0
  129.7670  117.7590   61.0090 C   0  0  0  0  0  0  0  0  0  0  0  0
  130.8430  117.9310   60.1390 C   0  0  0  0  0  0  0  0  0  0  0  0
  131.4120  119.1900   59.9530 C   0  0  0  0  0  0  0  0  0  0  0  0
  130.9020  120.2860   60.6420 C   0  0  0  0  0  0  0  0  0  0  0  0
  131.2470  126.5460   58.4410 C   0  0  0  0  0  0  0  0  0  0  0  0
  131.2870  128.0440   58.8240 C   0  0  0  0  0  0  0  0  0  0  0  0
  133.9682  131.7586   58.2308 H   0  0  0  0  0  0  0  0  0  0  0  0
  134.8239  132.2427   60.5165 H   0  0  0  0  0  0  0  0  0  0  0  0
  133.4566  131.6372   62.5122 H   0  0  0  0  0  0  0  0  0  0  0  0
  131.2389  130.5523   62.2193 H   0  0  0  0  0  0  0  0  0  0  0  0
  129.4793  129.8770   60.8862 H   0  0  0  0  0  0  0  0  0  0  0  0
  130.0561  132.6137   60.5763 H   0  0  0  0  0  0  0  0  0  0  0  0
  129.1188  133.9195   59.7605 H   0  0  0  0  0  0  0  0  0  0  0  0
  127.7664  131.7779   61.4650 H   0  0  0  0  0  0  0  0  0  0  0  0
  128.4318  133.3165   62.1658 H   0  0  0  0  0  0  0  0  0  0  0  0
  125.5012  131.7965   60.9967 H   0  0  0  0  0  0  0  0  0  0  0  0
  123.4157  133.0108   60.3583 H   0  0  0  0  0  0  0  0  0  0  0  0
  123.4984  135.4577   59.9010 H   0  0  0  0  0  0  0  0  0  0  0  0
  125.6479  136.7013   60.0709 H   0  0  0  0  0  0  0  0  0  0  0  0
  127.7360  135.4907   60.7091 H   0  0  0  0  0  0  0  0  0  0  0  0
  130.8491  127.7812   61.3788 H   0  0  0  0  0  0  0  0  0  0  0  0
  129.0463  127.8321   61.2821 H   0  0  0  0  0  0  0  0  0  0  0  0
  129.8600  125.4845   61.2831 H   0  0  0  0  0  0  0  0  0  0  0  0
  129.0807  125.9024   59.7096 H   0  0  0  0  0  0  0  0  0  0  0  0
  131.6351  124.2489   58.3208 H   0  0  0  0  0  0  0  0  0  0  0  0
  132.4627  122.0025   58.5943 H   0  0  0  0  0  0  0  0  0  0  0  0
  134.0761  120.5809   59.8414 H   0  0  0  0  0  0  0  0  0  0  0  0
  134.7339  121.1872   62.1693 H   0  0  0  0  0  0  0  0  0  0  0  0
  133.7564  123.2015   63.2519 H   0  0  0  0  0  0  0  0  0  0  0  0
  130.9008  122.6125   61.6817 H   0  0  0  0  0  0  0  0  0  0  0  0
  129.4726  123.4692   62.3735 H   0  0  0  0  0  0  0  0  0  0  0  0
  129.5400  121.2363   63.3273 H   0  0  0  0  0  0  0  0  0  0  0  0
  128.1707  121.3166   62.1365 H   0  0  0  0  0  0  0  0  0  0  0  0
  128.4100  118.7273   62.3887 H   0  0  0  0  0  0  0  0  0  0  0  0
  129.3226  116.7625   61.1488 H   0  0  0  0  0  0  0  0  0  0  0  0
  131.2468  117.0649   59.5942 H   0  0  0  0  0  0  0  0  0  0  0  0
  132.2605  119.3164   59.2645 H   0  0  0  0  0  0  0  0  0  0  0  0
  131.3457  121.2821   60.4976 H   0  0  0  0  0  0  0  0  0  0  0  0
  132.1575  126.2915   57.8787 H   0  0  0  0  0  0  0  0  0  0  0  0
  130.3560  126.3600   57.8233 H   0  0  0  0  0  0  0  0  0  0  0  0
  132.1536  128.2279   59.4761 H   0  0  0  0  0  0  0  0  0  0  0  0
  131.3694  128.6439   57.9057 H   0  0  0  0  0  0  0  0  0  0  0  0
  1  2  1  0
  2  3  2  0
  3  4  1  0
  4  5  2  0
  5  6  1  0
  6  7  2  0
  7  8  1  0
  8  9  1  0
  9 10  2  0
 10 11  1  0
 11 12  2  0
 12 13  1  0
 13 14  1  0
 14 15  1  0
 15 16  1  0
 16 17  2  0
 17 18  1  0
 18 19  2  0
 19 20  1  0
 20 21  2  0
  8 22  1  0
 22 23  1  0
 23 24  1  0
 24 25  1  0
 25 26  1  0
 26 27  1  0
 27 28  2  0
 28 29  1  0
 29 30  2  0
 30 31  1  0
 31 32  2  0
 32 33  1  0
 26 34  1  0
 34 35  2  0
 35 36  1  0
 36 37  2  0
 37 38  1  0
 38 39  1  0
 39 40  1  0
 40 41  1  0
 41 42  2  0
 42 43  1  0
 43 44  2  0
 44 45  1  0
 45 46  2  0
 25 47  1  0
 47 48  1  0
  7  2  1  0
 13  9  1  0
 21 16  1  0
 48 22  1  0
 32 27  1  0
 38 34  1  0
 46 41  1  0
  3 49  1  0
  4 50  1  0
  5 51  1  0
  6 52  1  0
  8 53  1  1
 14 54  1  0
 14 55  1  0
 15 56  1  0
 15 57  1  0
 17 58  1  0
 18 59  1  0
 19 60  1  0
 20 61  1  0
 21 62  1  0
 23 63  1  0
 23 64  1  0
 24 65  1  0
 24 66  1  0
 26 67  1  6
 28 68  1  0
 29 69  1  0
 30 70  1  0
 31 71  1  0
 39 72  1  0
 39 73  1  0
 40 74  1  0
 40 75  1  0
 42 76  1  0
 43 77  1  0
 44 78  1  0
 45 79  1  0
 46 80  1  0
 47 81  1  0
 47 82  1  0
 48 83  1  0
 48 84  1  0
M  END
>  <Binding energies>  (1) 
[-10.9]

>  <Ligand effiencies>  (1) 
[-0.22708333333333333]

>  <Interactions>  (1) 
["V-B:ALA:541:CB:9864, V-B:TYR:539:CD2:9846, V-A:PRO:482:CG:4327, V-A:TYR:484:CE1:4345, V-A:PRO:482:CB:4326, V-B:TYR:539:C:9839, V-A:LEU:475:CD1:4258, V-A:LEU:475:CD2:4259, V-A:SER:385:CB:3409, V-A:ILE:369:CG2:3237, V-B:TYR:539:CE2:9848, V-A:GLU:543:CD:4908, V-B:PRO:540:C:9853, V-A:SER:385:C:3405, V-B:ALA:541:CA:9862, V-B:ILE:369:CD1:8211, V-A:TYR:539:CE1:4875, V-A:PRO:540:CA:4883, V-A:ALA:541:CB:4892, V-B:SER:385:CA:8379, V-A:TYR:539:CD1:4873, V-B:SER:385:CB:8381, V-B:ILE:369:CG2:8209, V-A:PRO:540:C:4881, V-B:LEU:475:CD2:9231, V-A:ASN:362:CB:3176, V-A:TYR:539:C:4867, V-A:PRO:540:CB:4885, V-A:ASP:366:CG:3213, V-A:GLY:454:CA:4049, V-A:ILE:369:CD1:3239, V-A:ASP:366:CB:3212, V-A:ASN:362:C:3172, V-A:PRO:540:N:4884, V-A:ILE:369:CB:3236, V-A:ASN:362:CA:3174, V-A:LEU:363:CA:3185, V-B:TYR:539:CB:9843, V-B:TYR:539:CG:9844"]

$$$$
RR14_Rahimova_2017
     RDKit          3D

 76 80  0  0  0  0  0  0  0  0999 V2000
  131.1430  117.4830   59.6700 C   0  0  0  0  0  0  0  0  0  0  0  0
  130.7250  118.3980   60.6760 O   0  0  0  0  0  0  0  0  0  0  0  0
  131.1620  119.7070   60.6190 C   0  0  0  0  0  0  0  0  0  0  0  0
  132.4520  119.9120   60.1260 C   0  0  0  0  0  0  0  0  0  0  0  0
  132.9870  121.1940   60.0540 C   0  0  0  0  0  0  0  0  0  0  0  0
  132.2350  122.2900   60.4820 C   0  0  0  0  0  0  0  0  0  0  0  0
  132.8420  123.6880   60.4660 C   0  0  0  0  0  0  0  0  0  0  0  0
  132.8180  124.3440   61.7730 N   0  0  0  0  0  0  0  0  0  0  0  0
  133.9410  124.4670   62.4890 N   0  0  0  0  0  0  0  0  0  0  0  0
  133.5480  125.0950   63.6550 N   0  0  0  0  0  0  0  0  0  0  0  0
  132.1790  125.3380   63.6280 N   0  0  0  0  0  0  0  0  0  0  0  0
  131.7560  124.8670   62.4790 C   0  0  0  0  0  0  0  0  0  0  0  0
  130.3090  124.8830   62.0030 C   0  0  0  0  0  0  0  0  0  0  0  0
  130.0940  125.8190   60.8880 N   0  0  0  0  0  0  0  0  0  0  0  0
  130.3350  125.1870   59.5850 C   0  0  0  0  0  0  0  0  0  0  0  0
  129.0690  125.0910   58.7060 C   0  0  0  0  0  0  0  0  0  0  0  0
  128.2110  123.8400   58.9900 C   0  0  0  0  0  0  0  0  0  0  0  0
  127.4450  123.9320   60.2380 N   0  0  0  0  0  0  0  0  0  0  0  0
  127.8370  122.8560   61.1570 C   0  0  0  0  0  0  0  0  0  0  0  0
  127.0120  122.8920   62.4610 C   0  0  0  0  0  0  0  0  0  0  0  0
  125.6200  122.8670   62.1610 O   0  0  0  0  0  0  0  0  0  0  0  0
  125.2210  123.9750   61.3620 C   0  0  0  0  0  0  0  0  0  0  0  0
  125.9900  123.9700   60.0240 C   0  0  0  0  0  0  0  0  0  0  0  0
  128.7330  126.3720   60.9480 C   0  0  0  0  0  0  0  0  0  0  0  0
  128.6300  127.8820   61.1510 C   0  0  0  0  0  0  0  0  0  0  0  0
  127.7430  128.4110   62.0290 C   0  0  0  0  0  0  0  0  0  0  0  0
  127.5960  129.8690   62.2150 C   0  0  0  0  0  0  0  0  0  0  0  0
  126.7010  130.4510   63.1290 C   0  0  0  0  0  0  0  0  0  0  0  0
  125.7990  129.6010   64.0140 C   0  0  0  0  0  0  0  0  0  0  0  0
  126.6420  131.8430   63.2290 C   0  0  0  0  0  0  0  0  0  0  0  0
  127.4560  132.6500   62.4360 C   0  0  0  0  0  0  0  0  0  0  0  0
  128.3500  132.0810   61.5250 C   0  0  0  0  0  0  0  0  0  0  0  0
  129.2290  132.9880   60.6730 C   0  0  0  0  0  0  0  0  0  0  0  0
  128.4190  130.6830   61.4160 C   0  0  0  0  0  0  0  0  0  0  0  0
  129.3040  130.0640   60.5080 N   0  0  0  0  0  0  0  0  0  0  0  0
  129.4720  128.7330   60.3040 C   0  0  0  0  0  0  0  0  0  0  0  0
  130.2750  128.3280   59.4640 O   0  0  0  0  0  0  0  0  0  0  0  0
  130.9330  122.0990   60.9490 C   0  0  0  0  0  0  0  0  0  0  0  0
  130.3990  120.8160   61.0210 C   0  0  0  0  0  0  0  0  0  0  0  0
  131.5555  116.5801   60.1440 H   0  0  0  0  0  0  0  0  0  0  0  0
  130.2814  117.2075   59.0441 H   0  0  0  0  0  0  0  0  0  0  0  0
  131.9153  117.9539   59.0441 H   0  0  0  0  0  0  0  0  0  0  0  0
  133.0507  119.0520   59.7915 H   0  0  0  0  0  0  0  0  0  0  0  0
  134.0028  121.3445   59.6598 H   0  0  0  0  0  0  0  0  0  0  0  0
  133.8876  123.6109   60.1332 H   0  0  0  0  0  0  0  0  0  0  0  0
  132.2338  124.2995   59.7833 H   0  0  0  0  0  0  0  0  0  0  0  0
  130.0352  123.8705   61.6717 H   0  0  0  0  0  0  0  0  0  0  0  0
  129.6835  125.2155   62.8445 H   0  0  0  0  0  0  0  0  0  0  0  0
  131.0901  125.7776   59.0454 H   0  0  0  0  0  0  0  0  0  0  0  0
  130.6730  124.1587   59.7806 H   0  0  0  0  0  0  0  0  0  0  0  0
  128.4521  125.9837   58.8866 H   0  0  0  0  0  0  0  0  0  0  0  0
  129.4070  125.0192   57.6617 H   0  0  0  0  0  0  0  0  0  0  0  0
  127.5058  123.7040   58.1568 H   0  0  0  0  0  0  0  0  0  0  0  0
  128.9003  122.9890   59.0931 H   0  0  0  0  0  0  0  0  0  0  0  0
  127.6777  121.8873   60.6607 H   0  0  0  0  0  0  0  0  0  0  0  0
  128.8967  122.9954   61.4170 H   0  0  0  0  0  0  0  0  0  0  0  0
  127.2671  122.0171   63.0770 H   0  0  0  0  0  0  0  0  0  0  0  0
  127.2454  123.8168   63.0089 H   0  0  0  0  0  0  0  0  0  0  0  0
  124.1415  123.9084   61.1612 H   0  0  0  0  0  0  0  0  0  0  0  0
  125.4452  124.9068   61.9019 H   0  0  0  0  0  0  0  0  0  0  0  0
  125.6910  123.0849   59.4433 H   0  0  0  0  0  0  0  0  0  0  0  0
  125.7451  124.8953   59.4820 H   0  0  0  0  0  0  0  0  0  0  0  0
  128.2277  126.1247   60.0027 H   0  0  0  0  0  0  0  0  0  0  0  0
  128.2700  125.9218   61.8385 H   0  0  0  0  0  0  0  0  0  0  0  0
  127.1123  127.7326   62.6222 H   0  0  0  0  0  0  0  0  0  0  0  0
  126.0204  129.8097   65.0711 H   0  0  0  0  0  0  0  0  0  0  0  0
  124.7466  129.8433   63.8051 H   0  0  0  0  0  0  0  0  0  0  0  0
  125.9785  128.5360   63.8051 H   0  0  0  0  0  0  0  0  0  0  0  0
  125.9450  132.3077   63.9419 H   0  0  0  0  0  0  0  0  0  0  0  0
  127.3942  133.7444   62.5281 H   0  0  0  0  0  0  0  0  0  0  0  0
  129.8442  133.6228   61.3277 H   0  0  0  0  0  0  0  0  0  0  0  0
  129.8837  132.3730   60.0381 H   0  0  0  0  0  0  0  0  0  0  0  0
  128.5938  133.6231   60.0381 H   0  0  0  0  0  0  0  0  0  0  0  0
  129.8840  130.6530   59.9310 H   0  0  0  0  0  0  0  0  0  0  0  0
  130.3287  122.9638   61.2604 H   0  0  0  0  0  0  0  0  0  0  0  0
  129.3747  120.6695   61.3944 H   0  0  0  0  0  0  0  0  0  0  0  0
  1  2  1  0
  2  3  1  0
  3  4  2  0
  4  5  1  0
  5  6  2  0
  6  7  1  0
  7  8  1  0
  8  9  1  0
  9 10  2  0
 10 11  1  0
 11 12  2  0
 12 13  1  0
 13 14  1  0
 14 15  1  0
 15 16  1  0
 16 17  1  0
 17 18  1  0
 18 19  1  0
 19 20  1  0
 20 21  1  0
 21 22  1  0
 22 23  1  0
 14 24  1  0
 24 25  1  0
 25 26  2  0
 26 27  1  0
 27 28  2  0
 28 29  1  0
 28 30  1  0
 30 31  2  0
 31 32  1  0
 32 33  1  0
 32 34  2  0
 34 35  1  0
 35 36  1  0
 36 37  2  0
  6 38  1  0
 38 39  2  0
 39  3  1  0
 12  8  1  0
 23 18  1  0
 36 25  1  0
 34 27  1  0
  1 40  1  0
  1 41  1  0
  1 42  1  0
  4 43  1  0
  5 44  1  0
  7 45  1  0
  7 46  1  0
 13 47  1  0
 13 48  1  0
 15 49  1  0
 15 50  1  0
 16 51  1  0
 16 52  1  0
 17 53  1  0
 17 54  1  0
 19 55  1  0
 19 56  1  0
 20 57  1  0
 20 58  1  0
 22 59  1  0
 22 60  1  0
 23 61  1  0
 23 62  1  0
 24 63  1  0
 24 64  1  0
 26 65  1  0
 29 66  1  0
 29 67  1  0
 29 68  1  0
 30 69  1  0
 31 70  1  0
 33 71  1  0
 33 72  1  0
 33 73  1  0
 35 74  1  0
 38 75  1  0
 39 76  1  0
M  END
>  <Binding energies>  (1) 
[-8.2]

>  <Ligand effiencies>  (1) 
[-0.205]

>  <Interactions>  (1) 
["V-B:ALA:541:CB:9864, V-B:TYR:539:CD2:9846, V-B:GLU:543:CG:9879, V-A:LEU:475:CD2:4259, V-B:GLU:543:CD:9880, V-A:SER:385:CB:3409, V-A:ILE:369:CG2:3237, V-B:TYR:539:CE2:9848, V-B:PRO:540:C:9853, V-B:ALA:541:CA:9862, V-B:PRO:540:CA:9855, H-A:TYR:484:OH:4348, V-A:PRO:540:CA:4883, V-A:ALA:541:CB:4892, V-A:PRO:540:C:4881, V-B:LEU:475:CD2:9231, V-A:ALA:541:CA:4890, V-A:TYR:539:C:4867, V-B:TYR:484:CZ:9319, H-B:ALA:541:N:9863, H-A:GLY:454:N:4050, H-A:ARG:545:NE:4924, V-B:PRO:540:CB:9857, H-A:ARG:545:NH1:4927, H-A:ARG:545:NH2:4928, V-B:TYR:539:CB:9843"]

$$$$
RR15_Rahimova_2017
     RDKit          3D

 85 89  0  0  0  0  0  0  0  0999 V2000
  131.8080  127.4660   76.0060 C   0  0  0  0  0  0  0  0  0  0  0  0
  130.6530  128.1130   75.4830 O   0  0  0  0  0  0  0  0  0  0  0  0
  130.3150  127.9330   74.1520 C   0  0  0  0  0  0  0  0  0  0  0  0
  131.2530  127.9000   73.1090 C   0  0  0  0  0  0  0  0  0  0  0  0
  130.8450  127.7170   71.7900 C   0  0  0  0  0  0  0  0  0  0  0  0
  129.4910  127.5660   71.4740 C   0  0  0  0  0  0  0  0  0  0  0  0
  129.0500  127.3750   70.0490 C   0  0  0  0  0  0  0  0  0  0  0  0
  128.0770  126.5440   69.7010 N   0  0  0  0  0  0  0  0  0  0  0  0
  127.9700  126.6360   68.3290 N   0  0  0  0  0  0  0  0  0  0  0  0
  128.8770  127.5570   68.0030 N   0  0  0  0  0  0  0  0  0  0  0  0
  129.2170  127.8530   66.6130 C   0  0  0  0  0  0  0  0  0  0  0  0
  128.2040  128.7670   65.8770 C   0  0  0  0  0  0  0  0  0  0  0  0
  127.8710  129.8220   66.4210 O   0  0  0  0  0  0  0  0  0  0  0  0
  127.7340  128.4030   64.6450 N   0  0  0  0  0  0  0  0  0  0  0  0
  126.2950  128.1700   64.4110 C   0  0  0  0  0  0  0  0  0  0  0  0
  125.3940  129.3220   64.9080 C   0  0  0  0  0  0  0  0  0  0  0  0
  124.1050  129.5410   64.0820 C   0  0  0  0  0  0  0  0  0  0  0  0
  124.1500  130.7250   63.2190 N   0  0  0  0  0  0  0  0  0  0  0  0
  125.4560  131.4000   63.2160 C   0  0  0  0  0  0  0  0  0  0  0  0
  125.4760  132.5870   62.2290 C   0  0  0  0  0  0  0  0  0  0  0  0
  125.0900  132.1520   60.9290 O   0  0  0  0  0  0  0  0  0  0  0  0
  123.7820  131.5920   60.9110 C   0  0  0  0  0  0  0  0  0  0  0  0
  123.7170  130.3750   61.8600 C   0  0  0  0  0  0  0  0  0  0  0  0
  128.5780  128.3980   63.4110 C   0  0  2  0  0  0  0  0  0  0  0  0
  128.1810  129.4860   62.3640 C   0  0  0  0  0  0  0  0  0  0  0  0
  127.1350  129.3980   61.7220 O   0  0  0  0  0  0  0  0  0  0  0  0
  129.0310  130.5220   62.2520 N   0  0  0  0  0  0  0  0  0  0  0  0
  128.8190  131.7010   61.4190 C   0  0  0  0  0  0  0  0  0  0  0  0
  130.1350  132.1670   60.7690 C   0  0  2  0  0  0  0  0  0  0  0  0
  130.5180  131.4470   59.4650 C   0  0  0  0  0  0  0  0  0  0  0  0
  131.5720  130.4480   59.8780 C   0  0  0  0  0  0  0  0  0  0  0  0
  132.2690  131.1970   61.0010 C   0  0  0  0  0  0  0  0  0  0  0  0
  131.1800  131.8100   61.6840 O   0  0  0  0  0  0  0  0  0  0  0  0
  128.7800  126.9750   62.9020 C   0  0  0  0  0  0  0  0  0  0  0  0
  129.9060  126.2710   63.3430 C   0  0  0  0  0  0  0  0  0  0  0  0
  130.1420  124.9690   62.9110 C   0  0  0  0  0  0  0  0  0  0  0  0
  129.2500  124.3590   62.0340 C   0  0  0  0  0  0  0  0  0  0  0  0
  129.4780  123.0940   61.6150 F   0  0  0  0  0  0  0  0  0  0  0  0
  128.1230  125.0440   61.5860 C   0  0  0  0  0  0  0  0  0  0  0  0
  127.8890  126.3460   62.0180 C   0  0  0  0  0  0  0  0  0  0  0  0
  129.5990  128.0140   69.0330 N   0  0  0  0  0  0  0  0  0  0  0  0
  128.5570  127.5970   72.5180 C   0  0  0  0  0  0  0  0  0  0  0  0
  128.9530  127.7770   73.8540 C   0  0  0  0  0  0  0  0  0  0  0  0
  128.0690  127.8120   74.9190 O   0  0  0  0  0  0  0  0  0  0  0  0
  126.9450  128.6830   74.8710 C   0  0  0  0  0  0  0  0  0  0  0  0
  131.7731  127.4856   77.1053 H   0  0  0  0  0  0  0  0  0  0  0  0
  131.8328  126.4226   75.6584 H   0  0  0  0  0  0  0  0  0  0  0  0
  132.7107  127.9898   75.6584 H   0  0  0  0  0  0  0  0  0  0  0  0
  132.3227  128.0200   73.3357 H   0  0  0  0  0  0  0  0  0  0  0  0
  131.5966  127.6909   70.9873 H   0  0  0  0  0  0  0  0  0  0  0  0
  130.1987  128.3491   66.5989 H   0  0  0  0  0  0  0  0  0  0  0  0
  129.2097  126.8905   66.0805 H   0  0  0  0  0  0  0  0  0  0  0  0
  126.1342  128.0441   63.3301 H   0  0  0  0  0  0  0  0  0  0  0  0
  126.0161  127.2724   64.9824 H   0  0  0  0  0  0  0  0  0  0  0  0
  125.1022  129.1045   65.9461 H   0  0  0  0  0  0  0  0  0  0  0  0
  125.9863  130.2434   64.8071 H   0  0  0  0  0  0  0  0  0  0  0  0
  123.9442  128.6561   63.4487 H   0  0  0  0  0  0  0  0  0  0  0  0
  123.2869  129.6987   64.8002 H   0  0  0  0  0  0  0  0  0  0  0  0
  125.6679  131.7734   64.2288 H   0  0  0  0  0  0  0  0  0  0  0  0
  126.2194  130.6742   62.8991 H   0  0  0  0  0  0  0  0  0  0  0  0
  124.7751  133.3603   62.5764 H   0  0  0  0  0  0  0  0  0  0  0  0
  126.4953  132.9978   62.1822 H   0  0  0  0  0  0  0  0  0  0  0  0
  123.0563  132.3502   61.2403 H   0  0  0  0  0  0  0  0  0  0  0  0
  123.5420  131.2663   59.8881 H   0  0  0  0  0  0  0  0  0  0  0  0
  122.6808  130.0078   61.8990 H   0  0  0  0  0  0  0  0  0  0  0  0
  124.3944  129.5999   61.4722 H   0  0  0  0  0  0  0  0  0  0  0  0
  129.5892  128.7414   63.6748 H   0  0  0  0  0  0  0  0  0  0  0  0
  129.8550  130.5340   62.8360 H   0  0  0  0  0  0  0  0  0  0  0  0
  128.0950  131.4560   60.6279 H   0  0  0  0  0  0  0  0  0  0  0  0
  128.4378  132.5133   62.0553 H   0  0  0  0  0  0  0  0  0  0  0  0
  130.0059  133.2365   60.5464 H   0  0  0  0  0  0  0  0  0  0  0  0
  129.6454  130.9350   59.0332 H   0  0  0  0  0  0  0  0  0  0  0  0
  130.8816  132.1433   58.6949 H   0  0  0  0  0  0  0  0  0  0  0  0
  131.1203  129.5119   60.2381 H   0  0  0  0  0  0  0  0  0  0  0  0
  132.2406  130.1356   59.0623 H   0  0  0  0  0  0  0  0  0  0  0  0
  132.8143  130.5064   61.6611 H   0  0  0  0  0  0  0  0  0  0  0  0
  133.0247  131.9139   60.6475 H   0  0  0  0  0  0  0  0  0  0  0  0
  130.6112  126.7509   64.0375 H   0  0  0  0  0  0  0  0  0  0  0  0
  131.0308  124.4239   63.2617 H   0  0  0  0  0  0  0  0  0  0  0  0
  127.4205  124.5576   60.8933 H   0  0  0  0  0  0  0  0  0  0  0  0
  126.9988  126.8866   61.6640 H   0  0  0  0  0  0  0  0  0  0  0  0
  127.4884  127.4776   72.2861 H   0  0  0  0  0  0  0  0  0  0  0  0
  126.6277  128.9289   75.8951 H   0  0  0  0  0  0  0  0  0  0  0  0
  127.2193  129.6067   74.3404 H   0  0  0  0  0  0  0  0  0  0  0  0
  126.1190  128.1868   74.3404 H   0  0  0  0  0  0  0  0  0  0  0  0
  1  2  1  0
  2  3  1  0
  3  4  2  0
  4  5  1  0
  5  6  2  0
  6  7  1  0
  7  8  1  0
  8  9  2  0
  9 10  1  0
 10 11  1  0
 11 12  1  0
 12 13  2  0
 12 14  1  0
 14 15  1  0
 15 16  1  0
 16 17  1  0
 17 18  1  0
 18 19  1  0
 19 20  1  0
 20 21  1  0
 21 22  1  0
 22 23  1  0
 14 24  1  0
 24 25  1  0
 25 26  2  0
 25 27  1  0
 27 28  1  0
 28 29  1  0
 29 30  1  0
 30 31  1  0
 31 32  1  0
 32 33  1  0
 24 34  1  0
 34 35  2  0
 35 36  1  0
 36 37  2  0
 37 38  1  0
 37 39  1  0
 39 40  2  0
 10 41  1  0
  6 42  1  0
 42 43  2  0
 43 44  1  0
 44 45  1  0
 43  3  1  0
 41  7  2  0
 23 18  1  0
 33 29  1  0
 40 34  1  0
  1 46  1  0
  1 47  1  0
  1 48  1  0
  4 49  1  0
  5 50  1  0
 11 51  1  0
 11 52  1  0
 15 53  1  0
 15 54  1  0
 16 55  1  0
 16 56  1  0
 17 57  1  0
 17 58  1  0
 19 59  1  0
 19 60  1  0
 20 61  1  0
 20 62  1  0
 22 63  1  0
 22 64  1  0
 23 65  1  0
 23 66  1  0
 24 67  1  1
 27 68  1  0
 28 69  1  0
 28 70  1  0
 29 71  1  6
 30 72  1  0
 30 73  1  0
 31 74  1  0
 31 75  1  0
 32 76  1  0
 32 77  1  0
 35 78  1  0
 36 79  1  0
 39 80  1  0
 40 81  1  0
 42 82  1  0
 45 83  1  0
 45 84  1  0
 45 85  1  0
M  END
>  <Binding energies>  (1) 
[-9.13]

>  <Ligand effiencies>  (1) 
[-0.19847826086956524]

>  <Interactions>  (1) 
["V-B:GLU:543:CD:9880, V-A:GLU:543:CD:4908, H-A:GLU:543:OE1:4909, V-B:ILE:369:CD1:8211, V-A:PRO:540:CA:4883, V-A:ALA:541:CB:4892, V-A:GLU:543:CG:4907, V-B:ARG:545:CZ:9898, V-A:PRO:540:C:4881, V-B:LEU:475:CD2:9231, H-A:ALA:541:N:4891, H-B:GLY:454:N:9022, V-B:GLY:453:C:9014, H-B:TYR:484:OH:9320, V-B:GLY:453:CA:9016, V-B:HIS:456:CE1:9042, V-A:PRO:540:CB:4885, H-B:LYS:547:NZ:9923, H-A:LYS:547:NZ:4951, V-B:HIS:456:CD2:9040, V-A:LYS:547:CE:4950, V-A:HIS:456:CD2:4068, V-A:HIS:456:CG:4066, V-A:GLY:544:C:4912, V-A:LYS:547:CD:4949, V-B:ASP:366:CG:8185, V-A:HIS:456:CE1:4070, V-A:GLU:543:CB:4906"]

$$$$
RR16_Rahimova_2017
     RDKit          3D

 80 85  0  0  0  0  0  0  0  0999 V2000
  124.1210  134.7370   59.8730 O   0  0  0  0  0  0  0  0  0  0  0  0
  124.0660  133.3520   60.3540 S   0  0  0  0  0  0  0  0  0  0  0  0
  123.0290  132.4300   59.8770 O   0  0  0  0  0  0  0  0  0  0  0  0
  123.9850  133.4040   62.1160 N   0  0  0  0  0  0  0  0  0  0  0  0
  124.7030  132.4040   62.9410 C   0  0  0  0  0  0  0  0  0  0  0  0
  124.1320  130.9930   62.6420 C   0  0  0  0  0  0  0  0  0  0  0  0
  124.8320  129.7920   63.3070 C   0  0  0  0  0  0  0  0  0  0  0  0
  126.1580  129.3930   62.6380 C   0  0  0  0  0  0  0  0  0  0  0  0
  127.3830  130.2440   63.0190 C   0  0  0  0  0  0  0  0  0  0  0  0
  127.1160  131.6600   63.5670 C   0  0  0  0  0  0  0  0  0  0  0  0
  126.2220  132.5750   62.7060 C   0  0  0  0  0  0  0  0  0  0  0  0
  125.6590  132.6180   60.0020 C   0  0  0  0  0  0  0  0  0  0  0  0
  125.8050  131.2290   59.9800 C   0  0  0  0  0  0  0  0  0  0  0  0
  127.0720  130.6720   59.8270 C   0  0  0  0  0  0  0  0  0  0  0  0
  128.1850  131.5060   59.6960 C   0  0  0  0  0  0  0  0  0  0  0  0
  129.8290  130.7960   59.6410 S   0  0  0  0  0  0  0  0  0  0  0  0
  130.5870  131.3550   60.7690 O   0  0  0  0  0  0  0  0  0  0  0  0
  130.3270  130.9440   58.2680 O   0  0  0  0  0  0  0  0  0  0  0  0
  129.5660  129.0680   59.9500 N   0  0  0  0  0  0  0  0  0  0  0  0
  128.6420  128.4060   58.9930 C   0  0  0  0  0  0  0  0  0  0  0  0
  128.2330  127.0130   59.5140 C   0  0  0  0  0  0  0  0  0  0  0  0
  129.4670  126.1450   59.8620 C   0  0  0  0  0  0  0  0  0  0  0  0
  129.0820  124.7740   60.4250 C   0  0  0  0  0  0  0  0  0  0  0  0
  127.7690  124.5440   60.8600 C   0  0  0  0  0  0  0  0  0  0  0  0
  127.3730  123.3080   61.3720 C   0  0  0  0  0  0  0  0  0  0  0  0
  126.0830  123.1010   61.7890 O   0  0  0  0  0  0  0  0  0  0  0  0
  128.3280  122.2830   61.4430 C   0  0  0  0  0  0  0  0  0  0  0  0
  128.2270  120.9920   61.8730 N   0  0  0  0  0  0  0  0  0  0  0  0
  129.4600  120.4000   61.7020 N   0  0  0  0  0  0  0  0  0  0  0  0
  130.3120  121.3240   61.2170 N   0  0  0  0  0  0  0  0  0  0  0  0
  131.6730  120.9500   60.8580 C   0  0  0  0  0  0  0  0  0  0  0  0
  132.5680  122.1560   60.6070 C   0  0  0  0  0  0  0  0  0  0  0  0
  133.3660  122.6640   61.6370 C   0  0  0  0  0  0  0  0  0  0  0  0
  134.2040  123.7550   61.4030 C   0  0  0  0  0  0  0  0  0  0  0  0
  134.2480  124.3430   60.1390 C   0  0  0  0  0  0  0  0  0  0  0  0
  133.4560  123.8400   59.1070 C   0  0  0  0  0  0  0  0  0  0  0  0
  133.5160  124.5580   57.5390 Cl  0  0  0  0  0  0  0  0  0  0  0  0
  132.6150  122.7500   59.3410 C   0  0  0  0  0  0  0  0  0  0  0  0
  129.6530  122.5250   61.0100 C   0  0  0  0  0  0  0  0  0  0  0  0
  130.0530  123.7650   60.5000 C   0  0  0  0  0  0  0  0  0  0  0  0
  130.4830  126.8990   60.7590 C   0  0  0  0  0  0  0  0  0  0  0  0
  130.8120  128.2990   60.2050 C   0  0  0  0  0  0  0  0  0  0  0  0
  128.0310  132.8940   59.6770 C   0  0  0  0  0  0  0  0  0  0  0  0
  126.7660  133.4500   59.8340 C   0  0  0  0  0  0  0  0  0  0  0  0
  123.8180  134.3170   62.5470 H   0  0  0  0  0  0  0  0  0  0  0  0
  124.5479  132.5527   64.0198 H   0  0  0  0  0  0  0  0  0  0  0  0
  123.0816  130.9856   62.9685 H   0  0  0  0  0  0  0  0  0  0  0  0
  124.2873  130.8483   61.5627 H   0  0  0  0  0  0  0  0  0  0  0  0
  125.0375  130.0490   64.3566 H   0  0  0  0  0  0  0  0  0  0  0  0
  124.1533  128.9322   63.2070 H   0  0  0  0  0  0  0  0  0  0  0  0
  126.3736  128.3496   62.9116 H   0  0  0  0  0  0  0  0  0  0  0  0
  126.0081  129.5508   61.5597 H   0  0  0  0  0  0  0  0  0  0  0  0
  127.9428  129.6919   63.7883 H   0  0  0  0  0  0  0  0  0  0  0  0
  127.9218  130.4036   62.0734 H   0  0  0  0  0  0  0  0  0  0  0  0
  126.6348  131.5523   64.5503 H   0  0  0  0  0  0  0  0  0  0  0  0
  128.0992  132.1528   63.5902 H   0  0  0  0  0  0  0  0  0  0  0  0
  126.4872  133.6193   62.9274 H   0  0  0  0  0  0  0  0  0  0  0  0
  126.4073  132.2931   61.6590 H   0  0  0  0  0  0  0  0  0  0  0  0
  124.9238  130.5787   60.0830 H   0  0  0  0  0  0  0  0  0  0  0  0
  127.1960  129.5792   59.8094 H   0  0  0  0  0  0  0  0  0  0  0  0
  127.7415  129.0259   58.8714 H   0  0  0  0  0  0  0  0  0  0  0  0
  129.1543  128.2885   58.0267 H   0  0  0  0  0  0  0  0  0  0  0  0
  127.6185  127.1371   60.4179 H   0  0  0  0  0  0  0  0  0  0  0  0
  127.6686  126.5026   58.7196 H   0  0  0  0  0  0  0  0  0  0  0  0
  129.9849  125.9456   58.9123 H   0  0  0  0  0  0  0  0  0  0  0  0
  127.0326  125.3586   60.7960 H   0  0  0  0  0  0  0  0  0  0  0  0
  125.8490  123.6130   62.5660 H   0  0  0  0  0  0  0  0  0  0  0  0
  132.1031  120.3576   61.6790 H   0  0  0  0  0  0  0  0  0  0  0  0
  131.6229  120.3735   59.9225 H   0  0  0  0  0  0  0  0  0  0  0  0
  133.3330  122.2021   62.6348 H   0  0  0  0  0  0  0  0  0  0  0  0
  134.8302  124.1515   62.2158 H   0  0  0  0  0  0  0  0  0  0  0  0
  134.9077  125.2040   59.9559 H   0  0  0  0  0  0  0  0  0  0  0  0
  131.9875  122.3571   58.5274 H   0  0  0  0  0  0  0  0  0  0  0  0
  131.0877  123.9413   60.1710 H   0  0  0  0  0  0  0  0  0  0  0  0
  130.0557  127.0070   61.7668 H   0  0  0  0  0  0  0  0  0  0  0  0
  131.4148  126.3149   60.7833 H   0  0  0  0  0  0  0  0  0  0  0  0
  131.4280  128.8417   60.9371 H   0  0  0  0  0  0  0  0  0  0  0  0
  131.3583  128.1853   59.2570 H   0  0  0  0  0  0  0  0  0  0  0  0
  128.9069  133.5449   59.5384 H   0  0  0  0  0  0  0  0  0  0  0  0
  126.6387  134.5426   59.8257 H   0  0  0  0  0  0  0  0  0  0  0  0
  1  2  2  0
  2  3  2  0
  2  4  1  0
  4  5  1  0
  5  6  1  0
  6  7  1  0
  7  8  1  0
  8  9  1  0
  9 10  1  0
 10 11  1  0
  2 12  1  0
 12 13  2  0
 13 14  1  0
 14 15  2  0
 15 16  1  0
 16 17  2  0
 16 18  2  0
 16 19  1  0
 19 20  1  0
 20 21  1  0
 21 22  1  0
 22 23  1  0
 23 24  2  0
 24 25  1  0
 25 26  1  0
 25 27  2  0
 27 28  1  0
 28 29  2  0
 29 30  1  0
 30 31  1  0
 31 32  1  0
 32 33  2  0
 33 34  1  0
 34 35  2  0
 35 36  1  0
 36 37  1  0
 36 38  2  0
 30 39  1  0
 39 40  2  0
 22 41  1  0
 41 42  1  0
 15 43  1  0
 43 44  2  0
 11  5  1  0
 44 12  1  0
 42 19  1  0
 40 23  1  0
 39 27  1  0
 38 32  1  0
  4 45  1  0
  5 46  1  0
  6 47  1  0
  6 48  1  0
  7 49  1  0
  7 50  1  0
  8 51  1  0
  8 52  1  0
  9 53  1  0
  9 54  1  0
 10 55  1  0
 10 56  1  0
 11 57  1  0
 11 58  1  0
 13 59  1  0
 14 60  1  0
 20 61  1  0
 20 62  1  0
 21 63  1  0
 21 64  1  0
 22 65  1  0
 24 66  1  0
 26 67  1  0
 31 68  1  0
 31 69  1  0
 33 70  1  0
 34 71  1  0
 35 72  1  0
 38 73  1  0
 40 74  1  0
 41 75  1  0
 41 76  1  0
 42 77  1  0
 42 78  1  0
 43 79  1  0
 44 80  1  0
M  END
>  <Binding energies>  (1) 
[-7.82]

>  <Ligand effiencies>  (1) 
[-0.16291666666666668]

>  <Interactions>  (1) 
["V-B:ALA:541:CB:9864, V-B:TYR:539:CD2:9846, V-A:LEU:475:CD2:4259, H-B:GLU:543:OE1:9881, V-A:ILE:369:CG2:3237, V-B:TYR:539:CE2:9848, V-B:PRO:540:C:9853, V-B:PRO:540:CA:9855, V-B:ILE:369:CD1:8211, V-A:TYR:539:CE1:4875, V-A:TYR:539:CD1:4873, V-B:ILE:369:CG2:8209, V-B:ARG:545:CZ:9898, V-B:LEU:475:CD2:9231, H-A:ALA:541:N:4891, V-B:GLY:454:CA:9021, V-A:TYR:539:C:4867, V-A:ASP:366:CG:3213, V-A:GLY:454:CA:4049, V-A:ILE:369:CD1:3239, V-A:GLY:453:C:4042, V-B:TYR:484:CZ:9319, H-B:ALA:541:N:9863, V-A:ASP:366:CB:3212, V-A:ASP:366:C:3208, V-A:ASP:366:CA:3210, V-A:ILE:369:CB:3236, V-B:TYR:539:CZ:9849, H-B:SER:385:OG:8382, H-B:SER:385:O:8378"]

$$$$
RR17_Rahimova_2017
     RDKit          3D

 63 66  0  0  0  0  0  0  0  0999 V2000
  127.7890  136.3420   61.3580 C   0  0  0  0  0  0  0  0  0  0  0  0
  126.7470  136.4050   60.2370 C   0  0  0  0  0  0  0  0  0  0  0  0
  125.5730  135.7200   60.6650 O   0  0  0  0  0  0  0  0  0  0  0  0
  125.5230  134.3410   60.5730 C   0  0  0  0  0  0  0  0  0  0  0  0
  124.2960  133.7430   60.8570 C   0  0  0  0  0  0  0  0  0  0  0  0
  124.1490  132.3610   60.7920 C   0  0  0  0  0  0  0  0  0  0  0  0
  125.2330  131.5440   60.4420 C   0  0  0  0  0  0  0  0  0  0  0  0
  125.0440  130.0560   60.3790 C   0  0  0  0  0  0  0  0  0  0  0  0
  124.7740  129.4670   59.3280 O   0  0  0  0  0  0  0  0  0  0  0  0
  125.1860  129.2750   61.7040 C   0  0  0  0  0  0  0  0  0  0  0  0
  124.3710  130.1300   63.1000 S   0  0  0  0  0  0  0  0  0  0  0  0
  125.3430  129.5130   64.4450 C   0  0  0  0  0  0  0  0  0  0  0  0
  124.8750  128.8700   65.4890 N   0  0  0  0  0  0  0  0  0  0  0  0
  125.9500  128.5500   66.3090 N   0  0  0  0  0  0  0  0  0  0  0  0
  127.0290  129.0080   65.7270 C   0  0  0  0  0  0  0  0  0  0  0  0
  128.4380  128.8630   66.2820 C   0  0  0  0  0  0  0  0  0  0  0  0
  128.6260  127.6750   67.1120 N   0  0  0  0  0  0  0  0  0  0  0  0
  129.0250  127.7200   68.4600 C   0  0  0  0  0  0  0  0  0  0  0  0
  128.2930  126.9600   69.3720 C   0  0  0  0  0  0  0  0  0  0  0  0
  128.6310  126.9620   70.7220 C   0  0  0  0  0  0  0  0  0  0  0  0
  129.7110  127.7240   71.1760 C   0  0  0  0  0  0  0  0  0  0  0  0
  130.0660  127.7210   72.6630 C   0  0  0  0  0  0  0  0  0  0  0  0
  129.4560  126.7350   73.3250 F   0  0  0  0  0  0  0  0  0  0  0  0
  131.3810  127.5750   72.8270 F   0  0  0  0  0  0  0  0  0  0  0  0
  129.6930  128.8810   73.2030 F   0  0  0  0  0  0  0  0  0  0  0  0
  130.4520  128.4810   70.2620 C   0  0  0  0  0  0  0  0  0  0  0  0
  130.1140  128.4770   68.9120 C   0  0  0  0  0  0  0  0  0  0  0  0
  126.7140  129.6430   64.5430 N   0  0  0  0  0  0  0  0  0  0  0  0
  127.5910  130.2520   63.6330 C   0  0  0  0  0  0  0  0  0  0  0  0
  127.8440  131.6200   63.7310 C   0  0  0  0  0  0  0  0  0  0  0  0
  128.7120  132.2230   62.8260 C   0  0  0  0  0  0  0  0  0  0  0  0
  129.3290  131.4610   61.8200 C   0  0  0  0  0  0  0  0  0  0  0  0
  130.2030  131.9740   60.8810 O   0  0  0  0  0  0  0  0  0  0  0  0
  131.4590  131.3360   60.6800 C   0  0  0  0  0  0  0  0  0  0  0  0
  129.0620  130.0930   61.7360 C   0  0  0  0  0  0  0  0  0  0  0  0
  128.1960  129.4830   62.6390 C   0  0  0  0  0  0  0  0  0  0  0  0
  126.4670  132.1470   60.1550 C   0  0  0  0  0  0  0  0  0  0  0  0
  126.6110  133.5300   60.2200 C   0  0  0  0  0  0  0  0  0  0  0  0
  127.2808  136.3727   62.3331 H   0  0  0  0  0  0  0  0  0  0  0  0
  128.3630  135.4075   61.2730 H   0  0  0  0  0  0  0  0  0  0  0  0
  128.4714  137.2005   61.2730 H   0  0  0  0  0  0  0  0  0  0  0  0
  126.5034  137.4548   60.0168 H   0  0  0  0  0  0  0  0  0  0  0  0
  127.1461  135.9321   59.3275 H   0  0  0  0  0  0  0  0  0  0  0  0
  123.4359  134.3698   61.1351 H   0  0  0  0  0  0  0  0  0  0  0  0
  123.1735  131.9054   61.0173 H   0  0  0  0  0  0  0  0  0  0  0  0
  124.7286  128.2822   61.5809 H   0  0  0  0  0  0  0  0  0  0  0  0
  126.2583  129.1955   61.9361 H   0  0  0  0  0  0  0  0  0  0  0  0
  129.1399  128.8100   65.4367 H   0  0  0  0  0  0  0  0  0  0  0  0
  128.6197  129.7358   66.9263 H   0  0  0  0  0  0  0  0  0  0  0  0
  128.6700  126.7840   66.6410 H   0  0  0  0  0  0  0  0  0  0  0  0
  127.4433  126.3553   69.0221 H   0  0  0  0  0  0  0  0  0  0  0  0
  128.0460  126.3617   71.4343 H   0  0  0  0  0  0  0  0  0  0  0  0
  131.3048  129.0814   70.6117 H   0  0  0  0  0  0  0  0  0  0  0  0
  130.7037  129.0701   68.1975 H   0  0  0  0  0  0  0  0  0  0  0  0
  127.3609  132.2178   64.5179 H   0  0  0  0  0  0  0  0  0  0  0  0
  128.9160  133.3015   62.8986 H   0  0  0  0  0  0  0  0  0  0  0  0
  131.9132  131.1053   61.6549 H   0  0  0  0  0  0  0  0  0  0  0  0
  131.3106  130.4040   60.1149 H   0  0  0  0  0  0  0  0  0  0  0  0
  132.1241  132.0055   60.1149 H   0  0  0  0  0  0  0  0  0  0  0  0
  129.5405  129.4918   60.9489 H   0  0  0  0  0  0  0  0  0  0  0  0
  127.9907  128.4046   62.5693 H   0  0  0  0  0  0  0  0  0  0  0  0
  127.3279  131.5216   59.8763 H   0  0  0  0  0  0  0  0  0  0  0  0
  127.5843  133.9895   59.9930 H   0  0  0  0  0  0  0  0  0  0  0  0
  1  2  1  0
  2  3  1  0
  3  4  1  0
  4  5  2  0
  5  6  1  0
  6  7  2  0
  7  8  1  0
  8  9  2  0
  8 10  1  0
 10 11  1  0
 11 12  1  0
 12 13  2  0
 13 14  1  0
 14 15  2  0
 15 16  1  0
 16 17  1  0
 17 18  1  0
 18 19  2  0
 19 20  1  0
 20 21  2  0
 21 22  1  0
 22 23  1  0
 22 24  1  0
 22 25  1  0
 21 26  1  0
 26 27  2  0
 15 28  1  0
 28 29  1  0
 29 30  2  0
 30 31  1  0
 31 32  2  0
 32 33  1  0
 33 34  1  0
 32 35  1  0
 35 36  2  0
  7 37  1  0
 37 38  2  0
 38  4  1  0
 28 12  1  0
 36 29  1  0
 27 18  1  0
  1 39  1  0
  1 40  1  0
  1 41  1  0
  2 42  1  0
  2 43  1  0
  5 44  1  0
  6 45  1  0
 10 46  1  0
 10 47  1  0
 16 48  1  0
 16 49  1  0
 17 50  1  0
 19 51  1  0
 20 52  1  0
 26 53  1  0
 27 54  1  0
 30 55  1  0
 31 56  1  0
 34 57  1  0
 34 58  1  0
 34 59  1  0
 35 60  1  0
 36 61  1  0
 37 62  1  0
 38 63  1  0
M  END
>  <Binding energies>  (1) 
[-8.33]

>  <Ligand effiencies>  (1) 
[-0.21358974358974359]

>  <Interactions>  (1) 
["H-B:GLU:543:OE2:9882, V-B:GLU:543:CD:9880, H-A:GLU:543:OE2:4910, V-A:GLU:543:CD:4908, V-B:ILE:369:CD1:8211, V-A:TYR:539:CE1:4875, V-A:PRO:540:CA:4883, V-A:ALA:541:CB:4892, V-A:TYR:539:CD1:4873, V-A:GLU:543:CG:4907, V-B:ILE:369:CG2:8209, V-B:ARG:545:CZ:9898, V-B:LEU:475:CD2:9231, H-A:ALA:541:N:4891, H-B:GLY:454:N:9022, H-B:ARG:545:NE:9896, H-B:TYR:484:OH:9320, V-B:HIS:456:CE1:9042, V-A:PRO:540:CB:4885, V-B:HIS:456:CD2:9040, V-A:LYS:547:CE:4950, V-A:HIS:456:CD2:4068, V-A:HIS:456:CG:4066, V-A:GLY:544:C:4912, V-B:TYR:484:CZ:9319, V-B:ASP:366:CG:8185, V-B:PRO:482:CG:9299, V-B:PRO:482:CB:9298, H-B:ARG:545:NH2:9900, V-A:HIS:456:CE1:4070, V-A:GLU:543:CB:4906, V-B:TYR:484:CE2:9318, V-A:GLU:543:CA:4904, V-A:GLU:543:C:4902, V-A:GLY:544:CA:4914, V-B:LYS:547:CE:9922, H-B:SER:385:OG:8382, V-A:TYR:539:CB:4871"]

$$$$
RR18_Rahimova_2017
     RDKit          3D

 56 61  0  0  0  0  0  0  0  0999 V2000
  127.2160  122.8780   58.3280 C   0  0  0  0  0  0  0  0  0  0  0  0
  127.7530  123.6790   59.4870 C   0  0  0  0  0  0  0  0  0  0  0  0
  127.2090  124.1450   60.6730 C   0  0  0  0  0  0  0  0  0  0  0  0
  128.2230  124.8340   61.3370 C   0  0  0  0  0  0  0  0  0  0  0  0
  129.3490  124.7650   60.5340 C   0  0  0  0  0  0  0  0  0  0  0  0
  130.7760  125.2920   60.6640 C   0  0  1  0  0  0  0  0  0  0  0  0
  131.8040  124.3280   60.0000 C   0  0  0  0  0  0  0  0  0  0  0  0
  132.0110  122.9860   60.5350 C   0  0  0  0  0  0  0  0  0  0  0  0
  133.0030  122.7000   61.2090 O   0  0  0  0  0  0  0  0  0  0  0  0
  131.0200  122.1120   60.2400 N   0  0  0  0  0  0  0  0  0  0  0  0
  130.8830  120.7450   60.5620 C   0  0  0  0  0  0  0  0  0  0  0  0
  131.7390  119.7420   60.0690 C   0  0  0  0  0  0  0  0  0  0  0  0
  131.5440  118.4080   60.4210 C   0  0  0  0  0  0  0  0  0  0  0  0
  130.4930  118.0530   61.2610 C   0  0  0  0  0  0  0  0  0  0  0  0
  129.6310  119.0330   61.7470 C   0  0  0  0  0  0  0  0  0  0  0  0
  129.8140  120.3760   61.4040 C   0  0  0  0  0  0  0  0  0  0  0  0
  128.8390  121.4100   61.9600 C   0  0  0  0  0  0  0  0  0  0  0  0
  132.4210  124.7270   58.8580 C   0  0  0  0  0  0  0  0  0  0  0  0
  132.3020  125.9650   58.3020 N   0  0  0  0  0  0  0  0  0  0  0  0
  131.6290  126.8690   58.9140 C   0  0  0  0  0  0  0  0  0  0  0  0
  131.5130  128.5360   58.4030 S   0  0  0  0  0  0  0  0  0  0  0  0
  130.4830  128.9500   59.8090 C   0  0  0  0  0  0  0  0  0  0  0  0
  129.9530  130.1840   60.1180 C   0  0  0  0  0  0  0  0  0  0  0  0
  130.2800  131.3590   59.2980 C   0  0  0  0  0  0  0  0  0  0  0  0
  130.9780  131.4510   58.2880 O   0  0  0  0  0  0  0  0  0  0  0  0
  129.6780  132.4150   59.8550 N   0  0  0  0  0  0  0  0  0  0  0  0
  128.9420  132.0880   60.9530 C   0  0  0  0  0  0  0  0  0  0  0  0
  128.1830  132.9380   61.7570 C   0  0  0  0  0  0  0  0  0  0  0  0
  127.4720  132.3970   62.8240 C   0  0  0  0  0  0  0  0  0  0  0  0
  127.5250  131.0240   63.0620 C   0  0  0  0  0  0  0  0  0  0  0  0
  128.2940  130.1940   62.2430 C   0  0  0  0  0  0  0  0  0  0  0  0
  129.0380  130.7250   61.1730 C   0  0  0  0  0  0  0  0  0  0  0  0
  130.3020  127.7380   60.6090 C   0  0  0  0  0  0  0  0  0  0  0  0
  129.6980  127.6500   61.6740 O   0  0  0  0  0  0  0  0  0  0  0  0
  130.9140  126.6600   60.0490 N   0  0  0  0  0  0  0  0  0  0  0  0
  129.0540  124.0610   59.4080 O   0  0  0  0  0  0  0  0  0  0  0  0
  126.6415  122.0210   58.7095 H   0  0  0  0  0  0  0  0  0  0  0  0
  126.5614  123.5144   57.7145 H   0  0  0  0  0  0  0  0  0  0  0  0
  128.0534  122.5142   57.7145 H   0  0  0  0  0  0  0  0  0  0  0  0
  126.1764  123.9995   61.0231 H   0  0  0  0  0  0  0  0  0  0  0  0
  128.1437  125.3364   62.3124 H   0  0  0  0  0  0  0  0  0  0  0  0
  130.9905  125.3573   61.7409 H   0  0  0  0  0  0  0  0  0  0  0  0
  130.2250  122.4980   59.7540 H   0  0  0  0  0  0  0  0  0  0  0  0
  132.5689  120.0137   59.4001 H   0  0  0  0  0  0  0  0  0  0  0  0
  132.2226  117.6336   60.0339 H   0  0  0  0  0  0  0  0  0  0  0  0
  130.3432  116.9998   61.5408 H   0  0  0  0  0  0  0  0  0  0  0  0
  128.7984  118.7477   62.4069 H   0  0  0  0  0  0  0  0  0  0  0  0
  128.8640  121.3835   63.0594 H   0  0  0  0  0  0  0  0  0  0  0  0
  129.1286  122.4121   61.6107 H   0  0  0  0  0  0  0  0  0  0  0  0
  127.8217  121.1797   61.6107 H   0  0  0  0  0  0  0  0  0  0  0  0
  133.0640  123.9972   58.3443 H   0  0  0  0  0  0  0  0  0  0  0  0
  129.7490  133.3500   59.4820 H   0  0  0  0  0  0  0  0  0  0  0  0
  128.1469  134.0180   61.5512 H   0  0  0  0  0  0  0  0  0  0  0  0
  126.8717  133.0487   63.4759 H   0  0  0  0  0  0  0  0  0  0  0  0
  126.9578  130.5920   63.8997 H   0  0  0  0  0  0  0  0  0  0  0  0
  128.3184  129.1115   62.4369 H   0  0  0  0  0  0  0  0  0  0  0  0
  1  2  1  0
  2  3  2  0
  3  4  1  0
  4  5  2  0
  5  6  1  0
  6  7  1  0
  7  8  1  0
  8  9  2  0
  8 10  1  0
 10 11  1  0
 11 12  2  0
 12 13  1  0
 13 14  2  0
 14 15  1  0
 15 16  2  0
 16 17  1  0
  7 18  2  0
 18 19  1  0
 19 20  2  0
 20 21  1  0
 21 22  1  0
 22 23  2  0
 23 24  1  0
 24 25  2  0
 24 26  1  0
 26 27  1  0
 27 28  2  0
 28 29  1  0
 29 30  2  0
 30 31  1  0
 31 32  2  0
 22 33  1  0
 33 34  2  0
 33 35  1  0
  5 36  1  0
 36  2  1  0
 35  6  1  0
 16 11  1  0
 35 20  1  0
 32 23  1  0
 32 27  1  0
  1 37  1  0
  1 38  1  0
  1 39  1  0
  3 40  1  0
  4 41  1  0
  6 42  1  1
 10 43  1  0
 12 44  1  0
 13 45  1  0
 14 46  1  0
 15 47  1  0
 17 48  1  0
 17 49  1  0
 17 50  1  0
 18 51  1  0
 26 52  1  0
 28 53  1  0
 29 54  1  0
 30 55  1  0
 31 56  1  0
M  END
>  <Binding energies>  (1) 
[-7.89]

>  <Ligand effiencies>  (1) 
[-0.20763157894736842]

>  <Interactions>  (1) 
["V-B:ALA:541:CB:9864, V-B:TYR:539:CD2:9846, V-A:PRO:482:CG:4327, V-A:PRO:482:CB:4326, V-B:TYR:539:C:9839, V-A:LEU:475:CD1:4258, V-A:LEU:475:CD2:4259, V-B:GLU:543:CD:9880, V-A:SER:385:CB:3409, V-B:TYR:539:CE2:9848, V-A:GLU:543:CD:4908, V-B:PRO:540:C:9853, V-B:ALA:541:CA:9862, V-B:PRO:540:CA:9855, V-A:PRO:540:CA:4883, V-A:ALA:541:CB:4892, V-A:PRO:540:C:4881, V-B:LEU:475:CD2:9231, V-A:TYR:539:C:4867, V-A:ASP:366:CG:3213, V-A:LEU:475:CG:4257, V-A:ASP:366:CB:3212, V-A:PRO:540:N:4884, V-B:PRO:540:N:9856, H-A:TYR:539:O:4868"]

$$$$
RR19_Rahimova_2017
     RDKit          3D

 72 77  0  0  0  0  0  0  0  0999 V2000
  124.9460  128.2620   61.4630 O   0  0  0  0  0  0  0  0  0  0  0  0
  126.0290  128.3940   62.0420 C   0  0  0  0  0  0  0  0  0  0  0  0
  127.1110  127.5860   61.9010 N   0  0  0  0  0  0  0  0  0  0  0  0
  127.4310  126.5980   61.0030 C   0  0  0  0  0  0  0  0  0  0  0  0
  126.5880  126.2530   59.5760 S   0  0  0  0  0  0  0  0  0  0  0  0
  128.5470  125.9390   61.4550 N   0  0  0  0  0  0  0  0  0  0  0  0
  129.3510  124.9970   60.9010 C   0  0  0  0  0  0  0  0  0  0  0  0
  129.3480  124.6330   59.7220 O   0  0  0  0  0  0  0  0  0  0  0  0
  130.3300  124.3370   61.9050 C   0  0  2  0  0  0  0  0  0  0  0  0
  131.6770  125.0930   62.0950 C   0  0  0  0  0  0  0  0  0  0  0  0
  132.1200  125.2740   63.5380 C   0  0  0  0  0  0  0  0  0  0  0  0
  131.1780  125.5420   64.5560 C   0  0  0  0  0  0  0  0  0  0  0  0
  131.5910  125.6270   65.8790 C   0  0  0  0  0  0  0  0  0  0  0  0
  132.9260  125.4300   66.2100 C   0  0  0  0  0  0  0  0  0  0  0  0
  133.8580  125.1360   65.2230 C   0  0  0  0  0  0  0  0  0  0  0  0
  133.4660  125.0450   63.8950 C   0  0  0  0  0  0  0  0  0  0  0  0
  130.5500  122.9010   61.5810 N   0  0  0  0  0  0  0  0  0  0  0  0
  129.6860  121.9370   62.0080 C   0  0  0  0  0  0  0  0  0  0  0  0
  128.6790  122.0920   62.7030 O   0  0  0  0  0  0  0  0  0  0  0  0
  130.2080  120.6630   61.4570 C   0  0  0  0  0  0  0  0  0  0  0  0
  129.7370  119.3550   61.5740 C   0  0  0  0  0  0  0  0  0  0  0  0
  130.4390  118.3300   60.9300 C   0  0  0  0  0  0  0  0  0  0  0  0
  131.5900  118.6220   60.1850 C   0  0  0  0  0  0  0  0  0  0  0  0
  132.0460  119.9410   60.0800 C   0  0  0  0  0  0  0  0  0  0  0  0
  131.3320  120.9480   60.7310 C   0  0  0  0  0  0  0  0  0  0  0  0
  131.5580  122.4130   60.7960 C   0  0  0  0  0  0  0  0  0  0  0  0
  132.4590  123.0510   60.2500 O   0  0  0  0  0  0  0  0  0  0  0  0
  126.2240  129.5620   63.0440 C   0  0  2  0  0  0  0  0  0  0  0  0
  125.5470  129.3280   64.4250 C   0  0  0  0  0  0  0  0  0  0  0  0
  126.4660  128.7110   65.4640 C   0  0  0  0  0  0  0  0  0  0  0  0
  127.8050  129.1460   65.5730 C   0  0  0  0  0  0  0  0  0  0  0  0
  128.6140  128.6540   66.5900 C   0  0  0  0  0  0  0  0  0  0  0  0
  128.1040  127.7560   67.5180 C   0  0  0  0  0  0  0  0  0  0  0  0
  126.7770  127.3490   67.4470 C   0  0  0  0  0  0  0  0  0  0  0  0
  125.9520  127.8280   66.4380 C   0  0  0  0  0  0  0  0  0  0  0  0
  125.8620  130.8930   62.4780 N   0  0  0  0  0  0  0  0  0  0  0  0
  126.8080  131.7490   61.9970 C   0  0  0  0  0  0  0  0  0  0  0  0
  128.0270  131.5770   61.9730 O   0  0  0  0  0  0  0  0  0  0  0  0
  126.0560  132.9310   61.5080 C   0  0  0  0  0  0  0  0  0  0  0  0
  126.4990  134.1180   60.9220 C   0  0  0  0  0  0  0  0  0  0  0  0
  125.5490  135.0760   60.5490 C   0  0  0  0  0  0  0  0  0  0  0  0
  124.1850  134.8380   60.7620 C   0  0  0  0  0  0  0  0  0  0  0  0
  123.7610  133.6410   61.3490 C   0  0  0  0  0  0  0  0  0  0  0  0
  124.7240  132.6990   61.7150 C   0  0  0  0  0  0  0  0  0  0  0  0
  124.5860  131.3620   62.3420 C   0  0  0  0  0  0  0  0  0  0  0  0
  123.5430  130.7960   62.6710 O   0  0  0  0  0  0  0  0  0  0  0  0
  127.8690  127.8250   62.5240 H   0  0  0  0  0  0  0  0  0  0  0  0
  128.7590  126.1220   62.4240 H   0  0  0  0  0  0  0  0  0  0  0  0
  129.8286  124.4068   62.8816 H   0  0  0  0  0  0  0  0  0  0  0  0
  132.4606  124.5302   61.5666 H   0  0  0  0  0  0  0  0  0  0  0  0
  131.5177  126.1054   61.6954 H   0  0  0  0  0  0  0  0  0  0  0  0
  130.1174  125.6833   64.3007 H   0  0  0  0  0  0  0  0  0  0  0  0
  130.8583  125.8512   66.6682 H   0  0  0  0  0  0  0  0  0  0  0  0
  133.2465  125.5073   67.2594 H   0  0  0  0  0  0  0  0  0  0  0  0
  134.9115  124.9746   65.4953 H   0  0  0  0  0  0  0  0  0  0  0  0
  134.2051  124.7941   63.1198 H   0  0  0  0  0  0  0  0  0  0  0  0
  128.8328  119.1341   62.1602 H   0  0  0  0  0  0  0  0  0  0  0  0
  130.0863  117.2911   61.0087 H   0  0  0  0  0  0  0  0  0  0  0  0
  132.1368  117.8114   59.6811 H   0  0  0  0  0  0  0  0  0  0  0  0
  132.9479  120.1789   59.4968 H   0  0  0  0  0  0  0  0  0  0  0  0
  127.3081  129.5764   63.2300 H   0  0  0  0  0  0  0  0  0  0  0  0
  125.1944  130.2976   64.8066 H   0  0  0  0  0  0  0  0  0  0  0  0
  124.7258  128.6147   64.2612 H   0  0  0  0  0  0  0  0  0  0  0  0
  128.2074  129.8740   64.8532 H   0  0  0  0  0  0  0  0  0  0  0  0
  129.6630  128.9774   66.6602 H   0  0  0  0  0  0  0  0  0  0  0  0
  128.7541  127.3643   68.3142 H   0  0  0  0  0  0  0  0  0  0  0  0
  126.3789  126.6450   68.1926 H   0  0  0  0  0  0  0  0  0  0  0  0
  124.8970  127.5191   66.3977 H   0  0  0  0  0  0  0  0  0  0  0  0
  127.5717  134.2967   60.7569 H   0  0  0  0  0  0  0  0  0  0  0  0
  125.8748  136.0195   60.0868 H   0  0  0  0  0  0  0  0  0  0  0  0
  123.4442  135.5955   60.4664 H   0  0  0  0  0  0  0  0  0  0  0  0
  122.6917  133.4463   61.5185 H   0  0  0  0  0  0  0  0  0  0  0  0
  1  2  2  0
  2  3  1  0
  3  4  1  0
  4  5  2  0
  4  6  1  0
  6  7  1  0
  7  8  2  0
  7  9  1  0
  9 10  1  0
 10 11  1  0
 11 12  2  0
 12 13  1  0
 13 14  2  0
 14 15  1  0
 15 16  2  0
  9 17  1  0
 17 18  1  0
 18 19  2  0
 18 20  1  0
 20 21  2  0
 21 22  1  0
 22 23  2  0
 23 24  1  0
 24 25  2  0
 25 26  1  0
 26 27  2  0
  2 28  1  0
 28 29  1  0
 29 30  1  0
 30 31  2  0
 31 32  1  0
 32 33  2  0
 33 34  1  0
 34 35  2  0
 28 36  1  0
 36 37  1  0
 37 38  2  0
 37 39  1  0
 39 40  2  0
 40 41  1  0
 41 42  2  0
 42 43  1  0
 43 44  2  0
 44 45  1  0
 45 46  2  0
 16 11  1  0
 26 17  1  0
 35 30  1  0
 45 36  1  0
 25 20  1  0
 44 39  1  0
  3 47  1  0
  6 48  1  0
  9 49  1  1
 10 50  1  0
 10 51  1  0
 12 52  1  0
 13 53  1  0
 14 54  1  0
 15 55  1  0
 16 56  1  0
 21 57  1  0
 22 58  1  0
 23 59  1  0
 24 60  1  0
 28 61  1  1
 29 62  1  0
 29 63  1  0
 31 64  1  0
 32 65  1  0
 33 66  1  0
 34 67  1  0
 35 68  1  0
 40 69  1  0
 41 70  1  0
 42 71  1  0
 43 72  1  0
M  END
>  <Binding energies>  (1) 
[-10.12]

>  <Ligand effiencies>  (1) 
[-0.21083333333333332]

>  <Interactions>  (1) 
["V-B:ALA:541:CB:9864, V-B:TYR:539:CD2:9846, V-A:TYR:484:CZ:4347, H-B:GLU:543:OE2:9882, V-A:TYR:484:CE1:4345, V-A:PRO:482:CB:4326, V-A:LEU:475:CD1:4258, V-A:LEU:475:CD2:4259, V-B:GLU:543:CD:9880, V-A:SER:385:CB:3409, H-B:GLU:543:OE1:9881, V-B:TYR:539:CE2:9848, V-A:GLU:543:CD:4908, V-A:ARG:545:CZ:4926, H-A:TYR:484:OH:4348, V-B:SER:385:C:8377, V-B:ILE:369:CD1:8211, V-A:TYR:539:CE1:4875, V-B:SER:385:CA:8379, V-A:TYR:539:CD1:4873, V-B:SER:385:CB:8381, V-A:GLU:543:CG:4907, V-B:ILE:369:CG2:8209, V-B:ARG:545:CZ:9898, V-B:LEU:475:CD2:9231, H-B:GLY:454:N:9022, V-B:ARG:545:CD:9895, V-B:HIS:456:CE1:9042, V-B:ARG:545:CG:9894, V-A:LEU:475:CG:4257, V-A:GLY:454:CA:4049, V-A:GLY:453:CA:4044, V-A:GLY:453:C:4042, V-B:GLU:543:CB:9878, V-B:ASP:366:CG:8185, H-B:ALA:541:N:9863, H-B:ARG:545:NH2:9900, V-A:ARG:545:CG:4922, V-A:ARG:545:CD:4923, V-A:TYR:484:CE2:4346, V-A:HIS:456:CE1:4070, V-A:GLU:543:CB:4906"]

$$$$
RR19_Rahimova_2017-again1
     RDKit          3D

 71 76  0  0  0  0  0  0  0  0999 V2000
  128.8980  124.0690   59.3430 O   0  0  0  0  0  0  0  0  0  0  0  0
  129.0860  124.7230   60.3720 C   0  0  0  0  0  0  0  0  0  0  0  0
  128.5330  125.9250   60.6590 N   0  0  0  0  0  0  0  0  0  0  0  0
  127.5650  126.6710   60.0480 C   0  0  0  0  0  0  0  0  0  0  0  0
  126.7530  126.4170   58.5980 S   0  0  0  0  0  0  0  0  0  0  0  0
  127.2710  127.7170   60.9050 N   0  0  0  0  0  0  0  0  0  0  0  0
  127.0650  128.9640   60.6320 C   0  0  0  0  0  0  0  0  0  0  0  0
  126.9920  129.5500   59.5330 O   0  0  0  0  0  0  0  0  0  0  0  0
  126.8940  129.9030   61.8730 C   0  0  2  0  0  0  0  0  0  0  0  0
  125.8490  129.3270   62.8860 C   0  0  0  0  0  0  0  0  0  0  0  0
  126.4130  129.0180   64.2710 C   0  0  0  0  0  0  0  0  0  0  0  0
  127.7750  129.1970   64.5250 C   0  0  0  0  0  0  0  0  0  0  0  0
  128.2870  128.9300   65.7920 C   0  0  0  0  0  0  0  0  0  0  0  0
  127.4350  128.4810   66.8000 C   0  0  0  0  0  0  0  0  0  0  0  0
  126.0760  128.2970   66.5520 C   0  0  0  0  0  0  0  0  0  0  0  0
  125.5650  128.5630   65.2850 C   0  0  0  0  0  0  0  0  0  0  0  0
  126.6830  131.3440   61.5110 N   0  0  0  0  0  0  0  0  0  0  0  0
  125.4760  131.8010   61.0710 C   0  0  0  0  0  0  0  0  0  0  0  0
  124.4470  131.1470   60.9000 O   0  0  0  0  0  0  0  0  0  0  0  0
  125.6670  133.2550   60.8380 C   0  0  0  0  0  0  0  0  0  0  0  0
  124.7800  134.2320   60.3820 C   0  0  0  0  0  0  0  0  0  0  0  0
  125.2400  135.5470   60.2560 C   0  0  0  0  0  0  0  0  0  0  0  0
  126.5640  135.8670   60.5840 C   0  0  0  0  0  0  0  0  0  0  0  0
  127.4370  134.8740   61.0390 C   0  0  0  0  0  0  0  0  0  0  0  0
  126.9590  133.5680   61.1570 C   0  0  0  0  0  0  0  0  0  0  0  0
  127.6330  132.3250   61.6040 C   0  0  0  0  0  0  0  0  0  0  0  0
  128.7980  132.2070   61.9780 O   0  0  0  0  0  0  0  0  0  0  0  0
  130.0380  124.1680   61.4740 C   0  0  2  0  0  0  0  0  0  0  0  0
  131.3160  125.0280   61.6880 C   0  0  0  0  0  0  0  0  0  0  0  0
  131.6580  125.2730   63.1470 C   0  0  0  0  0  0  0  0  0  0  0  0
  130.6290  125.4980   64.0860 C   0  0  0  0  0  0  0  0  0  0  0  0
  130.9350  125.6230   65.4350 C   0  0  0  0  0  0  0  0  0  0  0  0
  132.2490  125.5000   65.8700 C   0  0  0  0  0  0  0  0  0  0  0  0
  133.2670  125.2410   64.9610 C   0  0  0  0  0  0  0  0  0  0  0  0
  132.9820  125.1120   63.6080 C   0  0  0  0  0  0  0  0  0  0  0  0
  130.3570  122.7150   61.3280 N   0  0  0  0  0  0  0  0  0  0  0  0
  129.5450  121.7500   61.8430 C   0  0  0  0  0  0  0  0  0  0  0  0
  128.5370  121.9110   62.5330 O   0  0  0  0  0  0  0  0  0  0  0  0
  130.1250  120.4620   61.3900 C   0  0  0  0  0  0  0  0  0  0  0  0
  129.7090  119.1460   61.6040 C   0  0  0  0  0  0  0  0  0  0  0  0
  130.4510  118.1080   61.0280 C   0  0  0  0  0  0  0  0  0  0  0  0
  131.5850  118.3940   60.2570 C   0  0  0  0  0  0  0  0  0  0  0  0
  131.9880  119.7190   60.0570 C   0  0  0  0  0  0  0  0  0  0  0  0
  131.2330  120.7400   60.6370 C   0  0  0  0  0  0  0  0  0  0  0  0
  131.3870  122.2150   60.5830 C   0  0  0  0  0  0  0  0  0  0  0  0
  132.2540  122.8510   59.9810 O   0  0  0  0  0  0  0  0  0  0  0  0
  128.8300  126.3090   61.5430 H   0  0  0  0  0  0  0  0  0  0  0  0
  127.8565  129.9134   62.4055 H   0  0  0  0  0  0  0  0  0  0  0  0
  125.0400  130.0634   63.0010 H   0  0  0  0  0  0  0  0  0  0  0  0
  125.5034  128.3698   62.4684 H   0  0  0  0  0  0  0  0  0  0  0  0
  128.4425  129.5487   63.7245 H   0  0  0  0  0  0  0  0  0  0  0  0
  129.3584  129.0726   65.9966 H   0  0  0  0  0  0  0  0  0  0  0  0
  127.8394  128.2699   67.8009 H   0  0  0  0  0  0  0  0  0  0  0  0
  125.4107  127.9434   67.3534 H   0  0  0  0  0  0  0  0  0  0  0  0
  124.4941  128.4152   65.0816 H   0  0  0  0  0  0  0  0  0  0  0  0
  123.7417  133.9732   60.1273 H   0  0  0  0  0  0  0  0  0  0  0  0
  124.5592  136.3333   59.8978 H   0  0  0  0  0  0  0  0  0  0  0  0
  126.9181  136.9035   60.4832 H   0  0  0  0  0  0  0  0  0  0  0  0
  128.4780  135.1169   61.2983 H   0  0  0  0  0  0  0  0  0  0  0  0
  129.4496  124.2553   62.3993 H   0  0  0  0  0  0  0  0  0  0  0  0
  132.1642  124.5106   61.2160 H   0  0  0  0  0  0  0  0  0  0  0  0
  131.1167  126.0118   61.2381 H   0  0  0  0  0  0  0  0  0  0  0  0
  129.5845  125.5744   63.7496 H   0  0  0  0  0  0  0  0  0  0  0  0
  130.1336  125.8202   66.1623 H   0  0  0  0  0  0  0  0  0  0  0  0
  132.4841  125.6082   66.9391 H   0  0  0  0  0  0  0  0  0  0  0  0
  134.3035  125.1376   65.3145 H   0  0  0  0  0  0  0  0  0  0  0  0
  133.7885  124.8843   62.8955 H   0  0  0  0  0  0  0  0  0  0  0  0
  128.8180  118.9299   62.2118 H   0  0  0  0  0  0  0  0  0  0  0  0
  130.1422  117.0634   61.1815 H   0  0  0  0  0  0  0  0  0  0  0  0
  132.1617  117.5728   59.8064 H   0  0  0  0  0  0  0  0  0  0  0  0
  132.8798  119.9509   59.4562 H   0  0  0  0  0  0  0  0  0  0  0  0
  1  2  2  0
  2  3  1  0
  3  4  1  0
  4  5  2  0
  4  6  1  0
  6  7  2  0
  7  8  1  0
  7  9  1  0
  9 10  1  0
 10 11  1  0
 11 12  2  0
 12 13  1  0
 13 14  2  0
 14 15  1  0
 15 16  2  0
  9 17  1  0
 17 18  1  0
 18 19  2  0
 18 20  1  0
 20 21  2  0
 21 22  1  0
 22 23  2  0
 23 24  1  0
 24 25  2  0
 25 26  1  0
 26 27  2  0
  2 28  1  0
 28 29  1  0
 29 30  1  0
 30 31  2  0
 31 32  1  0
 32 33  2  0
 33 34  1  0
 34 35  2  0
 28 36  1  0
 36 37  1  0
 37 38  2  0
 37 39  1  0
 39 40  2  0
 40 41  1  0
 41 42  2  0
 42 43  1  0
 43 44  2  0
 44 45  1  0
 45 46  2  0
 16 11  1  0
 26 17  1  0
 35 30  1  0
 45 36  1  0
 25 20  1  0
 44 39  1  0
  3 47  1  0
  9 48  1  1
 10 49  1  0
 10 50  1  0
 12 51  1  0
 13 52  1  0
 14 53  1  0
 15 54  1  0
 16 55  1  0
 21 56  1  0
 22 57  1  0
 23 58  1  0
 24 59  1  0
 28 60  1  1
 29 61  1  0
 29 62  1  0
 31 63  1  0
 32 64  1  0
 33 65  1  0
 34 66  1  0
 35 67  1  0
 40 68  1  0
 41 69  1  0
 42 70  1  0
 43 71  1  0
M  CHG  1   8  -1
M  END
>  <Binding energies>  (1) 
[-9.26]

>  <Ligand effiencies>  (1) 
[-0.19702127659574467]

>  <Interactions>  (1) 
["V-B:ALA:541:CB:9864, V-B:TYR:539:CD2:9846, V-A:TYR:484:CZ:4347, V-A:PRO:482:CG:4327, V-A:PRO:482:CB:4326, V-A:LEU:475:CD1:4258, V-A:LEU:475:CD2:4259, V-B:GLU:543:CD:9880, V-A:SER:385:CB:3409, V-B:TYR:539:CE2:9848, V-A:GLU:543:CD:4908, V-A:ARG:545:CZ:4926, V-A:TYR:539:CE1:4875, V-A:ALA:541:CB:4892, V-A:TYR:539:CD1:4873, V-B:SER:385:CB:8381, V-A:GLU:543:CG:4907, V-B:ILE:369:CG2:8209, V-B:ARG:545:CZ:9898, V-B:LEU:475:CD2:9231, V-B:ARG:545:CD:9895, V-B:HIS:456:CE1:9042, V-B:ARG:545:CG:9894, V-A:LEU:475:CG:4257, H-B:ALA:541:N:9863, V-A:ARG:545:CD:4923, V-A:TYR:484:CE2:4346, V-A:HIS:456:CE1:4070, V-A:GLU:543:CB:4906"]

$$$$
RR1_Rahimova_2017
     RDKit          3D

 68 71  0  0  0  0  0  0  0  0999 V2000
  129.5010  118.4050   74.8780 C   0  0  0  0  0  0  0  0  0  0  0  0
  128.7680  119.5530   75.2910 O   0  0  0  0  0  0  0  0  0  0  0  0
  129.3050  120.8070   75.0790 C   0  0  0  0  0  0  0  0  0  0  0  0
  129.5810  121.3470   73.8120 C   0  0  0  0  0  0  0  0  0  0  0  0
  130.1310  122.6200   73.6960 C   0  0  0  0  0  0  0  0  0  0  0  0
  130.4070  123.3770   74.8360 C   0  0  0  0  0  0  0  0  0  0  0  0
  131.0040  124.6330   74.6170 N   0  0  0  0  0  0  0  0  0  0  0  0
  130.6950  125.8320   75.1540 C   0  0  0  0  0  0  0  0  0  0  0  0
  129.7460  126.0380   75.9110 O   0  0  0  0  0  0  0  0  0  0  0  0
  131.6340  126.9780   74.7440 C   0  0  0  0  0  0  0  0  0  0  0  0
  131.2390  127.7820   73.1510 S   0  0  0  0  0  0  0  0  0  0  0  0
  129.4990  127.9320   73.3820 C   0  0  0  0  0  0  0  0  0  0  0  0
  128.9400  128.6970   74.2850 N   0  0  0  0  0  0  0  0  0  0  0  0
  127.6370  128.5130   74.0950 C   0  0  0  0  0  0  0  0  0  0  0  0
  126.5970  129.2190   74.9170 C   0  0  0  0  0  0  0  0  0  0  0  0
  126.9180  130.3360   75.7050 C   0  0  0  0  0  0  0  0  0  0  0  0
  125.9300  130.9710   76.4610 C   0  0  0  0  0  0  0  0  0  0  0  0
  124.6310  130.4690   76.4100 C   0  0  0  0  0  0  0  0  0  0  0  0
  124.2850  129.3930   75.6600 N   0  0  0  0  0  0  0  0  0  0  0  0
  125.2600  128.7910   74.9320 C   0  0  0  0  0  0  0  0  0  0  0  0
  127.3200  127.6690   73.1310 N   0  0  0  0  0  0  0  0  0  0  0  0
  128.5170  127.2920   72.6710 N   0  0  0  0  0  0  0  0  0  0  0  0
  128.6220  126.3550   71.5530 C   0  0  0  0  0  0  0  0  0  0  0  0
  127.6560  126.6240   70.3860 C   0  0  0  0  0  0  0  0  0  0  0  0
  126.4330  126.6220   70.5640 O   0  0  0  0  0  0  0  0  0  0  0  0
  128.2490  126.8480   69.1980 N   0  0  0  0  0  0  0  0  0  0  0  0
  127.4510  127.2430   68.1330 N   0  0  0  0  0  0  0  0  0  0  0  0
  127.9640  128.1340   67.2570 C   0  0  0  0  0  0  0  0  0  0  0  0
  129.1310  128.5400   67.2850 O   0  0  0  0  0  0  0  0  0  0  0  0
  127.0150  128.6120   66.1770 C   0  0  0  0  0  0  0  0  0  0  0  0
  127.5010  128.8970   64.8960 C   0  0  0  0  0  0  0  0  0  0  0  0
  126.6490  129.3490   63.8930 C   0  0  0  0  0  0  0  0  0  0  0  0
  125.2810  129.5370   64.1440 C   0  0  0  0  0  0  0  0  0  0  0  0
  124.3840  129.9970   63.1960 O   0  0  0  0  0  0  0  0  0  0  0  0
  124.5680  129.6480   61.8290 C   0  0  0  0  0  0  0  0  0  0  0  0
  124.7760  129.2640   65.4220 C   0  0  0  0  0  0  0  0  0  0  0  0
  123.4230  129.4860   65.6230 O   0  0  0  0  0  0  0  0  0  0  0  0
  122.9220  129.6260   66.9480 C   0  0  0  0  0  0  0  0  0  0  0  0
  125.6460  128.8010   66.4250 C   0  0  0  0  0  0  0  0  0  0  0  0
  130.1320  122.8410   76.1040 C   0  0  0  0  0  0  0  0  0  0  0  0
  129.5820  121.5680   76.2150 C   0  0  0  0  0  0  0  0  0  0  0  0
  129.8518  117.8556   75.7641 H   0  0  0  0  0  0  0  0  0  0  0  0
  128.8519  117.7527   74.2754 H   0  0  0  0  0  0  0  0  0  0  0  0
  130.3659  118.7194   74.2754 H   0  0  0  0  0  0  0  0  0  0  0  0
  129.3614  120.7610   72.9074 H   0  0  0  0  0  0  0  0  0  0  0  0
  130.3496  123.0323   72.6999 H   0  0  0  0  0  0  0  0  0  0  0  0
  131.7480  124.6270   73.9330 H   0  0  0  0  0  0  0  0  0  0  0  0
  131.5959  127.7460   75.5306 H   0  0  0  0  0  0  0  0  0  0  0  0
  132.6283  126.5249   74.6169 H   0  0  0  0  0  0  0  0  0  0  0  0
  127.9514  130.7123   75.7270 H   0  0  0  0  0  0  0  0  0  0  0  0
  126.1715  131.8464   77.0818 H   0  0  0  0  0  0  0  0  0  0  0  0
  123.8513  130.9676   77.0045 H   0  0  0  0  0  0  0  0  0  0  0  0
  124.9871  127.9190   74.3195 H   0  0  0  0  0  0  0  0  0  0  0  0
  129.6495  126.4026   71.1633 H   0  0  0  0  0  0  0  0  0  0  0  0
  128.3522  125.3668   71.9538 H   0  0  0  0  0  0  0  0  0  0  0  0
  129.2300  127.0590   69.0720 H   0  0  0  0  0  0  0  0  0  0  0  0
  126.4750  127.2630   68.3910 H   0  0  0  0  0  0  0  0  0  0  0  0
  128.5709  128.7619   64.6791 H   0  0  0  0  0  0  0  0  0  0  0  0
  127.0523  129.5614   62.8919 H   0  0  0  0  0  0  0  0  0  0  0  0
  125.0801  128.6766   61.7643 H   0  0  0  0  0  0  0  0  0  0  0  0
  123.5886  129.5799   61.3329 H   0  0  0  0  0  0  0  0  0  0  0  0
  125.1776  130.4176   61.3329 H   0  0  0  0  0  0  0  0  0  0  0  0
  123.7227  129.4023   67.6683 H   0  0  0  0  0  0  0  0  0  0  0  0
  122.5698  130.6570   67.0998 H   0  0  0  0  0  0  0  0  0  0  0  0
  122.0864  128.9270   67.0998 H   0  0  0  0  0  0  0  0  0  0  0  0
  125.2453  128.5821   67.4258 H   0  0  0  0  0  0  0  0  0  0  0  0
  130.3512  123.4269   77.0088 H   0  0  0  0  0  0  0  0  0  0  0  0
  129.3627  121.1562   77.2112 H   0  0  0  0  0  0  0  0  0  0  0  0
  1  2  1  0
  2  3  1  0
  3  4  2  0
  4  5  1  0
  5  6  2  0
  6  7  1  0
  7  8  1  0
  8  9  2  0
  8 10  1  0
 10 11  1  0
 11 12  1  0
 12 13  2  0
 13 14  1  0
 14 15  1  0
 15 16  2  0
 16 17  1  0
 17 18  2  0
 18 19  1  0
 19 20  2  0
 14 21  2  0
 21 22  1  0
 22 23  1  0
 23 24  1  0
 24 25  2  0
 24 26  1  0
 26 27  1  0
 27 28  1  0
 28 29  2  0
 28 30  1  0
 30 31  2  0
 31 32  1  0
 32 33  2  0
 33 34  1  0
 34 35  1  0
 33 36  1  0
 36 37  1  0
 37 38  1  0
 36 39  2  0
  6 40  1  0
 40 41  2  0
 41  3  1  0
 22 12  1  0
 39 30  1  0
 20 15  1  0
  1 42  1  0
  1 43  1  0
  1 44  1  0
  4 45  1  0
  5 46  1  0
  7 47  1  0
 10 48  1  0
 10 49  1  0
 16 50  1  0
 17 51  1  0
 18 52  1  0
 20 53  1  0
 23 54  1  0
 23 55  1  0
 26 56  1  0
 27 57  1  0
 31 58  1  0
 32 59  1  0
 35 60  1  0
 35 61  1  0
 35 62  1  0
 38 63  1  0
 38 64  1  0
 38 65  1  0
 39 66  1  0
 40 67  1  0
 41 68  1  0
M  END
>  <Binding energies>  (1) 
[-7.82]

>  <Ligand effiencies>  (1) 
[-0.17772727272727273]

>  <Interactions>  (1) 
["H-B:GLU:543:OE2:9882, V-B:GLU:543:CD:9880, V-A:GLU:543:CD:4908, V-B:ARG:545:CZ:9898, H-B:GLY:454:N:9022, H-B:ARG:545:NE:9896, V-B:GLY:453:C:9014, H-B:TYR:484:OH:9320, V-B:GLY:454:C:9019, V-B:ILE:455:C:9024, V-B:GLY:454:CA:9021, V-B:GLY:453:CA:9016, V-B:ARG:545:CD:9895, H-B:ARG:545:NH1:9899, V-B:HIS:456:CE1:9042, V-B:ARG:545:CG:9894, V-B:ARG:545:CB:9893, H-B:LYS:547:NZ:9923, H-A:LYS:547:NZ:4951, V-B:HIS:456:CD2:9040, V-A:HIS:456:CB:4065, V-A:HIS:456:CD2:4068, V-B:GLY:544:C:9884, V-B:HIS:456:CG:9038, V-B:HIS:456:CB:9037, V-B:VAL:457:C:9045, V-A:ASP:473:CG:4240, V-B:VAL:458:CG2:9059, H-B:HIS:456:ND1:9039, V-B:GLU:543:CB:9878, V-B:TYR:484:CZ:9319, V-B:ASP:366:CG:8185, V-A:HIS:456:CE1:4070, V-B:GLU:543:C:9874, V-B:LYS:547:CE:9922, V-B:HIS:456:C:9033, H-B:HIS:456:NE2:9043, H-A:HIS:456:NE2:4071, H-B:ARG:545:N:9892, V-A:LYS:471:CE:4220, H-B:VAL:457:N:9048, V-B:LYS:471:CB:9189, H-A:ASP:473:OD1:4241, V-A:ASP:473:CB:4239, V-A:TYR:484:C:4337, V-A:PRO:486:CD:4366, V-A:ASP:485:CA:4353"]

$$$$
RR20_Rahimova_2017
     RDKit          3D

 68 73  0  0  0  0  0  0  0  0999 V2000
  133.8650  124.3710   75.9890 C   0  0  0  0  0  0  0  0  0  0  0  0
  133.0180  125.2450   75.0820 C   0  0  0  0  0  0  0  0  0  0  0  0
  133.6190  126.2590   74.3360 C   0  0  0  0  0  0  0  0  0  0  0  0
  132.8450  127.0570   73.4960 C   0  0  0  0  0  0  0  0  0  0  0  0
  131.4630  126.8550   73.4070 C   0  0  0  0  0  0  0  0  0  0  0  0
  130.6430  127.7190   72.4730 C   0  0  0  0  0  0  0  0  0  0  0  0
  130.8400  128.9360   72.5010 O   0  0  0  0  0  0  0  0  0  0  0  0
  129.7400  127.1290   71.6370 N   0  0  0  0  0  0  0  0  0  0  0  0
  128.6500  126.2830   72.1500 C   0  0  0  0  0  0  0  0  0  0  0  0
  127.7760  125.9400   70.9570 C   0  0  0  0  0  0  0  0  0  0  0  0
  128.2220  126.9260   69.9210 C   0  0  0  0  0  0  0  0  0  0  0  0
  127.7140  127.1480   68.6410 C   0  0  0  0  0  0  0  0  0  0  0  0
  128.3710  128.0060   67.7500 C   0  0  0  0  0  0  0  0  0  0  0  0
  127.8190  128.2520   66.3740 C   0  0  0  0  0  0  0  0  0  0  0  0
  128.6580  128.2510   65.3500 N   0  0  0  0  0  0  0  0  0  0  0  0
  128.0670  128.4540   64.2010 C   0  0  0  0  0  0  0  0  0  0  0  0
  128.6440  128.5090   62.9410 N   0  0  0  0  0  0  0  0  0  0  0  0
  128.1900  127.9150   61.8100 C   0  0  0  0  0  0  0  0  0  0  0  0
  127.1580  127.2450   61.7510 O   0  0  0  0  0  0  0  0  0  0  0  0
  129.0040  128.1130   60.5090 C   0  0  0  0  0  0  0  0  0  0  0  0
  130.2450  127.3180   60.4790 N   0  0  0  0  0  0  0  0  0  0  0  0
  130.3470  126.3930   61.6190 C   0  0  0  0  0  0  0  0  0  0  0  0
  131.7670  125.7870   61.6870 C   0  0  0  0  0  0  0  0  0  0  0  0
  132.2760  125.3030   60.3290 C   0  0  0  0  0  0  0  0  0  0  0  0
  133.4120  124.4920   60.2320 C   0  0  0  0  0  0  0  0  0  0  0  0
  133.8980  124.0830   58.9920 C   0  0  0  0  0  0  0  0  0  0  0  0
  133.2470  124.4820   57.8280 C   0  0  0  0  0  0  0  0  0  0  0  0
  132.1100  125.2820   57.9110 C   0  0  0  0  0  0  0  0  0  0  0  0
  131.6120  125.7010   59.1500 C   0  0  0  0  0  0  0  0  0  0  0  0
  130.3310  126.5310   59.2430 C   0  0  0  0  0  0  0  0  0  0  0  0
  126.3650  128.6830   64.3060 S   0  0  0  0  0  0  0  0  0  0  0  0
  126.4690  128.4960   66.0410 C   0  0  0  0  0  0  0  0  0  0  0  0
  125.2320  128.6290   66.9010 C   0  0  0  0  0  0  0  0  0  0  0  0
  129.5800  128.5930   68.1560 C   0  0  0  0  0  0  0  0  0  0  0  0
  130.1000  128.3580   69.4280 C   0  0  0  0  0  0  0  0  0  0  0  0
  129.3890  127.5660   70.3390 C   0  0  0  0  0  0  0  0  0  0  0  0
  130.8710  125.8170   74.1370 C   0  0  0  0  0  0  0  0  0  0  0  0
  131.6450  125.0180   74.9760 C   0  0  0  0  0  0  0  0  0  0  0  0
  133.6383  124.6049   77.0397 H   0  0  0  0  0  0  0  0  0  0  0  0
  133.6403  123.3123   75.7923 H   0  0  0  0  0  0  0  0  0  0  0  0
  134.9302  124.5624   75.7923 H   0  0  0  0  0  0  0  0  0  0  0  0
  134.7033  126.4285   74.4108 H   0  0  0  0  0  0  0  0  0  0  0  0
  133.3222  127.8491   72.9003 H   0  0  0  0  0  0  0  0  0  0  0  0
  129.0592  125.3655   72.5981 H   0  0  0  0  0  0  0  0  0  0  0  0
  128.0744  126.8035   72.9296 H   0  0  0  0  0  0  0  0  0  0  0  0
  127.9515  124.9071   70.6218 H   0  0  0  0  0  0  0  0  0  0  0  0
  126.6996  125.9972   71.1763 H   0  0  0  0  0  0  0  0  0  0  0  0
  126.7877  126.6439   68.3281 H   0  0  0  0  0  0  0  0  0  0  0  0
  129.4990  129.0430   62.8680 H   0  0  0  0  0  0  0  0  0  0  0  0
  128.3773  127.8167   59.6549 H   0  0  0  0  0  0  0  0  0  0  0  0
  129.2916  129.1736   60.4592 H   0  0  0  0  0  0  0  0  0  0  0  0
  130.1400  126.9399   62.5507 H   0  0  0  0  0  0  0  0  0  0  0  0
  129.6155  125.5816   61.4903 H   0  0  0  0  0  0  0  0  0  0  0  0
  132.4576  126.5542   62.0670 H   0  0  0  0  0  0  0  0  0  0  0  0
  131.7195  124.9116   62.3515 H   0  0  0  0  0  0  0  0  0  0  0  0
  133.9293  124.1725   61.1487 H   0  0  0  0  0  0  0  0  0  0  0  0
  134.7934  123.4467   58.9329 H   0  0  0  0  0  0  0  0  0  0  0  0
  133.6293  124.1665   56.8460 H   0  0  0  0  0  0  0  0  0  0  0  0
  131.5955  125.5893   56.9886 H   0  0  0  0  0  0  0  0  0  0  0  0
  130.2968  127.2198   58.3860 H   0  0  0  0  0  0  0  0  0  0  0  0
  129.4839  125.8293   59.2405 H   0  0  0  0  0  0  0  0  0  0  0  0
  125.5184  128.5982   67.9626 H   0  0  0  0  0  0  0  0  0  0  0  0
  124.7350  129.5858   66.6829 H   0  0  0  0  0  0  0  0  0  0  0  0
  124.5429  127.7998   66.6829 H   0  0  0  0  0  0  0  0  0  0  0  0
  130.1250  129.2479   67.4603 H   0  0  0  0  0  0  0  0  0  0  0  0
  131.0679  128.7941   69.7161 H   0  0  0  0  0  0  0  0  0  0  0  0
  129.7904  125.6316   74.0477 H   0  0  0  0  0  0  0  0  0  0  0  0
  131.1744  124.2092   75.5542 H   0  0  0  0  0  0  0  0  0  0  0  0
  1  2  1  0
  2  3  2  0
  3  4  1  0
  4  5  2  0
  5  6  1  0
  6  7  2  0
  6  8  1  0
  8  9  1  0
  9 10  1  0
 10 11  1  0
 11 12  2  0
 12 13  1  0
 13 14  1  0
 14 15  1  0
 15 16  2  0
 16 17  1  0
 17 18  1  0
 18 19  2  0
 18 20  1  0
 20 21  1  0
 21 22  1  0
 22 23  1  0
 23 24  1  0
 24 25  2  0
 25 26  1  0
 26 27  2  0
 27 28  1  0
 28 29  2  0
 29 30  1  0
 16 31  1  0
 31 32  1  0
 32 33  1  0
 13 34  2  0
 34 35  1  0
 35 36  2  0
  5 37  1  0
 37 38  2  0
 38  2  1  0
 36  8  1  0
 36 11  1  0
 32 14  2  0
 30 21  1  0
 29 24  1  0
  1 39  1  0
  1 40  1  0
  1 41  1  0
  3 42  1  0
  4 43  1  0
  9 44  1  0
  9 45  1  0
 10 46  1  0
 10 47  1  0
 12 48  1  0
 17 49  1  0
 20 50  1  0
 20 51  1  0
 22 52  1  0
 22 53  1  0
 23 54  1  0
 23 55  1  0
 25 56  1  0
 26 57  1  0
 27 58  1  0
 28 59  1  0
 30 60  1  0
 30 61  1  0
 33 62  1  0
 33 63  1  0
 33 64  1  0
 34 65  1  0
 35 66  1  0
 37 67  1  0
 38 68  1  0
M  END
>  <Binding energies>  (1) 
[-7.07]

>  <Ligand effiencies>  (1) 
[-0.1812820512820513]

>  <Interactions>  (1) 
["V-B:GLU:543:CD:9880, V-A:ILE:369:CG2:3237, V-B:TYR:539:CE2:9848, H-A:GLU:543:OE2:4910, V-A:GLU:543:CD:4908, H-A:GLU:543:OE1:4909, V-A:GLU:543:CG:4907, V-B:ARG:545:CZ:9898, V-B:ARG:545:CD:9895, V-B:HIS:456:CE1:9042, V-B:ARG:545:CG:9894, H-A:LYS:547:NZ:4951, V-A:VAL:458:CG2:4087, V-A:LYS:471:CG:4218, V-A:LYS:471:CB:4217, V-B:HIS:456:CD2:9040, V-A:HIS:456:CB:4065, V-A:HIS:456:CD2:4068, V-B:GLY:544:C:9884, V-A:HIS:456:C:4061, V-A:LYS:471:CD:4219, V-A:HIS:456:CG:4066, V-A:GLY:544:C:4912, V-A:HIS:456:CA:4063, V-A:ASP:366:CG:3213, V-A:ILE:369:CD1:3239, V-B:GLU:543:CB:9878, H-B:ARG:545:NH2:9900, V-A:ASP:366:CB:3212, V-A:HIS:456:CE1:4070, V-A:GLU:543:CB:4906, V-A:GLU:543:CA:4904, V-A:ASP:366:C:3208, V-A:ASP:366:CA:3210, V-A:ILE:369:CB:3236, V-A:GLU:543:C:4902, V-B:GLU:543:C:9874, V-B:TYR:539:CZ:9849"]

$$$$
RR20_Rahimova_2017-again1
     RDKit          3D

 68 73  0  0  0  0  0  0  0  0999 V2000
  127.1270  136.6530   60.6320 C   0  0  0  0  0  0  0  0  0  0  0  0
  126.3190  135.3680   60.6300 C   0  0  0  0  0  0  0  0  0  0  0  0
  126.9150  134.1700   61.0270 C   0  0  0  0  0  0  0  0  0  0  0  0
  126.1740  132.9920   61.0330 C   0  0  0  0  0  0  0  0  0  0  0  0
  124.8320  133.0000   60.6320 C   0  0  0  0  0  0  0  0  0  0  0  0
  124.0370  131.7130   60.6620 C   0  0  0  0  0  0  0  0  0  0  0  0
  123.2830  131.5280   61.6200 O   0  0  0  0  0  0  0  0  0  0  0  0
  124.1600  130.8290   59.6290 N   0  0  0  0  0  0  0  0  0  0  0  0
  123.8630  131.2240   58.2420 C   0  0  0  0  0  0  0  0  0  0  0  0
  124.2540  130.0440   57.3670 C   0  0  0  0  0  0  0  0  0  0  0  0
  125.0930  129.2110   58.2900 C   0  0  0  0  0  0  0  0  0  0  0  0
  125.7990  128.0380   58.0170 C   0  0  0  0  0  0  0  0  0  0  0  0
  126.3940  127.3040   59.0540 C   0  0  0  0  0  0  0  0  0  0  0  0
  127.1480  126.0390   58.7620 C   0  0  0  0  0  0  0  0  0  0  0  0
  128.4590  126.0340   58.9470 N   0  0  0  0  0  0  0  0  0  0  0  0
  129.0360  124.8930   58.6590 C   0  0  0  0  0  0  0  0  0  0  0  0
  130.3660  124.5650   58.6970 N   0  0  0  0  0  0  0  0  0  0  0  0
  131.3370  125.4140   58.7340 C   0  0  0  0  0  0  0  0  0  0  0  0
  131.3450  126.6570   58.8180 O   0  0  0  0  0  0  0  0  0  0  0  0
  132.7360  124.7670   58.6730 C   0  0  0  0  0  0  0  0  0  0  0  0
  133.2670  124.5170   60.1150 N   0  0  2  0  0  0  0  0  0  0  0  0
  133.7840  123.0770   60.3140 C   0  0  0  0  0  0  0  0  0  0  0  0
  132.6180  122.0790   60.1930 C   0  0  0  0  0  0  0  0  0  0  0  0
  131.4050  122.4670   61.0330 C   0  0  0  0  0  0  0  0  0  0  0  0
  130.4520  121.4970   61.3660 C   0  0  0  0  0  0  0  0  0  0  0  0
  129.3090  121.8240   62.0910 C   0  0  0  0  0  0  0  0  0  0  0  0
  129.1050  123.1370   62.4960 C   0  0  0  0  0  0  0  0  0  0  0  0
  130.0490  124.1110   62.1840 C   0  0  0  0  0  0  0  0  0  0  0  0
  131.2090  123.8000   61.4640 C   0  0  0  0  0  0  0  0  0  0  0  0
  132.2350  124.9090   61.2000 C   0  0  0  0  0  0  0  0  0  0  0  0
  127.9320  123.6980   58.0860 S   0  0  0  0  0  0  0  0  0  0  0  0
  126.6110  124.8210   58.3000 C   0  0  0  0  0  0  0  0  0  0  0  0
  125.1860  124.3930   58.0160 C   0  0  0  0  0  0  0  0  0  0  0  0
  126.2240  127.7520   60.3710 C   0  0  0  0  0  0  0  0  0  0  0  0
  125.5040  128.9150   60.6490 C   0  0  0  0  0  0  0  0  0  0  0  0
  124.9810  129.6800   59.5990 C   0  0  0  0  0  0  0  0  0  0  0  0
  124.2320  134.2110   60.2650 C   0  0  0  0  0  0  0  0  0  0  0  0
  124.9740  135.3890   60.2590 C   0  0  0  0  0  0  0  0  0  0  0  0
  127.3214  136.9622   61.6696 H   0  0  0  0  0  0  0  0  0  0  0  0
  128.0829  136.4859   60.1139 H   0  0  0  0  0  0  0  0  0  0  0  0
  126.5622  137.4421   60.1139 H   0  0  0  0  0  0  0  0  0  0  0  0
  127.9708  134.1569   61.3353 H   0  0  0  0  0  0  0  0  0  0  0  0
  126.6442  132.0508   61.3540 H   0  0  0  0  0  0  0  0  0  0  0  0
  122.7907  131.4421   58.1298 H   0  0  0  0  0  0  0  0  0  0  0  0
  124.4162  132.1315   57.9585 H   0  0  0  0  0  0  0  0  0  0  0  0
  123.3660  129.4894   57.0294 H   0  0  0  0  0  0  0  0  0  0  0  0
  124.7797  130.3389   56.4468 H   0  0  0  0  0  0  0  0  0  0  0  0
  125.8896  127.6859   56.9788 H   0  0  0  0  0  0  0  0  0  0  0  0
  132.6717  123.8088   58.1367 H   0  0  0  0  0  0  0  0  0  0  0  0
  133.4250  125.4428   58.1452 H   0  0  0  0  0  0  0  0  0  0  0  0
  134.0680  125.1260   60.2250 H   0  0  0  0  0  0  0  0  0  0  0  0
  134.5383  122.8511   59.5459 H   0  0  0  0  0  0  0  0  0  0  0  0
  134.2331  122.9890   61.3143 H   0  0  0  0  0  0  0  0  0  0  0  0
  132.3105  122.0269   59.1381 H   0  0  0  0  0  0  0  0  0  0  0  0
  132.9778  121.1091   60.5670 H   0  0  0  0  0  0  0  0  0  0  0  0
  130.6093  120.4556   61.0485 H   0  0  0  0  0  0  0  0  0  0  0  0
  128.5718  121.0470   62.3416 H   0  0  0  0  0  0  0  0  0  0  0  0
  128.2005  123.4060   63.0613 H   0  0  0  0  0  0  0  0  0  0  0  0
  129.8801  125.1479   62.5102 H   0  0  0  0  0  0  0  0  0  0  0  0
  131.7010  125.8119   60.8689 H   0  0  0  0  0  0  0  0  0  0  0  0
  132.7852  125.0845   62.1362 H   0  0  0  0  0  0  0  0  0  0  0  0
  124.6548  124.2335   58.9660 H   0  0  0  0  0  0  0  0  0  0  0  0
  124.6758  125.1775   57.4379 H   0  0  0  0  0  0  0  0  0  0  0  0
  125.1925  123.4572   57.4379 H   0  0  0  0  0  0  0  0  0  0  0  0
  126.6651  127.1778   61.1991 H   0  0  0  0  0  0  0  0  0  0  0  0
  125.3476  129.2302   61.6912 H   0  0  0  0  0  0  0  0  0  0  0  0
  123.1697  134.2316   59.9802 H   0  0  0  0  0  0  0  0  0  0  0  0
  124.5001  136.3361   59.9618 H   0  0  0  0  0  0  0  0  0  0  0  0
  1  2  1  0
  2  3  2  0
  3  4  1  0
  4  5  2  0
  5  6  1  0
  6  7  2  0
  6  8  1  0
  8  9  1  0
  9 10  1  0
 10 11  1  0
 11 12  2  0
 12 13  1  0
 13 14  1  0
 14 15  1  0
 15 16  2  0
 16 17  1  0
 17 18  2  0
 18 19  1  0
 18 20  1  0
 20 21  1  0
 21 22  1  0
 22 23  1  0
 23 24  1  0
 24 25  2  0
 25 26  1  0
 26 27  2  0
 27 28  1  0
 28 29  2  0
 29 30  1  0
 16 31  1  0
 31 32  1  0
 32 33  1  0
 13 34  2  0
 34 35  1  0
 35 36  2  0
  5 37  1  0
 37 38  2  0
 38  2  1  0
 36  8  1  0
 36 11  1  0
 32 14  2  0
 30 21  1  0
 29 24  1  0
  1 39  1  0
  1 40  1  0
  1 41  1  0
  3 42  1  0
  4 43  1  0
  9 44  1  0
  9 45  1  0
 10 46  1  0
 10 47  1  0
 12 48  1  0
 20 49  1  0
 20 50  1  0
 21 51  1  1
 22 52  1  0
 22 53  1  0
 23 54  1  0
 23 55  1  0
 25 56  1  0
 26 57  1  0
 27 58  1  0
 28 59  1  0
 30 60  1  0
 30 61  1  0
 33 62  1  0
 33 63  1  0
 33 64  1  0
 34 65  1  0
 35 66  1  0
 37 67  1  0
 38 68  1  0
M  CHG  2  19  -1  21   1
M  END
>  <Binding energies>  (1) 
[-8.9]

>  <Ligand effiencies>  (1) 
[-0.22820512820512823]

>  <Interactions>  (1) 
["V-B:ALA:541:CB:9864, V-B:TYR:539:CD2:9846, V-B:GLU:543:CG:9879, V-A:TYR:484:CZ:4347, V-A:TYR:484:CE1:4345, V-A:LEU:475:CD2:4259, V-B:GLU:543:CD:9880, V-A:ILE:369:CG2:3237, V-B:TYR:539:CE2:9848, V-B:ILE:369:CD1:8211, V-A:TYR:539:CE1:4875, V-B:SER:385:CA:8379, V-A:TYR:539:CD1:4873, V-B:SER:385:CB:8381, V-B:ILE:369:CG2:8209, V-B:LEU:475:CD2:9231, H-B:GLY:454:N:9022, H-A:ASP:366:OD1:3214, V-A:ASP:366:CG:3213, V-A:ILE:369:CD1:3239, H-A:ASP:366:OD2:3215, V-B:ASP:366:CG:8185, V-B:PRO:482:CG:9299, V-B:PRO:482:CB:9298, V-B:ILE:369:CB:8208, V-A:ASP:366:CB:3212, V-B:ASP:366:CA:8182, V-B:ASP:366:CB:8184, V-A:TYR:539:CZ:4877, V-B:ASP:366:C:8180, V-B:TYR:531:CE1:9764, V-A:ASP:366:CA:3210, V-A:ILE:369:CB:3236, V-B:TYR:531:CZ:9766"]

$$$$
RR21_Rahimova_2017
     RDKit          3D

 62 67  0  0  0  0  0  0  0  0999 V2000
  126.5840  127.0110   67.7330 C   0  0  0  0  0  0  0  0  0  0  0  0
  125.6380  127.9100   67.1630 O   0  0  0  0  0  0  0  0  0  0  0  0
  126.0020  128.6670   66.0650 C   0  0  0  0  0  0  0  0  0  0  0  0
  127.3310  128.9090   65.6770 C   0  0  0  0  0  0  0  0  0  0  0  0
  127.6130  129.6830   64.5530 C   0  0  0  0  0  0  0  0  0  0  0  0
  126.5790  130.2310   63.7850 C   0  0  0  0  0  0  0  0  0  0  0  0
  126.8850  131.0570   62.5740 C   0  0  0  0  0  0  0  0  0  0  0  0
  126.4470  132.2990   62.5000 N   0  0  0  0  0  0  0  0  0  0  0  0
  126.8670  132.7860   61.3230 N   0  0  0  0  0  0  0  0  0  0  0  0
  126.5840  134.1200   60.9290 C   0  0  0  0  0  0  0  0  0  0  0  0
  127.5320  135.1390   61.1110 C   0  0  0  0  0  0  0  0  0  0  0  0
  127.2440  136.4430   60.7160 C   0  0  0  0  0  0  0  0  0  0  0  0
  126.0090  136.7330   60.1400 C   0  0  0  0  0  0  0  0  0  0  0  0
  125.0590  135.7320   59.9570 C   0  0  0  0  0  0  0  0  0  0  0  0
  125.3440  134.4270   60.3510 C   0  0  0  0  0  0  0  0  0  0  0  0
  127.5960  131.8380   60.6510 C   0  0  0  0  0  0  0  0  0  0  0  0
  127.6210  130.6880   61.4250 C   0  0  0  0  0  0  0  0  0  0  0  0
  128.3080  129.4350   61.1510 C   0  0  0  0  0  0  0  0  0  0  0  0
  127.8210  128.1760   61.2410 C   0  0  0  0  0  0  0  0  0  0  0  0
  126.1890  127.6690   61.7320 S   0  0  0  0  0  0  0  0  0  0  0  0
  126.6460  125.9920   61.4680 C   0  0  0  0  0  0  0  0  0  0  0  0
  125.9090  124.9340   61.6120 N   0  0  0  0  0  0  0  0  0  0  0  0
  126.4020  123.6260   61.3520 C   0  0  0  0  0  0  0  0  0  0  0  0
  125.7630  122.5780   61.4440 O   0  0  0  0  0  0  0  0  0  0  0  0
  127.8420  123.5940   60.9190 C   0  0  0  0  0  0  0  0  0  0  0  0
  128.4890  122.2340   60.6280 C   0  0  0  0  0  0  0  0  0  0  0  0
  129.9940  122.1860   60.8850 C   0  0  0  0  0  0  0  0  0  0  0  0
  130.7490  121.1070   60.4180 C   0  0  0  0  0  0  0  0  0  0  0  0
  132.1240  121.0710   60.6370 C   0  0  0  0  0  0  0  0  0  0  0  0
  132.7480  122.1160   61.3220 C   0  0  0  0  0  0  0  0  0  0  0  0
  134.2480  122.0790   61.5470 C   0  0  0  0  0  0  0  0  0  0  0  0
  131.9960  123.2020   61.7790 C   0  0  0  0  0  0  0  0  0  0  0  0
  130.6220  123.2370   61.5600 C   0  0  0  0  0  0  0  0  0  0  0  0
  128.5660  124.6570   60.7850 N   0  0  0  0  0  0  0  0  0  0  0  0
  127.9500  125.8830   61.0630 N   0  0  0  0  0  0  0  0  0  0  0  0
  128.6600  127.0290   60.9210 C   0  0  0  0  0  0  0  0  0  0  0  0
  129.8430  127.0860   60.5660 O   0  0  0  0  0  0  0  0  0  0  0  0
  125.2560  129.9960   64.1730 C   0  0  0  0  0  0  0  0  0  0  0  0
  124.9710  129.2220   65.2990 C   0  0  0  0  0  0  0  0  0  0  0  0
  123.6800  129.0130   65.6470 F   0  0  0  0  0  0  0  0  0  0  0  0
  126.5267  127.0655   68.8302 H   0  0  0  0  0  0  0  0  0  0  0  0
  126.3593  125.9855   67.4046 H   0  0  0  0  0  0  0  0  0  0  0  0
  127.5967  127.2876   67.4046 H   0  0  0  0  0  0  0  0  0  0  0  0
  128.1566  128.4833   66.2663 H   0  0  0  0  0  0  0  0  0  0  0  0
  128.6592  129.8652   64.2663 H   0  0  0  0  0  0  0  0  0  0  0  0
  128.5057  134.9068   61.5672 H   0  0  0  0  0  0  0  0  0  0  0  0
  127.9882  137.2404   60.8581 H   0  0  0  0  0  0  0  0  0  0  0  0
  125.7824  137.7628   59.8268 H   0  0  0  0  0  0  0  0  0  0  0  0
  124.0862  135.9711   59.5026 H   0  0  0  0  0  0  0  0  0  0  0  0
  124.5942  133.6349   60.2083 H   0  0  0  0  0  0  0  0  0  0  0  0
  128.0765  131.9675   59.6700 H   0  0  0  0  0  0  0  0  0  0  0  0
  129.3565  129.5225   60.8299 H   0  0  0  0  0  0  0  0  0  0  0  0
  128.0063  121.4792   61.2662 H   0  0  0  0  0  0  0  0  0  0  0  0
  128.3464  122.0406   59.5546 H   0  0  0  0  0  0  0  0  0  0  0  0
  130.2570  120.2853   59.8769 H   0  0  0  0  0  0  0  0  0  0  0  0
  132.7178  120.2205   60.2709 H   0  0  0  0  0  0  0  0  0  0  0  0
  134.4567  122.0739   62.6270 H   0  0  0  0  0  0  0  0  0  0  0  0
  134.6652  121.1703   61.0886 H   0  0  0  0  0  0  0  0  0  0  0  0
  134.7095  122.9660   61.0886 H   0  0  0  0  0  0  0  0  0  0  0  0
  132.4898  124.0283   62.3113 H   0  0  0  0  0  0  0  0  0  0  0  0
  130.0299  124.0920   61.9182 H   0  0  0  0  0  0  0  0  0  0  0  0
  124.4317  130.4255   63.5848 H   0  0  0  0  0  0  0  0  0  0  0  0
  1  2  1  0
  2  3  1  0
  3  4  2  0
  4  5  1  0
  5  6  2  0
  6  7  1  0
  7  8  2  0
  8  9  1  0
  9 10  1  0
 10 11  2  0
 11 12  1  0
 12 13  2  0
 13 14  1  0
 14 15  2  0
  9 16  1  0
 16 17  2  0
 17 18  1  0
 18 19  2  0
 19 20  1  0
 20 21  1  0
 21 22  2  0
 22 23  1  0
 23 24  2  0
 23 25  1  0
 25 26  1  0
 26 27  1  0
 27 28  2  0
 28 29  1  0
 29 30  2  0
 30 31  1  0
 30 32  1  0
 32 33  2  0
 25 34  2  0
 34 35  1  0
 35 36  1  0
 36 37  2  0
  6 38  1  0
 38 39  2  0
 39 40  1  0
 39  3  1  0
 17  7  1  0
 36 19  1  0
 15 10  1  0
 35 21  1  0
 33 27  1  0
  1 41  1  0
  1 42  1  0
  1 43  1  0
  4 44  1  0
  5 45  1  0
 11 46  1  0
 12 47  1  0
 13 48  1  0
 14 49  1  0
 15 50  1  0
 16 51  1  0
 18 52  1  0
 26 53  1  0
 26 54  1  0
 28 55  1  0
 29 56  1  0
 31 57  1  0
 31 58  1  0
 31 59  1  0
 32 60  1  0
 33 61  1  0
 38 62  1  0
M  END
>  <Binding energies>  (1) 
[-8.37]

>  <Ligand effiencies>  (1) 
[-0.20925]

>  <Interactions>  (1) 
["V-B:TYR:539:CD2:9846, V-B:GLU:543:CG:9879, V-B:TYR:539:C:9839, V-A:LEU:475:CD2:4259, V-B:GLU:543:CD:9880, V-A:ILE:369:CG2:3237, V-B:TYR:539:CE2:9848, V-A:GLU:543:CD:4908, V-B:PRO:540:CA:9855, V-A:TYR:539:CE1:4875, V-A:ALA:541:CB:4892, V-A:TYR:539:CD1:4873, V-B:SER:385:CB:8381, V-A:GLU:543:CG:4907, V-B:ARG:545:CZ:9898, V-B:LEU:475:CD2:9231, H-B:ARG:545:NE:9896, V-B:GLY:453:C:9014, H-B:TYR:484:OH:9320, V-A:TYR:539:C:4867, V-B:GLY:453:CA:9016, V-B:ARG:545:CD:9895, V-B:HIS:456:CE1:9042, V-B:ARG:545:CG:9894, V-A:GLY:454:CA:4049, V-A:ILE:369:CD1:3239, H-B:HIS:456:ND1:9039, V-B:GLU:543:CB:9878, V-B:ASP:366:CG:8185, H-B:ALA:541:N:9863, V-B:PRO:482:CG:9299, V-B:PRO:482:CB:9298, H-B:ARG:545:NH2:9900"]

$$$$
RR22_Rahimova_2017
     RDKit          3D

 49 54  0  0  0  0  0  0  0  0999 V2000
  128.2140  129.1000   65.8890 O   0  0  0  0  0  0  0  0  0  0  0  0
  127.8430  129.2310   64.7250 C   0  0  0  0  0  0  0  0  0  0  0  0
  127.3630  130.3770   64.1160 N   0  0  0  0  0  0  0  0  0  0  0  0
  127.0280  130.3770   62.7250 C   0  0  1  0  0  0  0  0  0  0  0  0
  125.6690  130.8190   62.6660 O   0  0  0  0  0  0  0  0  0  0  0  0
  125.3790  131.9760   61.9420 C   0  0  0  0  0  0  0  0  0  0  0  0
  124.1480  132.5800   62.2010 C   0  0  0  0  0  0  0  0  0  0  0  0
  123.7700  133.7170   61.4870 C   0  0  0  0  0  0  0  0  0  0  0  0
  124.6180  134.2430   60.5110 C   0  0  0  0  0  0  0  0  0  0  0  0
  125.8490  133.6380   60.2510 C   0  0  0  0  0  0  0  0  0  0  0  0
  126.2520  132.5120   60.9760 C   0  0  0  0  0  0  0  0  0  0  0  0
  127.5420  131.7600   60.7420 C   0  0  1  0  0  0  0  0  0  0  0  0
  128.8110  132.4450   60.2770 C   0  0  0  0  0  0  0  0  0  0  0  0
  129.8550  131.5350   60.9300 C   0  0  0  0  0  0  0  0  0  0  0  0
  131.2670  131.5020   60.5010 C   0  0  0  0  0  0  0  0  0  0  0  0
  132.2950  131.8090   61.4050 C   0  0  0  0  0  0  0  0  0  0  0  0
  133.6250  131.7760   60.9950 C   0  0  0  0  0  0  0  0  0  0  0  0
  133.9350  131.4370   59.6810 C   0  0  0  0  0  0  0  0  0  0  0  0
  132.9270  131.1300   58.7710 C   0  0  0  0  0  0  0  0  0  0  0  0
  131.5960  131.1610   59.1800 C   0  0  0  0  0  0  0  0  0  0  0  0
  129.3410  130.8530   61.8840 N   0  0  0  0  0  0  0  0  0  0  0  0
  127.9870  131.2140   61.9890 N   0  0  0  0  0  0  0  0  0  0  0  0
  127.0440  128.9240   62.2740 C   0  0  0  0  0  0  0  0  0  0  0  0
  126.4550  128.5000   61.1310 C   0  0  0  0  0  0  0  0  0  0  0  0
  126.4120  127.1360   60.5690 C   0  0  0  0  0  0  0  0  0  0  0  0
  126.4050  125.9800   61.3620 C   0  0  0  0  0  0  0  0  0  0  0  0
  126.3640  124.7210   60.7600 C   0  0  0  0  0  0  0  0  0  0  0  0
  126.3380  124.6510   59.3670 C   0  0  0  0  0  0  0  0  0  0  0  0
  126.3540  125.7520   58.5750 N   0  0  0  0  0  0  0  0  0  0  0  0
  126.3920  126.9670   59.1790 C   0  0  0  0  0  0  0  0  0  0  0  0
  127.8330  127.9020   63.4840 S   0  0  0  0  0  0  0  0  0  0  0  0
  127.2010  131.2170   64.6500 H   0  0  0  0  0  0  0  0  0  0  0  0
  123.4778  132.1607   62.9659 H   0  0  0  0  0  0  0  0  0  0  0  0
  122.8032  134.1994   61.6931 H   0  0  0  0  0  0  0  0  0  0  0  0
  124.3155  135.1366   59.9452 H   0  0  0  0  0  0  0  0  0  0  0  0
  126.5062  134.0496   59.4708 H   0  0  0  0  0  0  0  0  0  0  0  0
  127.2052  131.1104   59.9207 H   0  0  0  0  0  0  0  0  0  0  0  0
  128.8973  132.4449   59.1804 H   0  0  0  0  0  0  0  0  0  0  0  0
  128.8895  133.5090   60.5449 H   0  0  0  0  0  0  0  0  0  0  0  0
  132.0489  132.0771   62.4430 H   0  0  0  0  0  0  0  0  0  0  0  0
  134.4281  132.0170   61.7070 H   0  0  0  0  0  0  0  0  0  0  0  0
  134.9864  131.4114   59.3585 H   0  0  0  0  0  0  0  0  0  0  0  0
  133.1806  130.8643   57.7341 H   0  0  0  0  0  0  0  0  0  0  0  0
  130.7980  130.9168   58.4634 H   0  0  0  0  0  0  0  0  0  0  0  0
  125.9404  129.2746   60.5435 H   0  0  0  0  0  0  0  0  0  0  0  0
  126.4318  126.0649   62.4584 H   0  0  0  0  0  0  0  0  0  0  0  0
  126.3525  123.8056   61.3699 H   0  0  0  0  0  0  0  0  0  0  0  0
  126.3030  123.6602   58.8904 H   0  0  0  0  0  0  0  0  0  0  0  0
  126.4079  127.8650   58.5440 H   0  0  0  0  0  0  0  0  0  0  0  0
  1  2  2  0
  2  3  1  0
  3  4  1  0
  4  5  1  1
  5  6  1  0
  6  7  2  0
  7  8  1  0
  8  9  2  0
  9 10  1  0
 10 11  2  0
 11 12  1  0
 12 13  1  0
 13 14  1  0
 14 15  1  0
 15 16  2  0
 16 17  1  0
 17 18  2  0
 18 19  1  0
 19 20  2  0
 14 21  2  0
 21 22  1  0
  4 23  1  0
 23 24  2  0
 24 25  1  0
 25 26  2  0
 26 27  1  0
 27 28  2  0
 28 29  1  0
 29 30  2  0
 23 31  1  0
 31  2  1  0
 22  4  1  0
 30 25  1  0
 11  6  1  0
 22 12  1  0
 20 15  1  0
  3 32  1  0
  7 33  1  0
  8 34  1  0
  9 35  1  0
 10 36  1  0
 12 37  1  6
 13 38  1  0
 13 39  1  0
 16 40  1  0
 17 41  1  0
 18 42  1  0
 19 43  1  0
 20 44  1  0
 24 45  1  0
 26 46  1  0
 27 47  1  0
 28 48  1  0
 30 49  1  0
M  END
>  <Binding energies>  (1) 
[-7.85]

>  <Ligand effiencies>  (1) 
[-0.2453125]

>  <Interactions>  (1) 
["V-B:GLU:543:CD:9880, V-A:GLU:543:CD:4908, V-B:SER:385:C:8377, V-B:ILE:369:CD1:8211, V-A:TYR:539:CE1:4875, V-A:PRO:540:CA:4883, V-A:TYR:539:CD1:4873, V-A:GLU:543:CG:4907, V-B:ILE:369:CG2:8209, V-A:PRO:540:C:4881, V-B:LEU:475:CD2:9231, V-A:ALA:541:CA:4890, H-B:TYR:484:OH:9320, V-A:ASN:362:CB:3176, V-B:GLY:454:CA:9021, V-A:PRO:540:CB:4885, V-A:ASP:366:CG:3213, V-B:TYR:484:CZ:9319, V-B:ASP:366:CG:8185, V-A:ASN:362:C:3172, V-A:ALA:541:C:4888, H-B:TYR:531:OH:9767, V-A:LEU:363:CB:3187, V-A:ASN:362:CA:3174, V-A:LEU:363:CA:3185"]

$$$$
RR23_Rahimova_2017
     RDKit          3D

 65 70  0  0  0  0  0  0  0  0999 V2000
  126.7900  136.3730   60.1110 C   0  0  0  0  0  0  0  0  0  0  0  0
  126.1020  135.1310   60.6470 C   0  0  0  0  0  0  0  0  0  0  0  0
  126.8450  134.1480   61.3010 C   0  0  0  0  0  0  0  0  0  0  0  0
  126.2110  133.0130   61.8000 C   0  0  0  0  0  0  0  0  0  0  0  0
  124.8310  132.8470   61.6390 C   0  0  0  0  0  0  0  0  0  0  0  0
  124.1580  131.6170   62.2070 C   0  0  0  0  0  0  0  0  0  0  0  0
  122.9280  131.6290   62.2950 O   0  0  0  0  0  0  0  0  0  0  0  0
  124.9220  130.5480   62.5810 N   0  0  0  0  0  0  0  0  0  0  0  0
  124.9380  130.0630   63.9710 C   0  0  0  0  0  0  0  0  0  0  0  0
  125.7710  128.7920   63.9700 C   0  0  0  0  0  0  0  0  0  0  0  0
  125.8520  128.4470   62.5140 C   0  0  0  0  0  0  0  0  0  0  0  0
  126.4210  127.3270   61.9060 C   0  0  0  0  0  0  0  0  0  0  0  0
  126.5390  127.2610   60.5100 C   0  0  0  0  0  0  0  0  0  0  0  0
  127.1590  126.0470   59.8010 C   0  0  2  0  0  0  0  0  0  0  0  0
  128.1410  125.3760   60.6250 N   0  0  0  0  0  0  0  0  0  0  0  0
  129.0700  124.8580   59.9270 C   0  0  0  0  0  0  0  0  0  0  0  0
  130.1660  124.1790   60.3610 N   0  0  0  0  0  0  0  0  0  0  0  0
  130.6030  124.0110   61.6330 C   0  0  0  0  0  0  0  0  0  0  0  0
  130.0370  124.4270   62.6460 O   0  0  0  0  0  0  0  0  0  0  0  0
  131.9210  123.2340   61.7830 C   0  0  0  0  0  0  0  0  0  0  0  0
  131.7500  121.8750   61.2220 N   0  0  0  0  0  0  0  0  0  0  0  0
  132.6840  121.5030   60.2640 N   0  0  0  0  0  0  0  0  0  0  0  0
  132.6430  120.3400   59.6950 N   0  0  0  0  0  0  0  0  0  0  0  0
  131.6440  119.4300   60.0470 C   0  0  0  0  0  0  0  0  0  0  0  0
  131.6270  118.1850   59.4130 C   0  0  0  0  0  0  0  0  0  0  0  0
  130.6400  117.2550   59.7430 C   0  0  0  0  0  0  0  0  0  0  0  0
  129.6730  117.5660   60.7000 C   0  0  0  0  0  0  0  0  0  0  0  0
  129.6870  118.8100   61.3340 C   0  0  0  0  0  0  0  0  0  0  0  0
  130.6780  119.7420   61.0050 C   0  0  0  0  0  0  0  0  0  0  0  0
  130.7090  121.0960   61.6770 C   0  0  0  0  0  0  0  0  0  0  0  0
  129.8890  121.4600   62.5240 O   0  0  0  0  0  0  0  0  0  0  0  0
  128.9540  125.0470   58.1530 S   0  0  0  0  0  0  0  0  0  0  0  0
  127.7410  126.3560   58.4020 C   0  0  2  0  0  0  0  0  0  0  0  0
  128.4350  127.7240   58.2270 C   0  0  0  0  0  0  0  0  0  0  0  0
  126.1230  128.3560   59.7440 C   0  0  0  0  0  0  0  0  0  0  0  0
  125.5730  129.4860   60.3530 C   0  0  0  0  0  0  0  0  0  0  0  0
  125.3840  129.5100   61.7410 C   0  0  0  0  0  0  0  0  0  0  0  0
  124.0870  133.8510   61.0060 C   0  0  0  0  0  0  0  0  0  0  0  0
  124.7210  134.9860   60.5080 C   0  0  0  0  0  0  0  0  0  0  0  0
  127.1337  136.9935   60.9518 H   0  0  0  0  0  0  0  0  0  0  0  0
  127.6531  136.0777   59.4964 H   0  0  0  0  0  0  0  0  0  0  0  0
  126.0818  136.9481   59.4964 H   0  0  0  0  0  0  0  0  0  0  0  0
  127.9315  134.2694   61.4225 H   0  0  0  0  0  0  0  0  0  0  0  0
  126.7977  132.2435   62.3231 H   0  0  0  0  0  0  0  0  0  0  0  0
  125.3926  130.8158   64.6318 H   0  0  0  0  0  0  0  0  0  0  0  0
  123.9192  129.8729   64.3397 H   0  0  0  0  0  0  0  0  0  0  0  0
  126.7713  128.9739   64.3900 H   0  0  0  0  0  0  0  0  0  0  0  0
  125.3384  127.9882   64.5838 H   0  0  0  0  0  0  0  0  0  0  0  0
  126.7790  126.4913   62.5252 H   0  0  0  0  0  0  0  0  0  0  0  0
  126.3128  125.3636   59.6370 H   0  0  0  0  0  0  0  0  0  0  0  0
  130.7570  123.7870   59.6430 H   0  0  0  0  0  0  0  0  0  0  0  0
  132.7213  123.7583   61.2402 H   0  0  0  0  0  0  0  0  0  0  0  0
  132.1902  123.1639   62.8472 H   0  0  0  0  0  0  0  0  0  0  0  0
  132.3878  117.9390   58.6575 H   0  0  0  0  0  0  0  0  0  0  0  0
  130.6242  116.2733   59.2470 H   0  0  0  0  0  0  0  0  0  0  0  0
  128.8975  116.8289   60.9556 H   0  0  0  0  0  0  0  0  0  0  0  0
  128.9240  119.0560   62.0872 H   0  0  0  0  0  0  0  0  0  0  0  0
  126.9139  126.4006   57.6782 H   0  0  0  0  0  0  0  0  0  0  0  0
  128.6530  128.1537   59.2158 H   0  0  0  0  0  0  0  0  0  0  0  0
  129.3742  127.5901   57.6702 H   0  0  0  0  0  0  0  0  0  0  0  0
  127.7723  128.4028   57.6702 H   0  0  0  0  0  0  0  0  0  0  0  0
  126.2305  128.3262   58.6497 H   0  0  0  0  0  0  0  0  0  0  0  0
  125.2885  130.3564   59.7435 H   0  0  0  0  0  0  0  0  0  0  0  0
  122.9974  133.7422   60.9020 H   0  0  0  0  0  0  0  0  0  0  0  0
  124.1335  135.7683   60.0051 H   0  0  0  0  0  0  0  0  0  0  0  0
  1  2  1  0
  2  3  2  0
  3  4  1  0
  4  5  2  0
  5  6  1  0
  6  7  2  0
  6  8  1  0
  8  9  1  0
  9 10  1  0
 10 11  1  0
 11 12  2  0
 12 13  1  0
 13 14  1  0
 14 15  1  0
 15 16  2  0
 16 17  1  0
 17 18  1  0
 18 19  2  0
 18 20  1  0
 20 21  1  0
 21 22  1  0
 22 23  2  0
 23 24  1  0
 24 25  2  0
 25 26  1  0
 26 27  2  0
 27 28  1  0
 28 29  2  0
 29 30  1  0
 30 31  2  0
 16 32  1  0
 32 33  1  0
 33 34  1  0
 13 35  2  0
 35 36  1  0
 36 37  2  0
  5 38  1  0
 38 39  2  0
 39  2  1  0
 37  8  1  0
 37 11  1  0
 33 14  1  0
 30 21  1  0
 29 24  1  0
  1 40  1  0
  1 41  1  0
  1 42  1  0
  3 43  1  0
  4 44  1  0
  9 45  1  0
  9 46  1  0
 10 47  1  0
 10 48  1  0
 12 49  1  0
 14 50  1  6
 17 51  1  0
 20 52  1  0
 20 53  1  0
 25 54  1  0
 26 55  1  0
 27 56  1  0
 28 57  1  0
 33 58  1  6
 34 59  1  0
 34 60  1  0
 34 61  1  0
 35 62  1  0
 36 63  1  0
 38 64  1  0
 39 65  1  0
M  END
>  <Binding energies>  (1) 
[-9.16]

>  <Ligand effiencies>  (1) 
[-0.229]

>  <Interactions>  (1) 
["V-B:ALA:541:CB:9864, V-B:TYR:539:CD2:9846, V-A:PRO:482:CG:4327, V-A:PRO:482:CB:4326, V-B:TYR:539:C:9839, V-A:LEU:475:CD1:4258, V-A:LEU:475:CD2:4259, V-A:SER:385:CB:3409, V-B:TYR:539:CE2:9848, H-A:TYR:484:OH:4348, V-B:ILE:369:CD1:8211, V-A:TYR:539:CE1:4875, V-A:ALA:541:CB:4892, V-B:SER:385:CA:8379, V-A:TYR:539:CD1:4873, V-B:SER:385:CB:8381, V-B:ILE:369:CG2:8209, V-B:ARG:545:CZ:9898, V-B:LEU:475:CD2:9231, H-B:GLY:454:N:9022, V-A:TYR:539:C:4867, V-B:ASP:366:CG:8185, V-B:TYR:539:CB:9843, V-A:TYR:539:CB:4871, V-B:TYR:539:CG:9844, V-A:TYR:539:CG:4872"]

$$$$
RR24_Rahimova_2017
     RDKit          3D

 65 71  0  0  0  0  0  0  0  0999 V2000
  124.5160  130.0950   58.1360 C   0  0  0  0  0  0  0  0  0  0  0  0
  125.4740  130.9180   59.0090 C   0  0  2  0  0  0  0  0  0  0  0  0
  126.9250  130.9720   58.4460 C   0  0  0  0  0  0  0  0  0  0  0  0
  127.7490  131.8050   58.8360 O   0  0  0  0  0  0  0  0  0  0  0  0
  127.1470  130.0310   57.4820 O   0  0  0  0  0  0  0  0  0  0  0  0
  127.3820  128.7250   57.8490 C   0  0  0  0  0  0  0  0  0  0  0  0
  128.4420  128.4370   58.7110 C   0  0  0  0  0  0  0  0  0  0  0  0
  128.6840  127.1210   59.0960 C   0  0  0  0  0  0  0  0  0  0  0  0
  127.8640  126.0900   58.6280 C   0  0  0  0  0  0  0  0  0  0  0  0
  128.1480  124.6410   59.0400 C   0  0  1  0  0  0  0  0  0  0  0  0
  129.6190  124.4410   59.4730 C   0  0  0  0  0  0  0  0  0  0  0  0
  129.9640  123.8510   60.6320 C   0  0  0  0  0  0  0  0  0  0  0  0
  129.0290  123.3840   61.5220 N   0  0  0  0  0  0  0  0  0  0  0  0
  127.6820  123.4980   61.2690 C   0  0  0  0  0  0  0  0  0  0  0  0
  126.8910  122.9790   62.2440 N   0  0  0  0  0  0  0  0  0  0  0  0
  125.5340  123.0700   62.2050 C   0  0  0  0  0  0  0  0  0  0  0  0
  124.8880  122.8780   63.2370 O   0  0  0  0  0  0  0  0  0  0  0  0
  125.0330  123.5450   61.0030 N   0  0  0  0  0  0  0  0  0  0  0  0
  123.5610  123.5780   60.8740 C   0  0  0  0  0  0  0  0  0  0  0  0
  125.7440  124.0960   59.9500 C   0  0  0  0  0  0  0  0  0  0  0  0
  125.2250  124.5490   58.9250 O   0  0  0  0  0  0  0  0  0  0  0  0
  127.1980  124.0780   60.1400 C   0  0  0  0  0  0  0  0  0  0  0  0
  131.4090  123.7990   60.7760 C   0  0  0  0  0  0  0  0  0  0  0  0
  132.2480  123.3040   61.7760 C   0  0  0  0  0  0  0  0  0  0  0  0
  133.6330  123.4060   61.6150 C   0  0  0  0  0  0  0  0  0  0  0  0
  134.1670  123.9950   60.4650 C   0  0  0  0  0  0  0  0  0  0  0  0
  133.3210  124.4880   59.4680 C   0  0  0  0  0  0  0  0  0  0  0  0
  131.9390  124.3850   59.6340 C   0  0  0  0  0  0  0  0  0  0  0  0
  130.8320  124.8130   58.7530 C   0  0  0  0  0  0  0  0  0  0  0  0
  130.8700  125.3620   57.6530 O   0  0  0  0  0  0  0  0  0  0  0  0
  126.7920  126.3850   57.7790 C   0  0  0  0  0  0  0  0  0  0  0  0
  126.5480  127.7000   57.3950 C   0  0  0  0  0  0  0  0  0  0  0  0
  125.4350  130.4930   60.4400 N   0  0  0  0  0  0  0  0  0  0  0  0
  124.2600  130.4080   61.1260 C   0  0  0  0  0  0  0  0  0  0  0  0
  123.1290  130.6590   60.7070 O   0  0  0  0  0  0  0  0  0  0  0  0
  124.6320  129.9490   62.4880 C   0  0  0  0  0  0  0  0  0  0  0  0
  123.8440  129.6910   63.6110 C   0  0  0  0  0  0  0  0  0  0  0  0
  124.4740  129.2580   64.7840 C   0  0  0  0  0  0  0  0  0  0  0  0
  125.8640  129.0900   64.8190 C   0  0  0  0  0  0  0  0  0  0  0  0
  126.6350  129.3540   63.6820 C   0  0  0  0  0  0  0  0  0  0  0  0
  125.9900  129.7860   62.5230 C   0  0  0  0  0  0  0  0  0  0  0  0
  126.5260  130.1360   61.1840 C   0  0  0  0  0  0  0  0  0  0  0  0
  127.7020  130.1050   60.8200 O   0  0  0  0  0  0  0  0  0  0  0  0
  123.8399  129.5142   58.7806 H   0  0  0  0  0  0  0  0  0  0  0  0
  123.9256  130.7719   57.5009 H   0  0  0  0  0  0  0  0  0  0  0  0
  125.0961  129.4093   57.5009 H   0  0  0  0  0  0  0  0  0  0  0  0
  125.1032  131.9529   58.9719 H   0  0  0  0  0  0  0  0  0  0  0  0
  129.0844  129.2479   59.0850 H   0  0  0  0  0  0  0  0  0  0  0  0
  129.5225  126.8920   59.7701 H   0  0  0  0  0  0  0  0  0  0  0  0
  127.9486  124.0616   58.1264 H   0  0  0  0  0  0  0  0  0  0  0  0
  129.3320  122.9450   62.3800 H   0  0  0  0  0  0  0  0  0  0  0  0
  127.2940  122.5270   63.0510 H   0  0  0  0  0  0  0  0  0  0  0  0
  123.1053  123.5882   61.8751 H   0  0  0  0  0  0  0  0  0  0  0  0
  123.2612  124.4831   60.3254 H   0  0  0  0  0  0  0  0  0  0  0  0
  123.2209  122.6873   60.3254 H   0  0  0  0  0  0  0  0  0  0  0  0
  131.8248  122.8397   62.6790 H   0  0  0  0  0  0  0  0  0  0  0  0
  134.3052  123.0213   62.3962 H   0  0  0  0  0  0  0  0  0  0  0  0
  135.2578  124.0707   60.3445 H   0  0  0  0  0  0  0  0  0  0  0  0
  133.7395  124.9520   58.5627 H   0  0  0  0  0  0  0  0  0  0  0  0
  126.1412  125.5765   57.4146 H   0  0  0  0  0  0  0  0  0  0  0  0
  125.6994  127.9323   56.7347 H   0  0  0  0  0  0  0  0  0  0  0  0
  122.7528  129.8249   63.5752 H   0  0  0  0  0  0  0  0  0  0  0  0
  123.8745  129.0488   65.6822 H   0  0  0  0  0  0  0  0  0  0  0  0
  126.3514  128.7491   65.7443 H   0  0  0  0  0  0  0  0  0  0  0  0
  127.7271  129.2237   63.7015 H   0  0  0  0  0  0  0  0  0  0  0  0
  1  2  1  0
  2  3  1  0
  3  4  2  0
  3  5  1  0
  5  6  1  0
  6  7  2  0
  7  8  1  0
  8  9  2  0
  9 10  1  0
 10 11  1  0
 11 12  2  0
 12 13  1  0
 13 14  1  0
 14 15  1  0
 15 16  1  0
 16 17  2  0
 16 18  1  0
 18 19  1  0
 18 20  1  0
 20 21  2  0
 20 22  1  0
 12 23  1  0
 23 24  2  0
 24 25  1  0
 25 26  2  0
 26 27  1  0
 27 28  2  0
 28 29  1  0
 29 30  2  0
  9 31  1  0
 31 32  2  0
  2 33  1  0
 33 34  1  0
 34 35  2  0
 34 36  1  0
 36 37  2  0
 37 38  1  0
 38 39  2  0
 39 40  1  0
 40 41  2  0
 41 42  1  0
 42 43  2  0
 32  6  1  0
 42 33  1  0
 22 10  1  0
 28 23  1  0
 41 36  1  0
 29 11  1  0
 22 14  2  0
  1 44  1  0
  1 45  1  0
  1 46  1  0
  2 47  1  1
  7 48  1  0
  8 49  1  0
 10 50  1  6
 13 51  1  0
 15 52  1  0
 19 53  1  0
 19 54  1  0
 19 55  1  0
 24 56  1  0
 25 57  1  0
 26 58  1  0
 27 59  1  0
 31 60  1  0
 32 61  1  0
 37 62  1  0
 38 63  1  0
 39 64  1  0
 40 65  1  0
M  END
>  <Binding energies>  (1) 
[-8.14]

>  <Ligand effiencies>  (1) 
[-0.1808888888888889]

>  <Interactions>  (1) 
["V-B:ALA:541:CB:9864, V-B:GLU:543:CG:9879, V-B:GLU:543:CD:9880, H-B:GLU:543:OE1:9881, V-A:ILE:369:CG2:3237, V-B:TYR:539:CE2:9848, V-B:PRO:540:C:9853, V-B:PRO:540:CA:9855, H-A:TYR:484:OH:4348, V-A:TYR:539:CE1:4875, V-B:ARG:545:CZ:9898, V-B:GLY:453:C:9014, V-B:GLY:453:CA:9016, V-B:ARG:545:CD:9895, V-A:ASP:366:CG:3213, V-A:GLY:454:CA:4049, V-A:ILE:369:CD1:3239, V-B:ASP:366:CG:8185, H-B:ALA:541:N:9863, H-B:ARG:545:NH2:9900, V-A:ASP:366:CB:3212, V-B:ASP:366:CA:8182, V-B:ASP:366:CB:8184, H-B:TYR:531:OH:9767, H-B:ASN:362:ND2:8151, V-B:PRO:540:CB:9857, V-B:ASN:362:CB:8148, V-A:ASP:366:CA:3210, V-A:ILE:369:CB:3236, H-B:TYR:539:OH:9850, V-B:ASN:362:CA:8146, V-B:ASN:362:C:8144, V-B:LEU:363:CA:8157, V-B:TYR:531:CZ:9766"]

$$$$
RR24_Rahimova_2017-again1
     RDKit          3D

 63 69  0  0  0  0  0  0  0  0999 V2000
  132.0010  126.3200   57.7250 C   0  0  0  0  0  0  0  0  0  0  0  0
  130.5270  125.9460   57.9340 C   0  0  2  0  0  0  0  0  0  0  0  0
  129.6370  127.1520   58.3510 C   0  0  0  0  0  0  0  0  0  0  0  0
  128.4330  127.2050   58.0740 O   0  0  0  0  0  0  0  0  0  0  0  0
  130.3380  128.1200   59.0140 O   0  0  0  0  0  0  0  0  0  0  0  0
  129.6870  128.9420   59.9040 C   0  0  0  0  0  0  0  0  0  0  0  0
  130.2300  130.1910   60.2100 C   0  0  0  0  0  0  0  0  0  0  0  0
  129.5680  131.0380   61.0940 C   0  0  0  0  0  0  0  0  0  0  0  0
  128.3560  130.6440   61.6710 C   0  0  0  0  0  0  0  0  0  0  0  0
  127.6220  131.5740   62.6470 C   0  0  1  0  0  0  0  0  0  0  0  0
  127.0460  132.8110   61.9190 C   0  0  0  0  0  0  0  0  0  0  0  0
  127.6340  133.8360   61.2630 C   0  0  0  0  0  0  0  0  0  0  0  0
  128.9080  134.0020   61.1440 O   0  0  0  0  0  0  0  0  0  0  0  0
  126.6210  134.7160   60.6830 C   0  0  0  0  0  0  0  0  0  0  0  0
  126.7120  135.8830   59.9140 C   0  0  0  0  0  0  0  0  0  0  0  0
  125.5450  136.5190   59.4860 C   0  0  0  0  0  0  0  0  0  0  0  0
  124.2970  135.9930   59.8240 C   0  0  0  0  0  0  0  0  0  0  0  0
  124.2110  134.8290   60.5920 C   0  0  0  0  0  0  0  0  0  0  0  0
  125.3800  134.1930   61.0160 C   0  0  0  0  0  0  0  0  0  0  0  0
  125.6080  133.0060   61.8210 C   0  0  0  0  0  0  0  0  0  0  0  0
  124.7690  132.2230   62.3890 N   0  0  0  0  0  0  0  0  0  0  0  0
  125.1750  131.2170   63.2150 C   0  0  0  0  0  0  0  0  0  0  0  0
  124.1390  130.5970   63.8520 N   0  0  0  0  0  0  0  0  0  0  0  0
  124.3850  129.6180   64.6480 C   0  0  0  0  0  0  0  0  0  0  0  0
  123.3680  129.1280   65.1670 O   0  0  0  0  0  0  0  0  0  0  0  0
  125.6790  129.1650   64.8970 N   0  0  0  0  0  0  0  0  0  0  0  0
  125.9940  128.0380   65.8070 C   0  0  0  0  0  0  0  0  0  0  0  0
  126.7890  129.7430   64.3110 C   0  0  0  0  0  0  0  0  0  0  0  0
  127.9530  129.3880   64.5220 O   0  0  0  0  0  0  0  0  0  0  0  0
  126.4810  130.8480   63.3980 C   0  0  0  0  0  0  0  0  0  0  0  0
  127.8090  129.3970   61.3520 C   0  0  0  0  0  0  0  0  0  0  0  0
  128.4690  128.5510   60.4660 C   0  0  0  0  0  0  0  0  0  0  0  0
  130.3710  124.7810   58.8540 N   0  0  0  0  0  0  0  0  0  0  0  0
  129.1500  124.2290   59.1040 C   0  0  0  0  0  0  0  0  0  0  0  0
  128.0610  124.5810   58.6470 O   0  0  0  0  0  0  0  0  0  0  0  0
  129.4080  123.1120   60.0470 C   0  0  0  0  0  0  0  0  0  0  0  0
  128.5350  122.2030   60.6480 C   0  0  0  0  0  0  0  0  0  0  0  0
  129.0650  121.2370   61.5110 C   0  0  0  0  0  0  0  0  0  0  0  0
  130.4430  121.1910   61.7600 C   0  0  0  0  0  0  0  0  0  0  0  0
  131.3010  122.1100   61.1470 C   0  0  0  0  0  0  0  0  0  0  0  0
  130.7530  123.0670   60.2910 C   0  0  0  0  0  0  0  0  0  0  0  0
  131.3950  124.1530   59.5080 C   0  0  0  0  0  0  0  0  0  0  0  0
  132.5940  124.4270   59.4570 O   0  0  0  0  0  0  0  0  0  0  0  0
  132.4900  126.4441   58.7025 H   0  0  0  0  0  0  0  0  0  0  0  0
  132.5056  125.5214   57.1614 H   0  0  0  0  0  0  0  0  0  0  0  0
  132.0638  127.2625   57.1614 H   0  0  0  0  0  0  0  0  0  0  0  0
  130.1533  125.6320   56.9482 H   0  0  0  0  0  0  0  0  0  0  0  0
  131.1799  130.5054   59.7531 H   0  0  0  0  0  0  0  0  0  0  0  0
  129.9989  132.0198   61.3396 H   0  0  0  0  0  0  0  0  0  0  0  0
  128.3711  131.9005   63.3833 H   0  0  0  0  0  0  0  0  0  0  0  0
  127.6965  136.2959   59.6489 H   0  0  0  0  0  0  0  0  0  0  0  0
  125.6092  137.4358   58.8816 H   0  0  0  0  0  0  0  0  0  0  0  0
  123.3793  136.4959   59.4850 H   0  0  0  0  0  0  0  0  0  0  0  0
  123.2278  134.4157   60.8613 H   0  0  0  0  0  0  0  0  0  0  0  0
  125.9005  128.3724   66.8508 H   0  0  0  0  0  0  0  0  0  0  0  0
  125.2926  127.2109   65.6227 H   0  0  0  0  0  0  0  0  0  0  0  0
  127.0226  127.6944   65.6227 H   0  0  0  0  0  0  0  0  0  0  0  0
  126.8553  129.0844   61.8023 H   0  0  0  0  0  0  0  0  0  0  0  0
  128.0321  127.5750   60.2082 H   0  0  0  0  0  0  0  0  0  0  0  0
  127.4542  122.2452   60.4476 H   0  0  0  0  0  0  0  0  0  0  0  0
  128.3965  120.5105   61.9961 H   0  0  0  0  0  0  0  0  0  0  0  0
  130.8517  120.4292   62.4402 H   0  0  0  0  0  0  0  0  0  0  0  0
  132.3843  122.0793   61.3354 H   0  0  0  0  0  0  0  0  0  0  0  0
  1  2  1  0
  2  3  1  0
  3  4  2  0
  3  5  1  0
  5  6  1  0
  6  7  2  0
  7  8  1  0
  8  9  2  0
  9 10  1  0
 10 11  1  0
 11 12  2  0
 12 13  1  0
 12 14  1  0
 14 15  2  0
 15 16  1  0
 16 17  2  0
 17 18  1  0
 18 19  2  0
 19 20  1  0
 20 21  2  0
 21 22  1  0
 22 23  1  0
 23 24  2  0
 24 25  1  0
 24 26  1  0
 26 27  1  0
 26 28  1  0
 28 29  2  0
 28 30  1  0
  9 31  1  0
 31 32  2  0
  2 33  1  0
 33 34  1  0
 34 35  2  0
 34 36  1  0
 36 37  2  0
 37 38  1  0
 38 39  2  0
 39 40  1  0
 40 41  2  0
 41 42  1  0
 42 43  2  0
 32  6  1  0
 42 33  1  0
 30 10  1  0
 41 36  1  0
 20 11  1  0
 30 22  2  0
 19 14  1  0
  1 44  1  0
  1 45  1  0
  1 46  1  0
  2 47  1  6
  7 48  1  0
  8 49  1  0
 10 50  1  1
 15 51  1  0
 16 52  1  0
 17 53  1  0
 18 54  1  0
 27 55  1  0
 27 56  1  0
 27 57  1  0
 31 58  1  0
 32 59  1  0
 37 60  1  0
 38 61  1  0
 39 62  1  0
 40 63  1  0
M  CHG  2  13  -1  25  -1
M  END
>  <Binding energies>  (1) 
[-7.38]

>  <Ligand effiencies>  (1) 
[-0.17162790697674418]

>  <Interactions>  (1) 
["V-B:ALA:541:CB:9864, V-B:TYR:539:CD2:9846, V-B:TYR:539:C:9839, V-A:LEU:475:CD2:4259, V-B:GLU:543:CD:9880, V-B:TYR:539:CE2:9848, V-B:PRO:540:C:9853, V-B:PRO:540:CA:9855, V-B:SER:385:C:8377, V-A:TYR:539:CE1:4875, V-A:ALA:541:CB:4892, V-B:SER:385:CA:8379, V-A:TYR:539:CD1:4873, V-B:SER:385:CB:8381, V-B:ILE:369:CG2:8209, V-B:ARG:545:CZ:9898, V-B:LEU:475:CD2:9231, H-A:ALA:541:N:4891, H-B:GLY:454:N:9022, H-B:ARG:545:NE:9896, H-B:TYR:484:OH:9320, V-A:TYR:539:C:4867, V-B:GLY:453:CA:9016, V-B:ARG:545:CD:9895, H-B:ARG:545:NH1:9899, V-B:HIS:456:CE1:9042, V-B:ARG:545:CG:9894, V-A:ASP:366:CG:3213, H-B:ARG:545:NH2:9900, V-A:ASP:366:CB:3212, V-A:TYR:539:CB:4871, V-A:TYR:539:CG:4872"]

$$$$
RR25_Rahimova_2017
     RDKit          3D

 63 68  0  0  0  0  0  0  0  0999 V2000
  122.6840  130.4370   61.5790 O   0  0  0  0  0  0  0  0  0  0  0  0
  123.6510  130.0150   62.2140 C   0  0  0  0  0  0  0  0  0  0  0  0
  123.6480  130.2670   63.5640 O   0  0  0  0  0  0  0  0  0  0  0  0
  124.5360  129.6390   64.4180 C   0  0  0  0  0  0  0  0  0  0  0  0
  124.1390  129.5030   65.7470 C   0  0  0  0  0  0  0  0  0  0  0  0
  124.9890  128.8870   66.6630 C   0  0  0  0  0  0  0  0  0  0  0  0
  126.2450  128.4040   66.2670 C   0  0  0  0  0  0  0  0  0  0  0  0
  127.1450  127.7420   67.2440 N   0  0  0  0  0  0  0  0  0  0  0  0
  126.6850  126.8560   67.9590 O   0  0  0  0  0  0  0  0  0  0  0  0
  128.3160  128.1040   67.3020 O   0  0  0  0  0  0  0  0  0  0  0  0
  126.6310  128.5620   64.9260 C   0  0  0  0  0  0  0  0  0  0  0  0
  125.7940  129.1840   63.9960 C   0  0  0  0  0  0  0  0  0  0  0  0
  126.1610  129.3690   62.5350 C   0  0  0  0  0  0  0  0  0  0  0  0
  124.8840  129.2470   61.6550 C   0  0  2  0  0  0  0  0  0  0  0  0
  125.2050  129.5290   60.1590 C   0  0  0  0  0  0  0  0  0  0  0  0
  124.6640  130.5220   59.6660 O   0  0  0  0  0  0  0  0  0  0  0  0
  126.1290  128.7990   59.4630 N   0  0  0  0  0  0  0  0  0  0  0  0
  126.5620  127.4490   59.8800 C   0  0  0  0  0  0  0  0  0  0  0  0
  128.0650  127.2870   59.5720 C   0  0  0  0  0  0  0  0  0  0  0  0
  128.3560  127.5670   58.1630 N   0  0  0  0  0  0  0  0  0  0  0  0
  129.7610  127.2860   57.8370 C   0  0  0  0  0  0  0  0  0  0  0  0
  129.9740  125.8540   57.2760 C   0  0  0  0  0  0  0  0  0  0  0  0
  130.3640  124.8120   58.2700 N   0  0  0  0  0  0  0  0  0  0  0  0
  131.7090  124.7590   58.5710 C   0  0  0  0  0  0  0  0  0  0  0  0
  132.5510  125.4910   58.0370 O   0  0  0  0  0  0  0  0  0  0  0  0
  132.0790  123.7390   59.6300 C   0  0  0  0  0  0  0  0  0  0  0  0
  133.4160  123.6190   60.0320 C   0  0  0  0  0  0  0  0  0  0  0  0
  133.7910  122.6980   61.0080 C   0  0  0  0  0  0  0  0  0  0  0  0
  132.8460  121.8730   61.6160 C   0  0  0  0  0  0  0  0  0  0  0  0
  131.4830  121.9590   61.2430 C   0  0  0  0  0  0  0  0  0  0  0  0
  130.4720  121.1540   61.8190 C   0  0  0  0  0  0  0  0  0  0  0  0
  129.1480  121.2920   61.4070 C   0  0  0  0  0  0  0  0  0  0  0  0
  128.7960  122.2170   60.4270 C   0  0  0  0  0  0  0  0  0  0  0  0
  129.7620  123.0350   59.8280 C   0  0  0  0  0  0  0  0  0  0  0  0
  131.1130  122.9010   60.2430 C   0  0  0  0  0  0  0  0  0  0  0  0
  129.3380  124.0360   58.7710 C   0  0  0  0  0  0  0  0  0  0  0  0
  128.1620  124.1490   58.4090 O   0  0  0  0  0  0  0  0  0  0  0  0
  127.9950  128.9500   57.8470 C   0  0  0  0  0  0  0  0  0  0  0  0
  126.4900  129.2170   58.0890 C   0  0  0  0  0  0  0  0  0  0  0  0
  123.1581  129.8806   66.0715 H   0  0  0  0  0  0  0  0  0  0  0  0
  124.6710  128.7780   67.7104 H   0  0  0  0  0  0  0  0  0  0  0  0
  127.6131  128.1882   64.6009 H   0  0  0  0  0  0  0  0  0  0  0  0
  126.6091  130.3636   62.3935 H   0  0  0  0  0  0  0  0  0  0  0  0
  126.8830  128.5936   62.2394 H   0  0  0  0  0  0  0  0  0  0  0  0
  124.5567  128.1981   61.7061 H   0  0  0  0  0  0  0  0  0  0  0  0
  126.3910  127.3237   60.9594 H   0  0  0  0  0  0  0  0  0  0  0  0
  125.9861  126.6881   59.3329 H   0  0  0  0  0  0  0  0  0  0  0  0
  128.6364  127.9855   60.2010 H   0  0  0  0  0  0  0  0  0  0  0  0
  128.3514  126.2464   59.7842 H   0  0  0  0  0  0  0  0  0  0  0  0
  130.0990  128.0125   57.0834 H   0  0  0  0  0  0  0  0  0  0  0  0
  130.3395  127.3658   58.7692 H   0  0  0  0  0  0  0  0  0  0  0  0
  129.0329  125.5339   56.8050 H   0  0  0  0  0  0  0  0  0  0  0  0
  130.8226  125.9319   56.5805 H   0  0  0  0  0  0  0  0  0  0  0  0
  134.1805  124.2612   59.5704 H   0  0  0  0  0  0  0  0  0  0  0  0
  134.8479  122.6208   61.3030 H   0  0  0  0  0  0  0  0  0  0  0  0
  133.1599  121.1539   62.3870 H   0  0  0  0  0  0  0  0  0  0  0  0
  130.7317  120.4176   62.5938 H   0  0  0  0  0  0  0  0  0  0  0  0
  128.3699  120.6616   61.8621 H   0  0  0  0  0  0  0  0  0  0  0  0
  127.7438  122.3063   60.1190 H   0  0  0  0  0  0  0  0  0  0  0  0
  128.5842  129.6267   58.4833 H   0  0  0  0  0  0  0  0  0  0  0  0
  128.2081  129.1258   56.7823 H   0  0  0  0  0  0  0  0  0  0  0  0
  126.2837  130.2905   57.9662 H   0  0  0  0  0  0  0  0  0  0  0  0
  125.8946  128.6438   57.3631 H   0  0  0  0  0  0  0  0  0  0  0  0
  1  2  2  0
  2  3  1  0
  3  4  1  0
  4  5  2  0
  5  6  1  0
  6  7  2  0
  7  8  1  0
  8  9  2  0
  8 10  1  0
  7 11  1  0
 11 12  2  0
 12 13  1  0
 13 14  1  0
 14 15  1  0
 15 16  2  0
 15 17  1  0
 17 18  1  0
 18 19  1  0
 19 20  1  0
 20 21  1  0
 21 22  1  0
 22 23  1  0
 23 24  1  0
 24 25  2  0
 24 26  1  0
 26 27  2  0
 27 28  1  0
 28 29  2  0
 29 30  1  0
 30 31  2  0
 31 32  1  0
 32 33  2  0
 33 34  1  0
 34 35  2  0
 34 36  1  0
 36 37  2  0
 20 38  1  0
 38 39  1  0
 14  2  1  0
 39 17  1  0
 12  4  1  0
 36 23  1  0
 35 26  1  0
 35 30  1  0
  5 40  1  0
  6 41  1  0
 11 42  1  0
 13 43  1  0
 13 44  1  0
 14 45  1  6
 18 46  1  0
 18 47  1  0
 19 48  1  0
 19 49  1  0
 21 50  1  0
 21 51  1  0
 22 52  1  0
 22 53  1  0
 27 54  1  0
 28 55  1  0
 29 56  1  0
 31 57  1  0
 32 58  1  0
 33 59  1  0
 38 60  1  0
 38 61  1  0
 39 62  1  0
 39 63  1  0
M  CHG  2   8   1  10  -1
M  END
>  <Binding energies>  (1) 
[-8.96]

>  <Ligand effiencies>  (1) 
[-0.22974358974358977]

>  <Interactions>  (1) 
["V-B:ALA:541:CB:9864, V-B:TYR:539:CD2:9846, V-B:TYR:539:C:9839, V-A:LEU:475:CD2:4259, V-B:GLU:543:CD:9880, V-A:ILE:369:CG2:3237, V-B:TYR:539:CE2:9848, V-B:PRO:540:CA:9855, V-B:ARG:545:CZ:9898, H-B:GLY:454:N:9022, V-B:GLY:453:CA:9016, V-B:ARG:545:CD:9895, H-B:ARG:545:NH1:9899, V-B:HIS:456:CE1:9042, V-B:ARG:545:CG:9894, V-A:GLY:454:CA:4049, V-A:ILE:369:CD1:3239, V-B:GLU:543:CB:9878, V-B:TYR:484:CZ:9319, V-B:ASP:366:CG:8185, V-B:ASP:366:CB:8184, H-B:TYR:539:OH:9850, V-B:TYR:539:CZ:9849"]

$$$$
RR26_Rahimova_2017
     RDKit          3D

 59 65  0  0  0  0  0  0  0  0999 V2000
  132.7870  120.6680   59.6530 C   0  0  0  0  0  0  0  0  0  0  0  0
  131.7540  119.7120   60.2350 C   0  0  0  0  0  0  0  0  0  0  0  0
  131.9810  118.3370   60.1130 C   0  0  0  0  0  0  0  0  0  0  0  0
  131.0900  117.4170   60.6610 C   0  0  0  0  0  0  0  0  0  0  0  0
  129.9640  117.8650   61.3450 C   0  0  0  0  0  0  0  0  0  0  0  0
  129.7280  119.2320   61.4750 C   0  0  0  0  0  0  0  0  0  0  0  0
  130.6090  120.1740   60.9210 C   0  0  0  0  0  0  0  0  0  0  0  0
  130.2720  121.6270   61.0930 C   0  0  0  0  0  0  0  0  0  0  0  0
  129.1600  122.1630   60.5960 N   0  0  0  0  0  0  0  0  0  0  0  0
  129.2640  123.4060   60.9810 C   0  0  0  0  0  0  0  0  0  0  0  0
  128.3200  124.8380   60.8060 S   0  0  0  0  0  0  0  0  0  0  0  0
  129.5520  125.7410   61.7650 C   0  0  0  0  0  0  0  0  0  0  0  0
  129.5450  127.0510   62.0980 C   0  0  0  0  0  0  0  0  0  0  0  0
  128.5430  128.0530   61.7730 C   0  0  0  0  0  0  0  0  0  0  0  0
  127.1900  128.0410   62.0750 C   0  0  0  0  0  0  0  0  0  0  0  0
  126.6430  129.2100   61.6100 N   0  0  0  0  0  0  0  0  0  0  0  0
  125.2950  129.6440   61.6960 C   0  0  0  0  0  0  0  0  0  0  0  0
  124.6360  130.1660   60.5730 C   0  0  0  0  0  0  0  0  0  0  0  0
  123.3130  130.5910   60.6720 C   0  0  0  0  0  0  0  0  0  0  0  0
  122.6450  130.4920   61.8900 C   0  0  0  0  0  0  0  0  0  0  0  0
  123.2870  129.9720   63.0110 C   0  0  0  0  0  0  0  0  0  0  0  0
  124.6100  129.5490   62.9170 C   0  0  0  0  0  0  0  0  0  0  0  0
  127.5910  129.9770   61.0500 N   0  0  0  0  0  0  0  0  0  0  0  0
  128.7200  129.3020   61.1350 C   0  0  0  0  0  0  0  0  0  0  0  0
  129.9830  129.8890   60.5840 C   0  0  0  0  0  0  0  0  0  0  0  0
  130.7020  130.8450   61.3180 C   0  0  0  0  0  0  0  0  0  0  0  0
  131.8780  131.4010   60.8110 C   0  0  0  0  0  0  0  0  0  0  0  0
  132.3450  131.0030   59.5600 C   0  0  0  0  0  0  0  0  0  0  0  0
  131.6460  130.0340   58.8250 C   0  0  0  0  0  0  0  0  0  0  0  0
  130.4690  129.4850   59.3310 C   0  0  0  0  0  0  0  0  0  0  0  0
  132.0480  129.6420   57.5630 O   0  0  0  0  0  0  0  0  0  0  0  0
  133.4140  129.9460   57.2630 C   0  0  0  0  0  0  0  0  0  0  0  0
  133.7620  131.3860   57.7130 C   0  0  0  0  0  0  0  0  0  0  0  0
  133.5370  131.5410   59.1180 O   0  0  0  0  0  0  0  0  0  0  0  0
  130.6620  124.8900   62.1830 C   0  0  0  0  0  0  0  0  0  0  0  0
  131.6630  125.1840   62.8390 O   0  0  0  0  0  0  0  0  0  0  0  0
  130.3910  123.6050   61.6880 N   0  0  0  0  0  0  0  0  0  0  0  0
  131.0560  122.4490   61.7730 N   0  0  0  0  0  0  0  0  0  0  0  0
  133.3265  121.1673   60.4713 H   0  0  0  0  0  0  0  0  0  0  0  0
  133.5003  120.1044   59.0337 H   0  0  0  0  0  0  0  0  0  0  0  0
  132.2802  121.4227   59.0337 H   0  0  0  0  0  0  0  0  0  0  0  0
  132.8729  117.9783   59.5784 H   0  0  0  0  0  0  0  0  0  0  0  0
  131.2762  116.3382   60.5532 H   0  0  0  0  0  0  0  0  0  0  0  0
  129.2611  117.1408   61.7825 H   0  0  0  0  0  0  0  0  0  0  0  0
  128.8376  119.5784   62.0202 H   0  0  0  0  0  0  0  0  0  0  0  0
  130.4041  127.4026   62.6882 H   0  0  0  0  0  0  0  0  0  0  0  0
  126.6503  127.2362   62.5956 H   0  0  0  0  0  0  0  0  0  0  0  0
  125.1654  130.2399   59.6116 H   0  0  0  0  0  0  0  0  0  0  0  0
  122.7980  131.0031   59.7917 H   0  0  0  0  0  0  0  0  0  0  0  0
  121.6003  130.8277   61.9673 H   0  0  0  0  0  0  0  0  0  0  0  0
  122.7503  129.8957   63.9681 H   0  0  0  0  0  0  0  0  0  0  0  0
  125.1195  129.1394   63.8017 H   0  0  0  0  0  0  0  0  0  0  0  0
  130.3342  131.1603   62.3056 H   0  0  0  0  0  0  0  0  0  0  0  0
  132.4329  132.1492   61.3960 H   0  0  0  0  0  0  0  0  0  0  0  0
  129.9193  128.7327   58.7463 H   0  0  0  0  0  0  0  0  0  0  0  0
  134.0670  129.2346   57.7898 H   0  0  0  0  0  0  0  0  0  0  0  0
  133.5650  129.8673   56.1763 H   0  0  0  0  0  0  0  0  0  0  0  0
  134.8203  131.5886   57.4915 H   0  0  0  0  0  0  0  0  0  0  0  0
  133.1183  132.0935   57.1697 H   0  0  0  0  0  0  0  0  0  0  0  0
  1  2  1  0
  2  3  2  0
  3  4  1  0
  4  5  2  0
  5  6  1  0
  6  7  2  0
  7  8  1  0
  8  9  1  0
  9 10  2  0
 10 11  1  0
 11 12  1  0
 12 13  2  0
 13 14  1  0
 14 15  2  0
 15 16  1  0
 16 17  1  0
 17 18  2  0
 18 19  1  0
 19 20  2  0
 20 21  1  0
 21 22  2  0
 16 23  1  0
 23 24  2  0
 24 25  1  0
 25 26  2  0
 26 27  1  0
 27 28  2  0
 28 29  1  0
 29 30  2  0
 29 31  1  0
 31 32  1  0
 32 33  1  0
 33 34  1  0
 12 35  1  0
 35 36  2  0
 35 37  1  0
 37 38  1  0
  7  2  1  0
 38  8  2  0
 37 10  1  0
 24 14  1  0
 30 25  1  0
 22 17  1  0
 34 28  1  0
  1 39  1  0
  1 40  1  0
  1 41  1  0
  3 42  1  0
  4 43  1  0
  5 44  1  0
  6 45  1  0
 13 46  1  0
 15 47  1  0
 18 48  1  0
 19 49  1  0
 20 50  1  0
 21 51  1  0
 22 52  1  0
 26 53  1  0
 27 54  1  0
 30 55  1  0
 32 56  1  0
 32 57  1  0
 33 58  1  0
 33 59  1  0
M  END
>  <Binding energies>  (1) 
[-8.11]

>  <Ligand effiencies>  (1) 
[-0.21342105263157893]

>  <Interactions>  (1) 
["V-B:ALA:541:CB:9864, V-B:TYR:539:CD2:9846, V-A:PRO:482:CG:4327, V-A:PRO:482:CB:4326, V-B:TYR:539:C:9839, V-A:LEU:475:CD1:4258, V-A:LEU:475:CD2:4259, V-A:SER:385:CB:3409, V-A:ILE:369:CG2:3237, V-B:TYR:539:CE2:9848, V-A:GLU:543:CD:4908, H-A:TYR:484:OH:4348, V-B:ILE:369:CD1:8211, V-A:PRO:540:CA:4883, V-B:ARG:545:CZ:9898, V-B:GLY:453:C:9014, V-B:GLY:453:CA:9016, V-A:PRO:540:CB:4885, V-A:ASP:366:CG:3213, V-A:LEU:475:CG:4257, V-B:ASP:366:CG:8185, V-A:ASP:366:CB:3212, V-B:ASP:366:CA:8182, V-B:ASP:366:CB:8184, V-A:LEU:363:CB:3187, V-A:LEU:363:CA:3185, H-A:ARG:545:NH2:4928, V-A:LEU:363:CD1:3189, V-A:TYR:531:CZ:4794, H-A:TYR:531:OH:4795, H-A:LEU:363:N:3186, V-A:LEU:363:CG:3188"]

$$$$
RR27_Rahimova_2017
     RDKit          3D

 66 71  0  0  0  0  0  0  0  0999 V2000
  129.1450  122.5720   62.9130 O   0  0  0  0  0  0  0  0  0  0  0  0
  129.0670  122.3980   61.6930 C   0  0  0  0  0  0  0  0  0  0  0  0
  130.3450  121.9460   60.9280 C   0  0  0  0  0  0  0  0  0  0  0  0
  130.5380  120.4190   60.9220 C   0  0  0  0  0  0  0  0  0  0  0  0
  131.5790  119.8060   60.2060 C   0  0  0  0  0  0  0  0  0  0  0  0
  131.7260  118.4230   60.2240 C   0  0  0  0  0  0  0  0  0  0  0  0
  130.8340  117.6440   60.9570 C   0  0  0  0  0  0  0  0  0  0  0  0
  129.7950  118.2370   61.6690 C   0  0  0  0  0  0  0  0  0  0  0  0
  129.6480  119.6200   61.6510 C   0  0  0  0  0  0  0  0  0  0  0  0
  131.5840  122.7560   61.3570 C   0  0  0  0  0  0  0  0  0  0  0  0
  132.8530  122.1690   61.4460 C   0  0  0  0  0  0  0  0  0  0  0  0
  133.9500  122.9270   61.8490 C   0  0  0  0  0  0  0  0  0  0  0  0
  133.7810  124.2710   62.1680 C   0  0  0  0  0  0  0  0  0  0  0  0
  132.5240  124.8640   62.0950 C   0  0  0  0  0  0  0  0  0  0  0  0
  131.4280  124.1060   61.6940 C   0  0  0  0  0  0  0  0  0  0  0  0
  127.8710  122.4450   61.0400 N   0  0  0  0  0  0  0  0  0  0  0  0
  127.7480  122.4990   59.5750 C   0  0  0  0  0  0  0  0  0  0  0  0
  127.8100  123.9900   59.1760 C   0  0  0  0  0  0  0  0  0  0  0  0
  126.7420  124.8570   59.9150 C   0  0  0  0  0  0  0  0  0  0  0  0
  126.8340  126.3690   59.6380 C   0  0  0  0  0  0  0  0  0  0  0  0
  127.7230  126.7570   58.6780 N   0  0  0  0  0  0  0  0  0  0  0  0
  127.8240  128.0810   58.3750 C   0  0  0  0  0  0  0  0  0  0  0  0
  128.6740  128.5920   57.4290 O   0  0  0  0  0  0  0  0  0  0  0  0
  127.0070  128.9970   59.0660 C   0  0  0  0  0  0  0  0  0  0  0  0
  126.8540  130.3510   59.0090 N   0  0  0  0  0  0  0  0  0  0  0  0
  125.8970  130.6960   59.9450 N   0  0  0  0  0  0  0  0  0  0  0  0
  125.4640  129.5750   60.5600 N   0  0  0  0  0  0  0  0  0  0  0  0
  124.4610  129.6500   61.6200 C   0  0  0  0  0  0  0  0  0  0  0  0
  125.0040  129.3110   63.0010 C   0  0  0  0  0  0  0  0  0  0  0  0
  126.2820  128.7590   63.1400 C   0  0  0  0  0  0  0  0  0  0  0  0
  126.7830  128.4590   64.4070 C   0  0  0  0  0  0  0  0  0  0  0  0
  126.0140  128.7140   65.5420 C   0  0  0  0  0  0  0  0  0  0  0  0
  124.7420  129.2740   65.4110 C   0  0  0  0  0  0  0  0  0  0  0  0
  123.7980  129.6150   66.8160 Cl  0  0  0  0  0  0  0  0  0  0  0  0
  124.2370  129.5670   64.1440 C   0  0  0  0  0  0  0  0  0  0  0  0
  126.1350  128.4770   60.0470 C   0  0  0  0  0  0  0  0  0  0  0  0
  126.0220  127.1850   60.3690 N   0  0  0  0  0  0  0  0  0  0  0  0
  126.6610  124.5110   61.4340 C   0  0  0  0  0  0  0  0  0  0  0  0
  126.6810  122.9870   61.7140 C   0  0  0  0  0  0  0  0  0  0  0  0
  130.1949  122.1902   59.8660 H   0  0  0  0  0  0  0  0  0  0  0  0
  132.2822  120.4232   59.6276 H   0  0  0  0  0  0  0  0  0  0  0  0
  132.5429  117.9468   59.6620 H   0  0  0  0  0  0  0  0  0  0  0  0
  130.9515  116.5504   60.9735 H   0  0  0  0  0  0  0  0  0  0  0  0
  129.0932  117.6144   62.2434 H   0  0  0  0  0  0  0  0  0  0  0  0
  128.8272  120.0895   62.2131 H   0  0  0  0  0  0  0  0  0  0  0  0
  132.9836  121.1056   61.1967 H   0  0  0  0  0  0  0  0  0  0  0  0
  134.9461  122.4650   61.9148 H   0  0  0  0  0  0  0  0  0  0  0  0
  134.6489  124.8702   62.4807 H   0  0  0  0  0  0  0  0  0  0  0  0
  132.3976  125.9259   62.3528 H   0  0  0  0  0  0  0  0  0  0  0  0
  130.4323  124.5706   61.6414 H   0  0  0  0  0  0  0  0  0  0  0  0
  128.5750  121.9466   59.1050 H   0  0  0  0  0  0  0  0  0  0  0  0
  126.8057  122.0402   59.2411 H   0  0  0  0  0  0  0  0  0  0  0  0
  128.8095  124.3785   59.4212 H   0  0  0  0  0  0  0  0  0  0  0  0
  127.6015  124.0542   58.0978 H   0  0  0  0  0  0  0  0  0  0  0  0
  125.7782  124.5716   59.4683 H   0  0  0  0  0  0  0  0  0  0  0  0
  128.6390  129.5490   57.3770 H   0  0  0  0  0  0  0  0  0  0  0  0
  124.0594  130.6737   61.6464 H   0  0  0  0  0  0  0  0  0  0  0  0
  123.6889  128.9023   61.3856 H   0  0  0  0  0  0  0  0  0  0  0  0
  126.8937  128.5609   62.2475 H   0  0  0  0  0  0  0  0  0  0  0  0
  127.7865  128.0205   64.5109 H   0  0  0  0  0  0  0  0  0  0  0  0
  126.4095  128.4740   66.5400 H   0  0  0  0  0  0  0  0  0  0  0  0
  123.2314  130.0012   64.0425 H   0  0  0  0  0  0  0  0  0  0  0  0
  127.5200  124.9716   61.9439 H   0  0  0  0  0  0  0  0  0  0  0  0
  125.7022  124.8998   61.8075 H   0  0  0  0  0  0  0  0  0  0  0  0
  126.7421  122.8019   62.7966 H   0  0  0  0  0  0  0  0  0  0  0  0
  125.7643  122.5060   61.3422 H   0  0  0  0  0  0  0  0  0  0  0  0
  1  2  2  0
  2  3  1  0
  3  4  1  0
  4  5  2  0
  5  6  1  0
  6  7  2  0
  7  8  1  0
  8  9  2  0
  3 10  1  0
 10 11  2  0
 11 12  1  0
 12 13  2  0
 13 14  1  0
 14 15  2  0
  2 16  1  0
 16 17  1  0
 17 18  1  0
 18 19  1  0
 19 20  1  0
 20 21  2  0
 21 22  1  0
 22 23  1  0
 22 24  2  0
 24 25  1  0
 25 26  2  0
 26 27  1  0
 27 28  1  0
 28 29  1  0
 29 30  2  0
 30 31  1  0
 31 32  2  0
 32 33  1  0
 33 34  1  0
 33 35  2  0
 27 36  1  0
 36 37  2  0
 19 38  1  0
 38 39  1  0
  9  4  1  0
 15 10  1  0
 39 16  1  0
 37 20  1  0
 36 24  1  0
 35 29  1  0
  3 40  1  0
  5 41  1  0
  6 42  1  0
  7 43  1  0
  8 44  1  0
  9 45  1  0
 11 46  1  0
 12 47  1  0
 13 48  1  0
 14 49  1  0
 15 50  1  0
 17 51  1  0
 17 52  1  0
 18 53  1  0
 18 54  1  0
 19 55  1  0
 23 56  1  0
 28 57  1  0
 28 58  1  0
 30 59  1  0
 31 60  1  0
 32 61  1  0
 35 62  1  0
 38 63  1  0
 38 64  1  0
 39 65  1  0
 39 66  1  0
M  END
>  <Binding energies>  (1) 
[-9.25]

>  <Ligand effiencies>  (1) 
[-0.23125]

>  <Interactions>  (1) 
["V-B:ALA:541:CB:9864, V-B:TYR:539:CD2:9846, V-A:PRO:482:CG:4327, V-A:PRO:482:CB:4326, V-B:TYR:539:C:9839, V-A:LEU:475:CD1:4258, V-A:LEU:475:CD2:4259, V-B:GLU:543:CD:9880, V-A:SER:385:CB:3409, V-B:TYR:539:CE2:9848, V-B:PRO:540:C:9853, V-B:PRO:540:CA:9855, H-A:TYR:484:OH:4348, V-B:ARG:545:CZ:9898, V-B:GLY:454:CA:9021, V-B:GLY:453:CA:9016, V-B:ARG:545:CD:9895, V-B:HIS:456:CE1:9042, V-B:ARG:545:CG:9894, V-A:LEU:475:CG:4257, V-A:GLY:454:CA:4049, V-A:ILE:369:CD1:3239, V-A:GLY:453:CA:4044, V-A:GLY:453:C:4042, V-B:TYR:484:CE1:9317, V-B:TYR:484:CZ:9319, V-B:ASP:366:CG:8185, H-B:ARG:545:NH2:9900, V-B:PRO:540:CB:9857, V-B:PRO:540:N:9856"]

$$$$
RR27_Rahimova_2017-again1
     RDKit          3D

 66 71  0  0  0  0  0  0  0  0999 V2000
  130.8780  131.9140   62.3780 O   0  0  0  0  0  0  0  0  0  0  0  0
  129.8020  131.7360   61.8000 C   0  0  0  0  0  0  0  0  0  0  0  0
  128.4880  131.9090   62.6200 C   0  0  0  0  0  0  0  0  0  0  0  0
  127.9250  130.5650   63.1220 C   0  0  0  0  0  0  0  0  0  0  0  0
  127.1710  129.7170   62.2960 C   0  0  0  0  0  0  0  0  0  0  0  0
  126.6810  128.5100   62.7860 C   0  0  0  0  0  0  0  0  0  0  0  0
  126.9410  128.1440   64.1040 C   0  0  0  0  0  0  0  0  0  0  0  0
  127.6870  128.9730   64.9350 C   0  0  0  0  0  0  0  0  0  0  0  0
  128.1780  130.1800   64.4450 C   0  0  0  0  0  0  0  0  0  0  0  0
  127.4520  132.7740   61.8770 C   0  0  0  0  0  0  0  0  0  0  0  0
  127.8100  133.9930   61.2810 C   0  0  0  0  0  0  0  0  0  0  0  0
  126.8520  134.7690   60.6330 C   0  0  0  0  0  0  0  0  0  0  0  0
  125.5330  134.3290   60.5750 C   0  0  0  0  0  0  0  0  0  0  0  0
  125.1620  133.1230   61.1630 C   0  0  0  0  0  0  0  0  0  0  0  0
  126.1180  132.3510   61.8180 C   0  0  0  0  0  0  0  0  0  0  0  0
  129.7470  131.5560   60.4480 N   0  0  0  0  0  0  0  0  0  0  0  0
  128.5570  131.0680   59.7380 C   0  0  0  0  0  0  0  0  0  0  0  0
  128.5820  129.5220   59.7840 C   0  0  0  0  0  0  0  0  0  0  0  0
  129.9680  128.8570   59.4910 C   0  0  0  0  0  0  0  0  0  0  0  0
  130.1240  127.4700   60.1210 C   0  0  0  0  0  0  0  0  0  0  0  0
  129.6900  126.4140   59.5080 N   0  0  0  0  0  0  0  0  0  0  0  0
  129.8770  125.2360   60.1640 C   0  0  0  0  0  0  0  0  0  0  0  0
  130.4740  125.0720   61.4040 C   0  0  0  0  0  0  0  0  0  0  0  0
  130.4820  123.7950   61.7470 N   0  0  0  0  0  0  0  0  0  0  0  0
  129.8780  123.0830   60.7150 N   0  0  0  0  0  0  0  0  0  0  0  0
  129.5360  123.9700   59.7640 N   0  0  0  0  0  0  0  0  0  0  0  0
  128.8580  123.5400   58.5480 C   0  0  0  0  0  0  0  0  0  0  0  0
  127.3410  123.5880   58.6550 C   0  0  0  0  0  0  0  0  0  0  0  0
  126.5580  123.6550   57.4970 C   0  0  0  0  0  0  0  0  0  0  0  0
  125.1670  123.7100   57.5920 C   0  0  0  0  0  0  0  0  0  0  0  0
  124.5510  123.6950   58.8440 C   0  0  0  0  0  0  0  0  0  0  0  0
  125.3260  123.6230   60.0020 C   0  0  0  0  0  0  0  0  0  0  0  0
  124.5640  123.6090   61.5490 Cl  0  0  0  0  0  0  0  0  0  0  0  0
  126.7170  123.5670   59.9080 C   0  0  0  0  0  0  0  0  0  0  0  0
  130.9800  126.2470   62.1150 C   0  0  0  0  0  0  0  0  0  0  0  0
  131.5360  126.3000   63.2090 O   0  0  0  0  0  0  0  0  0  0  0  0
  130.7440  127.3790   61.3640 N   0  0  0  0  0  0  0  0  0  0  0  0
  131.2220  129.7580   59.7240 C   0  0  0  0  0  0  0  0  0  0  0  0
  130.9800  131.2870   59.6930 C   0  0  0  0  0  0  0  0  0  0  0  0
  128.7473  132.4707   63.5295 H   0  0  0  0  0  0  0  0  0  0  0  0
  126.9661  130.0081   61.2552 H   0  0  0  0  0  0  0  0  0  0  0  0
  126.0910  127.8482   62.1350 H   0  0  0  0  0  0  0  0  0  0  0  0
  126.5528  127.1905   64.4915 H   0  0  0  0  0  0  0  0  0  0  0  0
  127.8882  128.6762   65.9749 H   0  0  0  0  0  0  0  0  0  0  0  0
  128.7688  130.8360   65.1012 H   0  0  0  0  0  0  0  0  0  0  0  0
  128.8536  134.3377   61.3259 H   0  0  0  0  0  0  0  0  0  0  0  0
  127.1366  135.7250   60.1693 H   0  0  0  0  0  0  0  0  0  0  0  0
  124.7768  134.9397   60.0599 H   0  0  0  0  0  0  0  0  0  0  0  0
  124.1178  132.7812   61.1104 H   0  0  0  0  0  0  0  0  0  0  0  0
  125.8237  131.4030   62.2921 H   0  0  0  0  0  0  0  0  0  0  0  0
  127.6474  131.4427   60.2301 H   0  0  0  0  0  0  0  0  0  0  0  0
  128.5578  131.4222   58.6966 H   0  0  0  0  0  0  0  0  0  0  0  0
  128.2623  129.2085   60.7888 H   0  0  0  0  0  0  0  0  0  0  0  0
  127.9123  129.1871   58.9782 H   0  0  0  0  0  0  0  0  0  0  0  0
  129.9399  128.7168   58.4003 H   0  0  0  0  0  0  0  0  0  0  0  0
  129.1707  124.1971   57.7231 H   0  0  0  0  0  0  0  0  0  0  0  0
  129.1389  122.4911   58.3722 H   0  0  0  0  0  0  0  0  0  0  0  0
  127.0407  123.6643   56.5086 H   0  0  0  0  0  0  0  0  0  0  0  0
  124.5555  123.7652   56.6793 H   0  0  0  0  0  0  0  0  0  0  0  0
  123.4544  123.7399   58.9180 H   0  0  0  0  0  0  0  0  0  0  0  0
  127.3258  123.5061   60.8222 H   0  0  0  0  0  0  0  0  0  0  0  0
  131.0620  128.2390   61.7860 H   0  0  0  0  0  0  0  0  0  0  0  0
  131.6393  129.5041   60.7096 H   0  0  0  0  0  0  0  0  0  0  0  0
  131.8956  129.5492   58.8798 H   0  0  0  0  0  0  0  0  0  0  0  0
  131.8275  131.8107   60.1594 H   0  0  0  0  0  0  0  0  0  0  0  0
  130.8844  131.6427   58.6565 H   0  0  0  0  0  0  0  0  0  0  0  0
  1  2  2  0
  2  3  1  0
  3  4  1  0
  4  5  2  0
  5  6  1  0
  6  7  2  0
  7  8  1  0
  8  9  2  0
  3 10  1  0
 10 11  2  0
 11 12  1  0
 12 13  2  0
 13 14  1  0
 14 15  2  0
  2 16  1  0
 16 17  1  0
 17 18  1  0
 18 19  1  0
 19 20  1  0
 20 21  2  0
 21 22  1  0
 22 23  2  0
 23 24  1  0
 24 25  2  0
 25 26  1  0
 26 27  1  0
 27 28  1  0
 28 29  2  0
 29 30  1  0
 30 31  2  0
 31 32  1  0
 32 33  1  0
 32 34  2  0
 23 35  1  0
 35 36  2  0
 35 37  1  0
 19 38  1  0
 38 39  1  0
  9  4  1  0
 15 10  1  0
 39 16  1  0
 37 20  1  0
 26 22  1  0
 34 28  1  0
  3 40  1  0
  5 41  1  0
  6 42  1  0
  7 43  1  0
  8 44  1  0
  9 45  1  0
 11 46  1  0
 12 47  1  0
 13 48  1  0
 14 49  1  0
 15 50  1  0
 17 51  1  0
 17 52  1  0
 18 53  1  0
 18 54  1  0
 19 55  1  0
 27 56  1  0
 27 57  1  0
 29 58  1  0
 30 59  1  0
 31 60  1  0
 34 61  1  0
 37 62  1  0
 38 63  1  0
 38 64  1  0
 39 65  1  0
 39 66  1  0
M  END
>  <Binding energies>  (1) 
[-9.35]

>  <Ligand effiencies>  (1) 
[-0.23374999999999999]

>  <Interactions>  (1) 
["V-B:TYR:539:CD2:9846, V-B:GLU:543:CD:9880, V-B:TYR:539:CE2:9848, H-A:GLU:543:OE2:4910, V-A:GLU:543:CD:4908, V-B:PRO:540:CA:9855, H-A:GLU:543:OE1:4909, H-A:TYR:484:OH:4348, V-A:TYR:539:CE1:4875, V-A:PRO:540:CA:4883, V-A:ALA:541:CB:4892, V-A:TYR:539:CD1:4873, V-A:GLU:543:CG:4907, V-B:LEU:475:CD2:9231, H-A:ALA:541:N:4891, V-A:PRO:540:CB:4885, H-A:ASP:366:OD1:3214, V-A:ASP:366:CG:3213, V-B:ASP:366:CG:8185, V-A:GLU:543:CB:4906, V-B:PRO:540:CB:9857, V-B:ASN:362:CB:8148, H-A:ARG:545:NH2:4928, V-B:TYR:539:CZ:9849"]

$$$$
RR28_Rahimova_2017
     RDKit          3D

 82 85  0  0  0  0  0  0  0  0999 V2000
  125.5970  134.6080   60.6580 C   0  0  0  0  0  0  0  0  0  0  0  0
  126.7750  133.7760   61.1520 C   0  0  0  0  0  0  0  0  0  0  0  0
  127.6950  134.3240   61.7570 O   0  0  0  0  0  0  0  0  0  0  0  0
  126.7280  132.4550   60.8840 N   0  0  0  0  0  0  0  0  0  0  0  0
  127.7220  131.4140   61.2300 C   0  0  0  0  0  0  0  0  0  0  0  0
  127.2280  130.6740   62.5060 C   0  0  0  0  0  0  0  0  0  0  0  0
  128.1510  130.3430   63.5100 C   0  0  0  0  0  0  0  0  0  0  0  0
  127.7460  129.6780   64.6630 C   0  0  0  0  0  0  0  0  0  0  0  0
  126.4060  129.3270   64.8390 C   0  0  0  0  0  0  0  0  0  0  0  0
  125.9810  128.5930   66.1100 C   0  0  0  0  0  0  0  0  0  0  0  0
  124.9480  129.1830   66.7150 F   0  0  0  0  0  0  0  0  0  0  0  0
  125.6290  127.3390   65.8240 F   0  0  0  0  0  0  0  0  0  0  0  0
  127.0040  128.5670   66.9650 F   0  0  0  0  0  0  0  0  0  0  0  0
  125.4770  129.6500   63.8460 C   0  0  0  0  0  0  0  0  0  0  0  0
  125.8840  130.3150   62.6930 C   0  0  0  0  0  0  0  0  0  0  0  0
  129.1520  132.0470   61.3800 C   0  0  0  0  0  0  0  0  0  0  0  0
  129.7130  132.6150   60.0520 C   0  0  0  0  0  0  0  0  0  0  0  0
  129.7490  131.4920   59.1000 N   0  0  0  0  0  0  0  0  0  0  0  0
  130.8810  130.7520   58.9520 C   0  0  0  0  0  0  0  0  0  0  0  0
  131.9510  131.0840   59.4660 O   0  0  0  0  0  0  0  0  0  0  0  0
  130.8660  129.5490   57.9780 C   0  0  0  0  0  0  0  0  0  0  0  0
  131.2390  128.1720   58.5930 C   0  0  0  0  0  0  0  0  0  0  0  0
  130.0910  127.4570   59.3450 C   0  0  0  0  0  0  0  0  0  0  0  0
  129.1990  128.1540   59.8360 O   0  0  0  0  0  0  0  0  0  0  0  0
  130.0170  126.0960   59.3290 N   0  0  0  0  0  0  0  0  0  0  0  0
  131.1680  125.2290   59.0510 C   0  0  0  0  0  0  0  0  0  0  0  0
  131.9050  125.0320   60.3940 C   0  0  0  0  0  0  0  0  0  0  0  0
  131.0200  124.4450   61.5490 C   0  0  0  0  0  0  0  0  0  0  0  0
  131.6960  124.6780   62.8430 N   0  0  0  0  0  0  0  0  0  0  0  0
  133.0190  124.7370   63.0920 C   0  0  0  0  0  0  0  0  0  0  0  0
  133.4240  124.9740   64.5430 C   0  0  0  0  0  0  0  0  0  0  0  0
  133.8890  124.6100   62.2310 O   0  0  0  0  0  0  0  0  0  0  0  0
  130.9340  122.9000   61.3330 C   0  0  0  0  0  0  0  0  0  0  0  0
  129.8470  122.1280   61.7780 C   0  0  0  0  0  0  0  0  0  0  0  0
  129.8080  120.7530   61.5650 C   0  0  0  0  0  0  0  0  0  0  0  0
  130.8580  120.1120   60.9040 C   0  0  0  0  0  0  0  0  0  0  0  0
  130.8290  118.6040   60.6590 C   0  0  0  0  0  0  0  0  0  0  0  0
  131.9960  118.0500   60.9940 F   0  0  0  0  0  0  0  0  0  0  0  0
  129.8690  118.0580   61.4050 F   0  0  0  0  0  0  0  0  0  0  0  0
  130.5850  118.3060   59.3810 F   0  0  0  0  0  0  0  0  0  0  0  0
  131.9490  120.8630   60.4630 C   0  0  0  0  0  0  0  0  0  0  0  0
  131.9840  122.2370   60.6780 C   0  0  0  0  0  0  0  0  0  0  0  0
  129.6110  125.1550   61.5270 C   0  0  0  0  0  0  0  0  0  0  0  0
  128.9950  125.4050   60.1240 C   0  0  0  0  0  0  0  0  0  0  0  0
  128.4150  130.9790   58.7550 C   0  0  0  0  0  0  0  0  0  0  0  0
  127.8060  130.3880   60.0530 C   0  0  0  0  0  0  0  0  0  0  0  0
  125.0392  135.0020   61.5203 H   0  0  0  0  0  0  0  0  0  0  0  0
  125.9691  135.4448   60.0486 H   0  0  0  0  0  0  0  0  0  0  0  0
  124.9328  133.9776   60.0486 H   0  0  0  0  0  0  0  0  0  0  0  0
  125.9310  132.1210   60.3620 H   0  0  0  0  0  0  0  0  0  0  0  0
  129.2098  130.6132   63.3835 H   0  0  0  0  0  0  0  0  0  0  0  0
  128.4843  129.4277   65.4390 H   0  0  0  0  0  0  0  0  0  0  0  0
  124.4193  129.3774   63.9763 H   0  0  0  0  0  0  0  0  0  0  0  0
  125.1430  130.5623   61.9185 H   0  0  0  0  0  0  0  0  0  0  0  0
  129.0967  132.8646   62.1138 H   0  0  0  0  0  0  0  0  0  0  0  0
  129.8312  131.2447   61.7040 H   0  0  0  0  0  0  0  0  0  0  0  0
  129.0581  133.4136   59.6733 H   0  0  0  0  0  0  0  0  0  0  0  0
  130.7141  133.0476   60.1954 H   0  0  0  0  0  0  0  0  0  0  0  0
  129.8521  129.4673   57.5592 H   0  0  0  0  0  0  0  0  0  0  0  0
  131.6449  129.7617   57.2310 H   0  0  0  0  0  0  0  0  0  0  0  0
  131.5742  127.5141   57.7777 H   0  0  0  0  0  0  0  0  0  0  0  0
  132.0187  128.3721   59.3427 H   0  0  0  0  0  0  0  0  0  0  0  0
  130.8272  124.2594   58.6591 H   0  0  0  0  0  0  0  0  0  0  0  0
  131.8305  125.6782   58.2965 H   0  0  0  0  0  0  0  0  0  0  0  0
  132.7471  124.3448   60.2249 H   0  0  0  0  0  0  0  0  0  0  0  0
  132.2215  126.0325   60.7237 H   0  0  0  0  0  0  0  0  0  0  0  0
  131.0760  124.7650   63.6350 H   0  0  0  0  0  0  0  0  0  0  0  0
  132.6697  124.5326   65.2110 H   0  0  0  0  0  0  0  0  0  0  0  0
  134.4008  124.5050   64.7323 H   0  0  0  0  0  0  0  0  0  0  0  0
  133.4936  126.0553   64.7323 H   0  0  0  0  0  0  0  0  0  0  0  0
  129.0139  122.6182   62.3029 H   0  0  0  0  0  0  0  0  0  0  0  0
  128.9460  120.1685   61.9190 H   0  0  0  0  0  0  0  0  0  0  0  0
  132.7828  120.3673   59.9444 H   0  0  0  0  0  0  0  0  0  0  0  0
  132.8516  122.8155   60.3278 H   0  0  0  0  0  0  0  0  0  0  0  0
  128.9091  124.5270   62.0954 H   0  0  0  0  0  0  0  0  0  0  0  0
  129.7757  126.1527   61.9599 H   0  0  0  0  0  0  0  0  0  0  0  0
  128.7302  124.4480   59.6507 H   0  0  0  0  0  0  0  0  0  0  0  0
  128.0778  126.0078   60.1974 H   0  0  0  0  0  0  0  0  0  0  0  0
  127.7819  131.7961   58.3788 H   0  0  0  0  0  0  0  0  0  0  0  0
  128.4807  130.2129   57.9684 H   0  0  0  0  0  0  0  0  0  0  0  0
  126.7896  130.0319   59.8292 H   0  0  0  0  0  0  0  0  0  0  0  0
  128.4718  129.5760   60.3805 H   0  0  0  0  0  0  0  0  0  0  0  0
  1  2  1  0
  2  3  2  0
  2  4  1  0
  4  5  1  0
  5  6  1  0
  6  7  2  0
  7  8  1  0
  8  9  2  0
  9 10  1  0
 10 11  1  0
 10 12  1  0
 10 13  1  0
  9 14  1  0
 14 15  2  0
  5 16  1  0
 16 17  1  0
 17 18  1  0
 18 19  1  0
 19 20  2  0
 19 21  1  0
 21 22  1  0
 22 23  1  0
 23 24  2  0
 23 25  1  0
 25 26  1  0
 26 27  1  0
 27 28  1  0
 28 29  1  0
 29 30  1  0
 30 31  1  0
 30 32  2  0
 28 33  1  0
 33 34  2  0
 34 35  1  0
 35 36  2  0
 36 37  1  0
 37 38  1  0
 37 39  1  0
 37 40  1  0
 36 41  1  0
 41 42  2  0
 28 43  1  0
 43 44  1  0
 18 45  1  0
 45 46  1  0
 46  5  1  0
 15  6  1  0
 44 25  1  0
 42 33  1  0
  1 47  1  0
  1 48  1  0
  1 49  1  0
  4 50  1  0
  7 51  1  0
  8 52  1  0
 14 53  1  0
 15 54  1  0
 16 55  1  0
 16 56  1  0
 17 57  1  0
 17 58  1  0
 21 59  1  0
 21 60  1  0
 22 61  1  0
 22 62  1  0
 26 63  1  0
 26 64  1  0
 27 65  1  0
 27 66  1  0
 29 67  1  0
 31 68  1  0
 31 69  1  0
 31 70  1  0
 34 71  1  0
 35 72  1  0
 41 73  1  0
 42 74  1  0
 43 75  1  0
 43 76  1  0
 44 77  1  0
 44 78  1  0
 45 79  1  0
 45 80  1  0
 46 81  1  0
 46 82  1  0
M  END
>  <Binding energies>  (1) 
[-7.91]

>  <Ligand effiencies>  (1) 
[-0.16479166666666667]

>  <Interactions>  (1) 
["V-B:ALA:541:CB:9864, V-B:TYR:539:CD2:9846, V-A:TYR:484:CZ:4347, V-A:PRO:482:CG:4327, V-A:PRO:482:CB:4326, V-B:TYR:539:C:9839, V-A:LEU:475:CD1:4258, V-A:LEU:475:CD2:4259, V-B:GLU:543:CD:9880, V-A:SER:385:CB:3409, V-B:TYR:539:CE2:9848, V-A:GLU:543:CD:4908, V-A:ARG:545:CZ:4926, H-A:TYR:484:OH:4348, V-A:TYR:539:CE1:4875, V-A:PRO:540:CA:4883, V-A:ALA:541:CB:4892, V-A:TYR:539:CD1:4873, V-A:GLU:543:CG:4907, V-B:ARG:545:CZ:9898, V-A:PRO:540:C:4881, V-B:LEU:475:CD2:9231, V-A:TYR:539:C:4867, V-B:ARG:545:CD:9895, V-B:HIS:456:CE1:9042, V-B:ARG:545:CG:9894, V-A:ASP:366:CG:3213, V-A:LEU:475:CG:4257, V-A:GLY:454:CA:4049, V-B:TYR:484:CE1:9317, V-B:TYR:484:CZ:9319, V-A:ASP:366:CB:3212, H-A:GLY:454:N:4050, V-A:ARG:545:CD:4923, V-A:TYR:484:CE2:4346, V-A:PRO:540:N:4884, H-A:ARG:545:NH2:4928, V-B:TYR:539:CB:9843, V-B:TYR:539:CG:9844, V-B:TYR:539:CA:9841"]

$$$$
RR29_Rahimova_2017
     RDKit          3D

 35 36  0  0  0  0  0  0  0  0999 V2000
  133.7730  124.0350   61.6980 C   0  0  0  0  0  0  0  0  0  0  0  0
  132.5260  124.9040   61.7770 C   0  0  0  0  0  0  0  0  0  0  0  0
  131.5960  124.7360   60.5560 C   0  0  0  0  0  0  0  0  0  0  0  0
  130.9580  123.3320   60.5130 C   0  0  0  0  0  0  0  0  0  0  0  0
  129.4380  123.3880   60.4890 C   0  0  0  0  0  0  0  0  0  0  0  0
  128.7660  123.7580   59.3070 C   0  0  0  0  0  0  0  0  0  0  0  0
  127.3660  123.8150   59.2620 C   0  0  0  0  0  0  0  0  0  0  0  0
  126.6730  123.5070   60.4270 C   0  0  0  0  0  0  0  0  0  0  0  0
  127.3190  123.1510   61.5780 C   0  0  0  0  0  0  0  0  0  0  0  0
  128.7060  123.0750   61.6480 C   0  0  0  0  0  0  0  0  0  0  0  0
  126.4020  122.8740   62.5410 O   0  0  0  0  0  0  0  0  0  0  0  0
  125.1660  123.2770   62.0140 C   0  0  0  0  0  0  0  0  0  0  0  0
  125.3300  123.4640   60.6340 O   0  0  0  0  0  0  0  0  0  0  0  0
  132.3730  125.6670   62.7960 N   0  0  0  0  0  0  0  0  0  0  0  0
  131.2890  126.5170   62.8290 N   0  0  0  0  0  0  0  0  0  0  0  0
  130.1390  126.2430   63.4660 C   0  0  0  0  0  0  0  0  0  0  0  0
  129.8980  125.1310   64.1620 N   0  0  0  0  0  0  0  0  0  0  0  0
  129.1690  127.1440   63.4010 N   0  0  0  0  0  0  0  0  0  0  0  0
  134.1176  123.7949   62.7147 H   0  0  0  0  0  0  0  0  0  0  0  0
  133.5378  123.1042   61.1611 H   0  0  0  0  0  0  0  0  0  0  0  0
  134.5648  124.5779   61.1611 H   0  0  0  0  0  0  0  0  0  0  0  0
  130.7963  125.4893   60.6108 H   0  0  0  0  0  0  0  0  0  0  0  0
  132.1991  124.8664   59.6453 H   0  0  0  0  0  0  0  0  0  0  0  0
  131.3070  122.8126   59.6083 H   0  0  0  0  0  0  0  0  0  0  0  0
  131.2603  122.7974   61.4256 H   0  0  0  0  0  0  0  0  0  0  0  0
  129.3481  124.0056   58.4070 H   0  0  0  0  0  0  0  0  0  0  0  0
  126.8357  124.0931   58.3393 H   0  0  0  0  0  0  0  0  0  0  0  0
  129.2131  122.7800   62.5785 H   0  0  0  0  0  0  0  0  0  0  0  0
  124.4090  122.5007   62.1993 H   0  0  0  0  0  0  0  0  0  0  0  0
  124.8299  124.2093   62.4913 H   0  0  0  0  0  0  0  0  0  0  0  0
  131.3750  127.3810   62.3140 H   0  0  0  0  0  0  0  0  0  0  0  0
  129.1680  125.1160   64.8590 H   0  0  0  0  0  0  0  0  0  0  0  0
  130.4600  124.3090   63.9940 H   0  0  0  0  0  0  0  0  0  0  0  0
  129.1620  127.8260   62.6560 H   0  0  0  0  0  0  0  0  0  0  0  0
  128.4340  127.1420   64.0930 H   0  0  0  0  0  0  0  0  0  0  0  0
  1  2  1  0
  2  3  1  0
  3  4  1  0
  4  5  1  0
  5  6  2  0
  6  7  1  0
  7  8  2  0
  8  9  1  0
  9 10  2  0
  9 11  1  0
 11 12  1  0
 12 13  1  0
  2 14  2  0
 14 15  1  0
 15 16  1  0
 16 17  1  0
 16 18  2  0
 10  5  1  0
 13  8  1  0
  1 19  1  0
  1 20  1  0
  1 21  1  0
  3 22  1  0
  3 23  1  0
  4 24  1  0
  4 25  1  0
  6 26  1  0
  7 27  1  0
 10 28  1  0
 12 29  1  0
 12 30  1  0
 15 31  1  0
 17 32  1  0
 17 33  1  0
 18 34  1  0
 18 35  1  0
M  CHG  1  18   1
M  END
>  <Binding energies>  (1) 
[-6.75]

>  <Ligand effiencies>  (1) 
[-0.29347826086956524]

>  <Interactions>  (1) 
["V-B:GLU:543:CG:9879, V-A:TYR:484:CZ:4347, H-B:GLU:543:OE2:9882, V-B:GLU:543:CD:9880, H-B:GLU:543:OE1:9881, V-B:TYR:539:CE2:9848, H-A:GLU:543:OE2:4910, V-A:GLU:543:CD:4908, V-B:PRO:540:C:9853, V-B:PRO:540:CA:9855, H-A:GLU:543:OE1:4909, V-A:ARG:545:CZ:4926, H-A:TYR:484:OH:4348, H-A:ASP:366:OD1:3214, V-A:ILE:369:CD1:3239, H-B:ALA:541:N:9863, V-B:PRO:540:CB:9857, V-B:ASN:362:CB:8148, H-A:ARG:545:NH2:4928"]

$$$$
RR29_Rahimova_2017-again1
     RDKit          3D

 34 35  0  0  0  0  0  0  0  0999 V2000
  128.7370  131.8580   63.5990 C   0  0  0  0  0  0  0  0  0  0  0  0
  129.2660  131.5840   62.1990 C   0  0  0  0  0  0  0  0  0  0  0  0
  128.4070  130.5820   61.4040 C   0  0  0  0  0  0  0  0  0  0  0  0
  128.1330  129.3010   62.2200 C   0  0  0  0  0  0  0  0  0  0  0  0
  126.8540  129.4020   63.0380 C   0  0  0  0  0  0  0  0  0  0  0  0
  125.6640  129.8480   62.4300 C   0  0  0  0  0  0  0  0  0  0  0  0
  124.4740  129.9470   63.1650 C   0  0  0  0  0  0  0  0  0  0  0  0
  124.5180  129.6000   64.5100 C   0  0  0  0  0  0  0  0  0  0  0  0
  125.6710  129.1700   65.1060 C   0  0  0  0  0  0  0  0  0  0  0  0
  126.8620  129.0520   64.3990 C   0  0  0  0  0  0  0  0  0  0  0  0
  125.4180  128.8700   66.4070 O   0  0  0  0  0  0  0  0  0  0  0  0
  124.1190  129.3350   66.6580 C   0  0  0  0  0  0  0  0  0  0  0  0
  123.5090  129.5840   65.4200 O   0  0  0  0  0  0  0  0  0  0  0  0
  130.3450  132.1660   61.8100 N   0  0  0  0  0  0  0  0  0  0  0  0
  130.7770  131.8830   60.6230 N   0  0  0  0  0  0  0  0  0  0  0  0
  131.8260  131.1510   60.5360 C   0  0  0  0  0  0  0  0  0  0  0  0
  132.5990  130.5970   61.5940 N   0  0  0  0  0  0  0  0  0  0  0  0
  132.3640  130.7880   59.2820 N   0  0  0  0  0  0  0  0  0  0  0  0
  129.4569  131.4851   64.3425 H   0  0  0  0  0  0  0  0  0  0  0  0
  128.5989  132.9410   63.7334 H   0  0  0  0  0  0  0  0  0  0  0  0
  127.7728  131.3460   63.7334 H   0  0  0  0  0  0  0  0  0  0  0  0
  127.4475  131.0562   61.1500 H   0  0  0  0  0  0  0  0  0  0  0  0
  128.9574  130.3009   60.4941 H   0  0  0  0  0  0  0  0  0  0  0  0
  128.0436  128.4518   61.5265 H   0  0  0  0  0  0  0  0  0  0  0  0
  128.9705  129.1610   62.9193 H   0  0  0  0  0  0  0  0  0  0  0  0
  125.6684  130.1222   61.3647 H   0  0  0  0  0  0  0  0  0  0  0  0
  123.5398  130.2869   62.6942 H   0  0  0  0  0  0  0  0  0  0  0  0
  127.7805  128.6964   64.8887 H   0  0  0  0  0  0  0  0  0  0  0  0
  123.5487  128.5737   67.2104 H   0  0  0  0  0  0  0  0  0  0  0  0
  124.1484  130.2522   67.2646 H   0  0  0  0  0  0  0  0  0  0  0  0
  132.3690  130.7540   62.5650 H   0  0  0  0  0  0  0  0  0  0  0  0
  133.4170  130.0310   61.4300 H   0  0  0  0  0  0  0  0  0  0  0  0
  131.9510  131.0930   58.4130 H   0  0  0  0  0  0  0  0  0  0  0  0
  133.1900  130.2160   59.1920 H   0  0  0  0  0  0  0  0  0  0  0  0
  1  2  1  0
  2  3  1  0
  3  4  1  0
  4  5  1  0
  5  6  2  0
  6  7  1  0
  7  8  2  0
  8  9  1  0
  9 10  2  0
  9 11  1  0
 11 12  1  0
 12 13  1  0
  2 14  2  0
 14 15  1  0
 15 16  2  0
 16 17  1  0
 16 18  1  0
 10  5  1  0
 13  8  1  0
  1 19  1  0
  1 20  1  0
  1 21  1  0
  3 22  1  0
  3 23  1  0
  4 24  1  0
  4 25  1  0
  6 26  1  0
  7 27  1  0
 10 28  1  0
 12 29  1  0
 12 30  1  0
 17 31  1  0
 17 32  1  0
 18 33  1  0
 18 34  1  0
M  END
>  <Binding energies>  (1) 
[-6.11]

>  <Ligand effiencies>  (1) 
[-0.27772727272727277]

>  <Interactions>  (1) 
["V-A:GLU:543:CD:4908, H-A:GLU:543:OE1:4909, V-A:ARG:545:CZ:4926, V-A:PRO:540:CA:4883, V-A:ALA:541:CB:4892, V-A:GLU:543:CG:4907, V-B:ARG:545:CZ:9898, H-A:ALA:541:N:4891, H-B:GLY:454:N:9022, H-B:ARG:545:NE:9896, H-B:TYR:484:OH:9320, V-A:ASN:362:CB:3176, V-B:ARG:545:CD:9895, H-B:ARG:545:NH1:9899, V-B:HIS:456:CE1:9042, V-B:ARG:545:CG:9894, V-A:PRO:540:CB:4885, H-A:ASP:366:OD1:3214, V-A:ASP:366:CG:3213, V-B:TYR:484:CE1:9317, H-A:ASP:366:OD2:3215, V-B:TYR:484:CZ:9319, H-A:ALA:541:O:4889"]

$$$$
RR2_Rahimova_2017
     RDKit          3D

 76 80  0  0  0  0  0  0  0  0999 V2000
  129.7560  120.9010   61.6630 C   0  0  0  0  0  0  0  0  0  0  0  0
  130.0800  122.1630   62.2370 O   0  0  0  0  0  0  0  0  0  0  0  0
  129.2380  123.2380   62.0190 C   0  0  0  0  0  0  0  0  0  0  0  0
  127.9580  123.1400   61.4580 C   0  0  0  0  0  0  0  0  0  0  0  0
  127.1820  124.2810   61.2730 C   0  0  0  0  0  0  0  0  0  0  0  0
  127.6670  125.5440   61.6400 C   0  0  0  0  0  0  0  0  0  0  0  0
  126.8040  126.7720   61.4220 C   0  0  0  0  0  0  0  0  0  0  0  0
  126.2560  127.3260   62.3810 O   0  0  0  0  0  0  0  0  0  0  0  0
  126.6780  127.1840   60.1390 N   0  0  0  0  0  0  0  0  0  0  0  0
  125.8240  128.2490   59.8730 N   0  0  0  0  0  0  0  0  0  0  0  0
  125.9010  128.8410   58.6640 C   0  0  0  0  0  0  0  0  0  0  0  0
  126.7900  128.6340   57.8320 O   0  0  0  0  0  0  0  0  0  0  0  0
  124.7660  129.8200   58.3330 C   0  0  0  0  0  0  0  0  0  0  0  0
  124.6960  131.3100   59.3930 S   0  0  0  0  0  0  0  0  0  0  0  0
  124.7570  130.5730   60.9980 C   0  0  0  0  0  0  0  0  0  0  0  0
  123.7000  130.0920   61.6020 N   0  0  0  0  0  0  0  0  0  0  0  0
  124.0980  129.6620   62.8600 N   0  0  0  0  0  0  0  0  0  0  0  0
  125.3900  129.8720   62.9580 C   0  0  0  0  0  0  0  0  0  0  0  0
  126.1900  129.5210   64.1700 C   0  0  0  0  0  0  0  0  0  0  0  0
  127.4980  129.9960   64.3010 C   0  0  0  0  0  0  0  0  0  0  0  0
  128.2540  129.6680   65.4220 C   0  0  0  0  0  0  0  0  0  0  0  0
  127.7020  128.8740   66.4330 C   0  0  0  0  0  0  0  0  0  0  0  0
  128.4200  128.5030   67.5800 N   0  0  0  0  0  0  0  0  0  0  0  0
  128.2110  126.9690   68.4530 S   0  0  0  0  0  0  0  0  0  0  0  0
  129.0490  125.9880   67.7530 O   0  0  0  0  0  0  0  0  0  0  0  0
  126.7730  126.7390   68.6310 O   0  0  0  0  0  0  0  0  0  0  0  0
  128.9620  127.2370   70.0580 C   0  0  0  0  0  0  0  0  0  0  0  0
  128.4350  126.6290   71.2000 C   0  0  0  0  0  0  0  0  0  0  0  0
  129.0240  126.8630   72.4400 C   0  0  0  0  0  0  0  0  0  0  0  0
  130.1400  127.6980   72.5370 C   0  0  0  0  0  0  0  0  0  0  0  0
  130.7710  127.9630   73.8910 C   0  0  0  0  0  0  0  0  0  0  0  0
  130.6610  128.3070   71.3930 C   0  0  0  0  0  0  0  0  0  0  0  0
  130.0730  128.0760   70.1530 C   0  0  0  0  0  0  0  0  0  0  0  0
  126.3950  128.4020   66.3030 C   0  0  0  0  0  0  0  0  0  0  0  0
  125.6410  128.7250   65.1790 C   0  0  0  0  0  0  0  0  0  0  0  0
  125.8760  130.4580   61.8010 N   0  0  0  0  0  0  0  0  0  0  0  0
  127.1920  130.8820   61.5190 C   0  0  0  0  0  0  0  0  0  0  0  0
  128.1840  129.9400   61.2440 C   0  0  0  0  0  0  0  0  0  0  0  0
  129.4780  130.3660   60.9620 C   0  0  0  0  0  0  0  0  0  0  0  0
  129.7940  131.7260   60.9540 C   0  0  0  0  0  0  0  0  0  0  0  0
  131.1050  132.0510   60.6650 O   0  0  0  0  0  0  0  0  0  0  0  0
  132.0820  131.0160   60.6100 C   0  0  0  0  0  0  0  0  0  0  0  0
  128.7890  132.6670   61.2320 C   0  0  0  0  0  0  0  0  0  0  0  0
  127.4920  132.2470   61.5130 C   0  0  0  0  0  0  0  0  0  0  0  0
  128.9470  125.6340   62.2070 C   0  0  0  0  0  0  0  0  0  0  0  0
  129.7210  124.4910   62.3920 C   0  0  0  0  0  0  0  0  0  0  0  0
  129.5686  120.1710   62.4643 H   0  0  0  0  0  0  0  0  0  0  0  0
  128.8546  121.0018   61.0406 H   0  0  0  0  0  0  0  0  0  0  0  0
  130.5945  120.5551   61.0406 H   0  0  0  0  0  0  0  0  0  0  0  0
  127.5641  122.1565   61.1622 H   0  0  0  0  0  0  0  0  0  0  0  0
  126.1774  124.1905   60.8341 H   0  0  0  0  0  0  0  0  0  0  0  0
  126.7130  126.5320   59.3690 H   0  0  0  0  0  0  0  0  0  0  0  0
  124.9840  128.2380   60.4350 H   0  0  0  0  0  0  0  0  0  0  0  0
  124.8917  130.1484   57.2907 H   0  0  0  0  0  0  0  0  0  0  0  0
  123.8277  129.2735   58.5086 H   0  0  0  0  0  0  0  0  0  0  0  0
  127.9314  130.6316   63.5148 H   0  0  0  0  0  0  0  0  0  0  0  0
  129.2874  130.0336   65.5135 H   0  0  0  0  0  0  0  0  0  0  0  0
  129.1250  129.1420   67.9190 H   0  0  0  0  0  0  0  0  0  0  0  0
  127.5590  125.9686   71.1201 H   0  0  0  0  0  0  0  0  0  0  0  0
  128.6106  126.3904   73.3432 H   0  0  0  0  0  0  0  0  0  0  0  0
  130.0701  127.6687   74.6861 H   0  0  0  0  0  0  0  0  0  0  0  0
  131.6980  127.3782   73.9843 H   0  0  0  0  0  0  0  0  0  0  0  0
  131.0024  129.0343   73.9843 H   0  0  0  0  0  0  0  0  0  0  0  0
  131.5359  128.9690   71.4722 H   0  0  0  0  0  0  0  0  0  0  0  0
  130.4827  128.5533   69.2506 H   0  0  0  0  0  0  0  0  0  0  0  0
  125.9591  127.7720   67.0924 H   0  0  0  0  0  0  0  0  0  0  0  0
  124.6102  128.3529   65.0844 H   0  0  0  0  0  0  0  0  0  0  0  0
  127.9442  128.8665   61.2502 H   0  0  0  0  0  0  0  0  0  0  0  0
  130.2600  129.6240   60.7431 H   0  0  0  0  0  0  0  0  0  0  0  0
  132.3610  130.7204   61.6322 H   0  0  0  0  0  0  0  0  0  0  0  0
  131.6666  130.1476   60.0777 H   0  0  0  0  0  0  0  0  0  0  0  0
  132.9729  131.3806   60.0777 H   0  0  0  0  0  0  0  0  0  0  0  0
  129.0280  133.7407   61.2276 H   0  0  0  0  0  0  0  0  0  0  0  0
  126.7066  132.9862   61.7294 H   0  0  0  0  0  0  0  0  0  0  0  0
  129.3426  126.6153   62.5079 H   0  0  0  0  0  0  0  0  0  0  0  0
  130.7233  124.5780   62.8368 H   0  0  0  0  0  0  0  0  0  0  0  0
  1  2  1  0
  2  3  1  0
  3  4  2  0
  4  5  1  0
  5  6  2  0
  6  7  1  0
  7  8  2  0
  7  9  1  0
  9 10  1  0
 10 11  1  0
 11 12  2  0
 11 13  1  0
 13 14  1  0
 14 15  1  0
 15 16  2  0
 16 17  1  0
 17 18  2  0
 18 19  1  0
 19 20  2  0
 20 21  1  0
 21 22  2  0
 22 23  1  0
 23 24  1  0
 24 25  2  0
 24 26  2  0
 24 27  1  0
 27 28  2  0
 28 29  1  0
 29 30  2  0
 30 31  1  0
 30 32  1  0
 32 33  2  0
 22 34  1  0
 34 35  2  0
 18 36  1  0
 36 37  1  0
 37 38  2  0
 38 39  1  0
 39 40  2  0
 40 41  1  0
 41 42  1  0
 40 43  1  0
 43 44  2  0
  6 45  1  0
 45 46  2  0
 46  3  1  0
 36 15  1  0
 44 37  1  0
 35 19  1  0
 33 27  1  0
  1 47  1  0
  1 48  1  0
  1 49  1  0
  4 50  1  0
  5 51  1  0
  9 52  1  0
 10 53  1  0
 13 54  1  0
 13 55  1  0
 20 56  1  0
 21 57  1  0
 23 58  1  0
 28 59  1  0
 29 60  1  0
 31 61  1  0
 31 62  1  0
 31 63  1  0
 32 64  1  0
 33 65  1  0
 34 66  1  0
 35 67  1  0
 38 68  1  0
 39 69  1  0
 42 70  1  0
 42 71  1  0
 42 72  1  0
 43 73  1  0
 44 74  1  0
 45 75  1  0
 46 76  1  0
M  END
>  <Binding energies>  (1) 
[-9.3]

>  <Ligand effiencies>  (1) 
[-0.18979591836734697]

>  <Interactions>  (1) 
["V-B:ALA:541:CB:9864, V-A:LEU:475:CD2:4259, V-B:GLU:543:CD:9880, V-A:GLU:543:CD:4908, H-A:TYR:484:OH:4348, V-A:PRO:540:CA:4883, V-A:ALA:541:CB:4892, V-A:GLU:543:CG:4907, V-B:ARG:545:CZ:9898, H-A:ALA:541:N:4891, H-B:ARG:545:NH1:9899, V-B:HIS:456:CE1:9042, V-A:PRO:540:CB:4885, V-B:HIS:456:CD2:9040, V-A:LYS:547:CE:4950, V-A:HIS:456:CD2:4068, V-A:GLY:544:C:4912, V-B:GLU:543:CB:9878, V-B:TYR:484:CZ:9319, V-B:ASP:366:CG:8185, H-B:ARG:545:NH2:9900, V-B:ASP:366:CA:8182, V-B:ASP:366:CB:8184, V-A:HIS:456:CE1:4070, V-A:GLU:543:CB:4906, H-B:ASP:366:OD2:8187, H-B:ASP:366:OD1:8186, V-A:GLY:544:CA:4914, H-B:HIS:456:NE2:9043, H-A:GLU:543:O:4903"]

$$$$
RR30_Rahimova_2017
     RDKit          3D

 29 30  0  0  0  0  0  0  0  0999 V2000
  128.6100  126.7950   71.5510 C   0  0  0  0  0  0  0  0  0  0  0  0
  129.8490  127.7020   71.5280 C   0  0  0  0  0  0  0  0  0  0  0  0
  130.5720  127.7180   72.8570 C   0  0  0  0  0  0  0  0  0  0  0  0
  130.2950  128.4300   73.9210 N   0  0  0  0  0  0  0  0  0  0  0  0
  131.2570  128.0900   74.8690 N   0  0  0  0  0  0  0  0  0  0  0  0
  132.0370  127.2110   74.2930 C   0  0  0  0  0  0  0  0  0  0  0  0
  133.4350  126.3940   74.9910 S   0  0  0  0  0  0  0  0  0  0  0  0
  132.5900  125.1330   75.9970 C   0  0  0  0  0  0  0  0  0  0  0  0
  131.2450  124.7180   75.3950 C   0  0  0  0  0  0  0  0  0  0  0  0
  130.2400  125.3860   75.6480 O   0  0  0  0  0  0  0  0  0  0  0  0
  131.2570  123.5990   74.6370 N   0  0  0  0  0  0  0  0  0  0  0  0
  130.1690  123.0290   73.9920 C   0  0  0  0  0  0  0  0  0  0  0  0
  129.3760  123.5730   73.0970 N   0  0  0  0  0  0  0  0  0  0  0  0
  128.3850  122.6990   72.6690 N   0  0  0  0  0  0  0  0  0  0  0  0
  128.4470  121.5200   73.2430 C   0  0  0  0  0  0  0  0  0  0  0  0
  127.4750  120.4010   72.9430 C   0  0  0  0  0  0  0  0  0  0  0  0
  129.7610  121.3860   74.3790 S   0  0  0  0  0  0  0  0  0  0  0  0
  131.6600  126.9250   73.0210 O   0  0  0  0  0  0  0  0  0  0  0  0
  128.3267  126.5876   72.5935 H   0  0  0  0  0  0  0  0  0  0  0  0
  127.7774  127.2986   71.0380 H   0  0  0  0  0  0  0  0  0  0  0  0
  128.8384  125.8491   71.0380 H   0  0  0  0  0  0  0  0  0  0  0  0
  130.5400  127.3378   70.7535 H   0  0  0  0  0  0  0  0  0  0  0  0
  129.5123  128.7273   71.3151 H   0  0  0  0  0  0  0  0  0  0  0  0
  133.2355  124.2451   76.0673 H   0  0  0  0  0  0  0  0  0  0  0  0
  132.3961  125.5670   76.9890 H   0  0  0  0  0  0  0  0  0  0  0  0
  132.1380  123.1190   74.5250 H   0  0  0  0  0  0  0  0  0  0  0  0
  127.1044  119.9744   73.8867 H   0  0  0  0  0  0  0  0  0  0  0  0
  126.6287  120.7963   72.3620 H   0  0  0  0  0  0  0  0  0  0  0  0
  127.9848  119.6184   72.3620 H   0  0  0  0  0  0  0  0  0  0  0  0
  1  2  1  0
  2  3  1  0
  3  4  2  0
  4  5  1  0
  5  6  2  0
  6  7  1  0
  7  8  1  0
  8  9  1  0
  9 10  2  0
  9 11  1  0
 11 12  1  0
 12 13  2  0
 13 14  1  0
 14 15  2  0
 15 16  1  0
 15 17  1  0
  6 18  1  0
 18  3  1  0
 17 12  1  0
  1 19  1  0
  1 20  1  0
  1 21  1  0
  2 22  1  0
  2 23  1  0
  8 24  1  0
  8 25  1  0
 11 26  1  0
 16 27  1  0
 16 28  1  0
 16 29  1  0
M  END
>  <Binding energies>  (1) 
[-6.01]

>  <Ligand effiencies>  (1) 
[-0.3163157894736842]

>  <Interactions>  (1) 
["H-B:LYS:547:NZ:9923, H-A:LYS:547:NZ:4951, V-A:VAL:458:CG2:4087, V-B:HIS:456:CD2:9040, V-A:HIS:456:CB:4065, V-A:HIS:456:CD2:4068, V-A:LYS:471:CD:4219, V-A:ASP:473:CG:4240, V-A:HIS:456:CE1:4070, V-B:LYS:547:CE:9922, H-A:ASP:473:OD1:4241, V-A:ASP:473:CB:4239, V-B:GLY:544:CA:9886"]

$$$$
RR31_Rahimova_2017
     RDKit          3D

 44 45  0  0  0  0  0  0  0  0999 V2000
  131.4950  126.9510   76.7320 C   0  0  0  0  0  0  0  0  0  0  0  0
  131.1060  127.0920   75.2670 C   0  0  0  0  0  0  0  0  0  0  0  0
  129.7680  127.3090   74.9350 C   0  0  0  0  0  0  0  0  0  0  0  0
  129.3810  127.4450   73.6040 C   0  0  0  0  0  0  0  0  0  0  0  0
  130.3220  127.3770   72.5630 C   0  0  0  0  0  0  0  0  0  0  0  0
  129.9480  127.5010   71.2230 N   0  0  0  0  0  0  0  0  0  0  0  0
  128.6510  127.0040   70.7240 C   0  0  0  0  0  0  0  0  0  0  0  0
  128.5840  126.8530   69.1860 C   0  0  0  0  0  0  0  0  0  0  0  0
  128.9120  128.1160   68.5210 N   0  0  0  0  0  0  0  0  0  0  0  0
  128.8220  128.0140   67.0610 C   0  0  0  0  0  0  0  0  0  0  0  0
  128.2220  129.2740   66.4050 C   0  0  0  0  0  0  0  0  0  0  0  0
  127.8550  129.0450   64.9300 C   0  0  0  0  0  0  0  0  0  0  0  0
  128.6290  127.8420   64.3780 N   0  0  0  0  0  0  0  0  0  0  0  0
  130.2780  128.4710   68.9070 C   0  0  0  0  0  0  0  0  0  0  0  0
  130.3810  128.6730   70.4360 C   0  0  0  0  0  0  0  0  0  0  0  0
  131.6620  127.1500   72.9100 C   0  0  0  0  0  0  0  0  0  0  0  0
  132.0640  127.0100   74.2440 C   0  0  0  0  0  0  0  0  0  0  0  0
  133.5350  126.7610   74.5540 C   0  0  0  0  0  0  0  0  0  0  0  0
  130.6504  127.2571   77.3667 H   0  0  0  0  0  0  0  0  0  0  0  0
  131.7518  125.9026   76.9439 H   0  0  0  0  0  0  0  0  0  0  0  0
  132.3639  127.5914   76.9439 H   0  0  0  0  0  0  0  0  0  0  0  0
  129.0122  127.3732   75.7317 H   0  0  0  0  0  0  0  0  0  0  0  0
  128.3201  127.6085   73.3637 H   0  0  0  0  0  0  0  0  0  0  0  0
  128.4605  126.0197   71.1767 H   0  0  0  0  0  0  0  0  0  0  0  0
  127.8949  127.7525   71.0033 H   0  0  0  0  0  0  0  0  0  0  0  0
  129.3015  126.0821   68.8684 H   0  0  0  0  0  0  0  0  0  0  0  0
  127.5601  126.5645   68.9059 H   0  0  0  0  0  0  0  0  0  0  0  0
  129.8332  127.8564   66.6576 H   0  0  0  0  0  0  0  0  0  0  0  0
  128.1523  127.1723   66.8305 H   0  0  0  0  0  0  0  0  0  0  0  0
  127.3137  129.5609   66.9551 H   0  0  0  0  0  0  0  0  0  0  0  0
  128.9823  130.0680   66.4433 H   0  0  0  0  0  0  0  0  0  0  0  0
  126.7751  128.8517   64.8490 H   0  0  0  0  0  0  0  0  0  0  0  0
  128.1181  129.9412   64.3490 H   0  0  0  0  0  0  0  0  0  0  0  0
  129.2750  128.1430   63.6610 H   0  0  0  0  0  0  0  0  0  0  0  0
  127.9900  127.1700   63.9790 H   0  0  0  0  0  0  0  0  0  0  0  0
  129.1520  127.3940   65.1180 H   0  0  0  0  0  0  0  0  0  0  0  0
  130.9601  127.6633   68.6031 H   0  0  0  0  0  0  0  0  0  0  0  0
  130.5524  129.4119   68.4076 H   0  0  0  0  0  0  0  0  0  0  0  0
  131.4295  128.8910   70.6871 H   0  0  0  0  0  0  0  0  0  0  0  0
  129.7047  129.5007   70.6958 H   0  0  0  0  0  0  0  0  0  0  0  0
  132.4170  127.0801   72.1131 H   0  0  0  0  0  0  0  0  0  0  0  0
  133.6809  126.7363   75.6440 H   0  0  0  0  0  0  0  0  0  0  0  0
  133.8431  125.7979   74.1209 H   0  0  0  0  0  0  0  0  0  0  0  0
  134.1429  127.5690   74.1209 H   0  0  0  0  0  0  0  0  0  0  0  0
  1  2  1  0
  2  3  2  0
  3  4  1  0
  4  5  2  0
  5  6  1  0
  6  7  1  0
  7  8  1  0
  8  9  1  0
  9 10  1  0
 10 11  1  0
 11 12  1  0
 12 13  1  0
  9 14  1  0
 14 15  1  0
  5 16  1  0
 16 17  2  0
 17 18  1  0
 17  2  1  0
 15  6  1  0
  1 19  1  0
  1 20  1  0
  1 21  1  0
  3 22  1  0
  4 23  1  0
  7 24  1  0
  7 25  1  0
  8 26  1  0
  8 27  1  0
 10 28  1  0
 10 29  1  0
 11 30  1  0
 11 31  1  0
 12 32  1  0
 12 33  1  0
 13 34  1  0
 13 35  1  0
 13 36  1  0
 14 37  1  0
 14 38  1  0
 15 39  1  0
 15 40  1  0
 16 41  1  0
 18 42  1  0
 18 43  1  0
 18 44  1  0
M  CHG  1  13   1
M  END
>  <Binding energies>  (1) 
[-6.64]

>  <Ligand effiencies>  (1) 
[-0.3161904761904762]

>  <Interactions>  (1) 
["H-B:GLU:543:OE2:9882, V-B:GLU:543:CD:9880, H-B:GLU:543:OE1:9881, H-A:GLU:543:OE2:4910, V-A:GLU:543:CD:4908, H-A:GLU:543:OE1:4909, V-A:GLU:543:CG:4907, V-B:HIS:456:CE1:9042, V-A:VAL:458:CG2:4087, V-B:HIS:456:CD2:9040, V-A:HIS:456:CB:4065, V-A:HIS:456:CD2:4068, V-A:HIS:456:CG:4066, V-A:GLY:544:C:4912, V-B:GLU:543:CB:9878, V-B:TYR:484:CZ:9319, V-A:HIS:456:CE1:4070, V-A:GLU:543:CB:4906, V-A:GLU:543:CA:4904, V-A:GLU:543:C:4902, V-A:GLY:544:CA:4914, V-B:LYS:547:CE:9922"]

$$$$
RR32_Rahimova_2017
     RDKit          3D

 37 39  0  0  0  0  0  0  0  0999 V2000
  130.0450  127.7650   71.2790 C   0  0  0  0  0  0  0  0  0  0  0  0
  129.9740  127.8760   72.7990 C   0  0  0  0  0  0  0  0  0  0  0  0
  128.7970  128.3600   73.3710 C   0  0  0  0  0  0  0  0  0  0  0  0
  128.6950  128.4720   74.7540 C   0  0  0  0  0  0  0  0  0  0  0  0
  127.5250  128.9530   75.3180 N   0  0  0  0  0  0  0  0  0  0  0  0
  127.4220  130.4090   75.5200 C   0  0  0  0  0  0  0  0  0  0  0  0
  126.1630  130.8270   76.3160 C   0  0  0  0  0  0  0  0  0  0  0  0
  124.9560  130.3640   75.6330 N   0  0  0  0  0  0  0  0  0  0  0  0
  123.7680  130.7860   76.3680 C   0  0  0  0  0  0  0  0  0  0  0  0
  125.0120  128.9060   75.5560 C   0  0  0  0  0  0  0  0  0  0  0  0
  126.2550  128.4580   74.7510 C   0  0  0  0  0  0  0  0  0  0  0  0
  129.7060  128.1290   75.5930 N   0  0  0  0  0  0  0  0  0  0  0  0
  130.8680  127.6560   75.0650 C   0  0  0  0  0  0  0  0  0  0  0  0
  131.9060  127.3080   75.9630 C   0  0  0  0  0  0  0  0  0  0  0  0
  133.1150  126.8200   75.4810 C   0  0  0  0  0  0  0  0  0  0  0  0
  133.3190  126.6670   74.1150 C   0  0  0  0  0  0  0  0  0  0  0  0
  132.3190  127.0000   73.2050 C   0  0  0  0  0  0  0  0  0  0  0  0
  131.0640  127.5040   73.6540 C   0  0  0  0  0  0  0  0  0  0  0  0
  130.6188  126.8679   71.0033 H   0  0  0  0  0  0  0  0  0  0  0  0
  129.0271  127.6896   70.8689 H   0  0  0  0  0  0  0  0  0  0  0  0
  130.5403  128.6575   70.8689 H   0  0  0  0  0  0  0  0  0  0  0  0
  127.9520  128.6522   72.7302 H   0  0  0  0  0  0  0  0  0  0  0  0
  128.3120  130.7494   76.0696 H   0  0  0  0  0  0  0  0  0  0  0  0
  127.3481  130.8723   74.5251 H   0  0  0  0  0  0  0  0  0  0  0  0
  126.2047  130.3824   77.3213 H   0  0  0  0  0  0  0  0  0  0  0  0
  126.1341  131.9241   76.3910 H   0  0  0  0  0  0  0  0  0  0  0  0
  123.9617  130.7172   77.4486 H   0  0  0  0  0  0  0  0  0  0  0  0
  123.5240  131.8258   76.1047 H   0  0  0  0  0  0  0  0  0  0  0  0
  122.9228  130.1331   76.1047 H   0  0  0  0  0  0  0  0  0  0  0  0
  125.0694  128.4909   76.5730 H   0  0  0  0  0  0  0  0  0  0  0  0
  124.1068  128.5395   75.0498 H   0  0  0  0  0  0  0  0  0  0  0  0
  126.2840  127.3585   74.7359 H   0  0  0  0  0  0  0  0  0  0  0  0
  126.1606  128.8830   73.7408 H   0  0  0  0  0  0  0  0  0  0  0  0
  131.7550  127.4243   77.0464 H   0  0  0  0  0  0  0  0  0  0  0  0
  133.9161  126.5530   76.1860 H   0  0  0  0  0  0  0  0  0  0  0  0
  134.2807  126.2787   73.7486 H   0  0  0  0  0  0  0  0  0  0  0  0
  132.4998  126.8726   72.1275 H   0  0  0  0  0  0  0  0  0  0  0  0
  1  2  1  0
  2  3  2  0
  3  4  1  0
  4  5  1  0
  5  6  1  0
  6  7  1  0
  7  8  1  0
  8  9  1  0
  8 10  1  0
 10 11  1  0
  4 12  2  0
 12 13  1  0
 13 14  2  0
 14 15  1  0
 15 16  2  0
 16 17  1  0
 17 18  2  0
 18  2  1  0
 11  5  1  0
 18 13  1  0
  1 19  1  0
  1 20  1  0
  1 21  1  0
  3 22  1  0
  6 23  1  0
  6 24  1  0
  7 25  1  0
  7 26  1  0
  9 27  1  0
  9 28  1  0
  9 29  1  0
 10 30  1  0
 10 31  1  0
 11 32  1  0
 11 33  1  0
 14 34  1  0
 15 35  1  0
 16 36  1  0
 17 37  1  0
M  END
>  <Binding energies>  (1) 
[-5.92]

>  <Ligand effiencies>  (1) 
[-0.3288888888888889]

>  <Interactions>  (1) 
["H-A:LYS:547:NZ:4951, V-A:VAL:458:CG2:4087, V-B:HIS:456:CD2:9040, V-A:LYS:547:CE:4950, V-A:HIS:456:CB:4065, V-A:HIS:456:CD2:4068, V-B:HIS:456:CG:9038, V-B:HIS:456:CB:9037, V-B:VAL:457:C:9045, V-A:HIS:456:CG:4066, V-A:GLY:544:C:4912, V-A:LYS:547:CD:4949, V-B:VAL:458:CG2:9059, V-A:HIS:456:CE1:4070, V-B:HIS:456:C:9033, V-B:VAL:457:CA:9047, V-B:LYS:471:CB:9189, V-B:LYS:471:C:9185"]

$$$$
RR32_Rahimova_2017-again1
     RDKit          3D

 38 40  0  0  0  0  0  0  0  0999 V2000
  132.8580  121.9780   59.8780 C   0  0  0  0  0  0  0  0  0  0  0  0
  131.6260  121.4860   60.6240 C   0  0  0  0  0  0  0  0  0  0  0  0
  130.8330  122.3820   61.3400 C   0  0  0  0  0  0  0  0  0  0  0  0
  129.6980  121.9280   62.0220 C   0  0  0  0  0  0  0  0  0  0  0  0
  128.8940  122.8070   62.7550 N   0  0  0  0  0  0  0  0  0  0  0  0
  129.3680  124.1710   63.0650 C   0  0  0  0  0  0  0  0  0  0  0  0
  129.0570  125.1800   61.9330 C   0  0  0  0  0  0  0  0  0  0  0  0
  127.5300  125.2490   61.7440 N   0  0  0  0  0  0  0  0  0  0  0  0
  127.1620  126.2300   60.6140 C   0  0  0  0  0  0  0  0  0  0  0  0
  127.0050  123.8330   61.4290 C   0  0  0  0  0  0  0  0  0  0  0  0
  127.4280  122.8850   62.5760 C   0  0  0  0  0  0  0  0  0  0  0  0
  129.3560  120.6100   62.0280 N   0  0  0  0  0  0  0  0  0  0  0  0
  130.1090  119.7130   61.3360 C   0  0  0  0  0  0  0  0  0  0  0  0
  129.7140  118.3530   61.3510 C   0  0  0  0  0  0  0  0  0  0  0  0
  130.4540  117.4020   60.6550 C   0  0  0  0  0  0  0  0  0  0  0  0
  131.5870  117.7730   59.9380 C   0  0  0  0  0  0  0  0  0  0  0  0
  132.0010  119.1030   59.9050 C   0  0  0  0  0  0  0  0  0  0  0  0
  131.2710  120.1040   60.6030 C   0  0  0  0  0  0  0  0  0  0  0  0
  133.6269  122.2851   60.6022 H   0  0  0  0  0  0  0  0  0  0  0  0
  133.2519  121.1682   59.2463 H   0  0  0  0  0  0  0  0  0  0  0  0
  132.5857  122.8364   59.2463 H   0  0  0  0  0  0  0  0  0  0  0  0
  131.1001  123.4487   61.3690 H   0  0  0  0  0  0  0  0  0  0  0  0
  128.8766  124.5138   63.9875 H   0  0  0  0  0  0  0  0  0  0  0  0
  130.4610  124.1260   63.1807 H   0  0  0  0  0  0  0  0  0  0  0  0
  129.4422  126.1736   62.2057 H   0  0  0  0  0  0  0  0  0  0  0  0
  129.5377  124.8566   60.9980 H   0  0  0  0  0  0  0  0  0  0  0  0
  127.1130  125.5600   62.6100 H   0  0  0  0  0  0  0  0  0  0  0  0
  126.8073  127.1755   61.0503 H   0  0  0  0  0  0  0  0  0  0  0  0
  128.0489  126.4229   59.9926 H   0  0  0  0  0  0  0  0  0  0  0  0
  126.3671  125.7919   59.9926 H   0  0  0  0  0  0  0  0  0  0  0  0
  125.9080  123.8532   61.3501 H   0  0  0  0  0  0  0  0  0  0  0  0
  127.4237  123.4799   60.4750 H   0  0  0  0  0  0  0  0  0  0  0  0
  126.9800  123.2477   63.5129 H   0  0  0  0  0  0  0  0  0  0  0  0
  127.0760  121.8764   62.3138 H   0  0  0  0  0  0  0  0  0  0  0  0
  128.8199  118.0477   61.9143 H   0  0  0  0  0  0  0  0  0  0  0  0
  130.1404  116.3478   60.6719 H   0  0  0  0  0  0  0  0  0  0  0  0
  132.1611  117.0096   59.3923 H   0  0  0  0  0  0  0  0  0  0  0  0
  132.8996  119.3808   59.3346 H   0  0  0  0  0  0  0  0  0  0  0  0
  1  2  1  0
  2  3  2  0
  3  4  1  0
  4  5  1  0
  5  6  1  0
  6  7  1  0
  7  8  1  0
  8  9  1  0
  8 10  1  0
 10 11  1  0
  4 12  2  0
 12 13  1  0
 13 14  2  0
 14 15  1  0
 15 16  2  0
 16 17  1  0
 17 18  2  0
 18  2  1  0
 11  5  1  0
 18 13  1  0
  1 19  1  0
  1 20  1  0
  1 21  1  0
  3 22  1  0
  6 23  1  0
  6 24  1  0
  7 25  1  0
  7 26  1  0
  8 27  1  0
  9 28  1  0
  9 29  1  0
  9 30  1  0
 10 31  1  0
 10 32  1  0
 11 33  1  0
 11 34  1  0
 14 35  1  0
 15 36  1  0
 16 37  1  0
 17 38  1  0
M  CHG  1   8   1
M  END
>  <Binding energies>  (1) 
[-6.91]

>  <Ligand effiencies>  (1) 
[-0.3636842105263158]

>  <Interactions>  (1) 
["V-B:ALA:541:CB:9864, V-B:TYR:539:CD2:9846, V-B:GLU:543:CG:9879, V-A:TYR:484:CZ:4347, H-B:GLU:543:OE2:9882, V-A:PRO:482:CG:4327, V-A:TYR:484:CE1:4345, V-A:PRO:482:CB:4326, V-B:TYR:539:C:9839, V-A:LEU:475:CD1:4258, V-A:LEU:475:CD2:4259, V-B:GLU:543:CD:9880, V-A:SER:385:CB:3409, H-B:GLU:543:OE1:9881, V-A:ILE:369:CG2:3237, V-B:TYR:539:CE2:9848"]

$$$$
RR32_Rahimova_2017-again2
     RDKit          3D

 39 41  0  0  0  0  0  0  0  0999 V2000
  128.2590  121.5810   61.7050 C   0  0  0  0  0  0  0  0  0  0  0  0
  129.6480  122.1720   61.5060 C   0  0  0  0  0  0  0  0  0  0  0  0
  129.8970  123.5070   61.8350 C   0  0  0  0  0  0  0  0  0  0  0  0
  131.1670  124.0710   61.6540 C   0  0  0  0  0  0  0  0  0  0  0  0
  131.4790  125.4370   61.9900 N   0  0  0  0  0  0  0  0  0  0  0  0
  131.4480  126.5030   60.9540 C   0  0  0  0  0  0  0  0  0  0  0  0
  130.0090  127.0620   60.7840 C   0  0  0  0  0  0  0  0  0  0  0  0
  129.5180  127.6410   62.1330 N   0  0  0  0  0  0  0  0  0  0  0  0
  128.0700  128.1550   62.0170 C   0  0  0  0  0  0  0  0  0  0  0  0
  129.6410  126.5760   63.2480 C   0  0  0  0  0  0  0  0  0  0  0  0
  131.0990  126.0470   63.2900 C   0  0  0  0  0  0  0  0  0  0  0  0
  132.1430  123.2810   61.1600 N   0  0  0  0  0  0  0  0  0  0  0  0
  131.9920  121.9590   60.8100 C   0  0  0  0  0  0  0  0  0  0  0  0
  133.0830  121.2200   60.2990 C   0  0  0  0  0  0  0  0  0  0  0  0
  132.8950  119.8830   59.9590 C   0  0  0  0  0  0  0  0  0  0  0  0
  131.6510  119.2790   60.1180 C   0  0  0  0  0  0  0  0  0  0  0  0
  130.5650  119.9960   60.6200 C   0  0  0  0  0  0  0  0  0  0  0  0
  130.7070  121.3650   60.9830 C   0  0  0  0  0  0  0  0  0  0  0  0
  128.0492  121.4917   62.7811 H   0  0  0  0  0  0  0  0  0  0  0  0
  127.5105  122.2386   61.2388 H   0  0  0  0  0  0  0  0  0  0  0  0
  128.2138  120.5857   61.2388 H   0  0  0  0  0  0  0  0  0  0  0  0
  129.0833  124.1250   62.2425 H   0  0  0  0  0  0  0  0  0  0  0  0
  132.1194  127.3201   61.2566 H   0  0  0  0  0  0  0  0  0  0  0  0
  131.7762  126.0743   59.9956 H   0  0  0  0  0  0  0  0  0  0  0  0
  130.0117  127.8565   60.0232 H   0  0  0  0  0  0  0  0  0  0  0  0
  129.3361  126.2521   60.4658 H   0  0  0  0  0  0  0  0  0  0  0  0
  130.1250  128.4130   62.3760 H   0  0  0  0  0  0  0  0  0  0  0  0
  127.6519  128.3034   63.0235 H   0  0  0  0  0  0  0  0  0  0  0  0
  128.0627  129.1107   61.4723 H   0  0  0  0  0  0  0  0  0  0  0  0
  127.4618  127.4179   61.4723 H   0  0  0  0  0  0  0  0  0  0  0  0
  129.3855  127.0276   64.2179 H   0  0  0  0  0  0  0  0  0  0  0  0
  128.9518  125.7438   63.0417 H   0  0  0  0  0  0  0  0  0  0  0  0
  131.7795  126.8833   63.5080 H   0  0  0  0  0  0  0  0  0  0  0  0
  131.1717  125.2784   64.0736 H   0  0  0  0  0  0  0  0  0  0  0  0
  133.0570  123.6920   61.0440 H   0  0  0  0  0  0  0  0  0  0  0  0
  134.0671  121.6946   60.1717 H   0  0  0  0  0  0  0  0  0  0  0  0
  133.7375  119.2984   59.5610 H   0  0  0  0  0  0  0  0  0  0  0  0
  131.5226  118.2215   59.8439 H   0  0  0  0  0  0  0  0  0  0  0  0
  129.5905  119.4993   60.7364 H   0  0  0  0  0  0  0  0  0  0  0  0
  1  2  1  0
  2  3  2  0
  3  4  1  0
  4  5  1  0
  5  6  1  0
  6  7  1  0
  7  8  1  0
  8  9  1  0
  8 10  1  0
 10 11  1  0
  4 12  2  0
 12 13  1  0
 13 14  2  0
 14 15  1  0
 15 16  2  0
 16 17  1  0
 17 18  2  0
 18  2  1  0
 11  5  1  0
 18 13  1  0
  1 19  1  0
  1 20  1  0
  1 21  1  0
  3 22  1  0
  6 23  1  0
  6 24  1  0
  7 25  1  0
  7 26  1  0
  8 27  1  0
  9 28  1  0
  9 29  1  0
  9 30  1  0
 10 31  1  0
 10 32  1  0
 11 33  1  0
 11 34  1  0
 12 35  1  0
 14 36  1  0
 15 37  1  0
 16 38  1  0
 17 39  1  0
M  CHG  2   8   1  12   1
M  END
>  <Binding energies>  (1) 
[-6.65]

>  <Ligand effiencies>  (1) 
[-0.3325]

>  <Interactions>  (1) 
["V-B:ALA:541:CB:9864, V-B:TYR:539:CD2:9846, V-A:LEU:475:CD2:4259, V-B:GLU:543:CD:9880, V-A:SER:385:CB:3409, V-A:ILE:369:CG2:3237, V-B:TYR:539:CE2:9848, H-A:GLU:543:OE2:4910, V-A:GLU:543:CD:4908, V-B:PRO:540:C:9853, V-B:ALA:541:CA:9862, V-B:PRO:540:CA:9855, V-A:SER:385:CA:3407, H-A:GLU:543:OE1:4909, V-A:ASP:366:CG:3213"]

$$$$
RR33_Rahimova_2017
     RDKit          3D

 36 37  0  0  0  0  0  0  0  0999 V2000
  122.9880  129.6260   67.1070 C   0  0  0  0  0  0  0  0  0  0  0  0
  124.1550  129.3090   66.1660 C   0  0  0  0  0  0  0  0  0  0  0  0
  123.7550  129.5960   64.8290 O   0  0  0  0  0  0  0  0  0  0  0  0
  124.7000  130.0220   63.9160 C   0  0  0  0  0  0  0  0  0  0  0  0
  125.9750  129.4700   64.0370 C   0  0  0  0  0  0  0  0  0  0  0  0
  126.9940  129.8420   63.1640 C   0  0  0  0  0  0  0  0  0  0  0  0
  126.7500  130.7750   62.1510 C   0  0  0  0  0  0  0  0  0  0  0  0
  127.8450  131.1740   61.2150 C   0  0  0  0  0  0  0  0  0  0  0  0
  129.1340  131.2330   61.4650 N   0  0  0  0  0  0  0  0  0  0  0  0
  129.6920  131.6330   60.3340 C   0  0  0  0  0  0  0  0  0  0  0  0
  131.1920  131.8100   60.2260 C   0  0  0  0  0  0  0  0  0  0  0  0
  131.8180  131.6910   61.5340 N   0  0  0  0  0  0  0  0  0  0  0  0
  133.1580  131.1390   61.4140 C   0  0  0  0  0  0  0  0  0  0  0  0
  128.7100  131.8230   59.3700 C   0  0  0  0  0  0  0  0  0  0  0  0
  128.6940  132.2540   57.9240 C   0  0  0  0  0  0  0  0  0  0  0  0
  127.5210  131.5260   59.9430 O   0  0  0  0  0  0  0  0  0  0  0  0
  125.4720  131.3280   62.0240 C   0  0  0  0  0  0  0  0  0  0  0  0
  124.4530  130.9570   62.8980 C   0  0  0  0  0  0  0  0  0  0  0  0
  123.3234  129.5349   68.1507 H   0  0  0  0  0  0  0  0  0  0  0  0
  122.6369  130.6521   66.9229 H   0  0  0  0  0  0  0  0  0  0  0  0
  122.1660  128.9186   66.9229 H   0  0  0  0  0  0  0  0  0  0  0  0
  125.0244  129.9277   66.4331 H   0  0  0  0  0  0  0  0  0  0  0  0
  124.4305  128.2478   66.2550 H   0  0  0  0  0  0  0  0  0  0  0  0
  126.1775  128.7342   64.8292 H   0  0  0  0  0  0  0  0  0  0  0  0
  127.9955  129.4000   63.2715 H   0  0  0  0  0  0  0  0  0  0  0  0
  131.6000  131.0367   59.5584 H   0  0  0  0  0  0  0  0  0  0  0  0
  131.4024  132.8114   59.8223 H   0  0  0  0  0  0  0  0  0  0  0  0
  131.2630  131.0780   62.1150 H   0  0  0  0  0  0  0  0  0  0  0  0
  133.5750  130.9672   62.4173 H   0  0  0  0  0  0  0  0  0  0  0  0
  133.1142  130.1857   60.8670 H   0  0  0  0  0  0  0  0  0  0  0  0
  133.7984  131.8466   60.8670 H   0  0  0  0  0  0  0  0  0  0  0  0
  128.6532  133.3519   57.8691 H   0  0  0  0  0  0  0  0  0  0  0  0
  129.6061  131.8955   57.4244 H   0  0  0  0  0  0  0  0  0  0  0  0
  127.8110  131.8288   57.4244 H   0  0  0  0  0  0  0  0  0  0  0  0
  125.2701  132.0607   61.2288 H   0  0  0  0  0  0  0  0  0  0  0  0
  123.4511  131.3981   62.7904 H   0  0  0  0  0  0  0  0  0  0  0  0
  1  2  1  0
  2  3  1  0
  3  4  1  0
  4  5  2  0
  5  6  1  0
  6  7  2  0
  7  8  1  0
  8  9  2  0
  9 10  1  0
 10 11  1  0
 11 12  1  0
 12 13  1  0
 10 14  2  0
 14 15  1  0
 14 16  1  0
  7 17  1  0
 17 18  2  0
 18  4  1  0
 16  8  1  0
  1 19  1  0
  1 20  1  0
  1 21  1  0
  2 22  1  0
  2 23  1  0
  5 24  1  0
  6 25  1  0
 11 26  1  0
 11 27  1  0
 12 28  1  0
 13 29  1  0
 13 30  1  0
 13 31  1  0
 15 32  1  0
 15 33  1  0
 15 34  1  0
 17 35  1  0
 18 36  1  0
M  END
>  <Binding energies>  (1) 
[-5.13]

>  <Ligand effiencies>  (1) 
[-0.27]

>  <Interactions>  (1) 
["H-A:GLU:543:OE1:4909, V-A:PRO:540:CA:4883, V-A:TYR:539:CD1:4873, V-B:ARG:545:CZ:9898, V-A:PRO:540:C:4881, H-A:ALA:541:N:4891, H-B:GLY:454:N:9022, V-B:ILE:455:CA:9026, H-B:ARG:545:NE:9896, V-B:GLY:453:C:9014, H-B:TYR:484:OH:9320, V-A:ASN:362:CB:3176, V-B:GLY:454:C:9019, V-B:ILE:455:C:9024, V-B:GLY:454:CA:9021, V-A:TYR:539:C:4867, V-B:GLY:453:CA:9016, V-B:ARG:545:CD:9895, H-B:ARG:545:NH1:9899, V-B:HIS:456:CE1:9042, V-B:ARG:545:CG:9894, V-B:ARG:545:CB:9893, V-A:PRO:540:CB:4885"]

$$$$
RR33_Rahimova_2017-again1
     RDKit          3D

 37 38  0  0  0  0  0  0  0  0999 V2000
  124.1490  130.1200   57.2850 C   0  0  0  0  0  0  0  0  0  0  0  0
  123.3750  131.2930   57.8940 C   0  0  0  0  0  0  0  0  0  0  0  0
  124.1870  131.9130   58.8860 O   0  0  0  0  0  0  0  0  0  0  0  0
  124.2520  131.3620   60.1520 C   0  0  0  0  0  0  0  0  0  0  0  0
  125.4670  131.4910   60.8250 C   0  0  0  0  0  0  0  0  0  0  0  0
  125.6280  130.9680   62.1050 C   0  0  0  0  0  0  0  0  0  0  0  0
  124.5690  130.3040   62.7330 C   0  0  0  0  0  0  0  0  0  0  0  0
  124.7370  129.7430   64.1090 C   0  0  0  0  0  0  0  0  0  0  0  0
  125.7350  129.0150   64.5620 N   0  0  0  0  0  0  0  0  0  0  0  0
  125.4380  128.7610   65.8280 C   0  0  0  0  0  0  0  0  0  0  0  0
  126.3580  127.9240   66.6960 C   0  0  0  0  0  0  0  0  0  0  0  0
  127.8130  128.1460   66.2470 N   0  0  0  0  0  0  0  0  0  0  0  0
  128.4600  129.3960   66.8610 C   0  0  0  0  0  0  0  0  0  0  0  0
  124.2180  129.3460   66.1450 C   0  0  0  0  0  0  0  0  0  0  0  0
  123.3500  129.4210   67.3770 C   0  0  0  0  0  0  0  0  0  0  0  0
  123.7730  129.9790   65.0340 O   0  0  0  0  0  0  0  0  0  0  0  0
  123.3480  130.1730   62.0610 C   0  0  0  0  0  0  0  0  0  0  0  0
  123.1890  130.6970   60.7820 C   0  0  0  0  0  0  0  0  0  0  0  0
  124.5614  129.4950   58.0908 H   0  0  0  0  0  0  0  0  0  0  0  0
  123.4711  129.5166   56.6634 H   0  0  0  0  0  0  0  0  0  0  0  0
  124.9704  130.5059   56.6634 H   0  0  0  0  0  0  0  0  0  0  0  0
  123.1302  132.0224   57.1078 H   0  0  0  0  0  0  0  0  0  0  0  0
  122.4418  130.9291   58.3488 H   0  0  0  0  0  0  0  0  0  0  0  0
  126.3060  132.0110   60.3396 H   0  0  0  0  0  0  0  0  0  0  0  0
  126.5914  131.0773   62.6245 H   0  0  0  0  0  0  0  0  0  0  0  0
  126.2470  128.2254   67.7481 H   0  0  0  0  0  0  0  0  0  0  0  0
  126.0970  126.8602   66.5948 H   0  0  0  0  0  0  0  0  0  0  0  0
  128.3590  127.3360   66.5000 H   0  0  0  0  0  0  0  0  0  0  0  0
  127.8290  128.2310   65.2400 H   0  0  0  0  0  0  0  0  0  0  0  0
  128.4239  129.3262   67.9582 H   0  0  0  0  0  0  0  0  0  0  0  0
  129.5074  129.4657   66.5323 H   0  0  0  0  0  0  0  0  0  0  0  0
  127.9122  130.2915   66.5323 H   0  0  0  0  0  0  0  0  0  0  0  0
  123.9827  129.3663   68.2752 H   0  0  0  0  0  0  0  0  0  0  0  0
  122.7946  130.3705   67.3770 H   0  0  0  0  0  0  0  0  0  0  0  0
  122.6400  128.5809   67.3770 H   0  0  0  0  0  0  0  0  0  0  0  0
  122.5094  129.6528   62.5470 H   0  0  0  0  0  0  0  0  0  0  0  0
  122.2255  130.5895   60.2622 H   0  0  0  0  0  0  0  0  0  0  0  0
  1  2  1  0
  2  3  1  0
  3  4  1  0
  4  5  2  0
  5  6  1  0
  6  7  2  0
  7  8  1  0
  8  9  2  0
  9 10  1  0
 10 11  1  0
 11 12  1  0
 12 13  1  0
 10 14  2  0
 14 15  1  0
 14 16  1  0
  7 17  1  0
 17 18  2  0
 18  4  1  0
 16  8  1  0
  1 19  1  0
  1 20  1  0
  1 21  1  0
  2 22  1  0
  2 23  1  0
  5 24  1  0
  6 25  1  0
 11 26  1  0
 11 27  1  0
 12 28  1  0
 12 29  1  0
 13 30  1  0
 13 31  1  0
 13 32  1  0
 15 33  1  0
 15 34  1  0
 15 35  1  0
 17 36  1  0
 18 37  1  0
M  CHG  1  12   1
M  END
>  <Binding energies>  (1) 
[-6.02]

>  <Ligand effiencies>  (1) 
[-0.301]

>  <Interactions>  (1) 
["H-B:GLU:543:OE2:9882, V-B:GLU:543:CD:9880, H-A:GLU:543:OE2:4910, V-A:GLU:543:CD:4908, V-B:ILE:369:CD1:8211, V-A:TYR:539:CE1:4875, V-A:GLU:543:CG:4907, V-B:ILE:369:CG2:8209, V-B:ARG:545:CZ:9898, H-B:GLY:454:N:9022, H-B:TYR:484:OH:9320, V-B:ILE:455:C:9024, V-B:GLY:453:CA:9016, V-B:ARG:545:CD:9895, V-B:HIS:456:CE1:9042, V-B:ARG:545:CG:9894, V-B:ARG:545:CB:9893, V-B:TYR:484:CE1:9317, V-B:TYR:484:CZ:9319, V-B:ASP:366:CG:8185, H-B:ARG:545:NH2:9900, V-B:ILE:369:CB:8208, V-B:ASP:366:CA:8182, V-B:ASP:366:CB:8184, V-A:GLU:543:CB:4906, V-B:TYR:484:CE2:9318, V-A:TYR:539:CZ:4877, V-B:ASP:366:C:8180, V-A:GLU:543:CA:4904, V-B:TYR:531:CE1:9764"]

$$$$
RR3_Rahimova_2017
     RDKit          3D

 63 69  0  0  0  0  0  0  0  0999 V2000
  131.2510  120.9440   60.6480 C   0  0  0  0  0  0  0  0  0  0  0  0
  131.8100  122.1720   60.3090 C   0  0  0  0  0  0  0  0  0  0  0  0
  131.1260  123.3470   60.6090 C   0  0  0  0  0  0  0  0  0  0  0  0
  129.8790  123.3110   61.2510 C   0  0  0  0  0  0  0  0  0  0  0  0
  129.1460  124.5750   61.5740 C   0  0  0  0  0  0  0  0  0  0  0  0
  127.8570  124.8080   61.0740 C   0  0  0  0  0  0  0  0  0  0  0  0
  127.1770  125.9860   61.3710 C   0  0  0  0  0  0  0  0  0  0  0  0
  127.7750  126.9630   62.1720 C   0  0  0  0  0  0  0  0  0  0  0  0
  127.0510  128.2330   62.4910 C   0  0  0  0  0  0  0  0  0  0  0  0
  126.4930  128.9430   61.5170 N   0  0  0  0  0  0  0  0  0  0  0  0
  125.9000  129.9630   62.0890 C   0  0  0  0  0  0  0  0  0  0  0  0
  125.1570  131.0070   61.3870 C   0  0  0  0  0  0  0  0  0  0  0  0
  123.8980  130.8690   60.8270 C   0  0  0  0  0  0  0  0  0  0  0  0
  123.5020  132.0500   60.2570 N   0  0  0  0  0  0  0  0  0  0  0  0
  124.4840  133.0020   60.4200 C   0  0  0  0  0  0  0  0  0  0  0  0
  124.5360  134.3390   60.0130 C   0  0  0  0  0  0  0  0  0  0  0  0
  125.6890  135.0540   60.3330 C   0  0  0  0  0  0  0  0  0  0  0  0
  126.7460  134.4710   61.0240 C   0  0  0  0  0  0  0  0  0  0  0  0
  126.6940  133.1390   61.4300 C   0  0  0  0  0  0  0  0  0  0  0  0
  125.5530  132.3730   61.1320 C   0  0  0  0  0  0  0  0  0  0  0  0
  126.0730  129.9320   63.4450 N   0  0  0  0  0  0  0  0  0  0  0  0
  126.8360  128.8330   63.7440 C   0  0  0  0  0  0  0  0  0  0  0  0
  127.2800  128.5080   65.1320 C   0  0  0  0  0  0  0  0  0  0  0  0
  128.6200  128.6580   65.4920 C   0  0  0  0  0  0  0  0  0  0  0  0
  129.0400  128.3430   66.7800 C   0  0  0  0  0  0  0  0  0  0  0  0
  128.1310  127.8760   67.7410 C   0  0  0  0  0  0  0  0  0  0  0  0
  128.5900  127.5200   69.1200 C   0  0  0  0  0  0  0  0  0  0  0  0
  129.7510  128.0930   69.6620 C   0  0  0  0  0  0  0  0  0  0  0  0
  130.1750  127.7640   70.9480 C   0  0  0  0  0  0  0  0  0  0  0  0
  129.4400  126.8590   71.7060 C   0  0  0  0  0  0  0  0  0  0  0  0
  128.2860  126.2810   71.1890 C   0  0  0  0  0  0  0  0  0  0  0  0
  127.8650  126.6090   69.9040 C   0  0  0  0  0  0  0  0  0  0  0  0
  126.7850  127.7460   67.3720 C   0  0  0  0  0  0  0  0  0  0  0  0
  126.3620  128.0600   66.0830 C   0  0  0  0  0  0  0  0  0  0  0  0
  129.0530  126.7340   62.6850 C   0  0  0  0  0  0  0  0  0  0  0  0
  129.7310  125.5560   62.3850 C   0  0  0  0  0  0  0  0  0  0  0  0
  129.3350  122.0610   61.5820 C   0  0  0  0  0  0  0  0  0  0  0  0
  130.0160  120.8840   61.2840 C   0  0  0  0  0  0  0  0  0  0  0  0
  131.7895  120.0145   60.4114 H   0  0  0  0  0  0  0  0  0  0  0  0
  132.7876  122.2144   59.8064 H   0  0  0  0  0  0  0  0  0  0  0  0
  131.5693  124.3168   60.3390 H   0  0  0  0  0  0  0  0  0  0  0  0
  127.3764  124.0497   60.4384 H   0  0  0  0  0  0  0  0  0  0  0  0
  126.1643  126.1486   60.9734 H   0  0  0  0  0  0  0  0  0  0  0  0
  123.3020  129.9445   60.8383 H   0  0  0  0  0  0  0  0  0  0  0  0
  122.6100  132.1570   59.7970 H   0  0  0  0  0  0  0  0  0  0  0  0
  123.7042  134.8055   59.4649 H   0  0  0  0  0  0  0  0  0  0  0  0
  125.7651  136.1089   60.0306 H   0  0  0  0  0  0  0  0  0  0  0  0
  127.6383  135.0717   61.2539 H   0  0  0  0  0  0  0  0  0  0  0  0
  127.5365  132.6915   61.9777 H   0  0  0  0  0  0  0  0  0  0  0  0
  125.7250  130.6130   64.1050 H   0  0  0  0  0  0  0  0  0  0  0  0
  129.3473  129.0270   64.7538 H   0  0  0  0  0  0  0  0  0  0  0  0
  130.1000  128.4618   67.0489 H   0  0  0  0  0  0  0  0  0  0  0  0
  130.3330  128.8102   69.0646 H   0  0  0  0  0  0  0  0  0  0  0  0
  131.0873  128.2183   71.3619 H   0  0  0  0  0  0  0  0  0  0  0  0
  129.7738  126.5987   72.7213 H   0  0  0  0  0  0  0  0  0  0  0  0
  127.7078  125.5669   71.7937 H   0  0  0  0  0  0  0  0  0  0  0  0
  126.9525  126.1486   69.4974 H   0  0  0  0  0  0  0  0  0  0  0  0
  126.0522  127.3908   68.1114 H   0  0  0  0  0  0  0  0  0  0  0  0
  125.3008  127.9546   65.8134 H   0  0  0  0  0  0  0  0  0  0  0  0
  129.5268  127.4887   63.3299 H   0  0  0  0  0  0  0  0  0  0  0  0
  130.7405  125.3931   62.7905 H   0  0  0  0  0  0  0  0  0  0  0  0
  128.3574  122.0102   62.0837 H   0  0  0  0  0  0  0  0  0  0  0  0
  129.5789  119.9104   61.5506 H   0  0  0  0  0  0  0  0  0  0  0  0
  1  2  2  0
  2  3  1  0
  3  4  2  0
  4  5  1  0
  5  6  2  0
  6  7  1  0
  7  8  2  0
  8  9  1  0
  9 10  1  0
 10 11  2  0
 11 12  1  0
 12 13  2  0
 13 14  1  0
 14 15  1  0
 15 16  2  0
 16 17  1  0
 17 18  2  0
 18 19  1  0
 19 20  2  0
 11 21  1  0
 21 22  1  0
 22 23  1  0
 23 24  2  0
 24 25  1  0
 25 26  2  0
 26 27  1  0
 27 28  2  0
 28 29  1  0
 29 30  2  0
 30 31  1  0
 31 32  2  0
 26 33  1  0
 33 34  2  0
  8 35  1  0
 35 36  2  0
  4 37  1  0
 37 38  2  0
 38  1  1  0
 36  5  1  0
 22  9  2  0
 34 23  1  0
 20 12  1  0
 32 27  1  0
 20 15  1  0
  1 39  1  0
  2 40  1  0
  3 41  1  0
  6 42  1  0
  7 43  1  0
 13 44  1  0
 14 45  1  0
 16 46  1  0
 17 47  1  0
 18 48  1  0
 19 49  1  0
 21 50  1  0
 24 51  1  0
 25 52  1  0
 28 53  1  0
 29 54  1  0
 30 55  1  0
 31 56  1  0
 32 57  1  0
 33 58  1  0
 34 59  1  0
 35 60  1  0
 36 61  1  0
 37 62  1  0
 38 63  1  0
M  END
>  <Binding energies>  (1) 
[-8.0]

>  <Ligand effiencies>  (1) 
[-0.2]

>  <Interactions>  (1) 
["V-B:ALA:541:CB:9864, V-B:TYR:539:CD2:9846, V-A:LEU:475:CD2:4259, V-B:GLU:543:CD:9880, V-B:TYR:539:CE2:9848, V-A:GLU:543:CD:4908, V-B:ILE:369:CD1:8211, V-A:TYR:539:CE1:4875, V-A:TYR:539:CD1:4873, V-A:GLU:543:CG:4907, V-B:ILE:369:CG2:8209, V-B:LEU:475:CD2:9231, H-B:TYR:484:OH:9320, V-B:HIS:456:CE1:9042, V-B:ARG:545:CG:9894, V-B:HIS:456:CD2:9040, V-A:HIS:456:CD2:4068, V-B:GLY:544:C:9884, V-A:HIS:456:CG:4066, V-A:GLY:544:C:4912, V-B:GLU:543:CB:9878, V-B:ILE:369:CG1:8210, V-B:ILE:369:CB:8208, V-A:HIS:456:CE1:4070, V-A:GLU:543:CB:4906, V-B:GLU:543:C:9874"]

$$$$
RR4_Rahimova_2017
     RDKit          3D

 66 70  0  0  0  0  0  0  0  0999 V2000
  134.0240  123.2270   61.7240 C   0  0  0  0  0  0  0  0  0  0  0  0
  133.8710  124.4070   62.5040 O   0  0  0  0  0  0  0  0  0  0  0  0
  132.6900  125.1200   62.4250 C   0  0  0  0  0  0  0  0  0  0  0  0
  132.2550  125.4690   61.1480 C   0  0  0  0  0  0  0  0  0  0  0  0
  131.0760  126.1850   60.9710 C   0  0  0  0  0  0  0  0  0  0  0  0
  130.2950  126.5770   62.0680 C   0  0  0  0  0  0  0  0  0  0  0  0
  129.0230  127.3510   61.8740 C   0  0  0  0  0  0  0  0  0  0  0  0
  128.1660  127.6780   62.9300 C   0  0  0  0  0  0  0  0  0  0  0  0
  126.9920  128.4060   62.6970 C   0  0  0  0  0  0  0  0  0  0  0  0
  126.1400  128.7430   63.8780 C   0  0  0  0  0  0  0  0  0  0  0  0
  124.8460  129.2390   63.6910 C   0  0  0  0  0  0  0  0  0  0  0  0
  124.0420  129.5450   64.7860 C   0  0  0  0  0  0  0  0  0  0  0  0
  124.5110  129.3550   66.0850 C   0  0  0  0  0  0  0  0  0  0  0  0
  123.6430  129.6840   67.1080 O   0  0  0  0  0  0  0  0  0  0  0  0
  122.2740  129.3050   67.0070 C   0  0  0  0  0  0  0  0  0  0  0  0
  125.8070  128.8520   66.2770 C   0  0  0  0  0  0  0  0  0  0  0  0
  126.6090  128.5470   65.1810 C   0  0  0  0  0  0  0  0  0  0  0  0
  126.6800  128.7770   61.3660 C   0  0  0  0  0  0  0  0  0  0  0  0
  125.4650  129.5410   61.0670 C   0  0  0  0  0  0  0  0  0  0  0  0
  124.5050  130.1430   60.8310 N   0  0  0  0  0  0  0  0  0  0  0  0
  127.5760  128.3880   60.3440 C   0  0  0  0  0  0  0  0  0  0  0  0
  127.3380  128.7560   58.6180 S   0  0  0  0  0  0  0  0  0  0  0  0
  126.2960  127.4380   57.9070 C   0  0  0  0  0  0  0  0  0  0  0  0
  126.6100  126.0280   58.4250 C   0  0  0  0  0  0  0  0  0  0  0  0
  125.7590  125.1370   58.3710 O   0  0  0  0  0  0  0  0  0  0  0  0
  127.8530  125.8770   58.9380 N   0  0  0  0  0  0  0  0  0  0  0  0
  128.4350  124.7280   59.4800 C   0  0  0  0  0  0  0  0  0  0  0  0
  129.9850  124.1170   58.9670 S   0  0  0  0  0  0  0  0  0  0  0  0
  129.8920  122.7870   60.0800 C   0  0  0  0  0  0  0  0  0  0  0  0
  128.6990  122.8150   60.8190 C   0  0  0  0  0  0  0  0  0  0  0  0
  127.8830  123.9240   60.4890 C   0  0  0  0  0  0  0  0  0  0  0  0
  126.5980  124.1950   61.1280 C   0  0  0  0  0  0  0  0  0  0  0  0
  125.5790  124.4090   61.6340 N   0  0  0  0  0  0  0  0  0  0  0  0
  128.3980  121.7670   61.8970 C   0  0  0  0  0  0  0  0  0  0  0  0
  129.6840  121.0080   62.2940 C   0  0  0  0  0  0  0  0  0  0  0  0
  130.5020  120.5700   61.0670 C   0  0  0  0  0  0  0  0  0  0  0  0
  131.0180  121.7760   60.2540 C   0  0  0  0  0  0  0  0  0  0  0  0
  128.7200  127.7120   60.6010 N   0  0  0  0  0  0  0  0  0  0  0  0
  130.7390  126.2170   63.3510 C   0  0  0  0  0  0  0  0  0  0  0  0
  131.9190  125.5010   63.5310 C   0  0  0  0  0  0  0  0  0  0  0  0
  134.1365  122.3590   62.3903 H   0  0  0  0  0  0  0  0  0  0  0  0
  133.1362  123.0893   61.0893 H   0  0  0  0  0  0  0  0  0  0  0  0
  134.9176  123.3203   61.0893 H   0  0  0  0  0  0  0  0  0  0  0  0
  132.8503  125.1751   60.2709 H   0  0  0  0  0  0  0  0  0  0  0  0
  130.7506  126.4483   59.9537 H   0  0  0  0  0  0  0  0  0  0  0  0
  128.4162  127.3605   63.9530 H   0  0  0  0  0  0  0  0  0  0  0  0
  124.4605  129.3885   62.6717 H   0  0  0  0  0  0  0  0  0  0  0  0
  123.0281  129.9400   64.6246 H   0  0  0  0  0  0  0  0  0  0  0  0
  121.8506  129.1878   68.0155 H   0  0  0  0  0  0  0  0  0  0  0  0
  121.7173  130.0828   66.4638 H   0  0  0  0  0  0  0  0  0  0  0  0
  122.1966  128.3516   66.4638 H   0  0  0  0  0  0  0  0  0  0  0  0
  126.1901  128.6983   67.2966 H   0  0  0  0  0  0  0  0  0  0  0  0
  127.6215  128.1479   65.3412 H   0  0  0  0  0  0  0  0  0  0  0  0
  125.2461  127.6649   58.1439 H   0  0  0  0  0  0  0  0  0  0  0  0
  126.5009  127.4266   56.8263 H   0  0  0  0  0  0  0  0  0  0  0  0
  128.4510  126.6900   58.9210 H   0  0  0  0  0  0  0  0  0  0  0  0
  127.9867  122.2698   62.7847 H   0  0  0  0  0  0  0  0  0  0  0  0
  127.6707  121.0456   61.4961 H   0  0  0  0  0  0  0  0  0  0  0  0
  130.3060  121.6668   62.9177 H   0  0  0  0  0  0  0  0  0  0  0  0
  129.3860  120.1021   62.8423 H   0  0  0  0  0  0  0  0  0  0  0  0
  131.3635  119.9772   61.4080 H   0  0  0  0  0  0  0  0  0  0  0  0
  129.8438  119.9776   60.4144 H   0  0  0  0  0  0  0  0  0  0  0  0
  131.8556  122.2478   60.7886 H   0  0  0  0  0  0  0  0  0  0  0  0
  131.3610  121.4340   59.2664 H   0  0  0  0  0  0  0  0  0  0  0  0
  130.1434  126.5061   64.2295 H   0  0  0  0  0  0  0  0  0  0  0  0
  132.2476  125.2331   64.5460 H   0  0  0  0  0  0  0  0  0  0  0  0
  1  2  1  0
  2  3  1  0
  3  4  2  0
  4  5  1  0
  5  6  2  0
  6  7  1  0
  7  8  2  0
  8  9  1  0
  9 10  1  0
 10 11  2  0
 11 12  1  0
 12 13  2  0
 13 14  1  0
 14 15  1  0
 13 16  1  0
 16 17  2  0
  9 18  2  0
 18 19  1  0
 19 20  3  0
 18 21  1  0
 21 22  1  0
 22 23  1  0
 23 24  1  0
 24 25  2  0
 24 26  1  0
 26 27  1  0
 27 28  1  0
 28 29  1  0
 29 30  2  0
 30 31  1  0
 31 32  1  0
 32 33  3  0
 30 34  1  0
 34 35  1  0
 35 36  1  0
 36 37  1  0
 21 38  2  0
  6 39  1  0
 39 40  2  0
 40  3  1  0
 38  7  1  0
 17 10  1  0
 31 27  2  0
 37 29  1  0
  1 41  1  0
  1 42  1  0
  1 43  1  0
  4 44  1  0
  5 45  1  0
  8 46  1  0
 11 47  1  0
 12 48  1  0
 15 49  1  0
 15 50  1  0
 15 51  1  0
 16 52  1  0
 17 53  1  0
 23 54  1  0
 23 55  1  0
 26 56  1  0
 34 57  1  0
 34 58  1  0
 35 59  1  0
 35 60  1  0
 36 61  1  0
 36 62  1  0
 37 63  1  0
 37 64  1  0
 39 65  1  0
 40 66  1  0
M  END
>  <Binding energies>  (1) 
[-7.97]

>  <Ligand effiencies>  (1) 
[-0.19439024390243903]

>  <Interactions>  (1) 
["V-B:ALA:541:CB:9864, V-B:TYR:539:CD2:9846, V-A:TYR:484:CE1:4345, V-A:LEU:475:CD2:4259, V-B:GLU:543:CD:9880, V-B:TYR:539:CE2:9848, V-A:GLU:543:CD:4908, V-B:PRO:540:C:9853, V-B:ALA:541:CA:9862, V-B:PRO:540:CA:9855, V-A:ARG:545:CZ:4926, H-A:TYR:484:OH:4348, V-B:ARG:545:CZ:9898, H-B:GLY:454:N:9022, V-B:GLY:453:C:9014, H-B:TYR:484:OH:9320, V-B:ILE:455:C:9024, V-B:GLY:453:CA:9016, V-B:ARG:545:CD:9895, V-B:HIS:456:CE1:9042, V-B:ARG:545:CG:9894, V-B:ARG:545:CB:9893, V-A:ASP:366:CG:3213, V-A:GLY:454:CA:4049, V-A:ILE:369:CD1:3239, V-A:GLY:453:C:4042, H-B:HIS:456:ND1:9039, V-B:TYR:484:CZ:9319, V-B:ASP:366:CG:8185, H-B:ARG:545:NH2:9900, H-B:ILE:455:N:9027, H-A:GLY:454:N:4050, H-B:TYR:531:OH:9767, V-B:TYR:539:CZ:9849, V-B:VAL:452:C:9006, V-B:VAL:452:CG2:9012"]

$$$$
RR5_Rahimova_2017
     RDKit          3D

 77 82  0  0  0  0  0  0  0  0999 V2000
  128.2490  132.2870   63.5820 O   0  0  0  0  0  0  0  0  0  0  0  0
  128.6430  131.5530   62.6760 C   0  0  0  0  0  0  0  0  0  0  0  0
  130.1450  131.5000   62.3370 C   0  0  0  0  0  0  0  0  0  0  0  0
  130.4670  130.7930   60.9720 C   0  0  2  0  0  0  0  0  0  0  0  0
  130.3600  129.3200   60.9930 N   0  0  0  0  0  0  0  0  0  0  0  0
  129.4820  128.6430   60.1580 C   0  0  0  0  0  0  0  0  0  0  0  0
  128.7490  129.1420   59.3000 O   0  0  0  0  0  0  0  0  0  0  0  0
  129.5480  127.3320   60.4470 O   0  0  0  0  0  0  0  0  0  0  0  0
  130.7990  126.6610   60.5730 C   0  0  0  0  0  0  0  0  0  0  0  0
  130.7360  125.5870   61.6810 C   0  0  0  0  0  0  0  0  0  0  0  0
  129.5490  124.6490   61.5540 C   0  0  0  0  0  0  0  0  0  0  0  0
  128.1830  124.9420   61.5290 C   0  0  0  0  0  0  0  0  0  0  0  0
  127.2530  123.9110   61.3800 C   0  0  0  0  0  0  0  0  0  0  0  0
  127.6860  122.5900   61.2570 C   0  0  0  0  0  0  0  0  0  0  0  0
  129.0500  122.2940   61.2850 C   0  0  0  0  0  0  0  0  0  0  0  0
  129.9770  123.3260   61.4350 C   0  0  0  0  0  0  0  0  0  0  0  0
  131.4470  123.3050   61.5040 C   0  0  0  0  0  0  0  0  0  0  0  0
  132.3550  122.2440   61.4490 C   0  0  0  0  0  0  0  0  0  0  0  0
  133.7220  122.4990   61.5630 C   0  0  0  0  0  0  0  0  0  0  0  0
  134.1790  123.8080   61.7280 C   0  0  0  0  0  0  0  0  0  0  0  0
  133.2700  124.8650   61.7790 C   0  0  0  0  0  0  0  0  0  0  0  0
  131.9000  124.6150   61.6620 C   0  0  0  0  0  0  0  0  0  0  0  0
  131.8670  131.2070   60.4560 C   0  0  0  0  0  0  0  0  0  0  0  0
  132.5930  132.0160   60.9970 O   0  0  0  0  0  0  0  0  0  0  0  0
  132.1610  130.5110   59.3180 O   0  0  0  0  0  0  0  0  0  0  0  0
  127.8520  130.7360   61.9450 N   0  0  0  0  0  0  0  0  0  0  0  0
  126.3830  130.4690   61.9350 C   0  0  0  0  0  0  0  0  0  0  0  0
  126.2500  129.4220   60.7780 C   0  0  0  0  0  0  0  0  0  0  0  0
  125.8800  129.8080   59.4790 C   0  0  0  0  0  0  0  0  0  0  0  0
  125.7660  128.8680   58.4580 C   0  0  0  0  0  0  0  0  0  0  0  0
  126.0090  127.5250   58.7210 C   0  0  0  0  0  0  0  0  0  0  0  0
  126.3780  127.1140   59.9970 C   0  0  0  0  0  0  0  0  0  0  0  0
  126.5020  128.0560   61.0150 C   0  0  0  0  0  0  0  0  0  0  0  0
  126.0070  129.8720   63.3330 C   0  0  0  0  0  0  0  0  0  0  0  0
  124.6770  129.8260   63.7820 C   0  0  0  0  0  0  0  0  0  0  0  0
  124.3680  129.3090   65.0380 C   0  0  0  0  0  0  0  0  0  0  0  0
  125.3840  128.8340   65.8610 C   0  0  0  0  0  0  0  0  0  0  0  0
  126.7080  128.8650   65.4360 C   0  0  0  0  0  0  0  0  0  0  0  0
  127.0140  129.3740   64.1780 C   0  0  0  0  0  0  0  0  0  0  0  0
  125.6940  131.8350   61.6010 C   0  0  0  0  0  0  0  0  0  0  0  0
  124.3530  132.0740   61.9520 C   0  0  0  0  0  0  0  0  0  0  0  0
  123.7330  133.2840   61.6510 C   0  0  0  0  0  0  0  0  0  0  0  0
  124.4470  134.2810   60.9970 C   0  0  0  0  0  0  0  0  0  0  0  0
  125.7780  134.0800   60.6510 C   0  0  0  0  0  0  0  0  0  0  0  0
  126.3940  132.8690   60.9530 C   0  0  0  0  0  0  0  0  0  0  0  0
  130.5258  132.5309   62.2909 H   0  0  0  0  0  0  0  0  0  0  0  0
  130.6285  130.9048   63.1256 H   0  0  0  0  0  0  0  0  0  0  0  0
  129.6832  131.1429   60.2840 H   0  0  0  0  0  0  0  0  0  0  0  0
  130.8090  128.8190   61.7460 H   0  0  0  0  0  0  0  0  0  0  0  0
  131.0472  126.1781   59.6163 H   0  0  0  0  0  0  0  0  0  0  0  0
  131.5696  127.3990   60.8406 H   0  0  0  0  0  0  0  0  0  0  0  0
  130.7066  126.2129   62.5851 H   0  0  0  0  0  0  0  0  0  0  0  0
  127.8408  125.9829   61.6265 H   0  0  0  0  0  0  0  0  0  0  0  0
  126.1774  124.1405   61.3595 H   0  0  0  0  0  0  0  0  0  0  0  0
  126.9510  121.7803   61.1377 H   0  0  0  0  0  0  0  0  0  0  0  0
  129.3921  121.2529   61.1893 H   0  0  0  0  0  0  0  0  0  0  0  0
  131.9939  121.2134   61.3165 H   0  0  0  0  0  0  0  0  0  0  0  0
  134.4409  121.6674   61.5228 H   0  0  0  0  0  0  0  0  0  0  0  0
  135.2573  124.0061   61.8179 H   0  0  0  0  0  0  0  0  0  0  0  0
  133.6316  125.8954   61.9113 H   0  0  0  0  0  0  0  0  0  0  0  0
  132.7110  129.7440   59.4930 H   0  0  0  0  0  0  0  0  0  0  0  0
  128.3270  130.2800   61.1800 H   0  0  0  0  0  0  0  0  0  0  0  0
  125.6774  130.8679   59.2653 H   0  0  0  0  0  0  0  0  0  0  0  0
  125.4839  129.1881   57.4441 H   0  0  0  0  0  0  0  0  0  0  0  0
  125.9088  126.7831   57.9151 H   0  0  0  0  0  0  0  0  0  0  0  0
  126.5709  126.0505   60.2012 H   0  0  0  0  0  0  0  0  0  0  0  0
  126.8018  127.7282   62.0213 H   0  0  0  0  0  0  0  0  0  0  0  0
  123.8709  130.2022   63.1350 H   0  0  0  0  0  0  0  0  0  0  0  0
  123.3225  129.2764   65.3785 H   0  0  0  0  0  0  0  0  0  0  0  0
  125.1386  128.4311   66.8547 H   0  0  0  0  0  0  0  0  0  0  0  0
  127.5082  128.4893   66.0906 H   0  0  0  0  0  0  0  0  0  0  0  0
  128.0604  129.3870   63.8392 H   0  0  0  0  0  0  0  0  0  0  0  0
  123.7836  131.2907   62.4738 H   0  0  0  0  0  0  0  0  0  0  0  0
  122.6820  133.4501   61.9298 H   0  0  0  0  0  0  0  0  0  0  0  0
  123.9560  135.2344   60.7519 H   0  0  0  0  0  0  0  0  0  0  0  0
  126.3421  134.8746   60.1407 H   0  0  0  0  0  0  0  0  0  0  0  0
  127.4487  132.7175   60.6797 H   0  0  0  0  0  0  0  0  0  0  0  0
  1  2  2  0
  2  3  1  0
  3  4  1  0
  4  5  1  0
  5  6  1  0
  6  7  2  0
  6  8  1  0
  8  9  1  0
  9 10  1  0
 10 11  1  0
 11 12  2  0
 12 13  1  0
 13 14  2  0
 14 15  1  0
 15 16  2  0
 16 17  1  0
 17 18  2  0
 18 19  1  0
 19 20  2  0
 20 21  1  0
 21 22  2  0
  4 23  1  0
 23 24  2  0
 23 25  1  0
  2 26  1  0
 26 27  1  0
 27 28  1  0
 28 29  2  0
 29 30  1  0
 30 31  2  0
 31 32  1  0
 32 33  2  0
 27 34  1  0
 34 35  2  0
 35 36  1  0
 36 37  2  0
 37 38  1  0
 38 39  2  0
 27 40  1  0
 40 41  2  0
 41 42  1  0
 42 43  2  0
 43 44  1  0
 44 45  2  0
 22 10  1  0
 33 28  1  0
 39 34  1  0
 45 40  1  0
 16 11  1  0
 22 17  1  0
  3 46  1  0
  3 47  1  0
  4 48  1  6
  5 49  1  0
  9 50  1  0
  9 51  1  0
 10 52  1  0
 12 53  1  0
 13 54  1  0
 14 55  1  0
 15 56  1  0
 18 57  1  0
 19 58  1  0
 20 59  1  0
 21 60  1  0
 25 61  1  0
 26 62  1  0
 29 63  1  0
 30 64  1  0
 31 65  1  0
 32 66  1  0
 33 67  1  0
 35 68  1  0
 36 69  1  0
 37 70  1  0
 38 71  1  0
 39 72  1  0
 41 73  1  0
 42 74  1  0
 43 75  1  0
 44 76  1  0
 45 77  1  0
M  END
>  <Binding energies>  (1) 
[-10.14]

>  <Ligand effiencies>  (1) 
[-0.21125000000000002]

>  <Interactions>  (1) 
["V-A:LEU:475:CD2:4259, V-B:GLU:543:CD:9880, V-A:GLU:543:CD:4908, V-B:PRO:540:C:9853, V-B:PRO:540:CA:9855, H-A:GLU:543:OE1:4909, V-A:ARG:545:CZ:4926, V-B:ILE:369:CD1:8211, V-A:TYR:539:CE1:4875, V-A:PRO:540:CA:4883, V-A:ALA:541:CB:4892, V-A:TYR:539:CD1:4873, V-A:GLU:543:CG:4907, V-B:ILE:369:CG2:8209, V-B:ARG:545:CZ:9898, V-B:LEU:475:CD2:9231, V-A:ALA:541:CA:4890, H-A:ALA:541:N:4891, H-B:TYR:484:OH:9320, V-B:ARG:545:CD:9895, V-B:HIS:456:CE1:9042, V-B:ARG:545:CG:9894, V-A:PRO:540:CB:4885, H-A:ASP:366:OD1:3214, V-A:ASP:366:CG:3213, V-A:GLY:454:CA:4049, V-A:ILE:369:CD1:3239, V-A:GLY:453:CA:4044, V-A:GLY:453:C:4042, V-B:ASP:366:CG:8185, V-B:ASP:366:CB:8184"]

$$$$
RR5_Rahimova_2017-again1
     RDKit          3D

 76 81  0  0  0  0  0  0  0  0999 V2000
  128.7990  132.5550   58.1400 O   0  0  0  0  0  0  0  0  0  0  0  0
  129.3760  131.8370   58.9560 C   0  0  0  0  0  0  0  0  0  0  0  0
  130.8400  131.4330   58.6860 C   0  0  0  0  0  0  0  0  0  0  0  0
  131.6010  130.7290   59.8570 C   0  0  2  0  0  0  0  0  0  0  0  0
  130.8160  129.5630   60.3130 N   0  0  0  0  0  0  0  0  0  0  0  0
  130.4960  128.5170   59.4550 C   0  0  0  0  0  0  0  0  0  0  0  0
  130.7870  128.4340   58.2580 O   0  0  0  0  0  0  0  0  0  0  0  0
  129.8060  127.5880   60.1450 O   0  0  0  0  0  0  0  0  0  0  0  0
  130.4760  126.6430   60.9710 C   0  0  0  0  0  0  0  0  0  0  0  0
  130.4100  125.2420   60.3330 C   0  0  0  0  0  0  0  0  0  0  0  0
  131.6130  124.3730   60.6550 C   0  0  0  0  0  0  0  0  0  0  0  0
  132.9670  124.5880   60.3850 C   0  0  0  0  0  0  0  0  0  0  0  0
  133.9170  123.6490   60.7910 C   0  0  0  0  0  0  0  0  0  0  0  0
  133.5160  122.4920   61.4610 C   0  0  0  0  0  0  0  0  0  0  0  0
  132.1640  122.2700   61.7280 C   0  0  0  0  0  0  0  0  0  0  0  0
  131.2160  123.2120   61.3220 C   0  0  0  0  0  0  0  0  0  0  0  0
  129.7520  123.2310   61.4580 C   0  0  0  0  0  0  0  0  0  0  0  0
  128.8700  122.3120   62.0320 C   0  0  0  0  0  0  0  0  0  0  0  0
  127.4980  122.5680   62.0160 C   0  0  0  0  0  0  0  0  0  0  0  0
  127.0110  123.7380   61.4300 C   0  0  0  0  0  0  0  0  0  0  0  0
  127.8950  124.6560   60.8590 C   0  0  0  0  0  0  0  0  0  0  0  0
  129.2700  124.4040   60.8760 C   0  0  0  0  0  0  0  0  0  0  0  0
  131.9170  131.7270   61.0430 C   0  0  0  0  0  0  0  0  0  0  0  0
  130.9880  131.8520   61.8750 O   0  0  0  0  0  0  0  0  0  0  0  0
  133.0570  132.2510   61.0530 O   0  0  0  0  0  0  0  0  0  0  0  0
  128.8290  131.4860   60.1400 N   0  0  0  0  0  0  0  0  0  0  0  0
  127.4660  131.7510   60.6680 C   0  0  0  0  0  0  0  0  0  0  0  0
  127.2290  133.2900   60.7940 C   0  0  0  0  0  0  0  0  0  0  0  0
  128.2440  134.1400   61.2680 C   0  0  0  0  0  0  0  0  0  0  0  0
  128.0410  135.5130   61.3690 C   0  0  0  0  0  0  0  0  0  0  0  0
  126.8170  136.0580   60.9930 C   0  0  0  0  0  0  0  0  0  0  0  0
  125.7980  135.2400   60.5170 C   0  0  0  0  0  0  0  0  0  0  0  0
  126.0030  133.8670   60.4170 C   0  0  0  0  0  0  0  0  0  0  0  0
  126.2930  131.2730   59.7540 C   0  0  0  0  0  0  0  0  0  0  0  0
  124.9880  131.1450   60.2610 C   0  0  0  0  0  0  0  0  0  0  0  0
  123.9410  130.7180   59.4500 C   0  0  0  0  0  0  0  0  0  0  0  0
  124.1830  130.4170   58.1140 C   0  0  0  0  0  0  0  0  0  0  0  0
  125.4630  130.5450   57.5840 C   0  0  0  0  0  0  0  0  0  0  0  0
  126.5080  130.9730   58.3980 C   0  0  0  0  0  0  0  0  0  0  0  0
  127.4640  131.0750   62.0820 C   0  0  0  0  0  0  0  0  0  0  0  0
  126.7610  129.8830   62.3310 C   0  0  0  0  0  0  0  0  0  0  0  0
  126.7840  129.2850   63.5870 C   0  0  0  0  0  0  0  0  0  0  0  0
  127.5230  129.8630   64.6130 C   0  0  0  0  0  0  0  0  0  0  0  0
  128.2470  131.0290   64.3890 C   0  0  0  0  0  0  0  0  0  0  0  0
  128.2210  131.6260   63.1310 C   0  0  0  0  0  0  0  0  0  0  0  0
  130.8435  130.7471   57.8260 H   0  0  0  0  0  0  0  0  0  0  0  0
  131.3756  132.3794   58.5204 H   0  0  0  0  0  0  0  0  0  0  0  0
  132.5769  130.3807   59.4877 H   0  0  0  0  0  0  0  0  0  0  0  0
  130.5650  129.5010   61.2900 H   0  0  0  0  0  0  0  0  0  0  0  0
  131.5285  126.9415   61.0855 H   0  0  0  0  0  0  0  0  0  0  0  0
  129.9862  126.6139   61.9555 H   0  0  0  0  0  0  0  0  0  0  0  0
  130.3199  125.4769   59.2622 H   0  0  0  0  0  0  0  0  0  0  0  0
  133.2843  125.4968   59.8527 H   0  0  0  0  0  0  0  0  0  0  0  0
  134.9833  123.8212   60.5826 H   0  0  0  0  0  0  0  0  0  0  0  0
  134.2668  121.7538   61.7792 H   0  0  0  0  0  0  0  0  0  0  0  0
  131.8469  121.3582   62.2553 H   0  0  0  0  0  0  0  0  0  0  0  0
  129.2550  121.3911   62.4943 H   0  0  0  0  0  0  0  0  0  0  0  0
  126.7995  121.8470   62.4657 H   0  0  0  0  0  0  0  0  0  0  0  0
  125.9292  123.9370   61.4181 H   0  0  0  0  0  0  0  0  0  0  0  0
  127.5097  125.5766   60.3963 H   0  0  0  0  0  0  0  0  0  0  0  0
  129.3670  130.8430   60.7020 H   0  0  0  0  0  0  0  0  0  0  0  0
  129.2137  133.7129   61.5636 H   0  0  0  0  0  0  0  0  0  0  0  0
  128.8441  136.1643   61.7442 H   0  0  0  0  0  0  0  0  0  0  0  0
  126.6544  137.1430   61.0728 H   0  0  0  0  0  0  0  0  0  0  0  0
  124.8330  135.6768   60.2204 H   0  0  0  0  0  0  0  0  0  0  0  0
  125.1949  133.2242   60.0378 H   0  0  0  0  0  0  0  0  0  0  0  0
  124.7914  131.3863   61.3160 H   0  0  0  0  0  0  0  0  0  0  0  0
  122.9266  130.6190   59.8637 H   0  0  0  0  0  0  0  0  0  0  0  0
  123.3573  130.0756   57.4724 H   0  0  0  0  0  0  0  0  0  0  0  0
  125.6485  130.3089   56.5258 H   0  0  0  0  0  0  0  0  0  0  0  0
  127.5173  131.0780   57.9734 H   0  0  0  0  0  0  0  0  0  0  0  0
  126.1835  129.4158   61.5197 H   0  0  0  0  0  0  0  0  0  0  0  0
  126.2196  128.3583   63.7676 H   0  0  0  0  0  0  0  0  0  0  0  0
  127.5351  129.3950   65.6084 H   0  0  0  0  0  0  0  0  0  0  0  0
  128.8374  131.4776   65.2015 H   0  0  0  0  0  0  0  0  0  0  0  0
  128.8020  132.5433   62.9552 H   0  0  0  0  0  0  0  0  0  0  0  0
  1  2  2  0
  2  3  1  0
  3  4  1  0
  4  5  1  0
  5  6  1  0
  6  7  2  0
  6  8  1  0
  8  9  1  0
  9 10  1  0
 10 11  1  0
 11 12  2  0
 12 13  1  0
 13 14  2  0
 14 15  1  0
 15 16  2  0
 16 17  1  0
 17 18  2  0
 18 19  1  0
 19 20  2  0
 20 21  1  0
 21 22  2  0
  4 23  1  0
 23 24  2  0
 23 25  1  0
  2 26  1  0
 26 27  1  0
 27 28  1  0
 28 29  2  0
 29 30  1  0
 30 31  2  0
 31 32  1  0
 32 33  2  0
 27 34  1  0
 34 35  2  0
 35 36  1  0
 36 37  2  0
 37 38  1  0
 38 39  2  0
 27 40  1  0
 40 41  2  0
 41 42  1  0
 42 43  2  0
 43 44  1  0
 44 45  2  0
 22 10  1  0
 33 28  1  0
 39 34  1  0
 45 40  1  0
 16 11  1  0
 22 17  1  0
  3 46  1  0
  3 47  1  0
  4 48  1  6
  5 49  1  0
  9 50  1  0
  9 51  1  0
 10 52  1  0
 12 53  1  0
 13 54  1  0
 14 55  1  0
 15 56  1  0
 18 57  1  0
 19 58  1  0
 20 59  1  0
 21 60  1  0
 26 61  1  0
 29 62  1  0
 30 63  1  0
 31 64  1  0
 32 65  1  0
 33 66  1  0
 35 67  1  0
 36 68  1  0
 37 69  1  0
 38 70  1  0
 39 71  1  0
 41 72  1  0
 42 73  1  0
 43 74  1  0
 44 75  1  0
 45 76  1  0
M  CHG  1  25  -1
M  END
>  <Binding energies>  (1) 
[-9.5]

>  <Ligand effiencies>  (1) 
[-0.20212765957446807]

>  <Interactions>  (1) 
["V-B:ALA:541:CB:9864, V-A:LEU:475:CD2:4259, V-B:GLU:543:CD:9880, V-A:ILE:369:CG2:3237, V-A:GLU:543:CD:4908, V-B:PRO:540:C:9853, V-B:ALA:541:CA:9862, V-B:PRO:540:CA:9855, H-A:GLU:543:OE1:4909, V-A:TYR:539:CE1:4875, V-A:PRO:540:CA:4883, V-A:ALA:541:CB:4892, V-A:TYR:539:CD1:4873, V-A:GLU:543:CG:4907, V-A:PRO:540:C:4881, V-B:LEU:475:CD2:9231, V-A:ALA:541:CA:4890, H-A:ALA:541:N:4891, V-A:TYR:539:C:4867, V-A:PRO:540:CB:4885, H-A:ASP:366:OD1:3214, V-A:ASP:366:CG:3213, V-A:GLY:454:CA:4049, V-A:ILE:369:CD1:3239, V-B:TYR:484:CZ:9319, V-B:ASP:366:CG:8185, V-B:PRO:482:CB:9298, V-B:ASP:366:CA:8182, V-B:ASP:366:CB:8184, V-A:GLU:543:CB:4906, V-B:TYR:484:CE2:9318, V-A:TYR:539:CZ:4877, V-B:ASP:366:C:8180"]

$$$$
RR6_Rahimova_2017
     RDKit          3D

 63 66  0  0  0  0  0  0  0  0999 V2000
  131.6630  121.8220   61.7110 C   0  0  0  0  0  0  0  0  0  0  0  0
  130.5090  121.5120   62.4790 O   0  0  0  0  0  0  0  0  0  0  0  0
  129.3450  121.1540   61.8790 C   0  0  0  0  0  0  0  0  0  0  0  0
  128.9830  119.9810   61.7420 O   0  0  0  0  0  0  0  0  0  0  0  0
  128.5400  122.3260   61.3970 C   0  0  0  0  0  0  0  0  0  0  0  0
  127.2840  122.6390   61.9390 C   0  0  0  0  0  0  0  0  0  0  0  0
  126.5580  123.7300   61.4650 C   0  0  0  0  0  0  0  0  0  0  0  0
  127.0780  124.5260   60.4340 C   0  0  0  0  0  0  0  0  0  0  0  0
  126.4180  125.6300   59.8630 N   0  0  0  0  0  0  0  0  0  0  0  0
  126.3870  126.0370   58.5750 C   0  0  0  0  0  0  0  0  0  0  0  0
  126.9510  125.4760   57.6360 O   0  0  0  0  0  0  0  0  0  0  0  0
  125.6290  127.3420   58.3110 C   0  0  0  0  0  0  0  0  0  0  0  0
  126.4620  128.8220   58.9770 S   0  0  0  0  0  0  0  0  0  0  0  0
  127.2120  128.3400   60.5180 C   0  0  0  0  0  0  0  0  0  0  0  0
  126.4860  128.6610   61.6160 N   0  0  0  0  0  0  0  0  0  0  0  0
  126.9410  128.3190   62.8470 C   0  0  0  0  0  0  0  0  0  0  0  0
  126.0490  128.6560   64.0060 C   0  0  0  0  0  0  0  0  0  0  0  0
  124.8100  129.2840   63.8040 C   0  0  0  0  0  0  0  0  0  0  0  0
  123.9880  129.6090   64.8800 C   0  0  0  0  0  0  0  0  0  0  0  0
  124.3890  129.3060   66.1810 C   0  0  0  0  0  0  0  0  0  0  0  0
  123.4940  129.6710   67.3510 C   0  0  0  0  0  0  0  0  0  0  0  0
  125.6130  128.6810   66.4020 C   0  0  0  0  0  0  0  0  0  0  0  0
  126.4300  128.3580   65.3230 C   0  0  0  0  0  0  0  0  0  0  0  0
  128.1590  127.6480   62.9990 C   0  0  0  0  0  0  0  0  0  0  0  0
  128.9310  127.3080   61.8790 C   0  0  0  0  0  0  0  0  0  0  0  0
  130.2110  126.5770   62.1110 C   0  0  0  0  0  0  0  0  0  0  0  0
  131.0550  126.2770   61.0370 C   0  0  0  0  0  0  0  0  0  0  0  0
  132.2580  125.6090   61.2470 C   0  0  0  0  0  0  0  0  0  0  0  0
  132.6450  125.2340   62.5330 C   0  0  0  0  0  0  0  0  0  0  0  0
  133.8550  124.5780   62.6460 O   0  0  0  0  0  0  0  0  0  0  0  0
  134.2520  123.6720   61.6220 C   0  0  0  0  0  0  0  0  0  0  0  0
  131.8040  125.5370   63.6150 C   0  0  0  0  0  0  0  0  0  0  0  0
  130.6020  126.2050   63.4010 C   0  0  0  0  0  0  0  0  0  0  0  0
  128.4490  127.6690   60.5960 C   0  0  0  0  0  0  0  0  0  0  0  0
  129.2200  127.3700   59.3840 C   0  0  0  0  0  0  0  0  0  0  0  0
  129.8270  127.1320   58.4280 N   0  0  0  0  0  0  0  0  0  0  0  0
  128.3340  124.2290   59.9050 C   0  0  0  0  0  0  0  0  0  0  0  0
  129.0560  123.1360   60.3780 C   0  0  0  0  0  0  0  0  0  0  0  0
  132.5024  122.0475   62.3852 H   0  0  0  0  0  0  0  0  0  0  0  0
  131.9231  120.9619   61.0765 H   0  0  0  0  0  0  0  0  0  0  0  0
  131.4571  122.6967   61.0765 H   0  0  0  0  0  0  0  0  0  0  0  0
  126.8686  122.0172   62.7457 H   0  0  0  0  0  0  0  0  0  0  0  0
  125.5759  123.9671   61.9000 H   0  0  0  0  0  0  0  0  0  0  0  0
  125.9770  126.2430   60.5330 H   0  0  0  0  0  0  0  0  0  0  0  0
  125.5186  127.4655   57.2235 H   0  0  0  0  0  0  0  0  0  0  0  0
  124.6598  127.2602   58.8248 H   0  0  0  0  0  0  0  0  0  0  0  0
  124.4837  129.5228   62.7810 H   0  0  0  0  0  0  0  0  0  0  0  0
  123.0221  130.1049   64.7038 H   0  0  0  0  0  0  0  0  0  0  0  0
  124.0181  129.4573   68.2942 H   0  0  0  0  0  0  0  0  0  0  0  0
  123.2468  130.7418   67.3034 H   0  0  0  0  0  0  0  0  0  0  0  0
  122.5684  129.0785   67.3034 H   0  0  0  0  0  0  0  0  0  0  0  0
  125.9335  128.4431   67.4270 H   0  0  0  0  0  0  0  0  0  0  0  0
  127.3932  127.8594   65.5061 H   0  0  0  0  0  0  0  0  0  0  0  0
  128.5143  127.3847   64.0062 H   0  0  0  0  0  0  0  0  0  0  0  0
  130.7657  126.5715   60.0174 H   0  0  0  0  0  0  0  0  0  0  0  0
  132.9087  125.3750   60.3915 H   0  0  0  0  0  0  0  0  0  0  0  0
  134.6536  122.7555   62.0788 H   0  0  0  0  0  0  0  0  0  0  0  0
  133.3819  123.4198   60.9980 H   0  0  0  0  0  0  0  0  0  0  0  0
  135.0272  124.1407   60.9980 H   0  0  0  0  0  0  0  0  0  0  0  0
  132.0957  125.2457   64.6348 H   0  0  0  0  0  0  0  0  0  0  0  0
  129.9523  126.4430   64.2561 H   0  0  0  0  0  0  0  0  0  0  0  0
  128.7564  124.8613   59.1102 H   0  0  0  0  0  0  0  0  0  0  0  0
  130.0416  122.9067   59.9467 H   0  0  0  0  0  0  0  0  0  0  0  0
  1  2  1  0
  2  3  1  0
  3  4  2  0
  3  5  1  0
  5  6  2  0
  6  7  1  0
  7  8  2  0
  8  9  1  0
  9 10  1  0
 10 11  2  0
 10 12  1  0
 12 13  1  0
 13 14  1  0
 14 15  2  0
 15 16  1  0
 16 17  1  0
 17 18  2  0
 18 19  1  0
 19 20  2  0
 20 21  1  0
 20 22  1  0
 22 23  2  0
 16 24  2  0
 24 25  1  0
 25 26  1  0
 26 27  2  0
 27 28  1  0
 28 29  2  0
 29 30  1  0
 30 31  1  0
 29 32  1  0
 32 33  2  0
 25 34  2  0
 34 35  1  0
 35 36  3  0
  8 37  1  0
 37 38  2  0
 38  5  1  0
 34 14  1  0
 23 17  1  0
 33 26  1  0
  1 39  1  0
  1 40  1  0
  1 41  1  0
  6 42  1  0
  7 43  1  0
  9 44  1  0
 12 45  1  0
 12 46  1  0
 18 47  1  0
 19 48  1  0
 21 49  1  0
 21 50  1  0
 21 51  1  0
 22 52  1  0
 23 53  1  0
 24 54  1  0
 27 55  1  0
 28 56  1  0
 31 57  1  0
 31 58  1  0
 31 59  1  0
 32 60  1  0
 33 61  1  0
 37 62  1  0
 38 63  1  0
M  END
>  <Binding energies>  (1) 
[-8.11]

>  <Ligand effiencies>  (1) 
[-0.20794871794871794]

>  <Interactions>  (1) 
["V-B:ALA:541:CB:9864, V-A:TYR:484:CZ:4347, V-A:LEU:475:CD2:4259, V-B:GLU:543:CD:9880, V-A:GLU:543:CD:4908, V-B:PRO:540:C:9853, V-B:ALA:541:CA:9862, V-B:PRO:540:CA:9855, V-A:ARG:545:CZ:4926, H-A:TYR:484:OH:4348, V-B:ARG:545:CZ:9898, V-B:GLY:453:C:9014, V-B:ILE:455:C:9024, V-B:GLY:454:CA:9021, V-B:GLY:453:CA:9016, V-B:ARG:545:CD:9895, V-B:HIS:456:CE1:9042, V-B:ARG:545:CG:9894, V-B:ARG:545:CB:9893, V-A:ASP:366:CG:3213, V-A:GLY:454:CA:4049, V-A:ILE:369:CD1:3239, V-A:GLY:453:CA:4044, V-A:GLY:453:C:4042, V-B:TYR:484:CE1:9317, V-B:TYR:484:CZ:9319, V-B:ASP:366:CG:8185, H-B:ALA:541:N:9863, V-B:ASP:366:CB:8184, H-A:GLY:454:N:4050, H-B:TYR:531:OH:9767, H-B:ASP:366:OD2:8187, H-A:ARG:545:NH2:4928"]

$$$$
RR7_Rahimova_2017
     RDKit          3D

 80 86  0  0  0  0  0  0  0  0999 V2000
  133.9280  125.1250   65.4210 C   0  0  0  0  0  0  0  0  0  0  0  0
  133.8060  125.4580   64.0410 O   0  0  0  0  0  0  0  0  0  0  0  0
  132.8460  124.8200   63.2780 C   0  0  0  0  0  0  0  0  0  0  0  0
  133.2670  123.7090   62.5500 C   0  0  0  0  0  0  0  0  0  0  0  0
  132.3710  123.0000   61.7570 C   0  0  0  0  0  0  0  0  0  0  0  0
  131.0280  123.3940   61.6640 C   0  0  0  0  0  0  0  0  0  0  0  0
  129.9930  122.5980   60.8090 C   0  0  0  0  0  0  0  0  0  0  0  0
  130.1970  123.0080   59.4380 O   0  0  0  0  0  0  0  0  0  0  0  0
  129.8350  124.3290   59.0230 C   0  0  0  0  0  0  0  0  0  0  0  0
  131.0900  125.0570   58.5160 C   0  0  1  0  0  0  0  0  0  0  0  0
  130.6820  126.3700   58.1400 O   0  0  0  0  0  0  0  0  0  0  0  0
  131.3710  127.3560   58.8530 C   0  0  1  0  0  0  0  0  0  0  0  0
  130.5130  128.5050   59.0720 N   0  0  0  0  0  0  0  0  0  0  0  0
  129.2550  128.7420   58.5470 C   0  0  0  0  0  0  0  0  0  0  0  0
  128.7170  129.8910   58.8740 N   0  0  0  0  0  0  0  0  0  0  0  0
  129.6820  130.4990   59.6310 C   0  0  0  0  0  0  0  0  0  0  0  0
  129.7280  131.7540   60.2690 C   0  0  0  0  0  0  0  0  0  0  0  0
  128.6100  132.6030   60.1710 N   0  0  0  0  0  0  0  0  0  0  0  0
  127.7310  132.9680   61.1340 C   0  0  0  0  0  0  0  0  0  0  0  0
  127.7750  132.5730   62.3010 O   0  0  0  0  0  0  0  0  0  0  0  0
  126.6230  133.9000   60.6900 C   0  0  0  0  0  0  0  0  0  0  0  0
  125.3680  133.3720   60.3470 C   0  0  0  0  0  0  0  0  0  0  0  0
  124.3340  134.2100   59.9410 C   0  0  0  0  0  0  0  0  0  0  0  0
  124.5430  135.5840   59.8800 C   0  0  0  0  0  0  0  0  0  0  0  0
  125.7790  136.1280   60.2200 C   0  0  0  0  0  0  0  0  0  0  0  0
  126.8150  135.2900   60.6250 C   0  0  0  0  0  0  0  0  0  0  0  0
  130.8540  132.1120   60.9570 N   0  0  0  0  0  0  0  0  0  0  0  0
  131.8840  131.2270   60.9910 C   0  0  0  0  0  0  0  0  0  0  0  0
  131.9440  129.9950   60.4180 N   0  0  0  0  0  0  0  0  0  0  0  0
  130.8260  129.6690   59.7570 C   0  0  0  0  0  0  0  0  0  0  0  0
  131.8590  126.6670   60.1220 C   0  0  0  0  0  0  0  0  0  0  0  0
  132.1790  125.2870   59.5730 C   0  0  2  0  0  0  0  0  0  0  0  0
  133.4860  125.2220   59.0270 O   0  0  0  0  0  0  0  0  0  0  0  0
  130.2350  121.0660   60.8640 C   0  0  0  0  0  0  0  0  0  0  0  0
  131.3570  120.5030   60.2340 C   0  0  0  0  0  0  0  0  0  0  0  0
  131.5760  119.1300   60.2650 C   0  0  0  0  0  0  0  0  0  0  0  0
  130.6750  118.3030   60.9280 C   0  0  0  0  0  0  0  0  0  0  0  0
  129.5560  118.8390   61.5590 C   0  0  0  0  0  0  0  0  0  0  0  0
  129.3370  120.2130   61.5260 C   0  0  0  0  0  0  0  0  0  0  0  0
  128.5000  122.7990   61.1930 C   0  0  0  0  0  0  0  0  0  0  0  0
  127.5520  123.1330   60.2120 C   0  0  0  0  0  0  0  0  0  0  0  0
  126.2160  123.3240   60.5480 C   0  0  0  0  0  0  0  0  0  0  0  0
  125.8130  123.1920   61.8740 C   0  0  0  0  0  0  0  0  0  0  0  0
  126.7370  122.8750   62.8640 C   0  0  0  0  0  0  0  0  0  0  0  0
  128.0730  122.6840   62.5270 C   0  0  0  0  0  0  0  0  0  0  0  0
  130.6060  124.5040   62.4110 C   0  0  0  0  0  0  0  0  0  0  0  0
  131.5030  125.2130   63.2050 C   0  0  0  0  0  0  0  0  0  0  0  0
  133.6139  125.9825   66.0343 H   0  0  0  0  0  0  0  0  0  0  0  0
  133.2888  124.2588   65.6471 H   0  0  0  0  0  0  0  0  0  0  0  0
  134.9755  124.8767   65.6471 H   0  0  0  0  0  0  0  0  0  0  0  0
  134.3183  123.3896   62.6030 H   0  0  0  0  0  0  0  0  0  0  0  0
  132.7195  122.1202   61.1963 H   0  0  0  0  0  0  0  0  0  0  0  0
  129.0910  124.2706   58.2149 H   0  0  0  0  0  0  0  0  0  0  0  0
  129.4040  124.8797   59.8721 H   0  0  0  0  0  0  0  0  0  0  0  0
  131.5061  124.4251   57.7175 H   0  0  0  0  0  0  0  0  0  0  0  0
  132.2372  127.7699   58.3160 H   0  0  0  0  0  0  0  0  0  0  0  0
  128.7418  128.0157   57.8996 H   0  0  0  0  0  0  0  0  0  0  0  0
  128.4510  132.9810   59.2480 H   0  0  0  0  0  0  0  0  0  0  0  0
  125.2007  132.2861   60.3997 H   0  0  0  0  0  0  0  0  0  0  0  0
  123.3553  133.7877   59.6694 H   0  0  0  0  0  0  0  0  0  0  0  0
  123.7250  136.2464   59.5605 H   0  0  0  0  0  0  0  0  0  0  0  0
  125.9365  137.2155   60.1689 H   0  0  0  0  0  0  0  0  0  0  0  0
  127.7907  135.7197   60.8959 H   0  0  0  0  0  0  0  0  0  0  0  0
  132.7770  131.5450   61.5491 H   0  0  0  0  0  0  0  0  0  0  0  0
  132.7524  127.1585   60.5346 H   0  0  0  0  0  0  0  0  0  0  0  0
  131.1427  126.6767   60.9568 H   0  0  0  0  0  0  0  0  0  0  0  0
  132.1772  124.5090   60.3506 H   0  0  0  0  0  0  0  0  0  0  0  0
  134.1160  125.4610   59.7110 H   0  0  0  0  0  0  0  0  0  0  0  0
  132.0708  121.1556   59.7100 H   0  0  0  0  0  0  0  0  0  0  0  0
  132.4577  118.6998   59.7675 H   0  0  0  0  0  0  0  0  0  0  0  0
  130.8482  117.2170   60.9538 H   0  0  0  0  0  0  0  0  0  0  0  0
  128.8477  118.1793   62.0816 H   0  0  0  0  0  0  0  0  0  0  0  0
  128.4514  120.6352   62.0235 H   0  0  0  0  0  0  0  0  0  0  0  0
  127.8701  123.2449   59.1650 H   0  0  0  0  0  0  0  0  0  0  0  0
  125.4813  123.5781   59.7698 H   0  0  0  0  0  0  0  0  0  0  0  0
  124.7561  123.3395   62.1407 H   0  0  0  0  0  0  0  0  0  0  0  0
  126.4123  122.7756   63.9103 H   0  0  0  0  0  0  0  0  0  0  0  0
  128.8030  122.4404   63.3130 H   0  0  0  0  0  0  0  0  0  0  0  0
  129.5527  124.8181   62.3687 H   0  0  0  0  0  0  0  0  0  0  0  0
  131.1560  126.0857   63.7777 H   0  0  0  0  0  0  0  0  0  0  0  0
  1  2  1  0
  2  3  1  0
  3  4  2  0
  4  5  1  0
  5  6  2  0
  6  7  1  0
  7  8  1  0
  8  9  1  0
  9 10  1  0
 10 11  1  0
 11 12  1  0
 12 13  1  0
 13 14  1  0
 14 15  2  0
 15 16  1  0
 16 17  2  0
 17 18  1  0
 18 19  1  0
 19 20  2  0
 19 21  1  0
 21 22  2  0
 22 23  1  0
 23 24  2  0
 24 25  1  0
 25 26  2  0
 17 27  1  0
 27 28  2  0
 28 29  1  0
 29 30  2  0
 12 31  1  0
 31 32  1  0
 32 33  1  0
  7 34  1  0
 34 35  2  0
 35 36  1  0
 36 37  2  0
 37 38  1  0
 38 39  2  0
  7 40  1  0
 40 41  2  0
 41 42  1  0
 42 43  2  0
 43 44  1  0
 44 45  2  0
  6 46  1  0
 46 47  2  0
 47  3  1  0
 32 10  1  0
 39 34  1  0
 45 40  1  0
 30 13  1  0
 30 16  1  0
 26 21  1  0
  1 48  1  0
  1 49  1  0
  1 50  1  0
  4 51  1  0
  5 52  1  0
  9 53  1  0
  9 54  1  0
 10 55  1  6
 12 56  1  6
 14 57  1  0
 18 58  1  0
 22 59  1  0
 23 60  1  0
 24 61  1  0
 25 62  1  0
 26 63  1  0
 28 64  1  0
 31 65  1  0
 31 66  1  0
 32 67  1  1
 33 68  1  0
 35 69  1  0
 36 70  1  0
 37 71  1  0
 38 72  1  0
 39 73  1  0
 41 74  1  0
 42 75  1  0
 43 76  1  0
 44 77  1  0
 45 78  1  0
 46 79  1  0
 47 80  1  0
M  END
>  <Binding energies>  (1) 
[-8.92]

>  <Ligand effiencies>  (1) 
[-0.1820408163265306]

>  <Interactions>  (1) 
["V-B:ALA:541:CB:9864, V-B:TYR:539:CD2:9846, V-B:GLU:543:CG:9879, V-A:TYR:484:CZ:4347, V-A:PRO:482:CG:4327, V-A:PRO:482:CB:4326, V-B:TYR:539:C:9839, V-A:LEU:475:CD1:4258, V-A:LEU:475:CD2:4259, V-B:GLU:543:CD:9880, V-A:SER:385:CB:3409, V-B:TYR:539:CE2:9848, V-B:PRO:540:C:9853, V-B:ALA:541:CA:9862, V-B:PRO:540:CA:9855, V-A:ARG:545:CZ:4926, H-A:TYR:484:OH:4348, V-A:TYR:539:CE1:4875, V-A:PRO:540:CA:4883, V-A:ALA:541:CB:4892, V-B:SER:385:CA:8379, V-A:TYR:539:CD1:4873, V-B:SER:385:CB:8381, V-B:ILE:369:CG2:8209, V-B:LEU:475:CD2:9231, H-A:ALA:541:N:4891, V-A:PRO:540:CB:4885, H-A:ASP:366:OD1:3214, V-A:ASP:366:CG:3213, V-A:LEU:475:CG:4257, V-A:GLY:454:CA:4049, V-A:GLY:453:CA:4044, V-A:GLY:453:C:4042, H-A:ASP:366:OD2:3215, V-A:ASP:366:CB:3212, V-A:ARG:545:CG:4922, H-A:GLY:454:N:4050, V-A:ARG:545:CD:4923, H-A:ARG:545:NE:4924, V-A:TYR:484:CE2:4346, V-B:PRO:540:CB:9857, H-A:ARG:545:NH1:4927, H-A:ARG:545:NH2:4928, H-A:TYR:539:O:4868"]

$$$$
RR8_A_Rahimova_2017
     RDKit          3D

 73 77  0  0  0  0  0  0  0  0999 V2000
  128.2390  127.8540   60.0230 O   0  0  0  0  0  0  0  0  0  0  0  0
  128.3100  127.3510   61.1490 C   0  0  0  0  0  0  0  0  0  0  0  0
  127.2600  127.2650   62.0250 O   0  0  0  0  0  0  0  0  0  0  0  0
  127.0590  128.3380   62.9020 C   0  0  1  0  0  0  0  0  0  0  0  0
  127.6350  128.0970   64.1530 O   0  0  0  0  0  0  0  0  0  0  0  0
  128.2200  129.2740   64.7040 C   0  0  2  0  0  0  0  0  0  0  0  0
  127.6050  129.5240   66.0920 C   0  0  0  0  0  0  0  0  0  0  0  0
  127.7030  128.3300   66.8570 O   0  0  0  0  0  0  0  0  0  0  0  0
  129.0320  127.9860   67.2240 C   0  0  0  0  0  0  0  0  0  0  0  0
  129.1050  127.7330   68.7220 C   0  0  0  0  0  0  0  0  0  0  0  0
  128.2130  126.8420   69.3230 C   0  0  0  0  0  0  0  0  0  0  0  0
  128.2820  126.6040   70.6940 C   0  0  0  0  0  0  0  0  0  0  0  0
  129.2460  127.2560   71.4600 C   0  0  0  0  0  0  0  0  0  0  0  0
  130.1440  128.1420   70.8680 C   0  0  0  0  0  0  0  0  0  0  0  0
  130.0760  128.3790   69.4970 C   0  0  0  0  0  0  0  0  0  0  0  0
  127.9300  130.3520   63.6500 C   0  0  1  0  0  0  0  0  0  0  0  0
  129.0100  131.2660   63.4720 O   0  0  0  0  0  0  0  0  0  0  0  0
  128.9090  132.1290   62.3450 C   0  0  0  0  0  0  0  0  0  0  0  0
  129.9690  131.7640   61.3150 C   0  0  0  0  0  0  0  0  0  0  0  0
  131.2820  131.5170   61.7290 C   0  0  0  0  0  0  0  0  0  0  0  0
  132.2580  131.1920   60.7920 C   0  0  0  0  0  0  0  0  0  0  0  0
  131.9210  131.1180   59.4410 C   0  0  0  0  0  0  0  0  0  0  0  0
  130.6180  131.3700   59.0200 C   0  0  0  0  0  0  0  0  0  0  0  0
  129.6410  131.6960   59.9570 C   0  0  0  0  0  0  0  0  0  0  0  0
  127.7960  129.5570   62.3640 C   0  0  2  0  0  0  0  0  0  0  0  0
  127.0540  130.2930   61.3940 O   0  0  0  0  0  0  0  0  0  0  0  0
  125.6960  130.5560   61.7270 C   0  0  0  0  0  0  0  0  0  0  0  0
  125.3340  131.9810   61.3360 C   0  0  0  0  0  0  0  0  0  0  0  0
  124.0830  132.5070   61.6740 C   0  0  0  0  0  0  0  0  0  0  0  0
  123.7590  133.8150   61.3220 C   0  0  0  0  0  0  0  0  0  0  0  0
  124.6880  134.5950   60.6370 C   0  0  0  0  0  0  0  0  0  0  0  0
  125.9380  134.0800   60.3010 C   0  0  0  0  0  0  0  0  0  0  0  0
  126.2620  132.7720   60.6520 C   0  0  0  0  0  0  0  0  0  0  0  0
  129.5720  126.7530   61.6990 C   0  0  0  0  0  0  0  0  0  0  0  0
  129.6270  126.1840   62.9810 C   0  0  0  0  0  0  0  0  0  0  0  0
  130.8140  125.6380   63.4630 C   0  0  0  0  0  0  0  0  0  0  0  0
  131.9750  125.6490   62.6790 C   0  0  0  0  0  0  0  0  0  0  0  0
  133.2380  125.0660   63.1930 N   0  0  0  0  0  0  0  0  0  0  0  0
  133.5000  125.1880   64.3860 O   0  0  0  0  0  0  0  0  0  0  0  0
  133.9780  124.4800   62.4070 O   0  0  0  0  0  0  0  0  0  0  0  0
  131.9200  126.2190   61.4010 C   0  0  0  0  0  0  0  0  0  0  0  0
  130.7350  126.7650   60.9170 C   0  0  0  0  0  0  0  0  0  0  0  0
  125.9721  128.4824   62.9907 H   0  0  0  0  0  0  0  0  0  0  0  0
  129.3034  129.2319   64.8895 H   0  0  0  0  0  0  0  0  0  0  0  0
  128.1512  130.3336   66.5982 H   0  0  0  0  0  0  0  0  0  0  0  0
  126.5495  129.8154   65.9867 H   0  0  0  0  0  0  0  0  0  0  0  0
  129.3356  127.0764   66.6850 H   0  0  0  0  0  0  0  0  0  0  0  0
  129.7064  128.8148   66.9629 H   0  0  0  0  0  0  0  0  0  0  0  0
  127.4554  126.3278   68.7134 H   0  0  0  0  0  0  0  0  0  0  0  0
  127.5786  125.9046   71.1695 H   0  0  0  0  0  0  0  0  0  0  0  0
  129.2988  127.0695   72.5428 H   0  0  0  0  0  0  0  0  0  0  0  0
  130.9026  128.6516   71.4802 H   0  0  0  0  0  0  0  0  0  0  0  0
  130.7851  129.0737   69.0231 H   0  0  0  0  0  0  0  0  0  0  0  0
  127.0537  130.9495   63.9417 H   0  0  0  0  0  0  0  0  0  0  0  0
  127.9112  132.0244   61.8940 H   0  0  0  0  0  0  0  0  0  0  0  0
  129.0635  133.1684   62.6703 H   0  0  0  0  0  0  0  0  0  0  0  0
  131.5431  131.5797   62.7957 H   0  0  0  0  0  0  0  0  0  0  0  0
  133.2906  130.9944   61.1156 H   0  0  0  0  0  0  0  0  0  0  0  0
  132.6920  130.8580   58.7007 H   0  0  0  0  0  0  0  0  0  0  0  0
  130.3615  131.3118   57.9519 H   0  0  0  0  0  0  0  0  0  0  0  0
  128.6110  131.9001   59.6292 H   0  0  0  0  0  0  0  0  0  0  0  0
  128.7287  129.3133   61.8343 H   0  0  0  0  0  0  0  0  0  0  0  0
  125.0451  129.8529   61.1866 H   0  0  0  0  0  0  0  0  0  0  0  0
  125.5582  130.4317   62.8112 H   0  0  0  0  0  0  0  0  0  0  0  0
  123.3548  131.8875   62.2180 H   0  0  0  0  0  0  0  0  0  0  0  0
  122.7745  134.2301   61.5836 H   0  0  0  0  0  0  0  0  0  0  0  0
  124.4320  135.6279   60.3586 H   0  0  0  0  0  0  0  0  0  0  0  0
  126.6656  134.7036   59.7610 H   0  0  0  0  0  0  0  0  0  0  0  0
  127.2484  132.3610   60.3910 H   0  0  0  0  0  0  0  0  0  0  0  0
  128.7249  126.1692   63.6103 H   0  0  0  0  0  0  0  0  0  0  0  0
  130.8402  125.1938   64.4690 H   0  0  0  0  0  0  0  0  0  0  0  0
  132.8230  126.2353   60.7731 H   0  0  0  0  0  0  0  0  0  0  0  0
  130.7109  127.2101   59.9114 H   0  0  0  0  0  0  0  0  0  0  0  0
  1  2  2  0
  2  3  1  0
  3  4  1  0
  4  5  1  0
  5  6  1  0
  6  7  1  0
  7  8  1  0
  8  9  1  0
  9 10  1  0
 10 11  2  0
 11 12  1  0
 12 13  2  0
 13 14  1  0
 14 15  2  0
  6 16  1  0
 16 17  1  0
 17 18  1  0
 18 19  1  0
 19 20  2  0
 20 21  1  0
 21 22  2  0
 22 23  1  0
 23 24  2  0
 16 25  1  0
 25 26  1  0
 26 27  1  0
 27 28  1  0
 28 29  2  0
 29 30  1  0
 30 31  2  0
 31 32  1  0
 32 33  2  0
  2 34  1  0
 34 35  2  0
 35 36  1  0
 36 37  2  0
 37 38  1  0
 38 39  2  0
 38 40  1  0
 37 41  1  0
 41 42  2  0
 25  4  1  0
 33 28  1  0
 42 34  1  0
 15 10  1  0
 24 19  1  0
  4 43  1  1
  6 44  1  1
  7 45  1  0
  7 46  1  0
  9 47  1  0
  9 48  1  0
 11 49  1  0
 12 50  1  0
 13 51  1  0
 14 52  1  0
 15 53  1  0
 16 54  1  1
 18 55  1  0
 18 56  1  0
 20 57  1  0
 21 58  1  0
 22 59  1  0
 23 60  1  0
 24 61  1  0
 25 62  1  6
 27 63  1  0
 27 64  1  0
 29 65  1  0
 30 66  1  0
 31 67  1  0
 32 68  1  0
 33 69  1  0
 35 70  1  0
 36 71  1  0
 41 72  1  0
 42 73  1  0
M  CHG  2  38   1  40  -1
M  END
>  <Binding energies>  (1) 
[-8.56]

>  <Ligand effiencies>  (1) 
[-0.20380952380952383]

>  <Interactions>  (1) 
["V-B:GLU:543:CD:9880, V-A:GLU:543:CD:4908, V-A:ARG:545:CZ:4926, H-A:TYR:484:OH:4348, V-B:SER:385:C:8377, V-B:ILE:369:CD1:8211, V-A:TYR:539:CE1:4875, V-A:PRO:540:CA:4883, V-A:ALA:541:CB:4892, V-B:SER:385:CA:8379, V-A:TYR:539:CD1:4873, V-A:GLU:543:CG:4907, V-B:ILE:369:CG2:8209, V-B:LEU:475:CD2:9231, V-A:ALA:541:CA:4890, V-B:HIS:456:CE1:9042, V-A:PRO:540:CB:4885, V-B:HIS:456:CD2:9040, V-A:HIS:456:CD2:4068, V-A:GLY:544:C:4912, V-A:ASP:366:CG:3213, V-B:GLU:543:CB:9878, V-B:TYR:484:CZ:9319, H-B:ARG:545:NH2:9900, H-A:GLY:454:N:4050, H-A:ARG:545:NE:4924, V-A:HIS:456:CE1:4070, V-A:GLU:543:CB:4906, V-B:TYR:484:CE2:9318, H-A:ARG:545:NH2:4928, V-A:GLU:543:C:4902"]

$$$$
RR8_B_Rahimova_2017
     RDKit          3D

 73 77  0  0  0  0  0  0  0  0999 V2000
  130.1190  125.2200   60.6710 O   0  0  0  0  0  0  0  0  0  0  0  0
  130.2290  125.9280   61.6770 C   0  0  0  0  0  0  0  0  0  0  0  0
  129.4900  127.0530   61.9140 O   0  0  0  0  0  0  0  0  0  0  0  0
  128.2010  126.8990   62.4570 C   0  0  2  0  0  0  0  0  0  0  0  0
  127.5300  125.8030   61.9030 O   0  0  0  0  0  0  0  0  0  0  0  0
  126.7560  126.1850   60.7660 C   0  0  2  0  0  0  0  0  0  0  0  0
  127.2120  125.3760   59.5390 C   0  0  0  0  0  0  0  0  0  0  0  0
  126.4160  124.2030   59.4310 O   0  0  0  0  0  0  0  0  0  0  0  0
  126.1850  123.5210   60.6550 C   0  0  0  0  0  0  0  0  0  0  0  0
  127.4830  122.8780   61.1220 C   0  0  0  0  0  0  0  0  0  0  0  0
  128.3930  122.3890   60.1810 C   0  0  0  0  0  0  0  0  0  0  0  0
  129.5710  121.7780   60.6020 C   0  0  0  0  0  0  0  0  0  0  0  0
  129.8360  121.6590   61.9650 C   0  0  0  0  0  0  0  0  0  0  0  0
  128.9360  122.1500   62.9090 C   0  0  0  0  0  0  0  0  0  0  0  0
  127.7570  122.7590   62.4880 C   0  0  0  0  0  0  0  0  0  0  0  0
  126.9530  127.7030   60.6660 C   0  0  1  0  0  0  0  0  0  0  0  0
  125.7450  128.3200   60.2120 O   0  0  0  0  0  0  0  0  0  0  0  0
  125.8490  129.6490   59.6940 C   0  0  0  0  0  0  0  0  0  0  0  0
  125.1910  130.6780   60.6070 C   0  0  0  0  0  0  0  0  0  0  0  0
  123.9590  130.3990   61.2050 C   0  0  0  0  0  0  0  0  0  0  0  0
  123.3770  131.3270   62.0640 C   0  0  0  0  0  0  0  0  0  0  0  0
  124.0260  132.5340   62.3180 C   0  0  0  0  0  0  0  0  0  0  0  0
  125.2520  132.8210   61.7220 C   0  0  0  0  0  0  0  0  0  0  0  0
  125.8370  131.8900   60.8660 C   0  0  0  0  0  0  0  0  0  0  0  0
  127.3430  128.1070   62.0830 C   0  0  2  0  0  0  0  0  0  0  0  0
  128.0590  129.3390   62.0690 O   0  0  0  0  0  0  0  0  0  0  0  0
  128.2360  129.9610   63.3330 C   0  0  0  0  0  0  0  0  0  0  0  0
  127.0760  129.5570   64.2270 C   0  0  0  0  0  0  0  0  0  0  0  0
  125.7660  129.9010   63.8830 C   0  0  0  0  0  0  0  0  0  0  0  0
  124.7130  129.5420   64.7210 C   0  0  0  0  0  0  0  0  0  0  0  0
  124.9730  128.8430   65.8980 C   0  0  0  0  0  0  0  0  0  0  0  0
  126.2770  128.4960   66.2460 C   0  0  0  0  0  0  0  0  0  0  0  0
  127.3300  128.8540   65.4090 C   0  0  0  0  0  0  0  0  0  0  0  0
  131.2290  125.6590   62.7650 C   0  0  0  0  0  0  0  0  0  0  0  0
  130.8920  125.7690   64.1220 C   0  0  0  0  0  0  0  0  0  0  0  0
  131.8400  125.5220   65.1080 C   0  0  0  0  0  0  0  0  0  0  0  0
  133.1510  125.1700   64.7650 C   0  0  0  0  0  0  0  0  0  0  0  0
  134.1690  124.9330   65.8180 N   0  0  0  0  0  0  0  0  0  0  0  0
  135.3510  125.1290   65.5500 O   0  0  0  0  0  0  0  0  0  0  0  0
  133.7930  124.5530   66.9250 O   0  0  0  0  0  0  0  0  0  0  0  0
  133.4860  125.0540   63.4090 C   0  0  0  0  0  0  0  0  0  0  0  0
  132.5360  125.2930   62.4220 C   0  0  0  0  0  0  0  0  0  0  0  0
  128.3330  126.7756   63.5421 H   0  0  0  0  0  0  0  0  0  0  0  0
  125.6804  125.9667   60.8395 H   0  0  0  0  0  0  0  0  0  0  0  0
  127.0936  125.9860   58.6313 H   0  0  0  0  0  0  0  0  0  0  0  0
  128.2697  125.0960   59.6529 H   0  0  0  0  0  0  0  0  0  0  0  0
  125.8346  124.2358   61.4141 H   0  0  0  0  0  0  0  0  0  0  0  0
  125.4202  122.7444   60.5069 H   0  0  0  0  0  0  0  0  0  0  0  0
  128.1784  122.4869   59.1066 H   0  0  0  0  0  0  0  0  0  0  0  0
  130.2884  121.3914   59.8631 H   0  0  0  0  0  0  0  0  0  0  0  0
  130.7645  121.1728   62.2990 H   0  0  0  0  0  0  0  0  0  0  0  0
  129.1563  122.0567   63.9827 H   0  0  0  0  0  0  0  0  0  0  0  0
  127.0420  123.1460   63.2289 H   0  0  0  0  0  0  0  0  0  0  0  0
  127.7195  128.0164   59.9419 H   0  0  0  0  0  0  0  0  0  0  0  0
  126.9134  129.9034   59.5832 H   0  0  0  0  0  0  0  0  0  0  0  0
  125.3274  129.6751   58.7259 H   0  0  0  0  0  0  0  0  0  0  0  0
  123.4495  129.4466   60.9970 H   0  0  0  0  0  0  0  0  0  0  0  0
  122.4096  131.1088   62.5400 H   0  0  0  0  0  0  0  0  0  0  0  0
  123.5654  133.2675   62.9961 H   0  0  0  0  0  0  0  0  0  0  0  0
  125.7556  133.7774   61.9260 H   0  0  0  0  0  0  0  0  0  0  0  0
  126.8064  132.1088   60.3945 H   0  0  0  0  0  0  0  0  0  0  0  0
  126.5220  128.3011   62.7889 H   0  0  0  0  0  0  0  0  0  0  0  0
  129.1845  129.6302   63.7813 H   0  0  0  0  0  0  0  0  0  0  0  0
  128.2643  131.0546   63.2179 H   0  0  0  0  0  0  0  0  0  0  0  0
  125.5670  130.4537   62.9530 H   0  0  0  0  0  0  0  0  0  0  0  0
  123.6798  129.8093   64.4546 H   0  0  0  0  0  0  0  0  0  0  0  0
  124.1402  128.5621   66.5594 H   0  0  0  0  0  0  0  0  0  0  0  0
  126.4730  127.9427   67.1763 H   0  0  0  0  0  0  0  0  0  0  0  0
  128.3620  128.5839   65.6773 H   0  0  0  0  0  0  0  0  0  0  0  0
  129.8687  126.0532   64.4084 H   0  0  0  0  0  0  0  0  0  0  0  0
  131.5575  125.6039   66.1680 H   0  0  0  0  0  0  0  0  0  0  0  0
  134.5098  124.7713   63.1229 H   0  0  0  0  0  0  0  0  0  0  0  0
  132.8140  125.1936   61.3624 H   0  0  0  0  0  0  0  0  0  0  0  0
  1  2  2  0
  2  3  1  0
  3  4  1  0
  4  5  1  0
  5  6  1  0
  6  7  1  0
  7  8  1  0
  8  9  1  0
  9 10  1  0
 10 11  2  0
 11 12  1  0
 12 13  2  0
 13 14  1  0
 14 15  2  0
  6 16  1  0
 16 17  1  0
 17 18  1  0
 18 19  1  0
 19 20  2  0
 20 21  1  0
 21 22  2  0
 22 23  1  0
 23 24  2  0
 16 25  1  0
 25 26  1  0
 26 27  1  0
 27 28  1  0
 28 29  2  0
 29 30  1  0
 30 31  2  0
 31 32  1  0
 32 33  2  0
  2 34  1  0
 34 35  2  0
 35 36  1  0
 36 37  2  0
 37 38  1  0
 38 39  2  0
 38 40  1  0
 37 41  1  0
 41 42  2  0
 25  4  1  0
 33 28  1  0
 42 34  1  0
 15 10  1  0
 24 19  1  0
  4 43  1  1
  6 44  1  1
  7 45  1  0
  7 46  1  0
  9 47  1  0
  9 48  1  0
 11 49  1  0
 12 50  1  0
 13 51  1  0
 14 52  1  0
 15 53  1  0
 16 54  1  6
 18 55  1  0
 18 56  1  0
 20 57  1  0
 21 58  1  0
 22 59  1  0
 23 60  1  0
 24 61  1  0
 25 62  1  1
 27 63  1  0
 27 64  1  0
 29 65  1  0
 30 66  1  0
 31 67  1  0
 32 68  1  0
 33 69  1  0
 35 70  1  0
 36 71  1  0
 41 72  1  0
 42 73  1  0
M  CHG  2  38   1  40  -1
M  END
>  <Binding energies>  (1) 
[-8.35]

>  <Ligand effiencies>  (1) 
[-0.1988095238095238]

>  <Interactions>  (1) 
["V-B:ALA:541:CB:9864, V-B:TYR:539:CD2:9846, V-B:GLU:543:CG:9879, V-A:TYR:484:CZ:4347, V-A:TYR:484:CE1:4345, V-B:TYR:539:C:9839, V-A:LEU:475:CD2:4259, V-B:GLU:543:CD:9880, V-B:TYR:539:CE2:9848, V-A:GLU:543:CD:4908, V-B:PRO:540:C:9853, V-B:PRO:540:CA:9855, V-A:ARG:545:CZ:4926, H-A:TYR:484:OH:4348, V-B:ILE:369:CD1:8211, V-A:GLU:543:CG:4907, V-B:ARG:545:CZ:9898, V-B:LEU:475:CD2:9231, V-B:GLY:453:C:9014, V-B:GLY:454:CA:9021, V-B:ARG:545:CD:9895, V-B:HIS:456:CE1:9042, V-B:ARG:545:CG:9894, V-A:GLY:454:CA:4049, V-A:GLY:453:CA:4044, V-A:GLY:453:C:4042, V-B:ASP:366:CG:8185, V-A:ARG:545:CG:4922, H-A:GLY:454:N:4050, V-A:ARG:545:CD:4923, H-A:ARG:545:NE:4924, V-A:ILE:455:C:4052, V-A:TYR:484:CE2:4346, V-B:PRO:540:CB:9857, H-A:ARG:545:NH1:4927, V-B:PRO:540:N:9856, H-A:HIS:456:ND1:4067, H-A:ILE:455:N:4055, V-A:GLY:454:C:4047, H-A:GLY:453:N:4045"]

$$$$
RR9_Rahimova_2017
     RDKit          3D

 64 68  0  0  0  0  0  0  0  0999 V2000
  129.2710  127.7930   72.8410 C   0  0  0  0  0  0  0  0  0  0  0  0
  130.2580  128.3230   71.7960 C   0  0  0  0  0  0  0  0  0  0  0  0
  130.2900  127.4170   70.6960 O   0  0  0  0  0  0  0  0  0  0  0  0
  129.5030  127.6680   69.5890 C   0  0  0  0  0  0  0  0  0  0  0  0
  129.7430  128.8620   68.9100 C   0  0  0  0  0  0  0  0  0  0  0  0
  128.9980  129.2000   67.7850 C   0  0  0  0  0  0  0  0  0  0  0  0
  127.9890  128.3520   67.3050 C   0  0  0  0  0  0  0  0  0  0  0  0
  127.1800  128.7130   66.0950 C   0  0  0  0  0  0  0  0  0  0  0  0
  127.7830  128.9440   64.8490 C   0  0  0  0  0  0  0  0  0  0  0  0
  127.0180  129.2700   63.7140 C   0  0  0  0  0  0  0  0  0  0  0  0
  127.7120  129.4060   62.3860 C   0  0  0  0  0  0  0  0  0  0  0  0
  127.9790  128.4070   61.7180 O   0  0  0  0  0  0  0  0  0  0  0  0
  128.0270  130.6630   62.0150 N   0  0  0  0  0  0  0  0  0  0  0  0
  128.8140  131.0400   60.8370 C   0  0  0  0  0  0  0  0  0  0  0  0
  129.8520  129.9660   60.4340 C   0  0  0  0  0  0  0  0  0  0  0  0
  131.2640  130.4970   60.2130 C   0  0  0  0  0  0  0  0  0  0  0  0
  131.8150  130.5130   58.9280 C   0  0  0  0  0  0  0  0  0  0  0  0
  133.0920  131.0300   58.7250 C   0  0  0  0  0  0  0  0  0  0  0  0
  133.8160  131.5240   59.8080 C   0  0  0  0  0  0  0  0  0  0  0  0
  133.2750  131.5070   61.0920 C   0  0  0  0  0  0  0  0  0  0  0  0
  131.9970  130.9910   61.2960 C   0  0  0  0  0  0  0  0  0  0  0  0
  125.6200  129.3840   63.9120 C   0  0  0  0  0  0  0  0  0  0  0  0
  124.4380  129.7130   63.1500 C   0  0  0  0  0  0  0  0  0  0  0  0
  124.3180  130.1670   61.7330 C   0  0  0  0  0  0  0  0  0  0  0  0
  123.5350  131.2800   61.4150 C   0  0  0  0  0  0  0  0  0  0  0  0
  123.4120  131.6930   60.0900 C   0  0  0  0  0  0  0  0  0  0  0  0
  124.0760  130.9960   59.0790 C   0  0  0  0  0  0  0  0  0  0  0  0
  123.9270  131.4340   57.6330 C   0  0  0  0  0  0  0  0  0  0  0  0
  124.8570  129.8830   59.3930 C   0  0  0  0  0  0  0  0  0  0  0  0
  124.9810  129.4740   60.7170 C   0  0  0  0  0  0  0  0  0  0  0  0
  123.3610  129.5890   63.8940 N   0  0  0  0  0  0  0  0  0  0  0  0
  123.7510  129.2510   65.1330 N   0  0  0  0  0  0  0  0  0  0  0  0
  125.1180  129.1230   65.2090 C   0  0  0  0  0  0  0  0  0  0  0  0
  125.8340  128.8030   66.2860 N   0  0  0  0  0  0  0  0  0  0  0  0
  127.7520  127.1540   67.9940 C   0  0  0  0  0  0  0  0  0  0  0  0
  128.4980  126.8120   69.1200 C   0  0  0  0  0  0  0  0  0  0  0  0
  129.6580  128.0008   73.8495 H   0  0  0  0  0  0  0  0  0  0  0  0
  128.2983  128.2901   72.7119 H   0  0  0  0  0  0  0  0  0  0  0  0
  129.1481  126.7075   72.7119 H   0  0  0  0  0  0  0  0  0  0  0  0
  129.9326  129.3149   71.4491 H   0  0  0  0  0  0  0  0  0  0  0  0
  131.2612  128.4103   72.2387 H   0  0  0  0  0  0  0  0  0  0  0  0
  130.5292  129.5433   69.2675 H   0  0  0  0  0  0  0  0  0  0  0  0
  129.2032  130.1467   67.2638 H   0  0  0  0  0  0  0  0  0  0  0  0
  128.8766  128.8686   64.7578 H   0  0  0  0  0  0  0  0  0  0  0  0
  127.6910  131.4250   62.5860 H   0  0  0  0  0  0  0  0  0  0  0  0
  128.1271  131.1978   59.9925 H   0  0  0  0  0  0  0  0  0  0  0  0
  129.3692  131.9549   61.0915 H   0  0  0  0  0  0  0  0  0  0  0  0
  129.8910  129.2103   61.2324 H   0  0  0  0  0  0  0  0  0  0  0  0
  129.5185  129.5580   59.4684 H   0  0  0  0  0  0  0  0  0  0  0  0
  131.2400  130.1174   58.0778 H   0  0  0  0  0  0  0  0  0  0  0  0
  133.5269  131.0483   57.7148 H   0  0  0  0  0  0  0  0  0  0  0  0
  134.8250  131.9316   59.6478 H   0  0  0  0  0  0  0  0  0  0  0  0
  133.8544  131.8992   61.9408 H   0  0  0  0  0  0  0  0  0  0  0  0
  131.5655  130.9724   62.3076 H   0  0  0  0  0  0  0  0  0  0  0  0
  123.0148  131.8311   62.2123 H   0  0  0  0  0  0  0  0  0  0  0  0
  122.7925  132.5671   59.8409 H   0  0  0  0  0  0  0  0  0  0  0  0
  123.5729  132.4749   57.5998 H   0  0  0  0  0  0  0  0  0  0  0  0
  124.9004  131.3615   57.1258 H   0  0  0  0  0  0  0  0  0  0  0  0
  123.1998  130.7830   57.1258 H   0  0  0  0  0  0  0  0  0  0  0  0
  125.3738  129.3299   58.5949 H   0  0  0  0  0  0  0  0  0  0  0  0
  125.6035  128.6016   60.9649 H   0  0  0  0  0  0  0  0  0  0  0  0
  123.0710  129.1190   65.8680 H   0  0  0  0  0  0  0  0  0  0  0  0
  126.9642  126.4730   67.6397 H   0  0  0  0  0  0  0  0  0  0  0  0
  128.2969  125.8655   69.6431 H   0  0  0  0  0  0  0  0  0  0  0  0
  1  2  1  0
  2  3  1  0
  3  4  1  0
  4  5  2  0
  5  6  1  0
  6  7  2  0
  7  8  1  0
  8  9  2  0
  9 10  1  0
 10 11  1  0
 11 12  2  0
 11 13  1  0
 13 14  1  0
 14 15  1  0
 15 16  1  0
 16 17  2  0
 17 18  1  0
 18 19  2  0
 19 20  1  0
 20 21  2  0
 10 22  2  0
 22 23  1  0
 23 24  1  0
 24 25  2  0
 25 26  1  0
 26 27  2  0
 27 28  1  0
 27 29  1  0
 29 30  2  0
 23 31  2  0
 31 32  1  0
 32 33  1  0
 33 34  2  0
  7 35  1  0
 35 36  2  0
 36  4  1  0
 34  8  1  0
 21 16  1  0
 33 22  1  0
 30 24  1  0
  1 37  1  0
  1 38  1  0
  1 39  1  0
  2 40  1  0
  2 41  1  0
  5 42  1  0
  6 43  1  0
  9 44  1  0
 13 45  1  0
 14 46  1  0
 14 47  1  0
 15 48  1  0
 15 49  1  0
 17 50  1  0
 18 51  1  0
 19 52  1  0
 20 53  1  0
 21 54  1  0
 25 55  1  0
 26 56  1  0
 28 57  1  0
 28 58  1  0
 28 59  1  0
 29 60  1  0
 30 61  1  0
 32 62  1  0
 35 63  1  0
 36 64  1  0
M  END
>  <Binding energies>  (1) 
[-7.91]

>  <Ligand effiencies>  (1) 
[-0.2081578947368421]

>  <Interactions>  (1) 
["V-B:GLU:543:CD:9880, V-A:GLU:543:CD:4908, V-B:ILE:369:CD1:8211, V-A:TYR:539:CE1:4875, V-A:PRO:540:CA:4883, V-A:GLU:543:CG:4907, V-B:ILE:369:CG2:8209, V-B:ARG:545:CZ:9898, H-B:GLY:454:N:9022, H-B:ARG:545:NE:9896, V-B:GLY:453:C:9014, H-B:TYR:484:OH:9320, V-A:ASN:362:CB:3176, V-B:GLY:453:CA:9016, V-B:ARG:545:CD:9895, H-B:ARG:545:NH1:9899, V-B:HIS:456:CE1:9042, V-A:PRO:540:CB:4885, V-B:HIS:456:CD2:9040, V-A:HIS:456:CD2:4068, V-A:GLY:544:C:4912, V-A:ASP:366:CG:3213, V-B:GLU:543:CB:9878, V-B:ASP:366:CG:8185, H-B:ARG:545:NH2:9900, V-B:ILE:369:CG1:8210, V-B:ILE:369:CB:8208, V-A:ASP:366:CB:3212, V-B:ASP:366:CA:8182, V-B:ASP:366:CB:8184, V-A:HIS:456:CE1:4070, V-A:ASN:362:C:3172, V-A:GLU:543:CB:4906, V-A:TYR:539:CZ:4877, V-A:GLU:543:CA:4904, V-A:LEU:363:CA:3185, V-A:GLU:543:C:4902, V-A:GLY:544:CA:4914, H-A:HIS:456:ND1:4067"]

$$$$
