1a_Ghoteimi_2023
     RDKit          3D

 40 43  0  0  0  0  0  0  0  0999 V2000
  132.0200  131.5840   56.9090 C   0  0  0  0  0  0  0  0  0  0  0  0
  131.4410  132.2170   55.6400 C   0  0  0  0  0  0  0  0  0  0  0  0
  130.0230  132.2640   55.7410 O   0  0  0  0  0  0  0  0  0  0  0  0
  129.2330  131.7970   54.7410 C   0  0  0  0  0  0  0  0  0  0  0  0
  128.8840  132.4810   53.7740 O   0  0  0  0  0  0  0  0  0  0  0  0
  128.8280  130.3630   54.9260 C   0  0  0  0  0  0  0  0  0  0  0  0
  129.7540  129.3710   55.2810 C   0  0  0  0  0  0  0  0  0  0  0  0
  129.3500  128.0480   55.4430 C   0  0  0  0  0  0  0  0  0  0  0  0
  128.0050  127.6940   55.2550 C   0  0  0  0  0  0  0  0  0  0  0  0
  127.4880  126.3910   55.3870 N   0  0  0  0  0  0  0  0  0  0  0  0
  128.1100  125.2460   55.7450 C   0  0  0  0  0  0  0  0  0  0  0  0
  129.2980  125.1400   56.0480 O   0  0  0  0  0  0  0  0  0  0  0  0
  127.2260  123.9990   55.7680 C   0  0  0  0  0  0  0  0  0  0  0  0
  127.1490  123.2600   57.4270 S   0  0  0  0  0  0  0  0  0  0  0  0
  127.7580  124.4970   58.5490 C   0  0  0  0  0  0  0  0  0  0  0  0
  127.0930  125.6750   58.4820 N   0  0  0  0  0  0  0  0  0  0  0  0
  127.4580  126.7040   59.2920 C   0  0  0  0  0  0  0  0  0  0  0  0
  126.6590  127.9690   59.1730 C   0  0  0  0  0  0  0  0  0  0  0  0
  126.0560  128.3400   57.9590 C   0  0  0  0  0  0  0  0  0  0  0  0
  125.3160  129.5140   57.8520 C   0  0  0  0  0  0  0  0  0  0  0  0
  125.1550  130.3540   58.9510 C   0  0  0  0  0  0  0  0  0  0  0  0
  124.4020  131.4960   58.7540 O   0  0  0  0  0  0  0  0  0  0  0  0
  123.4160  131.8520   59.7170 C   0  0  0  0  0  0  0  0  0  0  0  0
  125.7530  130.0000   60.1680 C   0  0  0  0  0  0  0  0  0  0  0  0
  126.4930  128.8260   60.2720 C   0  0  0  0  0  0  0  0  0  0  0  0
  128.5170  126.5570   60.1960 C   0  0  0  0  0  0  0  0  0  0  0  0
  129.2360  125.3560   60.2660 C   0  0  0  0  0  0  0  0  0  0  0  0
  130.3740  125.2830   61.2320 C   0  0  0  0  0  0  0  0  0  0  0  0
  130.1850  125.5740   62.5870 C   0  0  0  0  0  0  0  0  0  0  0  0
  131.2470  125.4890   63.4820 C   0  0  0  0  0  0  0  0  0  0  0  0
  132.5140  125.1050   63.0450 C   0  0  0  0  0  0  0  0  0  0  0  0
  133.5060  125.0480   64.0050 O   0  0  0  0  0  0  0  0  0  0  0  0
  133.1590  125.2280   65.3730 C   0  0  0  0  0  0  0  0  0  0  0  0
  132.7060  124.8040   61.6880 C   0  0  0  0  0  0  0  0  0  0  0  0
  131.6420  124.8910   60.7930 C   0  0  0  0  0  0  0  0  0  0  0  0
  128.8470  124.2880   59.4220 C   0  0  0  0  0  0  0  0  0  0  0  0
  129.5520  123.0030   59.4610 C   0  0  0  0  0  0  0  0  0  0  0  0
  130.1080  121.9880   59.4920 N   0  0  0  0  0  0  0  0  0  0  0  0
  127.0830  128.6780   54.8980 C   0  0  0  0  0  0  0  0  0  0  0  0
  127.4880  130.0010   54.7370 C   0  0  0  0  0  0  0  0  0  0  0  0
  1  2  1  0
  2  3  1  0
  3  4  1  0
  4  5  2  0
  4  6  1  0
  6  7  2  0
  7  8  1  0
  8  9  2  0
  9 10  1  0
 10 11  1  0
 11 12  2  0
 11 13  1  0
 13 14  1  0
 14 15  1  0
 15 16  2  0
 16 17  1  0
 17 18  1  0
 18 19  2  0
 19 20  1  0
 20 21  2  0
 21 22  1  0
 22 23  1  0
 21 24  1  0
 24 25  2  0
 17 26  2  0
 26 27  1  0
 27 28  1  0
 28 29  2  0
 29 30  1  0
 30 31  2  0
 31 32  1  0
 32 33  1  0
 31 34  1  0
 34 35  2  0
 27 36  2  0
 36 37  1  0
 37 38  3  0
  9 39  1  0
 39 40  2  0
 40  6  1  0
 36 15  1  0
 25 18  1  0
 35 28  1  0
M  END
>  <Binding energies>  (1) 
[-8.72]

>  <Ligand effiencies>  (1) 
[-0.21268292682926832]

>  <Interactions>  (1) 
["V-B:ASP:366:CG:8185, V-A:PRO:540:CD:4885, V-A:PRO:540:N:4882, H-A:TYR:539:N:4868, V-A:TYR:539:CE1:4873, V-A:PRO:540:CB:4883, V-A:ILE:538:CG2:4861, V-A:ILE:538:CA:4858, V-A:ILE:538:CB:4860, V-B:ASP:366:CB:8184, V-A:PRO:540:CA:4881, V-B:TYR:539:CD2:9846, V-B:TYR:539:CE2:9848, V-A:HIS:456:CE1:4068, H-B:MET:535:SD:9806, H-B:TYR:531:OH:9767, V-B:GLU:543:CD:9880, V-A:TYR:539:CE2:4874, H-A:ARG:545:NH2:4926, V-A:TYR:539:CD1:4871, H-A:TYR:539:OH:4876, V-B:ILE:369:CG2:8209, V-B:ILE:369:CD1:8211, H-A:TYR:484:OH:4346, V-A:ARG:545:CZ:4924, H-A:GLY:454:N:4048, V-B:ILE:369:CB:8208, H-A:ARG:545:NH1:4925, H-A:ARG:545:NE:4922, V-A:ARG:545:CD:4921, V-A:ARG:545:CG:4920, V-B:ILE:369:CG1:8210"]

$$$$
1b_Ghoteimi_2023
     RDKit          3D

 34 37  0  0  0  0  0  0  0  0999 V2000
  124.1720  130.7530   58.5550 C   0  0  0  0  0  0  0  0  0  0  0  0
  124.5530  130.0680   57.3670 O   0  0  0  0  0  0  0  0  0  0  0  0
  125.7220  129.3320   57.3590 C   0  0  0  0  0  0  0  0  0  0  0  0
  126.0670  128.6940   58.5490 C   0  0  0  0  0  0  0  0  0  0  0  0
  127.2280  127.9320   58.6360 C   0  0  0  0  0  0  0  0  0  0  0  0
  128.0800  127.7810   57.5320 C   0  0  0  0  0  0  0  0  0  0  0  0
  129.3340  126.9580   57.6300 C   0  0  0  0  0  0  0  0  0  0  0  0
  129.8900  126.5600   58.8510 C   0  0  0  0  0  0  0  0  0  0  0  0
  131.0590  125.7900   58.8870 C   0  0  0  0  0  0  0  0  0  0  0  0
  131.5990  125.4060   60.2260 C   0  0  0  0  0  0  0  0  0  0  0  0
  131.3180  126.1870   61.3500 C   0  0  0  0  0  0  0  0  0  0  0  0
  131.8250  125.8380   62.5990 C   0  0  0  0  0  0  0  0  0  0  0  0
  132.6260  124.7050   62.7470 C   0  0  0  0  0  0  0  0  0  0  0  0
  133.0860  124.4370   64.0220 O   0  0  0  0  0  0  0  0  0  0  0  0
  132.6540  125.2580   65.1020 C   0  0  0  0  0  0  0  0  0  0  0  0
  132.9180  123.9230   61.6200 C   0  0  0  0  0  0  0  0  0  0  0  0
  132.4090  124.2750   60.3730 C   0  0  0  0  0  0  0  0  0  0  0  0
  131.6570  125.4140   57.6600 C   0  0  0  0  0  0  0  0  0  0  0  0
  132.8260  124.5290   57.6410 C   0  0  0  0  0  0  0  0  0  0  0  0
  133.7490  123.8300   57.6280 N   0  0  0  0  0  0  0  0  0  0  0  0
  131.0570  125.8660   56.4630 C   0  0  0  0  0  0  0  0  0  0  0  0
  131.6730  125.4990   54.8330 S   0  0  0  0  0  0  0  0  0  0  0  0
  130.2700  125.5830   53.6700 C   0  0  0  0  0  0  0  0  0  0  0  0
  129.1560  124.5570   53.9210 C   0  0  0  0  0  0  0  0  0  0  0  0
  128.9890  123.6070   53.1520 O   0  0  0  0  0  0  0  0  0  0  0  0
  128.4090  124.7940   55.0220 N   0  0  0  0  0  0  0  0  0  0  0  0
  127.3420  124.0380   55.4930 C   0  0  0  0  0  0  0  0  0  0  0  0
  126.0090  124.3820   55.2740 C   0  0  0  0  0  0  0  0  0  0  0  0
  125.2780  123.3930   55.8920 C   0  0  0  0  0  0  0  0  0  0  0  0
  126.1270  122.4980   56.4510 O   0  0  0  0  0  0  0  0  0  0  0  0
  127.4320  122.9170   56.1920 N   0  0  0  0  0  0  0  0  0  0  0  0
  129.9170  126.5990   56.4570 N   0  0  0  0  0  0  0  0  0  0  0  0
  127.7240  128.4290   56.3390 C   0  0  0  0  0  0  0  0  0  0  0  0
  126.5650  129.1940   56.2480 C   0  0  0  0  0  0  0  0  0  0  0  0
  1  2  1  0
  2  3  1  0
  3  4  2  0
  4  5  1  0
  5  6  2  0
  6  7  1  0
  7  8  2  0
  8  9  1  0
  9 10  1  0
 10 11  2  0
 11 12  1  0
 12 13  2  0
 13 14  1  0
 14 15  1  0
 13 16  1  0
 16 17  2  0
  9 18  2  0
 18 19  1  0
 19 20  3  0
 18 21  1  0
 21 22  1  0
 22 23  1  0
 23 24  1  0
 24 25  2  0
 24 26  1  0
 26 27  1  0
 27 28  1  0
 28 29  2  0
 29 30  1  0
 30 31  1  0
 21 32  2  0
  6 33  1  0
 33 34  2  0
 34  3  1  0
 32  7  1  0
 17 10  1  0
 31 27  2  0
M  END
>  <Binding energies>  (2) 
[-8.93]

>  <Ligand effiencies>  (2) 
[-0.2551428571428571]

>  <Interactions>  (2) 
["V-B:ASP:366:CG:8185, V-A:TYR:539:CZ:4875, V-B:ASP:366:CB:8184, H-A:TYR:531:OH:4793, V-B:TYR:531:CZ:9766, H-B:TYR:539:N:9842, V-B:PRO:540:CD:9859, V-B:TYR:539:CZ:9849, V-B:ILE:538:CG2:9835, V-B:ILE:538:CB:9834, V-B:TYR:539:CE1:9847, V-A:MET:535:CE:4833, V-A:TYR:531:CE1:4790, H-B:TYR:539:OH:9850, V-B:TYR:539:CE2:9848, V-B:TYR:531:CE2:9765, V-A:HIS:456:CE1:4068, V-A:TYR:539:CE2:4874, V-A:ASP:366:CG:3211, H-A:TYR:539:OH:4876, H-A:TYR:484:OH:4346, V-A:ARG:545:CZ:4924, H-A:GLY:454:N:4048, V-A:ASP:366:CB:3210, V-B:ASP:366:CA:8182, V-A:ASP:366:CA:3208, V-A:ARG:545:CD:4921, V-A:ARG:545:CG:4920, H-A:ASN:370:ND2:3246"]

$$$$
1c_Ghoteimi_2023
     RDKit          3D

 34 37  0  0  0  0  0  0  0  0999 V2000
  127.3210  131.4960   52.5980 C   0  0  0  0  0  0  0  0  0  0  0  0
  128.4310  131.1680   53.4270 O   0  0  0  0  0  0  0  0  0  0  0  0
  128.2910  130.1810   54.3840 C   0  0  0  0  0  0  0  0  0  0  0  0
  126.9900  129.8440   54.7490 C   0  0  0  0  0  0  0  0  0  0  0  0
  126.7560  128.8610   55.7070 C   0  0  0  0  0  0  0  0  0  0  0  0
  127.8170  128.1860   56.3300 C   0  0  0  0  0  0  0  0  0  0  0  0
  127.5680  127.1290   57.3670 C   0  0  0  0  0  0  0  0  0  0  0  0
  128.4520  126.8850   58.4240 C   0  0  0  0  0  0  0  0  0  0  0  0
  128.1640  125.9060   59.3830 C   0  0  0  0  0  0  0  0  0  0  0  0
  129.1180  125.7450   60.5200 C   0  0  0  0  0  0  0  0  0  0  0  0
  129.1740  126.6970   61.5420 C   0  0  0  0  0  0  0  0  0  0  0  0
  130.0780  126.5570   62.5890 C   0  0  0  0  0  0  0  0  0  0  0  0
  130.9460  125.4660   62.6340 C   0  0  0  0  0  0  0  0  0  0  0  0
  131.8100  125.4080   63.7120 O   0  0  0  0  0  0  0  0  0  0  0  0
  131.2800  125.4830   65.0310 C   0  0  0  0  0  0  0  0  0  0  0  0
  130.8970  124.5110   61.6070 C   0  0  0  0  0  0  0  0  0  0  0  0
  129.9910  124.6540   60.5600 C   0  0  0  0  0  0  0  0  0  0  0  0
  126.9750  125.1520   59.2400 C   0  0  0  0  0  0  0  0  0  0  0  0
  126.6330  124.0900   60.1920 C   0  0  0  0  0  0  0  0  0  0  0  0
  126.3650  123.2530   60.9440 N   0  0  0  0  0  0  0  0  0  0  0  0
  126.1220  125.4630   58.1610 C   0  0  0  0  0  0  0  0  0  0  0  0
  124.5200  124.7150   57.9560 S   0  0  0  0  0  0  0  0  0  0  0  0
  124.6730  123.6870   56.4590 C   0  0  0  0  0  0  0  0  0  0  0  0
  126.1260  123.5650   55.9880 C   0  0  0  0  0  0  0  0  0  0  0  0
  126.7330  122.5070   56.1570 O   0  0  0  0  0  0  0  0  0  0  0  0
  126.6230  124.6560   55.3650 N   0  0  0  0  0  0  0  0  0  0  0  0
  127.8420  124.7550   54.7140 C   0  0  0  0  0  0  0  0  0  0  0  0
  128.9390  125.3450   55.1380 N   0  0  0  0  0  0  0  0  0  0  0  0
  129.9260  125.2090   54.2740 C   0  0  0  0  0  0  0  0  0  0  0  0
  129.6370  124.4910   53.1180 C   0  0  0  0  0  0  0  0  0  0  0  0
  127.9780  123.9730   53.1720 S   0  0  0  0  0  0  0  0  0  0  0  0
  126.4090  126.4300   57.2570 N   0  0  0  0  0  0  0  0  0  0  0  0
  129.1230  128.5290   55.9490 C   0  0  0  0  0  0  0  0  0  0  0  0
  129.3620  129.5120   54.9930 C   0  0  0  0  0  0  0  0  0  0  0  0
  1  2  1  0
  2  3  1  0
  3  4  2  0
  4  5  1  0
  5  6  2  0
  6  7  1  0
  7  8  2  0
  8  9  1  0
  9 10  1  0
 10 11  2  0
 11 12  1  0
 12 13  2  0
 13 14  1  0
 14 15  1  0
 13 16  1  0
 16 17  2  0
  9 18  2  0
 18 19  1  0
 19 20  3  0
 18 21  1  0
 21 22  1  0
 22 23  1  0
 23 24  1  0
 24 25  2  0
 24 26  1  0
 26 27  1  0
 27 28  2  0
 28 29  1  0
 29 30  2  0
 30 31  1  0
 21 32  2  0
  6 33  1  0
 33 34  2  0
 34  3  1  0
 32  7  1  0
 17 10  1  0
 31 27  1  0
M  END
>  <Binding energies>  (3) 
[-8.39]

>  <Ligand effiencies>  (3) 
[-0.23971428571428574]

>  <Interactions>  (3) 
["V-A:TYR:539:CE1:4873, V-B:MET:535:CE:9807, V-B:TYR:531:CZ:9766, H-B:TYR:539:N:9842, V-B:PRO:540:CD:9859, V-B:MET:535:CG:9805, V-B:MET:535:CB:9804, V-B:PRO:540:CA:9855, V-B:TYR:539:CZ:9849, H-B:ALA:541:N:9863, V-B:TYR:539:CE1:9847, V-B:ILE:538:CA:9832, V-A:MET:535:CE:4833, V-B:TYR:531:CE2:9765, V-A:HIS:456:CE1:4068, H-B:MET:535:SD:9806, H-B:TYR:531:OH:9767, V-B:GLU:543:CD:9880, H-A:ARG:545:NH2:4926"]

$$$$
1d_Ghoteimi_2023
     RDKit          3D

 30 32  0  0  0  0  0  0  0  0999 V2000
  133.3420  131.0330   57.2920 C   0  0  0  0  0  0  0  0  0  0  0  0
  132.6460  132.1470   56.7540 O   0  0  0  0  0  0  0  0  0  0  0  0
  131.3560  132.0310   56.3740 C   0  0  0  0  0  0  0  0  0  0  0  0
  130.8220  132.6060   55.4240 O   0  0  0  0  0  0  0  0  0  0  0  0
  130.5710  131.0800   57.2730 C   0  0  0  0  0  0  0  0  0  0  0  0
  128.8080  131.4860   57.0910 S   0  0  0  0  0  0  0  0  0  0  0  0
  127.9010  130.3290   58.0920 C   0  0  0  0  0  0  0  0  0  0  0  0
  127.7830  129.1000   57.5340 N   0  0  0  0  0  0  0  0  0  0  0  0
  127.1100  128.1200   58.1900 C   0  0  0  0  0  0  0  0  0  0  0  0
  127.0300  126.7860   57.5060 C   0  0  0  0  0  0  0  0  0  0  0  0
  127.6070  126.5800   56.2430 C   0  0  0  0  0  0  0  0  0  0  0  0
  127.5260  125.3450   55.6070 C   0  0  0  0  0  0  0  0  0  0  0  0
  126.8660  124.2780   56.2120 C   0  0  0  0  0  0  0  0  0  0  0  0
  126.8330  123.0900   55.5070 O   0  0  0  0  0  0  0  0  0  0  0  0
  127.7330  122.9030   54.4200 C   0  0  0  0  0  0  0  0  0  0  0  0
  126.2850  124.4680   57.4730 C   0  0  0  0  0  0  0  0  0  0  0  0
  126.3690  125.7050   58.1060 C   0  0  0  0  0  0  0  0  0  0  0  0
  126.5430  128.3630   59.4470 C   0  0  0  0  0  0  0  0  0  0  0  0
  126.6370  129.6280   60.0400 C   0  0  0  0  0  0  0  0  0  0  0  0
  126.0030  129.8200   61.3800 C   0  0  0  0  0  0  0  0  0  0  0  0
  124.7560  130.4440   61.4860 C   0  0  0  0  0  0  0  0  0  0  0  0
  124.1590  130.6260   62.7300 C   0  0  0  0  0  0  0  0  0  0  0  0
  124.7920  130.1840   63.8920 C   0  0  0  0  0  0  0  0  0  0  0  0
  124.1290  130.4130   65.0820 O   0  0  0  0  0  0  0  0  0  0  0  0
  124.4750  129.6450   66.2290 C   0  0  0  0  0  0  0  0  0  0  0  0
  126.0370  129.5450   63.7900 C   0  0  0  0  0  0  0  0  0  0  0  0
  126.6310  129.3640   62.5440 C   0  0  0  0  0  0  0  0  0  0  0  0
  127.3180  130.6540   59.3380 C   0  0  0  0  0  0  0  0  0  0  0  0
  127.3560  132.0220   59.8640 C   0  0  0  0  0  0  0  0  0  0  0  0
  127.3860  133.1010   60.2790 N   0  0  0  0  0  0  0  0  0  0  0  0
  1  2  1  0
  2  3  1  0
  3  4  2  0
  3  5  1  0
  5  6  1  0
  6  7  1  0
  7  8  2  0
  8  9  1  0
  9 10  1  0
 10 11  2  0
 11 12  1  0
 12 13  2  0
 13 14  1  0
 14 15  1  0
 13 16  1  0
 16 17  2  0
  9 18  2  0
 18 19  1  0
 19 20  1  0
 20 21  2  0
 21 22  1  0
 22 23  2  0
 23 24  1  0
 24 25  1  0
 23 26  1  0
 26 27  2  0
 19 28  2  0
 28 29  1  0
 29 30  3  0
 28  7  1  0
 17 10  1  0
 27 20  1  0
M  END
>  <Binding energies>  (4) 
[-7.53]

>  <Ligand effiencies>  (4) 
[-0.251]

>  <Interactions>  (4) 
["V-A:TYR:531:CE2:4791, V-B:ASP:366:CG:8185, V-A:PRO:540:CD:4885, V-A:PRO:540:N:4882, H-A:TYR:539:N:4868, V-A:PRO:540:CB:4883, V-A:TYR:531:CZ:4792, V-A:LEU:363:CA:3183, V-A:PRO:540:CA:4881, H-B:TYR:539:N:9842, V-B:ILE:538:CB:9834, V-B:TYR:539:CE1:9847, V-B:ILE:538:CA:9832, V-B:TYR:539:CD1:9845, V-B:ILE:538:C:9830, V-B:HIS:456:CE1:9042, V-A:TYR:539:C:4865, V-A:TYR:539:CE2:4874, V-B:ARG:545:CZ:9898, V-A:TYR:539:CD2:4872, H-B:GLY:454:N:9022, H-B:TYR:484:OH:9320, H-B:ARG:545:NE:9896, V-B:ARG:545:CD:9895, V-B:ARG:545:CG:9894"]

$$$$
1j_Grossjean_2025
     RDKit          3D

 20 21  0  0  0  0  0  0  0  0999 V2000
  128.8620  132.5200   73.9500 C   0  0  0  0  0  0  0  0  0  0  0  0
  127.8190  131.4290   74.1110 C   0  0  0  0  0  0  0  0  0  0  0  0
  126.7210  131.5880   74.9530 C   0  0  0  0  0  0  0  0  0  0  0  0
  125.7850  130.5540   75.0510 C   0  0  0  0  0  0  0  0  0  0  0  0
  124.5790  130.7600   75.9680 C   0  0  0  0  0  0  0  0  0  0  0  0
  125.9800  129.3720   74.3030 C   0  0  0  0  0  0  0  0  0  0  0  0
  124.9850  128.2980   74.3500 C   0  0  0  0  0  0  0  0  0  0  0  0
  124.1960  127.4510   74.3890 N   0  0  0  0  0  0  0  0  0  0  0  0
  127.1380  129.2860   73.4930 C   0  0  0  0  0  0  0  0  0  0  0  0
  127.5420  127.8740   72.4880 S   0  0  0  0  0  0  0  0  0  0  0  0
  129.3410  127.8760   72.2320 C   0  0  0  0  0  0  0  0  0  0  0  0
  130.0060  126.6280   72.8150 C   0  0  0  0  0  0  0  0  0  0  0  0
  129.4180  125.5470   72.7560 O   0  0  0  0  0  0  0  0  0  0  0  0
  131.2250  126.8200   73.3650 N   0  0  0  0  0  0  0  0  0  0  0  0
  132.0250  125.8560   73.9620 C   0  0  0  0  0  0  0  0  0  0  0  0
  131.6600  124.6840   74.4360 N   0  0  0  0  0  0  0  0  0  0  0  0
  132.6860  124.0230   74.9350 C   0  0  0  0  0  0  0  0  0  0  0  0
  133.9200  124.6610   74.8690 C   0  0  0  0  0  0  0  0  0  0  0  0
  133.7160  126.2120   74.1110 S   0  0  0  0  0  0  0  0  0  0  0  0
  128.0280  130.3040   73.3880 N   0  0  0  0  0  0  0  0  0  0  0  0
  1  2  1  0
  2  3  2  0
  3  4  1  0
  4  5  1  0
  4  6  2  0
  6  7  1  0
  7  8  3  0
  6  9  1  0
  9 10  1  0
 10 11  1  0
 11 12  1  0
 12 13  2  0
 12 14  1  0
 14 15  1  0
 15 16  2  0
 16 17  1  0
 17 18  2  0
 18 19  1  0
  9 20  2  0
 20  2  1  0
 19 15  1  0
M  END
>  <Binding energies>  (5) 
[-8.1]

>  <Ligand effiencies>  (5) 
[-0.3857142857142857]

>  <Interactions>  (5) 
["V-A:VAL:458:CG2:4085, H-B:LYS:547:NZ:9923, V-A:LYS:547:CE:4948, H-A:GLY:544:O:4911, V-B:LYS:547:CE:9922, V-A:GLY:544:C:4910, H-A:LYS:547:NZ:4949, V-B:LYS:471:CD:9191, V-B:HIS:456:CD2:9040, V-B:VAL:458:CG2:9059, V-A:HIS:456:CB:4063, V-A:HIS:456:CG:4064, V-B:LYS:471:CE:9192, V-A:LYS:471:CE:4218, V-B:HIS:456:CG:9038, V-B:HIS:456:CB:9037, V-B:HIS:456:C:9033, V-A:VAL:457:C:4071, V-A:HIS:456:C:4059, V-B:ASP:473:CG:9212, V-B:LYS:471:CG:9190, V-A:HIS:456:CA:4061"]

$$$$
1o_Grossjean_2025
     RDKit          3D

 26 27  0  0  0  0  0  0  0  0999 V2000
  128.6300  132.2000   59.2050 C   0  0  0  0  0  0  0  0  0  0  0  0
  128.3600  132.2700   57.8120 O   0  0  0  0  0  0  0  0  0  0  0  0
  129.3410  132.0560   56.8980 C   0  0  0  0  0  0  0  0  0  0  0  0
  130.1800  132.9080   56.5890 O   0  0  0  0  0  0  0  0  0  0  0  0
  129.3080  130.6790   56.3020 C   0  0  0  0  0  0  0  0  0  0  0  0
  128.6000  130.3970   55.1240 C   0  0  0  0  0  0  0  0  0  0  0  0
  128.5910  129.1090   54.5950 C   0  0  0  0  0  0  0  0  0  0  0  0
  129.2820  128.0770   55.2330 C   0  0  0  0  0  0  0  0  0  0  0  0
  129.2130  126.8170   54.6080 N   0  0  0  0  0  0  0  0  0  0  0  0
  130.1330  125.8280   54.5490 C   0  0  0  0  0  0  0  0  0  0  0  0
  131.2330  125.8490   55.1020 O   0  0  0  0  0  0  0  0  0  0  0  0
  129.7200  124.5880   53.7440 C   0  0  0  0  0  0  0  0  0  0  0  0
  128.1920  124.4230   53.6180 C   0  0  0  0  0  0  0  0  0  0  0  0
  127.5340  122.9630   54.4770 S   0  0  0  0  0  0  0  0  0  0  0  0
  127.4250  123.3330   56.2160 C   0  0  0  0  0  0  0  0  0  0  0  0
  128.6340  123.4160   56.8280 N   0  0  0  0  0  0  0  0  0  0  0  0
  128.6760  123.7020   58.1500 C   0  0  0  0  0  0  0  0  0  0  0  0
  130.0630  123.7920   58.7610 C   0  0  0  0  0  0  0  0  0  0  0  0
  127.5280  123.9020   58.9130 C   0  0  0  0  0  0  0  0  0  0  0  0
  126.2760  123.7940   58.2990 C   0  0  0  0  0  0  0  0  0  0  0  0
  125.0320  124.0030   59.1600 C   0  0  0  0  0  0  0  0  0  0  0  0
  126.2060  123.4920   56.9190 C   0  0  0  0  0  0  0  0  0  0  0  0
  124.9040  123.3160   56.2720 C   0  0  0  0  0  0  0  0  0  0  0  0
  123.8740  123.1790   55.7630 N   0  0  0  0  0  0  0  0  0  0  0  0
  129.9960  128.3530   56.4090 C   0  0  0  0  0  0  0  0  0  0  0  0
  130.0050  129.6420   56.9350 C   0  0  0  0  0  0  0  0  0  0  0  0
  1  2  1  0
  2  3  1  0
  3  4  2  0
  3  5  1  0
  5  6  2  0
  6  7  1  0
  7  8  2  0
  8  9  1  0
  9 10  1  0
 10 11  2  0
 10 12  1  0
 12 13  1  0
 13 14  1  0
 14 15  1  0
 15 16  2  0
 16 17  1  0
 17 18  1  0
 17 19  2  0
 19 20  1  0
 20 21  1  0
 20 22  2  0
 22 23  1  0
 23 24  3  0
  8 25  1  0
 25 26  2  0
 26  5  1  0
 22 15  1  0
M  END
>  <Binding energies>  (6) 
[-8.07]

>  <Ligand effiencies>  (6) 
[-0.2988888888888889]

>  <Interactions>  (6) 
["H-A:TYR:539:N:4868, H-A:TYR:531:OH:4793, V-B:TYR:539:C:9839, H-B:TYR:539:N:9842, V-B:PRO:540:CD:9859, V-B:MET:535:CG:9805, V-B:MET:535:CB:9804, V-B:PRO:540:CB:9857, V-B:PRO:540:CA:9855, V-B:TYR:539:CZ:9849, V-B:PRO:540:N:9856, V-B:ILE:538:CG2:9835, V-B:ILE:538:CB:9834, V-B:TYR:539:CE1:9847, V-B:TYR:539:CD2:9846, H-B:TYR:539:OH:9850, V-B:TYR:539:CE2:9848, V-B:TYR:531:CE2:9765, H-B:MET:535:SD:9806, H-B:TYR:531:OH:9767, V-A:TYR:539:C:4865, V-A:TYR:539:CE2:4874, V-A:TYR:539:CD2:4872, V-A:TYR:539:CG:4870, H-A:MET:535:SD:4832"]

$$$$
1p_Grossjean_2025
     RDKit          3D

 21 22  0  0  0  0  0  0  0  0999 V2000
  132.0560  131.0970   62.1450 C   0  0  0  0  0  0  0  0  0  0  0  0
  131.7690  131.3150   60.6720 C   0  0  0  0  0  0  0  0  0  0  0  0
  132.7500  131.1160   59.7020 C   0  0  0  0  0  0  0  0  0  0  0  0
  132.4330  131.3440   58.3580 C   0  0  0  0  0  0  0  0  0  0  0  0
  133.5280  131.1350   57.3130 C   0  0  0  0  0  0  0  0  0  0  0  0
  131.1260  131.7610   58.0170 C   0  0  0  0  0  0  0  0  0  0  0  0
  130.7840  132.0530   56.6250 C   0  0  0  0  0  0  0  0  0  0  0  0
  130.5140  132.2830   55.5220 N   0  0  0  0  0  0  0  0  0  0  0  0
  130.1880  131.9150   59.0660 C   0  0  0  0  0  0  0  0  0  0  0  0
  128.5030  132.4220   58.8120 S   0  0  0  0  0  0  0  0  0  0  0  0
  127.5220  131.6740   60.1450 C   0  0  0  0  0  0  0  0  0  0  0  0
  127.7260  132.3450   61.5180 C   0  0  0  0  0  0  0  0  0  0  0  0
  126.5870  132.0680   62.5110 C   0  0  0  0  0  0  0  0  0  0  0  0
  125.6030  132.8090   62.5290 O   0  0  0  0  0  0  0  0  0  0  0  0
  126.7550  130.9870   63.3060 N   0  0  0  0  0  0  0  0  0  0  0  0
  125.8850  130.5170   64.2810 C   0  0  0  0  0  0  0  0  0  0  0  0
  126.3180  129.9270   65.4680 C   0  0  0  0  0  0  0  0  0  0  0  0
  125.1660  129.6060   66.1490 C   0  0  0  0  0  0  0  0  0  0  0  0
  124.0950  129.9810   65.4110 O   0  0  0  0  0  0  0  0  0  0  0  0
  124.5640  130.5560   64.2280 N   0  0  0  0  0  0  0  0  0  0  0  0
  130.5110  131.7120   60.3680 N   0  0  0  0  0  0  0  0  0  0  0  0
  1  2  1  0
  2  3  2  0
  3  4  1  0
  4  5  1  0
  4  6  2  0
  6  7  1  0
  7  8  3  0
  6  9  1  0
  9 10  1  0
 10 11  1  0
 11 12  1  0
 12 13  1  0
 13 14  2  0
 13 15  1  0
 15 16  1  0
 16 17  1  0
 17 18  2  0
 18 19  1  0
 19 20  1  0
  9 21  2  0
 21  2  1  0
 20 16  2  0
M  END
>  <Binding energies>  (7) 
[-8.26]

>  <Ligand effiencies>  (7) 
[-0.37545454545454543]

>  <Interactions>  (7) 
["V-A:TYR:531:CE2:4791, V-A:PRO:540:CD:4885, V-A:PRO:540:N:4882, H-A:TYR:539:N:4868, V-A:PRO:540:CB:4883, V-A:LEU:363:CD1:3187, V-A:LEU:363:CA:3183, V-A:PRO:540:CA:4881, V-B:HIS:456:CE1:9042, V-A:GLU:543:CD:4906, V-A:TYR:539:C:4865, H-A:GLU:543:OE1:4907, H-A:ALA:541:N:4889, V-B:ARG:545:CZ:9898, H-B:GLY:454:N:9022, V-A:ALA:541:CB:4890, H-B:TYR:484:OH:9320, V-A:ARG:545:CZ:4924, V-B:TYR:484:CZ:9319, H-B:ARG:545:NE:9896, V-A:ALA:541:C:4886, V-A:PRO:540:C:4879, V-B:ARG:545:CD:9895, V-B:ARG:545:CG:9894"]

$$$$
2a_Ghoteimi_2023
     RDKit          3D

 48 53  0  0  0  0  0  0  0  0999 V2000
  126.9630  123.6250   61.7330 C   0  0  0  0  0  0  0  0  0  0  0  0
  125.5750  123.6910   62.3780 C   0  0  0  0  0  0  0  0  0  0  0  0
  124.7080  124.4600   61.5550 O   0  0  0  0  0  0  0  0  0  0  0  0
  124.0660  123.9020   60.4970 C   0  0  0  0  0  0  0  0  0  0  0  0
  123.0040  123.2790   60.5970 O   0  0  0  0  0  0  0  0  0  0  0  0
  124.7730  124.1230   59.1900 C   0  0  0  0  0  0  0  0  0  0  0  0
  124.2550  123.6480   57.9760 C   0  0  0  0  0  0  0  0  0  0  0  0
  124.9350  123.8720   56.7830 C   0  0  0  0  0  0  0  0  0  0  0  0
  126.1400  124.5770   56.7750 C   0  0  0  0  0  0  0  0  0  0  0  0
  126.7430  124.7410   55.5130 N   0  0  0  0  0  0  0  0  0  0  0  0
  127.4500  123.8610   54.7710 C   0  0  0  0  0  0  0  0  0  0  0  0
  127.7410  122.7160   55.1170 O   0  0  0  0  0  0  0  0  0  0  0  0
  127.9400  124.3950   53.4180 C   0  0  0  0  0  0  0  0  0  0  0  0
  128.7080  126.0450   53.4920 S   0  0  0  0  0  0  0  0  0  0  0  0
  128.7870  126.4610   55.2180 C   0  0  0  0  0  0  0  0  0  0  0  0
  129.5610  125.6240   55.9480 N   0  0  0  0  0  0  0  0  0  0  0  0
  129.6930  125.8320   57.2830 C   0  0  0  0  0  0  0  0  0  0  0  0
  130.5550  124.8630   58.0260 C   0  0  0  0  0  0  0  0  0  0  0  0
  130.0000  123.9320   58.9130 C   0  0  0  0  0  0  0  0  0  0  0  0
  130.8090  123.0400   59.6120 C   0  0  0  0  0  0  0  0  0  0  0  0
  132.2010  123.0390   59.4450 C   0  0  0  0  0  0  0  0  0  0  0  0
  133.0030  122.1560   60.1760 N   0  0  0  0  0  0  0  0  0  0  0  0
  132.8590  120.6930   60.0410 C   0  0  0  0  0  0  0  0  0  0  0  0
  134.0410  119.8930   60.6280 C   0  0  0  0  0  0  0  0  0  0  0  0
  134.2510  120.2600   61.9820 O   0  0  0  0  0  0  0  0  0  0  0  0
  134.5590  121.6400   62.1030 C   0  0  0  0  0  0  0  0  0  0  0  0
  133.3940  122.4940   61.5610 C   0  0  0  0  0  0  0  0  0  0  0  0
  132.7520  123.9820   58.5630 C   0  0  0  0  0  0  0  0  0  0  0  0
  131.9440  124.8730   57.8630 C   0  0  0  0  0  0  0  0  0  0  0  0
  129.0550  126.9040   57.9140 C   0  0  0  0  0  0  0  0  0  0  0  0
  128.2500  127.7830   57.1780 C   0  0  0  0  0  0  0  0  0  0  0  0
  127.5920  128.9040   57.9170 C   0  0  0  0  0  0  0  0  0  0  0  0
  126.3800  128.6940   58.5780 C   0  0  0  0  0  0  0  0  0  0  0  0
  125.7500  129.7360   59.2520 C   0  0  0  0  0  0  0  0  0  0  0  0
  126.3160  131.0190   59.2880 C   0  0  0  0  0  0  0  0  0  0  0  0
  125.6900  132.0830   59.9440 N   0  0  0  0  0  0  0  0  0  0  0  0
  126.5180  133.1070   60.6140 C   0  0  0  0  0  0  0  0  0  0  0  0
  125.7400  134.3980   60.9460 C   0  0  0  0  0  0  0  0  0  0  0  0
  124.5940  134.0890   61.7230 O   0  0  0  0  0  0  0  0  0  0  0  0
  123.7140  133.2130   61.0360 C   0  0  0  0  0  0  0  0  0  0  0  0
  124.4390  131.8920   60.7020 C   0  0  0  0  0  0  0  0  0  0  0  0
  127.5270  131.2240   58.6120 C   0  0  0  0  0  0  0  0  0  0  0  0
  128.1560  130.1830   57.9360 C   0  0  0  0  0  0  0  0  0  0  0  0
  128.1110  127.5640   55.7860 C   0  0  0  0  0  0  0  0  0  0  0  0
  127.3270  128.4830   54.9540 C   0  0  0  0  0  0  0  0  0  0  0  0
  126.7070  129.2090   54.3000 N   0  0  0  0  0  0  0  0  0  0  0  0
  126.6670  125.0490   57.9860 C   0  0  0  0  0  0  0  0  0  0  0  0
  125.9860  124.8250   59.1790 C   0  0  0  0  0  0  0  0  0  0  0  0
  1  2  1  0
  2  3  1  0
  3  4  1  0
  4  5  2  0
  4  6  1  0
  6  7  2  0
  7  8  1  0
  8  9  2  0
  9 10  1  0
 10 11  1  0
 11 12  2  0
 11 13  1  0
 13 14  1  0
 14 15  1  0
 15 16  2  0
 16 17  1  0
 17 18  1  0
 18 19  2  0
 19 20  1  0
 20 21  2  0
 21 22  1  0
 22 23  1  0
 23 24  1  0
 24 25  1  0
 25 26  1  0
 26 27  1  0
 21 28  1  0
 28 29  2  0
 17 30  2  0
 30 31  1  0
 31 32  1  0
 32 33  2  0
 33 34  1  0
 34 35  2  0
 35 36  1  0
 36 37  1  0
 37 38  1  0
 38 39  1  0
 39 40  1  0
 40 41  1  0
 35 42  1  0
 42 43  2  0
 31 44  2  0
 44 45  1  0
 45 46  3  0
  9 47  1  0
 47 48  2  0
 48  6  1  0
 44 15  1  0
 29 18  1  0
 43 32  1  0
 27 22  1  0
 41 36  1  0
M  END
>  <Binding energies>  (8) 
[-7.17]

>  <Ligand effiencies>  (8) 
[-0.1463265306122449]

>  <Interactions>  (8) 
["V-B:ASP:366:CG:8185, H-B:TYR:539:N:9842, V-B:PRO:540:CD:9859, V-B:MET:535:CG:9805, V-B:MET:535:CB:9804, V-B:PRO:540:CB:9857, V-B:PRO:540:CA:9855, V-B:ASN:362:C:8144, V-B:TYR:539:CZ:9849, V-B:PRO:540:N:9856, V-B:ILE:538:CA:9832, V-B:ASN:362:CB:8148, V-B:TYR:539:CD2:9846, V-B:TYR:539:CE2:9848, V-B:TYR:531:CE2:9765, H-B:MET:535:SD:9806, H-B:TYR:531:OH:9767, H-B:LEU:363:N:8158, V-B:GLU:543:CD:9880, V-A:TYR:539:CE2:4874, V-A:ASP:366:CG:3211, H-B:ARG:545:NH2:9900, V-A:ILE:369:CD1:3237, V-B:ALA:541:CB:9864, V-A:TYR:539:CD2:4872, V-B:ILE:369:CG2:8209, V-B:ILE:369:CD1:8211, V-B:TRP:381:CH2:8344, V-B:LEU:475:CD2:9231, V-A:TRP:381:CZ2:3368, V-A:TRP:381:CH2:3370, V-A:ILE:369:CG2:3235, V-A:ASP:366:CB:3210, V-A:LEU:475:CD2:4257, V-B:PRO:540:CG:9858, V-B:ILE:369:CB:8208, V-A:GLY:453:C:4040, V-B:ALA:541:C:9860, V-A:SER:385:C:3403, V-A:SER:385:CA:3405, V-A:SER:385:CB:3407, V-A:GLY:454:CA:4047, V-B:ALA:541:CA:9862"]

$$$$
2aa_Ghoteimi_2023
     RDKit          3D

 48 53  0  0  0  0  0  0  0  0999 V2000
  133.1190  131.1080   57.3000 C   0  0  0  0  0  0  0  0  0  0  0  0
  131.6470  130.7280   57.4940 C   0  0  0  0  0  0  0  0  0  0  0  0
  130.8890  131.9020   57.7570 O   0  0  0  0  0  0  0  0  0  0  0  0
  129.7050  132.1280   57.1320 C   0  0  0  0  0  0  0  0  0  0  0  0
  129.6160  132.5380   55.9700 O   0  0  0  0  0  0  0  0  0  0  0  0
  128.5130  131.8140   57.9890 C   0  0  0  0  0  0  0  0  0  0  0  0
  127.4500  131.0270   57.5210 C   0  0  0  0  0  0  0  0  0  0  0  0
  126.3600  130.7500   58.3410 C   0  0  0  0  0  0  0  0  0  0  0  0
  126.3050  131.2590   59.6400 C   0  0  0  0  0  0  0  0  0  0  0  0
  125.1590  130.9150   60.3830 N   0  0  0  0  0  0  0  0  0  0  0  0
  124.4270  131.6600   61.2380 C   0  0  0  0  0  0  0  0  0  0  0  0
  124.6370  132.8450   61.5040 O   0  0  0  0  0  0  0  0  0  0  0  0
  123.2430  130.9220   61.8760 C   0  0  0  0  0  0  0  0  0  0  0  0
  123.6040  130.4770   63.1880 O   0  0  0  0  0  0  0  0  0  0  0  0
  124.8140  129.8300   63.3960 C   0  0  0  0  0  0  0  0  0  0  0  0
  125.5480  129.4770   62.3040 N   0  0  0  0  0  0  0  0  0  0  0  0
  126.7370  128.8470   62.4720 C   0  0  0  0  0  0  0  0  0  0  0  0
  127.4850  128.4860   61.2270 C   0  0  0  0  0  0  0  0  0  0  0  0
  128.8600  128.7230   61.1250 C   0  0  0  0  0  0  0  0  0  0  0  0
  129.5620  128.3830   59.9720 C   0  0  0  0  0  0  0  0  0  0  0  0
  128.9160  127.7800   58.8810 C   0  0  0  0  0  0  0  0  0  0  0  0
  129.6040  127.4440   57.7090 N   0  0  0  0  0  0  0  0  0  0  0  0
  130.4240  126.2180   57.6230 C   0  0  0  0  0  0  0  0  0  0  0  0
  131.3780  126.1910   56.4100 C   0  0  0  0  0  0  0  0  0  0  0  0
  130.6460  126.3970   55.2120 O   0  0  0  0  0  0  0  0  0  0  0  0
  129.9860  127.6530   55.2170 C   0  0  0  0  0  0  0  0  0  0  0  0
  128.9910  127.7230   56.3940 C   0  0  0  0  0  0  0  0  0  0  0  0
  127.5340  127.5640   58.9790 C   0  0  0  0  0  0  0  0  0  0  0  0
  126.8330  127.9070   60.1320 C   0  0  0  0  0  0  0  0  0  0  0  0
  127.2170  128.5370   63.7480 C   0  0  0  0  0  0  0  0  0  0  0  0
  126.4780  128.8790   64.8870 C   0  0  0  0  0  0  0  0  0  0  0  0
  127.0300  128.4990   66.2230 C   0  0  0  0  0  0  0  0  0  0  0  0
  128.2300  129.0530   66.6730 C   0  0  0  0  0  0  0  0  0  0  0  0
  128.7610  128.6890   67.9080 C   0  0  0  0  0  0  0  0  0  0  0  0
  128.1120  127.7480   68.7220 C   0  0  0  0  0  0  0  0  0  0  0  0
  128.6240  127.3690   69.9670 N   0  0  0  0  0  0  0  0  0  0  0  0
  127.9680  127.7760   71.2240 C   0  0  0  0  0  0  0  0  0  0  0  0
  128.4560  126.9850   72.4560 C   0  0  0  0  0  0  0  0  0  0  0  0
  129.8680  127.0850   72.5670 O   0  0  0  0  0  0  0  0  0  0  0  0
  130.5200  126.5600   71.4220 C   0  0  0  0  0  0  0  0  0  0  0  0
  130.0880  127.3400   70.1630 C   0  0  0  0  0  0  0  0  0  0  0  0
  126.9050  127.2020   68.2650 C   0  0  0  0  0  0  0  0  0  0  0  0
  126.3740  127.5670   67.0310 C   0  0  0  0  0  0  0  0  0  0  0  0
  125.2490  129.5560   64.7050 C   0  0  0  0  0  0  0  0  0  0  0  0
  124.4330  129.9960   65.8390 C   0  0  0  0  0  0  0  0  0  0  0  0
  123.7890  130.3430   66.7360 N   0  0  0  0  0  0  0  0  0  0  0  0
  127.3670  132.0410   60.1180 C   0  0  0  0  0  0  0  0  0  0  0  0
  128.4570  132.3130   59.2960 C   0  0  0  0  0  0  0  0  0  0  0  0
  1  2  1  0
  2  3  1  0
  3  4  1  0
  4  5  2  0
  4  6  1  0
  6  7  2  0
  7  8  1  0
  8  9  2  0
  9 10  1  0
 10 11  1  0
 11 12  2  0
 11 13  1  0
 13 14  1  0
 14 15  1  0
 15 16  2  0
 16 17  1  0
 17 18  1  0
 18 19  2  0
 19 20  1  0
 20 21  2  0
 21 22  1  0
 22 23  1  0
 23 24  1  0
 24 25  1  0
 25 26  1  0
 26 27  1  0
 21 28  1  0
 28 29  2  0
 17 30  2  0
 30 31  1  0
 31 32  1  0
 32 33  2  0
 33 34  1  0
 34 35  2  0
 35 36  1  0
 36 37  1  0
 37 38  1  0
 38 39  1  0
 39 40  1  0
 40 41  1  0
 35 42  1  0
 42 43  2  0
 31 44  2  0
 44 45  1  0
 45 46  3  0
  9 47  1  0
 47 48  2  0
 48  6  1  0
 44 15  1  0
 29 18  1  0
 43 32  1  0
 27 22  1  0
 41 36  1  0
M  END
>  <Binding energies>  (9) 
[-8.68]

>  <Ligand effiencies>  (9) 
[-0.17714285714285713]

>  <Interactions>  (9) 
["V-A:TYR:531:CE2:4791, V-B:ASP:366:CG:8185, V-A:PRO:540:N:4882, H-A:TYR:539:N:4868, V-A:TYR:539:CZ:4875, V-A:PRO:540:CB:4883, V-A:TYR:531:CZ:4792, H-A:TYR:531:OH:4793, V-A:TYR:531:CE1:4790, V-A:HIS:456:CD2:4066, V-B:GLY:544:CA:9886, V-A:HIS:456:CE1:4068, V-B:GLU:543:C:9874, V-B:LYS:547:CE:9922, V-B:HIS:456:CE1:9042, V-A:GLY:544:C:4910, V-B:GLY:544:C:9884, V-B:HIS:456:CD2:9040, H-B:HIS:456:ND1:9039, V-A:HIS:456:CG:4064, V-A:GLU:543:CD:4906, H-B:ASP:366:OD2:8187, V-A:TYR:539:C:4865, V-B:GLU:543:CD:9880, V-A:TYR:539:CE2:4874, H-B:ARG:545:NH2:9900, H-B:ASP:366:OD1:8186, V-B:ARG:545:CZ:9898, V-A:TYR:539:CD2:4872, H-B:GLY:454:N:9022, V-B:ILE:369:CD1:8211, H-B:TYR:484:OH:9320, V-B:TYR:484:CZ:9319, H-B:ARG:545:NH1:9899, V-A:GLU:543:CB:4904, V-B:ARG:545:CD:9895, V-A:GLU:543:C:4900, V-A:GLU:543:CA:4902, V-B:GLY:453:CA:9016, V-B:GLU:543:CG:9879, V-B:ARG:545:CG:9894, V-A:GLU:543:CG:4905, V-B:ARG:545:CA:9891, H-B:ILE:455:N:9027"]

$$$$
2b_Ghoteimi_2023
     RDKit          3D

 42 47  0  0  0  0  0  0  0  0999 V2000
  128.2170  119.6150   70.2490 N   0  0  0  0  0  0  0  0  0  0  0  0
  127.5880  119.5000   71.2130 C   0  0  0  0  0  0  0  0  0  0  0  0
  126.7940  119.3590   72.4380 C   0  0  0  0  0  0  0  0  0  0  0  0
  127.0850  120.1470   73.5790 C   0  0  0  0  0  0  0  0  0  0  0  0
  128.1850  121.1560   73.6330 C   0  0  0  0  0  0  0  0  0  0  0  0
  128.3480  122.0760   72.5960 C   0  0  0  0  0  0  0  0  0  0  0  0
  129.3720  123.0180   72.6400 C   0  0  0  0  0  0  0  0  0  0  0  0
  130.2720  123.0540   73.7170 C   0  0  0  0  0  0  0  0  0  0  0  0
  131.2980  123.9980   73.7910 N   0  0  0  0  0  0  0  0  0  0  0  0
  131.0450  125.3740   73.3190 C   0  0  0  0  0  0  0  0  0  0  0  0
  132.3350  126.1930   73.1010 C   0  0  0  0  0  0  0  0  0  0  0  0
  133.1200  126.1940   74.2850 O   0  0  0  0  0  0  0  0  0  0  0  0
  133.4920  124.8790   74.6680 C   0  0  0  0  0  0  0  0  0  0  0  0
  132.2310  124.0320   74.9350 C   0  0  0  0  0  0  0  0  0  0  0  0
  130.1020  122.1250   74.7520 C   0  0  0  0  0  0  0  0  0  0  0  0
  129.0760  121.1860   74.7100 C   0  0  0  0  0  0  0  0  0  0  0  0
  126.2970  119.9810   74.7240 C   0  0  0  0  0  0  0  0  0  0  0  0
  125.2290  119.0790   74.7220 C   0  0  0  0  0  0  0  0  0  0  0  0
  124.3380  118.8850   75.9080 C   0  0  0  0  0  0  0  0  0  0  0  0
  124.2220  119.8810   76.8840 C   0  0  0  0  0  0  0  0  0  0  0  0
  123.3820  119.7150   77.9820 C   0  0  0  0  0  0  0  0  0  0  0  0
  122.6360  118.5380   78.1530 C   0  0  0  0  0  0  0  0  0  0  0  0
  121.7650  118.3690   79.2350 N   0  0  0  0  0  0  0  0  0  0  0  0
  120.6420  117.4130   79.1340 C   0  0  0  0  0  0  0  0  0  0  0  0
  119.5610  117.6130   80.2180 C   0  0  0  0  0  0  0  0  0  0  0  0
  120.1520  117.5690   81.5070 O   0  0  0  0  0  0  0  0  0  0  0  0
  121.1200  118.5930   81.6700 C   0  0  0  0  0  0  0  0  0  0  0  0
  122.2470  118.4260   80.6290 C   0  0  0  0  0  0  0  0  0  0  0  0
  122.7500  117.5450   77.1690 C   0  0  0  0  0  0  0  0  0  0  0  0
  123.5870  117.7140   76.0700 C   0  0  0  0  0  0  0  0  0  0  0  0
  124.9510  118.3250   73.6280 N   0  0  0  0  0  0  0  0  0  0  0  0
  125.7200  118.4450   72.5200 C   0  0  0  0  0  0  0  0  0  0  0  0
  125.2170  117.3800   71.1850 S   0  0  0  0  0  0  0  0  0  0  0  0
  123.8900  116.3070   71.8100 C   0  0  0  0  0  0  0  0  0  0  0  0
  122.7520  117.1080   72.4430 C   0  0  0  0  0  0  0  0  0  0  0  0
  121.8750  116.5160   73.0760 O   0  0  0  0  0  0  0  0  0  0  0  0
  122.8000  118.4430   72.2440 N   0  0  0  0  0  0  0  0  0  0  0  0
  121.9070  119.3970   72.7120 C   0  0  0  0  0  0  0  0  0  0  0  0
  121.6910  119.6350   74.0680 C   0  0  0  0  0  0  0  0  0  0  0  0
  120.7500  120.6380   74.1100 C   0  0  0  0  0  0  0  0  0  0  0  0
  120.4180  120.9860   72.8450 O   0  0  0  0  0  0  0  0  0  0  0  0
  121.1600  120.1930   71.9660 N   0  0  0  0  0  0  0  0  0  0  0  0
  1  2  3  0
  2  3  1  0
  3  4  2  0
  4  5  1  0
  5  6  2  0
  6  7  1  0
  7  8  2  0
  8  9  1  0
  9 10  1  0
 10 11  1  0
 11 12  1  0
 12 13  1  0
 13 14  1  0
  8 15  1  0
 15 16  2  0
  4 17  1  0
 17 18  2  0
 18 19  1  0
 19 20  2  0
 20 21  1  0
 21 22  2  0
 22 23  1  0
 23 24  1  0
 24 25  1  0
 25 26  1  0
 26 27  1  0
 27 28  1  0
 22 29  1  0
 29 30  2  0
 18 31  1  0
 31 32  2  0
 32 33  1  0
 33 34  1  0
 34 35  1  0
 35 36  2  0
 35 37  1  0
 37 38  1  0
 38 39  1  0
 39 40  2  0
 40 41  1  0
 41 42  1  0
 32  3  1  0
 42 38  2  0
 16  5  1  0
 30 19  1  0
 14  9  1  0
 28 23  1  0
M  END
>  <Binding energies>  (10) 
[-8.22]

>  <Ligand effiencies>  (10) 
[-0.19116279069767445]

>  <Interactions>  (10) 
["V-A:VAL:458:CG2:4085, V-A:HIS:456:CD2:4066, V-B:GLY:544:CA:9886, V-B:GLU:543:C:9874, V-B:LYS:547:CE:9922, V-A:GLY:544:C:4910, V-A:HIS:456:CB:4063, V-A:TYR:484:CB:4339, V-A:HIS:456:CG:4064, V-A:LYS:471:CE:4218, V-B:PHE:548:CB:9932, V-B:PHE:548:CD2:9935, V-B:PHE:548:CA:9930, V-B:PHE:548:CG:9933, V-B:PHE:548:C:9928, V-A:HIS:456:C:4059, V-B:VAL:542:CG1:9871, H-B:ARG:356:NE:8092, V-B:ARG:356:CB:8089, V-B:PHE:548:CE2:9937, H-A:TYR:484:N:4338, V-B:LYS:547:CA:9917, H-B:GLU:357:N:8105, V-B:ARG:356:CD:8091, V-A:TYR:484:CA:4337, V-B:ILE:546:C:9906, V-A:HIS:456:CA:4061, V-B:GLU:357:CB:8106, V-B:SER:549:C:9940, V-B:ILE:546:CG2:9911"]

$$$$
2c_Ghoteimi_2023
     RDKit          3D

 42 47  0  0  0  0  0  0  0  0999 V2000
  131.1930  126.0750   54.8040 N   0  0  0  0  0  0  0  0  0  0  0  0
  130.5010  126.7450   55.4430 C   0  0  0  0  0  0  0  0  0  0  0  0
  129.6240  127.5910   56.2580 C   0  0  0  0  0  0  0  0  0  0  0  0
  129.1340  127.1310   57.5060 C   0  0  0  0  0  0  0  0  0  0  0  0
  129.4530  125.7900   58.0820 C   0  0  0  0  0  0  0  0  0  0  0  0
  128.7780  124.6540   57.6320 C   0  0  0  0  0  0  0  0  0  0  0  0
  129.0720  123.4000   58.1600 C   0  0  0  0  0  0  0  0  0  0  0  0
  130.0410  123.2490   59.1640 C   0  0  0  0  0  0  0  0  0  0  0  0
  130.3670  121.9980   59.6940 N   0  0  0  0  0  0  0  0  0  0  0  0
  131.7700  121.7080   60.0510 C   0  0  0  0  0  0  0  0  0  0  0  0
  132.0500  120.2030   60.2480 C   0  0  0  0  0  0  0  0  0  0  0  0
  131.1600  119.6650   61.2140 O   0  0  0  0  0  0  0  0  0  0  0  0
  129.8050  119.8090   60.8170 C   0  0  0  0  0  0  0  0  0  0  0  0
  129.4660  121.3030   60.6340 C   0  0  0  0  0  0  0  0  0  0  0  0
  130.7110  124.3960   59.6130 C   0  0  0  0  0  0  0  0  0  0  0  0
  130.4170  125.6490   59.0820 C   0  0  0  0  0  0  0  0  0  0  0  0
  128.3020  127.9790   58.2490 C   0  0  0  0  0  0  0  0  0  0  0  0
  127.9880  129.2560   57.7760 C   0  0  0  0  0  0  0  0  0  0  0  0
  127.1190  130.2040   58.5380 C   0  0  0  0  0  0  0  0  0  0  0  0
  127.6580  131.0230   59.5360 C   0  0  0  0  0  0  0  0  0  0  0  0
  126.8550  131.9120   60.2460 C   0  0  0  0  0  0  0  0  0  0  0  0
  125.4770  132.0060   59.9920 C   0  0  0  0  0  0  0  0  0  0  0  0
  124.6610  132.9110   60.6780 N   0  0  0  0  0  0  0  0  0  0  0  0
  124.2930  132.6500   62.0850 C   0  0  0  0  0  0  0  0  0  0  0  0
  123.1050  133.5000   62.5820 C   0  0  0  0  0  0  0  0  0  0  0  0
  123.3760  134.8770   62.3800 O   0  0  0  0  0  0  0  0  0  0  0  0
  123.5720  135.1720   61.0070 C   0  0  0  0  0  0  0  0  0  0  0  0
  124.7700  134.3690   60.4580 C   0  0  0  0  0  0  0  0  0  0  0  0
  124.9440  131.1930   58.9820 C   0  0  0  0  0  0  0  0  0  0  0  0
  125.7480  130.3060   58.2720 C   0  0  0  0  0  0  0  0  0  0  0  0
  128.4610  129.6950   56.5810 N   0  0  0  0  0  0  0  0  0  0  0  0
  129.2410  128.8830   55.8300 C   0  0  0  0  0  0  0  0  0  0  0  0
  129.7600  129.6140   54.2940 S   0  0  0  0  0  0  0  0  0  0  0  0
  129.8680  131.4100   54.5540 C   0  0  0  0  0  0  0  0  0  0  0  0
  130.4640  131.7580   55.9190 C   0  0  0  0  0  0  0  0  0  0  0  0
  130.0540  132.7500   56.5230 O   0  0  0  0  0  0  0  0  0  0  0  0
  131.4270  130.9220   56.3640 N   0  0  0  0  0  0  0  0  0  0  0  0
  132.1090  131.0080   57.5690 C   0  0  0  0  0  0  0  0  0  0  0  0
  131.6030  131.0340   58.7830 N   0  0  0  0  0  0  0  0  0  0  0  0
  132.5460  131.1150   59.7000 C   0  0  0  0  0  0  0  0  0  0  0  0
  133.8560  131.1580   59.2330 C   0  0  0  0  0  0  0  0  0  0  0  0
  133.8400  131.0860   57.4960 S   0  0  0  0  0  0  0  0  0  0  0  0
  1  2  3  0
  2  3  1  0
  3  4  2  0
  4  5  1  0
  5  6  2  0
  6  7  1  0
  7  8  2  0
  8  9  1  0
  9 10  1  0
 10 11  1  0
 11 12  1  0
 12 13  1  0
 13 14  1  0
  8 15  1  0
 15 16  2  0
  4 17  1  0
 17 18  2  0
 18 19  1  0
 19 20  2  0
 20 21  1  0
 21 22  2  0
 22 23  1  0
 23 24  1  0
 24 25  1  0
 25 26  1  0
 26 27  1  0
 27 28  1  0
 22 29  1  0
 29 30  2  0
 18 31  1  0
 31 32  2  0
 32 33  1  0
 33 34  1  0
 34 35  1  0
 35 36  2  0
 35 37  1  0
 37 38  1  0
 38 39  2  0
 39 40  1  0
 40 41  2  0
 41 42  1  0
 32  3  1  0
 42 38  1  0
 16  5  1  0
 30 19  1  0
 14  9  1  0
 28 23  1  0
M  END
>  <Binding energies>  (11) 
[-7.81]

>  <Ligand effiencies>  (11) 
[-0.18162790697674416]

>  <Interactions>  (11) 
["V-A:TYR:531:CE2:4791, H-A:TYR:539:N:4868, V-A:TYR:539:CZ:4875, V-A:PRO:540:CB:4883, V-A:LEU:363:CD1:3187, V-A:TYR:531:CZ:4792, V-A:LEU:363:CA:3183, V-A:ILE:538:CA:4858, H-A:TYR:531:OH:4793, V-A:PRO:540:CA:4881, V-B:TYR:539:C:9839, V-A:TYR:531:CE1:4790, V-B:TYR:539:CD2:9846, H-B:TYR:539:OH:9850, V-B:TYR:539:CE2:9848, V-A:TYR:539:CE2:4874, V-A:ASP:366:CG:3211, V-A:ASN:362:C:3170, V-A:ASN:362:CB:3174, V-B:ALA:541:CB:9864, V-A:TYR:539:CD2:4872, V-B:ILE:369:CG2:8209, V-B:ILE:369:CD1:8211, V-B:TRP:381:CZ2:8342, V-B:TRP:381:CH2:8344, V-B:LEU:475:CD2:9231, V-A:TRP:381:CZ2:3368, V-A:PRO:482:CG:4325, V-A:PRO:482:CB:4324, V-A:TRP:381:CH2:3370, V-A:ASP:366:CB:3210, V-A:LEU:475:CD2:4257, V-B:GLY:454:CA:9021, V-A:LEU:363:CB:3185, V-B:SER:385:CA:8379, V-B:SER:385:C:8377, V-B:GLY:453:C:9014, V-B:ALA:541:CA:9862"]

$$$$
2j_Grossjean_2025
     RDKit          3D

 23 24  0  0  0  0  0  0  0  0999 V2000
  128.8040  132.5720   59.4800 C   0  0  0  0  0  0  0  0  0  0  0  0
  128.1590  131.8850   58.2900 C   0  0  0  0  0  0  0  0  0  0  0  0
  126.9910  131.1380   58.4240 C   0  0  0  0  0  0  0  0  0  0  0  0
  126.4300  130.5250   57.2940 C   0  0  0  0  0  0  0  0  0  0  0  0
  125.1380  129.7030   57.4600 C   0  0  0  0  0  0  0  0  0  0  0  0
  125.4220  128.4010   57.4560 F   0  0  0  0  0  0  0  0  0  0  0  0
  124.5440  130.0130   58.6130 F   0  0  0  0  0  0  0  0  0  0  0  0
  124.2560  129.9250   56.4820 F   0  0  0  0  0  0  0  0  0  0  0  0
  127.0800  130.6870   56.0440 C   0  0  0  0  0  0  0  0  0  0  0  0
  126.5390  130.0680   54.8300 C   0  0  0  0  0  0  0  0  0  0  0  0
  126.1110  129.5800   53.8720 N   0  0  0  0  0  0  0  0  0  0  0  0
  128.2630  131.4630   56.0000 C   0  0  0  0  0  0  0  0  0  0  0  0
  129.1630  131.7360   54.4800 S   0  0  0  0  0  0  0  0  0  0  0  0
  130.9220  131.3490   54.7760 C   0  0  0  0  0  0  0  0  0  0  0  0
  131.4620  131.8020   56.1400 C   0  0  0  0  0  0  0  0  0  0  0  0
  131.3750  132.9810   56.4920 O   0  0  0  0  0  0  0  0  0  0  0  0
  132.0290  130.8230   56.8790 N   0  0  0  0  0  0  0  0  0  0  0  0
  132.5910  130.9550   58.1420 C   0  0  0  0  0  0  0  0  0  0  0  0
  133.8590  131.1300   58.4470 N   0  0  0  0  0  0  0  0  0  0  0  0
  134.0370  131.2190   59.7500 C   0  0  0  0  0  0  0  0  0  0  0  0
  132.8940  131.1150   60.5360 C   0  0  0  0  0  0  0  0  0  0  0  0
  131.5150  130.8890   59.5010 S   0  0  0  0  0  0  0  0  0  0  0  0
  128.7880  132.0500   57.1050 N   0  0  0  0  0  0  0  0  0  0  0  0
  1  2  1  0
  2  3  2  0
  3  4  1  0
  4  5  1  0
  5  6  1  0
  5  7  1  0
  5  8  1  0
  4  9  2  0
  9 10  1  0
 10 11  3  0
  9 12  1  0
 12 13  1  0
 13 14  1  0
 14 15  1  0
 15 16  2  0
 15 17  1  0
 17 18  1  0
 18 19  2  0
 19 20  1  0
 20 21  2  0
 21 22  1  0
 12 23  2  0
 23  2  1  0
 22 18  1  0
M  END
>  <Binding energies>  (12) 
[-6.78]

>  <Ligand effiencies>  (12) 
[-0.28250000000000003]

>  <Interactions>  (12) 
["V-A:TYR:531:CE2:4791, V-B:ASP:366:CG:8185, V-A:PRO:540:N:4882, H-A:TYR:539:N:4868, V-A:TYR:539:CE1:4873, V-A:TYR:539:CZ:4875, V-A:PRO:540:CB:4883, V-A:ILE:538:CG2:4861, V-A:TYR:531:CZ:4792, V-A:LEU:363:CA:3183, V-A:ILE:538:CA:4858, V-A:ILE:538:CB:4860, V-B:ASP:366:CB:8184, H-A:TYR:531:OH:4793, V-A:MET:535:CG:4831, V-A:PRO:540:CA:4881, H-A:LEU:363:N:3184, V-B:TYR:531:CZ:9766, V-B:TYR:531:CE1:9764, H-B:TYR:531:OH:9767, V-A:TYR:539:C:4865, V-A:TYR:539:CE2:4874, V-A:ASP:366:CG:3211, V-A:ASN:362:C:3170, V-A:ASN:362:CB:3174, H-A:ASP:366:OD2:3213, V-A:TYR:539:CD1:4871, V-A:TYR:539:CD2:4872, V-B:ASP:366:CA:8182, V-A:ASN:362:CA:3172, H-B:ASN:370:ND2:8220, V-B:ASP:366:C:8180"]

$$$$
3ab_Grossjean_2025
     RDKit          3D

 33 35  0  0  0  0  0  0  0  0999 V2000
  132.1350  131.8750   55.8630 C   0  0  0  0  0  0  0  0  0  0  0  0
  130.8650  132.2690   55.3630 O   0  0  0  0  0  0  0  0  0  0  0  0
  129.7350  132.0620   56.0850 C   0  0  0  0  0  0  0  0  0  0  0  0
  129.2270  132.9170   56.8150 O   0  0  0  0  0  0  0  0  0  0  0  0
  129.1600  130.6860   55.9040 C   0  0  0  0  0  0  0  0  0  0  0  0
  129.7010  129.5640   56.5490 C   0  0  0  0  0  0  0  0  0  0  0  0
  129.1470  128.3010   56.3640 C   0  0  0  0  0  0  0  0  0  0  0  0
  128.0340  128.1370   55.5230 C   0  0  0  0  0  0  0  0  0  0  0  0
  127.3900  126.9110   55.2680 N   0  0  0  0  0  0  0  0  0  0  0  0
  127.9140  125.6880   55.0400 C   0  0  0  0  0  0  0  0  0  0  0  0
  129.1150  125.4200   55.0010 O   0  0  0  0  0  0  0  0  0  0  0  0
  126.8950  124.5700   54.8150 C   0  0  0  0  0  0  0  0  0  0  0  0
  127.4480  122.9870   55.5160 S   0  0  0  0  0  0  0  0  0  0  0  0
  127.5330  123.1870   57.2840 C   0  0  0  0  0  0  0  0  0  0  0  0
  128.7330  122.8440   57.8100 N   0  0  0  0  0  0  0  0  0  0  0  0
  128.9410  122.9520   59.1480 C   0  0  0  0  0  0  0  0  0  0  0  0
  130.2970  122.5560   59.6500 C   0  0  0  0  0  0  0  0  0  0  0  0
  131.3950  123.4200   59.5120 C   0  0  0  0  0  0  0  0  0  0  0  0
  132.6570  123.0580   59.9770 C   0  0  0  0  0  0  0  0  0  0  0  0
  132.8380  121.8210   60.5880 C   0  0  0  0  0  0  0  0  0  0  0  0
  131.7680  120.9440   60.7340 C   0  0  0  0  0  0  0  0  0  0  0  0
  130.5090  121.3110   60.2670 C   0  0  0  0  0  0  0  0  0  0  0  0
  127.9200  123.3950   59.9970 C   0  0  0  0  0  0  0  0  0  0  0  0
  126.6630  123.7370   59.4780 C   0  0  0  0  0  0  0  0  0  0  0  0
  125.5650  124.2140   60.4480 C   0  0  0  0  0  0  0  0  0  0  0  0
  124.3330  123.9620   59.9990 F   0  0  0  0  0  0  0  0  0  0  0  0
  125.6920  123.6010   61.6260 F   0  0  0  0  0  0  0  0  0  0  0  0
  125.6630  125.5310   60.6350 F   0  0  0  0  0  0  0  0  0  0  0  0
  126.4530  123.6240   58.0810 C   0  0  0  0  0  0  0  0  0  0  0  0
  125.1410  123.9140   57.4950 C   0  0  0  0  0  0  0  0  0  0  0  0
  124.1050  124.1440   57.0350 N   0  0  0  0  0  0  0  0  0  0  0  0
  127.4900  129.2520   54.8850 C   0  0  0  0  0  0  0  0  0  0  0  0
  128.0470  130.5140   55.0710 C   0  0  0  0  0  0  0  0  0  0  0  0
  1  2  1  0
  2  3  1  0
  3  4  2  0
  3  5  1  0
  5  6  2  0
  6  7  1  0
  7  8  2  0
  8  9  1  0
  9 10  1  0
 10 11  2  0
 10 12  1  0
 12 13  1  0
 13 14  1  0
 14 15  2  0
 15 16  1  0
 16 17  1  0
 17 18  2  0
 18 19  1  0
 19 20  2  0
 20 21  1  0
 21 22  2  0
 16 23  2  0
 23 24  1  0
 24 25  1  0
 25 26  1  0
 25 27  1  0
 25 28  1  0
 24 29  2  0
 29 30  1  0
 30 31  3  0
  8 32  1  0
 32 33  2  0
 33  5  1  0
 29 14  1  0
 22 17  1  0
M  END
>  <Binding energies>  (13) 
[-9.05]

>  <Ligand effiencies>  (13) 
[-0.2661764705882353]

>  <Interactions>  (13) 
["V-A:TYR:531:CE2:4791, V-B:ASP:366:CG:8185, V-A:PRO:540:CD:4885, H-A:TYR:539:N:4868, V-A:TYR:539:CE1:4873, V-A:ILE:538:CG2:4861, V-A:ILE:538:CB:4860, V-B:TYR:539:C:9839, H-B:TYR:539:N:9842, V-B:MET:535:CG:9805, V-B:PRO:540:CB:9857, V-B:PRO:540:CA:9855, V-B:PRO:540:N:9856, V-B:TYR:539:CD2:9846, V-B:TYR:539:CE2:9848, H-B:MET:535:SD:9806, H-B:TYR:531:OH:9767, V-A:TYR:539:C:4865, V-B:PRO:540:C:9853, V-A:ILE:369:CG2:3235, V-A:LEU:475:CD2:4257, V-B:ALA:541:C:9860, V-B:ALA:541:CA:9862"]

$$$$
3ac_Grossjean_2025
     RDKit          3D

 31 33  0  0  0  0  0  0  0  0999 V2000
  125.5910  123.9460   62.4360 C   0  0  0  0  0  0  0  0  0  0  0  0
  124.5400  123.7050   61.5050 O   0  0  0  0  0  0  0  0  0  0  0  0
  124.7650  123.9290   60.1600 C   0  0  0  0  0  0  0  0  0  0  0  0
  126.0950  124.0860   59.7700 C   0  0  0  0  0  0  0  0  0  0  0  0
  126.4190  124.3120   58.4360 C   0  0  0  0  0  0  0  0  0  0  0  0
  125.4140  124.3920   57.4710 C   0  0  0  0  0  0  0  0  0  0  0  0
  125.8410  124.6010   56.1460 N   0  0  0  0  0  0  0  0  0  0  0  0
  126.3890  123.7230   55.2790 C   0  0  0  0  0  0  0  0  0  0  0  0
  126.5750  122.5260   55.5010 O   0  0  0  0  0  0  0  0  0  0  0  0
  126.7930  124.3010   53.9220 C   0  0  0  0  0  0  0  0  0  0  0  0
  128.5530  124.7600   53.8660 S   0  0  0  0  0  0  0  0  0  0  0  0
  128.8710  125.9600   55.1460 C   0  0  0  0  0  0  0  0  0  0  0  0
  128.8800  127.2360   54.6910 N   0  0  0  0  0  0  0  0  0  0  0  0
  129.1040  128.2610   55.5530 C   0  0  0  0  0  0  0  0  0  0  0  0
  129.1040  129.6410   54.9670 C   0  0  0  0  0  0  0  0  0  0  0  0
  130.1240  130.5550   55.2820 C   0  0  0  0  0  0  0  0  0  0  0  0
  130.1330  131.8350   54.7370 C   0  0  0  0  0  0  0  0  0  0  0  0
  129.1190  132.2230   53.8680 C   0  0  0  0  0  0  0  0  0  0  0  0
  128.0940  131.3400   53.5440 C   0  0  0  0  0  0  0  0  0  0  0  0
  128.0880  130.0600   54.0910 C   0  0  0  0  0  0  0  0  0  0  0  0
  129.3430  128.0170   56.9090 C   0  0  0  0  0  0  0  0  0  0  0  0
  129.3620  126.7040   57.4020 C   0  0  0  0  0  0  0  0  0  0  0  0
  129.6360  126.4800   58.9020 C   0  0  0  0  0  0  0  0  0  0  0  0
  129.9000  127.6130   59.5550 F   0  0  0  0  0  0  0  0  0  0  0  0
  128.5740  125.9240   59.4880 F   0  0  0  0  0  0  0  0  0  0  0  0
  130.6860  125.6720   59.0550 F   0  0  0  0  0  0  0  0  0  0  0  0
  129.1340  125.6370   56.4980 C   0  0  0  0  0  0  0  0  0  0  0  0
  129.2200  124.2470   56.9510 C   0  0  0  0  0  0  0  0  0  0  0  0
  129.2880  123.1480   57.3090 N   0  0  0  0  0  0  0  0  0  0  0  0
  124.0740  124.2270   57.8540 C   0  0  0  0  0  0  0  0  0  0  0  0
  123.7530  124.0010   59.1900 C   0  0  0  0  0  0  0  0  0  0  0  0
  1  2  1  0
  2  3  1  0
  3  4  2  0
  4  5  1  0
  5  6  2  0
  6  7  1  0
  7  8  1  0
  8  9  2  0
  8 10  1  0
 10 11  1  0
 11 12  1  0
 12 13  2  0
 13 14  1  0
 14 15  1  0
 15 16  2  0
 16 17  1  0
 17 18  2  0
 18 19  1  0
 19 20  2  0
 14 21  2  0
 21 22  1  0
 22 23  1  0
 23 24  1  0
 23 25  1  0
 23 26  1  0
 22 27  2  0
 27 28  1  0
 28 29  3  0
  6 30  1  0
 30 31  2  0
 31  3  1  0
 27 12  1  0
 20 15  1  0
M  END
>  <Binding energies>  (14) 
[-7.98]

>  <Ligand effiencies>  (14) 
[-0.249375]

>  <Interactions>  (14) 
["V-B:ASP:366:CG:8185, V-A:VAL:537:C:4848, V-A:TYR:539:CE1:4873, V-A:ILE:538:CG2:4861, V-A:ILE:538:CA:4858, V-A:ILE:538:CB:4860, V-B:MET:535:CE:9807, V-B:TYR:531:CZ:9766, H-B:TYR:539:N:9842, V-B:MET:535:CG:9805, V-B:MET:535:CB:9804, V-B:PRO:540:CB:9857, V-B:PRO:540:CA:9855, V-B:ASN:362:C:8144, V-B:TYR:539:CZ:9849, H-B:ALA:541:N:9863, V-B:ILE:538:CG2:9835, V-B:ILE:538:CB:9834, V-B:ILE:538:CA:9832, V-B:TYR:539:CE2:9848, V-B:TYR:531:CE2:9765, H-B:TYR:531:OH:9767, V-B:GLU:543:CD:9880, H-B:ARG:545:NH2:9900, V-B:ARG:545:CZ:9898, V-A:TYR:539:CD1:4871, V-B:LEU:363:CA:8157, V-A:ILE:538:C:4856, V-B:ALA:541:C:9860"]

$$$$
3af_Grossjean_2025
     RDKit          3D

 29 31  0  0  0  0  0  0  0  0999 V2000
  133.7580  127.3350   74.3080 N   0  0  0  0  0  0  0  0  0  0  0  0
  133.0230  126.4580   74.1370 C   0  0  0  0  0  0  0  0  0  0  0  0
  132.0930  125.3460   73.9220 C   0  0  0  0  0  0  0  0  0  0  0  0
  132.3340  124.0790   74.5060 C   0  0  0  0  0  0  0  0  0  0  0  0
  133.5380  123.8040   75.4290 C   0  0  0  0  0  0  0  0  0  0  0  0
  133.8090  122.5020   75.5520 F   0  0  0  0  0  0  0  0  0  0  0  0
  134.6280  124.3980   74.9440 F   0  0  0  0  0  0  0  0  0  0  0  0
  133.2950  124.2760   76.6520 F   0  0  0  0  0  0  0  0  0  0  0  0
  131.4440  123.0310   74.2260 C   0  0  0  0  0  0  0  0  0  0  0  0
  130.3460  123.2420   73.3850 C   0  0  0  0  0  0  0  0  0  0  0  0
  129.3750  122.1530   73.0380 C   0  0  0  0  0  0  0  0  0  0  0  0
  128.8180  121.3410   74.0390 C   0  0  0  0  0  0  0  0  0  0  0  0
  127.9140  120.3310   73.7230 C   0  0  0  0  0  0  0  0  0  0  0  0
  127.5540  120.1180   72.3970 C   0  0  0  0  0  0  0  0  0  0  0  0
  128.0890  120.9090   71.3850 C   0  0  0  0  0  0  0  0  0  0  0  0
  128.9920  121.9200   71.7060 C   0  0  0  0  0  0  0  0  0  0  0  0
  130.1210  124.4570   72.8240 N   0  0  0  0  0  0  0  0  0  0  0  0
  130.9530  125.4900   73.0980 C   0  0  0  0  0  0  0  0  0  0  0  0
  130.4880  127.0050   72.2840 S   0  0  0  0  0  0  0  0  0  0  0  0
  128.6720  127.0820   72.2350 C   0  0  0  0  0  0  0  0  0  0  0  0
  128.1370  128.3370   72.9250 C   0  0  0  0  0  0  0  0  0  0  0  0
  128.8030  129.3710   72.8860 O   0  0  0  0  0  0  0  0  0  0  0  0
  126.9450  128.1930   73.5430 N   0  0  0  0  0  0  0  0  0  0  0  0
  126.1900  129.1360   74.2670 C   0  0  0  0  0  0  0  0  0  0  0  0
  126.6530  130.3840   74.7240 C   0  0  0  0  0  0  0  0  0  0  0  0
  125.7920  131.2220   75.4360 C   0  0  0  0  0  0  0  0  0  0  0  0
  124.4870  130.7920   75.6740 C   0  0  0  0  0  0  0  0  0  0  0  0
  124.0150  129.5960   75.2450 N   0  0  0  0  0  0  0  0  0  0  0  0
  124.8640  128.7920   74.5540 C   0  0  0  0  0  0  0  0  0  0  0  0
  1  2  3  0
  2  3  1  0
  3  4  2  0
  4  5  1  0
  5  6  1  0
  5  7  1  0
  5  8  1  0
  4  9  1  0
  9 10  2  0
 10 11  1  0
 11 12  2  0
 12 13  1  0
 13 14  2  0
 14 15  1  0
 15 16  2  0
 10 17  1  0
 17 18  2  0
 18 19  1  0
 19 20  1  0
 20 21  1  0
 21 22  2  0
 21 23  1  0
 23 24  1  0
 24 25  2  0
 25 26  1  0
 26 27  2  0
 27 28  1  0
 28 29  2  0
 18  3  1  0
 29 24  1  0
 16 11  1  0
M  END
>  <Binding energies>  (15) 
[-9.1]

>  <Ligand effiencies>  (15) 
[-0.30333333333333334]

>  <Interactions>  (15) 
["V-A:VAL:458:CG2:4085, V-A:HIS:456:CD2:4066, V-B:GLY:544:CA:9886, V-B:GLU:543:C:9874, H-B:LYS:547:NZ:9923, V-A:LYS:547:CE:4948, V-A:LYS:547:CD:4947, V-B:LYS:547:CE:9922, V-A:LYS:471:CD:4217, H-A:LYS:547:NZ:4949, V-B:GLY:544:C:9884, V-B:LYS:471:CD:9191, V-B:HIS:456:CD2:9040, H-B:GLY:544:O:9885, V-B:VAL:458:CG2:9059, V-A:ASP:473:CG:4238, V-A:HIS:456:CB:4063, V-A:TYR:484:CB:4339, V-A:HIS:456:CG:4064, V-B:LYS:471:CE:9192, V-A:LYS:471:CE:4218, V-B:HIS:456:CG:9038, V-B:HIS:456:CB:9037, V-B:HIS:456:C:9033, V-A:ASP:473:CB:4237, V-A:TYR:484:CG:4340, V-A:VAL:457:C:4071, V-A:HIS:456:C:4059, V-A:LYS:471:CG:4216, V-B:GLU:543:CA:9876, V-A:TYR:484:CD1:4341, V-B:ASP:473:CG:9212, V-B:LYS:471:CG:9190, V-B:HIS:456:CA:9035, V-A:HIS:456:CA:4061, H-B:VAL:457:N:9048, V-A:LYS:471:CB:4215, V-A:VAL:457:CA:4073, H-B:VAL:458:N:9056"]

$$$$
3ag_Grossjean_2025
     RDKit          3D

 30 32  0  0  0  0  0  0  0  0999 V2000
  133.7460  122.8670   60.7790 N   0  0  0  0  0  0  0  0  0  0  0  0
  132.6420  122.9490   60.4380 C   0  0  0  0  0  0  0  0  0  0  0  0
  131.2450  123.0490   60.0080 C   0  0  0  0  0  0  0  0  0  0  0  0
  130.3250  122.0080   60.2870 C   0  0  0  0  0  0  0  0  0  0  0  0
  130.7090  120.7540   61.0960 C   0  0  0  0  0  0  0  0  0  0  0  0
  130.8800  121.0080   62.3950 F   0  0  0  0  0  0  0  0  0  0  0  0
  129.7490  119.8350   60.9900 F   0  0  0  0  0  0  0  0  0  0  0  0
  131.8510  120.2420   60.6360 F   0  0  0  0  0  0  0  0  0  0  0  0
  129.0120  122.1270   59.8080 C   0  0  0  0  0  0  0  0  0  0  0  0
  128.6300  123.2470   59.0610 C   0  0  0  0  0  0  0  0  0  0  0  0
  127.2430  123.4240   58.5230 C   0  0  0  0  0  0  0  0  0  0  0  0
  126.2640  124.0950   59.2720 C   0  0  0  0  0  0  0  0  0  0  0  0
  124.9730  124.2630   58.7780 C   0  0  0  0  0  0  0  0  0  0  0  0
  124.6430  123.7610   57.5240 C   0  0  0  0  0  0  0  0  0  0  0  0
  125.5950  123.0900   56.7620 C   0  0  0  0  0  0  0  0  0  0  0  0
  126.8830  122.9230   57.2590 C   0  0  0  0  0  0  0  0  0  0  0  0
  129.5120  124.2490   58.8060 N   0  0  0  0  0  0  0  0  0  0  0  0
  130.7800  124.1640   59.2760 C   0  0  0  0  0  0  0  0  0  0  0  0
  131.7910  125.5650   58.8490 S   0  0  0  0  0  0  0  0  0  0  0  0
  132.3370  125.3350   57.1310 C   0  0  0  0  0  0  0  0  0  0  0  0
  131.3090  125.8510   56.1230 C   0  0  0  0  0  0  0  0  0  0  0  0
  131.6380  126.0380   54.9510 O   0  0  0  0  0  0  0  0  0  0  0  0
  130.0690  126.0690   56.5940 N   0  0  0  0  0  0  0  0  0  0  0  0
  128.9280  126.5260   55.8020 C   0  0  0  0  0  0  0  0  0  0  0  0
  128.3820  125.4800   54.8360 C   0  0  0  0  0  0  0  0  0  0  0  0
  129.2580  124.7880   53.9950 C   0  0  0  0  0  0  0  0  0  0  0  0
  128.7670  123.8110   53.1330 C   0  0  0  0  0  0  0  0  0  0  0  0
  127.4040  123.5220   53.1220 C   0  0  0  0  0  0  0  0  0  0  0  0
  126.5280  124.1980   53.9680 C   0  0  0  0  0  0  0  0  0  0  0  0
  127.0180  125.1740   54.8310 C   0  0  0  0  0  0  0  0  0  0  0  0
  1  2  3  0
  2  3  1  0
  3  4  2  0
  4  5  1  0
  5  6  1  0
  5  7  1  0
  5  8  1  0
  4  9  1  0
  9 10  2  0
 10 11  1  0
 11 12  2  0
 12 13  1  0
 13 14  2  0
 14 15  1  0
 15 16  2  0
 10 17  1  0
 17 18  2  0
 18 19  1  0
 19 20  1  0
 20 21  1  0
 21 22  2  0
 21 23  1  0
 23 24  1  0
 24 25  1  0
 25 26  2  0
 26 27  1  0
 27 28  2  0
 28 29  1  0
 29 30  2  0
 18  3  1  0
 30 25  1  0
 16 11  1  0
M  END
>  <Binding energies>  (16) 
[-7.59]

>  <Ligand effiencies>  (16) 
[-0.24483870967741936]

>  <Interactions>  (16) 
["H-A:TYR:531:OH:4793, V-B:TYR:539:C:9839, V-B:PRO:540:CD:9859, V-B:MET:535:CG:9805, V-B:MET:535:CB:9804, V-B:TYR:539:CA:9841, V-B:PRO:540:CB:9857, V-B:PRO:540:CA:9855, V-B:TYR:539:CZ:9849, V-B:PRO:540:N:9856, V-B:ILE:538:CG2:9835, V-B:ILE:538:CB:9834, V-B:TYR:539:CE1:9847, V-B:ILE:538:CA:9832, V-A:TYR:531:CE1:4790, V-B:TYR:539:CD2:9846, H-B:TYR:539:OH:9850, V-B:TYR:539:CE2:9848, V-B:VAL:537:C:9822, V-A:ASP:366:CG:3211, V-B:ALA:541:CB:9864, V-A:TRP:381:CZ2:3368, V-A:PRO:482:CG:4325, V-A:PRO:482:CB:4324, V-A:TRP:381:CH2:3370, V-A:ASP:366:CB:3210, V-A:LEU:475:CD2:4257, V-B:ALA:541:CA:9862, V-A:LEU:475:CG:4255"]

$$$$
3bc_Grossjean_2025
     RDKit          3D

 28 30  0  0  0  0  0  0  0  0999 V2000
  124.9910  124.0040   61.7300 C   0  0  0  0  0  0  0  0  0  0  0  0
  126.2970  123.4500   61.6120 O   0  0  0  0  0  0  0  0  0  0  0  0
  126.9270  123.4660   60.3820 C   0  0  0  0  0  0  0  0  0  0  0  0
  126.2440  124.1000   59.3430 C   0  0  0  0  0  0  0  0  0  0  0  0
  126.7990  124.1670   58.0670 C   0  0  0  0  0  0  0  0  0  0  0  0
  128.0450  123.5910   57.8120 C   0  0  0  0  0  0  0  0  0  0  0  0
  128.5290  123.7200   56.4960 N   0  0  0  0  0  0  0  0  0  0  0  0
  127.9420  123.3650   55.3340 C   0  0  0  0  0  0  0  0  0  0  0  0
  126.8130  122.8810   55.2370 O   0  0  0  0  0  0  0  0  0  0  0  0
  128.7810  123.6480   54.0790 C   0  0  0  0  0  0  0  0  0  0  0  0
  129.0770  125.4130   53.7250 S   0  0  0  0  0  0  0  0  0  0  0  0
  129.6550  126.1780   55.2240 C   0  0  0  0  0  0  0  0  0  0  0  0
  130.5550  125.4290   55.9070 N   0  0  0  0  0  0  0  0  0  0  0  0
  131.0800  125.8960   57.0700 C   0  0  0  0  0  0  0  0  0  0  0  0
  132.0520  124.9970   57.7750 C   0  0  0  0  0  0  0  0  0  0  0  0
  133.3310  124.7710   57.2470 C   0  0  0  0  0  0  0  0  0  0  0  0
  134.2390  123.9380   57.8960 C   0  0  0  0  0  0  0  0  0  0  0  0
  133.8760  123.3170   59.0860 C   0  0  0  0  0  0  0  0  0  0  0  0
  132.6130  123.5220   59.6300 C   0  0  0  0  0  0  0  0  0  0  0  0
  131.7080  124.3550   58.9770 C   0  0  0  0  0  0  0  0  0  0  0  0
  130.7040  127.1440   57.5780 C   0  0  0  0  0  0  0  0  0  0  0  0
  129.7940  127.9390   56.8740 C   0  0  0  0  0  0  0  0  0  0  0  0
  129.4270  129.3030   57.4570 C   0  0  0  0  0  0  0  0  0  0  0  0
  129.2550  127.4620   55.6590 C   0  0  0  0  0  0  0  0  0  0  0  0
  128.3390  128.2980   54.8810 C   0  0  0  0  0  0  0  0  0  0  0  0
  127.6150  128.9600   54.2670 N   0  0  0  0  0  0  0  0  0  0  0  0
  128.7430  122.9640   58.8540 C   0  0  0  0  0  0  0  0  0  0  0  0
  128.1850  122.8990   60.1280 C   0  0  0  0  0  0  0  0  0  0  0  0
  1  2  1  0
  2  3  1  0
  3  4  2  0
  4  5  1  0
  5  6  2  0
  6  7  1  0
  7  8  1  0
  8  9  2  0
  8 10  1  0
 10 11  1  0
 11 12  1  0
 12 13  2  0
 13 14  1  0
 14 15  1  0
 15 16  2  0
 16 17  1  0
 17 18  2  0
 18 19  1  0
 19 20  2  0
 14 21  2  0
 21 22  1  0
 22 23  1  0
 22 24  2  0
 24 25  1  0
 25 26  3  0
  6 27  1  0
 27 28  2  0
 28  3  1  0
 24 12  1  0
 20 15  1  0
M  END
>  <Binding energies>  (17) 
[-7.82]

>  <Ligand effiencies>  (17) 
[-0.2696551724137931]

>  <Interactions>  (17) 
["V-B:TYR:539:C:9839, H-B:TYR:539:N:9842, V-B:PRO:540:CB:9857, V-B:PRO:540:CA:9855, V-B:TYR:539:CZ:9849, H-B:ALA:541:N:9863, V-B:TYR:539:CE1:9847, V-B:ASN:362:CB:8148, V-B:TYR:539:CD2:9846, H-B:TYR:539:OH:9850, V-B:TYR:539:CD1:9845, V-B:TYR:539:CE2:9848, V-A:ASP:366:CG:3211, V-A:ILE:369:CD1:3237, V-B:ARG:545:CZ:9898, V-B:PRO:540:C:9853, V-A:ILE:369:CG2:3235, V-A:ASP:366:CB:3210, V-A:ILE:369:CB:3234, V-A:ASP:366:CA:3208, V-A:ASP:366:C:3206"]

$$$$
3bd_Grossjean_2025
     RDKit          3D

 26 28  0  0  0  0  0  0  0  0999 V2000
  125.0960  130.8510   75.9470 C   0  0  0  0  0  0  0  0  0  0  0  0
  126.1950  130.6070   74.9140 C   0  0  0  0  0  0  0  0  0  0  0  0
  127.0860  131.6510   74.6370 C   0  0  0  0  0  0  0  0  0  0  0  0
  128.1050  131.4680   73.6950 C   0  0  0  0  0  0  0  0  0  0  0  0
  129.0950  132.5420   73.3540 C   0  0  0  0  0  0  0  0  0  0  0  0
  129.7810  133.2330   74.3660 C   0  0  0  0  0  0  0  0  0  0  0  0
  130.7000  134.2320   74.0560 C   0  0  0  0  0  0  0  0  0  0  0  0
  130.9470  134.5560   72.7260 C   0  0  0  0  0  0  0  0  0  0  0  0
  130.2780  133.8880   71.7050 C   0  0  0  0  0  0  0  0  0  0  0  0
  129.3600  132.8910   72.0180 C   0  0  0  0  0  0  0  0  0  0  0  0
  128.2510  130.2810   73.0500 N   0  0  0  0  0  0  0  0  0  0  0  0
  127.3960  129.2590   73.3060 C   0  0  0  0  0  0  0  0  0  0  0  0
  127.6880  127.7580   72.3850 S   0  0  0  0  0  0  0  0  0  0  0  0
  129.4580  127.6810   71.9790 C   0  0  0  0  0  0  0  0  0  0  0  0
  130.2730  127.0220   73.0920 C   0  0  0  0  0  0  0  0  0  0  0  0
  129.8280  127.0230   74.2400 O   0  0  0  0  0  0  0  0  0  0  0  0
  131.4560  126.4880   72.7150 N   0  0  0  0  0  0  0  0  0  0  0  0
  132.4050  125.8000   73.4930 C   0  0  0  0  0  0  0  0  0  0  0  0
  131.9590  124.6290   74.1130 C   0  0  0  0  0  0  0  0  0  0  0  0
  132.8250  123.8850   74.9100 C   0  0  0  0  0  0  0  0  0  0  0  0
  134.1350  124.3170   75.0960 C   0  0  0  0  0  0  0  0  0  0  0  0
  134.5870  125.4890   74.4950 C   0  0  0  0  0  0  0  0  0  0  0  0
  133.7250  126.2350   73.6960 C   0  0  0  0  0  0  0  0  0  0  0  0
  126.3420  129.3780   74.2370 C   0  0  0  0  0  0  0  0  0  0  0  0
  125.4260  128.2650   74.5060 C   0  0  0  0  0  0  0  0  0  0  0  0
  124.7030  127.3880   74.7200 N   0  0  0  0  0  0  0  0  0  0  0  0
  1  2  1  0
  2  3  2  0
  3  4  1  0
  4  5  1  0
  5  6  2  0
  6  7  1  0
  7  8  2  0
  8  9  1  0
  9 10  2  0
  4 11  2  0
 11 12  1  0
 12 13  1  0
 13 14  1  0
 14 15  1  0
 15 16  2  0
 15 17  1  0
 17 18  1  0
 18 19  2  0
 19 20  1  0
 20 21  2  0
 21 22  1  0
 22 23  2  0
 12 24  2  0
 24 25  1  0
 25 26  3  0
 24  2  1  0
 10  5  1  0
 23 18  1  0
M  END
>  <Binding energies>  (18) 
[-9.1]

>  <Ligand effiencies>  (18) 
[-0.337037037037037]

>  <Interactions>  (18) 
["V-A:VAL:458:CG2:4085, V-A:HIS:456:CD2:4066, H-B:LYS:547:NZ:9923, V-A:LYS:547:CE:4948, H-A:GLY:544:O:4911, V-B:LYS:547:CE:9922, V-A:GLY:544:C:4910, H-A:LYS:547:NZ:4949, V-B:LYS:471:CD:9191, V-B:HIS:456:CD2:9040, V-A:GLY:544:CA:4912, V-B:LYS:547:CD:9921, V-B:VAL:458:CG2:9059, V-A:HIS:456:CB:4063, V-A:HIS:456:CG:4064, V-B:LYS:471:CE:9192, V-A:LYS:471:CE:4218, V-B:HIS:456:CG:9038, V-B:TYR:484:CG:9314, V-B:HIS:456:CB:9037, V-B:TYR:484:CB:9313, V-B:HIS:456:C:9033, V-A:VAL:457:C:4071, V-A:HIS:456:C:4059, V-A:GLU:543:C:4900, V-B:ASP:473:CG:9212, H-A:HIS:456:NE2:4069, V-B:LYS:471:CG:9190, V-A:HIS:456:CA:4061, V-A:VAL:457:CA:4073"]

$$$$
3be_Grossjean_2025
     RDKit          3D

 27 29  0  0  0  0  0  0  0  0999 V2000
  126.0380  129.7520   55.4770 C   0  0  0  0  0  0  0  0  0  0  0  0
  127.2330  130.3460   54.7570 C   0  0  0  0  0  0  0  0  0  0  0  0
  127.1130  130.9120   53.4860 C   0  0  0  0  0  0  0  0  0  0  0  0
  128.2560  131.4380   52.8820 C   0  0  0  0  0  0  0  0  0  0  0  0
  129.4790  131.3850   53.5570 C   0  0  0  0  0  0  0  0  0  0  0  0
  129.5280  130.8070   54.8300 C   0  0  0  0  0  0  0  0  0  0  0  0
  130.7900  130.7750   55.4530 N   0  0  0  0  0  0  0  0  0  0  0  0
  131.5550  131.8090   55.8660 C   0  0  0  0  0  0  0  0  0  0  0  0
  131.2500  132.9970   55.7470 O   0  0  0  0  0  0  0  0  0  0  0  0
  132.8840  131.4020   56.5220 C   0  0  0  0  0  0  0  0  0  0  0  0
  132.7880  131.0340   58.3070 S   0  0  0  0  0  0  0  0  0  0  0  0
  131.3530  130.0190   58.5850 C   0  0  0  0  0  0  0  0  0  0  0  0
  131.1470  129.0930   57.6170 N   0  0  0  0  0  0  0  0  0  0  0  0
  130.0870  128.2460   57.7050 C   0  0  0  0  0  0  0  0  0  0  0  0
  129.9210  127.2610   56.5850 C   0  0  0  0  0  0  0  0  0  0  0  0
  130.8720  126.2500   56.3730 C   0  0  0  0  0  0  0  0  0  0  0  0
  130.7260  125.3350   55.3350 C   0  0  0  0  0  0  0  0  0  0  0  0
  129.6240  125.4180   54.4910 C   0  0  0  0  0  0  0  0  0  0  0  0
  128.6680  126.4100   54.6790 C   0  0  0  0  0  0  0  0  0  0  0  0
  128.8180  127.3250   55.7180 C   0  0  0  0  0  0  0  0  0  0  0  0
  129.1990  128.3180   58.7830 C   0  0  0  0  0  0  0  0  0  0  0  0
  129.4110  129.2510   59.8030 C   0  0  0  0  0  0  0  0  0  0  0  0
  128.4250  129.2810   60.9690 C   0  0  0  0  0  0  0  0  0  0  0  0
  130.5190  130.1230   59.7210 C   0  0  0  0  0  0  0  0  0  0  0  0
  130.7910  131.0700   60.8040 C   0  0  0  0  0  0  0  0  0  0  0  0
  131.0050  131.8180   61.6620 N   0  0  0  0  0  0  0  0  0  0  0  0
  128.4130  130.2880   55.4250 N   0  0  0  0  0  0  0  0  0  0  0  0
  1  2  1  0
  2  3  2  0
  3  4  1  0
  4  5  2  0
  5  6  1  0
  6  7  1  0
  7  8  1  0
  8  9  2  0
  8 10  1  0
 10 11  1  0
 11 12  1  0
 12 13  2  0
 13 14  1  0
 14 15  1  0
 15 16  2  0
 16 17  1  0
 17 18  2  0
 18 19  1  0
 19 20  2  0
 14 21  2  0
 21 22  1  0
 22 23  1  0
 22 24  2  0
 24 25  1  0
 25 26  3  0
  6 27  2  0
 27  2  1  0
 24 12  1  0
 20 15  1  0
M  END
>  <Binding energies>  (19) 
[-8.35]

>  <Ligand effiencies>  (19) 
[-0.2982142857142857]

>  <Interactions>  (19) 
["V-A:TYR:531:CE2:4791, H-A:TYR:539:N:4868, V-A:TYR:539:CE1:4873, V-A:TYR:539:CZ:4875, V-A:PRO:540:CB:4883, V-A:ILE:538:CG2:4861, V-A:TYR:531:CZ:4792, V-A:ILE:538:CA:4858, V-A:ILE:538:CB:4860, V-B:MET:535:CE:9807, H-A:TYR:531:OH:4793, V-A:MET:535:CB:4830, V-A:MET:535:CG:4831, V-A:PRO:540:CA:4881, V-B:TYR:531:CE1:9764, V-B:TYR:539:CZ:9849, H-A:ALA:541:N:4889"]

$$$$
3bf_Grossjean_2025
     RDKit          3D

 26 28  0  0  0  0  0  0  0  0999 V2000
  126.3030  134.4220   61.0030 C   0  0  0  0  0  0  0  0  0  0  0  0
  126.8980  133.0790   60.5870 C   0  0  0  0  0  0  0  0  0  0  0  0
  128.2900  132.9450   60.5900 C   0  0  0  0  0  0  0  0  0  0  0  0
  128.8760  131.7260   60.2300 C   0  0  0  0  0  0  0  0  0  0  0  0
  130.3600  131.5110   60.2340 C   0  0  0  0  0  0  0  0  0  0  0  0
  131.0670  131.3730   59.0300 C   0  0  0  0  0  0  0  0  0  0  0  0
  132.4450  131.1730   59.0260 C   0  0  0  0  0  0  0  0  0  0  0  0
  133.1360  131.1070   60.2310 C   0  0  0  0  0  0  0  0  0  0  0  0
  132.4590  131.2400   61.4380 C   0  0  0  0  0  0  0  0  0  0  0  0
  131.0800  131.4390   61.4380 C   0  0  0  0  0  0  0  0  0  0  0  0
  128.1090  130.6620   59.8740 N   0  0  0  0  0  0  0  0  0  0  0  0
  126.7590  130.7840   59.8410 C   0  0  0  0  0  0  0  0  0  0  0  0
  125.9210  129.2930   59.3470 S   0  0  0  0  0  0  0  0  0  0  0  0
  125.0530  129.6270   57.7760 C   0  0  0  0  0  0  0  0  0  0  0  0
  125.9650  129.9460   56.5820 C   0  0  0  0  0  0  0  0  0  0  0  0
  125.6440  129.6160   55.4390 O   0  0  0  0  0  0  0  0  0  0  0  0
  127.0900  130.6240   56.8990 N   0  0  0  0  0  0  0  0  0  0  0  0
  128.1280  131.0560   56.0530 C   0  0  0  0  0  0  0  0  0  0  0  0
  128.0900  130.6230   54.7230 C   0  0  0  0  0  0  0  0  0  0  0  0
  129.0850  131.0280   53.8300 C   0  0  0  0  0  0  0  0  0  0  0  0
  130.0960  131.8680   54.2960 C   0  0  0  0  0  0  0  0  0  0  0  0
  130.1520  132.3130   55.5770 N   0  0  0  0  0  0  0  0  0  0  0  0
  129.1780  131.9110   56.4340 C   0  0  0  0  0  0  0  0  0  0  0  0
  126.1000  131.9770   60.2110 C   0  0  0  0  0  0  0  0  0  0  0  0
  124.6380  132.0800   60.2480 C   0  0  0  0  0  0  0  0  0  0  0  0
  123.4840  132.1630   60.2770 N   0  0  0  0  0  0  0  0  0  0  0  0
  1  2  1  0
  2  3  2  0
  3  4  1  0
  4  5  1  0
  5  6  2  0
  6  7  1  0
  7  8  2  0
  8  9  1  0
  9 10  2  0
  4 11  2  0
 11 12  1  0
 12 13  1  0
 13 14  1  0
 14 15  1  0
 15 16  2  0
 15 17  1  0
 17 18  1  0
 18 19  2  0
 19 20  1  0
 20 21  2  0
 21 22  1  0
 22 23  2  0
 12 24  2  0
 24 25  1  0
 25 26  3  0
 24  2  1  0
 10  5  1  0
 23 18  1  0
M  END
>  <Binding energies>  (20) 
[-8.21]

>  <Ligand effiencies>  (20) 
[-0.3040740740740741]

>  <Interactions>  (20) 
["V-B:ASP:366:CG:8185, V-A:PRO:540:N:4882, H-A:TYR:539:N:4868, V-A:TYR:539:CE1:4873, V-A:TYR:539:CZ:4875, V-A:PRO:540:CB:4883, V-A:ILE:538:CG2:4861, V-A:ILE:538:CA:4858, V-A:ILE:538:CB:4860, V-B:ASP:366:CB:8184, V-A:MET:535:CB:4830, V-A:MET:535:CG:4831, V-A:PRO:540:CA:4881, V-A:GLU:543:CD:4906, H-B:TYR:531:OH:9767, V-A:TYR:539:CE2:4874, V-A:ASP:366:CG:3211, V-A:ASN:362:C:3170, V-A:ASN:362:CB:3174, V-A:TYR:539:CD1:4871, V-A:TYR:539:CD2:4872, H-A:TYR:539:OH:4876, V-B:TRP:381:CH2:8344, V-B:LEU:475:CD2:9231, V-A:ALA:541:CB:4890, V-A:PRO:540:C:4879, V-A:ALA:541:CA:4888"]

$$$$
3bg_Grossjean_2025
     RDKit          3D

 27 29  0  0  0  0  0  0  0  0999 V2000
  134.6080  124.0000   58.7140 C   0  0  0  0  0  0  0  0  0  0  0  0
  133.0820  123.9700   58.6690 C   0  0  0  0  0  0  0  0  0  0  0  0
  132.4340  124.7280   57.6890 C   0  0  0  0  0  0  0  0  0  0  0  0
  131.0350  124.7220   57.6070 C   0  0  0  0  0  0  0  0  0  0  0  0
  130.2770  125.5050   56.5700 C   0  0  0  0  0  0  0  0  0  0  0  0
  130.6300  125.4390   55.2120 C   0  0  0  0  0  0  0  0  0  0  0  0
  129.9190  126.1470   54.2480 C   0  0  0  0  0  0  0  0  0  0  0  0
  128.8420  126.9400   54.6270 C   0  0  0  0  0  0  0  0  0  0  0  0
  128.4770  127.0340   55.9650 C   0  0  0  0  0  0  0  0  0  0  0  0
  129.1910  126.3250   56.9260 C   0  0  0  0  0  0  0  0  0  0  0  0
  130.2960  123.9690   58.4650 N   0  0  0  0  0  0  0  0  0  0  0  0
  130.9100  123.2260   59.4210 C   0  0  0  0  0  0  0  0  0  0  0  0
  129.8280  122.2570   60.4610 S   0  0  0  0  0  0  0  0  0  0  0  0
  128.7180  123.3970   61.3500 C   0  0  0  0  0  0  0  0  0  0  0  0
  127.3510  123.5090   60.6680 C   0  0  0  0  0  0  0  0  0  0  0  0
  126.3220  123.3800   61.3310 O   0  0  0  0  0  0  0  0  0  0  0  0
  127.3600  123.7250   59.3410 N   0  0  0  0  0  0  0  0  0  0  0  0
  126.1880  123.6850   58.4660 C   0  0  0  0  0  0  0  0  0  0  0  0
  126.5830  123.6220   56.9950 C   0  0  0  0  0  0  0  0  0  0  0  0
  127.8440  123.1420   56.6280 C   0  0  0  0  0  0  0  0  0  0  0  0
  128.2080  123.0940   55.2860 C   0  0  0  0  0  0  0  0  0  0  0  0
  127.3050  123.5150   54.3110 C   0  0  0  0  0  0  0  0  0  0  0  0
  126.0390  123.9750   54.6670 C   0  0  0  0  0  0  0  0  0  0  0  0
  125.6760  124.0230   56.0100 C   0  0  0  0  0  0  0  0  0  0  0  0
  132.3120  123.2010   59.5680 C   0  0  0  0  0  0  0  0  0  0  0  0
  132.9630  122.3910   60.6010 C   0  0  0  0  0  0  0  0  0  0  0  0
  133.4780  121.7520   61.4160 N   0  0  0  0  0  0  0  0  0  0  0  0
  1  2  1  0
  2  3  2  0
  3  4  1  0
  4  5  1  0
  5  6  2  0
  6  7  1  0
  7  8  2  0
  8  9  1  0
  9 10  2  0
  4 11  2  0
 11 12  1  0
 12 13  1  0
 13 14  1  0
 14 15  1  0
 15 16  2  0
 15 17  1  0
 17 18  1  0
 18 19  1  0
 19 20  2  0
 20 21  1  0
 21 22  2  0
 22 23  1  0
 23 24  2  0
 12 25  2  0
 25 26  1  0
 26 27  3  0
 25  2  1  0
 10  5  1  0
 24 19  1  0
M  END
>  <Binding energies>  (21) 
[-7.88]

>  <Ligand effiencies>  (21) 
[-0.2814285714285714]

>  <Interactions>  (21) 
["V-B:TYR:531:CZ:9766, V-B:TYR:539:C:9839, V-B:MET:535:CG:9805, V-B:PRO:540:CB:9857, V-B:PRO:540:CA:9855, V-B:TYR:539:CZ:9849, H-B:ALA:541:N:9863, V-B:PRO:540:N:9856, V-B:ILE:538:CG2:9835, V-B:ILE:538:CB:9834, V-B:TYR:539:CE1:9847, V-B:ILE:538:CA:9832, V-A:MET:535:CE:4833, V-B:TYR:539:CD2:9846, V-B:TYR:539:CD1:9845, V-B:TYR:539:CE2:9848, V-B:TYR:531:CE2:9765, V-A:ASP:366:CG:3211, V-B:TYR:539:CG:9844, V-A:ILE:369:CD1:3237, V-B:PRO:540:C:9853, V-B:ALA:541:CB:9864, V-A:ILE:369:CG2:3235, V-A:ASP:366:CB:3210, V-A:ILE:369:CB:3234, V-A:ASP:366:CA:3208, V-A:ASP:366:C:3206, V-A:ILE:369:CG1:3236"]

$$$$
3ca_Grossjean_2025
     RDKit          3D

 31 33  0  0  0  0  0  0  0  0999 V2000
  123.5720  123.4250   56.9240 C   0  0  0  0  0  0  0  0  0  0  0  0
  124.5570  123.3130   55.7570 C   0  0  0  0  0  0  0  0  0  0  0  0
  125.6270  122.4500   56.1210 O   0  0  0  0  0  0  0  0  0  0  0  0
  126.8340  122.9470   56.4930 C   0  0  0  0  0  0  0  0  0  0  0  0
  127.9100  122.4950   56.0880 O   0  0  0  0  0  0  0  0  0  0  0  0
  126.7320  124.1070   57.4420 C   0  0  0  0  0  0  0  0  0  0  0  0
  126.7670  125.4110   56.9340 C   0  0  0  0  0  0  0  0  0  0  0  0
  126.6750  126.5070   57.7890 C   0  0  0  0  0  0  0  0  0  0  0  0
  126.5530  126.3210   59.1670 C   0  0  0  0  0  0  0  0  0  0  0  0
  126.4660  127.4950   59.9390 N   0  0  0  0  0  0  0  0  0  0  0  0
  127.4230  128.3980   60.2450 C   0  0  0  0  0  0  0  0  0  0  0  0
  128.5930  128.3530   59.8650 O   0  0  0  0  0  0  0  0  0  0  0  0
  126.9630  129.5660   61.1230 C   0  0  0  0  0  0  0  0  0  0  0  0
  126.8020  131.1340   60.2050 S   0  0  0  0  0  0  0  0  0  0  0  0
  127.7050  131.0320   58.6660 C   0  0  0  0  0  0  0  0  0  0  0  0
  126.9650  130.7320   57.5690 N   0  0  0  0  0  0  0  0  0  0  0  0
  127.5780  130.6590   56.3670 C   0  0  0  0  0  0  0  0  0  0  0  0
  126.6810  130.3380   55.1880 C   0  0  0  0  0  0  0  0  0  0  0  0
  128.9470  130.8630   56.2110 C   0  0  0  0  0  0  0  0  0  0  0  0
  129.7360  131.1560   57.3310 C   0  0  0  0  0  0  0  0  0  0  0  0
  131.2010  131.3550   57.1170 C   0  0  0  0  0  0  0  0  0  0  0  0
  131.6560  132.1350   56.0470 C   0  0  0  0  0  0  0  0  0  0  0  0
  133.0200  132.3180   55.8340 C   0  0  0  0  0  0  0  0  0  0  0  0
  133.9370  131.7150   56.6910 C   0  0  0  0  0  0  0  0  0  0  0  0
  133.5020  130.9310   57.7560 C   0  0  0  0  0  0  0  0  0  0  0  0
  132.1370  130.7500   57.9650 C   0  0  0  0  0  0  0  0  0  0  0  0
  129.1010  131.2530   58.5960 C   0  0  0  0  0  0  0  0  0  0  0  0
  129.8670  131.6070   59.7950 C   0  0  0  0  0  0  0  0  0  0  0  0
  130.4720  131.8870   60.7420 N   0  0  0  0  0  0  0  0  0  0  0  0
  126.5090  125.0170   59.6830 C   0  0  0  0  0  0  0  0  0  0  0  0
  126.6000  123.9230   58.8270 C   0  0  0  0  0  0  0  0  0  0  0  0
  1  2  1  0
  2  3  1  0
  3  4  1  0
  4  5  2  0
  4  6  1  0
  6  7  2  0
  7  8  1  0
  8  9  2  0
  9 10  1  0
 10 11  1  0
 11 12  2  0
 11 13  1  0
 13 14  1  0
 14 15  1  0
 15 16  2  0
 16 17  1  0
 17 18  1  0
 17 19  2  0
 19 20  1  0
 20 21  1  0
 21 22  2  0
 22 23  1  0
 23 24  2  0
 24 25  1  0
 25 26  2  0
 20 27  2  0
 27 28  1  0
 28 29  3  0
  9 30  1  0
 30 31  2  0
 31  6  1  0
 27 15  1  0
 26 21  1  0
M  END
>  <Binding energies>  (22) 
[-9.35]

>  <Ligand effiencies>  (22) 
[-0.2921875]

>  <Interactions>  (22) 
["V-A:TYR:531:CE2:4791, V-B:ASP:366:CG:8185, V-A:PRO:540:CD:4885, V-A:PRO:540:N:4882, V-A:TYR:539:CE1:4873, V-A:TYR:539:CZ:4875, V-A:PRO:540:CB:4883, V-A:LEU:363:CD1:3187, V-A:ILE:538:CG2:4861, V-A:LEU:363:CA:3183, V-A:ILE:538:CA:4858, V-A:ILE:538:CB:4860, V-A:PRO:540:CG:4884, V-A:PRO:540:CA:4881, V-B:TYR:531:CZ:9766, V-B:TYR:539:C:9839, H-B:TYR:539:N:9842, V-B:PRO:540:CD:9859, V-B:TYR:539:CA:9841, V-B:PRO:540:CB:9857, V-B:PRO:540:CA:9855, V-B:PRO:540:N:9856, V-B:ILE:538:CG2:9835, V-B:ILE:538:CB:9834, V-B:LEU:363:CD1:8161, V-B:TYR:531:CE2:9765, H-B:ASP:366:OD2:8187, V-A:TYR:539:CE2:4874, V-A:ASP:366:CG:3211, H-A:ALA:541:N:4889, H-B:ASP:366:OD1:8186, H-A:TYR:539:OH:4876, V-A:ASP:366:CB:3210, V-B:PRO:540:CG:9858, V-B:LEU:363:CA:8157, V-A:LEU:363:CB:3185, V-B:LEU:363:CB:8159, V-A:LEU:363:CG:3186"]

$$$$
3ce_Grossjean_2025
     RDKit          3D

 27 29  0  0  0  0  0  0  0  0999 V2000
  123.4720  130.0010   66.7750 C   0  0  0  0  0  0  0  0  0  0  0  0
  124.4490  129.9370   65.6170 C   0  0  0  0  0  0  0  0  0  0  0  0
  125.7940  129.6140   65.8110 C   0  0  0  0  0  0  0  0  0  0  0  0
  126.6330  129.5640   64.6980 C   0  0  0  0  0  0  0  0  0  0  0  0
  126.1140  129.8370   63.4300 C   0  0  0  0  0  0  0  0  0  0  0  0
  124.7590  130.1650   63.3070 C   0  0  0  0  0  0  0  0  0  0  0  0
  124.2890  130.4110   62.0060 N   0  0  0  0  0  0  0  0  0  0  0  0
  124.0970  131.6030   61.3980 C   0  0  0  0  0  0  0  0  0  0  0  0
  124.3210  132.7010   61.9090 O   0  0  0  0  0  0  0  0  0  0  0  0
  123.5710  131.5380   59.9640 C   0  0  0  0  0  0  0  0  0  0  0  0
  124.5200  130.3720   58.9440 S   0  0  0  0  0  0  0  0  0  0  0  0
  126.1300  131.1010   58.7490 C   0  0  0  0  0  0  0  0  0  0  0  0
  126.5280  131.8500   59.8070 N   0  0  0  0  0  0  0  0  0  0  0  0
  127.7470  132.4340   59.7640 C   0  0  0  0  0  0  0  0  0  0  0  0
  128.1340  133.2460   60.9850 C   0  0  0  0  0  0  0  0  0  0  0  0
  128.6010  132.3070   58.6710 C   0  0  0  0  0  0  0  0  0  0  0  0
  128.1980  131.5590   57.5580 C   0  0  0  0  0  0  0  0  0  0  0  0
  129.1370  131.4720   56.4000 C   0  0  0  0  0  0  0  0  0  0  0  0
  130.5030  131.2510   56.6180 C   0  0  0  0  0  0  0  0  0  0  0  0
  131.3860  131.1760   55.5440 C   0  0  0  0  0  0  0  0  0  0  0  0
  130.9080  131.3290   54.2450 C   0  0  0  0  0  0  0  0  0  0  0  0
  129.5550  131.5600   54.0130 C   0  0  0  0  0  0  0  0  0  0  0  0
  128.6740  131.6330   55.0880 C   0  0  0  0  0  0  0  0  0  0  0  0
  126.9270  130.9300   57.5920 C   0  0  0  0  0  0  0  0  0  0  0  0
  126.4570  130.1220   56.4630 C   0  0  0  0  0  0  0  0  0  0  0  0
  126.0870  129.4840   55.5710 N   0  0  0  0  0  0  0  0  0  0  0  0
  123.9310  130.2080   64.3920 N   0  0  0  0  0  0  0  0  0  0  0  0
  1  2  1  0
  2  3  2  0
  3  4  1  0
  4  5  2  0
  5  6  1  0
  6  7  1  0
  7  8  1  0
  8  9  2  0
  8 10  1  0
 10 11  1  0
 11 12  1  0
 12 13  2  0
 13 14  1  0
 14 15  1  0
 14 16  2  0
 16 17  1  0
 17 18  1  0
 18 19  2  0
 19 20  1  0
 20 21  2  0
 21 22  1  0
 22 23  2  0
 17 24  2  0
 24 25  1  0
 25 26  3  0
  6 27  2  0
 27  2  1  0
 24 12  1  0
 23 18  1  0
M  END
>  <Binding energies>  (23) 
[-9.59]

>  <Ligand effiencies>  (23) 
[-0.34249999999999997]

>  <Interactions>  (23) 
["V-A:TYR:531:CE2:4791, V-B:ASP:366:CG:8185, V-A:TYR:539:CE1:4873, V-A:TYR:539:CZ:4875, V-A:ILE:538:CG2:4861, V-A:TYR:531:CZ:4792, V-A:ILE:538:CA:4858, V-A:ILE:538:CB:4860, V-A:MET:535:CB:4830, V-A:MET:535:CG:4831, V-B:HIS:456:CE1:9042, V-A:GLU:543:CD:4906, H-B:TYR:531:OH:9767, H-B:ASP:366:OD2:8187, V-A:TYR:539:C:4865, V-A:TYR:539:CE2:4874, H-B:ASP:366:OD1:8186, V-B:ARG:545:CZ:9898, V-A:TYR:539:CD1:4871, V-A:TYR:539:CD2:4872, H-A:TYR:539:OH:4876, H-B:GLY:454:N:9022, V-B:ILE:369:CG2:8209, V-B:ILE:369:CD1:8211, V-A:ALA:541:CB:4890, H-B:TYR:484:OH:9320, V-B:ILE:369:CB:8208, V-B:GLY:454:CA:9021, V-B:TYR:484:CZ:9319, H-B:ARG:545:NE:9896, H-B:ARG:545:NH1:9899, V-B:ARG:545:CD:9895, V-B:GLY:453:C:9014, V-B:GLY:453:CA:9016, V-B:ARG:545:CG:9894, V-B:ILE:455:C:9024, V-B:GLY:454:C:9019, V-B:ARG:545:CB:9893"]

$$$$
3cj_Grossjean_2025
     RDKit          3D

 25 27  0  0  0  0  0  0  0  0999 V2000
  128.1960  133.3900   61.0060 C   0  0  0  0  0  0  0  0  0  0  0  0
  127.8290  132.5410   59.8050 C   0  0  0  0  0  0  0  0  0  0  0  0
  128.6340  132.5010   58.6680 C   0  0  0  0  0  0  0  0  0  0  0  0
  128.2680  131.6840   57.5890 C   0  0  0  0  0  0  0  0  0  0  0  0
  129.1920  131.6220   56.4190 C   0  0  0  0  0  0  0  0  0  0  0  0
  128.6950  131.7250   55.1140 C   0  0  0  0  0  0  0  0  0  0  0  0
  129.5570  131.6540   54.0230 C   0  0  0  0  0  0  0  0  0  0  0  0
  130.9210  131.4730   54.2340 C   0  0  0  0  0  0  0  0  0  0  0  0
  131.4290  131.3590   55.5250 C   0  0  0  0  0  0  0  0  0  0  0  0
  130.5650  131.4300   56.6150 C   0  0  0  0  0  0  0  0  0  0  0  0
  127.0620  130.9450   57.6810 C   0  0  0  0  0  0  0  0  0  0  0  0
  126.6110  130.0950   56.5750 C   0  0  0  0  0  0  0  0  0  0  0  0
  126.2560  129.4230   55.7010 N   0  0  0  0  0  0  0  0  0  0  0  0
  126.3100  131.0430   58.8740 C   0  0  0  0  0  0  0  0  0  0  0  0
  124.8510  130.0680   59.1730 S   0  0  0  0  0  0  0  0  0  0  0  0
  123.7180  131.1850   60.0590 C   0  0  0  0  0  0  0  0  0  0  0  0
  124.0890  131.3170   61.5400 C   0  0  0  0  0  0  0  0  0  0  0  0
  123.9790  132.4110   62.0980 O   0  0  0  0  0  0  0  0  0  0  0  0
  124.4860  130.1750   62.1410 N   0  0  0  0  0  0  0  0  0  0  0  0
  124.7460  129.9980   63.4910 C   0  0  0  0  0  0  0  0  0  0  0  0
  123.8840  129.9870   64.4850 N   0  0  0  0  0  0  0  0  0  0  0  0
  124.4800  129.7610   65.6380 C   0  0  0  0  0  0  0  0  0  0  0  0
  125.8600  129.5820   65.5950 C   0  0  0  0  0  0  0  0  0  0  0  0
  126.3970  129.7220   63.9470 S   0  0  0  0  0  0  0  0  0  0  0  0
  126.6930  131.8180   59.9190 N   0  0  0  0  0  0  0  0  0  0  0  0
  1  2  1  0
  2  3  2  0
  3  4  1  0
  4  5  1  0
  5  6  2  0
  6  7  1  0
  7  8  2  0
  8  9  1  0
  9 10  2  0
  4 11  2  0
 11 12  1  0
 12 13  3  0
 11 14  1  0
 14 15  1  0
 15 16  1  0
 16 17  1  0
 17 18  2  0
 17 19  1  0
 19 20  1  0
 20 21  2  0
 21 22  1  0
 22 23  2  0
 23 24  1  0
 14 25  2  0
 25  2  1  0
 10  5  1  0
 24 20  1  0
M  END
>  <Binding energies>  (24) 
[-8.43]

>  <Ligand effiencies>  (24) 
[-0.3242307692307692]

>  <Interactions>  (24) 
["V-A:TYR:531:CE2:4791, V-B:ASP:366:CG:8185, V-A:PRO:540:N:4882, V-A:TYR:539:CE1:4873, V-A:TYR:539:CZ:4875, V-A:ILE:538:CG2:4861, V-A:TYR:531:CZ:4792, V-A:ILE:538:CA:4858, V-A:ILE:538:CB:4860, V-B:ASP:366:CB:8184, V-A:MET:535:CB:4830, V-A:MET:535:CG:4831, V-B:HIS:456:CE1:9042, H-B:TYR:531:OH:9767, H-B:ASP:366:OD2:8187, V-A:TYR:539:C:4865, V-A:TYR:539:CE2:4874, H-B:ARG:545:NH2:9900, H-B:ASP:366:OD1:8186, V-B:ARG:545:CZ:9898, V-A:TYR:539:CD1:4871, V-A:TYR:539:CD2:4872, H-A:TYR:539:OH:4876, V-A:TYR:539:CG:4870, H-B:GLY:454:N:9022, V-B:ILE:369:CG2:8209, V-B:ILE:369:CD1:8211, V-A:ALA:541:CB:4890, H-B:TYR:484:OH:9320, V-B:ASP:366:CA:8182, H-B:ARG:545:NE:9896, H-B:ARG:545:NH1:9899, V-B:ARG:545:CD:9895, V-B:ARG:545:CG:9894"]

$$$$
4ba_Grossjean_2025
     RDKit          3D

 28 30  0  0  0  0  0  0  0  0999 V2000
  130.1380  126.9550   72.7340 C   0  0  0  0  0  0  0  0  0  0  0  0
  129.4950  128.2300   72.1550 C   0  0  0  0  0  0  0  0  0  0  0  0
  128.3560  127.9870   71.1450 C   0  0  0  0  0  0  0  0  0  0  0  0
  127.1850  128.1380   71.5020 O   0  0  0  0  0  0  0  0  0  0  0  0
  128.7350  127.5780   69.7510 C   0  0  0  0  0  0  0  0  0  0  0  0
  130.0840  127.3770   69.4360 C   0  0  0  0  0  0  0  0  0  0  0  0
  130.4640  126.9980   68.1520 C   0  0  0  0  0  0  0  0  0  0  0  0
  129.5030  126.8090   67.1570 C   0  0  0  0  0  0  0  0  0  0  0  0
  129.9980  126.4360   65.8920 N   0  0  0  0  0  0  0  0  0  0  0  0
  130.6110  125.2920   65.4990 C   0  0  0  0  0  0  0  0  0  0  0  0
  130.8830  124.3580   66.2540 O   0  0  0  0  0  0  0  0  0  0  0  0
  130.9690  125.2320   64.0800 C   0  0  0  0  0  0  0  0  0  0  0  0
  132.2430  124.1450   63.5330 S   0  0  0  0  0  0  0  0  0  0  0  0
  132.0710  124.6980   61.8840 C   0  0  0  0  0  0  0  0  0  0  0  0
  132.8310  124.2080   60.9050 N   0  0  0  0  0  0  0  0  0  0  0  0
  132.6070  124.7140   59.6700 C   0  0  0  0  0  0  0  0  0  0  0  0
  133.4890  124.1490   58.5720 C   0  0  0  0  0  0  0  0  0  0  0  0
  131.6480  125.6840   59.3930 C   0  0  0  0  0  0  0  0  0  0  0  0
  130.8440  126.2040   60.4210 C   0  0  0  0  0  0  0  0  0  0  0  0
  129.8010  127.2690   60.0670 C   0  0  0  0  0  0  0  0  0  0  0  0
  129.7850  127.5730   58.7670 F   0  0  0  0  0  0  0  0  0  0  0  0
  128.5820  126.8330   60.3890 F   0  0  0  0  0  0  0  0  0  0  0  0
  130.0580  128.3920   60.7370 F   0  0  0  0  0  0  0  0  0  0  0  0
  131.0600  125.6960   61.7370 C   0  0  0  0  0  0  0  0  0  0  0  0
  130.4530  125.9870   63.0130 C   0  0  0  0  0  0  0  0  0  0  0  0
  129.4580  126.9190   63.1640 N   0  0  0  0  0  0  0  0  0  0  0  0
  128.1500  127.0150   67.4620 C   0  0  0  0  0  0  0  0  0  0  0  0
  127.7720  127.3940   68.7480 C   0  0  0  0  0  0  0  0  0  0  0  0
  1  2  1  0
  2  3  1  0
  3  4  2  0
  3  5  1  0
  5  6  2  0
  6  7  1  0
  7  8  2  0
  8  9  1  0
  9 10  1  0
 10 11  2  0
 10 12  1  0
 12 13  1  0
 13 14  1  0
 14 15  2  0
 15 16  1  0
 16 17  1  0
 16 18  2  0
 18 19  1  0
 19 20  1  0
 20 21  1  0
 20 22  1  0
 20 23  1  0
 19 24  2  0
 24 25  1  0
 25 26  1  0
  8 27  1  0
 27 28  2  0
 28  5  1  0
 25 12  2  0
 24 14  1  0
M  END
>  <Binding energies>  (25) 
[-6.98]

>  <Ligand effiencies>  (25) 
[-0.22516129032258067]

>  <Interactions>  (25) 
["V-B:TYR:539:CE2:9848, V-A:HIS:456:CE1:4068, V-B:GLU:543:C:9874, V-A:LYS:547:CE:4948, V-B:HIS:456:CE1:9042, V-A:GLY:544:C:4910, V-B:HIS:456:CD2:9040, V-A:GLY:544:CA:4912, H-B:HIS:456:ND1:9039, V-A:GLU:543:CD:4906, V-B:GLU:543:CD:9880, V-A:ASP:366:CG:3211, H-A:GLU:543:OE1:4907, H-A:TYR:484:OH:4346, V-A:ILE:369:CG2:3235, V-A:ASP:366:CB:3210, V-A:ASP:366:CA:3208, H-B:GLU:543:OE2:9882, H-B:GLU:543:OE1:9881, H-A:GLU:543:OE2:4908, V-A:GLU:543:C:4900, V-B:GLU:543:CG:9879, V-B:GLU:543:CB:9878"]

$$$$
4bb_Grossjean_2025
     RDKit          3D

 27 29  0  0  0  0  0  0  0  0999 V2000
  125.9860  128.4760   66.6150 C   0  0  0  0  0  0  0  0  0  0  0  0
  125.3160  129.5040   65.7000 C   0  0  0  0  0  0  0  0  0  0  0  0
  124.2140  129.9440   66.0310 O   0  0  0  0  0  0  0  0  0  0  0  0
  126.0310  129.9130   64.4480 C   0  0  0  0  0  0  0  0  0  0  0  0
  126.3260  128.9480   63.4770 C   0  0  0  0  0  0  0  0  0  0  0  0
  126.9900  129.3010   62.3060 C   0  0  0  0  0  0  0  0  0  0  0  0
  127.3640  130.6260   62.0780 C   0  0  0  0  0  0  0  0  0  0  0  0
  128.0330  130.8730   60.8630 N   0  0  0  0  0  0  0  0  0  0  0  0
  129.1660  131.5750   60.6180 C   0  0  0  0  0  0  0  0  0  0  0  0
  129.8120  132.1680   61.4820 O   0  0  0  0  0  0  0  0  0  0  0  0
  129.5830  131.6180   59.2140 C   0  0  0  0  0  0  0  0  0  0  0  0
  128.3880  131.8620   57.9420 S   0  0  0  0  0  0  0  0  0  0  0  0
  129.6150  131.7450   56.7020 C   0  0  0  0  0  0  0  0  0  0  0  0
  129.3120  131.8630   55.4100 N   0  0  0  0  0  0  0  0  0  0  0  0
  130.3470  131.7540   54.5450 C   0  0  0  0  0  0  0  0  0  0  0  0
  129.9800  131.8920   53.0790 C   0  0  0  0  0  0  0  0  0  0  0  0
  131.6640  131.5310   54.9370 C   0  0  0  0  0  0  0  0  0  0  0  0
  131.9890  131.4070   56.2960 C   0  0  0  0  0  0  0  0  0  0  0  0
  133.4530  131.1630   56.6790 C   0  0  0  0  0  0  0  0  0  0  0  0
  133.7130  129.8830   56.9590 F   0  0  0  0  0  0  0  0  0  0  0  0
  134.2490  131.5210   55.6710 F   0  0  0  0  0  0  0  0  0  0  0  0
  133.7630  131.8780   57.7600 F   0  0  0  0  0  0  0  0  0  0  0  0
  130.9210  131.5170   57.2370 C   0  0  0  0  0  0  0  0  0  0  0  0
  130.8690  131.4440   58.6750 C   0  0  0  0  0  0  0  0  0  0  0  0
  131.9820  131.2310   59.4470 N   0  0  0  0  0  0  0  0  0  0  0  0
  127.0790  131.5980   63.0500 C   0  0  0  0  0  0  0  0  0  0  0  0
  126.4170  131.2420   64.2210 C   0  0  0  0  0  0  0  0  0  0  0  0
  1  2  1  0
  2  3  2  0
  2  4  1  0
  4  5  2  0
  5  6  1  0
  6  7  2  0
  7  8  1  0
  8  9  1  0
  9 10  2  0
  9 11  1  0
 11 12  1  0
 12 13  1  0
 13 14  2  0
 14 15  1  0
 15 16  1  0
 15 17  2  0
 17 18  1  0
 18 19  1  0
 19 20  1  0
 19 21  1  0
 19 22  1  0
 18 23  2  0
 23 24  1  0
 24 25  1  0
  7 26  1  0
 26 27  2  0
 27  4  1  0
 24 11  2  0
 23 13  1  0
M  END
>  <Binding energies>  (26) 
[-6.96]

>  <Ligand effiencies>  (26) 
[-0.232]

>  <Interactions>  (26) 
["V-A:TYR:531:CE2:4791, V-A:PRO:540:CD:4885, V-A:PRO:540:N:4882, H-A:TYR:539:N:4868, V-A:VAL:537:C:4848, V-A:TYR:539:CZ:4875, V-A:PRO:540:CB:4883, V-A:LEU:363:CD1:3187, V-A:ILE:538:CG2:4861, V-A:TYR:531:CZ:4792, V-A:LEU:363:CA:3183, V-A:ILE:538:CA:4858, V-A:ILE:538:CB:4860, V-A:PRO:540:CG:4884, V-A:MET:535:CB:4830, V-A:MET:535:CG:4831, V-A:PRO:540:CA:4881, V-B:HIS:456:CE1:9042, V-A:TYR:539:CE2:4874, V-A:ASP:366:CG:3211, H-A:ALA:541:N:4889, V-B:ARG:545:CZ:9898, H-A:ASP:366:OD2:3213, V-A:TYR:539:CD2:4872, H-B:GLY:454:N:9022, H-B:TYR:484:OH:9320, V-A:ASP:366:CB:3210, V-B:TYR:484:CZ:9319, H-B:ARG:545:NE:9896, V-A:LEU:363:CB:3185, V-B:ARG:545:CD:9895, V-B:ARG:545:CG:9894, V-A:LEU:363:CG:3186, V-A:TYR:531:CD2:4789"]

$$$$
4bd_Grossjean_2025
     RDKit          3D

 24 26  0  0  0  0  0  0  0  0999 V2000
  132.2400  137.8630   70.7660 C   0  0  0  0  0  0  0  0  0  0  0  0
  131.5310  136.9420   71.7420 C   0  0  0  0  0  0  0  0  0  0  0  0
  131.4020  137.2820   73.0860 C   0  0  0  0  0  0  0  0  0  0  0  0
  130.7470  136.4190   73.9780 C   0  0  0  0  0  0  0  0  0  0  0  0
  130.6310  136.8350   75.4490 C   0  0  0  0  0  0  0  0  0  0  0  0
  129.3690  136.8740   75.8830 F   0  0  0  0  0  0  0  0  0  0  0  0
  131.2910  135.9690   76.2170 F   0  0  0  0  0  0  0  0  0  0  0  0
  131.1460  138.0530   75.6150 F   0  0  0  0  0  0  0  0  0  0  0  0
  130.2290  135.2010   73.4470 C   0  0  0  0  0  0  0  0  0  0  0  0
  129.5140  134.0960   74.0390 C   0  0  0  0  0  0  0  0  0  0  0  0
  129.1830  134.0590   75.3690 N   0  0  0  0  0  0  0  0  0  0  0  0
  129.1930  133.0700   73.1350 C   0  0  0  0  0  0  0  0  0  0  0  0
  128.4930  131.8080   73.3980 C   0  0  0  0  0  0  0  0  0  0  0  0
  128.9470  130.7410   72.9840 O   0  0  0  0  0  0  0  0  0  0  0  0
  127.3510  131.9160   74.1210 N   0  0  0  0  0  0  0  0  0  0  0  0
  126.4370  130.9170   74.5040 C   0  0  0  0  0  0  0  0  0  0  0  0
  126.7490  129.6150   74.1030 C   0  0  0  0  0  0  0  0  0  0  0  0
  125.9120  128.5560   74.4410 C   0  0  0  0  0  0  0  0  0  0  0  0
  124.7630  128.7960   75.1900 C   0  0  0  0  0  0  0  0  0  0  0  0
  124.4480  130.0870   75.6070 C   0  0  0  0  0  0  0  0  0  0  0  0
  125.2820  131.1490   75.2710 C   0  0  0  0  0  0  0  0  0  0  0  0
  129.7630  133.4480   71.5120 S   0  0  0  0  0  0  0  0  0  0  0  0
  130.4300  134.9710   72.0510 C   0  0  0  0  0  0  0  0  0  0  0  0
  131.0520  135.7940   71.2080 N   0  0  0  0  0  0  0  0  0  0  0  0
  1  2  1  0
  2  3  2  0
  3  4  1  0
  4  5  1  0
  5  6  1  0
  5  7  1  0
  5  8  1  0
  4  9  2  0
  9 10  1  0
 10 11  1  0
 10 12  2  0
 12 13  1  0
 13 14  2  0
 13 15  1  0
 15 16  1  0
 16 17  2  0
 17 18  1  0
 18 19  2  0
 19 20  1  0
 20 21  2  0
 12 22  1  0
 22 23  1  0
 23 24  2  0
 24  2  1  0
 23  9  1  0
 21 16  1  0
M  END
>  <Binding energies>  (27) 
[-6.89]

>  <Ligand effiencies>  (27) 
[-0.2551851851851852]

>  <Interactions>  (27) 
["V-A:LYS:547:CE:4948, H-A:LYS:547:NZ:4949, V-B:HIS:456:CD2:9040, V-A:GLY:544:CA:4912, V-B:VAL:458:CG2:9059, V-B:LYS:471:CE:9192, H-B:ASP:473:OD2:9214, V-B:HIS:456:CG:9038, V-B:TYR:484:CG:9314, V-B:HIS:456:CB:9037, V-B:TYR:484:CB:9313, V-B:VAL:457:C:9045, V-B:HIS:456:C:9033, V-B:SER:483:CB:9305, V-A:VAL:542:CG1:4897, H-B:TYR:484:N:9312, V-A:GLU:543:C:4900, V-B:TYR:484:CD1:9315, V-A:GLU:543:CA:4902, V-B:SER:483:CA:9303, V-B:ASP:473:CG:9212"]

$$$$
4be_Grossjean_2025
     RDKit          3D

 25 27  0  0  0  0  0  0  0  0999 V2000
  131.8690  127.0080   74.1430 C   0  0  0  0  0  0  0  0  0  0  0  0
  132.2600  125.5550   74.3380 C   0  0  0  0  0  0  0  0  0  0  0  0
  133.4840  125.1990   74.9100 C   0  0  0  0  0  0  0  0  0  0  0  0
  133.7780  123.8430   75.0560 C   0  0  0  0  0  0  0  0  0  0  0  0
  132.8530  122.8860   74.6310 C   0  0  0  0  0  0  0  0  0  0  0  0
  131.6430  123.3120   74.0720 C   0  0  0  0  0  0  0  0  0  0  0  0
  130.7580  122.3000   73.6580 N   0  0  0  0  0  0  0  0  0  0  0  0
  129.6110  122.4120   72.9430 C   0  0  0  0  0  0  0  0  0  0  0  0
  129.1630  123.4820   72.5260 O   0  0  0  0  0  0  0  0  0  0  0  0
  128.8960  121.1560   72.7000 C   0  0  0  0  0  0  0  0  0  0  0  0
  128.0600  120.8940   71.1710 S   0  0  0  0  0  0  0  0  0  0  0  0
  127.5050  119.3200   71.6910 C   0  0  0  0  0  0  0  0  0  0  0  0
  126.7580  118.5510   70.9010 N   0  0  0  0  0  0  0  0  0  0  0  0
  126.3910  117.3530   71.4130 C   0  0  0  0  0  0  0  0  0  0  0  0
  125.5370  116.4930   70.4990 C   0  0  0  0  0  0  0  0  0  0  0  0
  126.7530  116.9110   72.6820 C   0  0  0  0  0  0  0  0  0  0  0  0
  127.5420  117.7160   73.5190 C   0  0  0  0  0  0  0  0  0  0  0  0
  127.9180  117.1850   74.9060 C   0  0  0  0  0  0  0  0  0  0  0  0
  127.4530  117.9460   75.9000 F   0  0  0  0  0  0  0  0  0  0  0  0
  127.4150  115.9620   75.0730 F   0  0  0  0  0  0  0  0  0  0  0  0
  129.2440  117.1360   75.0270 F   0  0  0  0  0  0  0  0  0  0  0  0
  127.9420  118.9880   73.0110 C   0  0  0  0  0  0  0  0  0  0  0  0
  128.7270  120.0640   73.5660 C   0  0  0  0  0  0  0  0  0  0  0  0
  129.2640  120.0150   74.8260 N   0  0  0  0  0  0  0  0  0  0  0  0
  131.3500  124.6370   73.9210 N   0  0  0  0  0  0  0  0  0  0  0  0
  1  2  1  0
  2  3  2  0
  3  4  1  0
  4  5  2  0
  5  6  1  0
  6  7  1  0
  7  8  1  0
  8  9  2  0
  8 10  1  0
 10 11  1  0
 11 12  1  0
 12 13  2  0
 13 14  1  0
 14 15  1  0
 14 16  2  0
 16 17  1  0
 17 18  1  0
 18 19  1  0
 18 20  1  0
 18 21  1  0
 17 22  2  0
 22 23  1  0
 23 24  1  0
  6 25  2  0
 25  2  1  0
 23 10  2  0
 22 12  1  0
M  END
>  <Binding energies>  (28) 
[-6.85]

>  <Ligand effiencies>  (28) 
[-0.24464285714285713]

>  <Interactions>  (28) 
["V-A:VAL:458:CG2:4085, V-A:HIS:456:CD2:4066, V-B:GLY:544:CA:9886, V-B:GLU:543:C:9874, H-B:LYS:547:NZ:9923, V-A:LYS:547:CE:4948, V-A:LYS:547:CD:4947, V-B:LYS:547:CE:9922, V-A:LYS:471:CD:4217, V-A:ASP:473:CG:4238, V-A:HIS:456:CB:4063, V-A:TYR:484:CB:4339, V-A:HIS:456:CG:4064, V-A:LYS:471:CE:4218, V-A:ASP:473:CB:4237, V-A:TYR:484:CG:4340, V-A:LYS:547:CG:4946, V-A:HIS:456:C:4059, V-A:LYS:471:CG:4216, V-B:GLU:543:CA:9876, H-A:ASP:473:OD2:4240, V-A:SER:483:CB:4331, V-B:VAL:542:CG1:9871, V-A:TYR:484:CD1:4341, H-A:TYR:484:N:4338"]

$$$$
4bg_Grossjean_2025
     RDKit          3D

 25 27  0  0  0  0  0  0  0  0999 V2000
  134.2620  120.0810   60.6100 C   0  0  0  0  0  0  0  0  0  0  0  0
  133.2380  121.1620   60.9040 C   0  0  0  0  0  0  0  0  0  0  0  0
  133.6030  122.3400   61.5510 C   0  0  0  0  0  0  0  0  0  0  0  0
  132.6450  123.3300   61.8220 C   0  0  0  0  0  0  0  0  0  0  0  0
  133.0940  124.6080   62.5360 C   0  0  0  0  0  0  0  0  0  0  0  0
  132.6100  125.7180   61.9730 F   0  0  0  0  0  0  0  0  0  0  0  0
  132.6760  124.5880   63.8020 F   0  0  0  0  0  0  0  0  0  0  0  0
  134.4230  124.6960   62.5130 F   0  0  0  0  0  0  0  0  0  0  0  0
  131.3050  123.0700   61.4060 C   0  0  0  0  0  0  0  0  0  0  0  0
  130.0800  123.8250   61.5130 C   0  0  0  0  0  0  0  0  0  0  0  0
  130.0160  125.0550   62.1170 N   0  0  0  0  0  0  0  0  0  0  0  0
  128.9670  123.1940   60.9370 C   0  0  0  0  0  0  0  0  0  0  0  0
  127.5800  123.6540   60.8910 C   0  0  0  0  0  0  0  0  0  0  0  0
  126.8480  123.5890   61.8800 O   0  0  0  0  0  0  0  0  0  0  0  0
  127.1720  124.1860   59.7200 N   0  0  0  0  0  0  0  0  0  0  0  0
  125.8290  124.6950   59.4400 C   0  0  0  0  0  0  0  0  0  0  0  0
  125.2150  124.1260   58.1680 C   0  0  0  0  0  0  0  0  0  0  0  0
  123.8250  124.0780   58.0210 C   0  0  0  0  0  0  0  0  0  0  0  0
  123.2670  123.5940   56.8410 C   0  0  0  0  0  0  0  0  0  0  0  0
  124.0980  123.1730   55.8060 C   0  0  0  0  0  0  0  0  0  0  0  0
  125.4830  123.2340   55.9380 C   0  0  0  0  0  0  0  0  0  0  0  0
  126.0430  123.7170   57.1190 C   0  0  0  0  0  0  0  0  0  0  0  0
  129.3950  121.6190   60.2740 S   0  0  0  0  0  0  0  0  0  0  0  0
  131.0650  121.8260   60.7450 C   0  0  0  0  0  0  0  0  0  0  0  0
  131.9790  120.8890   60.4930 N   0  0  0  0  0  0  0  0  0  0  0  0
  1  2  1  0
  2  3  2  0
  3  4  1  0
  4  5  1  0
  5  6  1  0
  5  7  1  0
  5  8  1  0
  4  9  2  0
  9 10  1  0
 10 11  1  0
 10 12  2  0
 12 13  1  0
 13 14  2  0
 13 15  1  0
 15 16  1  0
 16 17  1  0
 17 18  2  0
 18 19  1  0
 19 20  2  0
 20 21  1  0
 21 22  2  0
 12 23  1  0
 23 24  1  0
 24 25  2  0
 25  2  1  0
 24  9  1  0
 22 17  1  0
M  END
>  <Binding energies>  (29) 
[-7.09]

>  <Ligand effiencies>  (29) 
[-0.2532142857142857]

>  <Interactions>  (29) 
["V-B:TYR:531:CZ:9766, V-B:TYR:539:C:9839, V-B:PRO:540:CD:9859, V-B:PRO:540:CB:9857, V-B:PRO:540:CA:9855, H-B:ALA:541:N:9863, V-B:PRO:540:N:9856, V-B:ILE:538:CG2:9835, V-B:ILE:538:CB:9834, V-B:ILE:538:CA:9832, V-B:TYR:539:CD2:9846, V-B:TYR:539:CE2:9848, V-B:LEU:363:CD1:8161, V-B:TYR:531:CE2:9765, V-B:GLU:543:CD:9880, V-A:ASP:366:CG:3211, V-A:ILE:369:CD1:3237, V-B:ALA:541:CB:9864, V-A:ARG:545:CZ:4924, V-A:TRP:381:CZ2:3368, V-A:TRP:381:CH2:3370, V-A:ILE:369:CG2:3235, V-A:LEU:475:CD2:4257, V-B:PRO:540:CG:9858, V-B:LEU:363:CA:8157, V-A:GLY:453:C:4040, V-A:GLY:453:CA:4042, H-B:GLU:543:OE2:9882, H-B:GLU:543:OE1:9881, V-A:SER:385:C:3403, V-A:SER:385:CA:3405, V-A:SER:385:CB:3407, V-A:GLY:454:CA:4047, V-B:LEU:363:CB:8159, V-B:LEU:363:CG:8160"]

$$$$
4ca_Grossjean_2025
     RDKit          3D

 34 37  0  0  0  0  0  0  0  0999 V2000
  129.4640  125.7970   72.2290 C   0  0  0  0  0  0  0  0  0  0  0  0
  130.2200  127.0760   72.6000 C   0  0  0  0  0  0  0  0  0  0  0  0
  129.7240  128.1610   71.8260 O   0  0  0  0  0  0  0  0  0  0  0  0
  128.6010  128.0300   71.0740 C   0  0  0  0  0  0  0  0  0  0  0  0
  127.4610  128.2020   71.5190 O   0  0  0  0  0  0  0  0  0  0  0  0
  128.8820  127.6580   69.6480 C   0  0  0  0  0  0  0  0  0  0  0  0
  130.2000  127.3830   69.2600 C   0  0  0  0  0  0  0  0  0  0  0  0
  130.4920  127.0310   67.9450 C   0  0  0  0  0  0  0  0  0  0  0  0
  129.4780  126.9540   66.9910 C   0  0  0  0  0  0  0  0  0  0  0  0
  129.8840  126.5800   65.6950 N   0  0  0  0  0  0  0  0  0  0  0  0
  130.8810  125.7520   65.2970 C   0  0  0  0  0  0  0  0  0  0  0  0
  131.6030  125.1200   66.0680 O   0  0  0  0  0  0  0  0  0  0  0  0
  131.0490  125.6270   63.8480 C   0  0  0  0  0  0  0  0  0  0  0  0
  130.0440  126.5750   62.7540 S   0  0  0  0  0  0  0  0  0  0  0  0
  130.8620  125.9150   61.3580 C   0  0  0  0  0  0  0  0  0  0  0  0
  130.5270  126.2780   60.1220 N   0  0  0  0  0  0  0  0  0  0  0  0
  131.2280  125.7220   59.1000 C   0  0  0  0  0  0  0  0  0  0  0  0
  130.8340  126.1590   57.7190 C   0  0  0  0  0  0  0  0  0  0  0  0
  130.1410  127.3630   57.5160 C   0  0  0  0  0  0  0  0  0  0  0  0
  129.7680  127.7710   56.2380 C   0  0  0  0  0  0  0  0  0  0  0  0
  130.0830  126.9770   55.1400 C   0  0  0  0  0  0  0  0  0  0  0  0
  130.7670  125.7790   55.3130 C   0  0  0  0  0  0  0  0  0  0  0  0
  131.1380  125.3740   56.5920 C   0  0  0  0  0  0  0  0  0  0  0  0
  132.2460  124.7890   59.3240 C   0  0  0  0  0  0  0  0  0  0  0  0
  132.6030  124.3960   60.6230 C   0  0  0  0  0  0  0  0  0  0  0  0
  133.7300  123.3710   60.7950 C   0  0  0  0  0  0  0  0  0  0  0  0
  133.3200  122.2310   61.3560 F   0  0  0  0  0  0  0  0  0  0  0  0
  134.2490  123.0660   59.6060 F   0  0  0  0  0  0  0  0  0  0  0  0
  134.6850  123.8770   61.5760 F   0  0  0  0  0  0  0  0  0  0  0  0
  131.8860  124.9850   61.7030 C   0  0  0  0  0  0  0  0  0  0  0  0
  131.9720  124.8420   63.1360 C   0  0  0  0  0  0  0  0  0  0  0  0
  132.8760  124.0100   63.7440 N   0  0  0  0  0  0  0  0  0  0  0  0
  128.1550  127.2220   67.3700 C   0  0  0  0  0  0  0  0  0  0  0  0
  127.8630  127.5720   68.6870 C   0  0  0  0  0  0  0  0  0  0  0  0
  1  2  1  0
  2  3  1  0
  3  4  1  0
  4  5  2  0
  4  6  1  0
  6  7  2  0
  7  8  1  0
  8  9  2  0
  9 10  1  0
 10 11  1  0
 11 12  2  0
 11 13  1  0
 13 14  1  0
 14 15  1  0
 15 16  2  0
 16 17  1  0
 17 18  1  0
 18 19  2  0
 19 20  1  0
 20 21  2  0
 21 22  1  0
 22 23  2  0
 17 24  2  0
 24 25  1  0
 25 26  1  0
 26 27  1  0
 26 28  1  0
 26 29  1  0
 25 30  2  0
 30 31  1  0
 31 32  1  0
  9 33  1  0
 33 34  2  0
 34  6  1  0
 31 13  2  0
 30 15  1  0
 23 18  1  0
M  END
>  <Binding energies>  (30) 
[-6.92]

>  <Ligand effiencies>  (30) 
[-0.18702702702702703]

>  <Interactions>  (30) 
["V-A:TYR:531:CZ:4792, V-B:TYR:539:CZ:9849, V-A:TYR:531:CE1:4790, V-A:HIS:456:CD2:4066, V-B:GLY:544:CA:9886, V-A:HIS:456:CE1:4068, V-A:LYS:547:CE:4948, V-B:LYS:547:CE:9922, V-B:HIS:456:CE1:9042, V-A:GLY:544:C:4910, V-B:HIS:456:CD2:9040, H-B:HIS:456:ND1:9039, V-A:GLU:543:CD:4906, V-B:GLU:543:CD:9880, V-A:ASP:366:CG:3211, H-A:GLU:543:OE1:4907, V-A:ILE:369:CD1:3237, H-A:TYR:484:OH:4346, V-A:ILE:369:CG2:3235, V-A:LEU:475:CD2:4257, V-A:GLY:453:C:4040, V-A:GLY:453:CA:4042, V-A:ILE:369:CB:3234, H-B:GLU:543:OE2:9882, H-B:GLU:543:OE1:9881, H-A:GLU:543:OE2:4908, V-A:GLY:454:CA:4047, V-A:GLU:543:C:4900, V-B:GLU:543:CG:9879, V-B:GLU:543:CB:9878, V-A:ARG:545:CG:4920, V-A:GLU:543:CG:4905, V-A:ILE:369:CG1:3236"]

$$$$
4cb_Grossjean_2025
     RDKit          3D

 33 36  0  0  0  0  0  0  0  0999 V2000
  130.3060  126.6960   72.3670 C   0  0  0  0  0  0  0  0  0  0  0  0
  129.7430  127.9070   71.8820 O   0  0  0  0  0  0  0  0  0  0  0  0
  128.6230  127.8990   71.1150 C   0  0  0  0  0  0  0  0  0  0  0  0
  127.4960  128.1510   71.5520 O   0  0  0  0  0  0  0  0  0  0  0  0
  128.8910  127.5530   69.6780 C   0  0  0  0  0  0  0  0  0  0  0  0
  130.2150  127.3840   69.2500 C   0  0  0  0  0  0  0  0  0  0  0  0
  130.4950  127.0560   67.9270 C   0  0  0  0  0  0  0  0  0  0  0  0
  129.4610  126.8960   67.0030 C   0  0  0  0  0  0  0  0  0  0  0  0
  129.8580  126.5500   65.6970 N   0  0  0  0  0  0  0  0  0  0  0  0
  130.8480  125.7260   65.2750 C   0  0  0  0  0  0  0  0  0  0  0  0
  131.5730  125.0730   66.0270 O   0  0  0  0  0  0  0  0  0  0  0  0
  131.0060  125.6320   63.8210 C   0  0  0  0  0  0  0  0  0  0  0  0
  129.9690  126.5760   62.7540 S   0  0  0  0  0  0  0  0  0  0  0  0
  130.7890  125.9610   61.3380 C   0  0  0  0  0  0  0  0  0  0  0  0
  130.4350  126.3370   60.1110 N   0  0  0  0  0  0  0  0  0  0  0  0
  131.1380  125.8130   59.0730 C   0  0  0  0  0  0  0  0  0  0  0  0
  130.7190  126.2600   57.7030 C   0  0  0  0  0  0  0  0  0  0  0  0
  130.1160  127.5140   57.5100 C   0  0  0  0  0  0  0  0  0  0  0  0
  129.7210  127.9330   56.2420 C   0  0  0  0  0  0  0  0  0  0  0  0
  129.9250  127.1020   55.1450 C   0  0  0  0  0  0  0  0  0  0  0  0
  130.5180  125.8540   55.3090 C   0  0  0  0  0  0  0  0  0  0  0  0
  130.9080  125.4380   56.5780 C   0  0  0  0  0  0  0  0  0  0  0  0
  132.1780  124.8990   59.2720 C   0  0  0  0  0  0  0  0  0  0  0  0
  132.5570  124.4940   60.5610 C   0  0  0  0  0  0  0  0  0  0  0  0
  133.7070  123.4900   60.7070 C   0  0  0  0  0  0  0  0  0  0  0  0
  134.6890  123.9310   61.4960 F   0  0  0  0  0  0  0  0  0  0  0  0
  133.2490  122.3550   61.2370 F   0  0  0  0  0  0  0  0  0  0  0  0
  134.2390  123.2350   59.5120 F   0  0  0  0  0  0  0  0  0  0  0  0
  131.8370  125.0490   61.6580 C   0  0  0  0  0  0  0  0  0  0  0  0
  131.9420  124.8840   63.0870 C   0  0  0  0  0  0  0  0  0  0  0  0
  132.8740  124.0660   63.6720 N   0  0  0  0  0  0  0  0  0  0  0  0
  128.1330  127.0600   67.4240 C   0  0  0  0  0  0  0  0  0  0  0  0
  127.8540  127.3870   68.7470 C   0  0  0  0  0  0  0  0  0  0  0  0
  1  2  1  0
  2  3  1  0
  3  4  2  0
  3  5  1  0
  5  6  2  0
  6  7  1  0
  7  8  2  0
  8  9  1  0
  9 10  1  0
 10 11  2  0
 10 12  1  0
 12 13  1  0
 13 14  1  0
 14 15  2  0
 15 16  1  0
 16 17  1  0
 17 18  2  0
 18 19  1  0
 19 20  2  0
 20 21  1  0
 21 22  2  0
 16 23  2  0
 23 24  1  0
 24 25  1  0
 25 26  1  0
 25 27  1  0
 25 28  1  0
 24 29  2  0
 29 30  1  0
 30 31  1  0
  8 32  1  0
 32 33  2  0
 33  5  1  0
 30 12  2  0
 29 14  1  0
 22 17  1  0
M  END
>  <Binding energies>  (31) 
[-6.75]

>  <Ligand effiencies>  (31) 
[-0.1875]

>  <Interactions>  (31) 
["V-B:TYR:539:CZ:9849, V-A:HIS:456:CD2:4066, V-A:HIS:456:CE1:4068, V-B:GLU:543:C:9874, V-B:HIS:456:CE1:9042, V-A:GLY:544:C:4910, V-B:HIS:456:CD2:9040, H-B:HIS:456:ND1:9039, V-A:GLU:543:CD:4906, V-B:GLU:543:CD:9880, V-A:ASP:366:CG:3211, H-A:GLU:543:OE1:4907, V-A:ILE:369:CD1:3237, H-A:TYR:484:OH:4346, V-A:ILE:369:CG2:3235, V-A:LEU:475:CD2:4257, V-A:GLY:453:C:4040, V-A:GLY:453:CA:4042, V-A:ILE:369:CB:3234, H-B:GLU:543:OE2:9882, H-B:GLU:543:OE1:9881, H-A:GLU:543:OE2:4908, V-A:GLY:454:CA:4047, V-A:GLU:543:C:4900, V-B:GLU:543:CG:9879, V-B:GLU:543:CB:9878, V-A:ARG:545:CG:4920, V-A:GLU:543:CG:4905, V-A:ILE:369:CG1:3236"]

$$$$
4cc_Grossjean_2025
     RDKit          3D

 31 34  0  0  0  0  0  0  0  0999 V2000
  134.6210  127.3820   73.7660 C   0  0  0  0  0  0  0  0  0  0  0  0
  133.9830  126.7400   74.8650 O   0  0  0  0  0  0  0  0  0  0  0  0
  133.2670  125.5800   74.6450 C   0  0  0  0  0  0  0  0  0  0  0  0
  132.0850  125.7060   73.9160 C   0  0  0  0  0  0  0  0  0  0  0  0
  131.2970  124.5920   73.6420 C   0  0  0  0  0  0  0  0  0  0  0  0
  131.6780  123.3310   74.1070 C   0  0  0  0  0  0  0  0  0  0  0  0
  130.8270  122.2620   73.7680 N   0  0  0  0  0  0  0  0  0  0  0  0
  129.7450  122.2530   72.9530 C   0  0  0  0  0  0  0  0  0  0  0  0
  129.3510  123.2340   72.3210 O   0  0  0  0  0  0  0  0  0  0  0  0
  129.0430  120.9700   72.8530 C   0  0  0  0  0  0  0  0  0  0  0  0
  128.2140  120.5250   71.3630 S   0  0  0  0  0  0  0  0  0  0  0  0
  127.7110  118.9970   72.0460 C   0  0  0  0  0  0  0  0  0  0  0  0
  126.9860  118.1280   71.3460 N   0  0  0  0  0  0  0  0  0  0  0  0
  126.6510  116.9620   71.9580 C   0  0  0  0  0  0  0  0  0  0  0  0
  125.8310  116.0030   71.1450 C   0  0  0  0  0  0  0  0  0  0  0  0
  126.1240  114.6290   71.1450 C   0  0  0  0  0  0  0  0  0  0  0  0
  125.3690  113.7340   70.3920 C   0  0  0  0  0  0  0  0  0  0  0  0
  124.3080  114.2010   69.6240 C   0  0  0  0  0  0  0  0  0  0  0  0
  123.9990  115.5570   69.6030 C   0  0  0  0  0  0  0  0  0  0  0  0
  124.7570  116.4490   70.3570 C   0  0  0  0  0  0  0  0  0  0  0  0
  127.0300  116.6830   73.2750 C   0  0  0  0  0  0  0  0  0  0  0  0
  127.7930  117.5940   74.0230 C   0  0  0  0  0  0  0  0  0  0  0  0
  128.1790  117.2210   75.4590 C   0  0  0  0  0  0  0  0  0  0  0  0
  129.4990  117.1900   75.6560 F   0  0  0  0  0  0  0  0  0  0  0  0
  127.6710  118.1130   76.3090 F   0  0  0  0  0  0  0  0  0  0  0  0
  127.7030  116.0120   75.7540 F   0  0  0  0  0  0  0  0  0  0  0  0
  128.1580  118.8160   73.3880 C   0  0  0  0  0  0  0  0  0  0  0  0
  128.9150  119.9640   73.8240 C   0  0  0  0  0  0  0  0  0  0  0  0
  129.4620  120.0570   75.0790 N   0  0  0  0  0  0  0  0  0  0  0  0
  132.8720  123.1930   74.8300 C   0  0  0  0  0  0  0  0  0  0  0  0
  133.6570  124.3110   75.1000 C   0  0  0  0  0  0  0  0  0  0  0  0
  1  2  1  0
  2  3  1  0
  3  4  2  0
  4  5  1  0
  5  6  2  0
  6  7  1  0
  7  8  1  0
  8  9  2  0
  8 10  1  0
 10 11  1  0
 11 12  1  0
 12 13  2  0
 13 14  1  0
 14 15  1  0
 15 16  2  0
 16 17  1  0
 17 18  2  0
 18 19  1  0
 19 20  2  0
 14 21  2  0
 21 22  1  0
 22 23  1  0
 23 24  1  0
 23 25  1  0
 23 26  1  0
 22 27  2  0
 27 28  1  0
 28 29  1  0
  6 30  1  0
 30 31  2  0
 31  3  1  0
 28 10  2  0
 27 12  1  0
 20 15  1  0
M  END
>  <Binding energies>  (32) 
[-6.77]

>  <Ligand effiencies>  (32) 
[-0.1991176470588235]

>  <Interactions>  (32) 
["V-A:VAL:458:CG2:4085, V-A:HIS:456:CD2:4066, V-B:GLU:543:C:9874, H-B:LYS:547:NZ:9923, V-A:LYS:547:CD:4947, V-B:LYS:547:CE:9922, V-A:GLY:544:C:4910, V-A:ASP:473:CG:4238, V-A:HIS:456:CB:4063, V-A:TYR:484:CB:4339, V-A:HIS:456:CG:4064, V-A:LYS:471:CE:4218, V-A:LYS:547:CB:4945, V-A:TYR:484:CG:4340, V-A:LYS:547:CG:4946, V-A:VAL:457:C:4071, V-A:HIS:456:C:4059, H-A:ASP:473:OD2:4240, V-A:SER:483:CB:4331, V-B:VAL:542:CG1:9871, V-A:TYR:484:CD1:4341, V-A:ILE:546:C:4932, H-A:TYR:484:N:4338, V-A:TYR:484:C:4335, V-A:ARG:545:C:4915, V-A:PRO:486:CD:4364, V-B:VAL:542:CB:9870, H-A:ASP:473:OD1:4239, V-A:ILE:546:CA:4934"]

$$$$
4ce_Grossjean_2025
     RDKit          3D

 30 33  0  0  0  0  0  0  0  0999 V2000
  127.1530  127.7530   73.7490 C   0  0  0  0  0  0  0  0  0  0  0  0
  126.7170  129.1420   74.1750 C   0  0  0  0  0  0  0  0  0  0  0  0
  125.5480  129.3470   74.9120 C   0  0  0  0  0  0  0  0  0  0  0  0
  125.2130  130.6510   75.2770 C   0  0  0  0  0  0  0  0  0  0  0  0
  126.0460  131.7070   74.9030 C   0  0  0  0  0  0  0  0  0  0  0  0
  127.2000  131.4320   74.1600 C   0  0  0  0  0  0  0  0  0  0  0  0
  128.0110  132.5350   73.8340 N   0  0  0  0  0  0  0  0  0  0  0  0
  129.0100  132.6130   72.9200 C   0  0  0  0  0  0  0  0  0  0  0  0
  129.3510  131.6750   72.1970 O   0  0  0  0  0  0  0  0  0  0  0  0
  129.6830  133.9100   72.8320 C   0  0  0  0  0  0  0  0  0  0  0  0
  130.4560  134.4080   71.3290 S   0  0  0  0  0  0  0  0  0  0  0  0
  130.9210  135.9420   72.0240 C   0  0  0  0  0  0  0  0  0  0  0  0
  131.5910  136.8490   71.3180 N   0  0  0  0  0  0  0  0  0  0  0  0
  131.8960  138.0190   71.9390 C   0  0  0  0  0  0  0  0  0  0  0  0
  132.6470  139.0220   71.1150 C   0  0  0  0  0  0  0  0  0  0  0  0
  132.3600  140.3930   71.2180 C   0  0  0  0  0  0  0  0  0  0  0  0
  133.0490  141.3290   70.4510 C   0  0  0  0  0  0  0  0  0  0  0  0
  134.0370  140.9060   69.5680 C   0  0  0  0  0  0  0  0  0  0  0  0
  134.3390  139.5540   69.4460 C   0  0  0  0  0  0  0  0  0  0  0  0
  133.6470  138.6210   70.2130 C   0  0  0  0  0  0  0  0  0  0  0  0
  131.5440  138.2630   73.2710 C   0  0  0  0  0  0  0  0  0  0  0  0
  130.8410  137.3110   74.0260 C   0  0  0  0  0  0  0  0  0  0  0  0
  130.4860  137.6440   75.4790 C   0  0  0  0  0  0  0  0  0  0  0  0
  130.9190  136.7280   76.3480 F   0  0  0  0  0  0  0  0  0  0  0  0
  131.0340  138.8100   75.8210 F   0  0  0  0  0  0  0  0  0  0  0  0
  129.1620  137.7250   75.6120 F   0  0  0  0  0  0  0  0  0  0  0  0
  130.5030  136.0870   73.3800 C   0  0  0  0  0  0  0  0  0  0  0  0
  129.7980  134.9060   73.8160 C   0  0  0  0  0  0  0  0  0  0  0  0
  129.2860  134.7740   75.0810 N   0  0  0  0  0  0  0  0  0  0  0  0
  127.5370  130.1590   73.8030 N   0  0  0  0  0  0  0  0  0  0  0  0
  1  2  1  0
  2  3  2  0
  3  4  1  0
  4  5  2  0
  5  6  1  0
  6  7  1  0
  7  8  1  0
  8  9  2  0
  8 10  1  0
 10 11  1  0
 11 12  1  0
 12 13  2  0
 13 14  1  0
 14 15  1  0
 15 16  2  0
 16 17  1  0
 17 18  2  0
 18 19  1  0
 19 20  2  0
 14 21  2  0
 21 22  1  0
 22 23  1  0
 23 24  1  0
 23 25  1  0
 23 26  1  0
 22 27  2  0
 27 28  1  0
 28 29  1  0
  6 30  2  0
 30  2  1  0
 28 10  2  0
 27 12  1  0
 20 15  1  0
M  END
>  <Binding energies>  (33) 
[-7.3]

>  <Ligand effiencies>  (33) 
[-0.2212121212121212]

>  <Interactions>  (33) 
["V-B:LYS:547:CE:9922, H-A:LYS:547:NZ:4949, V-B:GLY:544:C:9884, V-B:HIS:456:CD2:9040, V-B:LYS:547:CD:9921, V-B:VAL:458:CG2:9059, V-B:LYS:471:CE:9192, H-B:ASP:473:OD2:9214, V-B:HIS:456:CG:9038, V-B:HIS:456:CB:9037, V-B:TYR:484:CB:9313, V-B:HIS:456:C:9033, V-B:SER:483:CB:9305, V-A:VAL:542:CG1:4897, H-B:TYR:484:N:9312, V-A:GLU:543:C:4900, V-B:TYR:484:CD1:9315, V-B:TYR:484:C:9309, V-A:GLU:543:CA:4902, H-A:GLY:544:N:4913, V-A:VAL:542:CB:4896, V-B:ASP:473:CG:9212, V-B:ASP:473:CB:9211, V-B:PRO:486:CD:9338"]

$$$$
4cf_Grossjean_2025
     RDKit          3D

 29 32  0  0  0  0  0  0  0  0999 V2000
  126.1470  132.7220   63.7870 N   0  0  0  0  0  0  0  0  0  0  0  0
  126.6730  131.7350   62.9940 C   0  0  0  0  0  0  0  0  0  0  0  0
  126.8410  130.4090   63.4260 C   0  0  0  0  0  0  0  0  0  0  0  0
  126.5470  129.8310   64.7400 C   0  0  0  0  0  0  0  0  0  0  0  0
  125.4430  129.9940   65.2640 O   0  0  0  0  0  0  0  0  0  0  0  0
  127.5540  129.1200   65.3010 N   0  0  0  0  0  0  0  0  0  0  0  0
  127.6170  128.4870   66.5570 C   0  0  0  0  0  0  0  0  0  0  0  0
  128.7500  128.4390   67.3920 C   0  0  0  0  0  0  0  0  0  0  0  0
  128.6800  127.7630   68.6120 C   0  0  0  0  0  0  0  0  0  0  0  0
  127.4790  127.1480   68.9680 C   0  0  0  0  0  0  0  0  0  0  0  0
  126.3760  127.1730   68.1790 N   0  0  0  0  0  0  0  0  0  0  0  0
  126.4590  127.8340   66.9950 C   0  0  0  0  0  0  0  0  0  0  0  0
  127.5370  129.4090   62.1530 S   0  0  0  0  0  0  0  0  0  0  0  0
  127.6060  130.7700   61.0590 C   0  0  0  0  0  0  0  0  0  0  0  0
  128.0880  130.6460   59.8240 N   0  0  0  0  0  0  0  0  0  0  0  0
  128.1160  131.7650   59.0530 C   0  0  0  0  0  0  0  0  0  0  0  0
  128.6720  131.5960   57.6690 C   0  0  0  0  0  0  0  0  0  0  0  0
  127.9020  131.0100   56.6530 C   0  0  0  0  0  0  0  0  0  0  0  0
  128.4100  130.8500   55.3660 C   0  0  0  0  0  0  0  0  0  0  0  0
  129.7000  131.2800   55.0770 C   0  0  0  0  0  0  0  0  0  0  0  0
  130.4850  131.8680   56.0640 C   0  0  0  0  0  0  0  0  0  0  0  0
  129.9730  132.0250   57.3480 C   0  0  0  0  0  0  0  0  0  0  0  0
  127.6380  132.9940   59.5170 C   0  0  0  0  0  0  0  0  0  0  0  0
  127.1240  133.1350   60.8150 C   0  0  0  0  0  0  0  0  0  0  0  0
  126.6210  134.5130   61.2600 C   0  0  0  0  0  0  0  0  0  0  0  0
  127.1350  134.9060   62.4280 F   0  0  0  0  0  0  0  0  0  0  0  0
  126.9520  135.4290   60.3500 F   0  0  0  0  0  0  0  0  0  0  0  0
  125.2960  134.4880   61.3970 F   0  0  0  0  0  0  0  0  0  0  0  0
  127.1060  131.9720   61.6390 C   0  0  0  0  0  0  0  0  0  0  0  0
  1  2  1  0
  2  3  2  0
  3  4  1  0
  4  5  2  0
  4  6  1  0
  6  7  1  0
  7  8  2  0
  8  9  1  0
  9 10  2  0
 10 11  1  0
 11 12  2  0
  3 13  1  0
 13 14  1  0
 14 15  2  0
 15 16  1  0
 16 17  1  0
 17 18  2  0
 18 19  1  0
 19 20  2  0
 20 21  1  0
 21 22  2  0
 16 23  2  0
 23 24  1  0
 24 25  1  0
 25 26  1  0
 25 27  1  0
 25 28  1  0
 24 29  2  0
 29  2  1  0
 12  7  1  0
 29 14  1  0
 22 17  1  0
M  END
>  <Binding energies>  (34) 
[-6.44]

>  <Ligand effiencies>  (34) 
[-0.20125]

>  <Interactions>  (34) 
["V-A:PRO:540:N:4882, V-A:TYR:539:CE1:4873, V-A:TYR:539:CZ:4875, V-A:PRO:540:CA:4881, V-B:GLU:543:C:9874, H-B:ARG:545:N:9892, V-B:HIS:456:CE1:9042, V-B:GLY:544:C:9884, V-A:GLU:543:CD:4906, V-A:TYR:539:C:4865, V-B:GLU:543:CD:9880, V-A:TYR:539:CE2:4874, H-A:GLU:543:OE1:4907, V-A:TYR:539:CD2:4872, V-A:TYR:539:CG:4870, V-B:PRO:482:CB:9298, V-B:TRP:381:CZ2:8342, V-B:TRP:381:CH2:8344, V-B:LEU:475:CD2:9231, V-A:ALA:541:CB:4890, H-B:TYR:484:OH:9320, V-B:TYR:484:CZ:9319, H-B:ARG:545:NE:9896, V-A:GLU:543:CB:4904, H-B:GLU:543:OE2:9882, H-A:GLU:543:OE2:4908, V-B:ARG:545:CD:9895, V-B:LEU:475:CG:9229, V-B:TRP:381:CZ3:8343, V-A:GLU:543:C:4900, V-B:GLU:543:CG:9879, V-B:ARG:545:CG:9894, V-A:GLU:543:CG:4905, V-B:LEU:475:CD1:9230"]

$$$$
4ci_Grossjean_2025
     RDKit          3D

 28 31  0  0  0  0  0  0  0  0999 V2000
  129.4960  131.2890   61.7620 N   0  0  0  0  0  0  0  0  0  0  0  0
  128.5080  131.3510   60.8140 C   0  0  0  0  0  0  0  0  0  0  0  0
  127.1430  131.4540   61.1300 C   0  0  0  0  0  0  0  0  0  0  0  0
  126.5150  131.5260   62.4520 C   0  0  0  0  0  0  0  0  0  0  0  0
  126.4800  132.5900   63.0750 O   0  0  0  0  0  0  0  0  0  0  0  0
  126.0050  130.3600   62.9200 N   0  0  0  0  0  0  0  0  0  0  0  0
  125.3640  130.1430   64.1330 C   0  0  0  0  0  0  0  0  0  0  0  0
  126.0210  129.6770   65.2710 C   0  0  0  0  0  0  0  0  0  0  0  0
  125.0490  129.5980   66.2400 C   0  0  0  0  0  0  0  0  0  0  0  0
  123.8660  129.9970   65.7140 O   0  0  0  0  0  0  0  0  0  0  0  0
  124.0790  130.3390   64.3780 N   0  0  0  0  0  0  0  0  0  0  0  0
  126.1560  131.5220   59.6730 S   0  0  0  0  0  0  0  0  0  0  0  0
  127.5710  131.4030   58.6530 C   0  0  0  0  0  0  0  0  0  0  0  0
  127.4740  131.4010   57.3260 N   0  0  0  0  0  0  0  0  0  0  0  0
  128.6290  131.3090   56.6170 C   0  0  0  0  0  0  0  0  0  0  0  0
  128.4870  131.3040   55.1220 C   0  0  0  0  0  0  0  0  0  0  0  0
  129.4820  131.8610   54.3020 C   0  0  0  0  0  0  0  0  0  0  0  0
  129.3560  131.8590   52.9150 C   0  0  0  0  0  0  0  0  0  0  0  0
  128.2280  131.2980   52.3260 C   0  0  0  0  0  0  0  0  0  0  0  0
  127.2250  130.7450   53.1140 C   0  0  0  0  0  0  0  0  0  0  0  0
  127.3540  130.7500   54.5000 C   0  0  0  0  0  0  0  0  0  0  0  0
  129.8740  131.2010   57.2470 C   0  0  0  0  0  0  0  0  0  0  0  0
  129.9880  131.2020   58.6460 C   0  0  0  0  0  0  0  0  0  0  0  0
  131.3840  131.0810   59.2690 C   0  0  0  0  0  0  0  0  0  0  0  0
  131.5570  131.8780   60.3250 F   0  0  0  0  0  0  0  0  0  0  0  0
  131.5860  129.8290   59.6760 F   0  0  0  0  0  0  0  0  0  0  0  0
  132.3100  131.4060   58.3660 F   0  0  0  0  0  0  0  0  0  0  0  0
  128.7830  131.3120   59.3980 C   0  0  0  0  0  0  0  0  0  0  0  0
  1  2  1  0
  2  3  2  0
  3  4  1  0
  4  5  2  0
  4  6  1  0
  6  7  1  0
  7  8  1  0
  8  9  2  0
  9 10  1  0
 10 11  1  0
  3 12  1  0
 12 13  1  0
 13 14  2  0
 14 15  1  0
 15 16  1  0
 16 17  2  0
 17 18  1  0
 18 19  2  0
 19 20  1  0
 20 21  2  0
 15 22  2  0
 22 23  1  0
 23 24  1  0
 24 25  1  0
 24 26  1  0
 24 27  1  0
 23 28  2  0
 28  2  1  0
 11  7  2  0
 28 13  1  0
 21 16  1  0
M  END
>  <Binding energies>  (35) 
[-7.65]

>  <Ligand effiencies>  (35) 
[-0.24677419354838712]

>  <Interactions>  (35) 
["V-A:PRO:540:N:4882, V-A:VAL:537:C:4848, V-A:TYR:539:CE1:4873, V-A:TYR:539:CZ:4875, V-A:PRO:540:CB:4883, V-A:ILE:538:CG2:4861, V-A:ILE:538:CA:4858, V-B:MET:535:CE:9807, V-A:MET:535:CB:4830, V-A:MET:535:CG:4831, V-A:PRO:540:CA:4881, V-B:HIS:456:CE1:9042, V-A:GLU:543:CD:4906, V-A:TYR:539:CE2:4874, V-A:ASP:366:CG:3211, H-A:GLU:543:OE1:4907, H-A:ALA:541:O:4887, V-B:ARG:545:CZ:9898, V-A:TYR:539:CD1:4871, V-A:TYR:539:CD2:4872, H-A:TYR:539:OH:4876, H-B:GLY:454:N:9022, V-A:ALA:541:CB:4890, H-B:TYR:484:OH:9320, V-B:TYR:484:CZ:9319, H-B:ARG:545:NE:9896, H-A:GLU:543:OE2:4908, V-A:PRO:540:C:4879, V-B:ARG:545:CD:9895, V-B:ARG:545:CG:9894, V-A:MET:535:CA:4828"]

$$$$
8a_Ghoteimi_2023
     RDKit          3D

 40 44  0  0  0  0  0  0  0  0999 V2000
  120.0540  115.7830   67.3630 C   0  0  0  0  0  0  0  0  0  0  0  0
  121.5270  115.3660   67.3730 C   0  0  0  0  0  0  0  0  0  0  0  0
  121.6680  114.1420   68.0820 O   0  0  0  0  0  0  0  0  0  0  0  0
  121.7460  114.1220   69.4390 C   0  0  0  0  0  0  0  0  0  0  0  0
  121.0980  113.3430   70.1460 O   0  0  0  0  0  0  0  0  0  0  0  0
  122.6930  115.1460   69.9930 C   0  0  0  0  0  0  0  0  0  0  0  0
  124.0620  115.0280   69.7210 C   0  0  0  0  0  0  0  0  0  0  0  0
  124.9660  115.9610   70.2220 C   0  0  0  0  0  0  0  0  0  0  0  0
  124.5240  117.0280   71.0050 C   0  0  0  0  0  0  0  0  0  0  0  0
  125.5280  117.9050   71.4600 N   0  0  0  0  0  0  0  0  0  0  0  0
  126.5940  118.4320   70.8080 C   0  0  0  0  0  0  0  0  0  0  0  0
  126.8680  118.2040   69.6300 O   0  0  0  0  0  0  0  0  0  0  0  0
  127.4350  119.3280   71.6070 C   0  0  0  0  0  0  0  0  0  0  0  0
  127.9760  120.8700   70.9440 S   0  0  0  0  0  0  0  0  0  0  0  0
  128.8500  121.2470   72.4110 C   0  0  0  0  0  0  0  0  0  0  0  0
  129.5530  122.3730   72.5370 N   0  0  0  0  0  0  0  0  0  0  0  0
  130.2000  122.5660   73.7170 C   0  0  0  0  0  0  0  0  0  0  0  0
  130.9990  123.8250   73.8290 C   0  0  0  0  0  0  0  0  0  0  0  0
  132.0430  123.9390   74.7570 C   0  0  0  0  0  0  0  0  0  0  0  0
  132.7750  125.1180   74.8650 C   0  0  0  0  0  0  0  0  0  0  0  0
  132.4860  126.2090   74.0480 C   0  0  0  0  0  0  0  0  0  0  0  0
  133.2630  127.3380   74.2270 O   0  0  0  0  0  0  0  0  0  0  0  0
  134.6250  127.3140   73.8140 C   0  0  0  0  0  0  0  0  0  0  0  0
  131.4470  126.1040   73.1130 C   0  0  0  0  0  0  0  0  0  0  0  0
  130.7140  124.9240   73.0090 C   0  0  0  0  0  0  0  0  0  0  0  0
  130.1360  121.6440   74.7630 C   0  0  0  0  0  0  0  0  0  0  0  0
  129.3860  120.4690   74.6410 C   0  0  0  0  0  0  0  0  0  0  0  0
  129.3270  119.5370   75.7960 C   0  0  0  0  0  0  0  0  0  0  0  0
  128.4700  119.7990   76.8670 C   0  0  0  0  0  0  0  0  0  0  0  0
  128.3960  118.9180   77.9420 C   0  0  0  0  0  0  0  0  0  0  0  0
  129.1710  117.7580   77.9630 C   0  0  0  0  0  0  0  0  0  0  0  0
  129.0320  116.9430   79.0700 O   0  0  0  0  0  0  0  0  0  0  0  0
  129.7250  115.7020   79.1090 C   0  0  0  0  0  0  0  0  0  0  0  0
  130.0270  117.4880   76.8830 C   0  0  0  0  0  0  0  0  0  0  0  0
  130.0980  118.3710   75.8080 C   0  0  0  0  0  0  0  0  0  0  0  0
  128.7180  120.2340   73.4060 C   0  0  0  0  0  0  0  0  0  0  0  0
  127.9190  119.1400   72.9120 C   0  0  0  0  0  0  0  0  0  0  0  0
  127.6740  118.0120   73.6540 N   0  0  0  0  0  0  0  0  0  0  0  0
  123.1540  117.1560   71.2790 C   0  0  0  0  0  0  0  0  0  0  0  0
  122.2500  116.2230   70.7770 C   0  0  0  0  0  0  0  0  0  0  0  0
  1  2  1  0
  2  3  1  0
  3  4  1  0
  4  5  2  0
  4  6  1  0
  6  7  2  0
  7  8  1  0
  8  9  2  0
  9 10  1  0
 10 11  1  0
 11 12  2  0
 11 13  1  0
 13 14  1  0
 14 15  1  0
 15 16  2  0
 16 17  1  0
 17 18  1  0
 18 19  2  0
 19 20  1  0
 20 21  2  0
 21 22  1  0
 22 23  1  0
 21 24  1  0
 24 25  2  0
 17 26  2  0
 26 27  1  0
 27 28  1  0
 28 29  2  0
 29 30  1  0
 30 31  2  0
 31 32  1  0
 32 33  1  0
 31 34  1  0
 34 35  2  0
 27 36  2  0
 36 37  1  0
 37 38  1  0
  9 39  1  0
 39 40  2  0
 40  6  1  0
 37 13  2  0
 36 15  1  0
 25 18  1  0
 35 28  1  0
M  END
>  <Binding energies>  (36) 
[-6.25]

>  <Ligand effiencies>  (36) 
[-0.14534883720930233]

>  <Interactions>  (36) 
["V-A:VAL:458:CG2:4085, V-A:HIS:456:CD2:4066, V-B:GLY:544:CA:9886, V-B:GLU:543:C:9874, V-A:LYS:547:CE:4948, V-A:LYS:547:CD:4947, V-B:LYS:547:CE:9922, V-A:GLY:544:C:4910, V-A:ASP:473:CG:4238, V-A:HIS:456:CB:4063, V-A:TYR:484:CB:4339, V-A:HIS:456:CG:4064, V-A:LYS:471:CE:4218, V-A:LYS:547:CB:4945, V-A:TYR:484:CG:4340, V-A:LYS:547:CG:4946, V-A:VAL:457:C:4071, V-B:GLU:543:CA:9876, V-A:SER:483:CB:4331, V-B:VAL:542:CG1:9871, V-A:TYR:484:CD1:4341, V-A:ILE:546:C:4932, H-A:TYR:484:N:4338, V-B:ARG:356:CD:8091, V-B:GLU:357:C:8102, V-B:SER:352:CB:8045, V-B:ARG:356:CG:8090, V-B:CYS:358:CB:8112, V-B:CYS:358:CA:8114, V-A:ARG:545:C:4915, V-B:VAL:542:CG2:9872, V-A:PRO:486:CD:4364, V-A:PRO:486:CG:4363, H-A:TYR:484:O:4336, V-A:VAL:481:CG1:4317, V-B:ASP:347:CG:8004, V-A:ILE:546:CA:4934"]

$$$$
8c_Ghoteimi_2023
     RDKit          3D

 34 38  0  0  0  0  0  0  0  0999 V2000
  124.1410  113.5420   67.8480 C   0  0  0  0  0  0  0  0  0  0  0  0
  124.1210  113.4390   69.2670 O   0  0  0  0  0  0  0  0  0  0  0  0
  124.8720  114.3250   70.0170 C   0  0  0  0  0  0  0  0  0  0  0  0
  124.4650  115.6570   69.9990 C   0  0  0  0  0  0  0  0  0  0  0  0
  125.1640  116.6190   70.7230 C   0  0  0  0  0  0  0  0  0  0  0  0
  126.2880  116.2730   71.4850 C   0  0  0  0  0  0  0  0  0  0  0  0
  127.0460  117.3030   72.2620 C   0  0  0  0  0  0  0  0  0  0  0  0
  127.5250  117.0490   73.5500 C   0  0  0  0  0  0  0  0  0  0  0  0
  128.2320  118.0290   74.2550 C   0  0  0  0  0  0  0  0  0  0  0  0
  128.7190  117.7310   75.6210 C   0  0  0  0  0  0  0  0  0  0  0  0
  127.8200  117.6580   76.6880 C   0  0  0  0  0  0  0  0  0  0  0  0
  128.2770  117.3690   77.9700 C   0  0  0  0  0  0  0  0  0  0  0  0
  129.6350  117.1510   78.2060 C   0  0  0  0  0  0  0  0  0  0  0  0
  129.9980  116.8680   79.5090 O   0  0  0  0  0  0  0  0  0  0  0  0
  131.1840  116.1210   79.7530 C   0  0  0  0  0  0  0  0  0  0  0  0
  130.5380  117.2290   77.1340 C   0  0  0  0  0  0  0  0  0  0  0  0
  130.0790  117.5180   75.8520 C   0  0  0  0  0  0  0  0  0  0  0  0
  128.4520  119.2800   73.6200 C   0  0  0  0  0  0  0  0  0  0  0  0
  129.1240  120.4820   74.0380 C   0  0  0  0  0  0  0  0  0  0  0  0
  129.7240  120.5990   75.2670 N   0  0  0  0  0  0  0  0  0  0  0  0
  129.1070  121.5070   73.0790 C   0  0  0  0  0  0  0  0  0  0  0  0
  129.6910  122.8470   73.1660 C   0  0  0  0  0  0  0  0  0  0  0  0
  129.1370  123.8120   72.6330 O   0  0  0  0  0  0  0  0  0  0  0  0
  130.8540  122.9310   73.8580 N   0  0  0  0  0  0  0  0  0  0  0  0
  131.6070  124.0730   74.0900 C   0  0  0  0  0  0  0  0  0  0  0  0
  131.3000  125.3170   73.7900 N   0  0  0  0  0  0  0  0  0  0  0  0
  132.2510  126.1520   74.1600 C   0  0  0  0  0  0  0  0  0  0  0  0
  133.3630  125.5870   74.7740 C   0  0  0  0  0  0  0  0  0  0  0  0
  133.1420  123.8650   74.8670 S   0  0  0  0  0  0  0  0  0  0  0  0
  128.2520  121.0010   71.6210 S   0  0  0  0  0  0  0  0  0  0  0  0
  127.9230  119.4250   72.3050 C   0  0  0  0  0  0  0  0  0  0  0  0
  127.2470  118.4930   71.6340 N   0  0  0  0  0  0  0  0  0  0  0  0
  126.6900  114.9300   71.5000 C   0  0  0  0  0  0  0  0  0  0  0  0
  125.9940  113.9650   70.7760 C   0  0  0  0  0  0  0  0  0  0  0  0
  1  2  1  0
  2  3  1  0
  3  4  2  0
  4  5  1  0
  5  6  2  0
  6  7  1  0
  7  8  2  0
  8  9  1  0
  9 10  1  0
 10 11  2  0
 11 12  1  0
 12 13  2  0
 13 14  1  0
 14 15  1  0
 13 16  1  0
 16 17  2  0
  9 18  2  0
 18 19  1  0
 19 20  1  0
 19 21  2  0
 21 22  1  0
 22 23  2  0
 22 24  1  0
 24 25  1  0
 25 26  2  0
 26 27  1  0
 27 28  2  0
 28 29  1  0
 21 30  1  0
 30 31  1  0
 31 32  2  0
  6 33  1  0
 33 34  2  0
 34  3  1  0
 32  7  1  0
 17 10  1  0
 31 18  1  0
 29 25  1  0
M  END
>  <Binding energies>  (37) 
[-6.98]

>  <Ligand effiencies>  (37) 
[-0.18864864864864866]

>  <Interactions>  (37) 
["V-A:VAL:458:CG2:4085, V-A:HIS:456:CD2:4066, V-B:GLY:544:CA:9886, V-B:GLU:543:C:9874, H-B:LYS:547:NZ:9923, V-A:LYS:547:CE:4948, V-B:LYS:547:CE:9922, V-A:ASP:473:CG:4238, V-A:HIS:456:CB:4063, V-A:TYR:484:CB:4339, V-A:HIS:456:CG:4064, V-A:LYS:471:CE:4218, V-A:HIS:456:C:4059, H-A:ASP:473:OD2:4240, V-A:SER:483:CB:4331, V-B:VAL:542:CG1:9871, H-A:TYR:484:N:4338, V-A:PRO:486:CD:4364, V-A:PRO:486:CG:4363, V-A:VAL:481:CG1:4317, V-A:VAL:481:CB:4316"]

$$$$
8d_Ghoteimi_2023
     RDKit          3D

 30 33  0  0  0  0  0  0  0  0999 V2000
  127.3940  123.2530   54.9890 C   0  0  0  0  0  0  0  0  0  0  0  0
  126.4670  122.5130   55.7710 O   0  0  0  0  0  0  0  0  0  0  0  0
  125.7770  123.1050   56.7800 C   0  0  0  0  0  0  0  0  0  0  0  0
  124.5470  123.1040   56.8680 O   0  0  0  0  0  0  0  0  0  0  0  0
  126.6570  123.7610   57.7720 C   0  0  0  0  0  0  0  0  0  0  0  0
  128.0170  122.8740   58.4640 S   0  0  0  0  0  0  0  0  0  0  0  0
  128.4690  124.2520   59.4400 C   0  0  0  0  0  0  0  0  0  0  0  0
  129.5170  124.2170   60.2630 N   0  0  0  0  0  0  0  0  0  0  0  0
  129.7830  125.3450   60.9750 C   0  0  0  0  0  0  0  0  0  0  0  0
  130.9610  125.2780   61.8940 C   0  0  0  0  0  0  0  0  0  0  0  0
  130.8750  125.7360   63.2170 C   0  0  0  0  0  0  0  0  0  0  0  0
  131.9750  125.6720   64.0680 C   0  0  0  0  0  0  0  0  0  0  0  0
  133.1880  125.1500   63.6210 C   0  0  0  0  0  0  0  0  0  0  0  0
  134.2240  125.1250   64.5330 O   0  0  0  0  0  0  0  0  0  0  0  0
  133.9240  125.1240   65.9250 C   0  0  0  0  0  0  0  0  0  0  0  0
  133.2840  124.6880   62.3000 C   0  0  0  0  0  0  0  0  0  0  0  0
  132.1820  124.7530   61.4520 C   0  0  0  0  0  0  0  0  0  0  0  0
  128.9980  126.4970   60.8690 C   0  0  0  0  0  0  0  0  0  0  0  0
  127.9000  126.5340   60.0030 C   0  0  0  0  0  0  0  0  0  0  0  0
  127.0930  127.7730   59.9060 C   0  0  0  0  0  0  0  0  0  0  0  0
  126.9890  128.4490   58.6890 C   0  0  0  0  0  0  0  0  0  0  0  0
  126.2380  129.6180   58.5990 C   0  0  0  0  0  0  0  0  0  0  0  0
  125.5770  130.1240   59.7190 C   0  0  0  0  0  0  0  0  0  0  0  0
  124.8570  131.2880   59.5370 O   0  0  0  0  0  0  0  0  0  0  0  0
  123.4730  131.2050   59.2150 C   0  0  0  0  0  0  0  0  0  0  0  0
  125.6800  129.4390   60.9420 C   0  0  0  0  0  0  0  0  0  0  0  0
  126.4320  128.2710   61.0290 C   0  0  0  0  0  0  0  0  0  0  0  0
  127.6060  125.3690   59.2470 C   0  0  0  0  0  0  0  0  0  0  0  0
  126.5810  125.0590   58.2900 C   0  0  0  0  0  0  0  0  0  0  0  0
  125.6130  125.9610   57.9250 N   0  0  0  0  0  0  0  0  0  0  0  0
  1  2  1  0
  2  3  1  0
  3  4  2  0
  3  5  1  0
  5  6  1  0
  6  7  1  0
  7  8  2  0
  8  9  1  0
  9 10  1  0
 10 11  2  0
 11 12  1  0
 12 13  2  0
 13 14  1  0
 14 15  1  0
 13 16  1  0
 16 17  2  0
  9 18  2  0
 18 19  1  0
 19 20  1  0
 20 21  2  0
 21 22  1  0
 22 23  2  0
 23 24  1  0
 24 25  1  0
 23 26  1  0
 26 27  2  0
 19 28  2  0
 28 29  1  0
 29 30  1  0
 29  5  2  0
 28  7  1  0
 17 10  1  0
 27 20  1  0
M  END
>  <Binding energies>  (38) 
[-7.08]

>  <Ligand effiencies>  (38) 
[-0.22125]

>  <Interactions>  (38) 
["V-B:ASP:366:CG:8185, V-B:ASP:366:CB:8184, V-B:TYR:539:C:9839, H-B:TYR:539:N:9842, V-B:PRO:540:CD:9859, V-B:PRO:540:CB:9857, V-B:PRO:540:CA:9855, V-B:PRO:540:N:9856, V-B:TYR:539:CE1:9847, V-B:ILE:538:CA:9832, V-B:TYR:539:CD2:9846, V-B:TYR:539:CD1:9845, V-B:ILE:538:C:9830, V-A:HIS:456:CE1:4068, H-B:TYR:531:OH:9767, H-B:ASP:366:OD2:8187, V-B:GLU:543:CD:9880, V-A:TYR:539:CE2:4874, V-B:ILE:369:CG2:8209, V-B:ILE:369:CD1:8211, H-A:TYR:484:OH:4346, V-A:ARG:545:CZ:4924, H-A:GLY:454:N:4048, V-B:ILE:369:CB:8208, V-B:ASP:366:CA:8182, H-A:ARG:545:NH1:4925, H-A:ARG:545:NE:4922, V-A:TYR:484:CZ:4345, V-A:ARG:545:CD:4921, V-A:ARG:545:CG:4920"]

$$$$
9a_Ghoteimi_2023
     RDKit          3D

 48 54  0  0  0  0  0  0  0  0999 V2000
  133.0420  126.7020   74.8820 C   0  0  0  0  0  0  0  0  0  0  0  0
  133.3410  125.4050   74.1220 C   0  0  0  0  0  0  0  0  0  0  0  0
  132.1670  124.6030   74.0750 O   0  0  0  0  0  0  0  0  0  0  0  0
  132.2190  123.2690   74.3200 C   0  0  0  0  0  0  0  0  0  0  0  0
  133.2730  122.6540   74.5190 O   0  0  0  0  0  0  0  0  0  0  0  0
  130.8700  122.6110   74.3190 C   0  0  0  0  0  0  0  0  0  0  0  0
  130.1760  122.4690   75.5280 C   0  0  0  0  0  0  0  0  0  0  0  0
  128.9240  121.8620   75.5600 C   0  0  0  0  0  0  0  0  0  0  0  0
  128.3380  121.3860   74.3870 C   0  0  0  0  0  0  0  0  0  0  0  0
  127.0700  120.7910   74.5390 N   0  0  0  0  0  0  0  0  0  0  0  0
  125.8400  121.2440   74.1930 C   0  0  0  0  0  0  0  0  0  0  0  0
  125.6290  122.3290   73.6490 O   0  0  0  0  0  0  0  0  0  0  0  0
  124.7290  120.3390   74.5040 C   0  0  0  0  0  0  0  0  0  0  0  0
  123.8370  120.5110   76.0160 S   0  0  0  0  0  0  0  0  0  0  0  0
  122.7890  119.1750   75.6020 C   0  0  0  0  0  0  0  0  0  0  0  0
  121.8000  118.7870   76.4070 N   0  0  0  0  0  0  0  0  0  0  0  0
  121.0350  117.7450   75.9870 C   0  0  0  0  0  0  0  0  0  0  0  0
  119.9250  117.3350   76.9000 C   0  0  0  0  0  0  0  0  0  0  0  0
  118.7780  116.7150   76.3910 C   0  0  0  0  0  0  0  0  0  0  0  0
  117.7400  116.3290   77.2350 C   0  0  0  0  0  0  0  0  0  0  0  0
  117.8160  116.5360   78.6210 C   0  0  0  0  0  0  0  0  0  0  0  0
  116.7730  116.1710   79.4790 N   0  0  0  0  0  0  0  0  0  0  0  0
  116.3210  117.0610   80.5670 C   0  0  0  0  0  0  0  0  0  0  0  0
  115.4330  116.3600   81.6160 C   0  0  0  0  0  0  0  0  0  0  0  0
  114.3310  115.7340   80.9810 O   0  0  0  0  0  0  0  0  0  0  0  0
  114.7580  114.7540   80.0470 C   0  0  0  0  0  0  0  0  0  0  0  0
  115.6210  115.4120   78.9510 C   0  0  0  0  0  0  0  0  0  0  0  0
  118.9610  117.1720   79.1240 C   0  0  0  0  0  0  0  0  0  0  0  0
  119.9970  117.5600   78.2790 C   0  0  0  0  0  0  0  0  0  0  0  0
  121.2770  117.0800   74.7830 C   0  0  0  0  0  0  0  0  0  0  0  0
  122.3270  117.4710   73.9440 C   0  0  0  0  0  0  0  0  0  0  0  0
  122.5640  116.7060   72.6930 C   0  0  0  0  0  0  0  0  0  0  0  0
  123.0790  115.4080   72.7390 C   0  0  0  0  0  0  0  0  0  0  0  0
  123.2870  114.6880   71.5670 C   0  0  0  0  0  0  0  0  0  0  0  0
  122.9680  115.2410   70.3150 C   0  0  0  0  0  0  0  0  0  0  0  0
  123.1780  114.5420   69.1240 N   0  0  0  0  0  0  0  0  0  0  0  0
  122.0500  113.8160   68.5070 C   0  0  0  0  0  0  0  0  0  0  0  0
  122.3090  113.4200   67.0380 C   0  0  0  0  0  0  0  0  0  0  0  0
  123.5090  112.6670   66.9430 O   0  0  0  0  0  0  0  0  0  0  0  0
  124.6300  113.4050   67.4000 C   0  0  0  0  0  0  0  0  0  0  0  0
  124.4320  113.8020   68.8790 C   0  0  0  0  0  0  0  0  0  0  0  0
  122.4490  116.5430   70.2820 C   0  0  0  0  0  0  0  0  0  0  0  0
  122.2450  117.2650   71.4540 C   0  0  0  0  0  0  0  0  0  0  0  0
  123.1190  118.5840   74.3480 C   0  0  0  0  0  0  0  0  0  0  0  0
  124.2180  119.2850   73.7310 C   0  0  0  0  0  0  0  0  0  0  0  0
  124.7020  118.9530   72.4910 N   0  0  0  0  0  0  0  0  0  0  0  0
  129.0230  121.5270   73.1700 C   0  0  0  0  0  0  0  0  0  0  0  0
  130.2770  122.1340   73.1400 C   0  0  0  0  0  0  0  0  0  0  0  0
  1  2  1  0
  2  3  1  0
  3  4  1  0
  4  5  2  0
  4  6  1  0
  6  7  2  0
  7  8  1  0
  8  9  2  0
  9 10  1  0
 10 11  1  0
 11 12  2  0
 11 13  1  0
 13 14  1  0
 14 15  1  0
 15 16  2  0
 16 17  1  0
 17 18  1  0
 18 19  2  0
 19 20  1  0
 20 21  2  0
 21 22  1  0
 22 23  1  0
 23 24  1  0
 24 25  1  0
 25 26  1  0
 26 27  1  0
 21 28  1  0
 28 29  2  0
 17 30  2  0
 30 31  1  0
 31 32  1  0
 32 33  2  0
 33 34  1  0
 34 35  2  0
 35 36  1  0
 36 37  1  0
 37 38  1  0
 38 39  1  0
 39 40  1  0
 40 41  1  0
 35 42  1  0
 42 43  2  0
 31 44  2  0
 44 45  1  0
 45 46  1  0
  9 47  1  0
 47 48  2  0
 48  6  1  0
 45 13  2  0
 44 15  1  0
 29 18  1  0
 43 32  1  0
 27 22  1  0
 41 36  1  0
M  END
>  <Binding energies>  (39) 
[-6.91]

>  <Ligand effiencies>  (39) 
[-0.13549019607843138]

>  <Interactions>  (39) 
["V-A:VAL:458:CG2:4085, V-A:HIS:456:CD2:4066, V-B:GLY:544:CA:9886, V-A:LYS:547:CE:4948, V-A:LYS:547:CD:4947, V-B:LYS:547:CE:9922, V-B:LYS:547:CD:9921, V-A:ASP:473:CG:4238, V-A:HIS:456:CB:4063, V-A:HIS:456:CG:4064, V-A:LYS:471:CE:4218, V-B:LYS:547:CG:9920, V-B:LYS:547:CB:9919, V-B:PHE:548:CB:9932, V-B:PHE:548:CD2:9935, V-B:PHE:548:CG:9933, V-A:LYS:547:CG:4946, V-A:HIS:456:C:4059, V-A:SER:483:CB:4331, V-B:VAL:542:CG1:9871, V-B:ARG:356:CB:8089, V-B:PHE:548:CE2:9937, V-B:LYS:547:CA:9917, V-B:TYR:442:CZ:8920, V-B:TYR:442:CE2:8919, V-B:ARG:356:CD:8091, V-B:ARG:356:CG:8090, V-B:LEU:461:CD1:9090, V-A:HIS:456:CA:4061, V-A:VAL:481:CG1:4317, V-A:VAL:481:CG2:4318, V-A:VAL:481:CB:4316"]

$$$$
9b_Ghoteimi_2023
     RDKit          3D

 42 48  0  0  0  0  0  0  0  0999 V2000
  135.8540  137.3520   74.1490 N   0  0  0  0  0  0  0  0  0  0  0  0
  135.2460  136.4290   74.9620 C   0  0  0  0  0  0  0  0  0  0  0  0
  135.8030  135.9740   76.1670 C   0  0  0  0  0  0  0  0  0  0  0  0
  137.0610  136.3750   76.8010 C   0  0  0  0  0  0  0  0  0  0  0  0
  137.2980  136.0750   77.9730 O   0  0  0  0  0  0  0  0  0  0  0  0
  137.9100  137.0840   76.0150 N   0  0  0  0  0  0  0  0  0  0  0  0
  139.1540  137.5960   76.3590 C   0  0  0  0  0  0  0  0  0  0  0  0
  139.8900  137.1390   77.4520 C   0  0  0  0  0  0  0  0  0  0  0  0
  141.0440  137.8880   77.4450 C   0  0  0  0  0  0  0  0  0  0  0  0
  141.0050  138.7510   76.4010 O   0  0  0  0  0  0  0  0  0  0  0  0
  139.8020  138.5570   75.7210 N   0  0  0  0  0  0  0  0  0  0  0  0
  134.7680  134.7690   76.9320 S   0  0  0  0  0  0  0  0  0  0  0  0
  133.6100  134.8690   75.6280 C   0  0  0  0  0  0  0  0  0  0  0  0
  132.5140  134.1110   75.6070 N   0  0  0  0  0  0  0  0  0  0  0  0
  131.6870  134.2520   74.5380 C   0  0  0  0  0  0  0  0  0  0  0  0
  130.4760  133.3760   74.5290 C   0  0  0  0  0  0  0  0  0  0  0  0
  130.0200  132.7850   73.3450 C   0  0  0  0  0  0  0  0  0  0  0  0
  128.8830  131.9810   73.3410 C   0  0  0  0  0  0  0  0  0  0  0  0
  128.1540  131.7510   74.5170 C   0  0  0  0  0  0  0  0  0  0  0  0
  127.0110  130.9430   74.5280 N   0  0  0  0  0  0  0  0  0  0  0  0
  125.9920  131.0660   75.5900 C   0  0  0  0  0  0  0  0  0  0  0  0
  124.6610  130.3600   75.2610 C   0  0  0  0  0  0  0  0  0  0  0  0
  124.8990  128.9990   74.9420 O   0  0  0  0  0  0  0  0  0  0  0  0
  125.7450  128.8700   73.8120 C   0  0  0  0  0  0  0  0  0  0  0  0
  127.1110  129.5340   74.0920 C   0  0  0  0  0  0  0  0  0  0  0  0
  128.6270  132.3290   75.7030 C   0  0  0  0  0  0  0  0  0  0  0  0
  129.7660  133.1290   75.7090 C   0  0  0  0  0  0  0  0  0  0  0  0
  131.9420  135.1660   73.5120 C   0  0  0  0  0  0  0  0  0  0  0  0
  133.0810  135.9780   73.5410 C   0  0  0  0  0  0  0  0  0  0  0  0
  133.2910  136.9540   72.4410 C   0  0  0  0  0  0  0  0  0  0  0  0
  132.2960  137.8780   72.1190 C   0  0  0  0  0  0  0  0  0  0  0  0
  132.4970  138.8060   71.1020 C   0  0  0  0  0  0  0  0  0  0  0  0
  133.7000  138.8350   70.3780 C   0  0  0  0  0  0  0  0  0  0  0  0
  133.9290  139.7690   69.3640 N   0  0  0  0  0  0  0  0  0  0  0  0
  133.2030  141.0530   69.3870 C   0  0  0  0  0  0  0  0  0  0  0  0
  133.2410  141.7980   68.0350 C   0  0  0  0  0  0  0  0  0  0  0  0
  134.5860  141.9890   67.6240 O   0  0  0  0  0  0  0  0  0  0  0  0
  135.2680  140.7530   67.4660 C   0  0  0  0  0  0  0  0  0  0  0  0
  135.2770  139.9800   68.8010 C   0  0  0  0  0  0  0  0  0  0  0  0
  134.7000  137.9140   70.7230 C   0  0  0  0  0  0  0  0  0  0  0  0
  134.4980  136.9850   71.7410 C   0  0  0  0  0  0  0  0  0  0  0  0
  133.9800  135.8220   74.6330 C   0  0  0  0  0  0  0  0  0  0  0  0
  1  2  1  0
  2  3  2  0
  3  4  1  0
  4  5  2  0
  4  6  1  0
  6  7  1  0
  7  8  1  0
  8  9  2  0
  9 10  1  0
 10 11  1  0
  3 12  1  0
 12 13  1  0
 13 14  2  0
 14 15  1  0
 15 16  1  0
 16 17  2  0
 17 18  1  0
 18 19  2  0
 19 20  1  0
 20 21  1  0
 21 22  1  0
 22 23  1  0
 23 24  1  0
 24 25  1  0
 19 26  1  0
 26 27  2  0
 15 28  2  0
 28 29  1  0
 29 30  1  0
 30 31  2  0
 31 32  1  0
 32 33  2  0
 33 34  1  0
 34 35  1  0
 35 36  1  0
 36 37  1  0
 37 38  1  0
 38 39  1  0
 33 40  1  0
 40 41  2  0
 29 42  2  0
 42  2  1  0
 11  7  2  0
 42 13  1  0
 27 16  1  0
 41 30  1  0
 25 20  1  0
 39 34  1  0
M  END
>  <Binding energies>  (40) 
[-7.2]

>  <Ligand effiencies>  (40) 
[-0.16]

>  <Interactions>  (40) 
["V-A:LYS:547:CE:4948, V-B:LYS:471:CD:9191, V-B:HIS:456:CD2:9040, V-A:GLY:544:CA:4912, V-B:VAL:458:CG2:9059, V-B:LYS:471:CE:9192, V-B:HIS:456:CG:9038, V-B:HIS:456:CB:9037, V-A:PHE:548:CB:4958, V-B:HIS:456:C:9033, V-B:SER:483:CB:9305, V-A:VAL:542:CG1:4897, H-A:ARG:356:NE:3118, H-A:ARG:356:NH1:3121, H-A:TYR:442:OH:3947, V-A:PHE:548:CG:4959, V-A:PHE:548:CD2:4961, V-A:PHE:548:CE2:4963, V-B:HIS:456:CA:9035, V-B:VAL:481:CG1:9291, V-B:VAL:481:CB:9290"]

$$$$
9c_Ghoteimi_2023
     RDKit          3D

 42 48  0  0  0  0  0  0  0  0999 V2000
  129.7510  120.7810   75.4010 N   0  0  0  0  0  0  0  0  0  0  0  0
  129.0660  120.8650   74.2160 C   0  0  0  0  0  0  0  0  0  0  0  0
  129.2130  121.9270   73.3100 C   0  0  0  0  0  0  0  0  0  0  0  0
  130.0890  123.0980   73.4110 C   0  0  0  0  0  0  0  0  0  0  0  0
  129.7650  124.1740   72.9040 O   0  0  0  0  0  0  0  0  0  0  0  0
  131.2510  122.8990   74.0810 N   0  0  0  0  0  0  0  0  0  0  0  0
  132.2550  123.8310   74.3050 C   0  0  0  0  0  0  0  0  0  0  0  0
  133.4540  123.6220   74.8050 N   0  0  0  0  0  0  0  0  0  0  0  0
  134.1480  124.7420   74.8810 C   0  0  0  0  0  0  0  0  0  0  0  0
  133.5080  125.8950   74.4360 C   0  0  0  0  0  0  0  0  0  0  0  0
  131.9110  125.4790   73.8900 S   0  0  0  0  0  0  0  0  0  0  0  0
  128.1600  121.7230   71.9110 S   0  0  0  0  0  0  0  0  0  0  0  0
  127.5180  120.2310   72.5550 C   0  0  0  0  0  0  0  0  0  0  0  0
  126.5750  119.5420   71.9130 N   0  0  0  0  0  0  0  0  0  0  0  0
  126.1310  118.4040   72.5080 C   0  0  0  0  0  0  0  0  0  0  0  0
  125.0580  117.6630   71.7770 C   0  0  0  0  0  0  0  0  0  0  0  0
  123.7090  118.0020   71.9310 C   0  0  0  0  0  0  0  0  0  0  0  0
  122.7130  117.3040   71.2570 C   0  0  0  0  0  0  0  0  0  0  0  0
  123.0300  116.2280   70.4100 C   0  0  0  0  0  0  0  0  0  0  0  0
  122.0410  115.5190   69.7190 N   0  0  0  0  0  0  0  0  0  0  0  0
  121.7430  114.1070   70.0350 C   0  0  0  0  0  0  0  0  0  0  0  0
  120.4140  113.6010   69.4360 C   0  0  0  0  0  0  0  0  0  0  0  0
  120.4020  113.8200   68.0340 O   0  0  0  0  0  0  0  0  0  0  0  0
  120.5170  115.1980   67.7230 C   0  0  0  0  0  0  0  0  0  0  0  0
  121.8470  115.7580   68.2740 C   0  0  0  0  0  0  0  0  0  0  0  0
  124.3840  115.9050   70.2450 C   0  0  0  0  0  0  0  0  0  0  0  0
  125.3800  116.6080   70.9180 C   0  0  0  0  0  0  0  0  0  0  0  0
  126.6480  117.9450   73.7210 C   0  0  0  0  0  0  0  0  0  0  0  0
  127.6540  118.6530   74.3870 C   0  0  0  0  0  0  0  0  0  0  0  0
  128.1930  118.1080   75.6580 C   0  0  0  0  0  0  0  0  0  0  0  0
  127.4030  118.0880   76.8080 C   0  0  0  0  0  0  0  0  0  0  0  0
  127.8990  117.5620   77.9980 C   0  0  0  0  0  0  0  0  0  0  0  0
  129.2010  117.0420   78.0690 C   0  0  0  0  0  0  0  0  0  0  0  0
  129.7160  116.4980   79.2490 N   0  0  0  0  0  0  0  0  0  0  0  0
  131.1780  116.4680   79.4500 C   0  0  0  0  0  0  0  0  0  0  0  0
  131.6180  115.5100   80.5790 C   0  0  0  0  0  0  0  0  0  0  0  0
  130.9520  115.8460   81.7870 O   0  0  0  0  0  0  0  0  0  0  0  0
  129.5430  115.7490   81.6530 C   0  0  0  0  0  0  0  0  0  0  0  0
  129.0480  116.7090   80.5490 C   0  0  0  0  0  0  0  0  0  0  0  0
  129.9790  117.0480   76.9020 C   0  0  0  0  0  0  0  0  0  0  0  0
  129.4830  117.5750   75.7120 C   0  0  0  0  0  0  0  0  0  0  0  0
  128.1100  119.8690   73.8010 C   0  0  0  0  0  0  0  0  0  0  0  0
  1  2  1  0
  2  3  2  0
  3  4  1  0
  4  5  2  0
  4  6  1  0
  6  7  1  0
  7  8  2  0
  8  9  1  0
  9 10  2  0
 10 11  1  0
  3 12  1  0
 12 13  1  0
 13 14  2  0
 14 15  1  0
 15 16  1  0
 16 17  2  0
 17 18  1  0
 18 19  2  0
 19 20  1  0
 20 21  1  0
 21 22  1  0
 22 23  1  0
 23 24  1  0
 24 25  1  0
 19 26  1  0
 26 27  2  0
 15 28  2  0
 28 29  1  0
 29 30  1  0
 30 31  2  0
 31 32  1  0
 32 33  2  0
 33 34  1  0
 34 35  1  0
 35 36  1  0
 36 37  1  0
 37 38  1  0
 38 39  1  0
 33 40  1  0
 40 41  2  0
 29 42  2  0
 42  2  1  0
 11  7  1  0
 42 13  1  0
 27 16  1  0
 41 30  1  0
 25 20  1  0
 39 34  1  0
M  END
>  <Binding energies>  (41) 
[-7.43]

>  <Ligand effiencies>  (41) 
[-0.1651111111111111]

>  <Interactions>  (41) 
["V-A:VAL:458:CG2:4085, V-A:HIS:456:CD2:4066, V-B:GLY:544:CA:9886, V-B:GLU:543:C:9874, H-B:LYS:547:NZ:9923, V-B:LYS:547:CE:9922, V-A:ASP:473:CG:4238, V-A:HIS:456:CB:4063, V-A:HIS:456:CG:4064, V-A:LYS:471:CE:4218, V-A:VAL:457:C:4071, V-A:HIS:456:C:4059, H-A:ASP:473:OD2:4240, V-A:SER:483:CB:4331, V-B:VAL:542:CG1:9871, V-B:ARG:356:CD:8091, V-B:SER:352:CB:8045, H-B:SER:352:OG:8046, V-A:HIS:456:CA:4061, V-B:VAL:542:CG2:9872, V-A:PRO:486:CD:4364, V-A:PRO:486:CG:4363"]

$$$$
RR11_Rahimova_2017
     RDKit          3D

 33 38  0  0  0  0  0  0  0  0999 V2000
  134.2500  127.0990   74.3070 N   0  0  0  0  0  0  0  0  0  0  0  0
  133.3330  126.0640   74.1300 C   0  0  0  0  0  0  0  0  0  0  0  0
  132.1720  126.2840   73.3910 C   0  0  0  0  0  0  0  0  0  0  0  0
  131.2590  125.2490   73.2130 C   0  0  0  0  0  0  0  0  0  0  0  0
  131.4960  123.9860   73.7720 C   0  0  0  0  0  0  0  0  0  0  0  0
  130.5130  122.8710   73.5740 C   0  0  0  0  0  0  0  0  0  0  0  0
  129.7060  122.7660   72.5420 N   0  0  0  0  0  0  0  0  0  0  0  0
  128.9990  121.6100   72.7510 C   0  0  0  0  0  0  0  0  0  0  0  0
  128.0090  121.0210   71.9530 C   0  0  0  0  0  0  0  0  0  0  0  0
  127.4420  119.8140   72.3790 C   0  0  0  0  0  0  0  0  0  0  0  0
  126.3600  119.1530   71.5350 C   0  0  0  0  0  0  0  0  0  0  0  0
  124.9800  119.2310   72.1720 C   0  0  0  0  0  0  0  0  0  0  0  0
  124.1050  120.2570   71.7970 C   0  0  0  0  0  0  0  0  0  0  0  0
  122.8260  120.3650   72.3460 C   0  0  0  0  0  0  0  0  0  0  0  0
  122.4290  119.4080   73.2900 C   0  0  0  0  0  0  0  0  0  0  0  0
  121.2450  119.3000   73.9710 N   0  0  0  0  0  0  0  0  0  0  0  0
  121.3800  118.2380   74.7360 C   0  0  0  0  0  0  0  0  0  0  0  0
  120.3280  117.7340   75.6830 C   0  0  0  0  0  0  0  0  0  0  0  0
  118.9950  117.6190   75.2680 C   0  0  0  0  0  0  0  0  0  0  0  0
  118.0180  117.1620   76.1490 C   0  0  0  0  0  0  0  0  0  0  0  0
  118.3690  116.8160   77.4520 C   0  0  0  0  0  0  0  0  0  0  0  0
  117.3900  116.3630   78.3360 N   0  0  0  0  0  0  0  0  0  0  0  0
  119.6900  116.9220   77.8770 C   0  0  0  0  0  0  0  0  0  0  0  0
  120.6660  117.3790   76.9950 C   0  0  0  0  0  0  0  0  0  0  0  0
  122.6110  117.6400   74.5750 N   0  0  0  0  0  0  0  0  0  0  0  0
  123.3200  118.3690   73.6500 C   0  0  0  0  0  0  0  0  0  0  0  0
  124.5990  118.2520   73.1000 C   0  0  0  0  0  0  0  0  0  0  0  0
  127.8370  119.2270   73.5860 C   0  0  0  0  0  0  0  0  0  0  0  0
  128.8170  119.7920   74.4060 C   0  0  0  0  0  0  0  0  0  0  0  0
  129.3860  120.9880   73.9610 C   0  0  0  0  0  0  0  0  0  0  0  0
  130.3550  121.8250   74.4610 N   0  0  0  0  0  0  0  0  0  0  0  0
  132.6670  123.7800   74.5140 C   0  0  0  0  0  0  0  0  0  0  0  0
  133.5820  124.8130   74.6930 C   0  0  0  0  0  0  0  0  0  0  0  0
  1  2  1  0
  2  3  2  0
  3  4  1  0
  4  5  2  0
  5  6  1  0
  6  7  2  0
  7  8  1  0
  8  9  2  0
  9 10  1  0
 10 11  1  0
 11 12  1  0
 12 13  2  0
 13 14  1  0
 14 15  2  0
 15 16  1  0
 16 17  2  0
 17 18  1  0
 18 19  2  0
 19 20  1  0
 20 21  2  0
 21 22  1  0
 21 23  1  0
 23 24  2  0
 17 25  1  0
 25 26  1  0
 26 27  2  0
 10 28  2  0
 28 29  1  0
 29 30  2  0
 30 31  1  0
  5 32  1  0
 32 33  2  0
 33  2  1  0
 31  6  1  0
 30  8  1  0
 27 12  1  0
 26 15  1  0
 24 18  1  0
M  END
>  <Binding energies>  (42) 
[-8.61]

>  <Ligand effiencies>  (42) 
[-0.22076923076923075]

>  <Interactions>  (42) 
["V-A:VAL:458:CG2:4085, V-A:HIS:456:CD2:4066, V-B:GLY:544:CA:9886, V-B:GLU:543:C:9874, V-A:LYS:547:CE:4948, V-A:LYS:547:CD:4947, H-A:GLY:544:O:4911, V-B:LYS:547:CE:9922, V-A:GLY:544:C:4910, V-A:ASP:473:CG:4238, V-A:HIS:456:CB:4063, V-A:TYR:484:CB:4339, V-A:HIS:456:CG:4064, V-A:LYS:471:CE:4218, V-B:PHE:548:CD2:9935, V-A:LYS:547:CB:4945, V-A:LYS:547:CG:4946, V-A:VAL:457:C:4071, V-A:HIS:456:C:4059, H-A:ASP:473:OD2:4240, V-B:VAL:542:CG1:9871, H-B:TYR:442:OH:8921, V-B:ARG:356:CB:8089, V-B:PHE:548:CE2:9937, V-B:TYR:442:CZ:8920, V-B:ARG:356:CD:8091, V-B:ARG:356:CG:8090, V-A:HIS:456:CA:4061, H-A:VAL:457:O:4072, V-B:GLU:357:CB:8106, V-B:ARG:356:CA:8087, H-A:ARG:545:O:4916"]

$$$$
RR16_Rahimova_2017
     RDKit          3D

 44 49  0  0  0  0  0  0  0  0999 V2000
  130.3770  121.5770   63.2120 O   0  0  0  0  0  0  0  0  0  0  0  0
  130.8930  122.5820   62.2760 S   0  0  0  0  0  0  0  0  0  0  0  0
  132.2400  122.4570   61.7050 O   0  0  0  0  0  0  0  0  0  0  0  0
  130.7770  124.1550   63.0670 N   0  0  0  0  0  0  0  0  0  0  0  0
  131.5050  125.3310   62.5340 C   0  0  0  0  0  0  0  0  0  0  0  0
  131.8000  125.1070   61.0280 C   0  0  0  0  0  0  0  0  0  0  0  0
  131.4710  126.2640   60.0640 C   0  0  0  0  0  0  0  0  0  0  0  0
  129.9660  126.4570   59.8110 C   0  0  0  0  0  0  0  0  0  0  0  0
  129.0300  125.9950   60.9460 C   0  0  0  0  0  0  0  0  0  0  0  0
  129.2520  126.6170   62.3380 C   0  0  0  0  0  0  0  0  0  0  0  0
  130.6970  126.6040   62.8770 C   0  0  0  0  0  0  0  0  0  0  0  0
  129.7280  122.6760   60.9220 C   0  0  0  0  0  0  0  0  0  0  0  0
  130.1750  122.6020   59.6010 C   0  0  0  0  0  0  0  0  0  0  0  0
  129.2750  122.7990   58.5570 C   0  0  0  0  0  0  0  0  0  0  0  0
  127.9340  123.0690   58.8390 C   0  0  0  0  0  0  0  0  0  0  0  0
  126.8050  123.4620   57.5050 S   0  0  0  0  0  0  0  0  0  0  0  0
  125.4590  123.5630   58.0850 O   0  0  0  0  0  0  0  0  0  0  0  0
  127.0710  122.5200   56.4110 O   0  0  0  0  0  0  0  0  0  0  0  0
  127.3050  125.0800   56.9760 N   0  0  0  0  0  0  0  0  0  0  0  0
  127.6850  125.1680   55.5420 C   0  0  0  0  0  0  0  0  0  0  0  0
  128.3930  126.5070   55.2520 C   0  0  0  0  0  0  0  0  0  0  0  0
  127.5530  127.7170   55.7310 C   0  0  0  0  0  0  0  0  0  0  0  0
  128.2590  129.0540   55.4950 C   0  0  0  0  0  0  0  0  0  0  0  0
  127.7400  129.9600   54.5590 C   0  0  0  0  0  0  0  0  0  0  0  0
  128.3470  131.1930   54.3170 C   0  0  0  0  0  0  0  0  0  0  0  0
  127.8230  132.0680   53.4010 O   0  0  0  0  0  0  0  0  0  0  0  0
  129.5040  131.5150   55.0430 C   0  0  0  0  0  0  0  0  0  0  0  0
  130.2870  132.6330   55.0320 N   0  0  0  0  0  0  0  0  0  0  0  0
  131.2860  132.4490   55.9620 N   0  0  0  0  0  0  0  0  0  0  0  0
  131.1450  131.2220   56.5010 N   0  0  0  0  0  0  0  0  0  0  0  0
  132.0220  130.7910   57.5820 C   0  0  0  0  0  0  0  0  0  0  0  0
  131.4130  131.0170   58.9580 C   0  0  0  0  0  0  0  0  0  0  0  0
  132.1890  130.8350   60.1080 C   0  0  0  0  0  0  0  0  0  0  0  0
  131.6390  131.0630   61.3700 C   0  0  0  0  0  0  0  0  0  0  0  0
  130.3110  131.4760   61.4890 C   0  0  0  0  0  0  0  0  0  0  0  0
  129.5330  131.6620   60.3460 C   0  0  0  0  0  0  0  0  0  0  0  0
  127.8940  132.1820   60.4890 Cl  0  0  0  0  0  0  0  0  0  0  0  0
  130.0820  131.4290   59.0830 C   0  0  0  0  0  0  0  0  0  0  0  0
  130.0260  130.5930   55.9800 C   0  0  0  0  0  0  0  0  0  0  0  0
  129.4210  129.3550   56.2200 C   0  0  0  0  0  0  0  0  0  0  0  0
  127.0580  127.5490   57.1920 C   0  0  0  0  0  0  0  0  0  0  0  0
  126.4020  126.1720   57.4220 C   0  0  0  0  0  0  0  0  0  0  0  0
  127.4810  123.1000   60.1600 C   0  0  0  0  0  0  0  0  0  0  0  0
  128.3810  122.9070   61.2030 C   0  0  0  0  0  0  0  0  0  0  0  0
  1  2  2  0
  2  3  2  0
  2  4  1  0
  4  5  1  0
  5  6  1  0
  6  7  1  0
  7  8  1  0
  8  9  1  0
  9 10  1  0
 10 11  1  0
  2 12  1  0
 12 13  2  0
 13 14  1  0
 14 15  2  0
 15 16  1  0
 16 17  2  0
 16 18  2  0
 16 19  1  0
 19 20  1  0
 20 21  1  0
 21 22  1  0
 22 23  1  0
 23 24  2  0
 24 25  1  0
 25 26  1  0
 25 27  2  0
 27 28  1  0
 28 29  2  0
 29 30  1  0
 30 31  1  0
 31 32  1  0
 32 33  2  0
 33 34  1  0
 34 35  2  0
 35 36  1  0
 36 37  1  0
 36 38  2  0
 30 39  1  0
 39 40  2  0
 22 41  1  0
 41 42  1  0
 15 43  1  0
 43 44  2  0
 11  5  1  0
 44 12  1  0
 42 19  1  0
 40 23  1  0
 39 27  1  0
 38 32  1  0
M  END
>  <Binding energies>  (43) 
[-10.69]

>  <Ligand effiencies>  (43) 
[-0.2227083333333333]

>  <Interactions>  (43) 
["H-A:TYR:539:N:4868, V-A:TYR:539:CE1:4873, V-A:PRO:540:CB:4883, V-A:PRO:540:CA:4881, V-B:TYR:539:C:9839, H-B:TYR:539:N:9842, V-B:PRO:540:CA:9855, V-B:TYR:539:CZ:9849, V-B:PRO:540:N:9856, V-B:TYR:539:CD2:9846, V-B:TYR:539:CE2:9848, V-A:GLU:543:CD:4906, H-B:TYR:531:OH:9767, V-B:GLU:543:CD:9880, V-A:ASP:366:CG:3211, V-B:TYR:539:CG:9844, V-B:PRO:540:C:9853, V-B:ALA:541:CB:9864, V-A:ALA:541:CB:4890, V-A:ARG:545:CZ:4924, H-B:GLU:543:OE2:9882, H-B:GLU:543:OE1:9881, H-A:VAL:537:O:4849, V-B:ALA:541:CA:9862"]

$$$$
RR18_Rahimova_2017
     RDKit          3D

 36 41  0  0  0  0  0  0  0  0999 V2000
  128.0240  126.5250   61.6760 C   0  0  0  0  0  0  0  0  0  0  0  0
  127.4230  127.6230   60.8340 C   0  0  0  0  0  0  0  0  0  0  0  0
  126.4060  127.6720   59.8940 C   0  0  0  0  0  0  0  0  0  0  0  0
  126.3230  128.9950   59.4620 C   0  0  0  0  0  0  0  0  0  0  0  0
  127.2900  129.7060   60.1520 C   0  0  0  0  0  0  0  0  0  0  0  0
  127.7230  131.1700   60.1620 C   0  0  1  0  0  0  0  0  0  0  0  0
  128.3210  131.5800   61.5400 C   0  0  0  0  0  0  0  0  0  0  0  0
  127.4850  131.5860   62.7370 C   0  0  0  0  0  0  0  0  0  0  0  0
  127.1270  132.6360   63.2750 O   0  0  0  0  0  0  0  0  0  0  0  0
  127.1360  130.3550   63.1750 N   0  0  0  0  0  0  0  0  0  0  0  0
  126.3650  129.9680   64.2930 C   0  0  0  0  0  0  0  0  0  0  0  0
  126.8690  129.1880   65.3500 C   0  0  0  0  0  0  0  0  0  0  0  0
  126.0530  128.8340   66.4220 C   0  0  0  0  0  0  0  0  0  0  0  0
  124.7240  129.2470   66.4550 C   0  0  0  0  0  0  0  0  0  0  0  0
  124.2080  130.0110   65.4110 C   0  0  0  0  0  0  0  0  0  0  0  0
  125.0160  130.3740   64.3280 C   0  0  0  0  0  0  0  0  0  0  0  0
  124.4010  131.2070   63.2070 C   0  0  0  0  0  0  0  0  0  0  0  0
  129.6550  131.8300   61.6190 C   0  0  0  0  0  0  0  0  0  0  0  0
  130.5020  131.8650   60.5530 N   0  0  0  0  0  0  0  0  0  0  0  0
  130.0310  131.7360   59.3680 C   0  0  0  0  0  0  0  0  0  0  0  0
  130.9690  131.9090   57.9030 S   0  0  0  0  0  0  0  0  0  0  0  0
  129.5260  131.6130   56.8820 C   0  0  0  0  0  0  0  0  0  0  0  0
  129.4700  131.5930   55.5060 C   0  0  0  0  0  0  0  0  0  0  0  0
  130.6640  131.9140   54.7100 C   0  0  0  0  0  0  0  0  0  0  0  0
  131.8050  132.1980   55.0730 O   0  0  0  0  0  0  0  0  0  0  0  0
  130.3080  131.8700   53.4220 N   0  0  0  0  0  0  0  0  0  0  0  0
  129.0040  131.5190   53.2430 C   0  0  0  0  0  0  0  0  0  0  0  0
  128.3180  131.3670   52.0380 C   0  0  0  0  0  0  0  0  0  0  0  0
  126.9850  130.9690   52.0700 C   0  0  0  0  0  0  0  0  0  0  0  0
  126.3680  130.7220   53.2950 C   0  0  0  0  0  0  0  0  0  0  0  0
  127.0770  130.8820   54.4890 C   0  0  0  0  0  0  0  0  0  0  0  0
  128.4190  131.3080   54.4790 C   0  0  0  0  0  0  0  0  0  0  0  0
  128.3810  131.4040   57.7690 C   0  0  0  0  0  0  0  0  0  0  0  0
  127.2160  131.2250   57.4260 O   0  0  0  0  0  0  0  0  0  0  0  0
  128.7350  131.4500   59.0820 N   0  0  0  0  0  0  0  0  0  0  0  0
  127.9570  128.8630   60.9850 O   0  0  0  0  0  0  0  0  0  0  0  0
  1  2  1  0
  2  3  2  0
  3  4  1  0
  4  5  2  0
  6  5  1  1
  6  7  1  0
  7  8  1  0
  8  9  2  0
  8 10  1  0
 10 11  1  0
 11 12  2  0
 12 13  1  0
 13 14  2  0
 14 15  1  0
 15 16  2  0
 16 17  1  0
  7 18  2  0
 18 19  1  0
 19 20  2  0
 20 21  1  0
 21 22  1  0
 22 23  2  0
 23 24  1  0
 24 25  2  0
 24 26  1  0
 26 27  1  0
 27 28  2  0
 28 29  1  0
 29 30  2  0
 30 31  1  0
 31 32  2  0
 22 33  1  0
 33 34  2  0
 33 35  1  0
  5 36  1  0
 36  2  1  0
 35  6  1  0
 16 11  1  0
 35 20  1  0
 32 23  1  0
 32 27  1  0
M  END
>  <Binding energies>  (44) 
[-8.89]

>  <Ligand effiencies>  (44) 
[-0.23394736842105265]

>  <Interactions>  (44) 
["V-B:ASP:366:CG:8185, V-A:PRO:540:CD:4885, V-A:PRO:540:N:4882, H-A:TYR:539:N:4868, V-A:VAL:537:C:4848, V-A:TYR:539:CE1:4873, V-A:TYR:539:CZ:4875, V-A:PRO:540:CB:4883, V-A:ILE:538:CG2:4861, V-A:ILE:538:CA:4858, V-A:ILE:538:CB:4860, V-B:MET:535:CE:9807, V-A:MET:535:CB:4830, V-A:MET:535:CG:4831, V-A:PRO:540:CA:4881, V-B:HIS:456:CE1:9042, V-A:GLU:543:CD:4906, V-A:TYR:539:C:4865, V-B:GLU:543:CD:9880, V-A:TYR:539:CE2:4874, H-A:GLU:543:OE1:4907, H-A:ALA:541:N:4889, V-B:ARG:545:CZ:9898, V-A:TYR:539:CD1:4871, V-A:TYR:539:CD2:4872, H-A:TYR:539:OH:4876, V-A:ALA:541:CB:4890, V-B:GLY:454:CA:9021, H-A:VAL:537:O:4849, V-B:ARG:545:CD:9895, V-B:GLY:453:C:9014, V-B:GLY:453:CA:9016, V-B:ARG:545:CG:9894, V-A:MET:535:CA:4828, V-A:ALA:541:CA:4888, V-A:MET:535:C:4826, V-B:ARG:545:CB:9893"]

$$$$
RR20_Rahimova_2017
     RDKit          3D

 38 43  0  0  0  0  0  0  0  0999 V2000
  123.4350  124.0010   58.8410 C   0  0  0  0  0  0  0  0  0  0  0  0
  124.5760  123.8870   57.8460 C   0  0  0  0  0  0  0  0  0  0  0  0
  125.8840  123.7300   58.3050 C   0  0  0  0  0  0  0  0  0  0  0  0
  126.9320  123.6150   57.3950 C   0  0  0  0  0  0  0  0  0  0  0  0
  126.6810  123.6710   56.0190 C   0  0  0  0  0  0  0  0  0  0  0  0
  127.8300  123.5240   55.0460 C   0  0  0  0  0  0  0  0  0  0  0  0
  127.8730  122.4980   54.3640 O   0  0  0  0  0  0  0  0  0  0  0  0
  128.7570  124.5220   54.9490 N   0  0  0  0  0  0  0  0  0  0  0  0
  129.8130  124.4980   53.9250 C   0  0  0  0  0  0  0  0  0  0  0  0
  130.5420  125.8270   54.0290 C   0  0  0  0  0  0  0  0  0  0  0  0
  129.6040  126.6580   54.8510 C   0  0  0  0  0  0  0  0  0  0  0  0
  129.7010  128.0050   55.2020 C   0  0  0  0  0  0  0  0  0  0  0  0
  128.8050  128.5690   56.1190 C   0  0  0  0  0  0  0  0  0  0  0  0
  128.9040  130.0220   56.4920 C   0  0  0  0  0  0  0  0  0  0  0  0
  128.4730  130.3950   57.6870 N   0  0  0  0  0  0  0  0  0  0  0  0
  128.6250  131.6760   57.9110 C   0  0  0  0  0  0  0  0  0  0  0  0
  128.2880  132.3890   59.0510 N   0  0  0  0  0  0  0  0  0  0  0  0
  127.1670  132.2470   59.8000 C   0  0  0  0  0  0  0  0  0  0  0  0
  126.2820  131.4220   59.5650 O   0  0  0  0  0  0  0  0  0  0  0  0
  127.0000  133.1590   61.0380 C   0  0  0  0  0  0  0  0  0  0  0  0
  126.2850  132.4990   62.1470 N   0  0  0  0  0  0  0  0  0  0  0  0
  124.9700  131.9830   61.7390 C   0  0  0  0  0  0  0  0  0  0  0  0
  124.1600  131.5470   62.9810 C   0  0  0  0  0  0  0  0  0  0  0  0
  124.9790  130.7120   63.9650 C   0  0  0  0  0  0  0  0  0  0  0  0
  124.3590  130.0070   65.0030 C   0  0  0  0  0  0  0  0  0  0  0  0
  125.1080  129.2780   65.9230 C   0  0  0  0  0  0  0  0  0  0  0  0
  126.4950  129.2430   65.8120 C   0  0  0  0  0  0  0  0  0  0  0  0
  127.1240  129.9320   64.7780 C   0  0  0  0  0  0  0  0  0  0  0  0
  126.3830  130.6700   63.8490 C   0  0  0  0  0  0  0  0  0  0  0  0
  127.0700  131.3790   62.6810 C   0  0  0  0  0  0  0  0  0  0  0  0
  129.3280  132.5480   56.6060 S   0  0  0  0  0  0  0  0  0  0  0  0
  129.4130  131.0640   55.6870 C   0  0  0  0  0  0  0  0  0  0  0  0
  129.9420  131.0680   54.2700 C   0  0  0  0  0  0  0  0  0  0  0  0
  127.8460  127.7360   56.7170 C   0  0  0  0  0  0  0  0  0  0  0  0
  127.7590  126.3850   56.3810 C   0  0  0  0  0  0  0  0  0  0  0  0
  128.6060  125.8540   55.4000 C   0  0  0  0  0  0  0  0  0  0  0  0
  125.3620  123.7990   55.5650 C   0  0  0  0  0  0  0  0  0  0  0  0
  124.3140  123.9130   56.4750 C   0  0  0  0  0  0  0  0  0  0  0  0
  1  2  1  0
  2  3  2  0
  3  4  1  0
  4  5  2  0
  5  6  1  0
  6  7  2  0
  6  8  1  0
  8  9  1  0
  9 10  1  0
 10 11  1  0
 11 12  2  0
 12 13  1  0
 13 14  1  0
 14 15  1  0
 15 16  2  0
 16 17  1  0
 17 18  1  0
 18 19  2  0
 18 20  1  0
 20 21  1  0
 21 22  1  0
 22 23  1  0
 23 24  1  0
 24 25  2  0
 25 26  1  0
 26 27  2  0
 27 28  1  0
 28 29  2  0
 29 30  1  0
 16 31  1  0
 31 32  1  0
 32 33  1  0
 13 34  2  0
 34 35  1  0
 35 36  2  0
  5 37  1  0
 37 38  2  0
 38  2  1  0
 36  8  1  0
 36 11  1  0
 32 14  2  0
 30 21  1  0
 29 24  1  0
M  END
>  <Binding energies>  (45) 
[-11.23]

>  <Ligand effiencies>  (45) 
[-0.28794871794871796]

>  <Interactions>  (45) 
["V-B:ASP:366:CG:8185, V-A:PRO:540:N:4882, V-A:TYR:539:CE1:4873, V-A:MET:535:CB:4830, V-A:MET:535:CG:4831, V-B:TYR:531:CZ:9766, V-B:TYR:539:C:9839, H-B:TYR:539:N:9842, V-B:PRO:540:CB:9857, V-B:PRO:540:CA:9855, V-B:ASN:362:C:8144, V-B:TYR:539:CZ:9849, V-B:PRO:540:N:9856, V-B:ILE:538:CG2:9835, V-B:ILE:538:CB:9834, V-B:TYR:539:CE1:9847, V-B:ILE:538:CA:9832, V-A:MET:535:CE:4833, V-A:TYR:531:CE1:4790, V-B:TYR:539:CD1:9845, V-B:LEU:363:CD1:8161, V-B:TYR:531:CE2:9765, V-B:HIS:456:CE1:9042, V-A:GLU:543:CD:4906, V-A:TYR:539:C:4865, V-A:TYR:539:CA:4867, V-A:TYR:539:CE2:4874, V-B:ARG:545:CZ:9898, V-A:TYR:539:CD1:4871, V-A:TYR:539:CD2:4872, V-A:TYR:539:CG:4870, V-A:ALA:541:CB:4890, V-B:GLY:454:CA:9021, V-B:LEU:363:CA:8157, V-A:GLU:543:CB:4904, V-B:ARG:545:CD:9895, V-B:LEU:363:CB:8159, H-A:TYR:539:O:4866, V-B:GLY:453:C:9014, V-B:GLY:453:CA:9016, V-B:ARG:545:CG:9894"]

$$$$
RR21_Rahimova_2017
     RDKit          3D

 40 45  0  0  0  0  0  0  0  0999 V2000
  123.0530  123.9410   56.8870 C   0  0  0  0  0  0  0  0  0  0  0  0
  124.3130  123.4050   56.4950 O   0  0  0  0  0  0  0  0  0  0  0  0
  125.3780  123.4700   57.3740 C   0  0  0  0  0  0  0  0  0  0  0  0
  125.2580  123.7790   58.7400 C   0  0  0  0  0  0  0  0  0  0  0  0
  126.3850  123.8220   59.5600 C   0  0  0  0  0  0  0  0  0  0  0  0
  127.6570  123.5540   59.0410 C   0  0  0  0  0  0  0  0  0  0  0  0
  128.8650  123.5960   59.9250 C   0  0  0  0  0  0  0  0  0  0  0  0
  129.8090  122.6850   59.7890 N   0  0  0  0  0  0  0  0  0  0  0  0
  130.7530  122.9690   60.6990 N   0  0  0  0  0  0  0  0  0  0  0  0
  131.9330  122.1890   60.8110 C   0  0  0  0  0  0  0  0  0  0  0  0
  133.0000  122.6140   61.6180 C   0  0  0  0  0  0  0  0  0  0  0  0
  134.1510  121.8370   61.7240 C   0  0  0  0  0  0  0  0  0  0  0  0
  134.2400  120.6360   61.0250 C   0  0  0  0  0  0  0  0  0  0  0  0
  133.1890  120.2040   60.2180 C   0  0  0  0  0  0  0  0  0  0  0  0
  132.0370  120.9790   60.1100 C   0  0  0  0  0  0  0  0  0  0  0  0
  130.4030  124.0900   61.4100 C   0  0  0  0  0  0  0  0  0  0  0  0
  129.1700  124.5230   60.9470 C   0  0  0  0  0  0  0  0  0  0  0  0
  128.4160  125.6960   61.3630 C   0  0  0  0  0  0  0  0  0  0  0  0
  127.7390  126.5740   60.5880 C   0  0  0  0  0  0  0  0  0  0  0  0
  127.5720  126.5660   58.8180 S   0  0  0  0  0  0  0  0  0  0  0  0
  126.5600  128.0000   58.9210 C   0  0  0  0  0  0  0  0  0  0  0  0
  125.9860  128.6400   57.9490 N   0  0  0  0  0  0  0  0  0  0  0  0
  125.1770  129.7880   58.1710 C   0  0  0  0  0  0  0  0  0  0  0  0
  124.5840  130.4360   57.3100 O   0  0  0  0  0  0  0  0  0  0  0  0
  125.0730  130.1880   59.6180 C   0  0  0  0  0  0  0  0  0  0  0  0
  124.2420  131.4260   59.9780 C   0  0  0  0  0  0  0  0  0  0  0  0
  125.0710  132.6520   60.3560 C   0  0  0  0  0  0  0  0  0  0  0  0
  126.4660  132.5770   60.3660 C   0  0  0  0  0  0  0  0  0  0  0  0
  127.2220  133.7000   60.6930 C   0  0  0  0  0  0  0  0  0  0  0  0
  126.5840  134.9010   61.0100 C   0  0  0  0  0  0  0  0  0  0  0  0
  127.4120  136.1260   61.3550 C   0  0  0  0  0  0  0  0  0  0  0  0
  125.1890  134.9810   60.9900 C   0  0  0  0  0  0  0  0  0  0  0  0
  124.4340  133.8590   60.6620 C   0  0  0  0  0  0  0  0  0  0  0  0
  125.6570  129.5430   60.5760 N   0  0  0  0  0  0  0  0  0  0  0  0
  126.4140  128.4210   60.2160 N   0  0  0  0  0  0  0  0  0  0  0  0
  127.0310  127.7000   61.1830 C   0  0  0  0  0  0  0  0  0  0  0  0
  126.9900  127.9600   62.3920 O   0  0  0  0  0  0  0  0  0  0  0  0
  127.7780  123.2530   57.6800 C   0  0  0  0  0  0  0  0  0  0  0  0
  126.6520  123.2100   56.8570 C   0  0  0  0  0  0  0  0  0  0  0  0
  126.8040  122.9150   55.5450 F   0  0  0  0  0  0  0  0  0  0  0  0
  1  2  1  0
  2  3  1  0
  3  4  2  0
  4  5  1  0
  5  6  2  0
  6  7  1  0
  7  8  2  0
  8  9  1  0
  9 10  1  0
 10 11  2  0
 11 12  1  0
 12 13  2  0
 13 14  1  0
 14 15  2  0
  9 16  1  0
 16 17  2  0
 17 18  1  0
 18 19  2  0
 19 20  1  0
 20 21  1  0
 21 22  2  0
 22 23  1  0
 23 24  2  0
 23 25  1  0
 25 26  1  0
 26 27  1  0
 27 28  2  0
 28 29  1  0
 29 30  2  0
 30 31  1  0
 30 32  1  0
 32 33  2  0
 25 34  2  0
 34 35  1  0
 35 36  1  0
 36 37  2  0
  6 38  1  0
 38 39  2  0
 39 40  1  0
 39  3  1  0
 17  7  1  0
 36 19  1  0
 15 10  1  0
 35 21  1  0
 33 27  1  0
M  END
>  <Binding energies>  (46) 
[-9.52]

>  <Ligand effiencies>  (46) 
[-0.238]

>  <Interactions>  (46) 
["V-B:ASP:366:CG:8185, V-B:ASP:366:CB:8184, V-B:TYR:531:CZ:9766, V-B:TYR:539:C:9839, V-B:PRO:540:CD:9859, V-B:TYR:539:CA:9841, V-B:PRO:540:CB:9857, V-B:PRO:540:CA:9855, V-B:PRO:540:N:9856, V-B:ILE:538:CB:9834, V-B:ILE:538:CA:9832, V-B:TYR:539:CD2:9846, V-B:ILE:538:C:9830, V-B:TYR:539:CE2:9848, V-B:LEU:363:CD1:8161, V-B:TYR:531:CE2:9765, H-B:TYR:531:OH:9767, V-B:GLU:543:CD:9880, V-A:TYR:539:CE2:4874, H-B:ARG:545:NH2:9900, V-A:ILE:369:CD1:3237, V-A:TYR:539:CD2:4872, H-A:TYR:539:OH:4876, V-B:ILE:369:CG2:8209, V-B:PRO:482:CB:9298, V-B:TRP:381:CZ2:8342, V-B:TRP:381:CH2:8344, V-B:LEU:475:CD2:9231, V-A:ALA:541:CB:4890, V-B:PRO:482:CG:9299, V-A:TRP:381:CZ2:3368, V-A:TRP:381:CH2:3370, V-A:ILE:369:CG2:3235, V-A:LEU:475:CD2:4257, V-B:LEU:363:CA:8157, V-A:SER:385:C:3403, V-A:SER:385:CA:3405, V-A:GLY:454:CA:4047, V-B:LEU:363:CB:8159, V-B:LEU:363:CG:8160"]

$$$$
RR23_Rahimova_2017
     RDKit          3D

 39 44  0  0  0  0  0  0  0  0999 V2000
  131.6070  131.0970   61.6860 C   0  0  0  0  0  0  0  0  0  0  0  0
  131.3230  131.3620   60.2190 C   0  0  0  0  0  0  0  0  0  0  0  0
  132.3150  131.1350   59.2640 C   0  0  0  0  0  0  0  0  0  0  0  0
  132.0510  131.3690   57.9170 C   0  0  0  0  0  0  0  0  0  0  0  0
  130.7970  131.8430   57.5150 C   0  0  0  0  0  0  0  0  0  0  0  0
  130.5240  132.0710   56.0460 C   0  0  0  0  0  0  0  0  0  0  0  0
  131.2580  132.8570   55.4430 O   0  0  0  0  0  0  0  0  0  0  0  0
  129.4990  131.3980   55.4420 N   0  0  0  0  0  0  0  0  0  0  0  0
  128.9340  131.8460   54.1590 C   0  0  0  0  0  0  0  0  0  0  0  0
  127.9330  130.7830   53.7380 C   0  0  0  0  0  0  0  0  0  0  0  0
  128.2810  129.6270   54.6270 C   0  0  0  0  0  0  0  0  0  0  0  0
  127.7540  128.3350   54.6350 C   0  0  0  0  0  0  0  0  0  0  0  0
  128.0960  127.4360   55.6560 C   0  0  0  0  0  0  0  0  0  0  0  0
  127.5390  126.0050   55.7030 C   0  0  2  0  0  0  0  0  0  0  0  0
  127.5150  125.4720   57.0480 N   0  0  0  0  0  0  0  0  0  0  0  0
  127.7000  124.2140   57.0630 C   0  0  0  0  0  0  0  0  0  0  0  0
  127.7670  123.3880   58.1420 N   0  0  0  0  0  0  0  0  0  0  0  0
  127.7920  123.7200   59.4550 C   0  0  0  0  0  0  0  0  0  0  0  0
  127.7160  124.8640   59.9070 O   0  0  0  0  0  0  0  0  0  0  0  0
  127.9330  122.5410   60.4330 C   0  0  0  0  0  0  0  0  0  0  0  0
  129.3700  122.2430   60.6280 N   0  0  0  0  0  0  0  0  0  0  0  0
  129.7840  120.9920   60.1890 N   0  0  0  0  0  0  0  0  0  0  0  0
  131.0150  120.6080   60.3030 N   0  0  0  0  0  0  0  0  0  0  0  0
  131.9590  121.4640   60.8770 C   0  0  0  0  0  0  0  0  0  0  0  0
  133.2780  121.0190   60.9870 C   0  0  0  0  0  0  0  0  0  0  0  0
  134.2430  121.8510   61.5570 C   0  0  0  0  0  0  0  0  0  0  0  0
  133.8930  123.1230   62.0160 C   0  0  0  0  0  0  0  0  0  0  0  0
  132.5740  123.5690   61.9070 C   0  0  0  0  0  0  0  0  0  0  0  0
  131.6060  122.7350   61.3340 C   0  0  0  0  0  0  0  0  0  0  0  0
  130.1730  123.1980   61.2110 C   0  0  0  0  0  0  0  0  0  0  0  0
  129.7720  124.2980   61.6000 O   0  0  0  0  0  0  0  0  0  0  0  0
  127.9180  123.4080   55.4820 S   0  0  0  0  0  0  0  0  0  0  0  0
  128.2370  125.0180   54.7390 C   0  0  2  0  0  0  0  0  0  0  0  0
  129.7590  125.1930   54.5510 C   0  0  0  0  0  0  0  0  0  0  0  0
  128.9340  127.8740   56.6880 C   0  0  0  0  0  0  0  0  0  0  0  0
  129.4450  129.1730   56.6920 C   0  0  0  0  0  0  0  0  0  0  0  0
  129.1630  130.0380   55.6270 C   0  0  0  0  0  0  0  0  0  0  0  0
  129.7970  132.0420   58.4760 C   0  0  0  0  0  0  0  0  0  0  0  0
  130.0610  131.8070   59.8230 C   0  0  0  0  0  0  0  0  0  0  0  0
  1  2  1  0
  2  3  2  0
  3  4  1  0
  4  5  2  0
  5  6  1  0
  6  7  2  0
  6  8  1  0
  8  9  1  0
  9 10  1  0
 10 11  1  0
 11 12  2  0
 12 13  1  0
 14 13  1  1
 14 15  1  0
 15 16  2  0
 16 17  1  0
 17 18  1  0
 18 19  2  0
 18 20  1  0
 20 21  1  0
 21 22  1  0
 22 23  2  0
 23 24  1  0
 24 25  2  0
 25 26  1  0
 26 27  2  0
 27 28  1  0
 28 29  2  0
 29 30  1  0
 30 31  2  0
 16 32  1  0
 32 33  1  0
 33 34  1  1
 13 35  2  0
 35 36  1  0
 36 37  2  0
  5 38  1  0
 38 39  2  0
 39  2  1  0
 37  8  1  0
 37 11  1  0
 33 14  1  0
 30 21  1  0
 29 24  1  0
M  END
>  <Binding energies>  (47) 
[-11.08]

>  <Ligand effiencies>  (47) 
[-0.277]

>  <Interactions>  (47) 
["V-A:PRO:540:N:4882, H-A:TYR:539:N:4868, V-A:TYR:539:CE1:4873, V-A:PRO:540:CB:4883, V-A:ILE:538:CA:4858, V-A:PRO:540:CA:4881, V-B:TYR:539:C:9839, H-B:TYR:539:N:9842, V-B:PRO:540:CA:9855, V-B:TYR:539:CZ:9849, V-B:PRO:540:N:9856, V-B:TYR:539:CE1:9847, V-A:GLU:543:CD:4906, V-A:TYR:539:C:4865, V-A:ILE:369:CD1:3237, V-A:TYR:539:CD1:4871, V-B:PRO:540:C:9853, V-B:ALA:541:CB:9864, V-A:ILE:369:CG2:3235, V-A:LEU:475:CD2:4257, H-B:TYR:539:O:9840, V-A:GLY:453:C:4040, V-A:PRO:540:C:4879, V-A:GLY:454:CA:4047, V-B:ALA:541:CA:9862"]

$$$$
RR26_Rahimova_2017
     RDKit          3D

 38 44  0  0  0  0  0  0  0  0999 V2000
  132.8940  123.5230   59.6470 C   0  0  0  0  0  0  0  0  0  0  0  0
  131.9300  122.3960   59.9940 C   0  0  0  0  0  0  0  0  0  0  0  0
  132.4580  121.1220   60.2340 C   0  0  0  0  0  0  0  0  0  0  0  0
  131.6280  120.0640   60.5940 C   0  0  0  0  0  0  0  0  0  0  0  0
  130.2580  120.2710   60.7250 C   0  0  0  0  0  0  0  0  0  0  0  0
  129.7200  121.5340   60.4890 C   0  0  0  0  0  0  0  0  0  0  0  0
  130.5400  122.6110   60.1170 C   0  0  0  0  0  0  0  0  0  0  0  0
  129.8770  123.9350   59.8670 C   0  0  0  0  0  0  0  0  0  0  0  0
  129.8730  124.9100   60.7720 N   0  0  0  0  0  0  0  0  0  0  0  0
  129.2190  125.8530   60.1490 C   0  0  0  0  0  0  0  0  0  0  0  0
  128.7170  127.4610   60.5190 S   0  0  0  0  0  0  0  0  0  0  0  0
  127.9730  127.5810   58.8800 C   0  0  0  0  0  0  0  0  0  0  0  0
  127.3080  128.6310   58.3480 C   0  0  0  0  0  0  0  0  0  0  0  0
  127.0360  129.9220   58.9590 C   0  0  0  0  0  0  0  0  0  0  0  0
  125.8620  130.3560   59.5560 C   0  0  0  0  0  0  0  0  0  0  0  0
  126.0750  131.6260   60.0310 N   0  0  0  0  0  0  0  0  0  0  0  0
  125.1660  132.4690   60.7210 C   0  0  0  0  0  0  0  0  0  0  0  0
  124.9870  133.8040   60.3300 C   0  0  0  0  0  0  0  0  0  0  0  0
  124.0940  134.6210   61.0180 C   0  0  0  0  0  0  0  0  0  0  0  0
  123.3750  134.1070   62.0930 C   0  0  0  0  0  0  0  0  0  0  0  0
  123.5400  132.7820   62.4890 C   0  0  0  0  0  0  0  0  0  0  0  0
  124.4340  131.9630   61.8060 C   0  0  0  0  0  0  0  0  0  0  0  0
  127.3380  132.0070   59.7880 N   0  0  0  0  0  0  0  0  0  0  0  0
  127.9170  131.0100   59.1490 C   0  0  0  0  0  0  0  0  0  0  0  0
  129.3470  131.1290   58.7210 C   0  0  0  0  0  0  0  0  0  0  0  0
  130.3780  130.6620   59.5500 C   0  0  0  0  0  0  0  0  0  0  0  0
  131.7140  130.7710   59.1620 C   0  0  0  0  0  0  0  0  0  0  0  0
  132.0310  131.3530   57.9360 C   0  0  0  0  0  0  0  0  0  0  0  0
  131.0090  131.8070   57.0900 C   0  0  0  0  0  0  0  0  0  0  0  0
  129.6760  131.7020   57.4830 C   0  0  0  0  0  0  0  0  0  0  0  0
  131.2770  132.4290   55.8860 O   0  0  0  0  0  0  0  0  0  0  0  0
  132.5930  132.1810   55.3800 C   0  0  0  0  0  0  0  0  0  0  0  0
  133.6440  132.3160   56.5080 C   0  0  0  0  0  0  0  0  0  0  0  0
  133.3610  131.3970   57.5700 O   0  0  0  0  0  0  0  0  0  0  0  0
  128.1390  126.3560   58.1050 C   0  0  0  0  0  0  0  0  0  0  0  0
  127.7520  126.1000   56.9630 O   0  0  0  0  0  0  0  0  0  0  0  0
  128.8530  125.4600   58.9160 N   0  0  0  0  0  0  0  0  0  0  0  0
  129.2810  124.2100   58.7170 N   0  0  0  0  0  0  0  0  0  0  0  0
  1  2  1  0
  2  3  2  0
  3  4  1  0
  4  5  2  0
  5  6  1  0
  6  7  2  0
  7  8  1  0
  8  9  1  0
  9 10  2  0
 10 11  1  0
 11 12  1  0
 12 13  2  0
 13 14  1  0
 14 15  2  0
 15 16  1  0
 16 17  1  0
 17 18  2  0
 18 19  1  0
 19 20  2  0
 20 21  1  0
 21 22  2  0
 16 23  1  0
 23 24  2  0
 24 25  1  0
 25 26  2  0
 26 27  1  0
 27 28  2  0
 28 29  1  0
 29 30  2  0
 29 31  1  0
 31 32  1  0
 32 33  1  0
 33 34  1  0
 12 35  1  0
 35 36  2  0
 35 37  1  0
 37 38  1  0
  7  2  1  0
 38  8  2  0
 37 10  1  0
 24 14  1  0
 30 25  1  0
 22 17  1  0
 34 28  1  0
M  END
>  <Binding energies>  (48) 
[-8.84]

>  <Ligand effiencies>  (48) 
[-0.2326315789473684]

>  <Interactions>  (48) 
["V-A:TYR:531:CE2:4791, V-B:ASP:366:CG:8185, V-A:PRO:540:CD:4885, V-A:PRO:540:N:4882, H-A:TYR:539:N:4868, V-A:PRO:540:CB:4883, V-A:LEU:363:CD1:3187, V-A:ILE:538:CG2:4861, V-A:TYR:531:CZ:4792, V-A:LEU:363:CA:3183, V-A:ILE:538:CA:4858, V-A:ILE:538:CB:4860, V-A:PRO:540:CG:4884, V-A:PRO:540:CA:4881, V-B:TYR:539:CD2:9846, V-B:TYR:539:CE2:9848, V-A:TYR:539:C:4865, V-A:TYR:539:CE2:4874, V-B:ALA:541:CB:9864, V-A:TYR:539:CD2:4872, V-B:ILE:369:CG2:8209, V-B:ILE:369:CD1:8211, V-B:TRP:381:CH2:8344, V-B:LEU:475:CD2:9231, V-A:TRP:381:CZ2:3368, V-A:TRP:381:CH2:3370, V-A:ILE:369:CG2:3235, V-A:LEU:475:CD2:4257, V-B:GLY:454:CA:9021, V-A:LEU:363:CB:3185, V-B:SER:385:C:8377, V-B:GLY:453:C:9014"]

$$$$
RR2_Rahimova_2017
     RDKit          3D

 46 50  0  0  0  0  0  0  0  0999 V2000
  122.7030  124.8120   57.2440 C   0  0  0  0  0  0  0  0  0  0  0  0
  123.2950  124.0250   58.2720 O   0  0  0  0  0  0  0  0  0  0  0  0
  124.6640  123.8320   58.2690 C   0  0  0  0  0  0  0  0  0  0  0  0
  125.4060  123.4450   57.1440 C   0  0  0  0  0  0  0  0  0  0  0  0
  126.7840  123.2710   57.2370 C   0  0  0  0  0  0  0  0  0  0  0  0
  127.4510  123.4760   58.4520 C   0  0  0  0  0  0  0  0  0  0  0  0
  128.9520  123.2730   58.5280 C   0  0  0  0  0  0  0  0  0  0  0  0
  129.6990  123.8340   57.7180 O   0  0  0  0  0  0  0  0  0  0  0  0
  129.3870  122.4470   59.5090 N   0  0  0  0  0  0  0  0  0  0  0  0
  130.7450  122.1540   59.5650 N   0  0  0  0  0  0  0  0  0  0  0  0
  131.1340  121.0630   60.2560 C   0  0  0  0  0  0  0  0  0  0  0  0
  130.4010  120.3980   60.9950 O   0  0  0  0  0  0  0  0  0  0  0  0
  132.5960  120.6420   60.0600 C   0  0  0  0  0  0  0  0  0  0  0  0
  133.8320  121.9400   60.4340 S   0  0  0  0  0  0  0  0  0  0  0  0
  133.0680  123.3440   59.6820 C   0  0  0  0  0  0  0  0  0  0  0  0
  133.1100  123.5750   58.3940 N   0  0  0  0  0  0  0  0  0  0  0  0
  132.4760  124.7890   58.1670 N   0  0  0  0  0  0  0  0  0  0  0  0
  132.0480  125.2320   59.3250 C   0  0  0  0  0  0  0  0  0  0  0  0
  131.2960  126.5140   59.4860 C   0  0  0  0  0  0  0  0  0  0  0  0
  131.0970  127.3470   58.3820 C   0  0  0  0  0  0  0  0  0  0  0  0
  130.4050  128.5450   58.5240 C   0  0  0  0  0  0  0  0  0  0  0  0
  129.8890  128.9150   59.7710 C   0  0  0  0  0  0  0  0  0  0  0  0
  129.1920  130.1160   59.9750 N   0  0  0  0  0  0  0  0  0  0  0  0
  129.8250  131.7310   59.5870 S   0  0  0  0  0  0  0  0  0  0  0  0
  131.2130  131.7470   60.0620 O   0  0  0  0  0  0  0  0  0  0  0  0
  128.8560  132.7260   60.0630 O   0  0  0  0  0  0  0  0  0  0  0  0
  129.8910  131.7910   57.7980 C   0  0  0  0  0  0  0  0  0  0  0  0
  128.7170  131.8080   57.0430 C   0  0  0  0  0  0  0  0  0  0  0  0
  128.7900  131.8390   55.6530 C   0  0  0  0  0  0  0  0  0  0  0  0
  130.0350  131.8590   55.0200 C   0  0  0  0  0  0  0  0  0  0  0  0
  130.1130  131.8770   53.5040 C   0  0  0  0  0  0  0  0  0  0  0  0
  131.2080  131.8380   55.7780 C   0  0  0  0  0  0  0  0  0  0  0  0
  131.1360  131.8060   57.1670 C   0  0  0  0  0  0  0  0  0  0  0  0
  130.0850  128.0810   60.8720 C   0  0  0  0  0  0  0  0  0  0  0  0
  130.7820  126.8850   60.7320 C   0  0  0  0  0  0  0  0  0  0  0  0
  132.3960  124.3580   60.3410 N   0  0  0  0  0  0  0  0  0  0  0  0
  132.1650  124.4860   61.7260 C   0  0  0  0  0  0  0  0  0  0  0  0
  133.0890  125.1580   62.5270 C   0  0  0  0  0  0  0  0  0  0  0  0
  132.8520  125.2850   63.8930 C   0  0  0  0  0  0  0  0  0  0  0  0
  131.7000  124.7460   64.4680 C   0  0  0  0  0  0  0  0  0  0  0  0
  131.5530  124.9220   65.8300 O   0  0  0  0  0  0  0  0  0  0  0  0
  130.5170  125.7700   66.3140 C   0  0  0  0  0  0  0  0  0  0  0  0
  130.7760  124.0720   63.6530 C   0  0  0  0  0  0  0  0  0  0  0  0
  131.0060  123.9440   62.2870 C   0  0  0  0  0  0  0  0  0  0  0  0
  126.7030  123.8700   59.5720 C   0  0  0  0  0  0  0  0  0  0  0  0
  125.3250  124.0440   59.4760 C   0  0  0  0  0  0  0  0  0  0  0  0
  1  2  1  0
  2  3  1  0
  3  4  2  0
  4  5  1  0
  5  6  2  0
  6  7  1  0
  7  8  2  0
  7  9  1  0
  9 10  1  0
 10 11  1  0
 11 12  2  0
 11 13  1  0
 13 14  1  0
 14 15  1  0
 15 16  2  0
 16 17  1  0
 17 18  2  0
 18 19  1  0
 19 20  2  0
 20 21  1  0
 21 22  2  0
 22 23  1  0
 23 24  1  0
 24 25  2  0
 24 26  2  0
 24 27  1  0
 27 28  2  0
 28 29  1  0
 29 30  2  0
 30 31  1  0
 30 32  1  0
 32 33  2  0
 22 34  1  0
 34 35  2  0
 18 36  1  0
 36 37  1  0
 37 38  2  0
 38 39  1  0
 39 40  2  0
 40 41  1  0
 41 42  1  0
 40 43  1  0
 43 44  2  0
  6 45  1  0
 45 46  2  0
 46  3  1  0
 36 15  1  0
 44 37  1  0
 35 19  1  0
 33 27  1  0
M  END
>  <Binding energies>  (49) 
[-10.53]

>  <Ligand effiencies>  (49) 
[-0.21489795918367346]

>  <Interactions>  (49) 
["V-B:ASP:366:CG:8185, V-A:PRO:540:CD:4885, V-A:PRO:540:N:4882, V-A:VAL:537:C:4848, V-A:TYR:539:CE1:4873, V-A:TYR:539:CZ:4875, V-A:PRO:540:CB:4883, V-A:ILE:538:CG2:4861, V-A:ILE:538:CA:4858, V-A:ILE:538:CB:4860, V-B:ASP:366:CB:8184, V-A:MET:535:CB:4830, V-A:MET:535:CG:4831, V-A:PRO:540:CA:4881, V-B:TYR:531:CZ:9766, V-B:TYR:539:C:9839, V-B:PRO:540:CD:9859, V-B:PRO:540:CB:9857, V-B:PRO:540:CA:9855, V-B:PRO:540:N:9856, V-B:TYR:539:CD2:9846, H-B:TYR:539:OH:9850, V-B:TYR:539:CE2:9848, V-B:LEU:363:CD1:8161, V-B:TYR:531:CE2:9765, V-A:HIS:456:CE1:4068, H-B:LEU:363:N:8158, V-A:TYR:539:C:4865, V-B:GLU:543:CD:9880, V-A:TYR:539:CE2:4874, V-A:ASP:366:CG:3211, H-A:ALA:541:N:4889, V-A:TYR:539:CD1:4871, V-A:TYR:539:CD2:4872, V-A:TYR:539:CG:4870, H-A:TYR:484:OH:4346, V-A:ARG:545:CZ:4924, V-A:TRP:381:CH2:3370, V-A:ILE:369:CG2:3235, V-A:ASP:366:CB:3210, V-A:LEU:475:CD2:4257, H-B:TYR:539:O:9840, V-B:LEU:363:CA:8157, V-B:LEU:363:CB:8159, V-B:LEU:363:C:8155, V-B:GLU:543:CG:9879, V-B:GLU:543:CB:9878"]

$$$$
RR33_Rahimova_2017
     RDKit          3D

 18 19  0  0  0  0  0  0  0  0999 V2000
  131.2740  124.2750   63.9330 C   0  0  0  0  0  0  0  0  0  0  0  0
  131.3860  123.2900   62.7650 C   0  0  0  0  0  0  0  0  0  0  0  0
  130.1210  122.6640   62.5720 O   0  0  0  0  0  0  0  0  0  0  0  0
  129.4950  122.7650   61.3440 C   0  0  0  0  0  0  0  0  0  0  0  0
  128.1880  123.2520   61.3510 C   0  0  0  0  0  0  0  0  0  0  0  0
  127.4760  123.3860   60.1620 C   0  0  0  0  0  0  0  0  0  0  0  0
  128.0640  123.0330   58.9440 C   0  0  0  0  0  0  0  0  0  0  0  0
  127.2980  123.1760   57.6680 C   0  0  0  0  0  0  0  0  0  0  0  0
  127.7800  123.3610   56.4590 N   0  0  0  0  0  0  0  0  0  0  0  0
  126.7210  123.4250   55.6660 C   0  0  0  0  0  0  0  0  0  0  0  0
  126.8770  123.6230   54.1740 C   0  0  0  0  0  0  0  0  0  0  0  0
  128.1940  123.1870   53.7330 N   0  0  0  0  0  0  0  0  0  0  0  0
  128.8940  124.2680   53.0600 C   0  0  0  0  0  0  0  0  0  0  0  0
  125.5640  123.2730   56.4200 C   0  0  0  0  0  0  0  0  0  0  0  0
  124.0850  123.2460   56.1230 C   0  0  0  0  0  0  0  0  0  0  0  0
  125.9410  123.1140   57.7100 O   0  0  0  0  0  0  0  0  0  0  0  0
  129.3750  122.5470   58.9320 C   0  0  0  0  0  0  0  0  0  0  0  0
  130.0870  122.4120   60.1220 C   0  0  0  0  0  0  0  0  0  0  0  0
  1  2  1  0
  2  3  1  0
  3  4  1  0
  4  5  2  0
  5  6  1  0
  6  7  2  0
  7  8  1  0
  8  9  2  0
  9 10  1  0
 10 11  1  0
 11 12  1  0
 12 13  1  0
 10 14  2  0
 14 15  1  0
 14 16  1  0
  7 17  1  0
 17 18  2  0
 18  4  1  0
 16  8  1  0
M  END
>  <Binding energies>  (50) 
[-5.48]

>  <Ligand effiencies>  (50) 
[-0.28842105263157897]

>  <Interactions>  (50) 
["V-B:TYR:531:CZ:9766, V-B:TYR:539:C:9839, H-B:TYR:539:N:9842, V-B:PRO:540:CD:9859, V-B:MET:535:CG:9805, V-B:MET:535:CB:9804, V-B:PRO:540:CB:9857, V-B:PRO:540:CA:9855, V-B:PRO:540:N:9856, V-B:ILE:538:CG2:9835, V-B:ILE:538:CB:9834, V-B:TYR:539:CE1:9847, V-B:ILE:538:CA:9832, V-A:MET:535:CE:4833, V-B:TYR:539:CD2:9846, V-B:TYR:539:CE2:9848, V-B:LEU:363:CD1:8161, V-B:TYR:531:CE2:9765, V-B:TYR:539:CG:9844, V-B:PRO:540:C:9853, V-B:ALA:541:CB:9864, H-B:VAL:537:O:9823"]

$$$$
RR3_Rahimova_2017
     RDKit          3D

 38 44  0  0  0  0  0  0  0  0999 V2000
  124.9550  129.6180   66.2490 C   0  0  0  0  0  0  0  0  0  0  0  0
  126.2940  129.2470   66.1760 C   0  0  0  0  0  0  0  0  0  0  0  0
  126.9300  129.2020   64.9380 C   0  0  0  0  0  0  0  0  0  0  0  0
  126.2380  129.5250   63.7610 C   0  0  0  0  0  0  0  0  0  0  0  0
  126.9240  129.4770   62.4310 C   0  0  0  0  0  0  0  0  0  0  0  0
  127.5300  130.6190   61.8910 C   0  0  0  0  0  0  0  0  0  0  0  0
  128.1640  130.5750   60.6530 C   0  0  0  0  0  0  0  0  0  0  0  0
  128.2000  129.3850   59.9210 C   0  0  0  0  0  0  0  0  0  0  0  0
  128.8750  129.3310   58.5860 C   0  0  0  0  0  0  0  0  0  0  0  0
  128.5300  130.1880   57.6320 N   0  0  0  0  0  0  0  0  0  0  0  0
  129.3070  129.9390   56.6050 C   0  0  0  0  0  0  0  0  0  0  0  0
  129.2710  130.6500   55.3300 C   0  0  0  0  0  0  0  0  0  0  0  0
  130.2820  131.4440   54.8170 C   0  0  0  0  0  0  0  0  0  0  0  0
  129.9140  131.9490   53.5970 N   0  0  0  0  0  0  0  0  0  0  0  0
  128.6520  131.5070   53.2680 C   0  0  0  0  0  0  0  0  0  0  0  0
  127.8630  131.7520   52.1390 C   0  0  0  0  0  0  0  0  0  0  0  0
  126.6060  131.1500   52.1020 C   0  0  0  0  0  0  0  0  0  0  0  0
  126.1480  130.3410   53.1370 C   0  0  0  0  0  0  0  0  0  0  0  0
  126.9340  130.0970   54.2620 C   0  0  0  0  0  0  0  0  0  0  0  0
  128.2110  130.6800   54.3500 C   0  0  0  0  0  0  0  0  0  0  0  0
  130.1640  128.9100   56.8800 N   0  0  0  0  0  0  0  0  0  0  0  0
  129.8990  128.4720   58.1520 C   0  0  0  0  0  0  0  0  0  0  0  0
  130.6040  127.3120   58.7740 C   0  0  0  0  0  0  0  0  0  0  0  0
  131.0780  126.2700   57.9750 C   0  0  0  0  0  0  0  0  0  0  0  0
  131.7250  125.1820   58.5520 C   0  0  0  0  0  0  0  0  0  0  0  0
  131.9170  125.1100   59.9390 C   0  0  0  0  0  0  0  0  0  0  0  0
  132.5950  123.9290   60.5580 C   0  0  0  0  0  0  0  0  0  0  0  0
  132.9920  122.8350   59.7740 C   0  0  0  0  0  0  0  0  0  0  0  0
  133.6280  121.7370   60.3510 C   0  0  0  0  0  0  0  0  0  0  0  0
  133.8730  121.7230   61.7200 C   0  0  0  0  0  0  0  0  0  0  0  0
  133.4890  122.7970   62.5150 C   0  0  0  0  0  0  0  0  0  0  0  0
  132.8530  123.8920   61.9370 C   0  0  0  0  0  0  0  0  0  0  0  0
  131.4510  126.1710   60.7290 C   0  0  0  0  0  0  0  0  0  0  0  0
  130.8040  127.2610   60.1550 C   0  0  0  0  0  0  0  0  0  0  0  0
  127.6100  128.2380   60.4560 C   0  0  0  0  0  0  0  0  0  0  0  0
  126.9760  128.2860   61.6950 C   0  0  0  0  0  0  0  0  0  0  0  0
  124.8890  129.8950   63.8600 C   0  0  0  0  0  0  0  0  0  0  0  0
  124.2500  129.9420   65.0960 C   0  0  0  0  0  0  0  0  0  0  0  0
  1  2  2  0
  2  3  1  0
  3  4  2  0
  4  5  1  0
  5  6  2  0
  6  7  1  0
  7  8  2  0
  8  9  1  0
  9 10  1  0
 10 11  2  0
 11 12  1  0
 12 13  2  0
 13 14  1  0
 14 15  1  0
 15 16  2  0
 16 17  1  0
 17 18  2  0
 18 19  1  0
 19 20  2  0
 11 21  1  0
 21 22  1  0
 22 23  1  0
 23 24  2  0
 24 25  1  0
 25 26  2  0
 26 27  1  0
 27 28  2  0
 28 29  1  0
 29 30  2  0
 30 31  1  0
 31 32  2  0
 26 33  1  0
 33 34  2  0
  8 35  1  0
 35 36  2  0
  4 37  1  0
 37 38  2  0
 38  1  1  0
 36  5  1  0
 22  9  2  0
 34 23  1  0
 20 12  1  0
 32 27  1  0
 20 15  1  0
M  END
>  <Binding energies>  (51) 
[-8.67]

>  <Ligand effiencies>  (51) 
[-0.21675]

>  <Interactions>  (51) 
["V-A:VAL:537:C:4848, V-A:TYR:539:CE1:4873, V-A:ILE:538:CG2:4861, V-A:ILE:538:CA:4858, V-A:ILE:538:CB:4860, V-B:MET:535:CE:9807, H-A:TYR:531:OH:4793, V-A:MET:535:CB:4830, V-A:MET:535:CG:4831, V-B:TYR:531:CE1:9764, V-B:TYR:539:CE2:9848, V-B:HIS:456:CE1:9042, V-A:GLU:543:CD:4906, V-A:ASP:366:CG:3211, V-A:ILE:369:CD1:3237, V-B:ARG:545:CZ:9898, V-A:ILE:369:CG2:3235, V-A:LEU:475:CD2:4257, V-B:GLY:454:CA:9021, V-B:TYR:484:CZ:9319, V-A:GLY:454:CA:4047, H-A:VAL:537:O:4849, V-B:ARG:545:CD:9895, V-B:GLY:453:C:9014, V-B:GLY:453:CA:9016, V-B:ARG:545:CG:9894, V-B:ASN:370:CG:8218"]

$$$$
RR4_Rahimova_2017
     RDKit          3D

 40 44  0  0  0  0  0  0  0  0999 V2000
  123.5980  129.7210   66.9830 C   0  0  0  0  0  0  0  0  0  0  0  0
  123.7510  130.5110   65.8090 O   0  0  0  0  0  0  0  0  0  0  0  0
  124.5660  130.0550   64.7910 C   0  0  0  0  0  0  0  0  0  0  0  0
  125.8090  129.5480   65.1650 C   0  0  0  0  0  0  0  0  0  0  0  0
  126.6960  129.0650   64.2080 C   0  0  0  0  0  0  0  0  0  0  0  0
  126.3670  129.0770   62.8440 C   0  0  0  0  0  0  0  0  0  0  0  0
  127.3270  128.5570   61.8130 C   0  0  0  0  0  0  0  0  0  0  0  0
  127.0210  127.4890   60.9630 C   0  0  0  0  0  0  0  0  0  0  0  0
  127.9500  127.0420   60.0150 C   0  0  0  0  0  0  0  0  0  0  0  0
  127.5410  125.9150   59.1220 C   0  0  0  0  0  0  0  0  0  0  0  0
  126.9730  126.1800   57.8730 C   0  0  0  0  0  0  0  0  0  0  0  0
  126.6000  125.1360   57.0300 C   0  0  0  0  0  0  0  0  0  0  0  0
  126.7940  123.8100   57.4160 C   0  0  0  0  0  0  0  0  0  0  0  0
  126.3940  122.8420   56.5150 O   0  0  0  0  0  0  0  0  0  0  0  0
  125.1740  123.0170   55.8030 C   0  0  0  0  0  0  0  0  0  0  0  0
  127.3680  123.5400   58.6670 C   0  0  0  0  0  0  0  0  0  0  0  0
  127.7410  124.5860   59.5080 C   0  0  0  0  0  0  0  0  0  0  0  0
  129.2140  127.6770   59.9570 C   0  0  0  0  0  0  0  0  0  0  0  0
  130.2220  127.2500   58.9820 C   0  0  0  0  0  0  0  0  0  0  0  0
  131.0190  126.9130   58.2130 N   0  0  0  0  0  0  0  0  0  0  0  0
  129.4680  128.7300   60.8660 C   0  0  0  0  0  0  0  0  0  0  0  0
  131.0010  129.6310   60.9440 S   0  0  0  0  0  0  0  0  0  0  0  0
  130.6240  131.3960   60.6760 C   0  0  0  0  0  0  0  0  0  0  0  0
  129.6640  131.6730   59.5110 C   0  0  0  0  0  0  0  0  0  0  0  0
  128.8940  132.6350   59.5490 O   0  0  0  0  0  0  0  0  0  0  0  0
  129.7380  130.7840   58.4930 N   0  0  0  0  0  0  0  0  0  0  0  0
  129.0070  130.7630   57.3030 C   0  0  0  0  0  0  0  0  0  0  0  0
  127.4470  129.9970   57.1610 S   0  0  0  0  0  0  0  0  0  0  0  0
  127.3240  130.4300   55.4840 C   0  0  0  0  0  0  0  0  0  0  0  0
  128.4550  131.1390   55.0500 C   0  0  0  0  0  0  0  0  0  0  0  0
  129.3990  131.3400   56.0860 C   0  0  0  0  0  0  0  0  0  0  0  0
  130.6520  132.0660   55.9010 C   0  0  0  0  0  0  0  0  0  0  0  0
  131.6460  132.6410   55.7540 N   0  0  0  0  0  0  0  0  0  0  0  0
  128.5690  131.6670   53.6150 C   0  0  0  0  0  0  0  0  0  0  0  0
  127.1880  131.6660   52.9220 C   0  0  0  0  0  0  0  0  0  0  0  0
  126.4260  130.3490   53.1500 C   0  0  0  0  0  0  0  0  0  0  0  0
  126.0940  130.1220   54.6400 C   0  0  0  0  0  0  0  0  0  0  0  0
  128.5400  129.1630   61.7510 N   0  0  0  0  0  0  0  0  0  0  0  0
  125.1110  129.5870   62.4770 C   0  0  0  0  0  0  0  0  0  0  0  0
  124.2220  130.0710   63.4320 C   0  0  0  0  0  0  0  0  0  0  0  0
  1  2  1  0
  2  3  1  0
  3  4  2  0
  4  5  1  0
  5  6  2  0
  6  7  1  0
  7  8  2  0
  8  9  1  0
  9 10  1  0
 10 11  2  0
 11 12  1  0
 12 13  2  0
 13 14  1  0
 14 15  1  0
 13 16  1  0
 16 17  2  0
  9 18  2  0
 18 19  1  0
 19 20  3  0
 18 21  1  0
 21 22  1  0
 22 23  1  0
 23 24  1  0
 24 25  2  0
 24 26  1  0
 26 27  1  0
 27 28  1  0
 28 29  1  0
 29 30  2  0
 30 31  1  0
 31 32  1  0
 32 33  3  0
 30 34  1  0
 34 35  1  0
 35 36  1  0
 36 37  1  0
 21 38  2  0
  6 39  1  0
 39 40  2  0
 40  3  1  0
 38  7  1  0
 17 10  1  0
 31 27  2  0
 37 29  1  0
M  END
>  <Binding energies>  (52) 
[-9.91]

>  <Ligand effiencies>  (52) 
[-0.24170731707317072]

>  <Interactions>  (52) 
["V-A:PRO:540:N:4882, H-A:TYR:539:N:4868, V-A:TYR:539:CE1:4873, V-A:TYR:539:CZ:4875, V-A:ILE:538:CA:4858, V-A:ILE:538:CB:4860, V-B:MET:535:CE:9807, V-A:PRO:540:CA:4881, V-B:TYR:531:CE1:9764, V-B:TYR:539:C:9839, H-B:TYR:539:N:9842, V-B:PRO:540:CD:9859, V-B:PRO:540:CA:9855, V-B:PRO:540:N:9856, V-B:ILE:538:CG2:9835, V-B:ILE:538:CB:9834, V-B:ILE:538:CA:9832, V-B:HIS:456:CE1:9042, V-A:GLU:543:CD:4906, H-A:ARG:545:NH2:4926, V-B:ARG:545:CZ:9898, V-A:TYR:539:CD1:4871, H-B:GLY:454:N:9022, H-B:TYR:484:OH:9320, V-B:ARG:545:CD:9895, V-B:GLY:453:CA:9016, V-B:ARG:545:CG:9894, V-B:ILE:455:C:9024, V-B:ARG:545:CB:9893, H-B:ILE:455:N:9027"]

$$$$
RR6_Rahimova_2017
     RDKit          3D

 38 41  0  0  0  0  0  0  0  0999 V2000
  134.1120  130.4130   57.2350 C   0  0  0  0  0  0  0  0  0  0  0  0
  133.6780  131.7570   57.3940 O   0  0  0  0  0  0  0  0  0  0  0  0
  133.1640  132.4540   56.3490 C   0  0  0  0  0  0  0  0  0  0  0  0
  133.7950  133.3190   55.7320 O   0  0  0  0  0  0  0  0  0  0  0  0
  131.7510  132.0690   56.0160 C   0  0  0  0  0  0  0  0  0  0  0  0
  130.7010  132.2320   56.9320 C   0  0  0  0  0  0  0  0  0  0  0  0
  129.4020  131.8580   56.5950 C   0  0  0  0  0  0  0  0  0  0  0  0
  129.1320  131.3090   55.3320 C   0  0  0  0  0  0  0  0  0  0  0  0
  127.8660  130.8730   54.9010 N   0  0  0  0  0  0  0  0  0  0  0  0
  127.5120  129.6970   54.3380 C   0  0  0  0  0  0  0  0  0  0  0  0
  128.2740  128.7580   54.1060 O   0  0  0  0  0  0  0  0  0  0  0  0
  126.0440  129.5830   53.9110 C   0  0  0  0  0  0  0  0  0  0  0  0
  124.8610  129.9970   55.2360 S   0  0  0  0  0  0  0  0  0  0  0  0
  125.6480  129.5750   56.7770 C   0  0  0  0  0  0  0  0  0  0  0  0
  126.7710  128.8300   56.6440 N   0  0  0  0  0  0  0  0  0  0  0  0
  127.4750  128.4710   57.7470 C   0  0  0  0  0  0  0  0  0  0  0  0
  128.7400  127.7000   57.5090 C   0  0  0  0  0  0  0  0  0  0  0  0
  128.7090  126.4210   56.9320 C   0  0  0  0  0  0  0  0  0  0  0  0
  129.8820  125.7000   56.7240 C   0  0  0  0  0  0  0  0  0  0  0  0
  131.1120  126.2480   57.0850 C   0  0  0  0  0  0  0  0  0  0  0  0
  132.3860  125.4550   56.8640 C   0  0  0  0  0  0  0  0  0  0  0  0
  131.1640  127.5170   57.6570 C   0  0  0  0  0  0  0  0  0  0  0  0
  129.9900  128.2330   57.8630 C   0  0  0  0  0  0  0  0  0  0  0  0
  127.0470  128.8500   59.0240 C   0  0  0  0  0  0  0  0  0  0  0  0
  125.8850  129.6170   59.1880 C   0  0  0  0  0  0  0  0  0  0  0  0
  125.4950  130.0020   60.5770 C   0  0  0  0  0  0  0  0  0  0  0  0
  125.9030  129.2210   61.6630 C   0  0  0  0  0  0  0  0  0  0  0  0
  125.5570  129.5810   62.9630 C   0  0  0  0  0  0  0  0  0  0  0  0
  124.8050  130.7300   63.2030 C   0  0  0  0  0  0  0  0  0  0  0  0
  124.5120  131.0100   64.5240 O   0  0  0  0  0  0  0  0  0  0  0  0
  124.4050  129.9370   65.4530 C   0  0  0  0  0  0  0  0  0  0  0  0
  124.3980  131.5200   62.1170 C   0  0  0  0  0  0  0  0  0  0  0  0
  124.7460  131.1570   60.8190 C   0  0  0  0  0  0  0  0  0  0  0  0
  125.1550  129.9890   58.0320 C   0  0  0  0  0  0  0  0  0  0  0  0
  123.9160  130.7650   58.1340 C   0  0  0  0  0  0  0  0  0  0  0  0
  122.9380  131.3800   58.2140 N   0  0  0  0  0  0  0  0  0  0  0  0
  130.1710  131.1620   54.4130 C   0  0  0  0  0  0  0  0  0  0  0  0
  131.4700  131.5340   54.7520 C   0  0  0  0  0  0  0  0  0  0  0  0
  1  2  1  0
  2  3  1  0
  3  4  2  0
  3  5  1  0
  5  6  2  0
  6  7  1  0
  7  8  2  0
  8  9  1  0
  9 10  1  0
 10 11  2  0
 10 12  1  0
 12 13  1  0
 13 14  1  0
 14 15  2  0
 15 16  1  0
 16 17  1  0
 17 18  2  0
 18 19  1  0
 19 20  2  0
 20 21  1  0
 20 22  1  0
 22 23  2  0
 16 24  2  0
 24 25  1  0
 25 26  1  0
 26 27  2  0
 27 28  1  0
 28 29  2  0
 29 30  1  0
 30 31  1  0
 29 32  1  0
 32 33  2  0
 25 34  2  0
 34 35  1  0
 35 36  3  0
  8 37  1  0
 37 38  2  0
 38  5  1  0
 34 14  1  0
 23 17  1  0
 33 26  1  0
M  END
>  <Binding energies>  (53) 
[-9.07]

>  <Ligand effiencies>  (53) 
[-0.23256410256410256]

>  <Interactions>  (53) 
["V-A:TYR:531:CE2:4791, V-B:ASP:366:CG:8185, V-A:PRO:540:CD:4885, V-A:PRO:540:N:4882, V-A:TYR:539:CE1:4873, V-A:TYR:539:CZ:4875, V-A:PRO:540:CB:4883, V-A:LEU:363:CD1:3187, V-A:ILE:538:CG2:4861, V-A:TYR:531:CZ:4792, V-A:LEU:363:CA:3183, V-A:ILE:538:CA:4858, V-A:ILE:538:CB:4860, V-B:MET:535:CE:9807, V-A:PRO:540:CG:4884, V-B:ASP:366:CB:8184, V-A:MET:535:CG:4831, V-A:PRO:540:CA:4881, V-B:TYR:531:CZ:9766, V-B:TYR:531:CE1:9764, V-B:TYR:539:CZ:9849, V-B:HIS:456:CE1:9042, H-B:TYR:531:OH:9767, V-A:TYR:539:C:4865, V-A:TYR:539:CE2:4874, V-A:ASP:366:CG:3211, V-B:ARG:545:CZ:9898, H-A:TYR:539:OH:4876, H-B:GLY:454:N:9022, H-B:TYR:484:OH:9320, V-A:ASP:366:CB:3210, V-B:ASP:366:CA:8182, V-B:ARG:545:CD:9895, V-B:ARG:545:CG:9894, H-B:ASN:370:ND2:8220, V-B:ASP:366:C:8180"]

$$$$
RR7_Rahimova_2017
     RDKit          3D

 47 53  0  0  0  0  0  0  0  0999 V2000
  133.1370  131.4790   61.7950 C   0  0  0  0  0  0  0  0  0  0  0  0
  131.7350  131.7160   61.7100 O   0  0  0  0  0  0  0  0  0  0  0  0
  131.0150  131.1360   60.6840 C   0  0  0  0  0  0  0  0  0  0  0  0
  129.6440  130.9940   60.8880 C   0  0  0  0  0  0  0  0  0  0  0  0
  128.8360  130.4250   59.9080 C   0  0  0  0  0  0  0  0  0  0  0  0
  129.3860  129.9730   58.6990 C   0  0  0  0  0  0  0  0  0  0  0  0
  128.4990  129.3610   57.5700 C   0  0  0  0  0  0  0  0  0  0  0  0
  127.1380  129.4000   58.0550 O   0  0  0  0  0  0  0  0  0  0  0  0
  126.4680  130.6550   58.2120 C   0  0  0  0  0  0  0  0  0  0  0  0
  125.0690  130.4050   58.7990 C   0  0  1  0  0  0  0  0  0  0  0  0
  125.2500  129.6250   59.9780 O   0  0  0  0  0  0  0  0  0  0  0  0
  124.7400  130.2640   61.1120 C   0  0  1  0  0  0  0  0  0  0  0  0
  125.5400  129.9310   62.2760 N   0  0  0  0  0  0  0  0  0  0  0  0
  126.8710  129.5550   62.3160 C   0  0  0  0  0  0  0  0  0  0  0  0
  127.3360  129.2630   63.5050 N   0  0  0  0  0  0  0  0  0  0  0  0
  126.2490  129.4030   64.3240 C   0  0  0  0  0  0  0  0  0  0  0  0
  126.0830  129.2200   65.7110 C   0  0  0  0  0  0  0  0  0  0  0  0
  127.1980  128.8330   66.4790 N   0  0  0  0  0  0  0  0  0  0  0  0
  127.3140  127.8070   67.3540 C   0  0  0  0  0  0  0  0  0  0  0  0
  126.4010  127.0270   67.6360 O   0  0  0  0  0  0  0  0  0  0  0  0
  128.6630  127.6690   68.0270 C   0  0  0  0  0  0  0  0  0  0  0  0
  129.8340  127.7400   67.2560 C   0  0  0  0  0  0  0  0  0  0  0  0
  131.0840  127.6210   67.8550 C   0  0  0  0  0  0  0  0  0  0  0  0
  131.1770  127.4370   69.2300 C   0  0  0  0  0  0  0  0  0  0  0  0
  130.0280  127.3690   70.0140 C   0  0  0  0  0  0  0  0  0  0  0  0
  128.7750  127.4860   69.4160 C   0  0  0  0  0  0  0  0  0  0  0  0
  124.8510  129.4200   66.2690 N   0  0  0  0  0  0  0  0  0  0  0  0
  123.8350  129.7880   65.4450 C   0  0  0  0  0  0  0  0  0  0  0  0
  123.8840  129.9950   64.1020 N   0  0  0  0  0  0  0  0  0  0  0  0
  125.1040  129.7990   63.5850 C   0  0  0  0  0  0  0  0  0  0  0  0
  124.7080  131.7460   60.7570 C   0  0  0  0  0  0  0  0  0  0  0  0
  124.3360  131.6640   59.2860 C   0  0  2  0  0  0  0  0  0  0  0  0
  122.9340  131.5800   59.0960 O   0  0  0  0  0  0  0  0  0  0  0  0
  128.5390  130.2040   56.2670 C   0  0  0  0  0  0  0  0  0  0  0  0
  129.2010  131.4420   56.2440 C   0  0  0  0  0  0  0  0  0  0  0  0
  129.2320  132.2110   55.0860 C   0  0  0  0  0  0  0  0  0  0  0  0
  128.5980  131.7510   53.9360 C   0  0  0  0  0  0  0  0  0  0  0  0
  127.9350  130.5270   53.9360 C   0  0  0  0  0  0  0  0  0  0  0  0
  127.9040  129.7580   55.0950 C   0  0  0  0  0  0  0  0  0  0  0  0
  128.8560  127.9100   57.1400 C   0  0  0  0  0  0  0  0  0  0  0  0
  130.0950  127.6310   56.5420 C   0  0  0  0  0  0  0  0  0  0  0  0
  130.4200  126.3370   56.1460 C   0  0  0  0  0  0  0  0  0  0  0  0
  129.5020  125.3080   56.3350 C   0  0  0  0  0  0  0  0  0  0  0  0
  128.2630  125.5640   56.9130 C   0  0  0  0  0  0  0  0  0  0  0  0
  127.9400  126.8580   57.3090 C   0  0  0  0  0  0  0  0  0  0  0  0
  130.7640  130.1320   58.4930 C   0  0  0  0  0  0  0  0  0  0  0  0
  131.5720  130.7010   59.4730 C   0  0  0  0  0  0  0  0  0  0  0  0
  1  2  1  0
  2  3  1  0
  3  4  2  0
  4  5  1  0
  5  6  2  0
  6  7  1  0
  7  8  1  0
  8  9  1  0
 10  9  1  1
 10 11  1  0
 11 12  1  0
 12 13  1  1
 13 14  1  0
 14 15  2  0
 15 16  1  0
 16 17  2  0
 17 18  1  0
 18 19  1  0
 19 20  2  0
 19 21  1  0
 21 22  2  0
 22 23  1  0
 23 24  2  0
 24 25  1  0
 25 26  2  0
 17 27  1  0
 27 28  2  0
 28 29  1  0
 29 30  2  0
 12 31  1  0
 31 32  1  0
 32 33  1  1
  7 34  1  0
 34 35  2  0
 35 36  1  0
 36 37  2  0
 37 38  1  0
 38 39  2  0
  7 40  1  0
 40 41  2  0
 41 42  1  0
 42 43  2  0
 43 44  1  0
 44 45  2  0
  6 46  1  0
 46 47  2  0
 47  3  1  0
 32 10  1  0
 39 34  1  0
 45 40  1  0
 30 13  1  0
 30 16  1  0
 26 21  1  0
M  END
>  <Binding energies>  (54) 
[-10.28]

>  <Ligand effiencies>  (54) 
[-0.20979591836734693]

>  <Interactions>  (54) 
["V-B:ASP:366:CG:8185, V-A:TYR:539:CE1:4873, V-A:TYR:539:CZ:4875, V-A:PRO:540:CB:4883, V-A:ILE:538:CA:4858, V-B:ASP:366:CB:8184, V-A:PRO:540:CA:4881, V-A:HIS:456:CE1:4068, H-B:ARG:545:N:9892, V-B:HIS:456:CE1:9042, V-A:GLY:544:C:4910, V-A:GLY:544:CA:4912, V-A:GLU:543:CD:4906, V-B:GLU:543:CD:9880, V-A:TYR:539:CE2:4874, H-A:GLU:543:OE1:4907, H-A:ALA:541:N:4889, H-B:ARG:545:NH2:9900, V-A:ASN:362:CB:3174, H-B:ASP:366:OD1:8186, V-B:ARG:545:CZ:9898, V-A:TYR:539:CD1:4871, H-B:GLY:454:N:9022, V-B:ILE:369:CG2:8209, H-B:TYR:484:OH:9320, V-A:ARG:545:CZ:4924, V-B:GLY:454:CA:9021, H-B:ARG:545:NE:9896, H-B:ARG:545:NH1:9899, V-A:GLU:543:CB:4904, V-A:ILE:538:C:4856, H-B:GLU:543:OE2:9882, H-A:GLU:543:OE2:4908, V-A:ALA:541:C:4886, V-A:ASN:362:CG:3175, H-B:ASP:366:O:8181, V-B:ARG:545:CD:9895, V-B:GLY:453:C:9014, V-A:GLU:543:C:4900, V-B:GLY:453:CA:9016, H-B:HIS:456:NE2:9043, V-B:GLU:543:CG:9879, V-B:ARG:545:CG:9894, V-A:ARG:545:CG:4920, V-A:GLU:543:CG:4905, V-A:ARG:545:CA:4917"]

$$$$
RR8_A_Rahimova_2017
     RDKit          3D

 42 46  0  0  0  0  0  0  0  0999 V2000
  128.1310  130.1290   61.5730 O   0  0  0  0  0  0  0  0  0  0  0  0
  128.4320  129.6300   60.4830 C   0  0  0  0  0  0  0  0  0  0  0  0
  127.9520  128.4330   60.0210 O   0  0  0  0  0  0  0  0  0  0  0  0
  126.7480  128.4500   59.3070 C   0  0  1  0  0  0  0  0  0  0  0  0
  126.1900  129.7320   59.2650 O   0  0  0  0  0  0  0  0  0  0  0  0
  125.5910  130.0080   58.0020 C   0  0  2  0  0  0  0  0  0  0  0  0
  124.1240  130.4090   58.2320 C   0  0  0  0  0  0  0  0  0  0  0  0
  124.0750  131.7840   58.5890 O   0  0  0  0  0  0  0  0  0  0  0  0
  124.0230  132.0160   59.9910 C   0  0  0  0  0  0  0  0  0  0  0  0
  125.1580  132.9400   60.4040 C   0  0  0  0  0  0  0  0  0  0  0  0
  126.4540  132.4350   60.5410 C   0  0  0  0  0  0  0  0  0  0  0  0
  127.4960  133.2810   60.9130 C   0  0  0  0  0  0  0  0  0  0  0  0
  127.2410  134.6310   61.1430 C   0  0  0  0  0  0  0  0  0  0  0  0
  125.9530  135.1450   61.0020 C   0  0  0  0  0  0  0  0  0  0  0  0
  124.9110  134.2990   60.6290 C   0  0  0  0  0  0  0  0  0  0  0  0
  125.8050  128.7140   57.2050 C   0  0  1  0  0  0  0  0  0  0  0  0
  126.1170  128.9460   55.8330 O   0  0  0  0  0  0  0  0  0  0  0  0
  126.3710  130.3000   55.4780 C   0  0  0  0  0  0  0  0  0  0  0  0
  127.8170  130.4570   55.0290 C   0  0  0  0  0  0  0  0  0  0  0  0
  128.7810  129.5420   55.4630 C   0  0  0  0  0  0  0  0  0  0  0  0
  130.1070  129.6840   55.0630 C   0  0  0  0  0  0  0  0  0  0  0  0
  130.4680  130.7440   54.2330 C   0  0  0  0  0  0  0  0  0  0  0  0
  129.5160  131.6640   53.8020 C   0  0  0  0  0  0  0  0  0  0  0  0
  128.1890  131.5230   54.2030 C   0  0  0  0  0  0  0  0  0  0  0  0
  127.0350  128.1050   57.8520 C   0  0  2  0  0  0  0  0  0  0  0  0
  127.0940  126.7040   57.5970 O   0  0  0  0  0  0  0  0  0  0  0  0
  126.2990  125.8870   58.4490 C   0  0  0  0  0  0  0  0  0  0  0  0
  125.5630  124.8410   57.6260 C   0  0  0  0  0  0  0  0  0  0  0  0
  124.2360  124.5140   57.9270 C   0  0  0  0  0  0  0  0  0  0  0  0
  123.5640  123.5630   57.1640 C   0  0  0  0  0  0  0  0  0  0  0  0
  124.2170  122.9440   56.1000 C   0  0  0  0  0  0  0  0  0  0  0  0
  125.5350  123.2680   55.7900 C   0  0  0  0  0  0  0  0  0  0  0  0
  126.2090  124.2200   56.5530 C   0  0  0  0  0  0  0  0  0  0  0  0
  129.3660  130.2920   59.5120 C   0  0  0  0  0  0  0  0  0  0  0  0
  130.7260  129.9520   59.4410 C   0  0  0  0  0  0  0  0  0  0  0  0
  131.5670  130.5860   58.5300 C   0  0  0  0  0  0  0  0  0  0  0  0
  131.0730  131.5740   57.6690 C   0  0  0  0  0  0  0  0  0  0  0  0
  131.9690  132.2470   56.6980 N   0  0  0  0  0  0  0  0  0  0  0  0
  133.1770  132.0400   56.7710 O   0  0  0  0  0  0  0  0  0  0  0  0
  131.4730  132.9880   55.8540 O   0  0  0  0  0  0  0  0  0  0  0  0
  129.7160  131.9150   57.7430 C   0  0  0  0  0  0  0  0  0  0  0  0
  128.8740  131.2830   58.6520 C   0  0  0  0  0  0  0  0  0  0  0  0
  1  2  2  0
  2  3  1  0
  4  3  1  1
  4  5  1  0
  5  6  1  0
  6  7  1  1
  7  8  1  0
  8  9  1  0
  9 10  1  0
 10 11  2  0
 11 12  1  0
 12 13  2  0
 13 14  1  0
 14 15  2  0
  6 16  1  0
 16 17  1  6
 17 18  1  0
 18 19  1  0
 19 20  2  0
 20 21  1  0
 21 22  2  0
 22 23  1  0
 23 24  2  0
 16 25  1  0
 25 26  1  1
 26 27  1  0
 27 28  1  0
 28 29  2  0
 29 30  1  0
 30 31  2  0
 31 32  1  0
 32 33  2  0
  2 34  1  0
 34 35  2  0
 35 36  1  0
 36 37  2  0
 37 38  1  0
 38 39  2  0
 38 40  1  0
 37 41  1  0
 41 42  2  0
 25  4  1  0
 33 28  1  0
 42 34  1  0
 15 10  1  0
 24 19  1  0
M  CHG  2  38   1  40  -1
M  END
>  <Binding energies>  (55) 
[-10.7]

>  <Ligand effiencies>  (55) 
[-0.25476190476190474]

>  <Interactions>  (55) 
["V-B:ASP:366:CG:8185, V-A:PRO:540:CD:4885, V-A:PRO:540:N:4882, H-A:TYR:539:N:4868, V-A:TYR:539:CE1:4873, V-A:TYR:539:CZ:4875, V-A:PRO:540:CB:4883, V-A:ILE:538:CG2:4861, V-A:TYR:531:CZ:4792, V-A:ILE:538:CA:4858, V-A:PRO:540:CG:4884, V-B:ASP:366:CB:8184, V-A:MET:535:CB:4830, V-A:MET:535:CG:4831, V-A:PRO:540:CA:4881, V-B:PRO:540:CD:9859, V-B:PRO:540:CB:9857, V-B:PRO:540:N:9856, V-B:ILE:538:CG2:9835, V-B:ILE:538:CB:9834, V-B:ILE:538:CA:9832, V-B:LEU:363:CD1:8161, V-B:TYR:531:CE2:9765, H-B:TYR:531:OH:9767, V-A:TYR:539:C:4865, V-A:TYR:539:CE2:4874, V-A:TYR:539:CD1:4871, V-A:TYR:539:CD2:4872, H-A:TYR:539:OH:4876, V-B:ILE:369:CG2:8209, V-B:ILE:369:CD1:8211, V-B:TRP:381:CZ2:8342, V-B:TRP:381:CH2:8344, V-B:LEU:475:CD2:9231, V-A:ALA:541:CB:4890, V-B:PRO:540:CG:9858, V-B:ASP:366:CA:8182, V-B:LEU:363:CA:8157, V-B:LEU:363:CB:8159"]

$$$$
RR8_B_Rahimova_2017
     RDKit          3D

 42 46  0  0  0  0  0  0  0  0999 V2000
  133.6850  123.6630   57.6470 O   0  0  0  0  0  0  0  0  0  0  0  0
  132.7990  124.2500   58.2760 C   0  0  0  0  0  0  0  0  0  0  0  0
  131.7050  124.8370   57.7040 O   0  0  0  0  0  0  0  0  0  0  0  0
  131.9160  125.8060   56.7070 C   0  0  2  0  0  0  0  0  0  0  0  0
  131.8840  127.1050   57.2260 O   0  0  0  0  0  0  0  0  0  0  0  0
  130.5700  127.6590   57.1640 C   0  0  2  0  0  0  0  0  0  0  0  0
  130.1110  128.0520   58.5800 C   0  0  0  0  0  0  0  0  0  0  0  0
  130.7800  129.2430   58.9750 O   0  0  0  0  0  0  0  0  0  0  0  0
  130.2890  130.4320   58.3740 C   0  0  0  0  0  0  0  0  0  0  0  0
  131.3910  131.0620   57.5350 C   0  0  0  0  0  0  0  0  0  0  0  0
  132.7280  130.7480   57.7980 C   0  0  0  0  0  0  0  0  0  0  0  0
  133.7430  131.3390   57.0500 C   0  0  0  0  0  0  0  0  0  0  0  0
  133.4160  132.2420   56.0390 C   0  0  0  0  0  0  0  0  0  0  0  0
  132.0860  132.5530   55.7670 C   0  0  0  0  0  0  0  0  0  0  0  0
  131.0710  131.9650   56.5170 C   0  0  0  0  0  0  0  0  0  0  0  0
  129.7330  126.5740   56.4770 C   0  0  1  0  0  0  0  0  0  0  0  0
  128.7450  127.1810   55.6390 O   0  0  0  0  0  0  0  0  0  0  0  0
  128.1450  128.3900   56.1130 C   0  0  0  0  0  0  0  0  0  0  0  0
  128.0910  129.4690   55.0350 C   0  0  0  0  0  0  0  0  0  0  0  0
  126.8760  129.7880   54.4230 C   0  0  0  0  0  0  0  0  0  0  0  0
  126.8240  130.7950   53.4630 C   0  0  0  0  0  0  0  0  0  0  0  0
  127.9890  131.4770   53.1160 C   0  0  0  0  0  0  0  0  0  0  0  0
  129.2050  131.1610   53.7190 C   0  0  0  0  0  0  0  0  0  0  0  0
  129.2560  130.1560   54.6820 C   0  0  0  0  0  0  0  0  0  0  0  0
  130.7660  125.7630   55.7030 C   0  0  2  0  0  0  0  0  0  0  0  0
  130.2750  124.4490   55.4460 O   0  0  0  0  0  0  0  0  0  0  0  0
  129.2650  124.3540   54.4540 C   0  0  0  0  0  0  0  0  0  0  0  0
  127.9620  123.9780   55.1360 C   0  0  0  0  0  0  0  0  0  0  0  0
  127.9620  123.5340   56.4620 C   0  0  0  0  0  0  0  0  0  0  0  0
  126.7630  123.1720   57.0710 C   0  0  0  0  0  0  0  0  0  0  0  0
  125.5710  123.2560   56.3560 C   0  0  0  0  0  0  0  0  0  0  0  0
  125.5630  123.6990   55.0340 C   0  0  0  0  0  0  0  0  0  0  0  0
  126.7610  124.0610   54.4240 C   0  0  0  0  0  0  0  0  0  0  0  0
  132.8310  124.4270   59.7670 C   0  0  0  0  0  0  0  0  0  0  0  0
  133.7580  123.7490   60.5730 C   0  0  0  0  0  0  0  0  0  0  0  0
  133.7580  123.9260   61.9520 C   0  0  0  0  0  0  0  0  0  0  0  0
  132.8280  124.7750   62.5620 C   0  0  0  0  0  0  0  0  0  0  0  0
  132.8130  124.9420   64.0370 N   0  0  0  0  0  0  0  0  0  0  0  0
  131.7500  125.2140   64.5880 O   0  0  0  0  0  0  0  0  0  0  0  0
  133.8640  124.7980   64.6560 O   0  0  0  0  0  0  0  0  0  0  0  0
  131.9060  125.4570   61.7570 C   0  0  0  0  0  0  0  0  0  0  0  0
  131.9100  125.2870   60.3760 C   0  0  0  0  0  0  0  0  0  0  0  0
  1  2  2  0
  2  3  1  0
  4  3  1  1
  4  5  1  0
  5  6  1  0
  6  7  1  1
  7  8  1  0
  8  9  1  0
  9 10  1  0
 10 11  2  0
 11 12  1  0
 12 13  2  0
 13 14  1  0
 14 15  2  0
  6 16  1  0
 16 17  1  6
 17 18  1  0
 18 19  1  0
 19 20  2  0
 20 21  1  0
 21 22  2  0
 22 23  1  0
 23 24  2  0
 16 25  1  0
 25 26  1  1
 26 27  1  0
 27 28  1  0
 28 29  2  0
 29 30  1  0
 30 31  2  0
 31 32  1  0
 32 33  2  0
  2 34  1  0
 34 35  2  0
 35 36  1  0
 36 37  2  0
 37 38  1  0
 38 39  2  0
 38 40  1  0
 37 41  1  0
 41 42  2  0
 25  4  1  0
 33 28  1  0
 42 34  1  0
 15 10  1  0
 24 19  1  0
M  CHG  2  38   1  40  -1
M  END
>  <Binding energies>  (56) 
[-11.38]

>  <Ligand effiencies>  (56) 
[-0.27095238095238094]

>  <Interactions>  (56) 
["V-A:TYR:531:CE2:4791, V-A:PRO:540:CD:4885, V-A:PRO:540:N:4882, V-A:TYR:539:CE1:4873, V-A:TYR:539:CZ:4875, V-A:PRO:540:CB:4883, V-A:LEU:363:CD1:3187, V-A:ILE:538:CG2:4861, V-A:TYR:531:CZ:4792, V-A:LEU:363:CA:3183, V-A:ILE:538:CA:4858, V-A:ILE:538:CB:4860, V-B:MET:535:CE:9807, V-A:PRO:540:CG:4884, H-A:TYR:531:OH:4793, V-A:MET:535:CB:4830, V-A:MET:535:CG:4831, V-A:PRO:540:CA:4881, V-B:TYR:531:CZ:9766, V-B:TYR:539:C:9839, V-B:PRO:540:CD:9859, V-B:MET:535:CG:9805, V-B:PRO:540:CA:9855, V-B:TYR:539:CZ:9849, V-B:PRO:540:N:9856, V-B:ILE:538:CG2:9835, V-B:ILE:538:CB:9834, V-B:TYR:539:CE1:9847, V-B:ILE:538:CA:9832, H-B:TYR:539:OH:9850, V-B:TYR:539:CE2:9848, V-B:TYR:531:CE2:9765, V-A:TYR:539:C:4865, V-A:ASP:366:CG:3211, V-A:ILE:369:CD1:3237, H-A:TYR:484:OH:4346, V-A:ARG:545:CZ:4924, H-A:GLY:454:N:4048, V-A:ASP:366:CB:3210, H-A:ARG:545:NE:4922, V-A:LEU:363:CB:3185, V-A:ILE:538:C:4856"]

$$$$
RR9_Rahimova_2017
     RDKit          3D

 36 40  0  0  0  0  0  0  0  0999 V2000
  125.6040  134.1840   61.0470 C   0  0  0  0  0  0  0  0  0  0  0  0
  124.0730  134.1600   61.1000 C   0  0  0  0  0  0  0  0  0  0  0  0
  123.6560  132.9530   61.7320 O   0  0  0  0  0  0  0  0  0  0  0  0
  124.4240  131.8140   61.5930 C   0  0  0  0  0  0  0  0  0  0  0  0
  124.9800  131.2910   62.7590 C   0  0  0  0  0  0  0  0  0  0  0  0
  125.7710  130.1470   62.7150 C   0  0  0  0  0  0  0  0  0  0  0  0
  126.0290  129.4920   61.5020 C   0  0  0  0  0  0  0  0  0  0  0  0
  126.8840  128.2610   61.4480 C   0  0  0  0  0  0  0  0  0  0  0  0
  126.3770  127.0320   61.0000 C   0  0  0  0  0  0  0  0  0  0  0  0
  127.1870  125.8830   60.9390 C   0  0  0  0  0  0  0  0  0  0  0  0
  126.6140  124.6210   60.3540 C   0  0  0  0  0  0  0  0  0  0  0  0
  126.9750  123.5210   60.7720 O   0  0  0  0  0  0  0  0  0  0  0  0
  125.7250  124.7900   59.3560 N   0  0  0  0  0  0  0  0  0  0  0  0
  125.1300  123.7220   58.5440 C   0  0  0  0  0  0  0  0  0  0  0  0
  124.8840  124.1430   57.0770 C   0  0  0  0  0  0  0  0  0  0  0  0
  126.0550  123.8840   56.1350 C   0  0  0  0  0  0  0  0  0  0  0  0
  127.3000  123.5070   56.6500 C   0  0  0  0  0  0  0  0  0  0  0  0
  128.3570  123.2380   55.7850 C   0  0  0  0  0  0  0  0  0  0  0  0
  128.1700  123.3520   54.4100 C   0  0  0  0  0  0  0  0  0  0  0  0
  126.9340  123.7320   53.8900 C   0  0  0  0  0  0  0  0  0  0  0  0
  125.8750  124.0000   54.7540 C   0  0  0  0  0  0  0  0  0  0  0  0
  128.5230  126.0340   61.3870 C   0  0  0  0  0  0  0  0  0  0  0  0
  129.7060  125.2250   61.5680 C   0  0  0  0  0  0  0  0  0  0  0  0
  129.8890  123.7560   61.3780 C   0  0  0  0  0  0  0  0  0  0  0  0
  130.3410  122.9610   62.4350 C   0  0  0  0  0  0  0  0  0  0  0  0
  130.5270  121.5930   62.2510 C   0  0  0  0  0  0  0  0  0  0  0  0
  130.2570  121.0150   61.0090 C   0  0  0  0  0  0  0  0  0  0  0  0
  130.4760  119.5270   60.8030 C   0  0  0  0  0  0  0  0  0  0  0  0
  129.8060  121.8050   59.9510 C   0  0  0  0  0  0  0  0  0  0  0  0
  129.6190  123.1720   60.1380 C   0  0  0  0  0  0  0  0  0  0  0  0
  130.7100  125.9650   61.9820 N   0  0  0  0  0  0  0  0  0  0  0  0
  130.2600  127.2190   62.1470 N   0  0  0  0  0  0  0  0  0  0  0  0
  128.9310  127.3210   61.8120 C   0  0  0  0  0  0  0  0  0  0  0  0
  128.1730  128.4160   61.8620 N   0  0  0  0  0  0  0  0  0  0  0  0
  125.4670  130.0260   60.3330 C   0  0  0  0  0  0  0  0  0  0  0  0
  124.6740  131.1700   60.3740 C   0  0  0  0  0  0  0  0  0  0  0  0
  1  2  1  0
  2  3  1  0
  3  4  1  0
  4  5  2  0
  5  6  1  0
  6  7  2  0
  7  8  1  0
  8  9  2  0
  9 10  1  0
 10 11  1  0
 11 12  2  0
 11 13  1  0
 13 14  1  0
 14 15  1  0
 15 16  1  0
 16 17  2  0
 17 18  1  0
 18 19  2  0
 19 20  1  0
 20 21  2  0
 10 22  2  0
 22 23  1  0
 23 24  1  0
 24 25  2  0
 25 26  1  0
 26 27  2  0
 27 28  1  0
 27 29  1  0
 29 30  2  0
 23 31  2  0
 31 32  1  0
 32 33  1  0
 33 34  2  0
  7 35  1  0
 35 36  2  0
 36  4  1  0
 34  8  1  0
 21 16  1  0
 33 22  1  0
 30 24  1  0
M  END
>  <Binding energies>  (57) 
[-9.54]

>  <Ligand effiencies>  (57) 
[-0.25105263157894736]

>  <Interactions>  (57) 
["V-B:ASP:366:CG:8185, V-B:TYR:531:CZ:9766, V-B:TYR:539:C:9839, V-B:MET:535:CG:9805, V-B:MET:535:CB:9804, V-B:PRO:540:CB:9857, V-B:PRO:540:CA:9855, V-B:TYR:539:CZ:9849, H-B:ALA:541:N:9863, V-B:PRO:540:N:9856, V-B:ILE:538:CG2:9835, V-B:ILE:538:CB:9834, V-B:TYR:539:CE1:9847, V-B:ILE:538:CA:9832, V-B:TYR:539:CD2:9846, V-B:TYR:539:CD1:9845, V-B:TYR:539:CE2:9848, V-B:TYR:531:CE2:9765, V-A:GLU:543:CD:4906, H-B:ASP:366:OD2:8187, V-B:GLU:543:CD:9880, V-A:TYR:539:CE2:4874, H-A:GLU:543:OE1:4907, V-B:TYR:539:CG:9844, H-A:ARG:545:NH2:4926, V-B:ALA:541:CB:9864, V-A:TYR:539:CD2:4872, V-B:ILE:369:CG2:8209, V-B:ILE:369:CD1:8211, V-B:TRP:381:CH2:8344, V-B:LEU:475:CD2:9231, V-A:TRP:381:CZ2:3368, V-A:PRO:482:CG:4325, V-A:PRO:482:CB:4324, V-A:TRP:381:CH2:3370, V-A:LEU:475:CD2:4257, H-A:GLU:543:OE2:4908"]

$$$$
