1a_Grossjean_2025
     RDKit          3D

 26 27  0  0  0  0  0  0  0  0999 V2000
  124.2170  123.6260   57.1000 C   0  0  0  0  0  0  0  0  0  0  0  0
  124.8570  123.6110   55.7090 C   0  0  0  0  0  0  0  0  0  0  0  0
  126.0070  122.7750   55.7260 O   0  0  0  0  0  0  0  0  0  0  0  0
  127.1860  123.2150   56.2370 C   0  0  0  0  0  0  0  0  0  0  0  0
  127.9020  122.5340   56.9780 O   0  0  0  0  0  0  0  0  0  0  0  0
  127.5250  124.6190   55.8250 C   0  0  0  0  0  0  0  0  0  0  0  0
  128.2950  124.8260   54.6730 C   0  0  0  0  0  0  0  0  0  0  0  0
  128.6290  126.1140   54.2670 C   0  0  0  0  0  0  0  0  0  0  0  0
  128.2030  127.2210   55.0020 C   0  0  0  0  0  0  0  0  0  0  0  0
  128.6010  128.4760   54.5020 N   0  0  0  0  0  0  0  0  0  0  0  0
  127.8750  129.5930   54.2830 C   0  0  0  0  0  0  0  0  0  0  0  0
  126.6690  129.7160   54.4970 O   0  0  0  0  0  0  0  0  0  0  0  0
  128.6560  130.7830   53.7210 C   0  0  0  0  0  0  0  0  0  0  0  0
  128.6290  132.2130   54.8430 S   0  0  0  0  0  0  0  0  0  0  0  0
  129.8320  131.9130   56.1190 C   0  0  0  0  0  0  0  0  0  0  0  0
  131.1050  132.2040   55.7510 N   0  0  0  0  0  0  0  0  0  0  0  0
  132.1020  132.0080   56.6460 C   0  0  0  0  0  0  0  0  0  0  0  0
  133.5000  132.3420   56.1590 C   0  0  0  0  0  0  0  0  0  0  0  0
  131.8730  131.5290   57.9340 C   0  0  0  0  0  0  0  0  0  0  0  0
  130.5620  131.2460   58.3310 C   0  0  0  0  0  0  0  0  0  0  0  0
  130.3340  130.7370   59.7530 C   0  0  0  0  0  0  0  0  0  0  0  0
  129.5040  131.4470   57.4150 C   0  0  0  0  0  0  0  0  0  0  0  0
  128.1180  131.2030   57.8240 C   0  0  0  0  0  0  0  0  0  0  0  0
  127.0240  131.0110   58.1490 N   0  0  0  0  0  0  0  0  0  0  0  0
  127.4240  127.0240   56.1530 C   0  0  0  0  0  0  0  0  0  0  0  0
  127.0910  125.7340   56.5580 C   0  0  0  0  0  0  0  0  0  0  0  0
  1  2  1  0
  2  3  1  0
  3  4  1  0
  4  5  2  0
  4  6  1  0
  6  7  2  0
  7  8  1  0
  8  9  2  0
  9 10  1  0
 10 11  1  0
 11 12  2  0
 11 13  1  0
 13 14  1  0
 14 15  1  0
 15 16  2  0
 16 17  1  0
 17 18  1  0
 17 19  2  0
 19 20  1  0
 20 21  1  0
 20 22  2  0
 22 23  1  0
 23 24  3  0
  9 25  1  0
 25 26  2  0
 26  6  1  0
 22 15  1  0
M  END
>  <Binding energies>  (1) 
[-8.49]

>  <Ligand effiencies>  (1) 
[-0.31444444444444447]

>  <Interactions>  (1) 
["V-A:TYR:531:CE2:4791, V-A:PRO:540:CD:4885, V-A:PRO:540:N:4882, H-A:TYR:539:N:4868, V-A:TYR:539:CZ:4875, V-A:PRO:540:CB:4883, V-A:LEU:363:CD1:3187, V-A:ILE:538:CG2:4861, V-A:ILE:538:CB:4860, V-B:MET:535:CE:9807, V-A:PRO:540:CG:4884, H-A:TYR:531:OH:4793, V-A:MET:535:CB:4830, V-A:MET:535:CG:4831, V-A:PRO:540:CA:4881, V-B:TYR:531:CZ:9766, V-B:TYR:539:C:9839, H-B:TYR:539:N:9842, V-B:PRO:540:CD:9859, V-B:PRO:540:CB:9857, V-B:PRO:540:CA:9855, V-B:PRO:540:N:9856, V-B:ILE:538:CG2:9835, V-B:ILE:538:CB:9834, V-B:TYR:531:CE2:9765, V-A:TYR:539:CE2:4874, H-A:MET:535:SD:4832"]

$$$$
1aa_Ghoteimi_2023
     RDKit          3D

 40 43  0  0  0  0  0  0  0  0999 V2000
  123.7510  129.9690   66.7670 C   0  0  0  0  0  0  0  0  0  0  0  0
  124.6150  129.7110   65.5290 C   0  0  0  0  0  0  0  0  0  0  0  0
  124.4040  130.7490   64.5790 O   0  0  0  0  0  0  0  0  0  0  0  0
  124.1970  130.4670   63.2680 C   0  0  0  0  0  0  0  0  0  0  0  0
  123.0750  130.3650   62.7620 O   0  0  0  0  0  0  0  0  0  0  0  0
  125.4700  130.2920   62.4900 C   0  0  0  0  0  0  0  0  0  0  0  0
  126.2750  129.1510   62.6310 C   0  0  0  0  0  0  0  0  0  0  0  0
  127.4500  129.0160   61.8960 C   0  0  0  0  0  0  0  0  0  0  0  0
  127.8400  130.0220   61.0000 C   0  0  0  0  0  0  0  0  0  0  0  0
  129.0030  129.9950   60.2070 N   0  0  0  0  0  0  0  0  0  0  0  0
  130.2150  130.5610   60.4100 C   0  0  0  0  0  0  0  0  0  0  0  0
  130.5220  131.2340   61.3940 O   0  0  0  0  0  0  0  0  0  0  0  0
  131.2850  130.3390   59.3290 C   0  0  0  0  0  0  0  0  0  0  0  0
  130.8380  129.3690   58.3730 O   0  0  0  0  0  0  0  0  0  0  0  0
  130.5110  128.0830   58.7790 C   0  0  0  0  0  0  0  0  0  0  0  0
  131.1510  127.5720   59.8670 N   0  0  0  0  0  0  0  0  0  0  0  0
  130.8690  126.3110   60.2870 C   0  0  0  0  0  0  0  0  0  0  0  0
  131.6160  125.8220   61.4940 C   0  0  0  0  0  0  0  0  0  0  0  0
  132.7930  125.0710   61.3610 C   0  0  0  0  0  0  0  0  0  0  0  0
  133.4860  124.6160   62.4790 C   0  0  0  0  0  0  0  0  0  0  0  0
  133.0270  124.8980   63.7630 C   0  0  0  0  0  0  0  0  0  0  0  0
  133.7790  124.4040   64.8120 O   0  0  0  0  0  0  0  0  0  0  0  0
  133.8250  125.1310   66.0350 C   0  0  0  0  0  0  0  0  0  0  0  0
  131.8550  125.6520   63.9130 C   0  0  0  0  0  0  0  0  0  0  0  0
  131.1640  126.1060   62.7940 C   0  0  0  0  0  0  0  0  0  0  0  0
  129.9100  125.5360   59.6230 C   0  0  0  0  0  0  0  0  0  0  0  0
  129.2280  126.0420   58.5080 C   0  0  0  0  0  0  0  0  0  0  0  0
  128.2100  125.1700   57.8510 C   0  0  0  0  0  0  0  0  0  0  0  0
  128.6050  124.2080   56.9160 C   0  0  0  0  0  0  0  0  0  0  0  0
  127.6630  123.3850   56.3070 C   0  0  0  0  0  0  0  0  0  0  0  0
  126.3090  123.5010   56.6210 C   0  0  0  0  0  0  0  0  0  0  0  0
  125.4470  122.6430   55.9670 O   0  0  0  0  0  0  0  0  0  0  0  0
  124.0460  122.8890   56.0240 C   0  0  0  0  0  0  0  0  0  0  0  0
  125.9090  124.4590   57.5650 C   0  0  0  0  0  0  0  0  0  0  0  0
  126.8530  125.2820   58.1730 C   0  0  0  0  0  0  0  0  0  0  0  0
  129.5460  127.3490   58.0690 C   0  0  0  0  0  0  0  0  0  0  0  0
  128.9190  127.9450   56.8880 C   0  0  0  0  0  0  0  0  0  0  0  0
  128.4240  128.4170   55.9550 N   0  0  0  0  0  0  0  0  0  0  0  0
  127.0420  131.1590   60.8590 C   0  0  0  0  0  0  0  0  0  0  0  0
  125.8690  131.2930   61.5950 C   0  0  0  0  0  0  0  0  0  0  0  0
  1  2  1  0
  2  3  1  0
  3  4  1  0
  4  5  2  0
  4  6  1  0
  6  7  2  0
  7  8  1  0
  8  9  2  0
  9 10  1  0
 10 11  1  0
 11 12  2  0
 11 13  1  0
 13 14  1  0
 14 15  1  0
 15 16  2  0
 16 17  1  0
 17 18  1  0
 18 19  2  0
 19 20  1  0
 20 21  2  0
 21 22  1  0
 22 23  1  0
 21 24  1  0
 24 25  2  0
 17 26  2  0
 26 27  1  0
 27 28  1  0
 28 29  2  0
 29 30  1  0
 30 31  2  0
 31 32  1  0
 32 33  1  0
 31 34  1  0
 34 35  2  0
 27 36  2  0
 36 37  1  0
 37 38  3  0
  9 39  1  0
 39 40  2  0
 40  6  1  0
 36 15  1  0
 25 18  1  0
 35 28  1  0
M  END
>  <Binding energies>  (2) 
[-7.57]

>  <Ligand effiencies>  (2) 
[-0.1846341463414634]

>  <Interactions>  (2) 
["H-B:TYR:539:N:9842, V-B:PRO:540:CD:9859, V-B:PRO:540:CB:9857, V-B:PRO:540:N:9856, V-B:ILE:538:CG2:9835, V-B:ILE:538:CB:9834, V-B:LEU:363:CD1:8161, V-B:TYR:531:CE2:9765, V-A:HIS:456:CE1:4068, V-B:HIS:456:CE1:9042, V-A:ASP:366:CG:3211, H-A:ALA:541:N:4889, H-A:ARG:545:NH2:4926, V-B:ARG:545:CZ:9898, H-B:GLY:454:N:9022, H-B:TYR:484:OH:9320, H-A:TYR:484:OH:4346, V-A:ARG:545:CZ:4924, H-A:GLY:454:N:4048, V-B:PRO:540:CG:9858, V-B:GLY:454:CA:9021, V-B:TYR:484:CZ:9319, H-B:ARG:545:NH1:9899, V-A:TYR:484:CZ:4345, V-B:ARG:545:CD:9895, V-B:GLY:453:CA:9016, V-B:ARG:545:CG:9894, V-A:ARG:545:CD:4921, V-A:ARG:545:CG:4920, V-B:ILE:455:C:9024, V-B:ARG:545:CB:9893"]

$$$$
1b_Grossjean_2025
     RDKit          3D

 25 26  0  0  0  0  0  0  0  0999 V2000
  132.5110  131.8650   55.7380 C   0  0  0  0  0  0  0  0  0  0  0  0
  131.3670  132.7060   55.8020 O   0  0  0  0  0  0  0  0  0  0  0  0
  130.1960  132.2530   56.3170 C   0  0  0  0  0  0  0  0  0  0  0  0
  129.2100  132.9740   56.5050 O   0  0  0  0  0  0  0  0  0  0  0  0
  130.2130  130.7840   56.6310 C   0  0  0  0  0  0  0  0  0  0  0  0
  129.7330  129.8260   55.7260 C   0  0  0  0  0  0  0  0  0  0  0  0
  129.7630  128.4720   56.0480 C   0  0  0  0  0  0  0  0  0  0  0  0
  130.2710  128.0470   57.2750 C   0  0  0  0  0  0  0  0  0  0  0  0
  130.2500  126.6570   57.4940 N   0  0  0  0  0  0  0  0  0  0  0  0
  130.7110  125.6470   56.7230 C   0  0  0  0  0  0  0  0  0  0  0  0
  131.2690  125.7760   55.6340 O   0  0  0  0  0  0  0  0  0  0  0  0
  130.5140  124.2430   57.2970 C   0  0  0  0  0  0  0  0  0  0  0  0
  129.0040  124.1190   58.3020 S   0  0  0  0  0  0  0  0  0  0  0  0
  127.6350  123.9230   57.1810 C   0  0  0  0  0  0  0  0  0  0  0  0
  128.0010  123.8610   55.8770 N   0  0  0  0  0  0  0  0  0  0  0  0
  127.0380  123.7110   54.9370 C   0  0  0  0  0  0  0  0  0  0  0  0
  127.5230  123.6340   53.5010 C   0  0  0  0  0  0  0  0  0  0  0  0
  125.6840  123.6300   55.2560 C   0  0  0  0  0  0  0  0  0  0  0  0
  125.2950  123.7160   56.5960 C   0  0  0  0  0  0  0  0  0  0  0  0
  123.8040  123.6410   56.9190 C   0  0  0  0  0  0  0  0  0  0  0  0
  126.2830  123.8720   57.5940 C   0  0  0  0  0  0  0  0  0  0  0  0
  125.8960  124.0090   59.0010 C   0  0  0  0  0  0  0  0  0  0  0  0
  125.5870  124.1160   60.1100 N   0  0  0  0  0  0  0  0  0  0  0  0
  130.7530  128.9990   58.1860 C   0  0  0  0  0  0  0  0  0  0  0  0
  130.7240  130.3520   57.8620 C   0  0  0  0  0  0  0  0  0  0  0  0
  1  2  1  0
  2  3  1  0
  3  4  2  0
  3  5  1  0
  5  6  2  0
  6  7  1  0
  7  8  2  0
  8  9  1  0
  9 10  1  0
 10 11  2  0
 10 12  1  0
 12 13  1  0
 13 14  1  0
 14 15  2  0
 15 16  1  0
 16 17  1  0
 16 18  2  0
 18 19  1  0
 19 20  1  0
 19 21  2  0
 21 22  1  0
 22 23  3  0
  8 24  1  0
 24 25  2  0
 25  5  1  0
 21 14  1  0
M  END
>  <Binding energies>  (3) 
[-7.99]

>  <Ligand effiencies>  (3) 
[-0.30730769230769234]

>  <Interactions>  (3) 
["V-A:TYR:531:CE2:4791, V-A:PRO:540:CD:4885, V-A:PRO:540:N:4882, H-A:TYR:539:N:4868, V-A:ILE:538:CG2:4861, V-A:TYR:531:CZ:4792, V-A:ILE:538:CB:4860, H-A:TYR:531:OH:4793, V-B:TYR:531:CZ:9766, V-B:PRO:540:CD:9859, V-B:MET:535:CG:9805, V-B:MET:535:CB:9804, V-B:PRO:540:CB:9857, V-B:PRO:540:CA:9855, V-B:TYR:539:CZ:9849, V-B:PRO:540:N:9856, V-B:ILE:538:CG2:9835, V-B:ILE:538:CB:9834, V-B:ILE:538:CA:9832, V-B:TYR:539:CD2:9846, H-B:TYR:539:OH:9850, V-B:TYR:539:CE2:9848, V-B:LEU:363:CD1:8161, V-B:VAL:537:C:9822, V-B:TYR:531:CE2:9765, V-A:TYR:539:C:4865, V-A:TYR:539:CA:4867, V-B:LEU:363:CA:8157"]

$$$$
1c_Grossjean_2025
     RDKit          3D

 23 24  0  0  0  0  0  0  0  0999 V2000
  124.9060  123.9390   61.6780 C   0  0  0  0  0  0  0  0  0  0  0  0
  126.2590  123.5700   61.4310 O   0  0  0  0  0  0  0  0  0  0  0  0
  126.7450  123.6200   60.1380 C   0  0  0  0  0  0  0  0  0  0  0  0
  128.0400  123.1390   59.9420 C   0  0  0  0  0  0  0  0  0  0  0  0
  128.6170  123.1470   58.6750 C   0  0  0  0  0  0  0  0  0  0  0  0
  127.8930  123.6360   57.5780 C   0  0  0  0  0  0  0  0  0  0  0  0
  128.3830  123.6990   56.2590 N   0  0  0  0  0  0  0  0  0  0  0  0
  127.7870  123.3330   55.1040 C   0  0  0  0  0  0  0  0  0  0  0  0
  126.6490  122.8740   55.0020 O   0  0  0  0  0  0  0  0  0  0  0  0
  128.6280  123.5270   53.8410 C   0  0  0  0  0  0  0  0  0  0  0  0
  128.9670  125.2830   53.5170 S   0  0  0  0  0  0  0  0  0  0  0  0
  129.6640  126.0020   54.9910 C   0  0  0  0  0  0  0  0  0  0  0  0
  130.8100  125.3990   55.3960 N   0  0  0  0  0  0  0  0  0  0  0  0
  131.4310  125.8600   56.5070 C   0  0  0  0  0  0  0  0  0  0  0  0
  132.7120  125.1420   56.8910 C   0  0  0  0  0  0  0  0  0  0  0  0
  130.9360  126.9220   57.2590 C   0  0  0  0  0  0  0  0  0  0  0  0
  129.7430  127.5360   56.8650 C   0  0  0  0  0  0  0  0  0  0  0  0
  129.2110  128.6870   57.7160 C   0  0  0  0  0  0  0  0  0  0  0  0
  129.0750  127.0700   55.7090 C   0  0  0  0  0  0  0  0  0  0  0  0
  127.7950  127.6640   55.3120 C   0  0  0  0  0  0  0  0  0  0  0  0
  126.7860  128.1330   54.9990 N   0  0  0  0  0  0  0  0  0  0  0  0
  126.6020  124.1280   57.7720 C   0  0  0  0  0  0  0  0  0  0  0  0
  126.0280  124.1200   59.0410 C   0  0  0  0  0  0  0  0  0  0  0  0
  1  2  1  0
  2  3  1  0
  3  4  2  0
  4  5  1  0
  5  6  2  0
  6  7  1  0
  7  8  1  0
  8  9  2  0
  8 10  1  0
 10 11  1  0
 11 12  1  0
 12 13  2  0
 13 14  1  0
 14 15  1  0
 14 16  2  0
 16 17  1  0
 17 18  1  0
 17 19  2  0
 19 20  1  0
 20 21  3  0
  6 22  1  0
 22 23  2  0
 23  3  1  0
 19 12  1  0
M  END
>  <Binding energies>  (4) 
[-6.83]

>  <Ligand effiencies>  (4) 
[-0.28458333333333335]

>  <Interactions>  (4) 
["V-B:TYR:539:C:9839, H-B:TYR:539:N:9842, V-B:PRO:540:CB:9857, V-B:PRO:540:CA:9855, V-B:TYR:539:CZ:9849, H-B:ALA:541:N:9863, V-B:TYR:539:CE1:9847, V-B:ILE:538:CA:9832, V-B:ASN:362:CB:8148, V-B:TYR:539:CD2:9846, H-B:TYR:539:OH:9850, V-B:TYR:539:CD1:9845, V-B:TYR:539:CE2:9848, H-B:TYR:531:OH:9767, V-A:ASP:366:CG:3211, V-B:ARG:545:CZ:9898, V-B:PRO:540:C:9853, V-A:ASP:366:CB:3210, V-A:ASP:366:CA:3208"]

$$$$
1d_Grossjean_2025
     RDKit          3D

 21 22  0  0  0  0  0  0  0  0999 V2000
  129.4550  122.1700   73.5420 C   0  0  0  0  0  0  0  0  0  0  0  0
  130.5220  123.2280   73.7420 C   0  0  0  0  0  0  0  0  0  0  0  0
  131.6800  122.9690   74.4730 C   0  0  0  0  0  0  0  0  0  0  0  0
  132.6350  123.9800   74.6160 C   0  0  0  0  0  0  0  0  0  0  0  0
  133.9030  123.6670   75.4080 C   0  0  0  0  0  0  0  0  0  0  0  0
  132.4000  125.2430   74.0230 C   0  0  0  0  0  0  0  0  0  0  0  0
  133.4070  126.3010   74.1190 C   0  0  0  0  0  0  0  0  0  0  0  0
  134.2060  127.1350   74.1970 N   0  0  0  0  0  0  0  0  0  0  0  0
  131.1860  125.4250   73.3200 C   0  0  0  0  0  0  0  0  0  0  0  0
  130.7270  126.9440   72.5160 S   0  0  0  0  0  0  0  0  0  0  0  0
  128.9190  126.9300   72.3220 C   0  0  0  0  0  0  0  0  0  0  0  0
  128.2630  128.1600   72.9510 C   0  0  0  0  0  0  0  0  0  0  0  0
  128.8100  129.2570   72.8370 O   0  0  0  0  0  0  0  0  0  0  0  0
  127.0880  127.9330   73.5780 N   0  0  0  0  0  0  0  0  0  0  0  0
  126.2440  128.8250   74.2650 C   0  0  0  0  0  0  0  0  0  0  0  0
  126.8260  130.0370   74.6450 C   0  0  0  0  0  0  0  0  0  0  0  0
  126.0780  130.9940   75.3260 C   0  0  0  0  0  0  0  0  0  0  0  0
  124.7410  130.7410   75.6220 C   0  0  0  0  0  0  0  0  0  0  0  0
  124.1460  129.5400   75.2420 C   0  0  0  0  0  0  0  0  0  0  0  0
  124.8930  128.5820   74.5620 C   0  0  0  0  0  0  0  0  0  0  0  0
  130.2750  124.4300   73.1690 N   0  0  0  0  0  0  0  0  0  0  0  0
  1  2  1  0
  2  3  2  0
  3  4  1  0
  4  5  1  0
  4  6  2  0
  6  7  1  0
  7  8  3  0
  6  9  1  0
  9 10  1  0
 10 11  1  0
 11 12  1  0
 12 13  2  0
 12 14  1  0
 14 15  1  0
 15 16  2  0
 16 17  1  0
 17 18  2  0
 18 19  1  0
 19 20  2  0
  9 21  2  0
 21  2  1  0
 20 15  1  0
M  END
>  <Binding energies>  (5) 
[-8.48]

>  <Ligand effiencies>  (5) 
[-0.3854545454545455]

>  <Interactions>  (5) 
["V-A:VAL:458:CG2:4085, V-A:HIS:456:CD2:4066, H-B:LYS:547:NZ:9923, V-A:LYS:547:CE:4948, V-B:LYS:547:CE:9922, V-A:LYS:471:CD:4217, H-A:LYS:547:NZ:4949, V-B:GLY:544:C:9884, V-B:LYS:471:CD:9191, V-B:HIS:456:CD2:9040, H-B:GLY:544:O:9885, V-B:VAL:458:CG2:9059, V-A:ASP:473:CG:4238, V-A:HIS:456:CB:4063, V-A:HIS:456:CG:4064, V-B:LYS:471:CE:9192, V-A:LYS:471:CE:4218, V-B:HIS:456:CG:9038, V-B:HIS:456:CB:9037, V-B:VAL:457:C:9045, V-B:HIS:456:C:9033, V-A:HIS:456:C:4059, V-A:LYS:471:CG:4216, V-B:LYS:471:CG:9190, V-B:HIS:456:CA:9035, V-B:VAL:457:CA:9047"]

$$$$
1e_Grossjean_2025
     RDKit          3D

 22 23  0  0  0  0  0  0  0  0999 V2000
  126.2670  129.8400   55.6340 C   0  0  0  0  0  0  0  0  0  0  0  0
  127.3720  130.4560   54.7960 C   0  0  0  0  0  0  0  0  0  0  0  0
  127.1270  130.9470   53.5110 C   0  0  0  0  0  0  0  0  0  0  0  0
  128.1930  131.4980   52.7980 C   0  0  0  0  0  0  0  0  0  0  0  0
  129.4620  131.5430   53.3780 C   0  0  0  0  0  0  0  0  0  0  0  0
  129.6370  131.0380   54.6720 C   0  0  0  0  0  0  0  0  0  0  0  0
  130.9390  131.1010   55.1990 N   0  0  0  0  0  0  0  0  0  0  0  0
  131.4630  132.0180   56.0400 C   0  0  0  0  0  0  0  0  0  0  0  0
  130.8570  132.9930   56.4900 O   0  0  0  0  0  0  0  0  0  0  0  0
  132.9310  131.8140   56.4190 C   0  0  0  0  0  0  0  0  0  0  0  0
  133.1100  130.9720   58.0210 S   0  0  0  0  0  0  0  0  0  0  0  0
  131.6220  130.0490   58.3500 C   0  0  0  0  0  0  0  0  0  0  0  0
  131.2150  129.2900   57.3000 N   0  0  0  0  0  0  0  0  0  0  0  0
  130.0930  128.5450   57.4300 C   0  0  0  0  0  0  0  0  0  0  0  0
  129.7050  127.7180   56.2190 C   0  0  0  0  0  0  0  0  0  0  0  0
  129.3290  128.5340   58.5950 C   0  0  0  0  0  0  0  0  0  0  0  0
  129.7250  129.3310   59.6740 C   0  0  0  0  0  0  0  0  0  0  0  0
  128.8600  129.3150   60.9340 C   0  0  0  0  0  0  0  0  0  0  0  0
  130.8920  130.1200   59.5600 C   0  0  0  0  0  0  0  0  0  0  0  0
  131.2870  131.0040   60.6590 C   0  0  0  0  0  0  0  0  0  0  0  0
  131.5980  131.7020   61.5290 N   0  0  0  0  0  0  0  0  0  0  0  0
  128.5990  130.4940   55.3740 N   0  0  0  0  0  0  0  0  0  0  0  0
  1  2  1  0
  2  3  2  0
  3  4  1  0
  4  5  2  0
  5  6  1  0
  6  7  1  0
  7  8  1  0
  8  9  2  0
  8 10  1  0
 10 11  1  0
 11 12  1  0
 12 13  2  0
 13 14  1  0
 14 15  1  0
 14 16  2  0
 16 17  1  0
 17 18  1  0
 17 19  2  0
 19 20  1  0
 20 21  3  0
  6 22  2  0
 22  2  1  0
 19 12  1  0
M  END
>  <Binding energies>  (6) 
[-7.44]

>  <Ligand effiencies>  (6) 
[-0.3234782608695652]

>  <Interactions>  (6) 
["V-A:TYR:531:CE2:4791, V-A:PRO:540:CD:4885, V-A:PRO:540:N:4882, H-A:TYR:539:N:4868, V-A:TYR:539:CE1:4873, V-A:TYR:539:CZ:4875, V-A:PRO:540:CB:4883, V-A:LEU:363:CD1:3187, V-A:ILE:538:CG2:4861, V-A:TYR:531:CZ:4792, V-A:ILE:538:CA:4858, V-A:ILE:538:CB:4860, V-B:MET:535:CE:9807, H-A:TYR:531:OH:4793, V-A:MET:535:CB:4830, V-A:MET:535:CG:4831, V-A:PRO:540:CA:4881, V-B:TYR:531:CE1:9764, V-A:ASP:366:CG:3211, H-A:ALA:541:N:4889"]

$$$$
1f_Grossjean_2025
     RDKit          3D

 21 22  0  0  0  0  0  0  0  0999 V2000
  130.0200  125.5330   56.9330 C   0  0  0  0  0  0  0  0  0  0  0  0
  130.9070  124.6980   57.8380 C   0  0  0  0  0  0  0  0  0  0  0  0
  132.2950  124.7430   57.7430 C   0  0  0  0  0  0  0  0  0  0  0  0
  133.0610  123.9410   58.5960 C   0  0  0  0  0  0  0  0  0  0  0  0
  134.5810  123.9940   58.4600 C   0  0  0  0  0  0  0  0  0  0  0  0
  132.4080  123.1120   59.5360 C   0  0  0  0  0  0  0  0  0  0  0  0
  133.1910  122.2230   60.3990 C   0  0  0  0  0  0  0  0  0  0  0  0
  133.8100  121.5220   61.0800 N   0  0  0  0  0  0  0  0  0  0  0  0
  130.9950  123.1500   59.5820 C   0  0  0  0  0  0  0  0  0  0  0  0
  130.0020  122.1780   60.6970 S   0  0  0  0  0  0  0  0  0  0  0  0
  128.6790  123.2430   61.3670 C   0  0  0  0  0  0  0  0  0  0  0  0
  127.4180  123.3340   60.4940 C   0  0  0  0  0  0  0  0  0  0  0  0
  126.3030  123.3960   61.0130 O   0  0  0  0  0  0  0  0  0  0  0  0
  127.6530  123.3120   59.1650 N   0  0  0  0  0  0  0  0  0  0  0  0
  126.7460  123.3840   58.0910 C   0  0  0  0  0  0  0  0  0  0  0  0
  125.4500  123.9300   58.1470 C   0  0  0  0  0  0  0  0  0  0  0  0
  124.6540  123.9410   56.9990 C   0  0  0  0  0  0  0  0  0  0  0  0
  125.1740  123.4070   55.8200 C   0  0  0  0  0  0  0  0  0  0  0  0
  126.4210  122.8790   55.7380 N   0  0  0  0  0  0  0  0  0  0  0  0
  127.1830  122.8760   56.8620 C   0  0  0  0  0  0  0  0  0  0  0  0
  130.2610  123.9140   58.7340 N   0  0  0  0  0  0  0  0  0  0  0  0
  1  2  1  0
  2  3  2  0
  3  4  1  0
  4  5  1  0
  4  6  2  0
  6  7  1  0
  7  8  3  0
  6  9  1  0
  9 10  1  0
 10 11  1  0
 11 12  1  0
 12 13  2  0
 12 14  1  0
 14 15  1  0
 15 16  2  0
 16 17  1  0
 17 18  2  0
 18 19  1  0
 19 20  2  0
  9 21  2  0
 21  2  1  0
 20 15  1  0
M  END
>  <Binding energies>  (7) 
[-7.11]

>  <Ligand effiencies>  (7) 
[-0.3231818181818182]

>  <Interactions>  (7) 
["V-B:TYR:531:CZ:9766, V-B:TYR:539:C:9839, H-B:TYR:539:N:9842, V-B:PRO:540:CD:9859, V-B:TYR:539:CA:9841, V-B:PRO:540:CB:9857, V-B:PRO:540:CA:9855, V-B:TYR:539:CZ:9849, H-B:ALA:541:N:9863, V-B:PRO:540:N:9856, V-B:ILE:538:CG2:9835, V-B:ILE:538:CB:9834, V-B:ILE:538:CA:9832, V-B:TYR:539:CD2:9846, V-B:TYR:539:CE2:9848, V-B:TYR:531:CE2:9765, V-A:ASP:366:CG:3211, V-A:ILE:369:CD1:3237, V-B:PRO:540:C:9853, V-B:ALA:541:CB:9864, V-A:ILE:369:CG2:3235, V-A:ASP:366:CB:3210, H-B:TYR:539:O:9840, V-A:ILE:369:CB:3234, V-A:ASP:366:CA:3208, V-A:ASP:366:C:3206, V-A:ILE:369:CG1:3236"]

$$$$
1g_Grossjean_2025
     RDKit          3D

 22 23  0  0  0  0  0  0  0  0999 V2000
  124.7120  123.2180   55.7580 C   0  0  0  0  0  0  0  0  0  0  0  0
  126.0570  123.8810   55.5250 C   0  0  0  0  0  0  0  0  0  0  0  0
  126.8760  123.5150   54.4590 C   0  0  0  0  0  0  0  0  0  0  0  0
  128.1130  124.1500   54.3030 C   0  0  0  0  0  0  0  0  0  0  0  0
  129.0010  123.7210   53.1350 C   0  0  0  0  0  0  0  0  0  0  0  0
  128.4970  125.1510   55.2230 C   0  0  0  0  0  0  0  0  0  0  0  0
  129.8100  125.7930   55.1100 C   0  0  0  0  0  0  0  0  0  0  0  0
  130.8470  126.2970   55.0200 N   0  0  0  0  0  0  0  0  0  0  0  0
  127.5910  125.4770   56.2600 C   0  0  0  0  0  0  0  0  0  0  0  0
  127.9090  126.7160   57.4960 S   0  0  0  0  0  0  0  0  0  0  0  0
  126.4840  127.8450   57.5060 C   0  0  0  0  0  0  0  0  0  0  0  0
  126.6110  128.9370   56.4430 C   0  0  0  0  0  0  0  0  0  0  0  0
  125.6330  129.2540   55.7640 O   0  0  0  0  0  0  0  0  0  0  0  0
  127.8250  129.4980   56.3080 N   0  0  0  0  0  0  0  0  0  0  0  0
  128.1570  130.5950   55.3980 C   0  0  0  0  0  0  0  0  0  0  0  0
  129.5720  131.1400   55.5620 C   0  0  0  0  0  0  0  0  0  0  0  0
  130.4980  131.0030   54.5230 C   0  0  0  0  0  0  0  0  0  0  0  0
  131.7900  131.5010   54.6720 C   0  0  0  0  0  0  0  0  0  0  0  0
  132.1500  132.1390   55.8570 C   0  0  0  0  0  0  0  0  0  0  0  0
  131.2320  132.2830   56.8940 C   0  0  0  0  0  0  0  0  0  0  0  0
  129.9400  131.7840   56.7470 C   0  0  0  0  0  0  0  0  0  0  0  0
  126.4030  124.8390   56.4160 N   0  0  0  0  0  0  0  0  0  0  0  0
  1  2  1  0
  2  3  2  0
  3  4  1  0
  4  5  1  0
  4  6  2  0
  6  7  1  0
  7  8  3  0
  6  9  1  0
  9 10  1  0
 10 11  1  0
 11 12  1  0
 12 13  2  0
 12 14  1  0
 14 15  1  0
 15 16  1  0
 16 17  2  0
 17 18  1  0
 18 19  2  0
 19 20  1  0
 20 21  2  0
  9 22  2  0
 22  2  1  0
 21 16  1  0
M  END
>  <Binding energies>  (8) 
[-7.65]

>  <Ligand effiencies>  (8) 
[-0.33260869565217394]

>  <Interactions>  (8) 
["V-A:TYR:531:CE2:4791, V-A:PRO:540:CD:4885, V-A:PRO:540:N:4882, V-A:TYR:539:CE1:4873, V-A:TYR:539:CZ:4875, V-A:PRO:540:CB:4883, V-A:ILE:538:CG2:4861, V-A:TYR:531:CZ:4792, V-A:ILE:538:CA:4858, V-A:ILE:538:CB:4860, H-A:TYR:531:OH:4793, V-A:MET:535:CG:4831, V-A:PRO:540:CA:4881, V-B:PRO:540:CD:9859, V-B:ILE:538:CG2:9835, V-B:ILE:538:CB:9834, V-B:TYR:539:CE1:9847, V-B:ILE:538:CA:9832, V-B:TYR:539:CD1:9845, V-B:TYR:531:CE2:9765, H-B:TYR:531:OH:9767, V-A:TYR:539:C:4865, H-A:TYR:539:OH:4876"]

$$$$
1h_Grossjean_2025
     RDKit          3D

 28 29  0  0  0  0  0  0  0  0999 V2000
  125.6720  124.3780   59.7540 C   0  0  0  0  0  0  0  0  0  0  0  0
  125.2800  124.2220   58.3950 O   0  0  0  0  0  0  0  0  0  0  0  0
  126.1210  124.6640   57.3910 C   0  0  0  0  0  0  0  0  0  0  0  0
  126.8450  125.8660   57.4470 C   0  0  0  0  0  0  0  0  0  0  0  0
  127.6650  126.2560   56.3880 C   0  0  0  0  0  0  0  0  0  0  0  0
  128.4650  127.5530   56.4720 C   0  0  0  0  0  0  0  0  0  0  0  0
  127.7710  128.6350   57.1700 N   0  0  0  0  0  0  0  0  0  0  0  0
  126.6660  129.2620   56.7280 C   0  0  0  0  0  0  0  0  0  0  0  0
  126.0890  128.9720   55.6800 O   0  0  0  0  0  0  0  0  0  0  0  0
  126.1310  130.3970   57.6020 C   0  0  0  0  0  0  0  0  0  0  0  0
  127.4720  131.3420   58.3860 S   0  0  0  0  0  0  0  0  0  0  0  0
  128.7860  131.5320   57.1920 C   0  0  0  0  0  0  0  0  0  0  0  0
  128.3970  131.5970   55.8920 N   0  0  0  0  0  0  0  0  0  0  0  0
  129.3430  131.7450   54.9350 C   0  0  0  0  0  0  0  0  0  0  0  0
  128.8310  131.8140   53.5080 C   0  0  0  0  0  0  0  0  0  0  0  0
  130.7020  131.8310   55.2280 C   0  0  0  0  0  0  0  0  0  0  0  0
  131.1160  131.7630   56.5620 C   0  0  0  0  0  0  0  0  0  0  0  0
  132.6100  131.8630   56.8620 C   0  0  0  0  0  0  0  0  0  0  0  0
  130.1440  131.6100   57.5780 C   0  0  0  0  0  0  0  0  0  0  0  0
  130.5480  131.5330   58.9840 C   0  0  0  0  0  0  0  0  0  0  0  0
  130.8680  131.4720   60.0960 N   0  0  0  0  0  0  0  0  0  0  0  0
  127.7960  125.4240   55.2750 C   0  0  0  0  0  0  0  0  0  0  0  0
  127.0880  124.2150   55.1940 C   0  0  0  0  0  0  0  0  0  0  0  0
  127.1670  123.3440   54.1220 O   0  0  0  0  0  0  0  0  0  0  0  0
  128.0650  123.6280   53.0550 C   0  0  0  0  0  0  0  0  0  0  0  0
  126.2450  123.8510   56.2540 C   0  0  0  0  0  0  0  0  0  0  0  0
  125.5500  122.6680   56.1920 O   0  0  0  0  0  0  0  0  0  0  0  0
  124.1420  122.8280   56.1010 C   0  0  0  0  0  0  0  0  0  0  0  0
  1  2  1  0
  2  3  1  0
  3  4  2  0
  4  5  1  0
  5  6  1  0
  6  7  1  0
  7  8  1  0
  8  9  2  0
  8 10  1  0
 10 11  1  0
 11 12  1  0
 12 13  2  0
 13 14  1  0
 14 15  1  0
 14 16  2  0
 16 17  1  0
 17 18  1  0
 17 19  2  0
 19 20  1  0
 20 21  3  0
  5 22  2  0
 22 23  1  0
 23 24  1  0
 24 25  1  0
 23 26  2  0
 26 27  1  0
 27 28  1  0
 26  3  1  0
 19 12  1  0
M  END
>  <Binding energies>  (9) 
[-7.71]

>  <Ligand effiencies>  (9) 
[-0.26586206896551723]

>  <Interactions>  (9) 
["V-A:PRO:540:CD:4885, V-A:PRO:540:N:4882, V-A:VAL:537:C:4848, V-A:TYR:539:CE1:4873, V-A:TYR:539:CZ:4875, V-A:PRO:540:CB:4883, V-A:ILE:538:CG2:4861, V-A:ILE:538:CA:4858, V-A:ILE:538:CB:4860, V-A:PRO:540:CG:4884, V-A:MET:535:CB:4830, V-A:PRO:540:CA:4881, H-B:TYR:539:N:9842, V-B:PRO:540:CD:9859, V-B:MET:535:CG:9805, V-B:MET:535:CB:9804, V-B:PRO:540:CB:9857, V-B:PRO:540:CA:9855, V-B:PRO:540:N:9856, V-B:ILE:538:CG2:9835, V-B:ILE:538:CB:9834, V-B:TYR:539:CE1:9847, V-B:ILE:538:CA:9832, V-B:LEU:363:CD1:8161, V-B:VAL:537:C:9822, V-B:TYR:531:CE2:9765, H-B:TYR:531:OH:9767, V-A:TYR:539:C:4865, V-A:TYR:539:CE2:4874, H-A:ALA:541:N:4889, V-A:TYR:539:CD1:4871, V-B:PRO:540:CG:9858"]

$$$$
1i_Grossjean_2025
     RDKit          3D

 20 21  0  0  0  0  0  0  0  0999 V2000
  131.8410  132.4580   56.1230 C   0  0  0  0  0  0  0  0  0  0  0  0
  130.4750  131.8660   55.8320 C   0  0  0  0  0  0  0  0  0  0  0  0
  130.0070  131.7170   54.5280 C   0  0  0  0  0  0  0  0  0  0  0  0
  128.7420  131.1560   54.3200 C   0  0  0  0  0  0  0  0  0  0  0  0
  128.2580  130.9870   52.8810 C   0  0  0  0  0  0  0  0  0  0  0  0
  127.9690  130.7590   55.4360 C   0  0  0  0  0  0  0  0  0  0  0  0
  126.6640  130.1230   55.2390 C   0  0  0  0  0  0  0  0  0  0  0  0
  125.6340  129.6190   55.0810 N   0  0  0  0  0  0  0  0  0  0  0  0
  128.5150  130.9710   56.7240 C   0  0  0  0  0  0  0  0  0  0  0  0
  127.6820  130.5340   58.2350 S   0  0  0  0  0  0  0  0  0  0  0  0
  127.6190  132.0210   59.2780 C   0  0  0  0  0  0  0  0  0  0  0  0
  128.9000  132.2050   60.0960 C   0  0  0  0  0  0  0  0  0  0  0  0
  128.9260  133.0460   60.9950 O   0  0  0  0  0  0  0  0  0  0  0  0
  129.9290  131.3980   59.7550 N   0  0  0  0  0  0  0  0  0  0  0  0
  131.1930  131.3610   60.3270 C   0  0  0  0  0  0  0  0  0  0  0  0
  132.3510  131.1060   59.5950 C   0  0  0  0  0  0  0  0  0  0  0  0
  133.3740  131.1560   60.5140 C   0  0  0  0  0  0  0  0  0  0  0  0
  132.8580  131.4250   61.7360 O   0  0  0  0  0  0  0  0  0  0  0  0
  131.4740  131.5510   61.6050 N   0  0  0  0  0  0  0  0  0  0  0  0
  129.7500  131.4980   56.9150 N   0  0  0  0  0  0  0  0  0  0  0  0
  1  2  1  0
  2  3  2  0
  3  4  1  0
  4  5  1  0
  4  6  2  0
  6  7  1  0
  7  8  3  0
  6  9  1  0
  9 10  1  0
 10 11  1  0
 11 12  1  0
 12 13  2  0
 12 14  1  0
 14 15  1  0
 15 16  1  0
 16 17  2  0
 17 18  1  0
 18 19  1  0
  9 20  2  0
 20  2  1  0
 19 15  2  0
M  END
>  <Binding energies>  (10) 
[-7.19]

>  <Ligand effiencies>  (10) 
[-0.3423809523809524]

>  <Interactions>  (10) 
["V-A:PRO:540:CD:4885, V-A:PRO:540:N:4882, V-A:TYR:539:CE1:4873, V-A:TYR:539:CZ:4875, V-A:PRO:540:CB:4883, V-A:ILE:538:CG2:4861, V-A:ILE:538:CA:4858, V-A:ILE:538:CB:4860, V-B:MET:535:CE:9807, V-A:MET:535:CB:4830, V-A:MET:535:CG:4831, V-A:PRO:540:CA:4881, H-B:TYR:531:OH:9767, V-A:TYR:539:C:4865, V-A:TYR:539:CE2:4874, H-A:ALA:541:N:4889, H-A:ARG:545:NH2:4926, V-A:ASN:362:C:3170, V-A:ASN:362:CB:3174, V-A:TYR:539:CD2:4872, H-A:TYR:539:OH:4876, V-A:PRO:540:C:4879"]

$$$$
1k_Grossjean_2025
     RDKit          3D

 25 25  0  0  0  0  0  0  0  0999 V2000
  131.5250  131.6760   55.7450 C   0  0  0  0  0  0  0  0  0  0  0  0
  130.5280  132.6180   56.1100 O   0  0  0  0  0  0  0  0  0  0  0  0
  129.2200  132.2470   55.6970 C   0  0  0  0  0  0  0  0  0  0  0  0
  129.2800  131.6460   54.2860 C   0  0  0  0  0  0  0  0  0  0  0  0
  127.9600  131.5040   53.7760 O   0  0  0  0  0  0  0  0  0  0  0  0
  127.5630  130.1520   53.5880 C   0  0  0  0  0  0  0  0  0  0  0  0
  126.2470  129.8990   54.3350 C   0  0  0  0  0  0  0  0  0  0  0  0
  126.4330  128.8550   55.2830 O   0  0  0  0  0  0  0  0  0  0  0  0
  127.4270  129.1400   56.2590 C   0  0  0  0  0  0  0  0  0  0  0  0
  128.6000  128.1540   56.1050 C   0  0  0  0  0  0  0  0  0  0  0  0
  128.3770  127.1150   55.0980 N   0  0  0  0  0  0  0  0  0  0  0  0
  129.3210  126.2910   54.6120 C   0  0  0  0  0  0  0  0  0  0  0  0
  130.4970  126.3250   54.9790 O   0  0  0  0  0  0  0  0  0  0  0  0
  128.8440  125.2890   53.5490 C   0  0  0  0  0  0  0  0  0  0  0  0
  128.6320  123.5680   54.1240 S   0  0  0  0  0  0  0  0  0  0  0  0
  127.5250  123.5500   55.5270 C   0  0  0  0  0  0  0  0  0  0  0  0
  126.2270  123.2540   55.2550 N   0  0  0  0  0  0  0  0  0  0  0  0
  125.3340  123.2330   56.2710 C   0  0  0  0  0  0  0  0  0  0  0  0
  123.9050  122.9020   55.8860 C   0  0  0  0  0  0  0  0  0  0  0  0
  125.6920  123.4960   57.5910 C   0  0  0  0  0  0  0  0  0  0  0  0
  127.0260  123.7950   57.8870 C   0  0  0  0  0  0  0  0  0  0  0  0
  127.3970  124.0800   59.3400 C   0  0  0  0  0  0  0  0  0  0  0  0
  127.9740  123.8270   56.8390 C   0  0  0  0  0  0  0  0  0  0  0  0
  129.3780  124.1410   57.1190 C   0  0  0  0  0  0  0  0  0  0  0  0
  130.4860  124.3900   57.3400 N   0  0  0  0  0  0  0  0  0  0  0  0
  1  2  1  0
  2  3  1  0
  3  4  1  0
  4  5  1  0
  5  6  1  0
  6  7  1  0
  7  8  1  0
  8  9  1  0
  9 10  1  0
 10 11  1  0
 11 12  1  0
 12 13  2  0
 12 14  1  0
 14 15  1  0
 15 16  1  0
 16 17  2  0
 17 18  1  0
 18 19  1  0
 18 20  2  0
 20 21  1  0
 21 22  1  0
 21 23  2  0
 23 24  1  0
 24 25  3  0
 23 16  1  0
M  END
>  <Binding energies>  (11) 
[-7.1]

>  <Ligand effiencies>  (11) 
[-0.27307692307692305]

>  <Interactions>  (11) 
["H-A:TYR:539:N:4868, V-A:TYR:539:CE1:4873, V-A:TYR:539:CZ:4875, V-A:ILE:538:CG2:4861, V-A:ILE:538:CA:4858, V-A:ILE:538:CB:4860, V-B:MET:535:CE:9807, H-A:TYR:531:OH:4793, V-B:TYR:531:CE1:9764, V-B:TYR:539:C:9839, H-B:TYR:539:N:9842, V-B:PRO:540:CD:9859, V-B:PRO:540:CB:9857, V-B:PRO:540:CA:9855, V-B:TYR:539:CZ:9849, V-B:PRO:540:N:9856, V-B:ILE:538:CG2:9835, V-B:ILE:538:CB:9834, V-A:MET:535:CE:4833, H-B:TYR:539:OH:9850, V-B:TYR:539:CE2:9848, V-B:LEU:363:CD1:8161, V-B:TYR:531:CE2:9765, H-B:MET:535:SD:9806, H-B:TYR:531:OH:9767, V-A:TYR:539:CD1:4871, V-A:TYR:539:CG:4870, V-B:PRO:540:CG:9858, V-B:ILE:538:CD1:9837"]

$$$$
1l_Grossjean_2025
     RDKit          3D

 17 17  0  0  0  0  0  0  0  0999 V2000
  132.7600  125.4990   56.0680 C   0  0  0  0  0  0  0  0  0  0  0  0
  131.4340  125.9980   55.9620 O   0  0  0  0  0  0  0  0  0  0  0  0
  130.7430  125.3050   54.9690 N   0  0  0  0  0  0  0  0  0  0  0  0
  129.6350  125.8560   54.4380 C   0  0  0  0  0  0  0  0  0  0  0  0
  129.3100  127.0350   54.6050 O   0  0  0  0  0  0  0  0  0  0  0  0
  128.7850  124.9100   53.5770 C   0  0  0  0  0  0  0  0  0  0  0  0
  128.5700  123.2310   54.2580 S   0  0  0  0  0  0  0  0  0  0  0  0
  127.4220  123.3260   55.6210 C   0  0  0  0  0  0  0  0  0  0  0  0
  126.1180  123.1070   55.3100 N   0  0  0  0  0  0  0  0  0  0  0  0
  125.1930  123.1660   56.2970 C   0  0  0  0  0  0  0  0  0  0  0  0
  123.7590  122.9090   55.8730 C   0  0  0  0  0  0  0  0  0  0  0  0
  125.5230  123.4400   57.6220 C   0  0  0  0  0  0  0  0  0  0  0  0
  126.8630  123.6660   57.9550 C   0  0  0  0  0  0  0  0  0  0  0  0
  127.2030  123.9650   59.4140 C   0  0  0  0  0  0  0  0  0  0  0  0
  127.8440  123.6110   56.9400 C   0  0  0  0  0  0  0  0  0  0  0  0
  129.2560  123.8440   57.2600 C   0  0  0  0  0  0  0  0  0  0  0  0
  130.3700  124.0280   57.5140 N   0  0  0  0  0  0  0  0  0  0  0  0
  1  2  1  0
  2  3  1  0
  3  4  1  0
  4  5  2  0
  4  6  1  0
  6  7  1  0
  7  8  1  0
  8  9  2  0
  9 10  1  0
 10 11  1  0
 10 12  2  0
 12 13  1  0
 13 14  1  0
 13 15  2  0
 15 16  1  0
 16 17  3  0
 15  8  1  0
M  END
>  <Binding energies>  (12) 
[-6.08]

>  <Ligand effiencies>  (12) 
[-0.3377777777777778]

>  <Interactions>  (12) 
["V-A:TYR:531:CZ:4792, H-A:TYR:531:OH:4793, V-B:TYR:539:C:9839, H-B:TYR:539:N:9842, V-B:PRO:540:CD:9859, V-B:PRO:540:CB:9857, V-B:PRO:540:CA:9855, V-B:TYR:539:CZ:9849, V-B:PRO:540:N:9856, V-B:ILE:538:CG2:9835, V-B:ILE:538:CB:9834, V-B:TYR:539:CE1:9847, V-B:ILE:538:CA:9832, V-A:MET:535:CE:4833, V-A:TYR:531:CE1:4790, V-B:TYR:539:CD2:9846, H-B:TYR:539:OH:9850, V-B:TYR:539:CD1:9845, V-B:TYR:539:CE2:9848, V-B:LEU:363:CD1:8161, V-B:TYR:531:CE2:9765, V-A:ASP:366:CB:3210, V-B:PRO:540:CG:9858, V-B:ILE:538:CD1:9837, V-A:ASP:366:C:3206"]

$$$$
1m_Grossjean_2025
     RDKit          3D

 20 20  0  0  0  0  0  0  0  0999 V2000
  124.7510  130.7030   75.6350 C   0  0  0  0  0  0  0  0  0  0  0  0
  124.1230  129.5010   75.2140 O   0  0  0  0  0  0  0  0  0  0  0  0
  124.8450  128.5090   74.6540 C   0  0  0  0  0  0  0  0  0  0  0  0
  124.4790  127.3360   74.5290 O   0  0  0  0  0  0  0  0  0  0  0  0
  126.2180  129.0160   74.1640 C   0  0  0  0  0  0  0  0  0  0  0  0
  127.0520  127.9440   73.5990 N   0  0  0  0  0  0  0  0  0  0  0  0
  128.2700  128.1060   73.0470 C   0  0  0  0  0  0  0  0  0  0  0  0
  128.8190  129.2040   72.9410 O   0  0  0  0  0  0  0  0  0  0  0  0
  128.9420  126.8230   72.5410 C   0  0  0  0  0  0  0  0  0  0  0  0
  130.7670  126.8640   72.5480 S   0  0  0  0  0  0  0  0  0  0  0  0
  131.3480  125.4050   73.3850 C   0  0  0  0  0  0  0  0  0  0  0  0
  130.4610  124.3770   73.3630 N   0  0  0  0  0  0  0  0  0  0  0  0
  130.7980  123.2130   73.9640 C   0  0  0  0  0  0  0  0  0  0  0  0
  129.7660  122.1050   73.8810 C   0  0  0  0  0  0  0  0  0  0  0  0
  132.0150  123.0280   74.6170 C   0  0  0  0  0  0  0  0  0  0  0  0
  132.9260  124.0890   74.6690 C   0  0  0  0  0  0  0  0  0  0  0  0
  134.2470  123.8690   75.4030 C   0  0  0  0  0  0  0  0  0  0  0  0
  132.5960  125.3160   74.0490 C   0  0  0  0  0  0  0  0  0  0  0  0
  133.5130  126.4540   74.1340 C   0  0  0  0  0  0  0  0  0  0  0  0
  134.2380  127.3530   74.2010 N   0  0  0  0  0  0  0  0  0  0  0  0
  1  2  1  0
  2  3  1  0
  3  4  2  0
  3  5  1  0
  5  6  1  0
  6  7  1  0
  7  8  2  0
  7  9  1  0
  9 10  1  0
 10 11  1  0
 11 12  2  0
 12 13  1  0
 13 14  1  0
 13 15  2  0
 15 16  1  0
 16 17  1  0
 16 18  2  0
 18 19  1  0
 19 20  3  0
 18 11  1  0
M  END
>  <Binding energies>  (13) 
[-6.95]

>  <Ligand effiencies>  (13) 
[-0.33095238095238094]

>  <Interactions>  (13) 
["V-A:VAL:458:CG2:4085, V-A:HIS:456:CD2:4066, H-B:LYS:547:NZ:9923, V-A:LYS:547:CE:4948, V-A:LYS:547:CD:4947, V-B:LYS:547:CE:9922, V-A:LYS:471:CD:4217, H-A:LYS:547:NZ:4949, V-B:GLY:544:C:9884, V-B:LYS:471:CD:9191, V-B:HIS:456:CD2:9040, H-B:GLY:544:O:9885, V-B:VAL:458:CG2:9059, V-A:ASP:473:CG:4238, V-A:HIS:456:CB:4063, V-A:HIS:456:CG:4064, V-B:LYS:471:CE:9192, V-A:LYS:471:CE:4218, V-B:HIS:456:CG:9038, V-B:HIS:456:CB:9037, V-B:HIS:456:C:9033, V-A:LYS:547:CG:4946, V-A:HIS:456:C:4059, V-A:LYS:471:CG:4216, V-B:LYS:471:CG:9190, H-B:VAL:457:N:9048"]

$$$$
1n_Grossjean_2025
     RDKit          3D

 27 28  0  0  0  0  0  0  0  0999 V2000
  124.3890  123.3720   56.8530 C   0  0  0  0  0  0  0  0  0  0  0  0
  125.4250  123.2140   55.7360 C   0  0  0  0  0  0  0  0  0  0  0  0
  126.5560  122.5110   56.2360 O   0  0  0  0  0  0  0  0  0  0  0  0
  127.6490  123.1760   56.6920 C   0  0  0  0  0  0  0  0  0  0  0  0
  128.4830  122.6730   57.4500 O   0  0  0  0  0  0  0  0  0  0  0  0
  127.7500  124.5800   56.1700 C   0  0  0  0  0  0  0  0  0  0  0  0
  127.2260  125.6740   56.8760 C   0  0  0  0  0  0  0  0  0  0  0  0
  127.3340  126.9630   56.3630 C   0  0  0  0  0  0  0  0  0  0  0  0
  127.9570  127.1860   55.1340 C   0  0  0  0  0  0  0  0  0  0  0  0
  128.0050  128.5280   54.7080 N   0  0  0  0  0  0  0  0  0  0  0  0
  127.0820  129.5060   54.8280 C   0  0  0  0  0  0  0  0  0  0  0  0
  125.9820  129.3870   55.3680 O   0  0  0  0  0  0  0  0  0  0  0  0
  127.4750  130.8650   54.2330 C   0  0  0  0  0  0  0  0  0  0  0  0
  128.9540  130.9290   53.7940 C   0  0  0  0  0  0  0  0  0  0  0  0
  129.9320  132.2140   54.6290 S   0  0  0  0  0  0  0  0  0  0  0  0
  129.9300  131.8480   56.3700 C   0  0  0  0  0  0  0  0  0  0  0  0
  128.6870  131.7670   56.9070 N   0  0  0  0  0  0  0  0  0  0  0  0
  128.5640  131.4760   58.2230 C   0  0  0  0  0  0  0  0  0  0  0  0
  127.1440  131.3920   58.7500 C   0  0  0  0  0  0  0  0  0  0  0  0
  129.6630  131.2630   59.0520 C   0  0  0  0  0  0  0  0  0  0  0  0
  130.9500  131.3640   58.5130 C   0  0  0  0  0  0  0  0  0  0  0  0
  132.1400  131.1400   59.4440 C   0  0  0  0  0  0  0  0  0  0  0  0
  131.1030  131.6720   57.1420 C   0  0  0  0  0  0  0  0  0  0  0  0
  132.4400  131.8340   56.5690 C   0  0  0  0  0  0  0  0  0  0  0  0
  133.4990  131.9620   56.1180 N   0  0  0  0  0  0  0  0  0  0  0  0
  128.4910  126.1000   54.4270 C   0  0  0  0  0  0  0  0  0  0  0  0
  128.3860  124.8110   54.9440 C   0  0  0  0  0  0  0  0  0  0  0  0
  1  2  1  0
  2  3  1  0
  3  4  1  0
  4  5  2  0
  4  6  1  0
  6  7  2  0
  7  8  1  0
  8  9  2  0
  9 10  1  0
 10 11  1  0
 11 12  2  0
 11 13  1  0
 13 14  1  0
 14 15  1  0
 15 16  1  0
 16 17  2  0
 17 18  1  0
 18 19  1  0
 18 20  2  0
 20 21  1  0
 21 22  1  0
 21 23  2  0
 23 24  1  0
 24 25  3  0
  9 26  1  0
 26 27  2  0
 27  6  1  0
 23 16  1  0
M  END
>  <Binding energies>  (14) 
[-8.77]

>  <Ligand effiencies>  (14) 
[-0.3132142857142857]

>  <Interactions>  (14) 
["V-A:TYR:531:CE2:4791, V-A:PRO:540:CD:4885, V-A:PRO:540:N:4882, H-A:TYR:539:N:4868, V-A:TYR:539:CE1:4873, V-A:TYR:539:CZ:4875, V-A:PRO:540:CB:4883, H-A:TYR:531:OH:4793, V-A:MET:535:CB:4830, V-A:MET:535:CG:4831, V-A:PRO:540:CA:4881, V-B:TYR:539:C:9839, H-B:TYR:539:N:9842, V-B:PRO:540:CD:9859, V-B:PRO:540:CB:9857, V-B:PRO:540:CA:9855, V-B:PRO:540:N:9856, V-B:ILE:538:CG2:9835, V-B:ILE:538:CB:9834, V-B:ILE:538:CA:9832, V-B:TYR:531:CE2:9765, H-B:MET:535:SD:9806, H-B:TYR:531:OH:9767, V-A:TYR:539:C:4865, V-A:TYR:539:CE2:4874, V-A:TYR:539:CD2:4872, H-A:TYR:539:OH:4876, V-B:PRO:540:CG:9858, H-A:MET:535:SD:4832"]

$$$$
1q_Grossjean_2025
     RDKit          3D

 21 21  0  0  0  0  0  0  0  0999 V2000
  131.9260  125.3920   59.8880 C   0  0  0  0  0  0  0  0  0  0  0  0
  132.8670  124.5510   59.2360 O   0  0  0  0  0  0  0  0  0  0  0  0
  133.0730  124.6540   57.9000 C   0  0  0  0  0  0  0  0  0  0  0  0
  133.8870  123.9970   57.2480 O   0  0  0  0  0  0  0  0  0  0  0  0
  132.2010  125.7250   57.2100 C   0  0  0  0  0  0  0  0  0  0  0  0
  131.6160  125.2600   55.9430 N   0  0  0  0  0  0  0  0  0  0  0  0
  130.5780  125.8260   55.2990 C   0  0  0  0  0  0  0  0  0  0  0  0
  129.9920  126.8280   55.7150 O   0  0  0  0  0  0  0  0  0  0  0  0
  130.1610  125.1590   53.9800 C   0  0  0  0  0  0  0  0  0  0  0  0
  128.6620  124.8100   53.8940 C   0  0  0  0  0  0  0  0  0  0  0  0
  128.2580  123.1660   54.5580 S   0  0  0  0  0  0  0  0  0  0  0  0
  127.1430  123.3680   55.9320 C   0  0  0  0  0  0  0  0  0  0  0  0
  125.8360  123.2320   55.5910 N   0  0  0  0  0  0  0  0  0  0  0  0
  124.8930  123.3660   56.5510 C   0  0  0  0  0  0  0  0  0  0  0  0
  123.4550  123.2170   56.0890 C   0  0  0  0  0  0  0  0  0  0  0  0
  125.2080  123.6290   57.8830 C   0  0  0  0  0  0  0  0  0  0  0  0
  126.5520  123.7470   58.2510 C   0  0  0  0  0  0  0  0  0  0  0  0
  126.8720  124.0170   59.7210 C   0  0  0  0  0  0  0  0  0  0  0  0
  127.5550  123.6080   57.2660 C   0  0  0  0  0  0  0  0  0  0  0  0
  128.9680  123.6710   57.6440 C   0  0  0  0  0  0  0  0  0  0  0  0
  130.0840  123.7210   57.9480 N   0  0  0  0  0  0  0  0  0  0  0  0
  1  2  1  0
  2  3  1  0
  3  4  2  0
  3  5  1  0
  5  6  1  0
  6  7  1  0
  7  8  2  0
  7  9  1  0
  9 10  1  0
 10 11  1  0
 11 12  1  0
 12 13  2  0
 13 14  1  0
 14 15  1  0
 14 16  2  0
 16 17  1  0
 17 18  1  0
 17 19  2  0
 19 20  1  0
 20 21  3  0
 19 12  1  0
M  END
>  <Binding energies>  (15) 
[-6.54]

>  <Ligand effiencies>  (15) 
[-0.2972727272727273]

>  <Interactions>  (15) 
["H-A:TYR:531:OH:4793, V-B:TYR:531:CZ:9766, V-B:TYR:539:C:9839, H-B:TYR:539:N:9842, V-B:PRO:540:CD:9859, V-B:PRO:540:CB:9857, V-B:PRO:540:CA:9855, V-B:TYR:539:CZ:9849, V-B:PRO:540:N:9856, V-B:ILE:538:CG2:9835, V-B:ILE:538:CB:9834, V-B:TYR:539:CE1:9847, V-A:MET:535:CE:4833, V-A:TYR:531:CE1:4790, V-B:TYR:539:CD2:9846, H-B:TYR:539:OH:9850, V-B:TYR:539:CE2:9848, V-B:LEU:363:CD1:8161, V-B:TYR:531:CE2:9765, V-A:ASP:366:CG:3211, V-A:ASP:366:CB:3210, V-A:ASP:366:CA:3208"]

$$$$
2a_Grossjean_2025
     RDKit          3D

 29 30  0  0  0  0  0  0  0  0999 V2000
  133.2420  131.8050   56.8120 C   0  0  0  0  0  0  0  0  0  0  0  0
  132.3170  131.7990   55.5920 C   0  0  0  0  0  0  0  0  0  0  0  0
  131.2280  132.6840   55.8230 O   0  0  0  0  0  0  0  0  0  0  0  0
  130.0820  132.2470   56.4060 C   0  0  0  0  0  0  0  0  0  0  0  0
  129.3850  132.9470   57.1480 O   0  0  0  0  0  0  0  0  0  0  0  0
  129.7350  130.8320   56.0410 C   0  0  0  0  0  0  0  0  0  0  0  0
  130.1720  129.7400   56.8050 C   0  0  0  0  0  0  0  0  0  0  0  0
  129.8350  128.4410   56.4370 C   0  0  0  0  0  0  0  0  0  0  0  0
  129.0620  128.2050   55.2990 C   0  0  0  0  0  0  0  0  0  0  0  0
  128.7940  126.8530   55.0160 N   0  0  0  0  0  0  0  0  0  0  0  0
  129.6400  125.8080   54.8900 C   0  0  0  0  0  0  0  0  0  0  0  0
  130.8660  125.8660   54.9820 O   0  0  0  0  0  0  0  0  0  0  0  0
  128.9800  124.4540   54.6050 C   0  0  0  0  0  0  0  0  0  0  0  0
  128.9420  123.3510   56.0570 S   0  0  0  0  0  0  0  0  0  0  0  0
  127.3600  123.4920   56.8810 C   0  0  0  0  0  0  0  0  0  0  0  0
  126.2720  123.2040   56.1210 N   0  0  0  0  0  0  0  0  0  0  0  0
  125.0430  123.3020   56.6760 C   0  0  0  0  0  0  0  0  0  0  0  0
  123.8770  122.9920   55.7560 C   0  0  0  0  0  0  0  0  0  0  0  0
  124.8450  123.6780   58.0010 C   0  0  0  0  0  0  0  0  0  0  0  0
  125.9550  123.9710   58.8080 C   0  0  0  0  0  0  0  0  0  0  0  0
  125.7190  124.3850   60.2730 C   0  0  0  0  0  0  0  0  0  0  0  0
  126.0850  125.6540   60.4550 F   0  0  0  0  0  0  0  0  0  0  0  0
  124.4270  124.2580   60.5790 F   0  0  0  0  0  0  0  0  0  0  0  0
  126.4110  123.6390   61.1370 F   0  0  0  0  0  0  0  0  0  0  0  0
  127.2500  123.8760   58.2380 C   0  0  0  0  0  0  0  0  0  0  0  0
  128.4450  124.1740   59.0340 C   0  0  0  0  0  0  0  0  0  0  0  0
  129.3880  124.4090   59.6630 N   0  0  0  0  0  0  0  0  0  0  0  0
  128.6140  129.2920   54.5350 C   0  0  0  0  0  0  0  0  0  0  0  0
  128.9490  130.5910   54.9060 C   0  0  0  0  0  0  0  0  0  0  0  0
  1  2  1  0
  2  3  1  0
  3  4  1  0
  4  5  2  0
  4  6  1  0
  6  7  2  0
  7  8  1  0
  8  9  2  0
  9 10  1  0
 10 11  1  0
 11 12  2  0
 11 13  1  0
 13 14  1  0
 14 15  1  0
 15 16  2  0
 16 17  1  0
 17 18  1  0
 17 19  2  0
 19 20  1  0
 20 21  1  0
 21 22  1  0
 21 23  1  0
 21 24  1  0
 20 25  2  0
 25 26  1  0
 26 27  3  0
  9 28  1  0
 28 29  2  0
 29  6  1  0
 25 15  1  0
M  END
>  <Binding energies>  (16) 
[-8.2]

>  <Ligand effiencies>  (16) 
[-0.2733333333333333]

>  <Interactions>  (16) 
["V-A:TYR:531:CE2:4791, V-B:ASP:366:CG:8185, V-A:PRO:540:CD:4885, V-A:PRO:540:N:4882, H-A:TYR:539:N:4868, V-A:PRO:540:CB:4883, V-A:LEU:363:CD1:3187, V-A:ILE:538:CG2:4861, V-A:TYR:531:CZ:4792, V-A:ILE:538:CB:4860, V-A:PRO:540:CG:4884, H-A:TYR:531:OH:4793, V-A:PRO:540:CA:4881, V-B:TYR:539:C:9839, H-B:TYR:539:N:9842, V-B:PRO:540:CD:9859, V-B:PRO:540:CB:9857, V-B:PRO:540:CA:9855, V-B:TYR:539:CZ:9849, V-B:PRO:540:N:9856, V-B:ILE:538:CG2:9835, V-B:ILE:538:CB:9834, V-B:TYR:539:CE1:9847, V-B:ASN:362:CB:8148, H-B:TYR:539:OH:9850, V-B:LEU:363:CD1:8161, V-B:TYR:531:CE2:9765, H-B:MET:535:SD:9806, H-B:TYR:531:OH:9767, V-A:TYR:539:C:4865, V-A:TYR:539:CA:4867, V-B:PRO:540:C:9853, V-B:ILE:538:CD1:9837"]

$$$$
2b_Grossjean_2025
     RDKit          3D

 28 29  0  0  0  0  0  0  0  0999 V2000
  132.1400  131.8870   55.8350 C   0  0  0  0  0  0  0  0  0  0  0  0
  130.8480  132.2570   55.3730 O   0  0  0  0  0  0  0  0  0  0  0  0
  129.7340  131.9320   56.0780 C   0  0  0  0  0  0  0  0  0  0  0  0
  129.1930  132.6950   56.8850 O   0  0  0  0  0  0  0  0  0  0  0  0
  129.2270  130.5510   55.7820 C   0  0  0  0  0  0  0  0  0  0  0  0
  128.2080  130.3190   54.8460 C   0  0  0  0  0  0  0  0  0  0  0  0
  127.7590  129.0250   54.5960 C   0  0  0  0  0  0  0  0  0  0  0  0
  128.3200  127.9390   55.2680 C   0  0  0  0  0  0  0  0  0  0  0  0
  127.7870  126.6770   54.9440 N   0  0  0  0  0  0  0  0  0  0  0  0
  128.4000  125.5890   54.4300 C   0  0  0  0  0  0  0  0  0  0  0  0
  129.5900  125.5230   54.1170 O   0  0  0  0  0  0  0  0  0  0  0  0
  127.4980  124.3690   54.2210 C   0  0  0  0  0  0  0  0  0  0  0  0
  127.7070  123.0940   55.5060 S   0  0  0  0  0  0  0  0  0  0  0  0
  126.6580  123.4600   56.9070 C   0  0  0  0  0  0  0  0  0  0  0  0
  125.3420  123.6370   56.6270 N   0  0  0  0  0  0  0  0  0  0  0  0
  124.4910  123.9230   57.6370 C   0  0  0  0  0  0  0  0  0  0  0  0
  123.0410  124.1180   57.2390 C   0  0  0  0  0  0  0  0  0  0  0  0
  124.9080  124.0360   58.9600 C   0  0  0  0  0  0  0  0  0  0  0  0
  126.2620  123.8500   59.2750 C   0  0  0  0  0  0  0  0  0  0  0  0
  126.7060  123.9730   60.7450 C   0  0  0  0  0  0  0  0  0  0  0  0
  127.3380  125.1330   60.9340 F   0  0  0  0  0  0  0  0  0  0  0  0
  125.6440  123.9230   61.5500 F   0  0  0  0  0  0  0  0  0  0  0  0
  127.5380  122.9980   61.1170 F   0  0  0  0  0  0  0  0  0  0  0  0
  127.1680  123.5560   58.2230 C   0  0  0  0  0  0  0  0  0  0  0  0
  128.5950  123.3580   58.4930 C   0  0  0  0  0  0  0  0  0  0  0  0
  129.7220  123.2020   58.7070 N   0  0  0  0  0  0  0  0  0  0  0  0
  129.3330  128.1630   56.2120 C   0  0  0  0  0  0  0  0  0  0  0  0
  129.7800  129.4570   56.4610 C   0  0  0  0  0  0  0  0  0  0  0  0
  1  2  1  0
  2  3  1  0
  3  4  2  0
  3  5  1  0
  5  6  2  0
  6  7  1  0
  7  8  2  0
  8  9  1  0
  9 10  1  0
 10 11  2  0
 10 12  1  0
 12 13  1  0
 13 14  1  0
 14 15  2  0
 15 16  1  0
 16 17  1  0
 16 18  2  0
 18 19  1  0
 19 20  1  0
 20 21  1  0
 20 22  1  0
 20 23  1  0
 19 24  2  0
 24 25  1  0
 25 26  3  0
  8 27  1  0
 27 28  2  0
 28  5  1  0
 24 14  1  0
M  END
>  <Binding energies>  (17) 
[-7.77]

>  <Ligand effiencies>  (17) 
[-0.2679310344827586]

>  <Interactions>  (17) 
["V-A:TYR:531:CE2:4791, V-A:PRO:540:CD:4885, H-A:TYR:539:N:4868, V-A:ILE:538:CG2:4861, V-A:ILE:538:CB:4860, V-B:TYR:531:CZ:9766, V-B:TYR:539:C:9839, H-B:TYR:539:N:9842, V-B:MET:535:CG:9805, V-B:PRO:540:CB:9857, V-B:PRO:540:CA:9855, V-B:PRO:540:N:9856, V-B:TYR:539:CD2:9846, V-B:TYR:539:CE2:9848, V-B:LEU:363:CD1:8161, V-B:TYR:531:CE2:9765, H-B:MET:535:SD:9806, H-B:TYR:531:OH:9767, V-B:GLU:543:CD:9880, V-B:PRO:540:C:9853, V-B:ALA:541:CB:9864, V-B:LEU:363:CA:8157, V-B:LEU:363:CB:8159, V-B:LEU:363:C:8155, V-B:ALA:541:CA:9862"]

$$$$
2c_Grossjean_2025
     RDKit          3D

 26 27  0  0  0  0  0  0  0  0999 V2000
  125.5870  124.0060   61.8620 C   0  0  0  0  0  0  0  0  0  0  0  0
  126.7310  123.2850   61.4160 O   0  0  0  0  0  0  0  0  0  0  0  0
  127.1410  123.4170   60.1030 C   0  0  0  0  0  0  0  0  0  0  0  0
  128.3910  122.8880   59.7860 C   0  0  0  0  0  0  0  0  0  0  0  0
  128.8910  122.9740   58.4890 C   0  0  0  0  0  0  0  0  0  0  0  0
  128.1370  123.6060   57.4890 C   0  0  0  0  0  0  0  0  0  0  0  0
  128.5500  123.7240   56.1490 N   0  0  0  0  0  0  0  0  0  0  0  0
  127.8720  123.4000   55.0270 C   0  0  0  0  0  0  0  0  0  0  0  0
  126.7560  122.8770   55.0080 O   0  0  0  0  0  0  0  0  0  0  0  0
  128.6140  123.6950   53.7150 C   0  0  0  0  0  0  0  0  0  0  0  0
  129.1640  125.4230   53.4940 S   0  0  0  0  0  0  0  0  0  0  0  0
  129.8670  126.0240   55.0250 C   0  0  0  0  0  0  0  0  0  0  0  0
  131.0380  125.4480   55.3990 N   0  0  0  0  0  0  0  0  0  0  0  0
  131.6220  125.8450   56.5500 C   0  0  0  0  0  0  0  0  0  0  0  0
  132.9180  125.1430   56.9070 C   0  0  0  0  0  0  0  0  0  0  0  0
  131.0760  126.8320   57.3680 C   0  0  0  0  0  0  0  0  0  0  0  0
  129.8720  127.4460   56.9980 C   0  0  0  0  0  0  0  0  0  0  0  0
  129.2810  128.5370   57.9120 C   0  0  0  0  0  0  0  0  0  0  0  0
  130.0640  128.7110   58.9780 F   0  0  0  0  0  0  0  0  0  0  0  0
  129.1900  129.6900   57.2490 F   0  0  0  0  0  0  0  0  0  0  0  0
  128.0600  128.2310   58.3570 F   0  0  0  0  0  0  0  0  0  0  0  0
  129.2440  127.0350   55.7940 C   0  0  0  0  0  0  0  0  0  0  0  0
  127.9820  127.6410   55.3590 C   0  0  0  0  0  0  0  0  0  0  0  0
  126.9860  128.1200   55.0150 N   0  0  0  0  0  0  0  0  0  0  0  0
  126.8780  124.1220   57.7980 C   0  0  0  0  0  0  0  0  0  0  0  0
  126.3820  124.0340   59.0950 C   0  0  0  0  0  0  0  0  0  0  0  0
  1  2  1  0
  2  3  1  0
  3  4  2  0
  4  5  1  0
  5  6  2  0
  6  7  1  0
  7  8  1  0
  8  9  2  0
  8 10  1  0
 10 11  1  0
 11 12  1  0
 12 13  2  0
 13 14  1  0
 14 15  1  0
 14 16  2  0
 16 17  1  0
 17 18  1  0
 18 19  1  0
 18 20  1  0
 18 21  1  0
 17 22  2  0
 22 23  1  0
 23 24  3  0
  6 25  1  0
 25 26  2  0
 26  3  1  0
 22 12  1  0
M  END
>  <Binding energies>  (18) 
[-6.38]

>  <Ligand effiencies>  (18) 
[-0.23629629629629628]

>  <Interactions>  (18) 
["H-A:TYR:531:OH:4793, V-B:TYR:539:C:9839, H-B:TYR:539:N:9842, V-B:PRO:540:CA:9855, V-B:TYR:539:CZ:9849, H-B:ALA:541:N:9863, V-B:TYR:539:CE1:9847, V-B:ILE:538:CA:9832, V-B:TYR:539:CD2:9846, H-B:TYR:539:OH:9850, V-B:TYR:539:CD1:9845, V-B:TYR:539:CE2:9848, H-B:TYR:531:OH:9767, V-B:GLU:543:CD:9880, V-A:ASP:366:CG:3211, V-B:PRO:540:C:9853, V-A:ASP:366:CB:3210, V-A:ASP:366:CA:3208, V-A:ASP:366:C:3206"]

$$$$
2d_Ghoteimi_2023
     RDKit          3D

 38 42  0  0  0  0  0  0  0  0999 V2000
  126.2650  133.3960   61.5850 C   0  0  0  0  0  0  0  0  0  0  0  0
  124.9900  133.6940   61.0370 O   0  0  0  0  0  0  0  0  0  0  0  0
  123.8640  133.3190   61.6780 C   0  0  0  0  0  0  0  0  0  0  0  0
  123.2470  134.0010   62.5010 O   0  0  0  0  0  0  0  0  0  0  0  0
  123.4210  131.9110   61.2500 C   0  0  0  0  0  0  0  0  0  0  0  0
  123.2560  130.8030   62.6910 S   0  0  0  0  0  0  0  0  0  0  0  0
  124.8850  130.2810   63.1850 C   0  0  0  0  0  0  0  0  0  0  0  0
  125.8130  130.4240   62.2070 N   0  0  0  0  0  0  0  0  0  0  0  0
  127.0980  130.0590   62.4420 C   0  0  0  0  0  0  0  0  0  0  0  0
  128.0600  130.2290   61.3110 C   0  0  0  0  0  0  0  0  0  0  0  0
  128.1640  129.2560   60.3110 C   0  0  0  0  0  0  0  0  0  0  0  0
  129.0580  129.4090   59.2540 C   0  0  0  0  0  0  0  0  0  0  0  0
  129.8730  130.5460   59.1540 C   0  0  0  0  0  0  0  0  0  0  0  0
  130.7900  130.7060   58.1080 N   0  0  0  0  0  0  0  0  0  0  0  0
  130.4140  131.3800   56.8490 C   0  0  0  0  0  0  0  0  0  0  0  0
  131.4100  131.1350   55.6960 C   0  0  0  0  0  0  0  0  0  0  0  0
  132.7180  131.5100   56.0990 O   0  0  0  0  0  0  0  0  0  0  0  0
  133.1550  130.7560   57.2180 C   0  0  0  0  0  0  0  0  0  0  0  0
  132.2080  130.9840   58.4150 C   0  0  0  0  0  0  0  0  0  0  0  0
  129.7760  131.5120   60.1650 C   0  0  0  0  0  0  0  0  0  0  0  0
  128.8840  131.3580   61.2230 C   0  0  0  0  0  0  0  0  0  0  0  0
  127.4850  129.5400   63.6800 C   0  0  0  0  0  0  0  0  0  0  0  0
  126.5540  129.4120   64.7190 C   0  0  0  0  0  0  0  0  0  0  0  0
  127.0440  128.8760   66.0240 C   0  0  0  0  0  0  0  0  0  0  0  0
  126.3250  127.8820   66.6890 C   0  0  0  0  0  0  0  0  0  0  0  0
  126.7790  127.3670   67.9000 C   0  0  0  0  0  0  0  0  0  0  0  0
  127.9690  127.8350   68.4820 C   0  0  0  0  0  0  0  0  0  0  0  0
  128.4510  127.3230   69.6900 N   0  0  0  0  0  0  0  0  0  0  0  0
  127.7600  127.5860   70.9670 C   0  0  0  0  0  0  0  0  0  0  0  0
  128.2180  126.6620   72.1160 C   0  0  0  0  0  0  0  0  0  0  0  0
  129.6260  126.7450   72.2740 O   0  0  0  0  0  0  0  0  0  0  0  0
  130.3100  126.3530   71.0940 C   0  0  0  0  0  0  0  0  0  0  0  0
  129.9080  127.2720   69.9200 C   0  0  0  0  0  0  0  0  0  0  0  0
  128.6940  128.8200   67.7970 C   0  0  0  0  0  0  0  0  0  0  0  0
  128.2390  129.3350   66.5860 C   0  0  0  0  0  0  0  0  0  0  0  0
  125.2120  129.7980   64.4730 C   0  0  0  0  0  0  0  0  0  0  0  0
  124.2050  129.7020   65.5340 C   0  0  0  0  0  0  0  0  0  0  0  0
  123.4130  129.6240   66.3750 N   0  0  0  0  0  0  0  0  0  0  0  0
  1  2  1  0
  2  3  1  0
  3  4  2  0
  3  5  1  0
  5  6  1  0
  6  7  1  0
  7  8  2  0
  8  9  1  0
  9 10  1  0
 10 11  2  0
 11 12  1  0
 12 13  2  0
 13 14  1  0
 14 15  1  0
 15 16  1  0
 16 17  1  0
 17 18  1  0
 18 19  1  0
 13 20  1  0
 20 21  2  0
  9 22  2  0
 22 23  1  0
 23 24  1  0
 24 25  2  0
 25 26  1  0
 26 27  2  0
 27 28  1  0
 28 29  1  0
 29 30  1  0
 30 31  1  0
 31 32  1  0
 32 33  1  0
 27 34  1  0
 34 35  2  0
 23 36  2  0
 36 37  1  0
 37 38  3  0
 36  7  1  0
 21 10  1  0
 35 24  1  0
 19 14  1  0
 33 28  1  0
M  END
>  <Binding energies>  (19) 
[-6.54]

>  <Ligand effiencies>  (19) 
[-0.17210526315789473]

>  <Interactions>  (19) 
["V-A:TYR:531:CE2:4791, V-A:PRO:540:CB:4883, V-A:TYR:531:CZ:4792, H-A:TYR:531:OH:4793, V-A:PRO:540:CA:4881, V-A:HIS:456:CD2:4066, V-B:GLY:544:CA:9886, V-A:HIS:456:CE1:4068, V-B:GLU:543:C:9874, V-B:LYS:547:CE:9922, V-B:HIS:456:CE1:9042, V-A:GLY:544:C:4910, V-B:GLY:544:C:9884, V-B:HIS:456:CD2:9040, V-A:HIS:456:CG:4064, V-A:GLU:543:CD:4906, V-B:GLU:543:CD:9880, V-B:ARG:545:CZ:9898, H-B:GLY:454:N:9022, V-B:ILE:369:CG2:8209, V-B:ILE:369:CD1:8211, V-B:LEU:475:CD2:9231, H-B:TYR:484:OH:9320, V-A:ASP:366:CB:3210, H-B:ARG:545:NE:9896, V-A:GLU:543:CB:4904, V-B:ARG:545:CD:9895, V-A:GLU:543:C:4900, V-A:GLU:543:CA:4902, V-B:GLY:453:CA:9016, V-B:GLU:543:CG:9879, V-B:ARG:545:CG:9894, V-A:GLU:543:CG:4905"]

$$$$
2d_Grossjean_2025
     RDKit          3D

 24 25  0  0  0  0  0  0  0  0999 V2000
  129.9050  127.4710   56.4230 C   0  0  0  0  0  0  0  0  0  0  0  0
  130.2020  128.3480   57.6250 C   0  0  0  0  0  0  0  0  0  0  0  0
  129.4460  128.2670   58.7920 C   0  0  0  0  0  0  0  0  0  0  0  0
  129.7630  129.0960   59.8780 C   0  0  0  0  0  0  0  0  0  0  0  0
  128.9220  128.9840   61.1650 C   0  0  0  0  0  0  0  0  0  0  0  0
  127.8430  128.2330   60.9410 F   0  0  0  0  0  0  0  0  0  0  0  0
  129.6450  128.4230   62.1360 F   0  0  0  0  0  0  0  0  0  0  0  0
  128.5020  130.1690   61.6120 F   0  0  0  0  0  0  0  0  0  0  0  0
  130.8460  130.0020   59.7460 C   0  0  0  0  0  0  0  0  0  0  0  0
  131.2460  130.8560   60.8670 C   0  0  0  0  0  0  0  0  0  0  0  0
  131.5620  131.5300   61.7540 N   0  0  0  0  0  0  0  0  0  0  0  0
  131.5410  130.0330   58.5140 C   0  0  0  0  0  0  0  0  0  0  0  0
  132.9030  131.1300   58.1670 S   0  0  0  0  0  0  0  0  0  0  0  0
  132.9620  131.4410   56.3720 C   0  0  0  0  0  0  0  0  0  0  0  0
  131.5980  131.8170   55.7840 C   0  0  0  0  0  0  0  0  0  0  0  0
  131.2520  132.9990   55.7860 O   0  0  0  0  0  0  0  0  0  0  0  0
  130.8550  130.7880   55.3270 N   0  0  0  0  0  0  0  0  0  0  0  0
  129.5790  130.8080   54.7350 C   0  0  0  0  0  0  0  0  0  0  0  0
  129.4920  131.4280   53.4860 C   0  0  0  0  0  0  0  0  0  0  0  0
  128.2700  131.5030   52.8230 C   0  0  0  0  0  0  0  0  0  0  0  0
  127.1300  130.9640   53.4150 C   0  0  0  0  0  0  0  0  0  0  0  0
  127.2010  130.3550   54.6650 C   0  0  0  0  0  0  0  0  0  0  0  0
  128.4210  130.2770   55.3290 C   0  0  0  0  0  0  0  0  0  0  0  0
  131.2350  129.2090   57.4820 N   0  0  0  0  0  0  0  0  0  0  0  0
  1  2  1  0
  2  3  2  0
  3  4  1  0
  4  5  1  0
  5  6  1  0
  5  7  1  0
  5  8  1  0
  4  9  2  0
  9 10  1  0
 10 11  3  0
  9 12  1  0
 12 13  1  0
 13 14  1  0
 14 15  1  0
 15 16  2  0
 15 17  1  0
 17 18  1  0
 18 19  2  0
 19 20  1  0
 20 21  2  0
 21 22  1  0
 22 23  2  0
 12 24  2  0
 24  2  1  0
 23 18  1  0
M  END
>  <Binding energies>  (20) 
[-6.76]

>  <Ligand effiencies>  (20) 
[-0.2704]

>  <Interactions>  (20) 
["V-A:TYR:531:CE2:4791, H-A:TYR:539:N:4868, V-A:TYR:539:CE1:4873, V-A:TYR:539:CZ:4875, V-A:PRO:540:CB:4883, V-A:LEU:363:CD1:3187, V-A:ILE:538:CG2:4861, V-A:TYR:531:CZ:4792, V-A:ILE:538:CA:4858, V-A:ILE:538:CB:4860, V-B:MET:535:CE:9807, H-A:TYR:531:OH:4793, V-A:MET:535:CB:4830, V-A:MET:535:CG:4831, V-A:PRO:540:CA:4881, V-A:GLU:543:CD:4906, V-A:ASP:366:CG:3211, H-A:ALA:541:N:4889"]

$$$$
2e_Grossjean_2025
     RDKit          3D

 25 26  0  0  0  0  0  0  0  0999 V2000
  131.1560  130.8390   61.4550 C   0  0  0  0  0  0  0  0  0  0  0  0
  132.0740  130.9490   60.2530 C   0  0  0  0  0  0  0  0  0  0  0  0
  133.4520  131.1260   60.4000 C   0  0  0  0  0  0  0  0  0  0  0  0
  134.2370  131.2080   59.2480 C   0  0  0  0  0  0  0  0  0  0  0  0
  133.6320  131.1130   57.9920 C   0  0  0  0  0  0  0  0  0  0  0  0
  132.2450  130.9460   57.9180 C   0  0  0  0  0  0  0  0  0  0  0  0
  131.6940  130.8130   56.6320 N   0  0  0  0  0  0  0  0  0  0  0  0
  131.2930  131.7920   55.7910 C   0  0  0  0  0  0  0  0  0  0  0  0
  131.4200  133.0000   56.0020 O   0  0  0  0  0  0  0  0  0  0  0  0
  130.5940  131.3260   54.5100 C   0  0  0  0  0  0  0  0  0  0  0  0
  128.8550  131.8650   54.4460 S   0  0  0  0  0  0  0  0  0  0  0  0
  128.1810  131.4870   56.0490 C   0  0  0  0  0  0  0  0  0  0  0  0
  128.7810  132.1300   57.0810 N   0  0  0  0  0  0  0  0  0  0  0  0
  128.3600  131.8660   58.3380 C   0  0  0  0  0  0  0  0  0  0  0  0
  129.0740  132.6200   59.4440 C   0  0  0  0  0  0  0  0  0  0  0  0
  127.3410  130.9570   58.6150 C   0  0  0  0  0  0  0  0  0  0  0  0
  126.7160  130.2760   57.5590 C   0  0  0  0  0  0  0  0  0  0  0  0
  125.6060  129.2590   57.8830 C   0  0  0  0  0  0  0  0  0  0  0  0
  126.0070  128.0270   57.5670 F   0  0  0  0  0  0  0  0  0  0  0  0
  125.3160  129.3000   59.1840 F   0  0  0  0  0  0  0  0  0  0  0  0
  124.4770  129.4980   57.2120 F   0  0  0  0  0  0  0  0  0  0  0  0
  127.1420  130.5460   56.2350 C   0  0  0  0  0  0  0  0  0  0  0  0
  126.5500  129.8460   55.0910 C   0  0  0  0  0  0  0  0  0  0  0  0
  126.0820  129.2930   54.1880 N   0  0  0  0  0  0  0  0  0  0  0  0
  131.4720  130.8570   59.0400 N   0  0  0  0  0  0  0  0  0  0  0  0
  1  2  1  0
  2  3  2  0
  3  4  1  0
  4  5  2  0
  5  6  1  0
  6  7  1  0
  7  8  1  0
  8  9  2  0
  8 10  1  0
 10 11  1  0
 11 12  1  0
 12 13  2  0
 13 14  1  0
 14 15  1  0
 14 16  2  0
 16 17  1  0
 17 18  1  0
 18 19  1  0
 18 20  1  0
 18 21  1  0
 17 22  2  0
 22 23  1  0
 23 24  3  0
  6 25  2  0
 25  2  1  0
 22 12  1  0
M  END
>  <Binding energies>  (21) 
[-7.53]

>  <Ligand effiencies>  (21) 
[-0.2896153846153846]

>  <Interactions>  (21) 
["V-B:ASP:366:CG:8185, V-A:PRO:540:N:4882, H-A:TYR:539:N:4868, V-A:TYR:539:CE1:4873, V-A:TYR:539:CZ:4875, V-A:PRO:540:CB:4883, V-A:ILE:538:CG2:4861, V-A:TYR:531:CZ:4792, V-A:LEU:363:CA:3183, V-A:ILE:538:CA:4858, V-A:ILE:538:CB:4860, V-B:ASP:366:CB:8184, H-A:TYR:531:OH:4793, V-A:MET:535:CG:4831, V-A:PRO:540:CA:4881, V-B:TYR:531:CZ:9766, V-B:TYR:531:CE1:9764, V-A:GLU:543:CD:4906, H-B:TYR:531:OH:9767, V-A:TYR:539:C:4865, V-A:TYR:539:CE2:4874, V-A:ASP:366:CG:3211, V-A:ASN:362:C:3170, V-A:ASN:362:CB:3174, V-A:TYR:539:CD1:4871, V-A:TYR:539:CD2:4872, V-B:ASP:366:CA:8182, V-A:LEU:363:CB:3185, V-B:ASP:366:C:8180"]

$$$$
2f_Grossjean_2025
     RDKit          3D

 24 25  0  0  0  0  0  0  0  0999 V2000
  124.5980  123.0310   55.8230 C   0  0  0  0  0  0  0  0  0  0  0  0
  125.8940  123.8140   55.7410 C   0  0  0  0  0  0  0  0  0  0  0  0
  126.7950  123.6270   54.6950 C   0  0  0  0  0  0  0  0  0  0  0  0
  127.9850  124.3700   54.6670 C   0  0  0  0  0  0  0  0  0  0  0  0
  128.9740  124.1400   53.5080 C   0  0  0  0  0  0  0  0  0  0  0  0
  128.8980  122.8770   53.0850 F   0  0  0  0  0  0  0  0  0  0  0  0
  128.6820  124.9540   52.4930 F   0  0  0  0  0  0  0  0  0  0  0  0
  130.2420  124.3690   53.8560 F   0  0  0  0  0  0  0  0  0  0  0  0
  128.2280  125.3000   55.7110 C   0  0  0  0  0  0  0  0  0  0  0  0
  129.4810  126.0580   55.7570 C   0  0  0  0  0  0  0  0  0  0  0  0
  130.4710  126.6570   55.7920 N   0  0  0  0  0  0  0  0  0  0  0  0
  127.2440  125.4420   56.7180 C   0  0  0  0  0  0  0  0  0  0  0  0
  127.3780  126.5670   58.0930 S   0  0  0  0  0  0  0  0  0  0  0  0
  126.2700  127.9830   57.7760 C   0  0  0  0  0  0  0  0  0  0  0  0
  126.7210  128.9220   56.6480 C   0  0  0  0  0  0  0  0  0  0  0  0
  125.9800  129.1580   55.6930 O   0  0  0  0  0  0  0  0  0  0  0  0
  127.9670  129.4220   56.8000 N   0  0  0  0  0  0  0  0  0  0  0  0
  128.6820  130.3090   55.9730 C   0  0  0  0  0  0  0  0  0  0  0  0
  128.7340  130.2530   54.5680 C   0  0  0  0  0  0  0  0  0  0  0  0
  129.4800  131.2010   53.8650 C   0  0  0  0  0  0  0  0  0  0  0  0
  130.1540  132.1870   54.5860 C   0  0  0  0  0  0  0  0  0  0  0  0
  130.1140  132.2680   55.9400 N   0  0  0  0  0  0  0  0  0  0  0  0
  129.3840  131.3390   56.6090 C   0  0  0  0  0  0  0  0  0  0  0  0
  126.1110  124.6990   56.7400 N   0  0  0  0  0  0  0  0  0  0  0  0
  1  2  1  0
  2  3  2  0
  3  4  1  0
  4  5  1  0
  5  6  1  0
  5  7  1  0
  5  8  1  0
  4  9  2  0
  9 10  1  0
 10 11  3  0
  9 12  1  0
 12 13  1  0
 13 14  1  0
 14 15  1  0
 15 16  2  0
 15 17  1  0
 17 18  1  0
 18 19  2  0
 19 20  1  0
 20 21  2  0
 21 22  1  0
 22 23  2  0
 12 24  2  0
 24  2  1  0
 23 18  1  0
M  END
>  <Binding energies>  (22) 
[-6.79]

>  <Ligand effiencies>  (22) 
[-0.2716]

>  <Interactions>  (22) 
["V-B:ASP:366:CG:8185, H-A:TYR:539:N:4868, V-A:ILE:538:CG2:4861, V-A:ILE:538:CA:4858, V-A:ILE:538:CB:4860, H-A:TYR:531:OH:4793, V-A:MET:535:CB:4830, V-A:MET:535:CG:4831, V-B:PRO:540:CD:9859, V-B:MET:535:CG:9805, V-B:MET:535:CB:9804, V-B:TYR:539:CZ:9849, V-B:PRO:540:N:9856, V-B:ILE:538:CG2:9835, V-B:ILE:538:CB:9834, V-B:TYR:539:CE1:9847, V-B:ILE:538:CA:9832, V-A:MET:535:CE:4833, V-B:TYR:539:CD1:9845, V-B:VAL:537:C:9822, V-B:TYR:531:CE2:9765, H-B:TYR:531:OH:9767, H-A:TYR:539:OH:4876, V-A:ILE:538:C:4856"]

$$$$
2g_Grossjean_2025
     RDKit          3D

 25 26  0  0  0  0  0  0  0  0999 V2000
  128.6570  122.5220   59.4160 C   0  0  0  0  0  0  0  0  0  0  0  0
  129.2180  123.3080   58.2460 C   0  0  0  0  0  0  0  0  0  0  0  0
  130.4070  124.0250   58.3530 C   0  0  0  0  0  0  0  0  0  0  0  0
  130.8810  124.7420   57.2430 C   0  0  0  0  0  0  0  0  0  0  0  0
  132.1940  125.5380   57.3820 C   0  0  0  0  0  0  0  0  0  0  0  0
  132.9340  125.4040   56.2800 F   0  0  0  0  0  0  0  0  0  0  0  0
  131.9220  126.8300   57.5650 F   0  0  0  0  0  0  0  0  0  0  0  0
  132.9370  125.1310   58.4140 F   0  0  0  0  0  0  0  0  0  0  0  0
  130.1310  124.7050   56.0400 C   0  0  0  0  0  0  0  0  0  0  0  0
  130.5510  125.4810   54.8700 C   0  0  0  0  0  0  0  0  0  0  0  0
  130.8840  126.0950   53.9470 N   0  0  0  0  0  0  0  0  0  0  0  0
  128.9500  123.9240   56.0160 C   0  0  0  0  0  0  0  0  0  0  0  0
  127.9060  123.7460   54.5860 S   0  0  0  0  0  0  0  0  0  0  0  0
  126.2700  124.4330   55.0130 C   0  0  0  0  0  0  0  0  0  0  0  0
  125.5200  123.6680   56.1130 C   0  0  0  0  0  0  0  0  0  0  0  0
  125.6640  122.4530   56.2630 O   0  0  0  0  0  0  0  0  0  0  0  0
  124.7060  124.4140   56.8820 N   0  0  0  0  0  0  0  0  0  0  0  0
  123.8970  123.9140   57.9960 C   0  0  0  0  0  0  0  0  0  0  0  0
  124.5790  124.0010   59.3570 C   0  0  0  0  0  0  0  0  0  0  0  0
  123.8720  123.6550   60.5120 C   0  0  0  0  0  0  0  0  0  0  0  0
  124.5050  123.6980   61.7530 C   0  0  0  0  0  0  0  0  0  0  0  0
  125.8420  124.0760   61.8330 C   0  0  0  0  0  0  0  0  0  0  0  0
  126.5560  124.4090   60.6830 C   0  0  0  0  0  0  0  0  0  0  0  0
  125.9250  124.3670   59.4430 C   0  0  0  0  0  0  0  0  0  0  0  0
  128.4950  123.2560   57.1050 N   0  0  0  0  0  0  0  0  0  0  0  0
  1  2  1  0
  2  3  2  0
  3  4  1  0
  4  5  1  0
  5  6  1  0
  5  7  1  0
  5  8  1  0
  4  9  2  0
  9 10  1  0
 10 11  3  0
  9 12  1  0
 12 13  1  0
 13 14  1  0
 14 15  1  0
 15 16  2  0
 15 17  1  0
 17 18  1  0
 18 19  1  0
 19 20  2  0
 20 21  1  0
 21 22  2  0
 22 23  1  0
 23 24  2  0
 12 25  2  0
 25  2  1  0
 24 19  1  0
M  END
>  <Binding energies>  (23) 
[-7.77]

>  <Ligand effiencies>  (23) 
[-0.2988461538461538]

>  <Interactions>  (23) 
["V-A:TYR:531:CZ:4792, H-A:TYR:531:OH:4793, V-B:TYR:531:CZ:9766, V-B:TYR:539:C:9839, H-B:TYR:539:N:9842, V-B:MET:535:CG:9805, V-B:PRO:540:CB:9857, V-B:PRO:540:CA:9855, V-B:ASN:362:C:8144, V-B:TYR:539:CZ:9849, V-B:PRO:540:N:9856, V-B:ILE:538:CB:9834, V-B:TYR:539:CE1:9847, V-B:ASN:362:CB:8148, V-A:TYR:531:CE1:4790, V-B:TYR:539:CD2:9846, V-B:TYR:539:CD1:9845, V-B:TYR:539:CE2:9848, V-B:TYR:531:CE2:9765, H-B:TYR:531:OH:9767, H-B:ASP:366:OD2:8187, V-B:GLU:543:CD:9880, V-A:ASP:366:CG:3211, V-B:ARG:545:CZ:9898, V-A:ASP:366:CB:3210, V-B:LEU:363:CA:8157, V-A:ASP:366:CA:3208, V-A:ASP:366:C:3206, V-B:ASN:362:CG:8149"]

$$$$
2h_Grossjean_2025
     RDKit          3D

 31 32  0  0  0  0  0  0  0  0999 V2000
  131.9920  132.2450   55.7830 C   0  0  0  0  0  0  0  0  0  0  0  0
  130.5690  132.2670   55.7660 O   0  0  0  0  0  0  0  0  0  0  0  0
  129.8690  131.0890   55.9560 C   0  0  0  0  0  0  0  0  0  0  0  0
  130.2210  130.1130   56.9030 C   0  0  0  0  0  0  0  0  0  0  0  0
  129.4630  128.9540   57.0430 C   0  0  0  0  0  0  0  0  0  0  0  0
  128.3380  128.7420   56.2430 C   0  0  0  0  0  0  0  0  0  0  0  0
  127.5100  127.4720   56.4290 C   0  0  0  0  0  0  0  0  0  0  0  0
  127.5940  126.5460   55.3000 N   0  0  0  0  0  0  0  0  0  0  0  0
  128.7390  126.0880   54.7620 C   0  0  0  0  0  0  0  0  0  0  0  0
  129.8540  126.4720   55.1200 O   0  0  0  0  0  0  0  0  0  0  0  0
  128.5780  125.0310   53.6600 C   0  0  0  0  0  0  0  0  0  0  0  0
  128.3870  123.3180   54.2570 S   0  0  0  0  0  0  0  0  0  0  0  0
  127.3300  123.3870   55.6870 C   0  0  0  0  0  0  0  0  0  0  0  0
  126.0280  123.1240   55.4160 N   0  0  0  0  0  0  0  0  0  0  0  0
  125.1340  123.1680   56.4280 C   0  0  0  0  0  0  0  0  0  0  0  0
  123.6950  122.8710   56.0500 C   0  0  0  0  0  0  0  0  0  0  0  0
  125.4960  123.4650   57.7400 C   0  0  0  0  0  0  0  0  0  0  0  0
  126.8420  123.7190   58.0440 C   0  0  0  0  0  0  0  0  0  0  0  0
  127.2260  124.0380   59.5020 C   0  0  0  0  0  0  0  0  0  0  0  0
  127.7900  125.2440   59.5710 F   0  0  0  0  0  0  0  0  0  0  0  0
  126.1740  124.0410   60.3240 F   0  0  0  0  0  0  0  0  0  0  0  0
  128.0890  123.1300   59.9580 F   0  0  0  0  0  0  0  0  0  0  0  0
  127.7940  123.6700   56.9940 C   0  0  0  0  0  0  0  0  0  0  0  0
  129.2200  123.8700   57.2680 C   0  0  0  0  0  0  0  0  0  0  0  0
  130.3450  124.0240   57.4880 N   0  0  0  0  0  0  0  0  0  0  0  0
  127.9880  129.6970   55.2770 C   0  0  0  0  0  0  0  0  0  0  0  0
  126.8840  129.4940   54.4840 O   0  0  0  0  0  0  0  0  0  0  0  0
  125.6700  129.9920   55.0300 C   0  0  0  0  0  0  0  0  0  0  0  0
  128.7440  130.8750   55.1510 C   0  0  0  0  0  0  0  0  0  0  0  0
  128.3930  131.8220   54.2180 O   0  0  0  0  0  0  0  0  0  0  0  0
  128.5960  131.4150   52.8720 C   0  0  0  0  0  0  0  0  0  0  0  0
  1  2  1  0
  2  3  1  0
  3  4  2  0
  4  5  1  0
  5  6  2  0
  6  7  1  0
  7  8  1  0
  8  9  1  0
  9 10  2  0
  9 11  1  0
 11 12  1  0
 12 13  1  0
 13 14  2  0
 14 15  1  0
 15 16  1  0
 15 17  2  0
 17 18  1  0
 18 19  1  0
 19 20  1  0
 19 21  1  0
 19 22  1  0
 18 23  2  0
 23 24  1  0
 24 25  3  0
  6 26  1  0
 26 27  1  0
 27 28  1  0
 26 29  2  0
 29 30  1  0
 30 31  1  0
 29  3  1  0
 23 13  1  0
M  END
>  <Binding energies>  (24) 
[-7.19]

>  <Ligand effiencies>  (24) 
[-0.2246875]

>  <Interactions>  (24) 
["V-A:PRO:540:CD:4885, V-A:PRO:540:N:4882, H-A:TYR:539:N:4868, V-A:TYR:539:CZ:4875, V-A:ILE:538:CG2:4861, V-A:ILE:538:CA:4858, V-A:ILE:538:CB:4860, H-A:TYR:531:OH:4793, V-A:MET:535:CB:4830, V-A:MET:535:CG:4831, V-B:TYR:531:CZ:9766, V-B:TYR:531:CE1:9764, V-B:TYR:539:C:9839, H-B:TYR:539:N:9842, V-B:PRO:540:CD:9859, V-B:MET:535:CG:9805, V-B:PRO:540:CB:9857, V-B:PRO:540:CA:9855, V-B:TYR:539:CZ:9849, V-B:PRO:540:N:9856, V-B:ILE:538:CG2:9835, V-B:ILE:538:CB:9834, V-B:ILE:538:CA:9832, V-B:TYR:539:CD2:9846, H-B:TYR:539:OH:9850, V-B:TYR:539:CE2:9848, V-B:LEU:363:CD1:8161, V-B:TYR:531:CE2:9765, H-B:MET:535:SD:9806, H-B:TYR:531:OH:9767, V-B:PRO:540:CG:9858, V-B:ILE:538:CD1:9837"]

$$$$
2i_Grossjean_2025
     RDKit          3D

 23 24  0  0  0  0  0  0  0  0999 V2000
  132.4860  131.1220   62.1210 C   0  0  0  0  0  0  0  0  0  0  0  0
  131.9350  131.3580   60.7270 C   0  0  0  0  0  0  0  0  0  0  0  0
  132.7200  131.1710   59.5910 C   0  0  0  0  0  0  0  0  0  0  0  0
  132.1640  131.4000   58.3240 C   0  0  0  0  0  0  0  0  0  0  0  0
  133.0460  131.1900   57.0790 C   0  0  0  0  0  0  0  0  0  0  0  0
  132.3020  130.7490   56.0630 F   0  0  0  0  0  0  0  0  0  0  0  0
  133.6210  132.3400   56.7260 F   0  0  0  0  0  0  0  0  0  0  0  0
  134.0200  130.3000   57.2800 F   0  0  0  0  0  0  0  0  0  0  0  0
  130.8100  131.8170   58.2440 C   0  0  0  0  0  0  0  0  0  0  0  0
  130.1780  132.0690   56.9450 C   0  0  0  0  0  0  0  0  0  0  0  0
  129.6790  132.2690   55.9200 N   0  0  0  0  0  0  0  0  0  0  0  0
  130.0880  131.9840   59.4480 C   0  0  0  0  0  0  0  0  0  0  0  0
  128.3820  132.5120   59.4700 S   0  0  0  0  0  0  0  0  0  0  0  0
  127.3390  131.0440   59.7190 C   0  0  0  0  0  0  0  0  0  0  0  0
  126.6070  130.6290   58.4410 C   0  0  0  0  0  0  0  0  0  0  0  0
  125.4150  130.3220   58.5070 O   0  0  0  0  0  0  0  0  0  0  0  0
  127.3540  130.6070   57.3160 N   0  0  0  0  0  0  0  0  0  0  0  0
  126.9270  130.2520   56.0470 C   0  0  0  0  0  0  0  0  0  0  0  0
  127.3220  130.7390   54.7930 C   0  0  0  0  0  0  0  0  0  0  0  0
  126.5720  130.0230   53.8880 C   0  0  0  0  0  0  0  0  0  0  0  0
  125.7800  129.1530   54.5590 O   0  0  0  0  0  0  0  0  0  0  0  0
  126.0210  129.3070   55.9260 N   0  0  0  0  0  0  0  0  0  0  0  0
  130.6450  131.7550   60.6650 N   0  0  0  0  0  0  0  0  0  0  0  0
  1  2  1  0
  2  3  2  0
  3  4  1  0
  4  5  1  0
  5  6  1  0
  5  7  1  0
  5  8  1  0
  4  9  2  0
  9 10  1  0
 10 11  3  0
  9 12  1  0
 12 13  1  0
 13 14  1  0
 14 15  1  0
 15 16  2  0
 15 17  1  0
 17 18  1  0
 18 19  1  0
 19 20  2  0
 20 21  1  0
 21 22  1  0
 12 23  2  0
 23  2  1  0
 22 18  2  0
M  END
>  <Binding energies>  (25) 
[-6.88]

>  <Ligand effiencies>  (25) 
[-0.2866666666666667]

>  <Interactions>  (25) 
["V-A:TYR:531:CE2:4791, V-A:PRO:540:CD:4885, V-A:PRO:540:N:4882, H-A:TYR:539:N:4868, V-A:TYR:539:CE1:4873, V-A:TYR:539:CZ:4875, V-A:PRO:540:CB:4883, V-A:LEU:363:CD1:3187, V-A:TYR:531:CZ:4792, V-A:LEU:363:CA:3183, V-B:MET:535:CE:9807, V-A:PRO:540:CG:4884, V-A:PRO:540:CA:4881, V-B:TYR:531:CE1:9764, V-A:GLU:543:CD:4906, H-B:TYR:531:OH:9767, V-A:TYR:539:C:4865, V-A:TYR:539:CE2:4874, V-A:ASP:366:CG:3211, H-A:ALA:541:N:4889, V-A:ASN:362:CB:3174, H-A:TYR:539:OH:4876, V-A:ARG:545:CZ:4924, V-A:ASP:366:CB:3210, V-A:LEU:363:CB:3185, V-A:ALA:541:C:4886, V-A:PRO:540:C:4879"]

$$$$
2k_Grossjean_2025
     RDKit          3D

 28 28  0  0  0  0  0  0  0  0999 V2000
  129.7460  132.2450   56.9420 C   0  0  0  0  0  0  0  0  0  0  0  0
  130.4220  132.6150   55.7500 O   0  0  0  0  0  0  0  0  0  0  0  0
  130.5940  131.5360   54.8390 C   0  0  0  0  0  0  0  0  0  0  0  0
  129.4430  131.5260   53.8250 C   0  0  0  0  0  0  0  0  0  0  0  0
  128.2480  131.1350   54.4860 O   0  0  0  0  0  0  0  0  0  0  0  0
  127.3990  130.2970   53.7100 C   0  0  0  0  0  0  0  0  0  0  0  0
  126.1310  130.0060   54.5230 C   0  0  0  0  0  0  0  0  0  0  0  0
  126.3740  128.8510   55.3100 O   0  0  0  0  0  0  0  0  0  0  0  0
  127.2600  129.0400   56.4040 C   0  0  0  0  0  0  0  0  0  0  0  0
  128.5060  128.1590   56.1970 C   0  0  0  0  0  0  0  0  0  0  0  0
  128.3100  127.1220   55.1810 N   0  0  0  0  0  0  0  0  0  0  0  0
  129.2750  126.3330   54.6710 C   0  0  0  0  0  0  0  0  0  0  0  0
  130.4520  126.3810   55.0340 O   0  0  0  0  0  0  0  0  0  0  0  0
  128.8280  125.3610   53.5690 C   0  0  0  0  0  0  0  0  0  0  0  0
  128.6200  123.6240   54.0960 S   0  0  0  0  0  0  0  0  0  0  0  0
  127.5040  123.5560   55.4910 C   0  0  0  0  0  0  0  0  0  0  0  0
  126.2120  123.2640   55.1970 N   0  0  0  0  0  0  0  0  0  0  0  0
  125.3110  123.2000   56.2030 C   0  0  0  0  0  0  0  0  0  0  0  0
  123.8870  122.8800   55.7920 C   0  0  0  0  0  0  0  0  0  0  0  0
  125.6570  123.4100   57.5350 C   0  0  0  0  0  0  0  0  0  0  0  0
  126.9890  123.7060   57.8630 C   0  0  0  0  0  0  0  0  0  0  0  0
  127.3560  123.9310   59.3430 C   0  0  0  0  0  0  0  0  0  0  0  0
  128.2730  123.0680   59.7850 F   0  0  0  0  0  0  0  0  0  0  0  0
  127.8470  125.1590   59.5100 F   0  0  0  0  0  0  0  0  0  0  0  0
  126.2720  123.7910   60.1080 F   0  0  0  0  0  0  0  0  0  0  0  0
  127.9430  123.7840   56.8170 C   0  0  0  0  0  0  0  0  0  0  0  0
  129.3480  124.0920   57.1020 C   0  0  0  0  0  0  0  0  0  0  0  0
  130.4570  124.3360   57.3270 N   0  0  0  0  0  0  0  0  0  0  0  0
  1  2  1  0
  2  3  1  0
  3  4  1  0
  4  5  1  0
  5  6  1  0
  6  7  1  0
  7  8  1  0
  8  9  1  0
  9 10  1  0
 10 11  1  0
 11 12  1  0
 12 13  2  0
 12 14  1  0
 14 15  1  0
 15 16  1  0
 16 17  2  0
 17 18  1  0
 18 19  1  0
 18 20  2  0
 20 21  1  0
 21 22  1  0
 22 23  1  0
 22 24  1  0
 22 25  1  0
 21 26  2  0
 26 27  1  0
 27 28  3  0
 26 16  1  0
M  END
>  <Binding energies>  (26) 
[-6.69]

>  <Ligand effiencies>  (26) 
[-0.2306896551724138]

>  <Interactions>  (26) 
["V-A:PRO:540:N:4882, H-A:TYR:539:N:4868, V-A:TYR:539:CZ:4875, V-A:ILE:538:CG2:4861, V-A:ILE:538:CA:4858, V-A:ILE:538:CB:4860, V-B:MET:535:CE:9807, H-A:TYR:531:OH:4793, V-A:MET:535:CB:4830, V-A:MET:535:CG:4831, V-B:TYR:531:CE1:9764, V-B:TYR:539:C:9839, H-B:TYR:539:N:9842, V-B:PRO:540:CD:9859, V-B:PRO:540:CB:9857, V-B:PRO:540:CA:9855, V-B:TYR:539:CZ:9849, V-B:PRO:540:N:9856, V-B:ILE:538:CG2:9835, V-B:ILE:538:CB:9834, V-A:MET:535:CE:4833, V-B:TYR:539:CD2:9846, H-B:TYR:539:OH:9850, V-B:TYR:539:CE2:9848, V-B:LEU:363:CD1:8161, V-B:TYR:531:CE2:9765, H-B:MET:535:SD:9806, H-B:TYR:531:OH:9767, V-A:TYR:539:C:4865, V-A:TYR:539:CA:4867, V-B:PRO:540:C:9853, V-B:PRO:540:CG:9858, V-B:ILE:538:CD1:9837"]

$$$$
3aa_Grossjean_2025
     RDKit          3D

 34 36  0  0  0  0  0  0  0  0999 V2000
  126.6890  123.7810   58.5890 C   0  0  0  0  0  0  0  0  0  0  0  0
  127.9610  123.0410   58.1640 C   0  0  0  0  0  0  0  0  0  0  0  0
  127.7880  122.5120   56.8550 O   0  0  0  0  0  0  0  0  0  0  0  0
  127.2090  123.2510   55.8740 C   0  0  0  0  0  0  0  0  0  0  0  0
  126.2370  122.8660   55.2170 O   0  0  0  0  0  0  0  0  0  0  0  0
  127.8790  124.5770   55.6550 C   0  0  0  0  0  0  0  0  0  0  0  0
  129.2730  124.6990   55.5600 C   0  0  0  0  0  0  0  0  0  0  0  0
  129.8610  125.9440   55.3520 C   0  0  0  0  0  0  0  0  0  0  0  0
  129.0710  127.0880   55.2290 C   0  0  0  0  0  0  0  0  0  0  0  0
  129.7660  128.2960   55.0160 N   0  0  0  0  0  0  0  0  0  0  0  0
  129.4340  129.5550   55.3780 C   0  0  0  0  0  0  0  0  0  0  0  0
  128.4020  129.8800   55.9660 O   0  0  0  0  0  0  0  0  0  0  0  0
  130.4440  130.6380   54.9970 C   0  0  0  0  0  0  0  0  0  0  0  0
  130.0070  132.2510   55.7140 S   0  0  0  0  0  0  0  0  0  0  0  0
  129.9710  132.0430   57.4800 C   0  0  0  0  0  0  0  0  0  0  0  0
  128.7920  132.3980   58.0450 N   0  0  0  0  0  0  0  0  0  0  0  0
  128.6310  132.2910   59.3890 C   0  0  0  0  0  0  0  0  0  0  0  0
  127.2930  132.6890   59.9370 C   0  0  0  0  0  0  0  0  0  0  0  0
  127.1350  133.9020   60.6250 C   0  0  0  0  0  0  0  0  0  0  0  0
  125.8950  134.2790   61.1350 C   0  0  0  0  0  0  0  0  0  0  0  0
  124.7960  133.4460   60.9640 C   0  0  0  0  0  0  0  0  0  0  0  0
  124.9260  132.2390   60.2840 C   0  0  0  0  0  0  0  0  0  0  0  0
  126.1660  131.8660   59.7720 C   0  0  0  0  0  0  0  0  0  0  0  0
  129.6640  131.8110   60.2010 C   0  0  0  0  0  0  0  0  0  0  0  0
  130.9000  131.4540   59.6410 C   0  0  0  0  0  0  0  0  0  0  0  0
  132.0160  130.9410   60.5690 C   0  0  0  0  0  0  0  0  0  0  0  0
  133.2370  131.2740   60.1450 F   0  0  0  0  0  0  0  0  0  0  0  0
  131.8670  131.4490   61.7930 F   0  0  0  0  0  0  0  0  0  0  0  0
  131.9670  129.6100   60.6460 F   0  0  0  0  0  0  0  0  0  0  0  0
  131.0690  131.5830   58.2400 C   0  0  0  0  0  0  0  0  0  0  0  0
  132.3560  131.2800   57.6080 C   0  0  0  0  0  0  0  0  0  0  0  0
  133.3730  131.0410   57.1090 N   0  0  0  0  0  0  0  0  0  0  0  0
  127.6770  126.9760   55.3360 C   0  0  0  0  0  0  0  0  0  0  0  0
  127.0920  125.7310   55.5460 C   0  0  0  0  0  0  0  0  0  0  0  0
  1  2  1  0
  2  3  1  0
  3  4  1  0
  4  5  2  0
  4  6  1  0
  6  7  2  0
  7  8  1  0
  8  9  2  0
  9 10  1  0
 10 11  1  0
 11 12  2  0
 11 13  1  0
 13 14  1  0
 14 15  1  0
 15 16  2  0
 16 17  1  0
 17 18  1  0
 18 19  2  0
 19 20  1  0
 20 21  2  0
 21 22  1  0
 22 23  2  0
 17 24  2  0
 24 25  1  0
 25 26  1  0
 26 27  1  0
 26 28  1  0
 26 29  1  0
 25 30  2  0
 30 31  1  0
 31 32  3  0
  9 33  1  0
 33 34  2  0
 34  6  1  0
 30 15  1  0
 23 18  1  0
M  END
>  <Binding energies>  (27) 
[-9.05]

>  <Ligand effiencies>  (27) 
[-0.2585714285714286]

>  <Interactions>  (27) 
["V-A:PRO:540:N:4882, H-A:TYR:539:N:4868, V-A:PRO:540:CB:4883, V-A:TYR:531:CZ:4792, H-A:TYR:531:OH:4793, V-A:MET:535:CG:4831, V-A:PRO:540:CA:4881, V-B:TYR:539:C:9839, H-B:TYR:539:N:9842, V-B:PRO:540:CA:9855, V-B:TYR:539:CZ:9849, V-B:PRO:540:N:9856, V-B:TYR:539:CE1:9847, V-B:ILE:538:CA:9832, V-B:TYR:539:CD2:9846, V-A:GLU:543:CD:4906, V-A:TYR:539:C:4865, V-A:TYR:539:CE2:4874, V-A:ASP:366:CG:3211, V-A:ASN:362:C:3170, V-A:ASN:362:CB:3174, V-A:TYR:539:CD2:4872, V-B:ILE:369:CG2:8209, V-B:TRP:381:CH2:8344, V-B:LEU:475:CD2:9231, V-A:ALA:541:CB:4890, V-A:ARG:545:CZ:4924, V-A:ALA:541:C:4886, V-A:PRO:540:C:4879, H-A:MET:535:SD:4832, V-A:ALA:541:CA:4888"]

$$$$
3ad_Grossjean_2025
     RDKit          3D

 29 31  0  0  0  0  0  0  0  0999 V2000
  133.8960  127.2740   74.2880 N   0  0  0  0  0  0  0  0  0  0  0  0
  133.1560  126.3990   74.1240 C   0  0  0  0  0  0  0  0  0  0  0  0
  132.2220  125.2880   73.9190 C   0  0  0  0  0  0  0  0  0  0  0  0
  132.4880  124.0080   74.4640 C   0  0  0  0  0  0  0  0  0  0  0  0
  133.7280  123.7130   75.3290 C   0  0  0  0  0  0  0  0  0  0  0  0
  134.0760  122.4250   75.3140 F   0  0  0  0  0  0  0  0  0  0  0  0
  134.7700  124.4170   74.8850 F   0  0  0  0  0  0  0  0  0  0  0  0
  133.4910  124.0460   76.5990 F   0  0  0  0  0  0  0  0  0  0  0  0
  131.5850  122.9670   74.1990 C   0  0  0  0  0  0  0  0  0  0  0  0
  130.4520  123.1950   73.4110 C   0  0  0  0  0  0  0  0  0  0  0  0
  129.4640  122.1150   73.0850 C   0  0  0  0  0  0  0  0  0  0  0  0
  129.0110  121.9320   71.7690 C   0  0  0  0  0  0  0  0  0  0  0  0
  128.0940  120.9310   71.4590 C   0  0  0  0  0  0  0  0  0  0  0  0
  127.6170  120.0970   72.4650 C   0  0  0  0  0  0  0  0  0  0  0  0
  128.0520  120.2560   73.7760 C   0  0  0  0  0  0  0  0  0  0  0  0
  128.9690  121.2580   74.0820 C   0  0  0  0  0  0  0  0  0  0  0  0
  130.2050  124.4220   72.8860 N   0  0  0  0  0  0  0  0  0  0  0  0
  131.0510  125.4480   73.1450 C   0  0  0  0  0  0  0  0  0  0  0  0
  130.5650  126.9820   72.3870 S   0  0  0  0  0  0  0  0  0  0  0  0
  128.7510  126.9690   72.2580 C   0  0  0  0  0  0  0  0  0  0  0  0
  128.1190  128.2220   72.8680 C   0  0  0  0  0  0  0  0  0  0  0  0
  128.6530  129.3150   72.6770 O   0  0  0  0  0  0  0  0  0  0  0  0
  126.9960  128.0130   73.5870 N   0  0  0  0  0  0  0  0  0  0  0  0
  126.1720  128.9340   74.2600 C   0  0  0  0  0  0  0  0  0  0  0  0
  126.7840  130.1360   74.6300 C   0  0  0  0  0  0  0  0  0  0  0  0
  126.0590  131.1150   75.3040 C   0  0  0  0  0  0  0  0  0  0  0  0
  124.7210  130.8930   75.6130 C   0  0  0  0  0  0  0  0  0  0  0  0
  124.1010  129.6980   75.2570 C   0  0  0  0  0  0  0  0  0  0  0  0
  124.8220  128.7160   74.5830 C   0  0  0  0  0  0  0  0  0  0  0  0
  1  2  3  0
  2  3  1  0
  3  4  2  0
  4  5  1  0
  5  6  1  0
  5  7  1  0
  5  8  1  0
  4  9  1  0
  9 10  2  0
 10 11  1  0
 11 12  2  0
 12 13  1  0
 13 14  2  0
 14 15  1  0
 15 16  2  0
 10 17  1  0
 17 18  2  0
 18 19  1  0
 19 20  1  0
 20 21  1  0
 21 22  2  0
 21 23  1  0
 23 24  1  0
 24 25  2  0
 25 26  1  0
 26 27  2  0
 27 28  1  0
 28 29  2  0
 18  3  1  0
 29 24  1  0
 16 11  1  0
M  END
>  <Binding energies>  (28) 
[-9.37]

>  <Ligand effiencies>  (28) 
[-0.3123333333333333]

>  <Interactions>  (28) 
["V-A:VAL:458:CG2:4085, V-A:HIS:456:CD2:4066, V-B:GLY:544:CA:9886, V-B:GLU:543:C:9874, H-B:LYS:547:NZ:9923, V-A:LYS:547:CD:4947, V-B:LYS:547:CE:9922, V-A:LYS:471:CD:4217, H-A:LYS:547:NZ:4949, V-B:GLY:544:C:9884, V-B:LYS:471:CD:9191, V-B:HIS:456:CD2:9040, H-B:GLY:544:O:9885, V-B:VAL:458:CG2:9059, V-A:ASP:473:CG:4238, V-A:HIS:456:CB:4063, V-A:TYR:484:CB:4339, V-A:HIS:456:CG:4064, V-B:LYS:471:CE:9192, V-A:LYS:471:CE:4218, V-B:HIS:456:CG:9038, V-B:HIS:456:CB:9037, V-B:VAL:457:C:9045, V-B:HIS:456:C:9033, V-A:ASP:473:CB:4237, V-A:TYR:484:CG:4340, V-A:VAL:457:C:4071, V-A:HIS:456:C:4059, V-A:LYS:471:CG:4216, V-B:GLU:543:CA:9876, V-B:ASP:473:CG:9212, V-B:LYS:471:CG:9190, V-B:HIS:456:CA:9035, V-A:HIS:456:CA:4061, V-B:VAL:457:CA:9047, V-A:LYS:471:CB:4215, V-A:VAL:457:CA:4073"]

$$$$
3ai_Grossjean_2025
     RDKit          3D

 28 30  0  0  0  0  0  0  0  0999 V2000
  134.2010  124.0130   57.6160 N   0  0  0  0  0  0  0  0  0  0  0  0
  133.1230  124.0070   58.0370 C   0  0  0  0  0  0  0  0  0  0  0  0
  131.7580  124.0000   58.5720 C   0  0  0  0  0  0  0  0  0  0  0  0
  131.3960  123.1180   59.6200 C   0  0  0  0  0  0  0  0  0  0  0  0
  132.4020  122.1600   60.2860 C   0  0  0  0  0  0  0  0  0  0  0  0
  132.9180  121.2750   59.4300 F   0  0  0  0  0  0  0  0  0  0  0  0
  133.4160  122.8550   60.8060 F   0  0  0  0  0  0  0  0  0  0  0  0
  131.8050  121.4720   61.2590 F   0  0  0  0  0  0  0  0  0  0  0  0
  130.0650  123.1160   60.0640 C   0  0  0  0  0  0  0  0  0  0  0  0
  129.1220  123.9660   59.4780 C   0  0  0  0  0  0  0  0  0  0  0  0
  127.6850  123.9970   59.9050 C   0  0  0  0  0  0  0  0  0  0  0  0
  126.6550  124.0320   58.9520 C   0  0  0  0  0  0  0  0  0  0  0  0
  125.3190  124.0560   59.3410 C   0  0  0  0  0  0  0  0  0  0  0  0
  124.9930  124.0450   60.6930 C   0  0  0  0  0  0  0  0  0  0  0  0
  125.9950  124.0080   61.6570 C   0  0  0  0  0  0  0  0  0  0  0  0
  127.3300  123.9830   61.2650 C   0  0  0  0  0  0  0  0  0  0  0  0
  129.4710  124.8030   58.4680 N   0  0  0  0  0  0  0  0  0  0  0  0
  130.7560  124.8410   58.0380 C   0  0  0  0  0  0  0  0  0  0  0  0
  131.0300  126.0130   56.7260 S   0  0  0  0  0  0  0  0  0  0  0  0
  130.8640  125.1260   55.1400 C   0  0  0  0  0  0  0  0  0  0  0  0
  129.4320  124.7010   54.7810 C   0  0  0  0  0  0  0  0  0  0  0  0
  129.0010  124.8420   53.6340 O   0  0  0  0  0  0  0  0  0  0  0  0
  128.7240  124.1800   55.8080 N   0  0  0  0  0  0  0  0  0  0  0  0
  127.4180  123.7090   55.7770 C   0  0  0  0  0  0  0  0  0  0  0  0
  126.3710  124.4060   55.1760 C   0  0  0  0  0  0  0  0  0  0  0  0
  125.2610  123.6160   55.3610 C   0  0  0  0  0  0  0  0  0  0  0  0
  125.6200  122.4990   56.0380 O   0  0  0  0  0  0  0  0  0  0  0  0
  126.9900  122.5700   56.2950 N   0  0  0  0  0  0  0  0  0  0  0  0
  1  2  3  0
  2  3  1  0
  3  4  2  0
  4  5  1  0
  5  6  1  0
  5  7  1  0
  5  8  1  0
  4  9  1  0
  9 10  2  0
 10 11  1  0
 11 12  2  0
 12 13  1  0
 13 14  2  0
 14 15  1  0
 15 16  2  0
 10 17  1  0
 17 18  2  0
 18 19  1  0
 19 20  1  0
 20 21  1  0
 21 22  2  0
 21 23  1  0
 23 24  1  0
 24 25  1  0
 25 26  2  0
 26 27  1  0
 27 28  1  0
 18  3  1  0
 28 24  2  0
 16 11  1  0
M  END
>  <Binding energies>  (29) 
[-8.09]

>  <Ligand effiencies>  (29) 
[-0.2789655172413793]

>  <Interactions>  (29) 
["H-A:TYR:531:OH:4793, V-B:TYR:531:CZ:9766, H-B:TYR:539:N:9842, V-B:PRO:540:CB:9857, V-B:PRO:540:CA:9855, V-B:TYR:539:CZ:9849, V-B:ILE:538:CG2:9835, V-B:ILE:538:CB:9834, V-B:TYR:539:CE1:9847, V-B:ILE:538:CA:9832, V-B:TYR:539:CD2:9846, H-B:TYR:539:OH:9850, V-B:TYR:539:CE2:9848, V-B:TYR:531:CE2:9765, V-B:GLU:543:CD:9880, V-A:ASP:366:CG:3211, V-A:ILE:369:CD1:3237, V-A:TRP:381:CH2:3370, V-A:ILE:369:CG2:3235, V-A:ASP:366:CB:3210, V-A:LEU:475:CD2:4257"]

$$$$
3aj_Grossjean_2025
     RDKit          3D

 28 30  0  0  0  0  0  0  0  0999 V2000
  133.7440  127.3310   74.2370 N   0  0  0  0  0  0  0  0  0  0  0  0
  132.9940  126.4650   74.0770 C   0  0  0  0  0  0  0  0  0  0  0  0
  132.0440  125.3660   73.8760 C   0  0  0  0  0  0  0  0  0  0  0  0
  132.2500  124.1090   74.4960 C   0  0  0  0  0  0  0  0  0  0  0  0
  133.4370  123.8310   75.4390 C   0  0  0  0  0  0  0  0  0  0  0  0
  133.6720  122.5270   75.6040 F   0  0  0  0  0  0  0  0  0  0  0  0
  134.5470  124.3830   74.9500 F   0  0  0  0  0  0  0  0  0  0  0  0
  133.1920  124.3470   76.6440 F   0  0  0  0  0  0  0  0  0  0  0  0
  131.3380  123.0750   74.2330 C   0  0  0  0  0  0  0  0  0  0  0  0
  130.2550  123.2880   73.3740 C   0  0  0  0  0  0  0  0  0  0  0  0
  129.2580  122.2170   73.0520 C   0  0  0  0  0  0  0  0  0  0  0  0
  129.0070  121.8500   71.7210 C   0  0  0  0  0  0  0  0  0  0  0  0
  128.0840  120.8520   71.4150 C   0  0  0  0  0  0  0  0  0  0  0  0
  127.3990  120.2070   72.4400 C   0  0  0  0  0  0  0  0  0  0  0  0
  127.6310  120.5530   73.7670 C   0  0  0  0  0  0  0  0  0  0  0  0
  128.5550  121.5490   74.0690 C   0  0  0  0  0  0  0  0  0  0  0  0
  130.0670  124.4920   72.7760 N   0  0  0  0  0  0  0  0  0  0  0  0
  130.9190  125.5130   73.0320 C   0  0  0  0  0  0  0  0  0  0  0  0
  130.5020  127.0180   72.1790 S   0  0  0  0  0  0  0  0  0  0  0  0
  128.6820  127.1610   72.1550 C   0  0  0  0  0  0  0  0  0  0  0  0
  128.1150  128.3640   72.9230 C   0  0  0  0  0  0  0  0  0  0  0  0
  128.7020  129.4490   72.9190 O   0  0  0  0  0  0  0  0  0  0  0  0
  126.9550  128.1230   73.5730 N   0  0  0  0  0  0  0  0  0  0  0  0
  126.2260  129.0280   74.3320 C   0  0  0  0  0  0  0  0  0  0  0  0
  126.6510  130.1430   74.8870 N   0  0  0  0  0  0  0  0  0  0  0  0
  125.6840  130.7620   75.5360 C   0  0  0  0  0  0  0  0  0  0  0  0
  124.4370  130.1440   75.5160 C   0  0  0  0  0  0  0  0  0  0  0  0
  124.5490  128.6740   74.5970 S   0  0  0  0  0  0  0  0  0  0  0  0
  1  2  3  0
  2  3  1  0
  3  4  2  0
  4  5  1  0
  5  6  1  0
  5  7  1  0
  5  8  1  0
  4  9  1  0
  9 10  2  0
 10 11  1  0
 11 12  2  0
 12 13  1  0
 13 14  2  0
 14 15  1  0
 15 16  2  0
 10 17  1  0
 17 18  2  0
 18 19  1  0
 19 20  1  0
 20 21  1  0
 21 22  2  0
 21 23  1  0
 23 24  1  0
 24 25  2  0
 25 26  1  0
 26 27  2  0
 27 28  1  0
 18  3  1  0
 28 24  1  0
 16 11  1  0
M  END
>  <Binding energies>  (30) 
[-8.92]

>  <Ligand effiencies>  (30) 
[-0.3075862068965517]

>  <Interactions>  (30) 
["V-A:VAL:458:CG2:4085, V-A:HIS:456:CD2:4066, V-B:GLY:544:CA:9886, V-B:GLU:543:C:9874, H-B:LYS:547:NZ:9923, V-A:LYS:547:CE:4948, V-A:LYS:547:CD:4947, V-B:LYS:547:CE:9922, V-A:LYS:471:CD:4217, H-A:LYS:547:NZ:4949, V-B:GLY:544:C:9884, V-B:LYS:471:CD:9191, V-B:HIS:456:CD2:9040, H-B:GLY:544:O:9885, V-B:VAL:458:CG2:9059, V-A:ASP:473:CG:4238, V-A:HIS:456:CB:4063, V-A:TYR:484:CB:4339, V-A:HIS:456:CG:4064, V-B:LYS:471:CE:9192, V-A:LYS:471:CE:4218, V-B:HIS:456:CG:9038, V-B:HIS:456:CB:9037, V-B:VAL:457:C:9045, V-B:HIS:456:C:9033, V-A:ASP:473:CB:4237, V-A:TYR:484:CG:4340, V-A:VAL:457:C:4071, V-A:HIS:456:C:4059, V-A:LYS:471:CG:4216, V-B:GLU:543:CA:9876, V-A:TYR:484:CD1:4341, V-B:HIS:456:CA:9035, V-A:HIS:456:CA:4061, V-A:VAL:457:CA:4073"]

$$$$
3ak_Grossjean_2025
     RDKit          3D

 33 34  0  0  0  0  0  0  0  0999 V2000
  129.4200  132.2540   56.7420 C   0  0  0  0  0  0  0  0  0  0  0  0
  130.4000  132.3340   55.7180 O   0  0  0  0  0  0  0  0  0  0  0  0
  130.0390  131.6380   54.5340 C   0  0  0  0  0  0  0  0  0  0  0  0
  128.5790  131.9610   54.1900 C   0  0  0  0  0  0  0  0  0  0  0  0
  127.9930  130.8310   53.5530 O   0  0  0  0  0  0  0  0  0  0  0  0
  126.5740  130.7360   53.6520 C   0  0  0  0  0  0  0  0  0  0  0  0
  126.0880  129.9920   54.9090 C   0  0  0  0  0  0  0  0  0  0  0  0
  126.7380  128.7310   54.9860 O   0  0  0  0  0  0  0  0  0  0  0  0
  127.8430  128.7050   55.8800 C   0  0  0  0  0  0  0  0  0  0  0  0
  128.6670  127.4230   55.6690 C   0  0  0  0  0  0  0  0  0  0  0  0
  127.9140  126.3400   55.0330 N   0  0  0  0  0  0  0  0  0  0  0  0
  128.4310  125.1900   54.5590 C   0  0  0  0  0  0  0  0  0  0  0  0
  129.6300  124.9190   54.6310 O   0  0  0  0  0  0  0  0  0  0  0  0
  127.4870  124.1710   53.8980 C   0  0  0  0  0  0  0  0  0  0  0  0
  126.3390  123.2790   55.0110 S   0  0  0  0  0  0  0  0  0  0  0  0
  126.8180  123.5950   56.7020 C   0  0  0  0  0  0  0  0  0  0  0  0
  128.1520  123.6730   56.9290 N   0  0  0  0  0  0  0  0  0  0  0  0
  128.6160  123.9040   58.1830 C   0  0  0  0  0  0  0  0  0  0  0  0
  130.1050  123.9750   58.3430 C   0  0  0  0  0  0  0  0  0  0  0  0
  130.8820  124.7650   57.4810 C   0  0  0  0  0  0  0  0  0  0  0  0
  132.2650  124.8380   57.6270 C   0  0  0  0  0  0  0  0  0  0  0  0
  132.8910  124.1210   58.6400 C   0  0  0  0  0  0  0  0  0  0  0  0
  132.1450  123.3330   59.5090 C   0  0  0  0  0  0  0  0  0  0  0  0
  130.7620  123.2620   59.3610 C   0  0  0  0  0  0  0  0  0  0  0  0
  127.7310  124.0810   59.2530 C   0  0  0  0  0  0  0  0  0  0  0  0
  126.3460  124.0070   59.0460 C   0  0  0  0  0  0  0  0  0  0  0  0
  125.4030  124.2050   60.2490 C   0  0  0  0  0  0  0  0  0  0  0  0
  125.6160  125.3980   60.8040 F   0  0  0  0  0  0  0  0  0  0  0  0
  124.1320  124.1340   59.8500 F   0  0  0  0  0  0  0  0  0  0  0  0
  125.5750  123.2840   61.1990 F   0  0  0  0  0  0  0  0  0  0  0  0
  125.8700  123.7560   57.7360 C   0  0  0  0  0  0  0  0  0  0  0  0
  124.4320  123.6680   57.4610 C   0  0  0  0  0  0  0  0  0  0  0  0
  123.2970  123.5980   57.2430 N   0  0  0  0  0  0  0  0  0  0  0  0
  1  2  1  0
  2  3  1  0
  3  4  1  0
  4  5  1  0
  5  6  1  0
  6  7  1  0
  7  8  1  0
  8  9  1  0
  9 10  1  0
 10 11  1  0
 11 12  1  0
 12 13  2  0
 12 14  1  0
 14 15  1  0
 15 16  1  0
 16 17  2  0
 17 18  1  0
 18 19  1  0
 19 20  2  0
 20 21  1  0
 21 22  2  0
 22 23  1  0
 23 24  2  0
 18 25  2  0
 25 26  1  0
 26 27  1  0
 27 28  1  0
 27 29  1  0
 27 30  1  0
 26 31  2  0
 31 32  1  0
 32 33  3  0
 31 16  1  0
 24 19  1  0
M  END
>  <Binding energies>  (31) 
[-7.32]

>  <Ligand effiencies>  (31) 
[-0.21529411764705883]

>  <Interactions>  (31) 
["V-B:ASP:366:CG:8185, V-A:PRO:540:N:4882, H-A:TYR:539:N:4868, V-A:TYR:539:CE1:4873, V-A:TYR:539:CZ:4875, V-A:ILE:538:CG2:4861, V-A:ILE:538:CA:4858, V-A:ILE:538:CB:4860, V-B:MET:535:CE:9807, V-B:TYR:531:CE1:9764, H-B:TYR:539:N:9842, V-B:PRO:540:CD:9859, V-B:MET:535:CG:9805, V-B:MET:535:CB:9804, V-B:PRO:540:CB:9857, V-B:PRO:540:CA:9855, V-B:ASN:362:C:8144, V-B:TYR:539:CZ:9849, V-B:PRO:540:N:9856, V-B:ILE:538:CA:9832, V-B:TYR:539:CD2:9846, H-B:TYR:539:OH:9850, V-B:TYR:539:CE2:9848, H-B:MET:535:SD:9806, H-B:TYR:531:OH:9767, V-A:TYR:539:C:4865, V-A:TYR:539:CA:4867, V-A:ASP:366:CG:3211, V-B:ARG:545:CZ:9898, V-A:TYR:539:CD1:4871, V-B:PRO:540:C:9853, V-A:TYR:539:CD2:4872, V-A:TYR:539:CG:4870, V-A:ASP:366:CB:3210, V-B:ALA:541:CA:9862"]

$$$$
3bk_Grossjean_2025
     RDKit          3D

 30 31  0  0  0  0  0  0  0  0999 V2000
  125.5080  123.3130   56.1160 C   0  0  0  0  0  0  0  0  0  0  0  0
  126.7890  122.7040   56.0460 O   0  0  0  0  0  0  0  0  0  0  0  0
  127.7810  123.5390   55.4640 C   0  0  0  0  0  0  0  0  0  0  0  0
  127.8540  123.2760   53.9530 C   0  0  0  0  0  0  0  0  0  0  0  0
  129.0540  123.8340   53.4360 O   0  0  0  0  0  0  0  0  0  0  0  0
  129.2370  125.2060   53.7610 C   0  0  0  0  0  0  0  0  0  0  0  0
  130.7330  125.4870   53.9470 C   0  0  0  0  0  0  0  0  0  0  0  0
  130.9090  126.4290   54.9970 O   0  0  0  0  0  0  0  0  0  0  0  0
  130.1110  126.1670   56.1440 C   0  0  0  0  0  0  0  0  0  0  0  0
  129.6850  127.4970   56.7850 C   0  0  0  0  0  0  0  0  0  0  0  0
  129.9190  128.6410   55.9010 N   0  0  0  0  0  0  0  0  0  0  0  0
  129.1700  129.7550   55.8530 C   0  0  0  0  0  0  0  0  0  0  0  0
  128.1900  129.9530   56.5740 O   0  0  0  0  0  0  0  0  0  0  0  0
  129.6050  130.8270   54.8510 C   0  0  0  0  0  0  0  0  0  0  0  0
  130.5120  132.1850   55.6570 S   0  0  0  0  0  0  0  0  0  0  0  0
  130.4090  131.9820   57.4270 C   0  0  0  0  0  0  0  0  0  0  0  0
  129.2250  132.3260   57.9960 N   0  0  0  0  0  0  0  0  0  0  0  0
  129.0560  132.2080   59.3390 C   0  0  0  0  0  0  0  0  0  0  0  0
  127.7110  132.5890   59.8820 C   0  0  0  0  0  0  0  0  0  0  0  0
  126.5890  131.7760   59.6550 C   0  0  0  0  0  0  0  0  0  0  0  0
  125.3370  132.1280   60.1520 C   0  0  0  0  0  0  0  0  0  0  0  0
  125.1900  133.3000   60.8860 C   0  0  0  0  0  0  0  0  0  0  0  0
  126.2860  134.1210   61.1280 C   0  0  0  0  0  0  0  0  0  0  0  0
  127.5370  133.7650   60.6310 C   0  0  0  0  0  0  0  0  0  0  0  0
  130.0890  131.7280   60.1530 C   0  0  0  0  0  0  0  0  0  0  0  0
  131.3160  131.3700   59.5840 C   0  0  0  0  0  0  0  0  0  0  0  0
  132.4170  130.8510   60.5080 C   0  0  0  0  0  0  0  0  0  0  0  0
  131.4930  131.4960   58.1900 C   0  0  0  0  0  0  0  0  0  0  0  0
  132.7660  131.1260   57.5660 C   0  0  0  0  0  0  0  0  0  0  0  0
  133.7730  130.8350   57.0730 N   0  0  0  0  0  0  0  0  0  0  0  0
  1  2  1  0
  2  3  1  0
  3  4  1  0
  4  5  1  0
  5  6  1  0
  6  7  1  0
  7  8  1  0
  8  9  1  0
  9 10  1  0
 10 11  1  0
 11 12  1  0
 12 13  2  0
 12 14  1  0
 14 15  1  0
 15 16  1  0
 16 17  2  0
 17 18  1  0
 18 19  1  0
 19 20  2  0
 20 21  1  0
 21 22  2  0
 22 23  1  0
 23 24  2  0
 18 25  2  0
 25 26  1  0
 26 27  1  0
 26 28  2  0
 28 29  1  0
 29 30  3  0
 28 16  1  0
 24 19  1  0
M  END
>  <Binding energies>  (32) 
[-8.23]

>  <Ligand effiencies>  (32) 
[-0.26548387096774195]

>  <Interactions>  (32) 
["V-A:PRO:540:N:4882, H-A:TYR:539:N:4868, V-A:PRO:540:CB:4883, H-A:TYR:531:OH:4793, V-A:PRO:540:CA:4881, H-B:TYR:539:N:9842, V-B:PRO:540:CD:9859, V-B:PRO:540:N:9856, V-B:ILE:538:CG2:9835, V-B:ILE:538:CB:9834, V-B:TYR:539:CE1:9847, V-B:ILE:538:CA:9832, V-A:MET:535:CE:4833, V-A:TYR:531:CE1:4790, V-B:TYR:539:CD1:9845, V-A:TYR:539:C:4865, V-A:TYR:539:CE2:4874, V-A:TYR:539:CD2:4872, V-B:LEU:475:CD2:9231, V-A:ALA:541:CB:4890, V-A:PRO:540:C:4879, H-A:MET:535:SD:4832"]

$$$$
3cb_Grossjean_2025
     RDKit          3D

 30 32  0  0  0  0  0  0  0  0999 V2000
  132.7900  131.8800   56.1080 C   0  0  0  0  0  0  0  0  0  0  0  0
  131.6170  132.6790   56.1340 O   0  0  0  0  0  0  0  0  0  0  0  0
  130.4310  132.1660   56.5510 C   0  0  0  0  0  0  0  0  0  0  0  0
  129.3350  132.6240   56.2130 O   0  0  0  0  0  0  0  0  0  0  0  0
  130.5830  130.9860   57.4670 C   0  0  0  0  0  0  0  0  0  0  0  0
  130.5060  129.6650   56.9990 C   0  0  0  0  0  0  0  0  0  0  0  0
  130.6550  128.5940   57.8750 C   0  0  0  0  0  0  0  0  0  0  0  0
  130.8780  128.8160   59.2340 C   0  0  0  0  0  0  0  0  0  0  0  0
  131.0170  127.6600   60.0280 N   0  0  0  0  0  0  0  0  0  0  0  0
  130.0720  126.8460   60.5490 C   0  0  0  0  0  0  0  0  0  0  0  0
  128.8580  126.9810   60.3880 O   0  0  0  0  0  0  0  0  0  0  0  0
  130.6260  125.6760   61.3770 C   0  0  0  0  0  0  0  0  0  0  0  0
  130.5360  124.0460   60.5610 S   0  0  0  0  0  0  0  0  0  0  0  0
  129.6150  124.2420   59.0500 C   0  0  0  0  0  0  0  0  0  0  0  0
  130.3650  124.6940   58.0160 N   0  0  0  0  0  0  0  0  0  0  0  0
  129.7710  124.8810   56.8170 C   0  0  0  0  0  0  0  0  0  0  0  0
  130.6730  125.3750   55.7020 C   0  0  0  0  0  0  0  0  0  0  0  0
  128.4170  124.6340   56.6040 C   0  0  0  0  0  0  0  0  0  0  0  0
  127.6180  124.1820   57.6630 C   0  0  0  0  0  0  0  0  0  0  0  0
  126.1700  123.9380   57.3860 C   0  0  0  0  0  0  0  0  0  0  0  0
  125.7860  123.1480   56.2950 C   0  0  0  0  0  0  0  0  0  0  0  0
  124.4390  122.9050   56.0350 C   0  0  0  0  0  0  0  0  0  0  0  0
  123.4680  123.4500   56.8700 C   0  0  0  0  0  0  0  0  0  0  0  0
  123.8320  124.2300   57.9630 C   0  0  0  0  0  0  0  0  0  0  0  0
  125.1790  124.4700   58.2220 C   0  0  0  0  0  0  0  0  0  0  0  0
  128.2250  123.9940   58.9320 C   0  0  0  0  0  0  0  0  0  0  0  0
  127.4200  123.6130   60.0960 C   0  0  0  0  0  0  0  0  0  0  0  0
  126.7840  123.3130   61.0150 N   0  0  0  0  0  0  0  0  0  0  0  0
  130.9610  130.1330   59.7100 C   0  0  0  0  0  0  0  0  0  0  0  0
  130.8130  131.2040   58.8330 C   0  0  0  0  0  0  0  0  0  0  0  0
  1  2  1  0
  2  3  1  0
  3  4  2  0
  3  5  1  0
  5  6  2  0
  6  7  1  0
  7  8  2  0
  8  9  1  0
  9 10  1  0
 10 11  2  0
 10 12  1  0
 12 13  1  0
 13 14  1  0
 14 15  2  0
 15 16  1  0
 16 17  1  0
 16 18  2  0
 18 19  1  0
 19 20  1  0
 20 21  2  0
 21 22  1  0
 22 23  2  0
 23 24  1  0
 24 25  2  0
 19 26  2  0
 26 27  1  0
 27 28  3  0
  8 29  1  0
 29 30  2  0
 30  5  1  0
 26 14  1  0
 25 20  1  0
M  END
>  <Binding energies>  (33) 
[-8.94]

>  <Ligand effiencies>  (33) 
[-0.28838709677419355]

>  <Interactions>  (33) 
["V-A:TYR:531:CE2:4791, V-B:ASP:366:CG:8185, V-A:PRO:540:CD:4885, V-A:PRO:540:N:4882, H-A:TYR:539:N:4868, V-A:PRO:540:CB:4883, V-A:LEU:363:CD1:3187, V-A:ILE:538:CG2:4861, V-A:TYR:531:CZ:4792, V-A:ILE:538:CB:4860, V-A:PRO:540:CA:4881, V-B:TYR:539:C:9839, V-B:PRO:540:CD:9859, V-B:PRO:540:CB:9857, V-B:PRO:540:CA:9855, V-B:TYR:539:CZ:9849, H-B:ALA:541:N:9863, V-B:PRO:540:N:9856, V-B:ILE:538:CG2:9835, V-B:ILE:538:CB:9834, V-B:TYR:539:CE2:9848, V-B:LEU:363:CD1:8161, V-B:TYR:531:CE2:9765, V-A:TYR:539:C:4865, V-A:ASP:366:CG:3211, H-A:ASP:366:OD2:3213, V-B:PRO:540:CG:9858, V-B:LEU:363:CA:8157, H-A:ASP:366:OD1:3212, V-B:LEU:363:CB:8159"]

$$$$
3ch_Grossjean_2025
     RDKit          3D

 32 34  0  0  0  0  0  0  0  0999 V2000
  132.0680  125.5110   55.9840 C   0  0  0  0  0  0  0  0  0  0  0  0
  131.0570  126.2020   55.2590 O   0  0  0  0  0  0  0  0  0  0  0  0
  129.7420  126.1280   55.6810 C   0  0  0  0  0  0  0  0  0  0  0  0
  129.1120  127.1090   56.4630 C   0  0  0  0  0  0  0  0  0  0  0  0
  127.7700  126.9710   56.8470 C   0  0  0  0  0  0  0  0  0  0  0  0
  127.0530  127.9010   57.6240 N   0  0  0  0  0  0  0  0  0  0  0  0
  126.0820  128.7650   57.2560 C   0  0  0  0  0  0  0  0  0  0  0  0
  125.6250  128.8850   56.1190 O   0  0  0  0  0  0  0  0  0  0  0  0
  125.4990  129.6200   58.3810 C   0  0  0  0  0  0  0  0  0  0  0  0
  126.4770  131.1220   58.6790 S   0  0  0  0  0  0  0  0  0  0  0  0
  127.6970  131.1820   57.3840 C   0  0  0  0  0  0  0  0  0  0  0  0
  127.1800  131.0700   56.1360 N   0  0  0  0  0  0  0  0  0  0  0  0
  128.0260  131.0970   55.0810 C   0  0  0  0  0  0  0  0  0  0  0  0
  127.3820  130.9610   53.7150 C   0  0  0  0  0  0  0  0  0  0  0  0
  129.4040  131.2320   55.2280 C   0  0  0  0  0  0  0  0  0  0  0  0
  129.9580  131.3570   56.5100 C   0  0  0  0  0  0  0  0  0  0  0  0
  131.4420  131.4900   56.6190 C   0  0  0  0  0  0  0  0  0  0  0  0
  132.1560  130.6890   57.5180 C   0  0  0  0  0  0  0  0  0  0  0  0
  133.5390  130.8130   57.6320 C   0  0  0  0  0  0  0  0  0  0  0  0
  134.2130  131.7450   56.8460 C   0  0  0  0  0  0  0  0  0  0  0  0
  133.5170  132.5540   55.9520 C   0  0  0  0  0  0  0  0  0  0  0  0
  132.1350  132.4270   55.8420 C   0  0  0  0  0  0  0  0  0  0  0  0
  129.0810  131.3510   57.6250 C   0  0  0  0  0  0  0  0  0  0  0  0
  129.5940  131.5720   58.9810 C   0  0  0  0  0  0  0  0  0  0  0  0
  129.9980  131.7450   60.0510 N   0  0  0  0  0  0  0  0  0  0  0  0
  127.0660  125.8290   56.4580 C   0  0  0  0  0  0  0  0  0  0  0  0
  127.6750  124.8340   55.6780 C   0  0  0  0  0  0  0  0  0  0  0  0
  127.0310  123.6840   55.2540 O   0  0  0  0  0  0  0  0  0  0  0  0
  125.7200  123.3990   55.7280 C   0  0  0  0  0  0  0  0  0  0  0  0
  129.0130  124.9940   55.2990 C   0  0  0  0  0  0  0  0  0  0  0  0
  129.6160  124.0340   54.5200 O   0  0  0  0  0  0  0  0  0  0  0  0
  129.4400  124.2270   53.1230 C   0  0  0  0  0  0  0  0  0  0  0  0
  1  2  1  0
  2  3  1  0
  3  4  2  0
  4  5  1  0
  5  6  1  0
  6  7  1  0
  7  8  2  0
  7  9  1  0
  9 10  1  0
 10 11  1  0
 11 12  2  0
 12 13  1  0
 13 14  1  0
 13 15  2  0
 15 16  1  0
 16 17  1  0
 17 18  2  0
 18 19  1  0
 19 20  2  0
 20 21  1  0
 21 22  2  0
 16 23  2  0
 23 24  1  0
 24 25  3  0
  5 26  2  0
 26 27  1  0
 27 28  1  0
 28 29  1  0
 27 30  2  0
 30 31  1  0
 31 32  1  0
 30  3  1  0
 23 11  1  0
 22 17  1  0
M  END
>  <Binding energies>  (34) 
[-8.54]

>  <Ligand effiencies>  (34) 
[-0.2587878787878788]

>  <Interactions>  (34) 
["V-A:TYR:531:CE2:4791, V-B:ASP:366:CG:8185, V-A:PRO:540:CD:4885, V-A:PRO:540:N:4882, V-A:TYR:539:CE1:4873, V-A:TYR:539:CZ:4875, V-A:PRO:540:CB:4883, V-A:LEU:363:CD1:3187, V-A:ILE:538:CG2:4861, V-A:TYR:531:CZ:4792, V-A:LEU:363:CA:3183, V-A:ILE:538:CA:4858, V-A:ILE:538:CB:4860, V-B:MET:535:CE:9807, V-A:PRO:540:CG:4884, V-B:ASP:366:CB:8184, H-A:TYR:531:OH:4793, V-A:PRO:540:CA:4881, V-B:TYR:539:CZ:9849, V-B:ILE:538:CG2:9835, V-B:ILE:538:CB:9834, V-B:TYR:539:CE1:9847, V-B:ILE:538:CA:9832, V-A:MET:535:CE:4833, V-A:TYR:531:CE1:4790, H-B:TYR:539:OH:9850, H-B:TYR:531:OH:9767, V-A:TYR:539:CE2:4874, V-A:ASP:366:CG:3211, H-A:ALA:541:N:4889, V-A:TYR:539:CD2:4872, H-A:TYR:539:OH:4876, V-A:ASP:366:CB:3210, V-A:LEU:363:CB:3185, V-A:ILE:538:CD1:4863, V-A:LEU:363:CG:3186"]

$$$$
3ci_Grossjean_2025
     RDKit          3D

 25 27  0  0  0  0  0  0  0  0999 V2000
  129.4080  121.8480   60.6620 C   0  0  0  0  0  0  0  0  0  0  0  0
  129.6640  122.7060   59.4380 C   0  0  0  0  0  0  0  0  0  0  0  0
  128.7220  122.8300   58.4210 C   0  0  0  0  0  0  0  0  0  0  0  0
  128.9980  123.6480   57.3160 C   0  0  0  0  0  0  0  0  0  0  0  0
  127.9510  123.7620   56.2570 C   0  0  0  0  0  0  0  0  0  0  0  0
  126.6000  123.9040   56.5970 C   0  0  0  0  0  0  0  0  0  0  0  0
  125.6270  124.0020   55.6050 C   0  0  0  0  0  0  0  0  0  0  0  0
  126.0020  123.9510   54.2660 C   0  0  0  0  0  0  0  0  0  0  0  0
  127.3400  123.8010   53.9110 C   0  0  0  0  0  0  0  0  0  0  0  0
  128.3100  123.7040   54.9050 C   0  0  0  0  0  0  0  0  0  0  0  0
  130.2470  124.3180   57.2700 C   0  0  0  0  0  0  0  0  0  0  0  0
  130.6090  125.1540   56.1190 C   0  0  0  0  0  0  0  0  0  0  0  0
  130.8930  125.8130   55.2110 N   0  0  0  0  0  0  0  0  0  0  0  0
  131.1460  124.1410   58.3490 C   0  0  0  0  0  0  0  0  0  0  0  0
  132.7370  124.9560   58.4050 S   0  0  0  0  0  0  0  0  0  0  0  0
  133.9510  123.8640   59.2160 C   0  0  0  0  0  0  0  0  0  0  0  0
  133.6540  123.6220   60.7000 C   0  0  0  0  0  0  0  0  0  0  0  0
  133.7430  122.4790   61.1530 O   0  0  0  0  0  0  0  0  0  0  0  0
  133.2920  124.7120   61.4120 N   0  0  0  0  0  0  0  0  0  0  0  0
  132.9990  124.7720   62.7680 C   0  0  0  0  0  0  0  0  0  0  0  0
  131.6960  124.8400   63.2620 C   0  0  0  0  0  0  0  0  0  0  0  0
  131.8350  124.8880   64.6310 C   0  0  0  0  0  0  0  0  0  0  0  0
  133.1530  124.8480   64.9430 O   0  0  0  0  0  0  0  0  0  0  0  0
  133.8800  124.7770   63.7540 N   0  0  0  0  0  0  0  0  0  0  0  0
  130.8560  123.3430   59.4080 N   0  0  0  0  0  0  0  0  0  0  0  0
  1  2  1  0
  2  3  2  0
  3  4  1  0
  4  5  1  0
  5  6  2  0
  6  7  1  0
  7  8  2  0
  8  9  1  0
  9 10  2  0
  4 11  2  0
 11 12  1  0
 12 13  3  0
 11 14  1  0
 14 15  1  0
 15 16  1  0
 16 17  1  0
 17 18  2  0
 17 19  1  0
 19 20  1  0
 20 21  1  0
 21 22  2  0
 22 23  1  0
 23 24  1  0
 14 25  2  0
 25  2  1  0
 10  5  1  0
 24 20  2  0
M  END
>  <Binding energies>  (35) 
[-8.85]

>  <Ligand effiencies>  (35) 
[-0.3403846153846154]

>  <Interactions>  (35) 
["H-A:TYR:531:OH:4793, V-B:TYR:531:CZ:9766, V-B:TYR:539:C:9839, V-B:MET:535:CG:9805, V-B:MET:535:CB:9804, V-B:TYR:539:CZ:9849, V-B:ILE:538:CG2:9835, V-B:ILE:538:CB:9834, V-B:TYR:539:CE1:9847, V-B:ILE:538:CA:9832, V-B:TYR:539:CD2:9846, H-B:TYR:539:OH:9850, V-B:TYR:539:CD1:9845, V-B:TYR:539:CE2:9848, V-B:TYR:531:CE2:9765, V-A:ASP:366:CG:3211, V-B:TYR:539:CG:9844, V-A:ILE:369:CD1:3237, H-A:ASP:366:OD2:3213, V-B:ALA:541:CB:9864, H-A:TYR:484:OH:4346, V-A:ARG:545:CZ:4924, H-A:GLY:454:N:4048, V-A:ILE:369:CG2:3235, V-A:ASP:366:CB:3210, H-A:ARG:545:NH1:4925, H-A:ARG:545:NE:4922, V-A:ILE:369:CB:3234, V-A:ASP:366:CA:3208, H-A:ASP:366:OD1:3212"]

$$$$
3ck_Grossjean_2025
     RDKit          3D

 30 31  0  0  0  0  0  0  0  0999 V2000
  123.3840  131.3590   59.3810 C   0  0  0  0  0  0  0  0  0  0  0  0
  123.7430  131.2200   58.0160 O   0  0  0  0  0  0  0  0  0  0  0  0
  124.8680  130.3770   57.8090 C   0  0  0  0  0  0  0  0  0  0  0  0
  124.7090  129.6240   56.4820 C   0  0  0  0  0  0  0  0  0  0  0  0
  125.9870  129.2000   56.0250 O   0  0  0  0  0  0  0  0  0  0  0  0
  126.1720  129.3350   54.6220 C   0  0  0  0  0  0  0  0  0  0  0  0
  126.8400  130.6850   54.3340 C   0  0  0  0  0  0  0  0  0  0  0  0
  128.2460  130.4890   54.2920 O   0  0  0  0  0  0  0  0  0  0  0  0
  128.9820  131.5700   53.7380 C   0  0  0  0  0  0  0  0  0  0  0  0
  130.4880  131.3340   53.9600 C   0  0  0  0  0  0  0  0  0  0  0  0
  130.8220  130.8820   55.3140 N   0  0  0  0  0  0  0  0  0  0  0  0
  130.5630  131.5540   56.4510 C   0  0  0  0  0  0  0  0  0  0  0  0
  129.9780  132.6380   56.4770 O   0  0  0  0  0  0  0  0  0  0  0  0
  131.0420  130.8740   57.7440 C   0  0  0  0  0  0  0  0  0  0  0  0
  131.2380  129.0610   57.6500 S   0  0  0  0  0  0  0  0  0  0  0  0
  129.6320  128.2910   57.7920 C   0  0  0  0  0  0  0  0  0  0  0  0
  128.8070  128.8260   58.7270 N   0  0  0  0  0  0  0  0  0  0  0  0
  127.5770  128.2890   58.8910 C   0  0  0  0  0  0  0  0  0  0  0  0
  126.7130  128.9370   59.9550 C   0  0  0  0  0  0  0  0  0  0  0  0
  127.1230  127.2080   58.1410 C   0  0  0  0  0  0  0  0  0  0  0  0
  127.9610  126.6350   57.1740 C   0  0  0  0  0  0  0  0  0  0  0  0
  127.4410  125.4630   56.4090 C   0  0  0  0  0  0  0  0  0  0  0  0
  127.3420  125.5210   55.0140 C   0  0  0  0  0  0  0  0  0  0  0  0
  126.8480  124.4350   54.2950 C   0  0  0  0  0  0  0  0  0  0  0  0
  126.4450  123.2870   54.9710 C   0  0  0  0  0  0  0  0  0  0  0  0
  126.5290  123.2170   56.3590 C   0  0  0  0  0  0  0  0  0  0  0  0
  127.0230  124.3040   57.0750 C   0  0  0  0  0  0  0  0  0  0  0  0
  129.2500  127.1970   56.9820 C   0  0  0  0  0  0  0  0  0  0  0  0
  130.1540  126.6650   55.9560 C   0  0  0  0  0  0  0  0  0  0  0  0
  130.8660  126.2460   55.1460 N   0  0  0  0  0  0  0  0  0  0  0  0
  1  2  1  0
  2  3  1  0
  3  4  1  0
  4  5  1  0
  5  6  1  0
  6  7  1  0
  7  8  1  0
  8  9  1  0
  9 10  1  0
 10 11  1  0
 11 12  1  0
 12 13  2  0
 12 14  1  0
 14 15  1  0
 15 16  1  0
 16 17  2  0
 17 18  1  0
 18 19  1  0
 18 20  2  0
 20 21  1  0
 21 22  1  0
 22 23  2  0
 23 24  1  0
 24 25  2  0
 25 26  1  0
 26 27  2  0
 21 28  2  0
 28 29  1  0
 29 30  3  0
 28 16  1  0
 27 22  1  0
M  END
>  <Binding energies>  (36) 
[-7.55]

>  <Ligand effiencies>  (36) 
[-0.24354838709677418]

>  <Interactions>  (36) 
["V-B:ASP:366:CG:8185, H-A:TYR:539:N:4868, V-A:TYR:539:CE1:4873, V-A:TYR:539:CZ:4875, V-A:ILE:538:CG2:4861, V-A:TYR:531:CZ:4792, V-A:ILE:538:CA:4858, V-A:ILE:538:CB:4860, V-B:MET:535:CE:9807, V-B:ASP:366:CB:8184, H-A:TYR:531:OH:4793, V-A:MET:535:CB:4830, V-A:MET:535:CG:4831, V-B:TYR:531:CZ:9766, V-B:TYR:531:CE1:9764, V-B:TYR:539:C:9839, V-B:MET:535:CG:9805, V-B:MET:535:CB:9804, V-B:PRO:540:N:9856, V-B:ILE:538:CG2:9835, V-B:ILE:538:CB:9834, V-B:ILE:538:CA:9832, V-B:ILE:538:C:9830, H-B:TYR:531:OH:9767, V-A:TYR:539:CE2:4874, H-A:TYR:539:OH:4876, V-B:ILE:369:CG2:8209, V-B:ILE:369:CD1:8211, V-B:ILE:369:CB:8208, V-B:ASP:366:CA:8182"]

$$$$
4aa_Grossjean_2025
     RDKit          3D

 26 28  0  0  0  0  0  0  0  0999 V2000
  127.9880  127.7420   67.5150 C   0  0  0  0  0  0  0  0  0  0  0  0
  127.4510  128.8390   66.5900 C   0  0  0  0  0  0  0  0  0  0  0  0
  126.0320  128.7700   66.5500 O   0  0  0  0  0  0  0  0  0  0  0  0
  125.3100  129.6130   65.7660 C   0  0  0  0  0  0  0  0  0  0  0  0
  124.1750  130.0060   66.0540 O   0  0  0  0  0  0  0  0  0  0  0  0
  126.0280  130.0160   64.5110 C   0  0  0  0  0  0  0  0  0  0  0  0
  126.3620  129.0350   63.5680 C   0  0  0  0  0  0  0  0  0  0  0  0
  127.0320  129.3770   62.3970 C   0  0  0  0  0  0  0  0  0  0  0  0
  127.3750  130.7050   62.1400 C   0  0  0  0  0  0  0  0  0  0  0  0
  128.0580  130.9380   60.9300 N   0  0  0  0  0  0  0  0  0  0  0  0
  129.2970  131.4380   60.7090 C   0  0  0  0  0  0  0  0  0  0  0  0
  130.0520  131.8340   61.5980 O   0  0  0  0  0  0  0  0  0  0  0  0
  129.7000  131.5110   59.3040 C   0  0  0  0  0  0  0  0  0  0  0  0
  128.4910  131.7740   58.0440 S   0  0  0  0  0  0  0  0  0  0  0  0
  129.7090  131.6850   56.7920 C   0  0  0  0  0  0  0  0  0  0  0  0
  129.4050  131.8200   55.5000 N   0  0  0  0  0  0  0  0  0  0  0  0
  130.4410  131.7260   54.6320 C   0  0  0  0  0  0  0  0  0  0  0  0
  130.0720  131.8780   53.1670 C   0  0  0  0  0  0  0  0  0  0  0  0
  131.7610  131.5070   55.0210 C   0  0  0  0  0  0  0  0  0  0  0  0
  132.0770  131.3670   56.3760 C   0  0  0  0  0  0  0  0  0  0  0  0
  133.5320  131.1290   56.7520 C   0  0  0  0  0  0  0  0  0  0  0  0
  131.0160  131.4550   57.3180 C   0  0  0  0  0  0  0  0  0  0  0  0
  130.9810  131.3560   58.7520 C   0  0  0  0  0  0  0  0  0  0  0  0
  132.1120  131.1320   59.4970 N   0  0  0  0  0  0  0  0  0  0  0  0
  127.0500  131.6940   63.0800 C   0  0  0  0  0  0  0  0  0  0  0  0
  126.3820  131.3500   64.2530 C   0  0  0  0  0  0  0  0  0  0  0  0
  1  2  1  0
  2  3  1  0
  3  4  1  0
  4  5  2  0
  4  6  1  0
  6  7  2  0
  7  8  1  0
  8  9  2  0
  9 10  1  0
 10 11  1  0
 11 12  2  0
 11 13  1  0
 13 14  1  0
 14 15  1  0
 15 16  2  0
 16 17  1  0
 17 18  1  0
 17 19  2  0
 19 20  1  0
 20 21  1  0
 20 22  2  0
 22 23  1  0
 23 24  1  0
  9 25  1  0
 25 26  2  0
 26  6  1  0
 23 13  2  0
 22 15  1  0
M  END
>  <Binding energies>  (37) 
[-8.32]

>  <Ligand effiencies>  (37) 
[-0.2868965517241379]

>  <Interactions>  (37) 
["V-A:TYR:531:CE2:4791, V-A:PRO:540:N:4882, H-A:TYR:539:N:4868, V-A:VAL:537:C:4848, V-A:PRO:540:CB:4883, V-A:LEU:363:CD1:3187, V-A:ILE:538:CG2:4861, V-A:TYR:531:CZ:4792, V-A:LEU:363:CA:3183, V-A:ILE:538:CA:4858, V-A:ILE:538:CB:4860, V-A:MET:535:CB:4830, V-A:MET:535:CG:4831, V-A:PRO:540:CA:4881, V-B:HIS:456:CE1:9042, V-A:GLU:543:CD:4906, V-B:GLU:543:CD:9880, V-A:TYR:539:CE2:4874, H-A:ALA:541:N:4889, V-B:ARG:545:CZ:9898, H-A:ASP:366:OD2:3213, V-A:TYR:539:CD2:4872, H-B:GLY:454:N:9022, H-B:TYR:484:OH:9320, V-B:TYR:484:CZ:9319, H-B:ARG:545:NE:9896, V-A:GLU:543:CB:4904, V-B:ARG:545:CD:9895, V-B:GLU:543:CG:9879, V-B:ARG:545:CG:9894, V-A:GLU:543:CG:4905"]

$$$$
4ab_Grossjean_2025
     RDKit          3D

 25 27  0  0  0  0  0  0  0  0999 V2000
  127.4580  128.8800   66.5470 C   0  0  0  0  0  0  0  0  0  0  0  0
  126.0390  128.8290   66.5530 O   0  0  0  0  0  0  0  0  0  0  0  0
  125.3080  129.6370   65.7430 C   0  0  0  0  0  0  0  0  0  0  0  0
  124.1570  130.0030   66.0060 O   0  0  0  0  0  0  0  0  0  0  0  0
  126.0340  130.0370   64.4920 C   0  0  0  0  0  0  0  0  0  0  0  0
  126.3650  129.0530   63.5500 C   0  0  0  0  0  0  0  0  0  0  0  0
  127.0410  129.3930   62.3810 C   0  0  0  0  0  0  0  0  0  0  0  0
  127.3900  130.7180   62.1240 C   0  0  0  0  0  0  0  0  0  0  0  0
  128.0760  130.9460   60.9160 N   0  0  0  0  0  0  0  0  0  0  0  0
  129.3170  131.4450   60.6970 C   0  0  0  0  0  0  0  0  0  0  0  0
  130.0720  131.8410   61.5860 O   0  0  0  0  0  0  0  0  0  0  0  0
  129.7220  131.5160   59.2920 C   0  0  0  0  0  0  0  0  0  0  0  0
  128.5170  131.7860   58.0300 S   0  0  0  0  0  0  0  0  0  0  0  0
  129.7350  131.6900   56.7790 C   0  0  0  0  0  0  0  0  0  0  0  0
  129.4330  131.8260   55.4870 N   0  0  0  0  0  0  0  0  0  0  0  0
  130.4700  131.7280   54.6200 C   0  0  0  0  0  0  0  0  0  0  0  0
  130.1040  131.8800   53.1550 C   0  0  0  0  0  0  0  0  0  0  0  0
  131.7890  131.5040   55.0100 C   0  0  0  0  0  0  0  0  0  0  0  0
  132.1020  131.3620   56.3670 C   0  0  0  0  0  0  0  0  0  0  0  0
  133.5560  131.1180   56.7430 C   0  0  0  0  0  0  0  0  0  0  0  0
  131.0400  131.4540   57.3070 C   0  0  0  0  0  0  0  0  0  0  0  0
  131.0030  131.3530   58.7410 C   0  0  0  0  0  0  0  0  0  0  0  0
  132.1310  131.1210   59.4880 N   0  0  0  0  0  0  0  0  0  0  0  0
  127.0670  131.7090   63.0640 C   0  0  0  0  0  0  0  0  0  0  0  0
  126.3940  131.3680   64.2340 C   0  0  0  0  0  0  0  0  0  0  0  0
  1  2  1  0
  2  3  1  0
  3  4  2  0
  3  5  1  0
  5  6  2  0
  6  7  1  0
  7  8  2  0
  8  9  1  0
  9 10  1  0
 10 11  2  0
 10 12  1  0
 12 13  1  0
 13 14  1  0
 14 15  2  0
 15 16  1  0
 16 17  1  0
 16 18  2  0
 18 19  1  0
 19 20  1  0
 19 21  2  0
 21 22  1  0
 22 23  1  0
  8 24  1  0
 24 25  2  0
 25  5  1  0
 22 12  2  0
 21 14  1  0
M  END
>  <Binding energies>  (38) 
[-8.03]

>  <Ligand effiencies>  (38) 
[-0.28678571428571425]

>  <Interactions>  (38) 
["V-A:TYR:531:CE2:4791, V-A:PRO:540:N:4882, H-A:TYR:539:N:4868, V-A:VAL:537:C:4848, V-A:PRO:540:CB:4883, V-A:LEU:363:CD1:3187, V-A:ILE:538:CG2:4861, V-A:TYR:531:CZ:4792, V-A:LEU:363:CA:3183, V-A:ILE:538:CA:4858, V-A:ILE:538:CB:4860, V-A:MET:535:CB:4830, V-A:MET:535:CG:4831, V-A:PRO:540:CA:4881, V-B:HIS:456:CE1:9042, V-A:GLU:543:CD:4906, V-A:TYR:539:CE2:4874, H-A:ALA:541:N:4889, V-B:ARG:545:CZ:9898, H-A:ASP:366:OD2:3213, V-A:TYR:539:CD2:4872, H-B:GLY:454:N:9022, V-A:ALA:541:CB:4890, H-B:TYR:484:OH:9320, V-B:TYR:484:CZ:9319, H-B:ARG:545:NE:9896, V-A:GLU:543:CB:4904, V-B:ARG:545:CD:9895, V-B:ARG:545:CG:9894, V-A:GLU:543:CG:4905"]

$$$$
4ac_Grossjean_2025
     RDKit          3D

 23 25  0  0  0  0  0  0  0  0999 V2000
  133.5800  125.1260   65.4260 C   0  0  0  0  0  0  0  0  0  0  0  0
  134.1560  125.1360   64.1240 O   0  0  0  0  0  0  0  0  0  0  0  0
  133.3480  124.9070   63.0270 C   0  0  0  0  0  0  0  0  0  0  0  0
  132.0080  125.2730   63.1540 C   0  0  0  0  0  0  0  0  0  0  0  0
  131.1180  125.0800   62.1010 C   0  0  0  0  0  0  0  0  0  0  0  0
  131.5610  124.5260   60.9000 C   0  0  0  0  0  0  0  0  0  0  0  0
  130.5880  124.3570   59.8970 N   0  0  0  0  0  0  0  0  0  0  0  0
  130.7520  124.2100   58.5600 C   0  0  0  0  0  0  0  0  0  0  0  0
  131.8460  124.2390   57.9920 O   0  0  0  0  0  0  0  0  0  0  0  0
  129.5180  124.0170   57.7940 C   0  0  0  0  0  0  0  0  0  0  0  0
  128.0290  123.5340   58.6070 S   0  0  0  0  0  0  0  0  0  0  0  0
  127.1480  123.5290   57.0960 C   0  0  0  0  0  0  0  0  0  0  0  0
  125.8530  123.2180   57.0350 N   0  0  0  0  0  0  0  0  0  0  0  0
  125.2910  123.2530   55.8030 C   0  0  0  0  0  0  0  0  0  0  0  0
  123.8160  122.8960   55.7540 C   0  0  0  0  0  0  0  0  0  0  0  0
  125.9870  123.5850   54.6420 C   0  0  0  0  0  0  0  0  0  0  0  0
  127.3460  123.9110   54.7100 C   0  0  0  0  0  0  0  0  0  0  0  0
  128.0620  124.2670   53.4160 C   0  0  0  0  0  0  0  0  0  0  0  0
  127.9700  123.8880   55.9860 C   0  0  0  0  0  0  0  0  0  0  0  0
  129.3160  124.1630   56.4120 C   0  0  0  0  0  0  0  0  0  0  0  0
  130.3010  124.5310   55.5310 N   0  0  0  0  0  0  0  0  0  0  0  0
  132.9040  124.1430   60.7680 C   0  0  0  0  0  0  0  0  0  0  0  0
  133.7910  124.3370   61.8240 C   0  0  0  0  0  0  0  0  0  0  0  0
  1  2  1  0
  2  3  1  0
  3  4  2  0
  4  5  1  0
  5  6  2  0
  6  7  1  0
  7  8  1  0
  8  9  2  0
  8 10  1  0
 10 11  1  0
 11 12  1  0
 12 13  2  0
 13 14  1  0
 14 15  1  0
 14 16  2  0
 16 17  1  0
 17 18  1  0
 17 19  2  0
 19 20  1  0
 20 21  1  0
  6 22  1  0
 22 23  2  0
 23  3  1  0
 20 10  2  0
 19 12  1  0
M  END
>  <Binding energies>  (39) 
[-7.23]

>  <Ligand effiencies>  (39) 
[-0.2780769230769231]

>  <Interactions>  (39) 
["V-B:TYR:539:C:9839, V-B:PRO:540:CD:9859, V-B:MET:535:CG:9805, V-B:MET:535:CB:9804, V-B:PRO:540:CA:9855, V-B:TYR:539:CZ:9849, V-B:PRO:540:N:9856, V-B:ILE:538:CG2:9835, V-B:ILE:538:CB:9834, V-B:TYR:539:CE1:9847, V-B:ILE:538:CA:9832, V-B:TYR:539:CD2:9846, H-B:TYR:539:OH:9850, V-B:TYR:539:CE2:9848, V-B:LEU:363:CD1:8161, V-B:TYR:531:CE2:9765, V-A:HIS:456:CE1:4068, H-A:ARG:545:NH2:4926, V-A:ILE:369:CD1:3237, H-A:TYR:484:OH:4346, V-A:ARG:545:CZ:4924, H-A:GLY:454:N:4048, V-B:PRO:540:CG:9858, V-B:ILE:538:CD1:9837, H-A:ARG:545:NH1:4925, H-A:ARG:545:NE:4922, V-A:ARG:545:CD:4921, V-A:ARG:545:CG:4920"]

$$$$
4ad_Grossjean_2025
     RDKit          3D

 21 23  0  0  0  0  0  0  0  0999 V2000
  132.2340  137.8800   70.7600 C   0  0  0  0  0  0  0  0  0  0  0  0
  131.5110  136.9600   71.7260 C   0  0  0  0  0  0  0  0  0  0  0  0
  131.3530  137.3080   73.0660 C   0  0  0  0  0  0  0  0  0  0  0  0
  130.6850  136.4430   73.9400 C   0  0  0  0  0  0  0  0  0  0  0  0
  130.5400  136.8650   75.3950 C   0  0  0  0  0  0  0  0  0  0  0  0
  130.1860  135.2210   73.4120 C   0  0  0  0  0  0  0  0  0  0  0  0
  129.4690  134.1270   74.0090 C   0  0  0  0  0  0  0  0  0  0  0  0
  129.1220  134.1180   75.3370 N   0  0  0  0  0  0  0  0  0  0  0  0
  129.1640  133.0890   73.1150 C   0  0  0  0  0  0  0  0  0  0  0  0
  128.4650  131.8310   73.3830 C   0  0  0  0  0  0  0  0  0  0  0  0
  128.9240  130.7590   72.9810 O   0  0  0  0  0  0  0  0  0  0  0  0
  127.3180  131.9440   74.0970 N   0  0  0  0  0  0  0  0  0  0  0  0
  126.4010  130.9470   74.4820 C   0  0  0  0  0  0  0  0  0  0  0  0
  126.6870  129.6510   74.0430 C   0  0  0  0  0  0  0  0  0  0  0  0
  125.8450  128.5940   74.3800 C   0  0  0  0  0  0  0  0  0  0  0  0
  124.7200  128.8320   75.1650 C   0  0  0  0  0  0  0  0  0  0  0  0
  124.4310  130.1160   75.6190 C   0  0  0  0  0  0  0  0  0  0  0  0
  125.2700  131.1750   75.2830 C   0  0  0  0  0  0  0  0  0  0  0  0
  129.7600  133.4490   71.4940 S   0  0  0  0  0  0  0  0  0  0  0  0
  130.4140  134.9820   72.0230 C   0  0  0  0  0  0  0  0  0  0  0  0
  131.0500  135.8060   71.1880 N   0  0  0  0  0  0  0  0  0  0  0  0
  1  2  1  0
  2  3  2  0
  3  4  1  0
  4  5  1  0
  4  6  2  0
  6  7  1  0
  7  8  1  0
  7  9  2  0
  9 10  1  0
 10 11  2  0
 10 12  1  0
 12 13  1  0
 13 14  2  0
 14 15  1  0
 15 16  2  0
 16 17  1  0
 17 18  2  0
  9 19  1  0
 19 20  1  0
 20 21  2  0
 21  2  1  0
 20  6  1  0
 18 13  1  0
M  END
>  <Binding energies>  (40) 
[-7.22]

>  <Ligand effiencies>  (40) 
[-0.30083333333333334]

>  <Interactions>  (40) 
["V-A:LYS:547:CE:4948, H-A:LYS:547:NZ:4949, V-B:HIS:456:CD2:9040, V-A:GLY:544:CA:4912, V-B:VAL:458:CG2:9059, V-B:LYS:471:CE:9192, H-B:ASP:473:OD2:9214, V-B:HIS:456:CG:9038, V-B:TYR:484:CG:9314, V-B:HIS:456:CB:9037, V-B:TYR:484:CB:9313, V-B:VAL:457:C:9045, V-B:HIS:456:C:9033, V-B:SER:483:CB:9305, V-A:VAL:542:CG1:4897, H-B:TYR:484:N:9312, V-A:GLU:543:C:4900, V-B:TYR:484:CD1:9315, V-A:GLU:543:CA:4902, V-B:SER:483:CA:9303, V-B:ASP:473:CG:9212"]

$$$$
4ae_Grossjean_2025
     RDKit          3D

 22 24  0  0  0  0  0  0  0  0999 V2000
  131.9760  126.9990   74.1120 C   0  0  0  0  0  0  0  0  0  0  0  0
  132.3600  125.5450   74.3070 C   0  0  0  0  0  0  0  0  0  0  0  0
  133.5940  125.1820   74.8510 C   0  0  0  0  0  0  0  0  0  0  0  0
  133.8820  123.8240   74.9950 C   0  0  0  0  0  0  0  0  0  0  0  0
  132.9400  122.8730   74.5940 C   0  0  0  0  0  0  0  0  0  0  0  0
  131.7200  123.3060   74.0650 C   0  0  0  0  0  0  0  0  0  0  0  0
  130.8220  122.3030   73.6610 N   0  0  0  0  0  0  0  0  0  0  0  0
  129.6710  122.4290   72.9540 C   0  0  0  0  0  0  0  0  0  0  0  0
  129.2280  123.5060   72.5510 O   0  0  0  0  0  0  0  0  0  0  0  0
  128.9570  121.1780   72.6890 C   0  0  0  0  0  0  0  0  0  0  0  0
  128.1930  120.9030   71.1230 S   0  0  0  0  0  0  0  0  0  0  0  0
  127.5940  119.3420   71.6350 C   0  0  0  0  0  0  0  0  0  0  0  0
  126.8690  118.5660   70.8300 N   0  0  0  0  0  0  0  0  0  0  0  0
  126.4620  117.3840   71.3510 C   0  0  0  0  0  0  0  0  0  0  0  0
  125.6320  116.5180   70.4200 C   0  0  0  0  0  0  0  0  0  0  0  0
  126.7620  116.9620   72.6450 C   0  0  0  0  0  0  0  0  0  0  0  0
  127.5240  117.7800   73.4880 C   0  0  0  0  0  0  0  0  0  0  0  0
  127.8220  117.2780   74.8920 C   0  0  0  0  0  0  0  0  0  0  0  0
  127.9680  119.0290   72.9760 C   0  0  0  0  0  0  0  0  0  0  0  0
  128.7470  120.0920   73.5540 C   0  0  0  0  0  0  0  0  0  0  0  0
  129.2300  120.0330   74.8360 N   0  0  0  0  0  0  0  0  0  0  0  0
  131.4340  124.6330   73.9150 N   0  0  0  0  0  0  0  0  0  0  0  0
  1  2  1  0
  2  3  2  0
  3  4  1  0
  4  5  2  0
  5  6  1  0
  6  7  1  0
  7  8  1  0
  8  9  2  0
  8 10  1  0
 10 11  1  0
 11 12  1  0
 12 13  2  0
 13 14  1  0
 14 15  1  0
 14 16  2  0
 16 17  1  0
 17 18  1  0
 17 19  2  0
 19 20  1  0
 20 21  1  0
  6 22  2  0
 22  2  1  0
 20 10  2  0
 19 12  1  0
M  END
>  <Binding energies>  (41) 
[-7.19]

>  <Ligand effiencies>  (41) 
[-0.2876]

>  <Interactions>  (41) 
["V-A:VAL:458:CG2:4085, V-A:HIS:456:CD2:4066, V-B:GLY:544:CA:9886, V-B:GLU:543:C:9874, H-B:LYS:547:NZ:9923, V-A:LYS:547:CE:4948, V-A:LYS:547:CD:4947, V-B:LYS:547:CE:9922, V-A:GLY:544:C:4910, V-A:ASP:473:CG:4238, V-A:HIS:456:CB:4063, V-A:TYR:484:CB:4339, V-A:HIS:456:CG:4064, V-A:LYS:471:CE:4218, V-A:ASP:473:CB:4237, V-A:TYR:484:CG:4340, V-A:LYS:547:CG:4946, V-A:HIS:456:C:4059, V-A:LYS:471:CG:4216, V-B:GLU:543:CA:9876, H-A:ASP:473:OD2:4240, V-A:SER:483:CB:4331, V-B:VAL:542:CG1:9871, V-A:TYR:484:CD1:4341, H-A:TYR:484:N:4338, V-A:HIS:456:CA:4061"]

$$$$
4af_Grossjean_2025
     RDKit          3D

 21 23  0  0  0  0  0  0  0  0999 V2000
  125.3270  123.2620   55.5150 C   0  0  0  0  0  0  0  0  0  0  0  0
  125.9350  123.4570   56.8920 C   0  0  0  0  0  0  0  0  0  0  0  0
  125.1290  123.6400   58.0130 C   0  0  0  0  0  0  0  0  0  0  0  0
  125.7120  123.8210   59.2730 C   0  0  0  0  0  0  0  0  0  0  0  0
  124.7910  124.0190   60.4660 C   0  0  0  0  0  0  0  0  0  0  0  0
  127.1310  123.8110   59.3550 C   0  0  0  0  0  0  0  0  0  0  0  0
  128.0400  123.9660   60.4590 C   0  0  0  0  0  0  0  0  0  0  0  0
  127.6020  124.1680   61.7440 N   0  0  0  0  0  0  0  0  0  0  0  0
  129.3940  123.8910   60.0980 C   0  0  0  0  0  0  0  0  0  0  0  0
  130.5740  124.0340   60.9530 C   0  0  0  0  0  0  0  0  0  0  0  0
  131.6860  123.6900   60.5490 O   0  0  0  0  0  0  0  0  0  0  0  0
  130.3440  124.5740   62.1740 N   0  0  0  0  0  0  0  0  0  0  0  0
  131.2390  124.8000   63.2370 C   0  0  0  0  0  0  0  0  0  0  0  0
  130.8870  125.2820   64.5110 C   0  0  0  0  0  0  0  0  0  0  0  0
  131.8800  125.4790   65.4730 C   0  0  0  0  0  0  0  0  0  0  0  0
  133.2040  125.1940   65.1360 C   0  0  0  0  0  0  0  0  0  0  0  0
  133.5700  124.7370   63.9120 N   0  0  0  0  0  0  0  0  0  0  0  0
  132.5940  124.5500   62.9880 C   0  0  0  0  0  0  0  0  0  0  0  0
  129.5760  123.6260   58.3620 S   0  0  0  0  0  0  0  0  0  0  0  0
  127.8420  123.6150   58.1340 C   0  0  0  0  0  0  0  0  0  0  0  0
  127.2900  123.4410   56.9320 N   0  0  0  0  0  0  0  0  0  0  0  0
  1  2  1  0
  2  3  2  0
  3  4  1  0
  4  5  1  0
  4  6  2  0
  6  7  1  0
  7  8  1  0
  7  9  2  0
  9 10  1  0
 10 11  2  0
 10 12  1  0
 12 13  1  0
 13 14  2  0
 14 15  1  0
 15 16  2  0
 16 17  1  0
 17 18  2  0
  9 19  1  0
 19 20  1  0
 20 21  2  0
 21  2  1  0
 20  6  1  0
 18 13  1  0
M  END
>  <Binding energies>  (42) 
[-7.28]

>  <Ligand effiencies>  (42) 
[-0.30333333333333334]

>  <Interactions>  (42) 
["V-B:TYR:539:C:9839, V-B:PRO:540:CD:9859, V-B:PRO:540:CB:9857, V-B:PRO:540:CA:9855, V-B:TYR:539:CZ:9849, V-B:PRO:540:N:9856, V-B:ILE:538:CG2:9835, V-B:ILE:538:CB:9834, V-B:ILE:538:CA:9832, V-B:TYR:539:CD2:9846, V-B:TYR:539:CE2:9848, V-B:TYR:531:CE2:9765, V-A:HIS:456:CE1:4068, V-B:GLU:543:CD:9880, H-A:TYR:484:OH:4346, V-A:ARG:545:CZ:4924, H-A:GLY:454:N:4048, H-A:ARG:545:NE:4922, H-B:GLU:543:OE2:9882, H-B:ALA:541:O:9861, H-B:GLU:543:OE1:9881, V-A:ARG:545:CD:4921, V-A:ARG:545:CG:4920"]

$$$$
4ag_Grossjean_2025
     RDKit          3D

 22 24  0  0  0  0  0  0  0  0999 V2000
  127.0990  123.2840   53.3730 C   0  0  0  0  0  0  0  0  0  0  0  0
  126.7660  123.4180   54.8480 C   0  0  0  0  0  0  0  0  0  0  0  0
  125.4960  123.8140   55.2630 C   0  0  0  0  0  0  0  0  0  0  0  0
  125.2100  123.9310   56.6270 C   0  0  0  0  0  0  0  0  0  0  0  0
  123.8090  124.3650   57.0310 C   0  0  0  0  0  0  0  0  0  0  0  0
  126.2490  123.6350   57.5500 C   0  0  0  0  0  0  0  0  0  0  0  0
  126.3020  123.6500   58.9870 C   0  0  0  0  0  0  0  0  0  0  0  0
  125.2200  123.9940   59.7580 N   0  0  0  0  0  0  0  0  0  0  0  0
  127.5500  123.2860   59.5140 C   0  0  0  0  0  0  0  0  0  0  0  0
  127.9490  123.1860   60.9180 C   0  0  0  0  0  0  0  0  0  0  0  0
  127.1210  123.2620   61.8280 O   0  0  0  0  0  0  0  0  0  0  0  0
  129.2690  123.0240   61.1500 N   0  0  0  0  0  0  0  0  0  0  0  0
  129.8850  122.8750   62.4670 C   0  0  0  0  0  0  0  0  0  0  0  0
  131.2400  123.5610   62.5980 C   0  0  0  0  0  0  0  0  0  0  0  0
  131.4960  124.3930   63.6920 C   0  0  0  0  0  0  0  0  0  0  0  0
  132.7410  125.0020   63.8270 C   0  0  0  0  0  0  0  0  0  0  0  0
  133.7310  124.7670   62.8740 C   0  0  0  0  0  0  0  0  0  0  0  0
  133.4880  123.9260   61.7900 C   0  0  0  0  0  0  0  0  0  0  0  0
  132.2430  123.3170   61.6550 C   0  0  0  0  0  0  0  0  0  0  0  0
  128.6980  122.9020   58.2320 S   0  0  0  0  0  0  0  0  0  0  0  0
  127.5050  123.2400   56.9990 C   0  0  0  0  0  0  0  0  0  0  0  0
  127.7800  123.1260   55.6980 N   0  0  0  0  0  0  0  0  0  0  0  0
  1  2  1  0
  2  3  2  0
  3  4  1  0
  4  5  1  0
  4  6  2  0
  6  7  1  0
  7  8  1  0
  7  9  2  0
  9 10  1  0
 10 11  2  0
 10 12  1  0
 12 13  1  0
 13 14  1  0
 14 15  2  0
 15 16  1  0
 16 17  2  0
 17 18  1  0
 18 19  2  0
  9 20  1  0
 20 21  1  0
 21 22  2  0
 22  2  1  0
 21  6  1  0
 19 14  1  0
M  END
>  <Binding energies>  (43) 
[-7.63]

>  <Ligand effiencies>  (43) 
[-0.30519999999999997]

>  <Interactions>  (43) 
["V-B:TYR:531:CZ:9766, V-B:TYR:539:C:9839, H-B:TYR:539:N:9842, V-B:MET:535:CG:9805, V-B:MET:535:CB:9804, V-B:PRO:540:CB:9857, V-B:PRO:540:CA:9855, H-B:ALA:541:N:9863, V-B:PRO:540:N:9856, V-B:ILE:538:CG2:9835, V-B:ILE:538:CB:9834, V-B:ILE:538:CA:9832, V-B:TYR:539:CD2:9846, V-B:ILE:538:C:9830, V-B:TYR:539:CE2:9848, V-B:LEU:363:CD1:8161, V-B:VAL:537:C:9822, V-B:TYR:531:CE2:9765, H-B:ASP:366:OD2:8187, V-B:TYR:539:CG:9844, V-B:ALA:541:CB:9864, V-A:ARG:545:CZ:4924, V-B:LEU:363:CA:8157, V-A:GLY:453:C:4040, V-A:GLY:453:CA:4042"]

$$$$
4ah_Grossjean_2025
     RDKit          3D

 28 30  0  0  0  0  0  0  0  0999 V2000
  133.1260  132.2430   55.8440 C   0  0  0  0  0  0  0  0  0  0  0  0
  131.7580  132.6310   55.8960 O   0  0  0  0  0  0  0  0  0  0  0  0
  130.9380  132.1010   56.8770 C   0  0  0  0  0  0  0  0  0  0  0  0
  131.3980  131.6630   58.1290 C   0  0  0  0  0  0  0  0  0  0  0  0
  130.5130  131.1370   59.0710 C   0  0  0  0  0  0  0  0  0  0  0  0
  131.0220  130.7100   60.4430 C   0  0  0  0  0  0  0  0  0  0  0  0
  131.2560  129.2710   60.5590 N   0  0  0  0  0  0  0  0  0  0  0  0
  130.2960  128.3290   60.6770 C   0  0  0  0  0  0  0  0  0  0  0  0
  129.0970  128.6070   60.7380 O   0  0  0  0  0  0  0  0  0  0  0  0
  130.7630  126.9470   60.7730 C   0  0  0  0  0  0  0  0  0  0  0  0
  131.4910  126.1580   59.3730 S   0  0  0  0  0  0  0  0  0  0  0  0
  131.6950  124.6660   60.2640 C   0  0  0  0  0  0  0  0  0  0  0  0
  132.2460  123.5840   59.7130 N   0  0  0  0  0  0  0  0  0  0  0  0
  132.3470  122.4950   60.5120 C   0  0  0  0  0  0  0  0  0  0  0  0
  132.9740  121.2740   59.8640 C   0  0  0  0  0  0  0  0  0  0  0  0
  131.9160  122.4620   61.8360 C   0  0  0  0  0  0  0  0  0  0  0  0
  131.3350  123.5980   62.4120 C   0  0  0  0  0  0  0  0  0  0  0  0
  130.8790  123.5140   63.8600 C   0  0  0  0  0  0  0  0  0  0  0  0
  131.2110  124.7610   61.6040 C   0  0  0  0  0  0  0  0  0  0  0  0
  130.6730  126.0690   61.8640 C   0  0  0  0  0  0  0  0  0  0  0  0
  130.1340  126.4140   63.0770 N   0  0  0  0  0  0  0  0  0  0  0  0
  129.1510  131.0700   58.7740 C   0  0  0  0  0  0  0  0  0  0  0  0
  128.6640  131.4940   57.5270 C   0  0  0  0  0  0  0  0  0  0  0  0
  127.3310  131.4420   57.1610 O   0  0  0  0  0  0  0  0  0  0  0  0
  126.5180  130.3740   57.6360 C   0  0  0  0  0  0  0  0  0  0  0  0
  129.5700  132.0020   56.5850 C   0  0  0  0  0  0  0  0  0  0  0  0
  129.1050  132.4390   55.3680 O   0  0  0  0  0  0  0  0  0  0  0  0
  129.2660  131.4970   54.3160 C   0  0  0  0  0  0  0  0  0  0  0  0
  1  2  1  0
  2  3  1  0
  3  4  2  0
  4  5  1  0
  5  6  1  0
  6  7  1  0
  7  8  1  0
  8  9  2  0
  8 10  1  0
 10 11  1  0
 11 12  1  0
 12 13  2  0
 13 14  1  0
 14 15  1  0
 14 16  2  0
 16 17  1  0
 17 18  1  0
 17 19  2  0
 19 20  1  0
 20 21  1  0
  5 22  2  0
 22 23  1  0
 23 24  1  0
 24 25  1  0
 23 26  2  0
 26 27  1  0
 27 28  1  0
 26  3  1  0
 20 10  2  0
 19 12  1  0
M  END
>  <Binding energies>  (44) 
[-7.23]

>  <Ligand effiencies>  (44) 
[-0.23322580645161292]

>  <Interactions>  (44) 
["V-A:TYR:531:CE2:4791, V-A:PRO:540:CD:4885, V-A:PRO:540:N:4882, H-A:TYR:539:N:4868, V-A:TYR:539:CE1:4873, V-A:TYR:539:CZ:4875, V-A:PRO:540:CB:4883, V-A:LEU:363:CD1:3187, V-A:ILE:538:CG2:4861, V-A:ILE:538:CA:4858, V-A:ILE:538:CB:4860, V-A:PRO:540:CG:4884, V-A:PRO:540:CA:4881, V-B:TYR:539:CD2:9846, V-B:TYR:539:CE2:9848, V-A:GLU:543:CD:4906, V-A:TYR:539:C:4865, V-B:GLU:543:CD:9880, V-A:TYR:539:CE2:4874, V-A:ASP:366:CG:3211, H-A:GLU:543:OE1:4907, H-A:ASP:366:OD2:3213, H-A:TYR:539:OH:4876, V-A:ILE:369:CG2:3235, V-A:LEU:475:CD2:4257, H-B:GLU:543:OE2:9882, H-B:GLU:543:OE1:9881, H-A:GLU:543:OE2:4908, H-A:ASP:366:OD1:3212"]

$$$$
4ai_Grossjean_2025
     RDKit          3D

 20 22  0  0  0  0  0  0  0  0999 V2000
  129.6860  132.2400   55.0840 C   0  0  0  0  0  0  0  0  0  0  0  0
  129.7120  132.0270   56.5870 C   0  0  0  0  0  0  0  0  0  0  0  0
  130.8920  131.6820   57.2420 C   0  0  0  0  0  0  0  0  0  0  0  0
  130.8940  131.4960   58.6290 C   0  0  0  0  0  0  0  0  0  0  0  0
  132.2080  131.1230   59.2990 C   0  0  0  0  0  0  0  0  0  0  0  0
  129.6670  131.6730   59.3240 C   0  0  0  0  0  0  0  0  0  0  0  0
  129.3160  131.5650   60.7140 C   0  0  0  0  0  0  0  0  0  0  0  0
  130.2340  131.2290   61.6770 N   0  0  0  0  0  0  0  0  0  0  0  0
  127.9660  131.8380   60.9850 C   0  0  0  0  0  0  0  0  0  0  0  0
  127.2720  131.8120   62.2740 C   0  0  0  0  0  0  0  0  0  0  0  0
  127.3750  132.7530   63.0640 O   0  0  0  0  0  0  0  0  0  0  0  0
  126.5180  130.7080   62.5060 N   0  0  0  0  0  0  0  0  0  0  0  0
  125.7530  130.4290   63.6310 C   0  0  0  0  0  0  0  0  0  0  0  0
  126.2310  129.6900   64.7130 C   0  0  0  0  0  0  0  0  0  0  0  0
  125.1820  129.6370   65.6020 C   0  0  0  0  0  0  0  0  0  0  0  0
  124.1280  130.3110   65.0840 O   0  0  0  0  0  0  0  0  0  0  0  0
  124.5020  130.8090   63.8350 N   0  0  0  0  0  0  0  0  0  0  0  0
  127.0830  132.2150   59.5040 S   0  0  0  0  0  0  0  0  0  0  0  0
  128.5290  132.0250   58.5370 C   0  0  0  0  0  0  0  0  0  0  0  0
  128.5230  132.2020   57.2150 N   0  0  0  0  0  0  0  0  0  0  0  0
  1  2  1  0
  2  3  2  0
  3  4  1  0
  4  5  1  0
  4  6  2  0
  6  7  1  0
  7  8  1  0
  7  9  2  0
  9 10  1  0
 10 11  2  0
 10 12  1  0
 12 13  1  0
 13 14  1  0
 14 15  2  0
 15 16  1  0
 16 17  1  0
  9 18  1  0
 18 19  1  0
 19 20  2  0
 20  2  1  0
 19  6  1  0
 17 13  2  0
M  END
>  <Binding energies>  (45) 
[-6.96]

>  <Ligand effiencies>  (45) 
[-0.3026086956521739]

>  <Interactions>  (45) 
["V-A:PRO:540:N:4882, V-A:TYR:539:CE1:4873, V-A:PRO:540:CB:4883, V-A:ILE:538:CA:4858, V-A:ILE:538:CB:4860, V-A:PRO:540:CA:4881, V-B:HIS:456:CE1:9042, V-A:GLU:543:CD:4906, V-A:TYR:539:C:4865, V-A:TYR:539:CE2:4874, H-A:GLU:543:OE1:4907, H-A:ALA:541:O:4887, V-B:ARG:545:CZ:9898, V-A:TYR:539:CD1:4871, V-A:TYR:539:CD2:4872, H-B:GLY:454:N:9022, V-A:ALA:541:CB:4890, H-B:TYR:484:OH:9320, H-B:ARG:545:NE:9896, V-A:ILE:538:C:4856, H-A:GLU:543:OE2:4908, V-B:ARG:545:CD:9895, V-B:ARG:545:CG:9894"]

$$$$
4aj_Grossjean_2025
     RDKit          3D

 20 22  0  0  0  0  0  0  0  0999 V2000
  125.9270  116.4850   70.7500 C   0  0  0  0  0  0  0  0  0  0  0  0
  126.7190  117.4270   71.6380 C   0  0  0  0  0  0  0  0  0  0  0  0
  127.0680  117.0640   72.9370 C   0  0  0  0  0  0  0  0  0  0  0  0
  127.7950  117.9500   73.7410 C   0  0  0  0  0  0  0  0  0  0  0  0
  128.1510  117.5070   75.1510 C   0  0  0  0  0  0  0  0  0  0  0  0
  128.1530  119.2070   73.1850 C   0  0  0  0  0  0  0  0  0  0  0  0
  128.8780  120.3300   73.7160 C   0  0  0  0  0  0  0  0  0  0  0  0
  129.3820  120.3400   74.9920 N   0  0  0  0  0  0  0  0  0  0  0  0
  129.0210  121.3950   72.8130 C   0  0  0  0  0  0  0  0  0  0  0  0
  129.6860  122.6830   73.0210 C   0  0  0  0  0  0  0  0  0  0  0  0
  129.2220  123.7170   72.5340 O   0  0  0  0  0  0  0  0  0  0  0  0
  130.8090  122.6430   73.7790 N   0  0  0  0  0  0  0  0  0  0  0  0
  131.6130  123.7170   74.1350 C   0  0  0  0  0  0  0  0  0  0  0  0
  131.3560  125.0000   73.9940 N   0  0  0  0  0  0  0  0  0  0  0  0
  132.3460  125.7450   74.4460 C   0  0  0  0  0  0  0  0  0  0  0  0
  133.4420  125.0620   74.9680 C   0  0  0  0  0  0  0  0  0  0  0  0
  133.1470  123.3520   74.8570 S   0  0  0  0  0  0  0  0  0  0  0  0
  128.2390  121.0330   71.2730 S   0  0  0  0  0  0  0  0  0  0  0  0
  127.7380  119.4570   71.8430 C   0  0  0  0  0  0  0  0  0  0  0  0
  127.0450  118.6160   71.0740 N   0  0  0  0  0  0  0  0  0  0  0  0
  1  2  1  0
  2  3  2  0
  3  4  1  0
  4  5  1  0
  4  6  2  0
  6  7  1  0
  7  8  1  0
  7  9  2  0
  9 10  1  0
 10 11  2  0
 10 12  1  0
 12 13  1  0
 13 14  2  0
 14 15  1  0
 15 16  2  0
 16 17  1  0
  9 18  1  0
 18 19  1  0
 19 20  2  0
 20  2  1  0
 19  6  1  0
 17 13  1  0
M  END
>  <Binding energies>  (46) 
[-6.75]

>  <Ligand effiencies>  (46) 
[-0.29347826086956524]

>  <Interactions>  (46) 
["V-A:VAL:458:CG2:4085, V-A:HIS:456:CD2:4066, V-B:GLY:544:CA:9886, V-B:GLU:543:C:9874, H-B:LYS:547:NZ:9923, V-B:LYS:547:CE:9922, V-A:LYS:471:CD:4217, V-A:ASP:473:CG:4238, V-A:HIS:456:CB:4063, V-A:TYR:484:CB:4339, V-A:HIS:456:CG:4064, V-A:LYS:471:CE:4218, V-A:TYR:484:CG:4340, V-A:HIS:456:C:4059, V-B:GLU:543:CA:9876, H-A:ASP:473:OD2:4240, V-A:SER:483:CB:4331, V-B:VAL:542:CG1:9871, V-A:TYR:484:CD1:4341, H-A:TYR:484:N:4338"]

$$$$
4ak_Grossjean_2025
     RDKit          3D

 25 26  0  0  0  0  0  0  0  0999 V2000
  134.2020  123.9030   58.7170 C   0  0  0  0  0  0  0  0  0  0  0  0
  133.4960  124.2150   57.5260 O   0  0  0  0  0  0  0  0  0  0  0  0
  132.1970  124.7440   57.7600 C   0  0  0  0  0  0  0  0  0  0  0  0
  131.9790  125.9770   56.8730 C   0  0  0  0  0  0  0  0  0  0  0  0
  131.8940  125.5700   55.5140 O   0  0  0  0  0  0  0  0  0  0  0  0
  130.5720  125.2710   55.0860 C   0  0  0  0  0  0  0  0  0  0  0  0
  130.4930  125.3950   53.5600 C   0  0  0  0  0  0  0  0  0  0  0  0
  129.9990  124.1790   53.0150 O   0  0  0  0  0  0  0  0  0  0  0  0
  128.8960  124.3500   52.1350 C   0  0  0  0  0  0  0  0  0  0  0  0
  127.6000  123.9370   52.8570 C   0  0  0  0  0  0  0  0  0  0  0  0
  127.7550  123.7950   54.3040 N   0  0  0  0  0  0  0  0  0  0  0  0
  126.7770  123.9720   55.2150 C   0  0  0  0  0  0  0  0  0  0  0  0
  125.6220  124.2590   54.8960 O   0  0  0  0  0  0  0  0  0  0  0  0
  127.1620  123.7960   56.6140 C   0  0  0  0  0  0  0  0  0  0  0  0
  128.6900  123.0190   57.0270 S   0  0  0  0  0  0  0  0  0  0  0  0
  128.3820  123.2180   58.7370 C   0  0  0  0  0  0  0  0  0  0  0  0
  129.2420  122.7900   59.6630 N   0  0  0  0  0  0  0  0  0  0  0  0
  128.8820  123.0040   60.9520 C   0  0  0  0  0  0  0  0  0  0  0  0
  129.8740  122.5120   61.9900 C   0  0  0  0  0  0  0  0  0  0  0  0
  127.6970  123.6290   61.3330 C   0  0  0  0  0  0  0  0  0  0  0  0
  126.7970  124.0770   60.3590 C   0  0  0  0  0  0  0  0  0  0  0  0
  125.5150  124.7500   60.8240 C   0  0  0  0  0  0  0  0  0  0  0  0
  127.1390  123.8700   58.9960 C   0  0  0  0  0  0  0  0  0  0  0  0
  126.4660  124.1940   57.7670 C   0  0  0  0  0  0  0  0  0  0  0  0
  125.2510  124.8320   57.7420 N   0  0  0  0  0  0  0  0  0  0  0  0
  1  2  1  0
  2  3  1  0
  3  4  1  0
  4  5  1  0
  5  6  1  0
  6  7  1  0
  7  8  1  0
  8  9  1  0
  9 10  1  0
 10 11  1  0
 11 12  1  0
 12 13  2  0
 12 14  1  0
 14 15  1  0
 15 16  1  0
 16 17  2  0
 17 18  1  0
 18 19  1  0
 18 20  2  0
 20 21  1  0
 21 22  1  0
 21 23  2  0
 23 24  1  0
 24 25  1  0
 24 14  2  0
 23 16  1  0
M  END
>  <Binding energies>  (47) 
[-6.56]

>  <Ligand effiencies>  (47) 
[-0.23428571428571426]

>  <Interactions>  (47) 
["H-A:TYR:531:OH:4793, V-B:TYR:539:C:9839, V-B:MET:535:CG:9805, V-B:MET:535:CB:9804, V-B:PRO:540:CA:9855, V-B:TYR:539:CZ:9849, V-B:ILE:538:CG2:9835, V-B:TYR:539:CE1:9847, V-B:ILE:538:CA:9832, V-A:MET:535:CE:4833, V-A:TYR:531:CE1:4790, V-B:TYR:539:CD2:9846, H-B:TYR:539:OH:9850, V-B:TYR:539:CD1:9845, V-B:TYR:539:CE2:9848, V-B:VAL:537:C:9822, H-B:TYR:531:OH:9767, H-B:ASP:366:OD2:8187, V-B:GLU:543:CD:9880, V-A:ASP:366:CG:3211, V-B:TYR:539:CG:9844, V-A:ILE:369:CD1:3237, V-B:ALA:541:CB:9864, V-A:ILE:369:CG2:3235, V-A:ASP:366:CB:3210, V-A:ILE:369:CB:3234, V-A:ASP:366:CA:3208, H-A:ASN:370:ND2:3246"]

$$$$
4al_Grossjean_2025
     RDKit          3D

 16 17  0  0  0  0  0  0  0  0999 V2000
  130.0110  124.1190   61.7100 C   0  0  0  0  0  0  0  0  0  0  0  0
  129.2150  123.0510   61.2210 O   0  0  0  0  0  0  0  0  0  0  0  0
  127.8760  123.2010   61.0500 C   0  0  0  0  0  0  0  0  0  0  0  0
  127.0650  123.2590   61.9770 O   0  0  0  0  0  0  0  0  0  0  0  0
  127.4830  123.2880   59.6270 C   0  0  0  0  0  0  0  0  0  0  0  0
  128.6530  122.8950   58.3640 S   0  0  0  0  0  0  0  0  0  0  0  0
  127.4770  123.2290   57.1140 C   0  0  0  0  0  0  0  0  0  0  0  0
  127.7710  123.1060   55.8190 N   0  0  0  0  0  0  0  0  0  0  0  0
  126.7690  123.3950   54.9500 C   0  0  0  0  0  0  0  0  0  0  0  0
  127.1250  123.2500   53.4820 C   0  0  0  0  0  0  0  0  0  0  0  0
  125.4950  123.8000   55.3440 C   0  0  0  0  0  0  0  0  0  0  0  0
  125.1900  123.9270   56.7040 C   0  0  0  0  0  0  0  0  0  0  0  0
  123.7870  124.3710   57.0840 C   0  0  0  0  0  0  0  0  0  0  0  0
  126.2150  123.6320   57.6430 C   0  0  0  0  0  0  0  0  0  0  0  0
  126.2490  123.6570   59.0790 C   0  0  0  0  0  0  0  0  0  0  0  0
  125.1630  124.0120   59.8370 N   0  0  0  0  0  0  0  0  0  0  0  0
  1  2  1  0
  2  3  1  0
  3  4  2  0
  3  5  1  0
  5  6  1  0
  6  7  1  0
  7  8  2  0
  8  9  1  0
  9 10  1  0
  9 11  2  0
 11 12  1  0
 12 13  1  0
 12 14  2  0
 14 15  1  0
 15 16  1  0
 15  5  2  0
 14  7  1  0
M  END
>  <Binding energies>  (48) 
[-5.82]

>  <Ligand effiencies>  (48) 
[-0.32333333333333336]

>  <Interactions>  (48) 
["V-B:TYR:531:CZ:9766, V-B:TYR:539:C:9839, H-B:TYR:539:N:9842, V-B:MET:535:CG:9805, V-B:MET:535:CB:9804, V-B:PRO:540:CB:9857, V-B:PRO:540:CA:9855, H-B:ALA:541:N:9863, V-B:PRO:540:N:9856, V-B:ILE:538:CG2:9835, V-B:ILE:538:CB:9834, V-B:ILE:538:CA:9832, V-B:TYR:539:CD2:9846, V-B:ILE:538:C:9830, V-B:TYR:539:CE2:9848, V-B:LEU:363:CD1:8161, V-B:VAL:537:C:9822, V-B:TYR:531:CE2:9765, H-B:ASP:366:OD2:8187, V-B:TYR:539:CG:9844, V-B:PRO:540:C:9853, V-B:ALA:541:CB:9864, V-B:LEU:363:CA:8157, V-B:ALA:541:CA:9862"]

$$$$
4bc_Grossjean_2025
     RDKit          3D

 26 28  0  0  0  0  0  0  0  0999 V2000
  133.5560  125.1260   65.5860 C   0  0  0  0  0  0  0  0  0  0  0  0
  134.1540  125.1520   64.2940 O   0  0  0  0  0  0  0  0  0  0  0  0
  133.3690  124.9100   63.1830 C   0  0  0  0  0  0  0  0  0  0  0  0
  132.0540  125.3710   63.2380 C   0  0  0  0  0  0  0  0  0  0  0  0
  131.1870  125.1730   62.1670 C   0  0  0  0  0  0  0  0  0  0  0  0
  131.6300  124.5160   61.0170 C   0  0  0  0  0  0  0  0  0  0  0  0
  130.6810  124.3490   59.9920 N   0  0  0  0  0  0  0  0  0  0  0  0
  130.8750  124.1950   58.6600 C   0  0  0  0  0  0  0  0  0  0  0  0
  131.9820  124.2160   58.1200 O   0  0  0  0  0  0  0  0  0  0  0  0
  129.6590  124.0040   57.8640 C   0  0  0  0  0  0  0  0  0  0  0  0
  128.1580  123.5090   58.6420 S   0  0  0  0  0  0  0  0  0  0  0  0
  127.3100  123.5150   57.1140 C   0  0  0  0  0  0  0  0  0  0  0  0
  126.0170  123.2000   57.0350 N   0  0  0  0  0  0  0  0  0  0  0  0
  125.4710  123.2390   55.7990 C   0  0  0  0  0  0  0  0  0  0  0  0
  123.9970  122.8820   55.7310 C   0  0  0  0  0  0  0  0  0  0  0  0
  126.1790  123.5800   54.6490 C   0  0  0  0  0  0  0  0  0  0  0  0
  127.5410  123.9120   54.7260 C   0  0  0  0  0  0  0  0  0  0  0  0
  128.2790  124.2790   53.4330 C   0  0  0  0  0  0  0  0  0  0  0  0
  129.4180  123.6030   53.2740 F   0  0  0  0  0  0  0  0  0  0  0  0
  127.5050  124.0110   52.3820 F   0  0  0  0  0  0  0  0  0  0  0  0
  128.5820  125.5770   53.4380 F   0  0  0  0  0  0  0  0  0  0  0  0
  128.1480  123.8830   56.0170 C   0  0  0  0  0  0  0  0  0  0  0  0
  129.4870  124.1600   56.4790 C   0  0  0  0  0  0  0  0  0  0  0  0
  130.4970  124.5410   55.6340 N   0  0  0  0  0  0  0  0  0  0  0  0
  132.9480  124.0380   60.9590 C   0  0  0  0  0  0  0  0  0  0  0  0
  133.8110  124.2370   62.0330 C   0  0  0  0  0  0  0  0  0  0  0  0
  1  2  1  0
  2  3  1  0
  3  4  2  0
  4  5  1  0
  5  6  2  0
  6  7  1  0
  7  8  1  0
  8  9  2  0
  8 10  1  0
 10 11  1  0
 11 12  1  0
 12 13  2  0
 13 14  1  0
 14 15  1  0
 14 16  2  0
 16 17  1  0
 17 18  1  0
 18 19  1  0
 18 20  1  0
 18 21  1  0
 17 22  2  0
 22 23  1  0
 23 24  1  0
  6 25  1  0
 25 26  2  0
 26  3  1  0
 23 10  2  0
 22 12  1  0
M  END
>  <Binding energies>  (49) 
[-6.79]

>  <Ligand effiencies>  (49) 
[-0.23413793103448277]

>  <Interactions>  (49) 
["V-B:TYR:539:C:9839, V-B:PRO:540:CD:9859, V-B:MET:535:CG:9805, V-B:MET:535:CB:9804, V-B:TYR:539:CZ:9849, V-B:PRO:540:N:9856, V-B:ILE:538:CG2:9835, V-B:ILE:538:CB:9834, V-B:TYR:539:CE1:9847, V-B:ILE:538:CA:9832, V-A:MET:535:CE:4833, V-B:TYR:539:CD2:9846, H-B:TYR:539:OH:9850, V-B:TYR:539:CD1:9845, V-B:TYR:539:CE2:9848, V-B:LEU:363:CD1:8161, V-B:VAL:537:C:9822, V-B:TYR:531:CE2:9765, V-A:HIS:456:CE1:4068, V-A:ILE:369:CD1:3237, H-A:TYR:484:OH:4346, V-A:ARG:545:CZ:4924, H-A:GLY:454:N:4048, V-B:ILE:538:CD1:9837, H-A:ARG:545:NH1:4925, H-A:ARG:545:NE:4922, V-A:GLY:453:CA:4042, V-A:TYR:484:CZ:4345, V-A:ARG:545:CD:4921, V-A:ARG:545:CG:4920, V-B:MET:535:CA:9802, V-B:MET:535:C:9800"]

$$$$
4bf_Grossjean_2025
     RDKit          3D

 24 26  0  0  0  0  0  0  0  0999 V2000
  125.4600  123.2810   55.4610 C   0  0  0  0  0  0  0  0  0  0  0  0
  126.0390  123.4610   56.8530 C   0  0  0  0  0  0  0  0  0  0  0  0
  125.2090  123.6340   57.9580 C   0  0  0  0  0  0  0  0  0  0  0  0
  125.7580  123.8030   59.2390 C   0  0  0  0  0  0  0  0  0  0  0  0
  124.8060  123.9920   60.4240 C   0  0  0  0  0  0  0  0  0  0  0  0
  123.5260  124.0960   60.0550 F   0  0  0  0  0  0  0  0  0  0  0  0
  124.9000  122.9510   61.2500 F   0  0  0  0  0  0  0  0  0  0  0  0
  125.1220  125.1080   61.0830 F   0  0  0  0  0  0  0  0  0  0  0  0
  127.1810  123.7890   59.3460 C   0  0  0  0  0  0  0  0  0  0  0  0
  128.0820  123.9300   60.4640 C   0  0  0  0  0  0  0  0  0  0  0  0
  127.6410  124.1170   61.7500 N   0  0  0  0  0  0  0  0  0  0  0  0
  129.4410  123.8540   60.1190 C   0  0  0  0  0  0  0  0  0  0  0  0
  130.6140  123.9870   60.9900 C   0  0  0  0  0  0  0  0  0  0  0  0
  131.7190  123.5910   60.6180 O   0  0  0  0  0  0  0  0  0  0  0  0
  130.3820  124.5750   62.1890 N   0  0  0  0  0  0  0  0  0  0  0  0
  131.2670  124.8060   63.2590 C   0  0  0  0  0  0  0  0  0  0  0  0
  130.9000  125.2720   64.5340 C   0  0  0  0  0  0  0  0  0  0  0  0
  131.8840  125.4740   65.5050 C   0  0  0  0  0  0  0  0  0  0  0  0
  133.2130  125.2080   65.1760 C   0  0  0  0  0  0  0  0  0  0  0  0
  133.5930  124.7640   63.9520 N   0  0  0  0  0  0  0  0  0  0  0  0
  132.6260  124.5730   63.0180 C   0  0  0  0  0  0  0  0  0  0  0  0
  129.6460  123.6090   58.3860 S   0  0  0  0  0  0  0  0  0  0  0  0
  127.9160  123.6030   58.1350 C   0  0  0  0  0  0  0  0  0  0  0  0
  127.3900  123.4420   56.9210 N   0  0  0  0  0  0  0  0  0  0  0  0
  1  2  1  0
  2  3  2  0
  3  4  1  0
  4  5  1  0
  5  6  1  0
  5  7  1  0
  5  8  1  0
  4  9  2  0
  9 10  1  0
 10 11  1  0
 10 12  2  0
 12 13  1  0
 13 14  2  0
 13 15  1  0
 15 16  1  0
 16 17  2  0
 17 18  1  0
 18 19  2  0
 19 20  1  0
 20 21  2  0
 12 22  1  0
 22 23  1  0
 23 24  2  0
 24  2  1  0
 23  9  1  0
 21 16  1  0
M  END
>  <Binding energies>  (50) 
[-6.95]

>  <Ligand effiencies>  (50) 
[-0.2574074074074074]

>  <Interactions>  (50) 
["V-B:ASP:366:CG:8185, V-B:TYR:539:C:9839, V-B:PRO:540:CD:9859, V-B:PRO:540:CB:9857, V-B:PRO:540:CA:9855, V-B:ASN:362:C:8144, V-B:TYR:539:CZ:9849, V-B:PRO:540:N:9856, V-B:ILE:538:CG2:9835, V-B:ILE:538:CB:9834, V-B:ILE:538:CA:9832, V-B:ASN:362:CB:8148, V-B:TYR:539:CD2:9846, V-B:TYR:539:CE2:9848, V-A:HIS:456:CE1:4068, V-B:GLU:543:CD:9880, V-B:ARG:545:CZ:9898, V-B:PRO:540:C:9853, H-A:TYR:484:OH:4346, V-A:ARG:545:CZ:4924, H-A:GLY:454:N:4048, V-B:LEU:363:CA:8157, H-A:ARG:545:NE:4922, H-B:GLU:543:OE2:9882, V-B:ALA:541:C:9860, H-B:ALA:541:O:9861, H-B:GLU:543:OE1:9881, V-A:ARG:545:CD:4921, V-A:ARG:545:CG:4920, V-B:ALA:541:CA:9862"]

$$$$
4bh_Grossjean_2025
     RDKit          3D

 31 33  0  0  0  0  0  0  0  0999 V2000
  133.3800  132.3130   55.7540 C   0  0  0  0  0  0  0  0  0  0  0  0
  132.0280  132.7570   55.7520 O   0  0  0  0  0  0  0  0  0  0  0  0
  131.1440  132.2450   56.6840 C   0  0  0  0  0  0  0  0  0  0  0  0
  131.5160  131.8280   57.9710 C   0  0  0  0  0  0  0  0  0  0  0  0
  130.5690  131.3180   58.8610 C   0  0  0  0  0  0  0  0  0  0  0  0
  130.9840  130.9140   60.2700 C   0  0  0  0  0  0  0  0  0  0  0  0
  131.2350  129.4800   60.4160 N   0  0  0  0  0  0  0  0  0  0  0  0
  130.3320  128.5010   60.1930 C   0  0  0  0  0  0  0  0  0  0  0  0
  129.1660  128.7370   59.8740 O   0  0  0  0  0  0  0  0  0  0  0  0
  130.8060  127.1320   60.3970 C   0  0  0  0  0  0  0  0  0  0  0  0
  131.2690  126.1450   59.0140 S   0  0  0  0  0  0  0  0  0  0  0  0
  131.6230  124.7820   60.0520 C   0  0  0  0  0  0  0  0  0  0  0  0
  132.0620  123.6260   59.5550 N   0  0  0  0  0  0  0  0  0  0  0  0
  132.3030  122.6470   60.4570 C   0  0  0  0  0  0  0  0  0  0  0  0
  132.8010  121.3380   59.8700 C   0  0  0  0  0  0  0  0  0  0  0  0
  132.1200  122.7940   61.8290 C   0  0  0  0  0  0  0  0  0  0  0  0
  131.6560  124.0090   62.3580 C   0  0  0  0  0  0  0  0  0  0  0  0
  131.4730  124.1250   63.8750 C   0  0  0  0  0  0  0  0  0  0  0  0
  130.5570  125.0310   64.2230 F   0  0  0  0  0  0  0  0  0  0  0  0
  131.0830  122.9520   64.3730 F   0  0  0  0  0  0  0  0  0  0  0  0
  132.6250  124.4830   64.4420 F   0  0  0  0  0  0  0  0  0  0  0  0
  131.3890  125.0620   61.4340 C   0  0  0  0  0  0  0  0  0  0  0  0
  130.9090  126.4120   61.5970 C   0  0  0  0  0  0  0  0  0  0  0  0
  130.5900  126.9440   62.8200 N   0  0  0  0  0  0  0  0  0  0  0  0
  129.2300  131.2490   58.4730 C   0  0  0  0  0  0  0  0  0  0  0  0
  128.8300  131.6510   57.1900 C   0  0  0  0  0  0  0  0  0  0  0  0
  127.5240  131.5960   56.7350 O   0  0  0  0  0  0  0  0  0  0  0  0
  126.9620  130.3380   56.3790 C   0  0  0  0  0  0  0  0  0  0  0  0
  129.7980  132.1420   56.3020 C   0  0  0  0  0  0  0  0  0  0  0  0
  129.4170  132.5570   55.0470 O   0  0  0  0  0  0  0  0  0  0  0  0
  129.5800  131.5690   54.0390 C   0  0  0  0  0  0  0  0  0  0  0  0
  1  2  1  0
  2  3  1  0
  3  4  2  0
  4  5  1  0
  5  6  1  0
  6  7  1  0
  7  8  1  0
  8  9  2  0
  8 10  1  0
 10 11  1  0
 11 12  1  0
 12 13  2  0
 13 14  1  0
 14 15  1  0
 14 16  2  0
 16 17  1  0
 17 18  1  0
 18 19  1  0
 18 20  1  0
 18 21  1  0
 17 22  2  0
 22 23  1  0
 23 24  1  0
  5 25  2  0
 25 26  1  0
 26 27  1  0
 27 28  1  0
 26 29  2  0
 29 30  1  0
 30 31  1  0
 29  3  1  0
 23 10  2  0
 22 12  1  0
M  END
>  <Binding energies>  (51) 
[-6.45]

>  <Ligand effiencies>  (51) 
[-0.18970588235294117]

>  <Interactions>  (51) 
["V-A:TYR:531:CE2:4791, V-A:PRO:540:CD:4885, V-A:PRO:540:N:4882, H-A:TYR:539:N:4868, V-A:TYR:539:CZ:4875, V-A:PRO:540:CB:4883, V-A:LEU:363:CD1:3187, V-A:ILE:538:CG2:4861, V-A:ILE:538:CA:4858, V-A:ILE:538:CB:4860, V-A:PRO:540:CG:4884, V-A:MET:535:CB:4830, V-A:MET:535:CG:4831, V-A:PRO:540:CA:4881, V-B:TYR:539:CD2:9846, V-B:TYR:539:CE2:9848, V-A:GLU:543:CD:4906, V-A:TYR:539:C:4865, V-B:GLU:543:CD:9880, V-A:TYR:539:CE2:4874, V-A:ASP:366:CG:3211, H-A:GLU:543:OE1:4907, H-A:ASP:366:OD2:3213, V-A:TYR:539:CD2:4872, H-A:TYR:539:OH:4876, V-A:ARG:545:CZ:4924, V-A:ILE:369:CG2:3235, V-A:LEU:475:CD2:4257, V-A:TYR:484:CZ:4345, H-B:GLU:543:OE2:9882, H-A:GLU:543:OE2:4908, H-A:ASP:366:OD1:3212, V-A:TYR:484:CE1:4343"]

$$$$
4bi_Grossjean_2025
     RDKit          3D

 23 25  0  0  0  0  0  0  0  0999 V2000
  125.8890  123.2340   55.5110 C   0  0  0  0  0  0  0  0  0  0  0  0
  126.4790  123.4660   56.8900 C   0  0  0  0  0  0  0  0  0  0  0  0
  125.6580  123.6940   57.9920 C   0  0  0  0  0  0  0  0  0  0  0  0
  126.2180  123.9030   59.2630 C   0  0  0  0  0  0  0  0  0  0  0  0
  125.2750  124.1420   60.4470 C   0  0  0  0  0  0  0  0  0  0  0  0
  125.4270  123.2460   61.4250 F   0  0  0  0  0  0  0  0  0  0  0  0
  125.5030  125.3460   60.9710 F   0  0  0  0  0  0  0  0  0  0  0  0
  124.0080  124.0730   60.0360 F   0  0  0  0  0  0  0  0  0  0  0  0
  127.6410  123.8740   59.3620 C   0  0  0  0  0  0  0  0  0  0  0  0
  128.5500  124.0460   60.4680 C   0  0  0  0  0  0  0  0  0  0  0  0
  128.1240  124.3020   61.7470 N   0  0  0  0  0  0  0  0  0  0  0  0
  129.9060  123.9210   60.1220 C   0  0  0  0  0  0  0  0  0  0  0  0
  131.0850  124.0490   60.9830 C   0  0  0  0  0  0  0  0  0  0  0  0
  132.2130  123.8100   60.5460 O   0  0  0  0  0  0  0  0  0  0  0  0
  130.8370  124.4560   62.2530 N   0  0  0  0  0  0  0  0  0  0  0  0
  131.7610  124.6690   63.2680 C   0  0  0  0  0  0  0  0  0  0  0  0
  131.4360  125.2850   64.4760 C   0  0  0  0  0  0  0  0  0  0  0  0
  132.6100  125.3050   65.1950 C   0  0  0  0  0  0  0  0  0  0  0  0
  133.5900  124.7310   64.4570 O   0  0  0  0  0  0  0  0  0  0  0  0
  133.0390  124.3320   63.2380 N   0  0  0  0  0  0  0  0  0  0  0  0
  130.0970  123.6100   58.3980 S   0  0  0  0  0  0  0  0  0  0  0  0
  128.3660  123.6300   58.1560 C   0  0  0  0  0  0  0  0  0  0  0  0
  127.8300  123.4310   56.9520 N   0  0  0  0  0  0  0  0  0  0  0  0
  1  2  1  0
  2  3  2  0
  3  4  1  0
  4  5  1  0
  5  6  1  0
  5  7  1  0
  5  8  1  0
  4  9  2  0
  9 10  1  0
 10 11  1  0
 10 12  2  0
 12 13  1  0
 13 14  2  0
 13 15  1  0
 15 16  1  0
 16 17  1  0
 17 18  2  0
 18 19  1  0
 19 20  1  0
 12 21  1  0
 21 22  1  0
 22 23  2  0
 23  2  1  0
 22  9  1  0
 20 16  2  0
M  END
>  <Binding energies>  (52) 
[-6.69]

>  <Ligand effiencies>  (52) 
[-0.25730769230769235]

>  <Interactions>  (52) 
["V-B:ASP:366:CG:8185, V-B:TYR:539:C:9839, V-B:PRO:540:CB:9857, V-B:PRO:540:CA:9855, V-B:ASN:362:C:8144, V-B:TYR:539:CZ:9849, V-B:PRO:540:N:9856, V-B:ILE:538:CG2:9835, V-B:ILE:538:CB:9834, V-B:ILE:538:CA:9832, V-B:ASN:362:CB:8148, V-B:TYR:539:CD2:9846, V-B:TYR:539:CE2:9848, V-A:HIS:456:CE1:4068, V-B:GLU:543:CD:9880, V-B:ARG:545:CZ:9898, V-B:PRO:540:C:9853, H-A:TYR:484:OH:4346, V-A:ARG:545:CZ:4924, H-A:GLY:454:N:4048, H-A:ARG:545:NE:4922, H-B:GLU:543:OE2:9882, V-B:ALA:541:C:9860, H-B:ALA:541:O:9861, H-B:GLU:543:OE1:9881, V-A:ARG:545:CD:4921, V-A:ARG:545:CG:4920, V-B:ALA:541:CA:9862"]

$$$$
4bj_Grossjean_2025
     RDKit          3D

 23 25  0  0  0  0  0  0  0  0999 V2000
  125.9410  116.4860   70.7490 C   0  0  0  0  0  0  0  0  0  0  0  0
  126.7340  117.4200   71.6450 C   0  0  0  0  0  0  0  0  0  0  0  0
  127.0860  117.0450   72.9390 C   0  0  0  0  0  0  0  0  0  0  0  0
  127.8150  117.9210   73.7590 C   0  0  0  0  0  0  0  0  0  0  0  0
  128.1780  117.4650   75.1770 C   0  0  0  0  0  0  0  0  0  0  0  0
  127.7150  118.2850   76.1230 F   0  0  0  0  0  0  0  0  0  0  0  0
  127.6630  116.2580   75.4080 F   0  0  0  0  0  0  0  0  0  0  0  0
  129.5030  117.4120   75.3070 F   0  0  0  0  0  0  0  0  0  0  0  0
  128.1700  119.1870   73.2070 C   0  0  0  0  0  0  0  0  0  0  0  0
  128.8930  120.3200   73.7330 C   0  0  0  0  0  0  0  0  0  0  0  0
  129.4040  120.3460   75.0060 N   0  0  0  0  0  0  0  0  0  0  0  0
  129.0300  121.3840   72.8280 C   0  0  0  0  0  0  0  0  0  0  0  0
  129.6890  122.6760   73.0310 C   0  0  0  0  0  0  0  0  0  0  0  0
  129.2180  123.7080   72.5460 O   0  0  0  0  0  0  0  0  0  0  0  0
  130.8140  122.6440   73.7860 N   0  0  0  0  0  0  0  0  0  0  0  0
  131.6150  123.7230   74.1360 C   0  0  0  0  0  0  0  0  0  0  0  0
  131.3600  125.0040   73.9760 N   0  0  0  0  0  0  0  0  0  0  0  0
  132.3440  125.7540   74.4300 C   0  0  0  0  0  0  0  0  0  0  0  0
  133.4320  125.0790   74.9750 C   0  0  0  0  0  0  0  0  0  0  0  0
  133.1420  123.3680   74.8790 S   0  0  0  0  0  0  0  0  0  0  0  0
  128.2430  121.0220   71.2930 S   0  0  0  0  0  0  0  0  0  0  0  0
  127.7510  119.4460   71.8660 C   0  0  0  0  0  0  0  0  0  0  0  0
  127.0570  118.6120   71.0920 N   0  0  0  0  0  0  0  0  0  0  0  0
  1  2  1  0
  2  3  2  0
  3  4  1  0
  4  5  1  0
  5  6  1  0
  5  7  1  0
  5  8  1  0
  4  9  2  0
  9 10  1  0
 10 11  1  0
 10 12  2  0
 12 13  1  0
 13 14  2  0
 13 15  1  0
 15 16  1  0
 16 17  2  0
 17 18  1  0
 18 19  2  0
 19 20  1  0
 12 21  1  0
 21 22  1  0
 22 23  2  0
 23  2  1  0
 22  9  1  0
 20 16  1  0
M  END
>  <Binding energies>  (53) 
[-6.43]

>  <Ligand effiencies>  (53) 
[-0.24730769230769228]

>  <Interactions>  (53) 
["V-A:VAL:458:CG2:4085, V-A:HIS:456:CD2:4066, V-B:GLY:544:CA:9886, V-B:GLU:543:C:9874, H-B:LYS:547:NZ:9923, V-B:LYS:547:CE:9922, V-A:LYS:471:CD:4217, V-A:ASP:473:CG:4238, V-A:HIS:456:CB:4063, V-A:TYR:484:CB:4339, V-A:HIS:456:CG:4064, V-A:LYS:471:CE:4218, V-A:TYR:484:CG:4340, V-A:HIS:456:C:4059, V-B:GLU:543:CA:9876, H-A:ASP:473:OD2:4240, V-A:SER:483:CB:4331, V-B:VAL:542:CG1:9871, V-A:TYR:484:CD1:4341, H-A:TYR:484:N:4338"]

$$$$
4bk_Grossjean_2025
     RDKit          3D

 28 29  0  0  0  0  0  0  0  0999 V2000
  132.4260  125.5480   56.1320 C   0  0  0  0  0  0  0  0  0  0  0  0
  131.4180  126.1510   55.3350 O   0  0  0  0  0  0  0  0  0  0  0  0
  130.7590  125.2360   54.4690 C   0  0  0  0  0  0  0  0  0  0  0  0
  129.2520  125.2550   54.7550 C   0  0  0  0  0  0  0  0  0  0  0  0
  128.5840  124.4150   53.8240 O   0  0  0  0  0  0  0  0  0  0  0  0
  127.8970  123.3250   54.4230 C   0  0  0  0  0  0  0  0  0  0  0  0
  126.5870  123.8280   55.0450 C   0  0  0  0  0  0  0  0  0  0  0  0
  126.0700  122.8330   55.9180 O   0  0  0  0  0  0  0  0  0  0  0  0
  124.8580  123.2070   56.5620 C   0  0  0  0  0  0  0  0  0  0  0  0
  125.1600  123.6370   58.0080 C   0  0  0  0  0  0  0  0  0  0  0  0
  126.5870  123.6360   58.3350 N   0  0  0  0  0  0  0  0  0  0  0  0
  127.1020  123.5050   59.5750 C   0  0  0  0  0  0  0  0  0  0  0  0
  126.3940  123.3500   60.5710 O   0  0  0  0  0  0  0  0  0  0  0  0
  128.5620  123.5480   59.6730 C   0  0  0  0  0  0  0  0  0  0  0  0
  129.5380  123.7980   58.2280 S   0  0  0  0  0  0  0  0  0  0  0  0
  131.0140  123.7490   59.1630 C   0  0  0  0  0  0  0  0  0  0  0  0
  132.2070  123.8900   58.5880 N   0  0  0  0  0  0  0  0  0  0  0  0
  133.2770  123.8360   59.4150 C   0  0  0  0  0  0  0  0  0  0  0  0
  134.6250  124.0000   58.7380 C   0  0  0  0  0  0  0  0  0  0  0  0
  133.1820  123.6460   60.7910 C   0  0  0  0  0  0  0  0  0  0  0  0
  131.9280  123.4960   61.4040 C   0  0  0  0  0  0  0  0  0  0  0  0
  131.8740  123.2860   62.9210 C   0  0  0  0  0  0  0  0  0  0  0  0
  131.2140  124.2540   63.5590 F   0  0  0  0  0  0  0  0  0  0  0  0
  131.2600  122.1350   63.1950 F   0  0  0  0  0  0  0  0  0  0  0  0
  133.1110  123.2530   63.4160 F   0  0  0  0  0  0  0  0  0  0  0  0
  130.7790  123.5490   60.5600 C   0  0  0  0  0  0  0  0  0  0  0  0
  129.3640  123.4430   60.8190 C   0  0  0  0  0  0  0  0  0  0  0  0
  128.8530  123.2510   62.0770 N   0  0  0  0  0  0  0  0  0  0  0  0
  1  2  1  0
  2  3  1  0
  3  4  1  0
  4  5  1  0
  5  6  1  0
  6  7  1  0
  7  8  1  0
  8  9  1  0
  9 10  1  0
 10 11  1  0
 11 12  1  0
 12 13  2  0
 12 14  1  0
 14 15  1  0
 15 16  1  0
 16 17  2  0
 17 18  1  0
 18 19  1  0
 18 20  2  0
 20 21  1  0
 21 22  1  0
 22 23  1  0
 22 24  1  0
 22 25  1  0
 21 26  2  0
 26 27  1  0
 27 28  1  0
 27 14  2  0
 26 16  1  0
M  END
>  <Binding energies>  (54) 
[-6.13]

>  <Ligand effiencies>  (54) 
[-0.19774193548387095]

>  <Interactions>  (54) 
["V-A:TYR:531:CZ:4792, H-A:TYR:531:OH:4793, V-B:TYR:539:C:9839, H-B:TYR:539:N:9842, V-B:PRO:540:CD:9859, V-B:PRO:540:CB:9857, V-B:PRO:540:CA:9855, V-B:TYR:539:CZ:9849, H-B:ALA:541:N:9863, V-B:PRO:540:N:9856, V-B:ILE:538:CG2:9835, V-B:ILE:538:CB:9834, V-B:TYR:539:CE1:9847, V-B:ILE:538:CA:9832, V-A:TYR:531:CE1:4790, V-B:TYR:539:CD2:9846, H-B:TYR:539:OH:9850, V-B:TYR:539:CD1:9845, V-B:TYR:539:CE2:9848, V-B:GLU:543:CD:9880, V-A:ASP:366:CG:3211, V-A:ILE:369:CD1:3237, V-B:ALA:541:CB:9864, V-A:ILE:369:CG2:3235, V-A:ASP:366:CB:3210, V-A:LEU:475:CD2:4257, V-A:ILE:369:CB:3234, V-A:ASP:366:CA:3208, H-B:ALA:541:O:9861, H-B:GLU:543:OE1:9881, V-A:GLY:454:CA:4047, V-A:ASP:366:C:3206, V-A:ILE:369:CG1:3236"]

$$$$
4cd_Grossjean_2025
     RDKit          3D

 29 32  0  0  0  0  0  0  0  0999 V2000
  129.0110  134.3630   75.5130 N   0  0  0  0  0  0  0  0  0  0  0  0
  129.4990  134.5000   74.2380 C   0  0  0  0  0  0  0  0  0  0  0  0
  129.3720  133.5070   73.2540 C   0  0  0  0  0  0  0  0  0  0  0  0
  128.7480  132.1850   73.3660 C   0  0  0  0  0  0  0  0  0  0  0  0
  129.2450  131.2070   72.8050 O   0  0  0  0  0  0  0  0  0  0  0  0
  127.6240  132.1350   74.1200 N   0  0  0  0  0  0  0  0  0  0  0  0
  126.7680  131.0500   74.3840 C   0  0  0  0  0  0  0  0  0  0  0  0
  125.6810  131.3160   75.2210 C   0  0  0  0  0  0  0  0  0  0  0  0
  124.7700  130.3100   75.5310 C   0  0  0  0  0  0  0  0  0  0  0  0
  124.9410  129.0360   74.9960 C   0  0  0  0  0  0  0  0  0  0  0  0
  126.0110  128.7600   74.1490 C   0  0  0  0  0  0  0  0  0  0  0  0
  126.9250  129.7640   73.8380 C   0  0  0  0  0  0  0  0  0  0  0  0
  130.1020  134.0200   71.7340 S   0  0  0  0  0  0  0  0  0  0  0  0
  130.5790  135.5510   72.4280 C   0  0  0  0  0  0  0  0  0  0  0  0
  131.2350  136.4630   71.7140 N   0  0  0  0  0  0  0  0  0  0  0  0
  131.5760  137.6180   72.3450 C   0  0  0  0  0  0  0  0  0  0  0  0
  132.3170  138.6260   71.5150 C   0  0  0  0  0  0  0  0  0  0  0  0
  131.9560  139.9830   71.5420 C   0  0  0  0  0  0  0  0  0  0  0  0
  132.6400  140.9240   70.7760 C   0  0  0  0  0  0  0  0  0  0  0  0
  133.6980  140.5180   69.9690 C   0  0  0  0  0  0  0  0  0  0  0  0
  134.0770  139.1820   69.9260 C   0  0  0  0  0  0  0  0  0  0  0  0
  133.3930  138.2450   70.6950 C   0  0  0  0  0  0  0  0  0  0  0  0
  131.2390  137.8590   73.6800 C   0  0  0  0  0  0  0  0  0  0  0  0
  130.5440  136.9040   74.4410 C   0  0  0  0  0  0  0  0  0  0  0  0
  130.2100  137.2310   75.9010 C   0  0  0  0  0  0  0  0  0  0  0  0
  130.6730  138.4220   76.2900 F   0  0  0  0  0  0  0  0  0  0  0  0
  128.8880  137.2420   76.0710 F   0  0  0  0  0  0  0  0  0  0  0  0
  130.7500  136.3130   76.7030 F   0  0  0  0  0  0  0  0  0  0  0  0
  130.1930  135.6850   73.7940 C   0  0  0  0  0  0  0  0  0  0  0  0
  1  2  1  0
  2  3  2  0
  3  4  1  0
  4  5  2  0
  4  6  1  0
  6  7  1  0
  7  8  2  0
  8  9  1  0
  9 10  2  0
 10 11  1  0
 11 12  2  0
  3 13  1  0
 13 14  1  0
 14 15  2  0
 15 16  1  0
 16 17  1  0
 17 18  2  0
 18 19  1  0
 19 20  2  0
 20 21  1  0
 21 22  2  0
 16 23  2  0
 23 24  1  0
 24 25  1  0
 25 26  1  0
 25 27  1  0
 25 28  1  0
 24 29  2  0
 29  2  1  0
 12  7  1  0
 29 14  1  0
 22 17  1  0
M  END
>  <Binding energies>  (55) 
[-7.02]

>  <Ligand effiencies>  (55) 
[-0.219375]

>  <Interactions>  (55) 
["V-A:LYS:547:CE:4948, H-A:LYS:547:NZ:4949, V-B:HIS:456:CD2:9040, V-A:GLY:544:CA:4912, V-B:VAL:458:CG2:9059, H-B:ASP:473:OD1:9213, V-B:LYS:471:CE:9192, H-B:ASP:473:OD2:9214, V-B:HIS:456:CG:9038, V-B:TYR:484:CG:9314, V-B:HIS:456:CB:9037, V-B:TYR:484:CB:9313, V-B:HIS:456:C:9033, V-B:SER:483:CB:9305, V-A:VAL:542:CG1:4897, H-B:TYR:484:N:9312, V-A:GLU:543:C:4900, V-B:TYR:484:CD1:9315, V-B:ASP:473:CG:9212, V-B:PRO:486:CD:9338"]

$$$$
4cg_Grossjean_2025
     RDKit          3D

 30 33  0  0  0  0  0  0  0  0999 V2000
  125.7710  132.6260   63.7960 N   0  0  0  0  0  0  0  0  0  0  0  0
  126.4950  131.6820   63.1150 C   0  0  0  0  0  0  0  0  0  0  0  0
  126.6940  130.3770   63.5890 C   0  0  0  0  0  0  0  0  0  0  0  0
  126.1690  129.7600   64.8070 C   0  0  0  0  0  0  0  0  0  0  0  0
  125.0610  130.0610   65.2540 O   0  0  0  0  0  0  0  0  0  0  0  0
  126.9860  128.8790   65.4230 N   0  0  0  0  0  0  0  0  0  0  0  0
  126.6620  128.1280   66.6350 C   0  0  0  0  0  0  0  0  0  0  0  0
  127.8730  127.8570   67.5210 C   0  0  0  0  0  0  0  0  0  0  0  0
  127.6980  127.6630   68.8940 C   0  0  0  0  0  0  0  0  0  0  0  0
  128.7980  127.3840   69.7020 C   0  0  0  0  0  0  0  0  0  0  0  0
  130.0660  127.2900   69.1330 C   0  0  0  0  0  0  0  0  0  0  0  0
  130.2440  127.4660   67.7620 C   0  0  0  0  0  0  0  0  0  0  0  0
  129.1450  127.7430   66.9540 C   0  0  0  0  0  0  0  0  0  0  0  0
  127.6500  129.4220   62.4600 S   0  0  0  0  0  0  0  0  0  0  0  0
  127.7960  130.7810   61.3710 C   0  0  0  0  0  0  0  0  0  0  0  0
  128.4700  130.6850   60.2280 N   0  0  0  0  0  0  0  0  0  0  0  0
  128.5270  131.7920   59.4430 C   0  0  0  0  0  0  0  0  0  0  0  0
  129.2970  131.6510   58.1610 C   0  0  0  0  0  0  0  0  0  0  0  0
  130.6550  131.2950   58.1710 C   0  0  0  0  0  0  0  0  0  0  0  0
  131.3730  131.1640   56.9860 C   0  0  0  0  0  0  0  0  0  0  0  0
  130.7410  131.3920   55.7670 C   0  0  0  0  0  0  0  0  0  0  0  0
  129.3980  131.7500   55.7280 C   0  0  0  0  0  0  0  0  0  0  0  0
  128.6840  131.8790   56.9150 C   0  0  0  0  0  0  0  0  0  0  0  0
  127.9200  132.9960   59.8200 C   0  0  0  0  0  0  0  0  0  0  0  0
  127.2070  133.1080   61.0230 C   0  0  0  0  0  0  0  0  0  0  0  0
  126.5670  134.4570   61.3750 C   0  0  0  0  0  0  0  0  0  0  0  0
  126.7400  135.3810   60.4280 F   0  0  0  0  0  0  0  0  0  0  0  0
  125.2540  134.3010   61.5480 F   0  0  0  0  0  0  0  0  0  0  0  0
  127.1050  134.9310   62.4970 F   0  0  0  0  0  0  0  0  0  0  0  0
  127.1290  131.9480   61.8470 C   0  0  0  0  0  0  0  0  0  0  0  0
  1  2  1  0
  2  3  2  0
  3  4  1  0
  4  5  2  0
  4  6  1  0
  6  7  1  0
  7  8  1  0
  8  9  2  0
  9 10  1  0
 10 11  2  0
 11 12  1  0
 12 13  2  0
  3 14  1  0
 14 15  1  0
 15 16  2  0
 16 17  1  0
 17 18  1  0
 18 19  2  0
 19 20  1  0
 20 21  2  0
 21 22  1  0
 22 23  2  0
 17 24  2  0
 24 25  1  0
 25 26  1  0
 26 27  1  0
 26 28  1  0
 26 29  1  0
 25 30  2  0
 30  2  1  0
 13  8  1  0
 30 15  1  0
 23 18  1  0
M  END
>  <Binding energies>  (56) 
[-8.06]

>  <Ligand effiencies>  (56) 
[-0.24424242424242426]

>  <Interactions>  (56) 
["V-A:PRO:540:N:4882, V-A:TYR:539:CE1:4873, V-A:TYR:539:CZ:4875, V-A:PRO:540:CA:4881, V-A:HIS:456:CE1:4068, V-B:HIS:456:CE1:9042, V-A:GLU:543:CD:4906, V-A:TYR:539:C:4865, V-B:GLU:543:CD:9880, V-A:TYR:539:CE2:4874, H-A:GLU:543:OE1:4907, V-A:TYR:539:CD1:4871, V-A:TYR:539:CD2:4872, V-A:TYR:539:CG:4870, V-B:PRO:482:CB:9298, V-B:TRP:381:CZ2:8342, V-B:TRP:381:CH2:8344, V-B:LEU:475:CD2:9231, V-A:ALA:541:CB:4890, H-B:TYR:484:OH:9320, V-B:GLY:454:CA:9021, V-B:TYR:484:CZ:9319, H-B:ARG:545:NE:9896, V-A:GLU:543:CB:4904, H-B:GLU:543:OE2:9882, H-A:GLU:543:OE2:4908, V-B:ARG:545:CD:9895, V-B:LEU:475:CG:9229, V-B:TRP:381:CZ3:8343, V-A:GLU:543:C:4900, V-B:GLU:543:CG:9879, V-B:ARG:545:CG:9894, V-A:GLU:543:CG:4905, V-B:LEU:475:CD1:9230"]

$$$$
4ch_Grossjean_2025
     RDKit          3D

 36 39  0  0  0  0  0  0  0  0999 V2000
  131.4720  126.6410   66.3480 C   0  0  0  0  0  0  0  0  0  0  0  0
  131.1220  127.3550   67.5290 O   0  0  0  0  0  0  0  0  0  0  0  0
  129.7990  127.3980   67.9280 C   0  0  0  0  0  0  0  0  0  0  0  0
  128.7340  127.7360   67.0770 C   0  0  0  0  0  0  0  0  0  0  0  0
  127.4200  127.7580   67.5480 C   0  0  0  0  0  0  0  0  0  0  0  0
  126.2810  128.1530   66.6160 C   0  0  0  0  0  0  0  0  0  0  0  0
  126.7080  128.8790   65.4190 N   0  0  0  0  0  0  0  0  0  0  0  0
  125.8930  129.5360   64.5670 C   0  0  0  0  0  0  0  0  0  0  0  0
  124.6740  129.6090   64.7400 O   0  0  0  0  0  0  0  0  0  0  0  0
  126.5440  130.1950   63.4350 C   0  0  0  0  0  0  0  0  0  0  0  0
  127.6010  129.2750   62.3680 S   0  0  0  0  0  0  0  0  0  0  0  0
  127.8960  130.6830   61.3760 C   0  0  0  0  0  0  0  0  0  0  0  0
  128.6960  130.6290   60.3140 N   0  0  0  0  0  0  0  0  0  0  0  0
  128.8610  131.7730   59.6000 C   0  0  0  0  0  0  0  0  0  0  0  0
  129.7740  131.6800   58.4110 C   0  0  0  0  0  0  0  0  0  0  0  0
  129.3130  132.0010   57.1240 C   0  0  0  0  0  0  0  0  0  0  0  0
  130.1550  131.9150   56.0170 C   0  0  0  0  0  0  0  0  0  0  0  0
  131.4730  131.5060   56.1830 C   0  0  0  0  0  0  0  0  0  0  0  0
  131.9540  131.1780   57.4470 C   0  0  0  0  0  0  0  0  0  0  0  0
  131.1090  131.2630   58.5500 C   0  0  0  0  0  0  0  0  0  0  0  0
  128.2360  132.9690   59.9670 C   0  0  0  0  0  0  0  0  0  0  0  0
  127.3900  133.0380   61.0860 C   0  0  0  0  0  0  0  0  0  0  0  0
  126.7370  134.3800   61.4320 C   0  0  0  0  0  0  0  0  0  0  0  0
  127.0750  135.3600   60.5900 F   0  0  0  0  0  0  0  0  0  0  0  0
  125.4110  134.2600   61.3930 F   0  0  0  0  0  0  0  0  0  0  0  0
  127.1080  134.7610   62.6540 F   0  0  0  0  0  0  0  0  0  0  0  0
  127.2010  131.8410   61.8340 C   0  0  0  0  0  0  0  0  0  0  0  0
  126.4250  131.5270   63.0100 C   0  0  0  0  0  0  0  0  0  0  0  0
  125.6480  132.4540   63.6570 N   0  0  0  0  0  0  0  0  0  0  0  0
  127.1640  127.4580   68.8860 C   0  0  0  0  0  0  0  0  0  0  0  0
  128.2100  127.1190   69.7600 C   0  0  0  0  0  0  0  0  0  0  0  0
  128.0280  126.8090   71.0960 O   0  0  0  0  0  0  0  0  0  0  0  0
  127.5500  127.8110   71.9870 C   0  0  0  0  0  0  0  0  0  0  0  0
  129.5220  127.0870   69.2670 C   0  0  0  0  0  0  0  0  0  0  0  0
  130.5560  126.7710   70.1150 O   0  0  0  0  0  0  0  0  0  0  0  0
  130.5050  127.4450   71.3650 C   0  0  0  0  0  0  0  0  0  0  0  0
  1  2  1  0
  2  3  1  0
  3  4  2  0
  4  5  1  0
  5  6  1  0
  6  7  1  0
  7  8  1  0
  8  9  2  0
  8 10  1  0
 10 11  1  0
 11 12  1  0
 12 13  2  0
 13 14  1  0
 14 15  1  0
 15 16  2  0
 16 17  1  0
 17 18  2  0
 18 19  1  0
 19 20  2  0
 14 21  2  0
 21 22  1  0
 22 23  1  0
 23 24  1  0
 23 25  1  0
 23 26  1  0
 22 27  2  0
 27 28  1  0
 28 29  1  0
  5 30  2  0
 30 31  1  0
 31 32  1  0
 32 33  1  0
 31 34  2  0
 34 35  1  0
 35 36  1  0
 34  3  1  0
 28 10  2  0
 27 12  1  0
 20 15  1  0
M  END
>  <Binding energies>  (57) 
[-7.07]

>  <Ligand effiencies>  (57) 
[-0.1812820512820513]

>  <Interactions>  (57) 
["V-A:PRO:540:N:4882, V-A:PRO:540:CB:4883, V-A:PRO:540:CA:4881, H-A:HIS:456:ND1:4065, V-A:HIS:456:CE1:4068, V-B:GLU:543:C:9874, V-B:HIS:456:CE1:9042, V-A:GLY:544:C:4910, V-B:GLY:544:C:9884, V-B:HIS:456:CD2:9040, V-A:GLY:544:CA:4912, V-A:GLU:543:CD:4906, V-A:TYR:539:C:4865, V-B:GLU:543:CD:9880, V-A:TYR:539:CE2:4874, H-A:GLU:543:OE1:4907, H-B:ARG:545:NH2:9900, V-B:ARG:545:CZ:9898, V-A:TYR:539:CD2:4872, H-B:GLY:454:N:9022, V-B:PRO:482:CB:9298, V-B:TRP:381:CZ2:8342, V-B:TRP:381:CH2:8344, V-B:LEU:475:CD2:9231, V-A:ALA:541:CB:4890, H-B:TYR:484:OH:9320, V-B:GLY:454:CA:9021, H-B:ARG:545:NE:9896, H-B:GLU:543:OE2:9882, H-A:GLU:543:OE2:4908, V-B:ARG:545:CD:9895, V-B:HIS:456:CG:9038, V-B:LEU:475:CG:9229, V-B:TRP:381:CZ3:8343, V-B:GLU:543:CG:9879, V-B:ARG:545:CG:9894, V-A:ARG:545:CD:4921, V-A:ARG:545:CG:4920, V-A:GLU:543:CG:4905, V-B:LEU:475:CD1:9230"]

$$$$
4cj_Grossjean_2025
     RDKit          3D

 28 31  0  0  0  0  0  0  0  0999 V2000
  129.4500  120.2130   75.1090 N   0  0  0  0  0  0  0  0  0  0  0  0
  128.8720  120.1210   73.8690 C   0  0  0  0  0  0  0  0  0  0  0  0
  128.9270  121.1510   72.9160 C   0  0  0  0  0  0  0  0  0  0  0  0
  129.5750  122.4600   73.0230 C   0  0  0  0  0  0  0  0  0  0  0  0
  129.1110  123.4430   72.4390 O   0  0  0  0  0  0  0  0  0  0  0  0
  130.6960  122.4950   73.7850 N   0  0  0  0  0  0  0  0  0  0  0  0
  131.4920  123.6020   74.0470 C   0  0  0  0  0  0  0  0  0  0  0  0
  131.2460  124.8610   73.7530 N   0  0  0  0  0  0  0  0  0  0  0  0
  132.2220  125.6510   74.1530 C   0  0  0  0  0  0  0  0  0  0  0  0
  133.2940  125.0320   74.7890 C   0  0  0  0  0  0  0  0  0  0  0  0
  132.9960  123.3210   74.8630 S   0  0  0  0  0  0  0  0  0  0  0  0
  128.0930  120.6920   71.4330 S   0  0  0  0  0  0  0  0  0  0  0  0
  127.6770  119.1300   72.0980 C   0  0  0  0  0  0  0  0  0  0  0  0
  126.9860  118.2370   71.3940 N   0  0  0  0  0  0  0  0  0  0  0  0
  126.7170  117.0480   71.9900 C   0  0  0  0  0  0  0  0  0  0  0  0
  125.9470  116.0580   71.1630 C   0  0  0  0  0  0  0  0  0  0  0  0
  124.8550  116.4700   70.3820 C   0  0  0  0  0  0  0  0  0  0  0  0
  124.1330  115.5570   69.6180 C   0  0  0  0  0  0  0  0  0  0  0  0
  124.4930  114.2130   69.6260 C   0  0  0  0  0  0  0  0  0  0  0  0
  125.5690  113.7780   70.3920 C   0  0  0  0  0  0  0  0  0  0  0  0
  126.2880  114.6950   71.1540 C   0  0  0  0  0  0  0  0  0  0  0  0
  127.1210  116.7700   73.3000 C   0  0  0  0  0  0  0  0  0  0  0  0
  127.8480  117.7050   74.0540 C   0  0  0  0  0  0  0  0  0  0  0  0
  128.2630  117.3350   75.4830 C   0  0  0  0  0  0  0  0  0  0  0  0
  127.7990  116.1460   75.8710 F   0  0  0  0  0  0  0  0  0  0  0  0
  129.5920  117.2930   75.5680 F   0  0  0  0  0  0  0  0  0  0  0  0
  127.7960  118.2440   76.3380 F   0  0  0  0  0  0  0  0  0  0  0  0
  128.1530  118.9490   73.4300 C   0  0  0  0  0  0  0  0  0  0  0  0
  1  2  1  0
  2  3  2  0
  3  4  1  0
  4  5  2  0
  4  6  1  0
  6  7  1  0
  7  8  2  0
  8  9  1  0
  9 10  2  0
 10 11  1  0
  3 12  1  0
 12 13  1  0
 13 14  2  0
 14 15  1  0
 15 16  1  0
 16 17  2  0
 17 18  1  0
 18 19  2  0
 19 20  1  0
 20 21  2  0
 15 22  2  0
 22 23  1  0
 23 24  1  0
 24 25  1  0
 24 26  1  0
 24 27  1  0
 23 28  2  0
 28  2  1  0
 11  7  1  0
 28 13  1  0
 21 16  1  0
M  END
>  <Binding energies>  (58) 
[-6.77]

>  <Ligand effiencies>  (58) 
[-0.21838709677419355]

>  <Interactions>  (58) 
["V-A:VAL:458:CG2:4085, V-A:HIS:456:CD2:4066, V-B:GLY:544:CA:9886, V-B:GLU:543:C:9874, H-B:LYS:547:NZ:9923, V-B:LYS:547:CE:9922, V-A:LYS:471:CD:4217, V-A:ASP:473:CG:4238, V-A:HIS:456:CB:4063, V-A:TYR:484:CB:4339, H-B:GLY:544:N:9887, V-A:HIS:456:CG:4064, V-A:LYS:471:CE:4218, V-A:HIS:456:C:4059, V-B:GLU:543:CA:9876, H-A:ASP:473:OD2:4240, V-A:SER:483:CB:4331, V-B:VAL:542:CG1:9871, V-A:TYR:484:CD1:4341, H-A:TYR:484:N:4338, V-A:PRO:486:CD:4364, V-B:VAL:542:CB:9870"]

$$$$
4ck_Grossjean_2025
     RDKit          3D

 33 35  0  0  0  0  0  0  0  0999 V2000
  127.2590  128.4930   72.7650 C   0  0  0  0  0  0  0  0  0  0  0  0
  128.6130  128.8630   72.9710 O   0  0  0  0  0  0  0  0  0  0  0  0
  129.4660  128.5130   71.8900 C   0  0  0  0  0  0  0  0  0  0  0  0
  128.6130  127.9740   70.7340 C   0  0  0  0  0  0  0  0  0  0  0  0
  129.3230  126.9300   70.0820 O   0  0  0  0  0  0  0  0  0  0  0  0
  130.0380  127.3630   68.9320 C   0  0  0  0  0  0  0  0  0  0  0  0
  129.1040  127.3260   67.7160 C   0  0  0  0  0  0  0  0  0  0  0  0
  129.8450  126.8880   66.5840 O   0  0  0  0  0  0  0  0  0  0  0  0
  131.2540  126.9970   66.7420 C   0  0  0  0  0  0  0  0  0  0  0  0
  131.9530  125.9390   65.8750 C   0  0  0  0  0  0  0  0  0  0  0  0
  131.3720  125.8540   64.5350 N   0  0  0  0  0  0  0  0  0  0  0  0
  131.9340  125.2510   63.4670 C   0  0  0  0  0  0  0  0  0  0  0  0
  133.0170  124.6670   63.5260 O   0  0  0  0  0  0  0  0  0  0  0  0
  131.1710  125.3180   62.2200 C   0  0  0  0  0  0  0  0  0  0  0  0
  131.6370  124.3200   60.8440 S   0  0  0  0  0  0  0  0  0  0  0  0
  130.2920  124.9190   59.9010 C   0  0  0  0  0  0  0  0  0  0  0  0
  130.0790  124.5040   58.6550 N   0  0  0  0  0  0  0  0  0  0  0  0
  129.0090  125.0260   58.0000 C   0  0  0  0  0  0  0  0  0  0  0  0
  128.7850  124.5240   56.6020 C   0  0  0  0  0  0  0  0  0  0  0  0
  129.6310  124.9150   55.5530 C   0  0  0  0  0  0  0  0  0  0  0  0
  129.4280  124.4540   54.2540 C   0  0  0  0  0  0  0  0  0  0  0  0
  128.3700  123.5920   53.9860 C   0  0  0  0  0  0  0  0  0  0  0  0
  127.5190  123.1840   55.0080 C   0  0  0  0  0  0  0  0  0  0  0  0
  127.7280  123.6460   56.3050 C   0  0  0  0  0  0  0  0  0  0  0  0
  128.1550  125.9560   58.6020 C   0  0  0  0  0  0  0  0  0  0  0  0
  128.3720  126.4010   59.9150 C   0  0  0  0  0  0  0  0  0  0  0  0
  127.3990  127.4250   60.5130 C   0  0  0  0  0  0  0  0  0  0  0  0
  126.7890  126.9860   61.6150 F   0  0  0  0  0  0  0  0  0  0  0  0
  128.0570  128.5370   60.8370 F   0  0  0  0  0  0  0  0  0  0  0  0
  126.4510  127.7180   59.6220 F   0  0  0  0  0  0  0  0  0  0  0  0
  129.4920  125.8620   60.6110 C   0  0  0  0  0  0  0  0  0  0  0  0
  130.0160  126.0640   61.9400 C   0  0  0  0  0  0  0  0  0  0  0  0
  129.4360  126.9160   62.8460 N   0  0  0  0  0  0  0  0  0  0  0  0
  1  2  1  0
  2  3  1  0
  3  4  1  0
  4  5  1  0
  5  6  1  0
  6  7  1  0
  7  8  1  0
  8  9  1  0
  9 10  1  0
 10 11  1  0
 11 12  1  0
 12 13  2  0
 12 14  1  0
 14 15  1  0
 15 16  1  0
 16 17  2  0
 17 18  1  0
 18 19  1  0
 19 20  2  0
 20 21  1  0
 21 22  2  0
 22 23  1  0
 23 24  2  0
 18 25  2  0
 25 26  1  0
 26 27  1  0
 27 28  1  0
 27 29  1  0
 27 30  1  0
 26 31  2  0
 31 32  1  0
 32 33  1  0
 32 14  2  0
 31 16  1  0
 24 19  1  0
M  END
>  <Binding energies>  (59) 
[-6.47]

>  <Ligand effiencies>  (59) 
[-0.17972222222222223]

>  <Interactions>  (59) 
["V-B:ASP:366:CG:8185, V-B:TYR:539:CZ:9849, V-B:TYR:539:CE1:9847, V-B:ILE:538:CA:9832, V-B:TYR:539:CD1:9845, V-B:ILE:538:C:9830, V-A:HIS:456:CE1:4068, V-A:LYS:547:CE:4948, V-B:HIS:456:CE1:9042, V-A:GLY:544:C:4910, H-A:LYS:547:NZ:4949, V-B:GLY:544:C:9884, V-B:HIS:456:CD2:9040, V-A:GLY:544:CA:4912, V-A:GLU:543:CD:4906, V-B:GLU:543:CD:9880, H-A:GLU:543:OE1:4907, V-B:ARG:545:CZ:9898, H-A:TYR:484:OH:4346, V-A:ARG:545:CZ:4924, H-A:GLY:454:N:4048, H-B:GLU:543:OE2:9882, H-B:GLU:543:OE1:9881, H-A:GLU:543:OE2:4908, V-B:HIS:456:CG:9038, V-B:HIS:456:CB:9037, V-A:GLU:543:C:4900, V-B:GLU:543:CG:9879, V-A:ARG:545:CD:4921, V-A:ARG:545:CG:4920, V-A:GLU:543:CG:4905"]

$$$$
4dd_Grossjean_2025
     RDKit          3D

 26 29  0  0  0  0  0  0  0  0999 V2000
  130.2270  137.1470   75.9740 C   0  0  0  0  0  0  0  0  0  0  0  0
  130.5170  136.8370   74.5130 C   0  0  0  0  0  0  0  0  0  0  0  0
  131.2020  137.7970   73.7570 C   0  0  0  0  0  0  0  0  0  0  0  0
  131.4990  137.5710   72.4080 C   0  0  0  0  0  0  0  0  0  0  0  0
  132.2260  138.5840   71.5730 C   0  0  0  0  0  0  0  0  0  0  0  0
  131.8710  139.9420   71.6160 C   0  0  0  0  0  0  0  0  0  0  0  0
  132.5430  140.8870   70.8460 C   0  0  0  0  0  0  0  0  0  0  0  0
  133.5840  140.4850   70.0170 C   0  0  0  0  0  0  0  0  0  0  0  0
  133.9590  139.1480   69.9540 C   0  0  0  0  0  0  0  0  0  0  0  0
  133.2850  138.2060   70.7280 C   0  0  0  0  0  0  0  0  0  0  0  0
  131.1290  136.4260   71.7720 N   0  0  0  0  0  0  0  0  0  0  0  0
  130.4830  135.5100   72.4910 C   0  0  0  0  0  0  0  0  0  0  0  0
  129.9670  133.9860   71.8050 S   0  0  0  0  0  0  0  0  0  0  0  0
  129.2750  133.4730   73.3450 C   0  0  0  0  0  0  0  0  0  0  0  0
  128.6390  132.1600   73.4720 C   0  0  0  0  0  0  0  0  0  0  0  0
  129.1240  131.1710   72.9190 O   0  0  0  0  0  0  0  0  0  0  0  0
  127.5160  132.1290   74.2290 N   0  0  0  0  0  0  0  0  0  0  0  0
  126.6480  131.0570   74.5030 C   0  0  0  0  0  0  0  0  0  0  0  0
  125.5290  131.3600   75.2840 C   0  0  0  0  0  0  0  0  0  0  0  0
  124.6020  130.3690   75.5980 C   0  0  0  0  0  0  0  0  0  0  0  0
  124.7910  129.0730   75.1250 C   0  0  0  0  0  0  0  0  0  0  0  0
  125.8950  128.7600   74.3370 C   0  0  0  0  0  0  0  0  0  0  0  0
  126.8230  129.7480   74.0210 C   0  0  0  0  0  0  0  0  0  0  0  0
  129.4460  134.4590   74.3290 C   0  0  0  0  0  0  0  0  0  0  0  0
  129.0020  134.3330   75.6220 N   0  0  0  0  0  0  0  0  0  0  0  0
  130.1370  135.6330   73.8660 C   0  0  0  0  0  0  0  0  0  0  0  0
  1  2  1  0
  2  3  2  0
  3  4  1  0
  4  5  1  0
  5  6  2  0
  6  7  1  0
  7  8  2  0
  8  9  1  0
  9 10  2  0
  4 11  2  0
 11 12  1  0
 12 13  1  0
 13 14  1  0
 14 15  1  0
 15 16  2  0
 15 17  1  0
 17 18  1  0
 18 19  2  0
 19 20  1  0
 20 21  2  0
 21 22  1  0
 22 23  2  0
 14 24  2  0
 24 25  1  0
 24 26  1  0
 26  2  1  0
 10  5  1  0
 26 12  2  0
 23 18  1  0
M  END
>  <Binding energies>  (60) 
[-7.33]

>  <Ligand effiencies>  (60) 
[-0.25275862068965516]

>  <Interactions>  (60) 
["V-A:LYS:547:CE:4948, H-A:LYS:547:NZ:4949, V-B:LYS:471:CD:9191, V-B:HIS:456:CD2:9040, V-B:VAL:458:CG2:9059, H-B:ASP:473:OD1:9213, V-B:LYS:471:CE:9192, H-B:ASP:473:OD2:9214, V-B:HIS:456:CG:9038, V-B:TYR:484:CG:9314, V-B:HIS:456:CB:9037, V-B:TYR:484:CB:9313, V-B:VAL:457:C:9045, V-B:HIS:456:C:9033, V-B:SER:483:CB:9305, V-A:VAL:542:CG1:4897, H-B:TYR:484:N:9312, V-A:GLU:543:C:4900, V-B:TYR:484:CD1:9315, V-B:ASP:473:CG:9212"]

$$$$
4dg_Grossjean_2025
     RDKit          3D

 27 30  0  0  0  0  0  0  0  0999 V2000
  126.9530  134.4910   61.6830 C   0  0  0  0  0  0  0  0  0  0  0  0
  127.3970  133.1160   61.2070 C   0  0  0  0  0  0  0  0  0  0  0  0
  128.0200  133.0200   59.9570 C   0  0  0  0  0  0  0  0  0  0  0  0
  128.4520  131.7830   59.4620 C   0  0  0  0  0  0  0  0  0  0  0  0
  129.1250  131.6490   58.1250 C   0  0  0  0  0  0  0  0  0  0  0  0
  130.5230  131.5610   58.0270 C   0  0  0  0  0  0  0  0  0  0  0  0
  131.1520  131.4410   56.7900 C   0  0  0  0  0  0  0  0  0  0  0  0
  130.3890  131.4050   55.6290 C   0  0  0  0  0  0  0  0  0  0  0  0
  129.0020  131.4930   55.6960 C   0  0  0  0  0  0  0  0  0  0  0  0
  128.3780  131.6150   56.9340 C   0  0  0  0  0  0  0  0  0  0  0  0
  128.3050  130.6340   60.1750 N   0  0  0  0  0  0  0  0  0  0  0  0
  127.7120  130.7240   61.3650 C   0  0  0  0  0  0  0  0  0  0  0  0
  127.4530  129.3230   62.3790 S   0  0  0  0  0  0  0  0  0  0  0  0
  126.6890  130.3110   63.6230 C   0  0  0  0  0  0  0  0  0  0  0  0
  126.1580  129.6870   64.8330 C   0  0  0  0  0  0  0  0  0  0  0  0
  125.0130  129.9190   65.2270 O   0  0  0  0  0  0  0  0  0  0  0  0
  127.0090  128.8810   65.5020 N   0  0  0  0  0  0  0  0  0  0  0  0
  126.6890  128.1370   66.7200 C   0  0  0  0  0  0  0  0  0  0  0  0
  127.9080  127.8420   67.5870 C   0  0  0  0  0  0  0  0  0  0  0  0
  127.7520  127.6570   68.9640 C   0  0  0  0  0  0  0  0  0  0  0  0
  128.8580  127.3570   69.7550 C   0  0  0  0  0  0  0  0  0  0  0  0
  130.1130  127.2310   69.1650 C   0  0  0  0  0  0  0  0  0  0  0  0
  130.2740  127.3970   67.7910 C   0  0  0  0  0  0  0  0  0  0  0  0
  129.1670  127.6960   67.0000 C   0  0  0  0  0  0  0  0  0  0  0  0
  126.6330  131.6600   63.2400 C   0  0  0  0  0  0  0  0  0  0  0  0
  126.0780  132.6500   64.0110 N   0  0  0  0  0  0  0  0  0  0  0  0
  127.2240  131.9240   61.9560 C   0  0  0  0  0  0  0  0  0  0  0  0
  1  2  1  0
  2  3  2  0
  3  4  1  0
  4  5  1  0
  5  6  2  0
  6  7  1  0
  7  8  2  0
  8  9  1  0
  9 10  2  0
  4 11  2  0
 11 12  1  0
 12 13  1  0
 13 14  1  0
 14 15  1  0
 15 16  2  0
 15 17  1  0
 17 18  1  0
 18 19  1  0
 19 20  2  0
 20 21  1  0
 21 22  2  0
 22 23  1  0
 23 24  2  0
 14 25  2  0
 25 26  1  0
 25 27  1  0
 27  2  1  0
 10  5  1  0
 27 12  2  0
 24 19  1  0
M  END
>  <Binding energies>  (61) 
[-8.43]

>  <Ligand effiencies>  (61) 
[-0.28099999999999997]

>  <Interactions>  (61) 
["V-A:PRO:540:N:4882, V-A:TYR:539:CE1:4873, V-A:TYR:539:CZ:4875, V-A:PRO:540:CA:4881, V-A:HIS:456:CE1:4068, V-B:HIS:456:CE1:9042, V-A:GLU:543:CD:4906, V-A:TYR:539:C:4865, V-B:GLU:543:CD:9880, V-A:TYR:539:CE2:4874, H-A:GLU:543:OE1:4907, V-A:TYR:539:CD2:4872, V-B:LEU:475:CD2:9231, V-A:ALA:541:CB:4890, H-B:TYR:484:OH:9320, V-B:TYR:484:CZ:9319, V-B:TYR:484:CE1:9317, H-B:ARG:545:NE:9896, V-A:GLU:543:CB:4904, H-B:GLU:543:OE2:9882, H-A:GLU:543:OE2:4908, V-B:ARG:545:CD:9895, V-B:GLU:543:CG:9879, V-B:ARG:545:CG:9894, V-A:GLU:543:CG:4905"]

$$$$
4dj_Grossjean_2025
     RDKit          3D

 25 28  0  0  0  0  0  0  0  0999 V2000
  128.2370  117.4090   75.4650 C   0  0  0  0  0  0  0  0  0  0  0  0
  127.8430  117.7570   74.0370 C   0  0  0  0  0  0  0  0  0  0  0  0
  127.1220  116.8080   73.3020 C   0  0  0  0  0  0  0  0  0  0  0  0
  126.7320  117.0650   71.9830 C   0  0  0  0  0  0  0  0  0  0  0  0
  125.9530  116.0690   71.1720 C   0  0  0  0  0  0  0  0  0  0  0  0
  124.8640  116.4760   70.3830 C   0  0  0  0  0  0  0  0  0  0  0  0
  124.1370  115.5580   69.6300 C   0  0  0  0  0  0  0  0  0  0  0  0
  124.4890  114.2120   69.6570 C   0  0  0  0  0  0  0  0  0  0  0  0
  125.5590  113.7800   70.4320 C   0  0  0  0  0  0  0  0  0  0  0  0
  126.2830  114.7020   71.1830 C   0  0  0  0  0  0  0  0  0  0  0  0
  127.0170  118.2440   71.3660 N   0  0  0  0  0  0  0  0  0  0  0  0
  127.7040  119.1480   72.0630 C   0  0  0  0  0  0  0  0  0  0  0  0
  128.1460  120.7010   71.3900 S   0  0  0  0  0  0  0  0  0  0  0  0
  128.9490  121.1750   72.8890 C   0  0  0  0  0  0  0  0  0  0  0  0
  129.5980  122.4820   72.9990 C   0  0  0  0  0  0  0  0  0  0  0  0
  129.1510  123.4600   72.3950 O   0  0  0  0  0  0  0  0  0  0  0  0
  130.7000  122.5220   73.7870 N   0  0  0  0  0  0  0  0  0  0  0  0
  131.4950  123.6270   74.0560 C   0  0  0  0  0  0  0  0  0  0  0  0
  131.2470  124.8880   73.7720 N   0  0  0  0  0  0  0  0  0  0  0  0
  132.2250  125.6770   74.1750 C   0  0  0  0  0  0  0  0  0  0  0  0
  133.2990  125.0540   74.8030 C   0  0  0  0  0  0  0  0  0  0  0  0
  133.0020  123.3420   74.8650 S   0  0  0  0  0  0  0  0  0  0  0  0
  128.8680  120.1550   73.8500 C   0  0  0  0  0  0  0  0  0  0  0  0
  129.4090  120.2480   75.1080 N   0  0  0  0  0  0  0  0  0  0  0  0
  128.1590  118.9870   73.4040 C   0  0  0  0  0  0  0  0  0  0  0  0
  1  2  1  0
  2  3  2  0
  3  4  1  0
  4  5  1  0
  5  6  2  0
  6  7  1  0
  7  8  2  0
  8  9  1  0
  9 10  2  0
  4 11  2  0
 11 12  1  0
 12 13  1  0
 13 14  1  0
 14 15  1  0
 15 16  2  0
 15 17  1  0
 17 18  1  0
 18 19  2  0
 19 20  1  0
 20 21  2  0
 21 22  1  0
 14 23  2  0
 23 24  1  0
 23 25  1  0
 25  2  1  0
 10  5  1  0
 25 12  2  0
 22 18  1  0
M  END
>  <Binding energies>  (62) 
[-7.1]

>  <Ligand effiencies>  (62) 
[-0.25357142857142856]

>  <Interactions>  (62) 
["V-A:VAL:458:CG2:4085, V-A:HIS:456:CD2:4066, V-B:GLY:544:CA:9886, V-B:GLU:543:C:9874, H-B:LYS:547:NZ:9923, V-B:LYS:547:CE:9922, V-A:LYS:471:CD:4217, V-A:ASP:473:CG:4238, V-A:HIS:456:CB:4063, V-A:TYR:484:CB:4339, H-B:GLY:544:N:9887, V-A:HIS:456:CG:4064, V-A:LYS:471:CE:4218, V-A:TYR:484:CG:4340, V-A:HIS:456:C:4059, V-B:GLU:543:CA:9876, H-A:ASP:473:OD2:4240, V-A:SER:483:CB:4331, V-B:VAL:542:CG1:9871, V-A:TYR:484:CD1:4341, H-A:TYR:484:N:4338, V-B:VAL:542:CB:9870"]

$$$$
4ea_Grossjean_2025
     RDKit          3D

 31 34  0  0  0  0  0  0  0  0999 V2000
  127.8350  127.3640   67.9570 C   0  0  0  0  0  0  0  0  0  0  0  0
  127.3580  128.4510   66.9900 C   0  0  0  0  0  0  0  0  0  0  0  0
  125.9760  128.2650   66.7150 O   0  0  0  0  0  0  0  0  0  0  0  0
  125.2240  129.2640   66.1860 C   0  0  0  0  0  0  0  0  0  0  0  0
  124.3320  129.8470   66.8100 O   0  0  0  0  0  0  0  0  0  0  0  0
  125.5860  129.5900   64.7660 C   0  0  0  0  0  0  0  0  0  0  0  0
  126.8440  129.2140   64.2780 C   0  0  0  0  0  0  0  0  0  0  0  0
  127.2100  129.5010   62.9660 C   0  0  0  0  0  0  0  0  0  0  0  0
  126.3290  130.1690   62.1150 C   0  0  0  0  0  0  0  0  0  0  0  0
  126.8060  130.4060   60.8120 N   0  0  0  0  0  0  0  0  0  0  0  0
  127.3880  131.5070   60.2750 C   0  0  0  0  0  0  0  0  0  0  0  0
  127.6040  132.5480   60.8960 O   0  0  0  0  0  0  0  0  0  0  0  0
  127.7620  131.3900   58.8630 C   0  0  0  0  0  0  0  0  0  0  0  0
  126.5260  131.1220   57.6310 S   0  0  0  0  0  0  0  0  0  0  0  0
  127.7260  131.1090   56.3600 C   0  0  0  0  0  0  0  0  0  0  0  0
  127.3960  130.9320   55.0800 N   0  0  0  0  0  0  0  0  0  0  0  0
  128.4210  130.9430   54.1930 C   0  0  0  0  0  0  0  0  0  0  0  0
  128.0220  130.7400   52.7430 C   0  0  0  0  0  0  0  0  0  0  0  0
  129.7540  131.1250   54.5520 C   0  0  0  0  0  0  0  0  0  0  0  0
  130.0970  131.3100   55.8960 C   0  0  0  0  0  0  0  0  0  0  0  0
  131.5180  131.5010   56.2620 C   0  0  0  0  0  0  0  0  0  0  0  0
  132.1400  130.6200   57.1520 C   0  0  0  0  0  0  0  0  0  0  0  0
  133.4780  130.7980   57.4950 C   0  0  0  0  0  0  0  0  0  0  0  0
  134.1930  131.8610   56.9490 C   0  0  0  0  0  0  0  0  0  0  0  0
  133.5830  132.7480   56.0650 C   0  0  0  0  0  0  0  0  0  0  0  0
  132.2450  132.5680   55.7240 C   0  0  0  0  0  0  0  0  0  0  0  0
  129.0500  131.3050   56.8580 C   0  0  0  0  0  0  0  0  0  0  0  0
  129.0410  131.4630   58.2900 C   0  0  0  0  0  0  0  0  0  0  0  0
  130.1900  131.6650   59.0110 N   0  0  0  0  0  0  0  0  0  0  0  0
  125.0660  130.5500   62.5960 C   0  0  0  0  0  0  0  0  0  0  0  0
  124.7020  130.2620   63.9080 C   0  0  0  0  0  0  0  0  0  0  0  0
  1  2  1  0
  2  3  1  0
  3  4  1  0
  4  5  2  0
  4  6  1  0
  6  7  2  0
  7  8  1  0
  8  9  2  0
  9 10  1  0
 10 11  1  0
 11 12  2  0
 11 13  1  0
 13 14  1  0
 14 15  1  0
 15 16  2  0
 16 17  1  0
 17 18  1  0
 17 19  2  0
 19 20  1  0
 20 21  1  0
 21 22  2  0
 22 23  1  0
 23 24  2  0
 24 25  1  0
 25 26  2  0
 20 27  2  0
 27 28  1  0
 28 29  1  0
  9 30  1  0
 30 31  2  0
 31  6  1  0
 28 13  2  0
 27 15  1  0
 26 21  1  0
M  END
>  <Binding energies>  (63) 
[-7.72]

>  <Ligand effiencies>  (63) 
[-0.22705882352941176]

>  <Interactions>  (63) 
["V-A:TYR:531:CE2:4791, V-A:PRO:540:CD:4885, V-A:PRO:540:N:4882, V-A:TYR:539:CE1:4873, V-A:TYR:539:CZ:4875, V-A:PRO:540:CB:4883, V-A:LEU:363:CD1:3187, V-A:ILE:538:CG2:4861, V-A:TYR:531:CZ:4792, V-A:LEU:363:CA:3183, V-A:ILE:538:CA:4858, V-A:ILE:538:CB:4860, V-B:MET:535:CE:9807, V-A:PRO:540:CG:4884, V-A:MET:535:CB:4830, V-A:MET:535:CG:4831, V-A:PRO:540:CA:4881, V-B:GLU:543:C:9874, V-B:HIS:456:CE1:9042, H-B:HIS:456:ND1:9039, V-A:GLU:543:CD:4906, V-A:TYR:539:C:4865, V-B:GLU:543:CD:9880, V-A:TYR:539:CE2:4874, V-A:ASP:366:CG:3211, V-B:ARG:545:CZ:9898, V-A:TYR:539:CD2:4872, H-A:TYR:539:OH:4876, H-B:TYR:484:OH:9320, V-A:ASP:366:CB:3210, H-B:ARG:545:NE:9896, V-A:LEU:363:CB:3185, V-A:ILE:538:C:4856, V-B:ARG:545:CD:9895, H-A:TYR:539:O:4866, V-A:ILE:538:CD1:4863, V-B:GLU:543:CG:9879, V-B:ARG:545:CG:9894, V-A:LEU:363:CG:3186"]

$$$$
4eb_Grossjean_2025
     RDKit          3D

 30 33  0  0  0  0  0  0  0  0999 V2000
  124.5350  132.4890   63.1440 C   0  0  0  0  0  0  0  0  0  0  0  0
  123.7230  133.3570   62.3660 O   0  0  0  0  0  0  0  0  0  0  0  0
  124.1520  133.8260   61.1650 C   0  0  0  0  0  0  0  0  0  0  0  0
  123.9900  134.9910   60.7940 O   0  0  0  0  0  0  0  0  0  0  0  0
  124.8440  132.7840   60.3340 C   0  0  0  0  0  0  0  0  0  0  0  0
  124.0740  131.8780   59.5930 C   0  0  0  0  0  0  0  0  0  0  0  0
  124.6850  130.9010   58.8140 C   0  0  0  0  0  0  0  0  0  0  0  0
  126.0770  130.8080   58.7580 C   0  0  0  0  0  0  0  0  0  0  0  0
  126.5840  129.7820   57.9370 N   0  0  0  0  0  0  0  0  0  0  0  0
  127.8120  129.6260   57.3840 C   0  0  0  0  0  0  0  0  0  0  0  0
  128.7420  130.4200   57.5260 O   0  0  0  0  0  0  0  0  0  0  0  0
  127.9840  128.4170   56.5750 C   0  0  0  0  0  0  0  0  0  0  0  0
  129.3070  128.3020   55.4130 S   0  0  0  0  0  0  0  0  0  0  0  0
  128.8140  126.6930   54.9370 C   0  0  0  0  0  0  0  0  0  0  0  0
  129.4740  125.9990   54.0080 N   0  0  0  0  0  0  0  0  0  0  0  0
  128.9900  124.7640   53.7310 C   0  0  0  0  0  0  0  0  0  0  0  0
  129.7550  123.9930   52.6700 C   0  0  0  0  0  0  0  0  0  0  0  0
  127.8740  124.2110   54.3540 C   0  0  0  0  0  0  0  0  0  0  0  0
  127.1850  124.9430   55.3290 C   0  0  0  0  0  0  0  0  0  0  0  0
  126.0000  124.3410   55.9830 C   0  0  0  0  0  0  0  0  0  0  0  0
  125.9210  124.2850   57.3780 C   0  0  0  0  0  0  0  0  0  0  0  0
  124.8060  123.7210   57.9940 C   0  0  0  0  0  0  0  0  0  0  0  0
  123.7710  123.2110   57.2130 C   0  0  0  0  0  0  0  0  0  0  0  0
  123.8420  123.2610   55.8220 C   0  0  0  0  0  0  0  0  0  0  0  0
  124.9570  123.8240   55.2080 C   0  0  0  0  0  0  0  0  0  0  0  0
  127.6610  126.2430   55.6480 C   0  0  0  0  0  0  0  0  0  0  0  0
  127.2090  127.2460   56.5760 C   0  0  0  0  0  0  0  0  0  0  0  0
  126.1140  127.0580   57.3820 N   0  0  0  0  0  0  0  0  0  0  0  0
  126.8560  131.7100   59.4970 C   0  0  0  0  0  0  0  0  0  0  0  0
  126.2430  132.6870   60.2760 C   0  0  0  0  0  0  0  0  0  0  0  0
  1  2  1  0
  2  3  1  0
  3  4  2  0
  3  5  1  0
  5  6  2  0
  6  7  1  0
  7  8  2  0
  8  9  1  0
  9 10  1  0
 10 11  2  0
 10 12  1  0
 12 13  1  0
 13 14  1  0
 14 15  2  0
 15 16  1  0
 16 17  1  0
 16 18  2  0
 18 19  1  0
 19 20  1  0
 20 21  2  0
 21 22  1  0
 22 23  2  0
 23 24  1  0
 24 25  2  0
 19 26  2  0
 26 27  1  0
 27 28  1  0
  8 29  1  0
 29 30  2  0
 30  5  1  0
 27 12  2  0
 26 14  1  0
 25 20  1  0
M  END
>  <Binding energies>  (64) 
[-7.45]

>  <Ligand effiencies>  (64) 
[-0.22575757575757577]

>  <Interactions>  (64) 
["V-B:ASP:366:CG:8185, V-A:TYR:539:CZ:4875, V-B:ASP:366:CB:8184, V-B:TYR:531:CZ:9766, V-B:PRO:540:CD:9859, V-B:PRO:540:CB:9857, V-B:PRO:540:CA:9855, V-B:PRO:540:N:9856, V-B:ILE:538:CG2:9835, V-B:ILE:538:CB:9834, V-B:TYR:539:CE1:9847, V-A:MET:535:CE:4833, V-B:LEU:363:CD1:8161, V-B:TYR:531:CE2:9765, H-B:TYR:531:OH:9767, H-B:ASP:366:OD2:8187, V-A:TYR:539:CE2:4874, V-A:TYR:539:CD2:4872, H-B:GLY:454:N:9022, V-B:ILE:369:CG2:8209, V-B:ILE:369:CD1:8211, V-B:LEU:475:CD2:9231, V-B:PRO:540:CG:9858, V-B:GLY:454:CA:9021, V-B:LEU:363:CA:8157, V-B:LEU:363:CB:8159"]

$$$$
8b_Ghoteimi_2023
     RDKit          3D

 34 38  0  0  0  0  0  0  0  0999 V2000
  122.9480  113.9410   67.7510 C   0  0  0  0  0  0  0  0  0  0  0  0
  123.7060  113.3910   68.8240 O   0  0  0  0  0  0  0  0  0  0  0  0
  124.4750  114.2320   69.6050 C   0  0  0  0  0  0  0  0  0  0  0  0
  124.1250  115.5810   69.6000 C   0  0  0  0  0  0  0  0  0  0  0  0
  124.8430  116.5010   70.3560 C   0  0  0  0  0  0  0  0  0  0  0  0
  125.9340  116.0960   71.1400 C   0  0  0  0  0  0  0  0  0  0  0  0
  126.7110  117.0810   71.9530 C   0  0  0  0  0  0  0  0  0  0  0  0
  127.1590  116.7810   73.2440 C   0  0  0  0  0  0  0  0  0  0  0  0
  127.8840  117.7200   73.9840 C   0  0  0  0  0  0  0  0  0  0  0  0
  128.3360  117.3730   75.3510 C   0  0  0  0  0  0  0  0  0  0  0  0
  129.6800  117.0890   75.5970 C   0  0  0  0  0  0  0  0  0  0  0  0
  130.1040  116.7740   76.8850 C   0  0  0  0  0  0  0  0  0  0  0  0
  129.1940  116.7350   77.9420 C   0  0  0  0  0  0  0  0  0  0  0  0
  129.7050  116.4140   79.1850 O   0  0  0  0  0  0  0  0  0  0  0  0
  130.5010  115.2420   79.3280 C   0  0  0  0  0  0  0  0  0  0  0  0
  127.8430  117.0170   77.6910 C   0  0  0  0  0  0  0  0  0  0  0  0
  127.4190  117.3330   76.4030 C   0  0  0  0  0  0  0  0  0  0  0  0
  128.1570  118.9780   73.3830 C   0  0  0  0  0  0  0  0  0  0  0  0
  128.8630  120.1460   73.8410 C   0  0  0  0  0  0  0  0  0  0  0  0
  129.4450  120.2130   75.0810 N   0  0  0  0  0  0  0  0  0  0  0  0
  128.8970  121.1930   72.9060 C   0  0  0  0  0  0  0  0  0  0  0  0
  129.5250  122.5090   73.0350 C   0  0  0  0  0  0  0  0  0  0  0  0
  129.0420  123.4950   72.4720 O   0  0  0  0  0  0  0  0  0  0  0  0
  130.6460  122.5470   73.7990 N   0  0  0  0  0  0  0  0  0  0  0  0
  131.4330  123.6530   74.0900 C   0  0  0  0  0  0  0  0  0  0  0  0
  132.6380  123.5670   74.7860 C   0  0  0  0  0  0  0  0  0  0  0  0
  133.0960  124.8620   74.8700 C   0  0  0  0  0  0  0  0  0  0  0  0
  132.2150  125.6840   74.2530 O   0  0  0  0  0  0  0  0  0  0  0  0
  131.1650  124.9060   73.7610 N   0  0  0  0  0  0  0  0  0  0  0  0
  128.0490  120.7500   71.4230 S   0  0  0  0  0  0  0  0  0  0  0  0
  127.6560  119.1710   72.0640 C   0  0  0  0  0  0  0  0  0  0  0  0
  126.9620  118.2780   71.3590 N   0  0  0  0  0  0  0  0  0  0  0  0
  126.2790  114.7380   71.1430 C   0  0  0  0  0  0  0  0  0  0  0  0
  125.5620  113.8140   70.3860 C   0  0  0  0  0  0  0  0  0  0  0  0
  1  2  1  0
  2  3  1  0
  3  4  2  0
  4  5  1  0
  5  6  2  0
  6  7  1  0
  7  8  2  0
  8  9  1  0
  9 10  1  0
 10 11  2  0
 11 12  1  0
 12 13  2  0
 13 14  1  0
 14 15  1  0
 13 16  1  0
 16 17  2  0
  9 18  2  0
 18 19  1  0
 19 20  1  0
 19 21  2  0
 21 22  1  0
 22 23  2  0
 22 24  1  0
 24 25  1  0
 25 26  1  0
 26 27  2  0
 27 28  1  0
 28 29  1  0
 21 30  1  0
 30 31  1  0
 31 32  2  0
  6 33  1  0
 33 34  2  0
 34  3  1  0
 32  7  1  0
 17 10  1  0
 31 18  1  0
 29 25  2  0
M  END
>  <Binding energies>  (65) 
[-6.67]

>  <Ligand effiencies>  (65) 
[-0.18027027027027026]

>  <Interactions>  (65) 
["V-A:VAL:458:CG2:4085, V-A:HIS:456:CD2:4066, V-B:GLY:544:CA:9886, V-B:GLU:543:C:9874, H-B:LYS:547:NZ:9923, V-B:LYS:547:CE:9922, V-A:ASP:473:CG:4238, V-A:HIS:456:CB:4063, V-A:TYR:484:CB:4339, H-B:GLY:544:N:9887, V-A:HIS:456:CG:4064, V-A:LYS:471:CE:4218, V-B:GLU:543:CA:9876, H-A:ASP:473:OD2:4240, V-A:SER:483:CB:4331, V-B:VAL:542:CG1:9871, V-A:TYR:484:CD1:4341, H-A:TYR:484:N:4338, V-A:PRO:486:CD:4364, V-A:PRO:486:CG:4363, V-B:VAL:542:CB:9870, V-A:VAL:481:CG1:4317"]

$$$$
9d_Ghoteimi_2023
     RDKit          3D

 38 43  0  0  0  0  0  0  0  0999 V2000
  136.2950  138.7440   69.1630 C   0  0  0  0  0  0  0  0  0  0  0  0
  135.5060  138.8320   70.3410 O   0  0  0  0  0  0  0  0  0  0  0  0
  134.1490  138.8350   70.2710 C   0  0  0  0  0  0  0  0  0  0  0  0
  133.5000  139.5650   69.5170 O   0  0  0  0  0  0  0  0  0  0  0  0
  133.5220  137.8710   71.2010 C   0  0  0  0  0  0  0  0  0  0  0  0
  131.9490  137.1740   70.8140 S   0  0  0  0  0  0  0  0  0  0  0  0
  131.9670  136.2200   72.2780 C   0  0  0  0  0  0  0  0  0  0  0  0
  130.9780  135.3790   72.5750 N   0  0  0  0  0  0  0  0  0  0  0  0
  131.0950  134.6690   73.7270 C   0  0  0  0  0  0  0  0  0  0  0  0
  129.9850  133.7130   74.0270 C   0  0  0  0  0  0  0  0  0  0  0  0
  129.2300  133.1550   72.9910 C   0  0  0  0  0  0  0  0  0  0  0  0
  128.1930  132.2660   73.2600 C   0  0  0  0  0  0  0  0  0  0  0  0
  127.8810  131.8920   74.5770 C   0  0  0  0  0  0  0  0  0  0  0  0
  126.8310  131.0130   74.8640 N   0  0  0  0  0  0  0  0  0  0  0  0
  125.4900  131.5120   75.2290 C   0  0  0  0  0  0  0  0  0  0  0  0
  124.5690  130.4370   75.8420 C   0  0  0  0  0  0  0  0  0  0  0  0
  124.4770  129.3230   74.9700 O   0  0  0  0  0  0  0  0  0  0  0  0
  125.7460  128.7290   74.7490 C   0  0  0  0  0  0  0  0  0  0  0  0
  126.7060  129.7520   74.1040 C   0  0  0  0  0  0  0  0  0  0  0  0
  128.6320  132.4670   75.6130 C   0  0  0  0  0  0  0  0  0  0  0  0
  129.6670  133.3590   75.3440 C   0  0  0  0  0  0  0  0  0  0  0  0
  132.1810  134.8270   74.5930 C   0  0  0  0  0  0  0  0  0  0  0  0
  133.2140  135.7230   74.2940 C   0  0  0  0  0  0  0  0  0  0  0  0
  134.3320  135.8720   75.2630 C   0  0  0  0  0  0  0  0  0  0  0  0
  135.2890  134.8660   75.4080 C   0  0  0  0  0  0  0  0  0  0  0  0
  136.3450  135.0180   76.3020 C   0  0  0  0  0  0  0  0  0  0  0  0
  136.4800  136.1900   77.0640 C   0  0  0  0  0  0  0  0  0  0  0  0
  137.5250  136.3630   77.9750 N   0  0  0  0  0  0  0  0  0  0  0  0
  137.2060  136.5980   79.3970 C   0  0  0  0  0  0  0  0  0  0  0  0
  138.4120  136.3830   80.3360 C   0  0  0  0  0  0  0  0  0  0  0  0
  139.5020  137.1920   79.9200 O   0  0  0  0  0  0  0  0  0  0  0  0
  139.9130  136.8800   78.5970 C   0  0  0  0  0  0  0  0  0  0  0  0
  138.7440  137.1120   77.6160 C   0  0  0  0  0  0  0  0  0  0  0  0
  135.5120  137.1930   76.9110 C   0  0  0  0  0  0  0  0  0  0  0  0
  134.4570  137.0390   76.0180 C   0  0  0  0  0  0  0  0  0  0  0  0
  133.1310  136.4450   73.0710 C   0  0  0  0  0  0  0  0  0  0  0  0
  134.0100  137.3810   72.4180 C   0  0  0  0  0  0  0  0  0  0  0  0
  135.2280  137.7420   72.9330 N   0  0  0  0  0  0  0  0  0  0  0  0
  1  2  1  0
  2  3  1  0
  3  4  2  0
  3  5  1  0
  5  6  1  0
  6  7  1  0
  7  8  2  0
  8  9  1  0
  9 10  1  0
 10 11  2  0
 11 12  1  0
 12 13  2  0
 13 14  1  0
 14 15  1  0
 15 16  1  0
 16 17  1  0
 17 18  1  0
 18 19  1  0
 13 20  1  0
 20 21  2  0
  9 22  2  0
 22 23  1  0
 23 24  1  0
 24 25  2  0
 25 26  1  0
 26 27  2  0
 27 28  1  0
 28 29  1  0
 29 30  1  0
 30 31  1  0
 31 32  1  0
 32 33  1  0
 27 34  1  0
 34 35  2  0
 23 36  2  0
 36 37  1  0
 37 38  1  0
 37  5  2  0
 36  7  1  0
 21 10  1  0
 35 24  1  0
 19 14  1  0
 33 28  1  0
M  END
>  <Binding energies>  (66) 
[-5.66]

>  <Ligand effiencies>  (66) 
[-0.14150000000000001]

>  <Interactions>  (66) 
["V-A:LYS:547:CE:4948, V-B:LYS:471:CD:9191, V-B:HIS:456:CD2:9040, V-B:VAL:458:CG2:9059, V-B:LYS:471:CE:9192, V-B:HIS:456:CG:9038, V-B:HIS:456:CB:9037, V-A:PHE:548:CB:4958, V-B:TYR:484:CB:9313, V-B:HIS:456:C:9033, V-B:SER:483:CB:9305, V-A:VAL:542:CG1:4897, V-B:SER:483:CA:9303, V-B:ASP:473:CG:9212, V-A:ARG:356:CD:3117, V-A:PHE:548:CG:4959, V-A:PHE:548:CD2:4961, V-B:LYS:471:CG:9190, H-B:VAL:457:N:9048, V-A:VAL:542:CG2:4898, H-B:SER:483:OG:9306"]

$$$$
RR10_Rahimova_2017
     RDKit          3D

 34 38  0  0  0  0  0  0  0  0999 V2000
  124.2250  123.2130   56.1300 C   0  0  0  0  0  0  0  0  0  0  0  0
  125.7620  123.1690   56.1720 C   0  0  1  0  0  0  0  0  0  0  0  0
  126.3850  123.4000   54.7760 C   0  0  0  0  0  0  0  0  0  0  0  0
  127.9270  123.3170   54.8370 C   0  0  0  0  0  0  0  0  0  0  0  0
  128.5290  124.3380   55.8360 C   0  0  1  0  0  0  0  0  0  0  0  0
  128.3440  125.7120   55.3510 N   0  0  0  0  0  0  0  0  0  0  0  0
  129.3330  126.5860   55.0890 C   0  0  0  0  0  0  0  0  0  0  0  0
  130.5280  126.3050   55.2120 O   0  0  0  0  0  0  0  0  0  0  0  0
  128.9100  127.9960   54.6290 C   0  0  1  0  0  0  0  0  0  0  0  0
  127.3620  128.0930   54.6260 C   0  0  0  0  0  0  0  0  0  0  0  0
  126.9340  129.5330   54.2550 C   0  0  0  0  0  0  0  0  0  0  0  0
  127.6300  130.6020   55.1300 C   0  0  0  0  0  0  0  0  0  0  0  0
  129.1040  130.4010   55.1300 N   0  0  0  0  0  0  0  0  0  0  0  0
  130.0250  131.7330   55.8490 S   0  0  0  0  0  0  0  0  0  0  0  0
  129.3970  132.9960   55.4400 O   0  0  0  0  0  0  0  0  0  0  0  0
  131.4490  131.4940   55.5790 O   0  0  0  0  0  0  0  0  0  0  0  0
  129.7660  131.5780   57.6160 C   0  0  0  0  0  0  0  0  0  0  0  0
  130.8450  131.7700   58.4860 C   0  0  0  0  0  0  0  0  0  0  0  0
  130.7100  131.6610   59.8730 C   0  0  0  0  0  0  0  0  0  0  0  0
  129.4350  131.3510   60.3540 C   0  0  0  0  0  0  0  0  0  0  0  0
  128.9120  131.1580   61.6100 N   0  0  0  0  0  0  0  0  0  0  0  0
  127.5700  130.8700   61.4720 C   0  0  0  0  0  0  0  0  0  0  0  0
  126.6570  130.5870   62.6300 C   0  0  0  0  0  0  0  0  0  0  0  0
  126.9170  129.5130   63.4930 C   0  0  0  0  0  0  0  0  0  0  0  0
  126.0740  129.2520   64.5700 C   0  0  0  0  0  0  0  0  0  0  0  0
  124.9640  130.0640   64.7890 C   0  0  0  0  0  0  0  0  0  0  0  0
  124.6920  131.1340   63.9420 C   0  0  0  0  0  0  0  0  0  0  0  0
  125.5360  131.3940   62.8650 C   0  0  0  0  0  0  0  0  0  0  0  0
  127.1940  130.8700   60.2120 N   0  0  0  0  0  0  0  0  0  0  0  0
  128.3250  131.1620   59.4960 C   0  0  0  0  0  0  0  0  0  0  0  0
  128.4900  131.2800   58.1090 C   0  0  0  0  0  0  0  0  0  0  0  0
  129.5170  129.0500   55.5870 C   0  0  0  0  0  0  0  0  0  0  0  0
  127.8820  124.1050   57.2290 C   0  0  0  0  0  0  0  0  0  0  0  0
  126.3410  124.1960   57.1740 C   0  0  0  0  0  0  0  0  0  0  0  0
  2  1  1  6
  2  3  1  0
  3  4  1  0
  4  5  1  0
  5  6  1  6
  6  7  1  0
  7  8  2  0
  9  7  1  1
  9 10  1  0
 10 11  1  0
 11 12  1  0
 12 13  1  0
 13 14  1  0
 14 15  2  0
 14 16  2  0
 14 17  1  0
 17 18  2  0
 18 19  1  0
 19 20  2  0
 20 21  1  0
 21 22  1  0
 22 23  1  0
 23 24  2  0
 24 25  1  0
 25 26  2  0
 26 27  1  0
 27 28  2  0
 22 29  2  0
 29 30  1  0
 30 31  2  0
 13 32  1  0
  5 33  1  0
 33 34  1  0
 34  2  1  0
 32  9  1  0
 31 17  1  0
 30 20  1  0
 28 23  1  0
M  END
>  <Binding energies>  (67) 
[-10.89]

>  <Ligand effiencies>  (67) 
[-0.3025]

>  <Interactions>  (67) 
["V-A:PRO:540:N:4882, H-A:TYR:539:N:4868, V-A:TYR:539:CE1:4873, V-A:TYR:539:CZ:4875, V-A:PRO:540:CB:4883, V-B:MET:535:CE:9807, H-A:TYR:531:OH:4793, V-A:PRO:540:CA:4881, V-B:PRO:540:CD:9859, V-B:PRO:540:CB:9857, V-B:PRO:540:N:9856, V-B:ILE:538:CG2:9835, V-B:ILE:538:CB:9834, V-B:TYR:539:CE1:9847, V-B:ILE:538:CA:9832, V-B:TYR:539:CD1:9845, V-B:ILE:538:C:9830, V-B:LEU:363:CD1:8161, V-B:TYR:531:CE2:9765, H-B:MET:535:SD:9806, V-A:GLU:543:CD:4906, H-B:TYR:531:OH:9767, V-A:TYR:539:C:4865, V-A:TYR:539:CE2:4874, H-A:GLU:543:OE1:4907, V-B:ARG:545:CZ:9898, V-B:GLY:454:CA:9021, H-A:GLU:543:OE2:4908, V-A:PRO:540:C:4879"]

$$$$
RR12_Rahimova_2017
     RDKit          3D

 26 28  0  0  0  0  0  0  0  0999 V2000
  129.1520  124.3290   52.5820 C   0  0  0  0  0  0  0  0  0  0  0  0
  127.7570  123.9780   53.1150 C   0  0  0  0  0  0  0  0  0  0  0  0
  127.8100  123.0850   54.3680 C   0  0  0  0  0  0  0  0  0  0  0  0
  127.3070  123.8020   55.5370 N   0  0  0  0  0  0  0  0  0  0  0  0
  127.9690  124.7610   56.2880 C   0  0  0  0  0  0  0  0  0  0  0  0
  129.3990  125.2020   56.0280 C   0  0  0  0  0  0  0  0  0  0  0  0
  129.4740  126.5970   55.3810 C   0  0  0  0  0  0  0  0  0  0  0  0
  128.0840  127.1840   55.0680 C   0  0  0  0  0  0  0  0  0  0  0  0
  128.1200  128.5730   54.6110 N   0  0  0  0  0  0  0  0  0  0  0  0
  127.1090  129.4530   54.7350 C   0  0  0  0  0  0  0  0  0  0  0  0
  126.0280  129.1700   55.2560 O   0  0  0  0  0  0  0  0  0  0  0  0
  127.3820  130.8590   54.1880 C   0  0  0  0  0  0  0  0  0  0  0  0
  128.7400  130.9460   53.7520 O   0  0  0  0  0  0  0  0  0  0  0  0
  129.7160  131.3260   54.6540 C   0  0  0  0  0  0  0  0  0  0  0  0
  129.2690  131.8230   55.8800 C   0  0  0  0  0  0  0  0  0  0  0  0
  130.1790  132.2280   56.8530 C   0  0  0  0  0  0  0  0  0  0  0  0
  131.5440  132.1360   56.6010 C   0  0  0  0  0  0  0  0  0  0  0  0
  132.0080  131.6450   55.3820 C   0  0  0  0  0  0  0  0  0  0  0  0
  131.0970  131.2410   54.4090 C   0  0  0  0  0  0  0  0  0  0  0  0
  127.2440  125.2460   57.2660 N   0  0  0  0  0  0  0  0  0  0  0  0
  126.0380  124.6110   57.1580 C   0  0  0  0  0  0  0  0  0  0  0  0
  124.8870  124.7620   57.9460 C   0  0  0  0  0  0  0  0  0  0  0  0
  123.7670  123.9950   57.6260 C   0  0  0  0  0  0  0  0  0  0  0  0
  123.7820  123.1010   56.5550 C   0  0  0  0  0  0  0  0  0  0  0  0
  124.9120  122.9270   55.7530 C   0  0  0  0  0  0  0  0  0  0  0  0
  126.0370  123.6960   56.0750 C   0  0  0  0  0  0  0  0  0  0  0  0
  1  2  1  0
  2  3  1  0
  3  4  1  0
  4  5  1  0
  5  6  1  0
  6  7  1  0
  7  8  1  0
  8  9  1  0
  9 10  1  0
 10 11  2  0
 10 12  1  0
 12 13  1  0
 13 14  1  0
 14 15  2  0
 15 16  1  0
 16 17  2  0
 17 18  1  0
 18 19  2  0
  5 20  2  0
 20 21  1  0
 21 22  2  0
 22 23  1  0
 23 24  2  0
 24 25  1  0
 25 26  2  0
 26  4  1  0
 19 14  1  0
 26 21  1  0
M  END
>  <Binding energies>  (68) 
[-8.1]

>  <Ligand effiencies>  (68) 
[-0.3]

>  <Interactions>  (68) 
["V-A:TYR:531:CE2:4791, V-B:ASP:366:CG:8185, V-A:PRO:540:CD:4885, V-A:PRO:540:N:4882, V-A:TYR:539:CE1:4873, V-A:TYR:539:CZ:4875, V-A:PRO:540:CB:4883, V-A:ILE:538:CG2:4861, V-A:TYR:531:CZ:4792, V-A:ILE:538:CA:4858, V-A:ILE:538:CB:4860, V-A:MET:535:CB:4830, V-A:MET:535:CG:4831, V-A:PRO:540:CA:4881, V-B:PRO:540:CD:9859, V-B:MET:535:CG:9805, V-B:MET:535:CB:9804, V-B:PRO:540:CB:9857, V-B:PRO:540:N:9856, V-B:ILE:538:CG2:9835, V-B:ILE:538:CB:9834, V-B:TYR:539:CE1:9847, V-B:ILE:538:CA:9832, V-A:MET:535:CE:4833, V-B:TYR:539:CD1:9845, V-B:ILE:538:C:9830, V-B:LEU:363:CD1:8161, V-B:TYR:531:CE2:9765, H-B:MET:535:SD:9806, H-B:TYR:531:OH:9767, V-A:TYR:539:C:4865, V-A:TYR:539:CA:4867, V-A:TYR:539:CD1:4871, H-A:TYR:539:OH:4876, V-B:PRO:540:CG:9858, V-B:LEU:363:CA:8157, H-A:MET:535:SD:4832"]

$$$$
RR13_Rahimova_2017
     RDKit          3D

 48 54  0  0  0  0  0  0  0  0999 V2000
  129.0960  131.9040   60.2770 Cl  0  0  0  0  0  0  0  0  0  0  0  0
  128.8480  131.6740   58.5790 C   0  0  0  0  0  0  0  0  0  0  0  0
  129.7720  132.2490   57.7030 C   0  0  0  0  0  0  0  0  0  0  0  0
  129.6180  132.1180   56.3260 C   0  0  0  0  0  0  0  0  0  0  0  0
  128.5330  131.4120   55.8140 C   0  0  0  0  0  0  0  0  0  0  0  0
  127.6070  130.8350   56.6800 C   0  0  0  0  0  0  0  0  0  0  0  0
  127.7520  130.9460   58.0730 C   0  0  0  0  0  0  0  0  0  0  0  0
  126.6980  130.3180   59.0120 C   0  0  1  0  0  0  0  0  0  0  0  0
  125.2750  130.7030   58.5790 C   0  0  0  0  0  0  0  0  0  0  0  0
  124.5730  130.1530   57.6130 N   0  0  0  0  0  0  0  0  0  0  0  0
  123.3670  130.8460   57.5770 N   0  0  0  0  0  0  0  0  0  0  0  0
  123.3630  131.8420   58.5340 N   0  0  0  0  0  0  0  0  0  0  0  0
  124.5610  131.7500   59.1220 N   0  0  0  0  0  0  0  0  0  0  0  0
  124.9100  132.6330   60.2280 C   0  0  0  0  0  0  0  0  0  0  0  0
  124.0610  132.2960   61.4690 C   0  0  0  0  0  0  0  0  0  0  0  0
  124.8670  131.5710   62.5360 C   0  0  0  0  0  0  0  0  0  0  0  0
  124.4630  130.3080   62.9770 C   0  0  0  0  0  0  0  0  0  0  0  0
  125.1960  129.6490   63.9600 C   0  0  0  0  0  0  0  0  0  0  0  0
  126.3310  130.2550   64.4980 C   0  0  0  0  0  0  0  0  0  0  0  0
  126.7370  131.5140   64.0630 C   0  0  0  0  0  0  0  0  0  0  0  0
  126.0040  132.1740   63.0800 C   0  0  0  0  0  0  0  0  0  0  0  0
  126.8600  128.8550   59.1870 N   0  0  0  0  0  0  0  0  0  0  0  0
  126.9440  128.5110   60.6180 C   0  0  0  0  0  0  0  0  0  0  0  0
  126.9790  126.9780   60.8130 C   0  0  0  0  0  0  0  0  0  0  0  0
  128.1590  126.3960   60.1530 N   0  0  0  0  0  0  0  0  0  0  0  0
  128.2770  124.9380   60.3830 C   0  0  1  0  0  0  0  0  0  0  0  0
  129.3980  124.5050   61.3540 C   0  0  0  0  0  0  0  0  0  0  0  0
  130.0040  125.5110   62.1200 C   0  0  0  0  0  0  0  0  0  0  0  0
  131.0130  125.2100   63.0340 C   0  0  0  0  0  0  0  0  0  0  0  0
  131.4360  123.8940   63.1930 C   0  0  0  0  0  0  0  0  0  0  0  0
  130.8580  122.8830   62.4300 C   0  0  0  0  0  0  0  0  0  0  0  0
  129.8490  123.1740   61.5080 C   0  0  0  0  0  0  0  0  0  0  0  0
  129.2430  121.8580   60.5590 Cl  0  0  0  0  0  0  0  0  0  0  0  0
  126.9530  124.2840   60.7840 C   0  0  0  0  0  0  0  0  0  0  0  0
  126.7100  123.6980   61.9340 N   0  0  0  0  0  0  0  0  0  0  0  0
  125.3890  123.2660   61.8720 N   0  0  0  0  0  0  0  0  0  0  0  0
  124.8330  123.6190   60.6600 N   0  0  0  0  0  0  0  0  0  0  0  0
  125.8100  124.2660   60.0130 N   0  0  0  0  0  0  0  0  0  0  0  0
  125.5820  124.7740   58.6650 C   0  0  0  0  0  0  0  0  0  0  0  0
  125.2910  123.6140   57.6950 C   0  0  0  0  0  0  0  0  0  0  0  0
  126.3030  123.5450   56.5630 C   0  0  0  0  0  0  0  0  0  0  0  0
  125.8800  123.6920   55.2390 C   0  0  0  0  0  0  0  0  0  0  0  0
  126.8080  123.6360   54.2020 C   0  0  0  0  0  0  0  0  0  0  0  0
  128.1560  123.4320   54.4930 C   0  0  0  0  0  0  0  0  0  0  0  0
  128.5840  123.2860   55.8120 C   0  0  0  0  0  0  0  0  0  0  0  0
  127.6570  123.3430   56.8480 C   0  0  0  0  0  0  0  0  0  0  0  0
  128.0680  126.7380   58.7210 C   0  0  0  0  0  0  0  0  0  0  0  0
  128.0440  128.2720   58.5320 C   0  0  0  0  0  0  0  0  0  0  0  0
  1  2  1  0
  2  3  2  0
  3  4  1  0
  4  5  2  0
  5  6  1  0
  6  7  2  0
  7  8  1  0
  8  9  1  0
  9 10  2  0
 10 11  1  0
 11 12  2  0
 12 13  1  0
 13 14  1  0
 14 15  1  0
 15 16  1  0
 16 17  2  0
 17 18  1  0
 18 19  2  0
 19 20  1  0
 20 21  2  0
  8 22  1  6
 22 23  1  0
 23 24  1  0
 24 25  1  0
 26 25  1  1
 26 27  1  0
 27 28  2  0
 28 29  1  0
 29 30  2  0
 30 31  1  0
 31 32  2  0
 32 33  1  0
 26 34  1  0
 34 35  2  0
 35 36  1  0
 36 37  2  0
 37 38  1  0
 38 39  1  0
 39 40  1  0
 40 41  1  0
 41 42  2  0
 42 43  1  0
 43 44  2  0
 44 45  1  0
 45 46  2  0
 25 47  1  0
 47 48  1  0
  7  2  1  0
 13  9  1  0
 21 16  1  0
 48 22  1  0
 32 27  1  0
 38 34  1  0
 46 41  1  0
M  END
>  <Binding energies>  (69) 
[-14.28]

>  <Ligand effiencies>  (69) 
[-0.2975]

>  <Interactions>  (69) 
["V-B:ASP:366:CG:8185, V-A:PRO:540:N:4882, V-A:TYR:539:CE1:4873, V-A:TYR:539:CZ:4875, V-A:PRO:540:CA:4881, V-B:TYR:539:C:9839, V-B:PRO:540:CD:9859, V-B:MET:535:CG:9805, V-B:MET:535:CB:9804, V-B:PRO:540:CB:9857, V-B:PRO:540:CA:9855, V-B:TYR:539:CZ:9849, H-B:ALA:541:N:9863, V-B:PRO:540:N:9856, V-B:ILE:538:CG2:9835, V-B:ILE:538:CB:9834, V-B:TYR:539:CE1:9847, V-B:ILE:538:CA:9832, V-B:TYR:539:CD2:9846, V-B:TYR:539:CD1:9845, V-B:TYR:539:CE2:9848, V-A:TYR:539:C:4865, V-B:GLU:543:CD:9880, V-A:TYR:539:CE2:4874, V-B:TYR:539:CG:9844, V-B:ARG:545:CZ:9898, V-A:TYR:539:CD1:4871, V-B:ALA:541:CB:9864, V-A:TYR:539:CD2:4872, H-A:TYR:539:OH:4876, V-B:ILE:369:CG2:8209, V-B:ILE:369:CD1:8211, V-B:LEU:475:CD2:9231"]

$$$$
RR14_Rahimova_2017
     RDKit          3D

 39 43  0  0  0  0  0  0  0  0999 V2000
  123.3960  124.3720   57.7110 C   0  0  0  0  0  0  0  0  0  0  0  0
  124.1810  123.2510   57.3210 O   0  0  0  0  0  0  0  0  0  0  0  0
  125.2070  123.4300   56.4120 C   0  0  0  0  0  0  0  0  0  0  0  0
  126.4960  123.1470   56.8640 C   0  0  0  0  0  0  0  0  0  0  0  0
  127.5940  123.3210   56.0270 C   0  0  0  0  0  0  0  0  0  0  0  0
  127.4110  123.7890   54.7240 C   0  0  0  0  0  0  0  0  0  0  0  0
  128.6160  124.0440   53.8270 C   0  0  0  0  0  0  0  0  0  0  0  0
  129.5340  125.0490   54.3620 N   0  0  0  0  0  0  0  0  0  0  0  0
  130.8470  124.8000   54.4250 N   0  0  0  0  0  0  0  0  0  0  0  0
  131.3920  125.9320   55.0000 N   0  0  0  0  0  0  0  0  0  0  0  0
  130.3900  126.8530   55.2850 N   0  0  0  0  0  0  0  0  0  0  0  0
  129.2690  126.2920   54.8950 C   0  0  0  0  0  0  0  0  0  0  0  0
  127.8850  126.9130   55.0260 C   0  0  0  0  0  0  0  0  0  0  0  0
  127.9100  128.1960   55.7490 N   0  0  0  0  0  0  0  0  0  0  0  0
  127.0010  129.1810   55.1510 C   0  0  0  0  0  0  0  0  0  0  0  0
  127.5020  129.7380   53.8010 C   0  0  0  0  0  0  0  0  0  0  0  0
  128.1480  131.1350   53.9080 C   0  0  0  0  0  0  0  0  0  0  0  0
  129.2460  131.1930   54.8790 N   0  0  0  0  0  0  0  0  0  0  0  0
  128.9190  132.1260   55.9640 C   0  0  0  0  0  0  0  0  0  0  0  0
  130.0770  132.2510   56.9780 C   0  0  0  0  0  0  0  0  0  0  0  0
  131.2800  132.6060   56.3040 O   0  0  0  0  0  0  0  0  0  0  0  0
  131.6570  131.6420   55.3290 C   0  0  0  0  0  0  0  0  0  0  0  0
  130.5470  131.5000   54.2650 C   0  0  0  0  0  0  0  0  0  0  0  0
  127.5810  127.9840   57.1660 C   0  0  0  0  0  0  0  0  0  0  0  0
  127.2030  129.2320   57.9610 C   0  0  0  0  0  0  0  0  0  0  0  0
  128.1360  129.9240   58.6600 C   0  0  0  0  0  0  0  0  0  0  0  0
  127.7900  131.1110   59.4690 C   0  0  0  0  0  0  0  0  0  0  0  0
  128.7330  131.8640   60.1890 C   0  0  0  0  0  0  0  0  0  0  0  0
  130.2130  131.5020   60.1870 C   0  0  0  0  0  0  0  0  0  0  0  0
  128.3020  132.9720   60.9220 C   0  0  0  0  0  0  0  0  0  0  0  0
  126.9550  133.3320   60.9420 C   0  0  0  0  0  0  0  0  0  0  0  0
  126.0100  132.5910   60.2270 C   0  0  0  0  0  0  0  0  0  0  0  0
  124.5460  133.0110   60.2670 C   0  0  0  0  0  0  0  0  0  0  0  0
  126.4320  131.4760   59.4870 C   0  0  0  0  0  0  0  0  0  0  0  0
  125.5130  130.6970   58.7530 N   0  0  0  0  0  0  0  0  0  0  0  0
  125.7850  129.6020   57.9980 C   0  0  0  0  0  0  0  0  0  0  0  0
  124.8780  129.0040   57.4190 O   0  0  0  0  0  0  0  0  0  0  0  0
  126.1220  124.0480   54.2530 C   0  0  0  0  0  0  0  0  0  0  0  0
  125.0250  123.8740   55.0920 C   0  0  0  0  0  0  0  0  0  0  0  0
  1  2  1  0
  2  3  1  0
  3  4  2  0
  4  5  1  0
  5  6  2  0
  6  7  1  0
  7  8  1  0
  8  9  1  0
  9 10  2  0
 10 11  1  0
 11 12  2  0
 12 13  1  0
 13 14  1  0
 14 15  1  0
 15 16  1  0
 16 17  1  0
 17 18  1  0
 18 19  1  0
 19 20  1  0
 20 21  1  0
 21 22  1  0
 22 23  1  0
 14 24  1  0
 24 25  1  0
 25 26  2  0
 26 27  1  0
 27 28  2  0
 28 29  1  0
 28 30  1  0
 30 31  2  0
 31 32  1  0
 32 33  1  0
 32 34  2  0
 34 35  1  0
 35 36  1  0
 36 37  2  0
  6 38  1  0
 38 39  2  0
 39  3  1  0
 12  8  1  0
 23 18  1  0
 36 25  1  0
 34 27  1  0
M  END
>  <Binding energies>  (70) 
[-11.36]

>  <Ligand effiencies>  (70) 
[-0.284]

>  <Interactions>  (70) 
["V-A:TYR:531:CE2:4791, V-B:ASP:366:CG:8185, V-A:PRO:540:N:4882, H-A:TYR:539:N:4868, V-A:TYR:539:CE1:4873, V-A:TYR:539:CZ:4875, V-A:ILE:538:CG2:4861, V-A:TYR:531:CZ:4792, V-A:ILE:538:CA:4858, V-A:ILE:538:CB:4860, V-B:MET:535:CE:9807, V-B:ASP:366:CB:8184, H-A:TYR:531:OH:4793, V-A:MET:535:CB:4830, V-A:MET:535:CG:4831, V-A:PRO:540:CA:4881, V-B:TYR:531:CZ:9766, V-B:TYR:539:C:9839, V-B:PRO:540:CD:9859, V-B:MET:535:CG:9805, V-B:MET:535:CB:9804, V-B:PRO:540:CB:9857, V-B:PRO:540:CA:9855, V-B:PRO:540:N:9856, V-B:ILE:538:CG2:9835, V-B:ILE:538:CB:9834, V-B:TYR:539:CE1:9847, V-B:ILE:538:CA:9832, H-B:TYR:539:OH:9850, V-B:TYR:539:CD1:9845, V-B:LEU:363:CD1:8161, V-B:TYR:531:CE2:9765, H-B:TYR:531:OH:9767, V-A:TYR:539:C:4865, V-A:TYR:539:CA:4867, V-A:TYR:539:CE2:4874, H-B:ASP:366:OD1:8186, V-A:TYR:539:CD1:4871, V-A:TYR:539:CD2:4872, H-A:TYR:539:OH:4876, V-A:TYR:539:CG:4870, V-B:ILE:369:CG2:8209, V-A:ALA:541:CB:4890, V-B:LEU:363:CA:8157, H-A:ASN:370:ND2:3246"]

$$$$
RR15_Rahimova_2017
     RDKit          3D

 45 49  0  0  0  0  0  0  0  0999 V2000
  134.1600  120.8010   61.0180 C   0  0  0  0  0  0  0  0  0  0  0  0
  133.0390  120.4610   60.2090 O   0  0  0  0  0  0  0  0  0  0  0  0
  131.8840  121.2180   60.2920 C   0  0  0  0  0  0  0  0  0  0  0  0
  130.7020  120.7690   60.9020 C   0  0  0  0  0  0  0  0  0  0  0  0
  129.5720  121.5830   60.9490 C   0  0  0  0  0  0  0  0  0  0  0  0
  129.5880  122.8630   60.3870 C   0  0  0  0  0  0  0  0  0  0  0  0
  128.3660  123.7380   60.4320 C   0  0  0  0  0  0  0  0  0  0  0  0
  127.1470  123.2630   60.6470 N   0  0  0  0  0  0  0  0  0  0  0  0
  126.3000  124.3520   60.6080 N   0  0  0  0  0  0  0  0  0  0  0  0
  127.1230  125.3830   60.4100 N   0  0  0  0  0  0  0  0  0  0  0  0
  126.6250  126.7300   60.1400 C   0  0  0  0  0  0  0  0  0  0  0  0
  126.3880  127.0470   58.6430 C   0  0  0  0  0  0  0  0  0  0  0  0
  125.6890  126.2710   57.9870 O   0  0  0  0  0  0  0  0  0  0  0  0
  126.9250  128.1810   58.0970 N   0  0  0  0  0  0  0  0  0  0  0  0
  128.3830  128.3290   57.9140 C   0  0  0  0  0  0  0  0  0  0  0  0
  129.0930  127.0140   57.5290 C   0  0  0  0  0  0  0  0  0  0  0  0
  128.5720  126.3510   56.2320 C   0  0  0  0  0  0  0  0  0  0  0  0
  127.6690  125.2210   56.4680 N   0  0  0  0  0  0  0  0  0  0  0  0
  126.9070  124.8170   55.2770 C   0  0  0  0  0  0  0  0  0  0  0  0
  126.0380  123.5720   55.5560 C   0  0  0  0  0  0  0  0  0  0  0  0
  126.8430  122.5150   56.0650 O   0  0  0  0  0  0  0  0  0  0  0  0
  127.5010  122.8680   57.2770 C   0  0  0  0  0  0  0  0  0  0  0  0
  128.4140  124.0920   57.0430 C   0  0  0  0  0  0  0  0  0  0  0  0
  126.1030  129.2620   57.4710 C   0  0  2  0  0  0  0  0  0  0  0  0
  126.5460  129.6410   56.0230 C   0  0  0  0  0  0  0  0  0  0  0  0
  126.0130  129.1260   55.0400 O   0  0  0  0  0  0  0  0  0  0  0  0
  127.5030  130.5820   55.9350 N   0  0  0  0  0  0  0  0  0  0  0  0
  128.0000  131.1660   54.6950 C   0  0  0  0  0  0  0  0  0  0  0  0
  129.3250  131.9160   54.9250 C   0  0  2  0  0  0  0  0  0  0  0  0
  130.5840  131.0330   54.9720 C   0  0  0  0  0  0  0  0  0  0  0  0
  130.8970  130.8980   56.4430 C   0  0  0  0  0  0  0  0  0  0  0  0
  130.4450  132.2480   56.9710 C   0  0  0  0  0  0  0  0  0  0  0  0
  129.2430  132.4760   56.2430 O   0  0  0  0  0  0  0  0  0  0  0  0
  125.8730  130.4020   58.4560 C   0  0  0  0  0  0  0  0  0  0  0  0
  124.5530  130.7400   58.7770 C   0  0  0  0  0  0  0  0  0  0  0  0
  124.2830  131.7730   59.6700 C   0  0  0  0  0  0  0  0  0  0  0  0
  125.3340  132.4770   60.2510 C   0  0  0  0  0  0  0  0  0  0  0  0
  125.0720  133.4800   61.1190 F   0  0  0  0  0  0  0  0  0  0  0  0
  126.6530  132.1540   59.9450 C   0  0  0  0  0  0  0  0  0  0  0  0
  126.9220  131.1210   59.0510 C   0  0  0  0  0  0  0  0  0  0  0  0
  128.4090  125.0460   60.2550 N   0  0  0  0  0  0  0  0  0  0  0  0
  130.7690  123.3090   59.7800 C   0  0  0  0  0  0  0  0  0  0  0  0
  131.9190  122.5020   59.7280 C   0  0  0  0  0  0  0  0  0  0  0  0
  133.1090  122.8990   59.1430 O   0  0  0  0  0  0  0  0  0  0  0  0
  133.2910  124.2620   58.7750 C   0  0  0  0  0  0  0  0  0  0  0  0
  1  2  1  0
  2  3  1  0
  3  4  2  0
  4  5  1  0
  5  6  2  0
  6  7  1  0
  7  8  1  0
  8  9  2  0
  9 10  1  0
 10 11  1  0
 11 12  1  0
 12 13  2  0
 12 14  1  0
 14 15  1  0
 15 16  1  0
 16 17  1  0
 17 18  1  0
 18 19  1  0
 19 20  1  0
 20 21  1  0
 21 22  1  0
 22 23  1  0
 24 14  1  1
 24 25  1  0
 25 26  2  0
 25 27  1  0
 27 28  1  0
 29 28  1  1
 29 30  1  0
 30 31  1  0
 31 32  1  0
 32 33  1  0
 24 34  1  0
 34 35  2  0
 35 36  1  0
 36 37  2  0
 37 38  1  0
 37 39  1  0
 39 40  2  0
 10 41  1  0
  6 42  1  0
 42 43  2  0
 43 44  1  0
 44 45  1  0
 43  3  1  0
 41  7  2  0
 23 18  1  0
 33 29  1  0
 40 34  1  0
M  END
>  <Binding energies>  (71) 
[-9.51]

>  <Ligand effiencies>  (71) 
[-0.2067391304347826]

>  <Interactions>  (71) 
["V-B:ASP:366:CG:8185, V-A:PRO:540:CD:4885, V-A:PRO:540:N:4882, H-A:TYR:539:N:4868, V-A:TYR:539:CE1:4873, V-A:TYR:539:CZ:4875, V-A:ILE:538:CA:4858, V-B:ASP:366:CB:8184, V-A:PRO:540:CA:4881, V-B:TYR:539:C:9839, H-B:TYR:539:N:9842, V-B:TYR:539:CA:9841, V-B:PRO:540:CA:9855, H-B:ALA:541:N:9863, V-B:PRO:540:N:9856, V-B:ILE:538:CG2:9835, V-B:ILE:538:CB:9834, V-B:ILE:538:CA:9832, V-B:TYR:539:CD2:9846, V-B:TYR:539:CE2:9848, H-B:TYR:531:OH:9767, V-A:TYR:539:C:4865, V-A:TYR:539:CA:4867, V-A:TYR:539:CE2:4874, V-A:ASP:366:CG:3211, V-B:TYR:539:CG:9844, V-A:ILE:369:CD1:3237, V-A:TYR:539:CD1:4871, V-B:ALA:541:CB:9864, V-A:TYR:539:CD2:4872, V-B:ILE:369:CG2:8209, V-B:LEU:475:CD2:9231, V-A:ILE:369:CG2:3235, V-A:ASP:366:CB:3210, V-A:LEU:475:CD2:4257, V-A:ASP:366:CA:3208, V-A:SER:385:C:3403"]

$$$$
RR17_Rahimova_2017
     RDKit          3D

 38 41  0  0  0  0  0  0  0  0999 V2000
  123.4790  124.2710   57.9230 C   0  0  0  0  0  0  0  0  0  0  0  0
  123.8770  123.2910   56.8150 C   0  0  0  0  0  0  0  0  0  0  0  0
  125.2180  122.8650   57.0420 O   0  0  0  0  0  0  0  0  0  0  0  0
  126.2120  123.2620   56.1660 C   0  0  0  0  0  0  0  0  0  0  0  0
  127.5180  122.9150   56.5090 C   0  0  0  0  0  0  0  0  0  0  0  0
  128.5850  123.2720   55.6910 C   0  0  0  0  0  0  0  0  0  0  0  0
  128.3660  123.9890   54.5060 C   0  0  0  0  0  0  0  0  0  0  0  0
  129.5360  124.3590   53.6420 C   0  0  0  0  0  0  0  0  0  0  0  0
  129.6450  123.9720   52.4750 O   0  0  0  0  0  0  0  0  0  0  0  0
  130.6270  125.2460   54.2810 C   0  0  0  0  0  0  0  0  0  0  0  0
  130.1390  125.8540   55.9360 S   0  0  0  0  0  0  0  0  0  0  0  0
  131.4550  125.1780   56.9090 C   0  0  0  0  0  0  0  0  0  0  0  0
  132.7310  125.2370   56.6080 N   0  0  0  0  0  0  0  0  0  0  0  0
  133.4370  124.6020   57.6220 N   0  0  0  0  0  0  0  0  0  0  0  0
  132.5610  124.1860   58.5010 C   0  0  0  0  0  0  0  0  0  0  0  0
  132.9080  123.4460   59.7840 C   0  0  0  0  0  0  0  0  0  0  0  0
  133.4780  124.3020   60.8220 N   0  0  0  0  0  0  0  0  0  0  0  0
  132.7880  124.6810   61.9880 C   0  0  0  0  0  0  0  0  0  0  0  0
  133.5190  124.7510   63.1730 C   0  0  0  0  0  0  0  0  0  0  0  0
  132.8960  125.1150   64.3640 C   0  0  0  0  0  0  0  0  0  0  0  0
  131.5320  125.4170   64.3810 C   0  0  0  0  0  0  0  0  0  0  0  0
  130.8620  125.8080   65.6980 C   0  0  0  0  0  0  0  0  0  0  0  0
  131.6620  126.5450   66.4730 F   0  0  0  0  0  0  0  0  0  0  0  0
  129.7530  126.5130   65.4650 F   0  0  0  0  0  0  0  0  0  0  0  0
  130.5330  124.7030   66.3670 F   0  0  0  0  0  0  0  0  0  0  0  0
  130.7980  125.3550   63.1920 C   0  0  0  0  0  0  0  0  0  0  0  0
  131.4220  124.9920   62.0020 C   0  0  0  0  0  0  0  0  0  0  0  0
  131.2790  124.5090   58.1040 N   0  0  0  0  0  0  0  0  0  0  0  0
  130.0780  124.2460   58.7780 C   0  0  0  0  0  0  0  0  0  0  0  0
  129.1930  125.2920   59.0410 C   0  0  0  0  0  0  0  0  0  0  0  0
  128.0030  125.0310   59.7130 C   0  0  0  0  0  0  0  0  0  0  0  0
  127.6940  123.7240   60.1250 C   0  0  0  0  0  0  0  0  0  0  0  0
  126.5380  123.3730   60.7950 O   0  0  0  0  0  0  0  0  0  0  0  0
  125.9800  124.2800   61.7400 C   0  0  0  0  0  0  0  0  0  0  0  0
  128.5930  122.6900   59.8550 C   0  0  0  0  0  0  0  0  0  0  0  0
  129.7840  122.9440   59.1820 C   0  0  0  0  0  0  0  0  0  0  0  0
  127.0510  124.3370   54.1610 C   0  0  0  0  0  0  0  0  0  0  0  0
  125.9850  123.9770   54.9820 C   0  0  0  0  0  0  0  0  0  0  0  0
  1  2  1  0
  2  3  1  0
  3  4  1  0
  4  5  2  0
  5  6  1  0
  6  7  2  0
  7  8  1  0
  8  9  2  0
  8 10  1  0
 10 11  1  0
 11 12  1  0
 12 13  2  0
 13 14  1  0
 14 15  2  0
 15 16  1  0
 16 17  1  0
 17 18  1  0
 18 19  2  0
 19 20  1  0
 20 21  2  0
 21 22  1  0
 22 23  1  0
 22 24  1  0
 22 25  1  0
 21 26  1  0
 26 27  2  0
 15 28  1  0
 28 29  1  0
 29 30  2  0
 30 31  1  0
 31 32  2  0
 32 33  1  0
 33 34  1  0
 32 35  1  0
 35 36  2  0
  7 37  1  0
 37 38  2  0
 38  4  1  0
 28 12  1  0
 36 29  1  0
 27 18  1  0
M  END
>  <Binding energies>  (72) 
[-9.82]

>  <Ligand effiencies>  (72) 
[-0.2517948717948718]

>  <Interactions>  (72) 
["V-B:ASP:366:CG:8185, V-B:ASP:366:CB:8184, H-A:TYR:531:OH:4793, V-B:TYR:531:CZ:9766, V-B:TYR:539:C:9839, V-B:PRO:540:CD:9859, V-B:MET:535:CG:9805, V-B:MET:535:CB:9804, V-B:TYR:539:CA:9841, V-B:PRO:540:CB:9857, V-B:PRO:540:CA:9855, V-B:TYR:539:CZ:9849, H-B:ALA:541:N:9863, V-B:PRO:540:N:9856, V-B:ILE:538:CG2:9835, V-B:ILE:538:CB:9834, V-B:TYR:539:CE1:9847, V-B:ILE:538:CA:9832, V-A:TYR:531:CE1:4790, V-B:TYR:539:CD2:9846, H-B:TYR:539:OH:9850, V-B:TYR:539:CD1:9845, V-B:TYR:539:CE2:9848, V-B:LEU:363:CD1:8161, V-B:TYR:531:CE2:9765, V-A:HIS:456:CE1:4068, V-A:GLU:543:CD:4906, V-B:GLU:543:CD:9880, V-A:ASP:366:CG:3211, V-B:TYR:539:CG:9844, V-A:ILE:369:CD1:3237, V-A:ARG:545:CZ:4924, V-B:PRO:540:CG:9858, V-B:LEU:363:CA:8157, V-A:GLY:453:C:4040, V-A:GLY:453:CA:4042, V-A:TYR:484:CZ:4345, H-A:ASP:366:OD1:3212, V-A:TYR:484:CE1:4343, V-B:GLU:543:CG:9879, V-B:GLU:543:CB:9878, V-A:ARG:545:CD:4921, V-A:ARG:545:CG:4920, V-A:GLU:543:CG:4905, H-A:ASN:370:ND2:3246"]

$$$$
RR19_Rahimova_2017
     RDKit          3D

 46 51  0  0  0  0  0  0  0  0999 V2000
  126.7780  124.6890   60.2850 O   0  0  0  0  0  0  0  0  0  0  0  0
  127.6610  125.0900   59.5210 C   0  0  0  0  0  0  0  0  0  0  0  0
  127.8490  126.3740   59.1250 N   0  0  0  0  0  0  0  0  0  0  0  0
  127.3380  127.5720   59.5600 C   0  0  0  0  0  0  0  0  0  0  0  0
  126.4350  127.8040   60.9730 S   0  0  0  0  0  0  0  0  0  0  0  0
  127.6810  128.5490   58.6580 N   0  0  0  0  0  0  0  0  0  0  0  0
  127.5590  129.9010   58.6700 C   0  0  0  0  0  0  0  0  0  0  0  0
  127.2480  130.5990   59.6370 O   0  0  0  0  0  0  0  0  0  0  0  0
  127.8300  130.5670   57.2970 C   0  0  2  0  0  0  0  0  0  0  0  0
  127.2790  129.7840   56.0710 C   0  0  0  0  0  0  0  0  0  0  0  0
  127.5330  130.4330   54.7200 C   0  0  0  0  0  0  0  0  0  0  0  0
  128.8470  130.6100   54.2370 C   0  0  0  0  0  0  0  0  0  0  0  0
  129.0570  131.1320   52.9680 C   0  0  0  0  0  0  0  0  0  0  0  0
  127.9760  131.4670   52.1610 C   0  0  0  0  0  0  0  0  0  0  0  0
  126.6770  131.2710   52.6110 C   0  0  0  0  0  0  0  0  0  0  0  0
  126.4460  130.7480   53.8760 C   0  0  0  0  0  0  0  0  0  0  0  0
  129.2720  130.8980   57.1320 N   0  0  0  0  0  0  0  0  0  0  0  0
  130.2480  130.0180   57.4970 C   0  0  0  0  0  0  0  0  0  0  0  0
  130.0970  128.9070   58.0100 O   0  0  0  0  0  0  0  0  0  0  0  0
  131.5290  130.6760   57.1420 C   0  0  0  0  0  0  0  0  0  0  0  0
  132.8490  130.2490   57.2910 C   0  0  0  0  0  0  0  0  0  0  0  0
  133.8780  131.0890   56.8520 C   0  0  0  0  0  0  0  0  0  0  0  0
  133.5790  132.3310   56.2760 C   0  0  0  0  0  0  0  0  0  0  0  0
  132.2490  132.7410   56.1350 C   0  0  0  0  0  0  0  0  0  0  0  0
  131.2370  131.8890   56.5800 C   0  0  0  0  0  0  0  0  0  0  0  0
  129.7600  132.0380   56.5580 C   0  0  0  0  0  0  0  0  0  0  0  0
  129.1160  132.9870   56.1090 O   0  0  0  0  0  0  0  0  0  0  0  0
  128.6690  124.0760   58.9170 C   0  0  2  0  0  0  0  0  0  0  0  0
  130.0670  124.0930   59.6000 C   0  0  0  0  0  0  0  0  0  0  0  0
  130.5650  122.7210   60.0180 C   0  0  0  0  0  0  0  0  0  0  0  0
  129.6450  121.7020   60.3430 C   0  0  0  0  0  0  0  0  0  0  0  0
  130.1000  120.4200   60.6260 C   0  0  0  0  0  0  0  0  0  0  0  0
  131.4560  120.1290   60.5630 C   0  0  0  0  0  0  0  0  0  0  0  0
  132.3700  121.1120   60.2050 C   0  0  0  0  0  0  0  0  0  0  0  0
  131.9360  122.4000   59.9200 C   0  0  0  0  0  0  0  0  0  0  0  0
  128.7850  124.1700   57.4330 N   0  0  0  0  0  0  0  0  0  0  0  0
  129.6430  125.0440   56.8360 C   0  0  0  0  0  0  0  0  0  0  0  0
  130.3930  125.8490   57.3880 O   0  0  0  0  0  0  0  0  0  0  0  0
  129.4830  124.8170   55.3780 C   0  0  0  0  0  0  0  0  0  0  0  0
  130.1000  125.4270   54.2840 C   0  0  0  0  0  0  0  0  0  0  0  0
  129.7520  125.0030   52.9970 C   0  0  0  0  0  0  0  0  0  0  0  0
  128.8050  123.9860   52.8200 C   0  0  0  0  0  0  0  0  0  0  0  0
  128.1990  123.3850   53.9290 C   0  0  0  0  0  0  0  0  0  0  0  0
  128.5580  123.8240   55.2050 C   0  0  0  0  0  0  0  0  0  0  0  0
  128.1010  123.3870   56.5470 C   0  0  0  0  0  0  0  0  0  0  0  0
  127.2810  122.5060   56.8060 O   0  0  0  0  0  0  0  0  0  0  0  0
  1  2  2  0
  2  3  1  0
  3  4  1  0
  4  5  2  0
  4  6  1  0
  6  7  1  0
  7  8  2  0
  7  9  1  0
  9 10  1  6
 10 11  1  0
 11 12  2  0
 12 13  1  0
 13 14  2  0
 14 15  1  0
 15 16  2  0
  9 17  1  0
 17 18  1  0
 18 19  2  0
 18 20  1  0
 20 21  2  0
 21 22  1  0
 22 23  2  0
 23 24  1  0
 24 25  2  0
 25 26  1  0
 26 27  2  0
  2 28  1  0
 28 29  1  1
 29 30  1  0
 30 31  2  0
 31 32  1  0
 32 33  2  0
 33 34  1  0
 34 35  2  0
 28 36  1  0
 36 37  1  0
 37 38  2  0
 37 39  1  0
 39 40  2  0
 40 41  1  0
 41 42  2  0
 42 43  1  0
 43 44  2  0
 44 45  1  0
 45 46  2  0
 16 11  1  0
 26 17  1  0
 35 30  1  0
 45 36  1  0
 25 20  1  0
 44 39  1  0
M  END
>  <Binding energies>  (73) 
[-12.21]

>  <Ligand effiencies>  (73) 
[-0.254375]

>  <Interactions>  (73) 
["V-A:TYR:531:CE2:4791, V-B:ASP:366:CG:8185, V-A:PRO:540:CD:4885, V-A:PRO:540:N:4882, H-A:TYR:539:N:4868, V-A:VAL:537:C:4848, V-A:TYR:539:CE1:4873, V-A:TYR:539:CZ:4875, V-A:PRO:540:CB:4883, V-A:LEU:363:CD1:3187, V-A:ILE:538:CG2:4861, V-A:TYR:531:CZ:4792, V-A:LEU:363:CA:3183, V-A:ILE:538:CA:4858, V-A:ILE:538:CB:4860, V-B:MET:535:CE:9807, V-A:PRO:540:CG:4884, V-A:MET:535:CB:4830, V-A:MET:535:CG:4831, V-A:PRO:540:CA:4881, H-B:TYR:539:N:9842, V-B:MET:535:CB:9804, V-B:TYR:539:CZ:9849, V-B:TYR:539:CE1:9847, V-B:ILE:538:CA:9832, V-A:MET:535:CE:4833, V-B:TYR:539:CD2:9846, V-B:TYR:539:CD1:9845, V-B:TYR:539:CE2:9848, V-A:TYR:539:C:4865, V-A:ASP:366:CG:3211, V-B:TYR:539:CG:9844, V-B:ALA:541:CB:9864, V-A:TRP:381:CZ2:3368, V-A:TRP:381:CH2:3370, V-A:ILE:369:CG2:3235, V-A:ASP:366:CB:3210, V-A:LEU:475:CD2:4257, V-A:LEU:363:CB:3185"]

$$$$
RR1_Rahimova_2017
     RDKit          3D

 41 44  0  0  0  0  0  0  0  0999 V2000
  125.7720  124.0090   62.1260 C   0  0  0  0  0  0  0  0  0  0  0  0
  124.7620  124.0150   61.1230 O   0  0  0  0  0  0  0  0  0  0  0  0
  125.1330  124.0170   59.7930 C   0  0  0  0  0  0  0  0  0  0  0  0
  126.4620  124.0360   59.3410 C   0  0  0  0  0  0  0  0  0  0  0  0
  126.7400  124.0440   57.9770 C   0  0  0  0  0  0  0  0  0  0  0  0
  125.7020  124.0270   57.0450 C   0  0  0  0  0  0  0  0  0  0  0  0
  126.0830  124.0840   55.6910 N   0  0  0  0  0  0  0  0  0  0  0  0
  126.9910  123.3380   55.0260 C   0  0  0  0  0  0  0  0  0  0  0  0
  127.7160  122.4890   55.5450 O   0  0  0  0  0  0  0  0  0  0  0  0
  127.0760  123.6260   53.5180 C   0  0  0  0  0  0  0  0  0  0  0  0
  128.5750  124.5160   52.9740 S   0  0  0  0  0  0  0  0  0  0  0  0
  128.5980  125.7440   54.2370 C   0  0  0  0  0  0  0  0  0  0  0  0
  127.5280  126.3270   54.7160 N   0  0  0  0  0  0  0  0  0  0  0  0
  128.0040  127.1560   55.6390 C   0  0  0  0  0  0  0  0  0  0  0  0
  127.1110  128.0350   56.4680 C   0  0  0  0  0  0  0  0  0  0  0  0
  126.8250  127.7340   57.8090 C   0  0  0  0  0  0  0  0  0  0  0  0
  125.9890  128.5670   58.5540 C   0  0  0  0  0  0  0  0  0  0  0  0
  125.4520  129.6950   57.9350 C   0  0  0  0  0  0  0  0  0  0  0  0
  125.7070  130.0150   56.6420 N   0  0  0  0  0  0  0  0  0  0  0  0
  126.5230  129.1930   55.9350 C   0  0  0  0  0  0  0  0  0  0  0  0
  129.3170  127.1520   55.7810 N   0  0  0  0  0  0  0  0  0  0  0  0
  129.7010  126.2450   54.8780 N   0  0  0  0  0  0  0  0  0  0  0  0
  131.1160  125.9080   54.7200 C   0  0  0  0  0  0  0  0  0  0  0  0
  131.8370  125.5030   56.0170 C   0  0  0  0  0  0  0  0  0  0  0  0
  133.0710  125.5130   56.0850 O   0  0  0  0  0  0  0  0  0  0  0  0
  131.0250  125.1470   57.0310 N   0  0  0  0  0  0  0  0  0  0  0  0
  131.5950  124.9120   58.2740 N   0  0  0  0  0  0  0  0  0  0  0  0
  130.7870  124.9490   59.3560 C   0  0  0  0  0  0  0  0  0  0  0  0
  129.5600  125.0760   59.2990 O   0  0  0  0  0  0  0  0  0  0  0  0
  131.4780  124.7940   60.6960 C   0  0  0  0  0  0  0  0  0  0  0  0
  131.2780  125.7490   61.6990 C   0  0  0  0  0  0  0  0  0  0  0  0
  131.9110  125.6330   62.9320 C   0  0  0  0  0  0  0  0  0  0  0  0
  132.7730  124.5570   63.1980 C   0  0  0  0  0  0  0  0  0  0  0  0
  133.4440  124.3900   64.3970 O   0  0  0  0  0  0  0  0  0  0  0  0
  133.1370  125.2390   65.4960 C   0  0  0  0  0  0  0  0  0  0  0  0
  132.9930  123.5940   62.2040 C   0  0  0  0  0  0  0  0  0  0  0  0
  133.8670  122.5640   62.5090 O   0  0  0  0  0  0  0  0  0  0  0  0
  134.0550  121.5020   61.5810 C   0  0  0  0  0  0  0  0  0  0  0  0
  132.3410  123.7190   60.9640 C   0  0  0  0  0  0  0  0  0  0  0  0
  124.3720  124.0070   57.4920 C   0  0  0  0  0  0  0  0  0  0  0  0
  124.0980  123.9980   58.8570 C   0  0  0  0  0  0  0  0  0  0  0  0
  1  2  1  0
  2  3  1  0
  3  4  2  0
  4  5  1  0
  5  6  2  0
  6  7  1  0
  7  8  1  0
  8  9  2  0
  8 10  1  0
 10 11  1  0
 11 12  1  0
 12 13  2  0
 13 14  1  0
 14 15  1  0
 15 16  2  0
 16 17  1  0
 17 18  2  0
 18 19  1  0
 19 20  2  0
 14 21  2  0
 21 22  1  0
 22 23  1  0
 23 24  1  0
 24 25  2  0
 24 26  1  0
 26 27  1  0
 27 28  1  0
 28 29  2  0
 28 30  1  0
 30 31  2  0
 31 32  1  0
 32 33  2  0
 33 34  1  0
 34 35  1  0
 33 36  1  0
 36 37  1  0
 37 38  1  0
 36 39  2  0
  6 40  1  0
 40 41  2  0
 41  3  1  0
 22 12  1  0
 39 30  1  0
 20 15  1  0
M  END
>  <Binding energies>  (74) 
[-8.73]

>  <Ligand effiencies>  (74) 
[-0.19840909090909092]

>  <Interactions>  (74) 
["V-B:ASP:366:CG:8185, V-A:TYR:531:CZ:4792, V-B:ASP:366:CB:8184, H-A:TYR:531:OH:4793, H-B:TYR:539:N:9842, V-B:MET:535:CG:9805, V-B:MET:535:CB:9804, V-B:PRO:540:CB:9857, V-B:PRO:540:CA:9855, V-B:TYR:539:CZ:9849, V-B:ILE:538:CG2:9835, V-B:ILE:538:CB:9834, V-B:ILE:538:CA:9832, V-A:TYR:531:CE1:4790, H-B:TYR:539:OH:9850, V-B:ILE:538:C:9830, V-B:TYR:539:CE2:9848, V-B:VAL:537:C:9822, V-A:HIS:456:CE1:4068, H-B:TYR:531:OH:9767, V-B:GLU:543:CD:9880, V-A:ASP:366:CG:3211, H-B:ARG:545:NH2:9900, V-A:ILE:369:CD1:3237, H-A:ASP:366:OD2:3213, H-A:TYR:539:OH:4876, H-A:TYR:484:OH:4346, V-A:ARG:545:CZ:4924, H-A:GLY:454:N:4048, V-A:ILE:369:CG2:3235, V-A:LEU:475:CD2:4257, V-B:LEU:363:CA:8157, V-A:TYR:484:CZ:4345, H-A:ASP:366:OD1:3212, V-A:GLY:454:CA:4047, V-A:ARG:545:CD:4921, V-A:ARG:545:CG:4920"]

$$$$
RR22_Rahimova_2017
     RDKit          3D

 31 36  0  0  0  0  0  0  0  0999 V2000
  129.8150  123.3940   52.4880 O   0  0  0  0  0  0  0  0  0  0  0  0
  129.3930  123.8060   53.5670 C   0  0  0  0  0  0  0  0  0  0  0  0
  130.1310  124.2870   54.6340 N   0  0  0  0  0  0  0  0  0  0  0  0
  129.4770  124.7880   55.8040 C   0  0  1  0  0  0  0  0  0  0  0  0
  130.0190  124.0310   56.8900 O   0  0  0  0  0  0  0  0  0  0  0  0
  130.6810  124.7140   57.9100 C   0  0  0  0  0  0  0  0  0  0  0  0
  131.5020  123.9510   58.7410 C   0  0  0  0  0  0  0  0  0  0  0  0
  132.1640  124.5570   59.8080 C   0  0  0  0  0  0  0  0  0  0  0  0
  132.0000  125.9220   60.0480 C   0  0  0  0  0  0  0  0  0  0  0  0
  131.1780  126.6860   59.2180 C   0  0  0  0  0  0  0  0  0  0  0  0
  130.5270  126.0970   58.1300 C   0  0  0  0  0  0  0  0  0  0  0  0
  129.5830  126.8260   57.1990 C   0  0  1  0  0  0  0  0  0  0  0  0
  129.7520  128.2920   56.8540 C   0  0  0  0  0  0  0  0  0  0  0  0
  129.1560  128.2980   55.4430 C   0  0  0  0  0  0  0  0  0  0  0  0
  128.7110  129.5350   54.7710 C   0  0  0  0  0  0  0  0  0  0  0  0
  127.4170  129.6290   54.2350 C   0  0  0  0  0  0  0  0  0  0  0  0
  127.0020  130.7980   53.6030 C   0  0  0  0  0  0  0  0  0  0  0  0
  127.8740  131.8780   53.5020 C   0  0  0  0  0  0  0  0  0  0  0  0
  129.1610  131.8000   54.0290 C   0  0  0  0  0  0  0  0  0  0  0  0
  129.5780  130.6330   54.6630 C   0  0  0  0  0  0  0  0  0  0  0  0
  129.1290  127.1180   54.9480 N   0  0  0  0  0  0  0  0  0  0  0  0
  129.6830  126.2420   55.8960 N   0  0  0  0  0  0  0  0  0  0  0  0
  128.0100  124.4060   55.6810 C   0  0  0  0  0  0  0  0  0  0  0  0
  127.1570  124.4060   56.7330 C   0  0  0  0  0  0  0  0  0  0  0  0
  125.7180  124.0790   56.7500 C   0  0  0  0  0  0  0  0  0  0  0  0
  125.1170  123.2110   55.8260 C   0  0  0  0  0  0  0  0  0  0  0  0
  123.7490  122.9490   55.9040 C   0  0  0  0  0  0  0  0  0  0  0  0
  123.0080  123.5720   56.9080 C   0  0  0  0  0  0  0  0  0  0  0  0
  123.5600  124.4220   57.8100 N   0  0  0  0  0  0  0  0  0  0  0  0
  124.8940  124.6630   57.7190 C   0  0  0  0  0  0  0  0  0  0  0  0
  127.6360  123.8820   54.0320 S   0  0  0  0  0  0  0  0  0  0  0  0
  1  2  2  0
  2  3  1  0
  4  3  1  6
  4  5  1  0
  5  6  1  0
  6  7  2  0
  7  8  1  0
  8  9  2  0
  9 10  1  0
 10 11  2  0
 11 12  1  0
 12 13  1  6
 13 14  1  0
 14 15  1  0
 15 16  2  0
 16 17  1  0
 17 18  2  0
 18 19  1  0
 19 20  2  0
 14 21  2  0
 21 22  1  0
  4 23  1  0
 23 24  2  0
 24 25  1  0
 25 26  2  0
 26 27  1  0
 27 28  2  0
 28 29  1  0
 29 30  2  0
 23 31  1  0
 31  2  1  0
 22  4  1  0
 30 25  1  0
 11  6  1  0
 22 12  1  0
 20 15  1  0
M  END
>  <Binding energies>  (75) 
[-9.36]

>  <Ligand effiencies>  (75) 
[-0.2925]

>  <Interactions>  (75) 
["V-A:TYR:539:CE1:4873, V-A:TYR:539:CZ:4875, V-A:ILE:538:CA:4858, V-B:MET:535:CE:9807, V-A:MET:535:CG:4831, V-B:PRO:540:CD:9859, V-B:PRO:540:CB:9857, V-B:TYR:539:CZ:9849, V-B:PRO:540:N:9856, V-B:ILE:538:CG2:9835, V-B:ILE:538:CB:9834, V-B:TYR:539:CE1:9847, V-B:ILE:538:CA:9832, H-B:TYR:539:OH:9850, V-B:TYR:539:CD1:9845, V-B:TYR:539:CE2:9848, V-B:LEU:363:CD1:8161, V-B:TYR:531:CE2:9765, H-B:TYR:531:OH:9767, V-A:ASP:366:CG:3211, V-A:TYR:539:CD1:4871, V-B:PRO:540:CG:9858, V-B:ILE:538:CD1:9837, V-B:LEU:363:CA:8157, V-B:LEU:363:CB:8159, V-B:LEU:363:CG:8160, H-A:ASN:370:ND2:3246"]

$$$$
RR24_Rahimova_2017
     RDKit          3D

 43 49  0  0  0  0  0  0  0  0999 V2000
  126.8590  131.0000   58.0490 C   0  0  0  0  0  0  0  0  0  0  0  0
  127.4830  130.9920   56.6470 C   0  0  2  0  0  0  0  0  0  0  0  0
  127.0490  129.7680   55.7880 C   0  0  0  0  0  0  0  0  0  0  0  0
  125.8900  129.6290   55.3830 O   0  0  0  0  0  0  0  0  0  0  0  0
  128.0720  128.8900   55.5740 O   0  0  0  0  0  0  0  0  0  0  0  0
  128.1510  127.7420   56.3300 C   0  0  0  0  0  0  0  0  0  0  0  0
  127.5930  127.7250   57.6100 C   0  0  0  0  0  0  0  0  0  0  0  0
  127.6590  126.5670   58.3790 C   0  0  0  0  0  0  0  0  0  0  0  0
  128.2740  125.4200   57.8710 C   0  0  0  0  0  0  0  0  0  0  0  0
  128.3610  124.1540   58.7300 C   0  0  1  0  0  0  0  0  0  0  0  0
  129.7470  124.0030   59.4000 C   0  0  0  0  0  0  0  0  0  0  0  0
  129.8980  123.7800   60.7190 C   0  0  0  0  0  0  0  0  0  0  0  0
  128.8270  123.6700   61.5710 N   0  0  0  0  0  0  0  0  0  0  0  0
  127.5350  123.7860   61.1130 C   0  0  0  0  0  0  0  0  0  0  0  0
  126.5920  123.6440   62.0790 N   0  0  0  0  0  0  0  0  0  0  0  0
  125.2640  123.8050   61.8290 C   0  0  0  0  0  0  0  0  0  0  0  0
  124.4910  123.9820   62.7730 O   0  0  0  0  0  0  0  0  0  0  0  0
  124.9510  123.9160   60.4840 N   0  0  0  0  0  0  0  0  0  0  0  0
  123.5140  124.0010   60.1510 C   0  0  0  0  0  0  0  0  0  0  0  0
  125.8280  124.0690   59.4230 C   0  0  0  0  0  0  0  0  0  0  0  0
  125.4750  124.2160   58.2480 O   0  0  0  0  0  0  0  0  0  0  0  0
  127.2420  124.0180   59.8070 C   0  0  0  0  0  0  0  0  0  0  0  0
  131.3050  123.6830   61.0690 C   0  0  0  0  0  0  0  0  0  0  0  0
  131.9730  123.4680   62.2750 C   0  0  0  0  0  0  0  0  0  0  0  0
  133.3700  123.4270   62.2830 C   0  0  0  0  0  0  0  0  0  0  0  0
  134.0860  123.5980   61.0950 C   0  0  0  0  0  0  0  0  0  0  0  0
  133.4120  123.8120   59.8900 C   0  0  0  0  0  0  0  0  0  0  0  0
  132.0160  123.8530   59.8880 C   0  0  0  0  0  0  0  0  0  0  0  0
  131.0640  124.0580   58.7760 C   0  0  0  0  0  0  0  0  0  0  0  0
  131.2800  124.2380   57.5780 O   0  0  0  0  0  0  0  0  0  0  0  0
  128.8160  125.4350   56.5810 C   0  0  0  0  0  0  0  0  0  0  0  0
  128.7490  126.5910   55.8100 C   0  0  0  0  0  0  0  0  0  0  0  0
  128.9660  131.1570   56.6920 N   0  0  0  0  0  0  0  0  0  0  0  0
  129.7270  130.5120   57.6210 C   0  0  0  0  0  0  0  0  0  0  0  0
  129.3380  129.7540   58.5110 O   0  0  0  0  0  0  0  0  0  0  0  0
  131.1260  130.9170   57.3340 C   0  0  0  0  0  0  0  0  0  0  0  0
  132.3240  130.5710   57.9620 C   0  0  0  0  0  0  0  0  0  0  0  0
  133.5180  131.1100   57.4690 C   0  0  0  0  0  0  0  0  0  0  0  0
  133.5000  131.9760   56.3680 C   0  0  0  0  0  0  0  0  0  0  0  0
  132.2890  132.3100   55.7530 C   0  0  0  0  0  0  0  0  0  0  0  0
  131.1090  131.7640   56.2590 C   0  0  0  0  0  0  0  0  0  0  0  0
  129.6990  131.9250   55.8280 C   0  0  0  0  0  0  0  0  0  0  0  0
  129.2790  132.6010   54.8880 O   0  0  0  0  0  0  0  0  0  0  0  0
  2  1  1  1
  2  3  1  0
  3  4  2  0
  3  5  1  0
  5  6  1  0
  6  7  2  0
  7  8  1  0
  8  9  2  0
 10  9  1  1
 10 11  1  0
 11 12  2  0
 12 13  1  0
 13 14  1  0
 14 15  1  0
 15 16  1  0
 16 17  2  0
 16 18  1  0
 18 19  1  0
 18 20  1  0
 20 21  2  0
 20 22  1  0
 12 23  1  0
 23 24  2  0
 24 25  1  0
 25 26  2  0
 26 27  1  0
 27 28  2  0
 28 29  1  0
 29 30  2  0
  9 31  1  0
 31 32  2  0
  2 33  1  0
 33 34  1  0
 34 35  2  0
 34 36  1  0
 36 37  2  0
 37 38  1  0
 38 39  2  0
 39 40  1  0
 40 41  2  0
 41 42  1  0
 42 43  2  0
 32  6  1  0
 42 33  1  0
 22 10  1  0
 28 23  1  0
 41 36  1  0
 29 11  1  0
 22 14  2  0
M  END
>  <Binding energies>  (76) 
[-11.9]

>  <Ligand effiencies>  (76) 
[-0.2644444444444444]

>  <Interactions>  (76) 
["V-A:TYR:531:CE2:4791, V-B:ASP:366:CG:8185, V-A:PRO:540:CD:4885, V-A:PRO:540:N:4882, H-A:TYR:539:N:4868, V-A:TYR:539:CE1:4873, V-A:TYR:539:CZ:4875, V-A:PRO:540:CB:4883, V-A:LEU:363:CD1:3187, V-A:ILE:538:CG2:4861, V-A:LEU:363:CA:3183, V-A:ILE:538:CA:4858, V-A:ILE:538:CB:4860, V-A:PRO:540:CG:4884, V-B:PRO:540:CB:9857, V-B:PRO:540:CA:9855, V-B:ASN:362:C:8144, V-B:TYR:539:CZ:9849, V-B:ASN:362:CB:8148, H-B:TYR:539:OH:9850, V-B:TYR:539:CE2:9848, H-B:TYR:531:OH:9767, V-B:GLU:543:CD:9880, V-A:TYR:539:CE2:4874, V-A:ASP:366:CG:3211, H-B:ARG:545:NH2:9900, V-A:ILE:369:CD1:3237, V-B:ALA:541:CB:9864, V-A:TYR:539:CD2:4872, H-A:TYR:539:OH:4876, V-B:LEU:363:CA:8157, H-B:ARG:545:NE:9896, H-B:GLU:543:OE2:9882, V-B:ALA:541:C:9860, H-B:ALA:541:O:9861, H-B:GLU:543:OE1:9881, V-A:GLY:454:CA:4047, H-B:ASN:362:ND2:8151, V-B:ASN:362:CA:8146, V-B:ALA:541:CA:9862"]

$$$$
RR25_Rahimova_2017
     RDKit          3D

 39 44  0  0  0  0  0  0  0  0999 V2000
  125.7890  129.6410   55.6470 O   0  0  0  0  0  0  0  0  0  0  0  0
  125.8910  129.7800   56.8670 C   0  0  0  0  0  0  0  0  0  0  0  0
  124.9960  130.6380   57.4570 O   0  0  0  0  0  0  0  0  0  0  0  0
  124.8430  130.6890   58.8300 C   0  0  0  0  0  0  0  0  0  0  0  0
  123.6080  131.1250   59.3080 C   0  0  0  0  0  0  0  0  0  0  0  0
  123.3880  131.2090   60.6820 C   0  0  0  0  0  0  0  0  0  0  0  0
  124.3970  130.8650   61.5940 C   0  0  0  0  0  0  0  0  0  0  0  0
  124.1570  130.9480   63.0560 N   0  0  0  0  0  0  0  0  0  0  0  0
  123.6380  129.9900   63.6220 O   0  0  0  0  0  0  0  0  0  0  0  0
  124.4870  131.9720   63.6470 O   0  0  0  0  0  0  0  0  0  0  0  0
  125.6380  130.4400   61.0920 C   0  0  0  0  0  0  0  0  0  0  0  0
  125.8770  130.3580   59.7170 C   0  0  0  0  0  0  0  0  0  0  0  0
  127.1960  129.8950   59.1250 C   0  0  0  0  0  0  0  0  0  0  0  0
  126.9330  129.1100   57.8090 C   0  0  2  0  0  0  0  0  0  0  0  0
  128.2680  128.7030   57.1220 C   0  0  0  0  0  0  0  0  0  0  0  0
  129.2930  129.2170   57.5800 O   0  0  0  0  0  0  0  0  0  0  0  0
  128.3250  127.7400   56.1530 N   0  0  0  0  0  0  0  0  0  0  0  0
  127.1450  127.3290   55.3640 C   0  0  0  0  0  0  0  0  0  0  0  0
  127.2210  125.8100   55.1030 C   0  0  0  0  0  0  0  0  0  0  0  0
  128.4880  125.4390   54.4660 N   0  0  0  0  0  0  0  0  0  0  0  0
  128.5090  124.0170   54.0960 C   0  0  0  0  0  0  0  0  0  0  0  0
  127.2050  123.2730   54.4910 C   0  0  0  0  0  0  0  0  0  0  0  0
  126.8080  123.3600   55.9260 N   0  0  0  0  0  0  0  0  0  0  0  0
  127.8450  123.2700   56.8300 C   0  0  0  0  0  0  0  0  0  0  0  0
  129.0220  123.0920   56.4950 O   0  0  0  0  0  0  0  0  0  0  0  0
  127.4340  123.4270   58.2810 C   0  0  0  0  0  0  0  0  0  0  0  0
  128.4120  123.3780   59.2830 C   0  0  0  0  0  0  0  0  0  0  0  0
  128.0700  123.5260   60.6260 C   0  0  0  0  0  0  0  0  0  0  0  0
  126.7460  123.7300   61.0100 C   0  0  0  0  0  0  0  0  0  0  0  0
  125.7230  123.7870   60.0330 C   0  0  0  0  0  0  0  0  0  0  0  0
  124.3610  123.9930   60.3530 C   0  0  0  0  0  0  0  0  0  0  0  0
  123.4040  124.0420   59.3410 C   0  0  0  0  0  0  0  0  0  0  0  0
  123.7670  123.8880   58.0040 C   0  0  0  0  0  0  0  0  0  0  0  0
  125.1040  123.6820   57.6410 C   0  0  0  0  0  0  0  0  0  0  0  0
  126.0840  123.6320   58.6650 C   0  0  0  0  0  0  0  0  0  0  0  0
  125.4610  123.5280   56.1740 C   0  0  0  0  0  0  0  0  0  0  0  0
  124.6060  123.5680   55.2840 O   0  0  0  0  0  0  0  0  0  0  0  0
  129.6060  125.7840   55.3470 C   0  0  0  0  0  0  0  0  0  0  0  0
  129.6470  127.3010   55.6500 C   0  0  0  0  0  0  0  0  0  0  0  0
  1  2  2  0
  2  3  1  0
  3  4  1  0
  4  5  2  0
  5  6  1  0
  6  7  2  0
  7  8  1  0
  8  9  2  0
  8 10  1  0
  7 11  1  0
 11 12  2  0
 12 13  1  0
 13 14  1  0
 14 15  1  6
 15 16  2  0
 15 17  1  0
 17 18  1  0
 18 19  1  0
 19 20  1  0
 20 21  1  0
 21 22  1  0
 22 23  1  0
 23 24  1  0
 24 25  2  0
 24 26  1  0
 26 27  2  0
 27 28  1  0
 28 29  2  0
 29 30  1  0
 30 31  2  0
 31 32  1  0
 32 33  2  0
 33 34  1  0
 34 35  2  0
 34 36  1  0
 36 37  2  0
 20 38  1  0
 38 39  1  0
 14  2  1  0
 39 17  1  0
 12  4  1  0
 36 23  1  0
 35 26  1  0
 35 30  1  0
M  CHG  2   8   1  10  -1
M  END
>  <Binding energies>  (77) 
[-11.45]

>  <Ligand effiencies>  (77) 
[-0.29358974358974355]

>  <Interactions>  (77) 
["V-B:ASP:366:CG:8185, V-A:TYR:539:CZ:4875, V-B:ASP:366:CB:8184, V-B:TYR:531:CZ:9766, V-B:TYR:539:C:9839, V-B:PRO:540:CD:9859, V-B:PRO:540:CB:9857, V-B:PRO:540:CA:9855, V-B:ASN:362:C:8144, V-B:PRO:540:N:9856, V-B:ILE:538:CG2:9835, V-B:ILE:538:CB:9834, V-B:TYR:539:CE1:9847, V-B:ILE:538:CA:9832, V-B:ASN:362:CB:8148, V-B:ILE:538:C:9830, H-B:TYR:531:OH:9767, V-A:TYR:539:CE2:4874, H-B:ARG:545:NH2:9900, V-B:PRO:540:C:9853, H-A:TYR:539:OH:4876, H-B:GLY:454:N:9022, V-B:ILE:369:CG2:8209, V-B:ILE:369:CD1:8211, H-B:TYR:484:OH:9320, V-B:ILE:369:CB:8208, V-B:ASP:366:CA:8182, V-B:GLY:454:CA:9021, V-B:LEU:363:CA:8157, H-B:ARG:545:NE:9896, H-B:ARG:545:NH1:9899"]

$$$$
RR27_Rahimova_2017
     RDKit          3D

 39 44  0  0  0  0  0  0  0  0999 V2000
  130.6510  125.4390   58.3710 O   0  0  0  0  0  0  0  0  0  0  0  0
  129.9000  125.3330   59.3460 C   0  0  0  0  0  0  0  0  0  0  0  0
  129.2010  123.9640   59.5940 C   0  0  0  0  0  0  0  0  0  0  0  0
  130.1940  122.8200   59.8740 C   0  0  0  0  0  0  0  0  0  0  0  0
  129.7610  121.5410   60.2570 C   0  0  0  0  0  0  0  0  0  0  0  0
  130.6850  120.5290   60.5000 C   0  0  0  0  0  0  0  0  0  0  0  0
  132.0450  120.7900   60.3610 C   0  0  0  0  0  0  0  0  0  0  0  0
  132.4900  122.0540   59.9840 C   0  0  0  0  0  0  0  0  0  0  0  0
  131.5660  123.0660   59.7420 C   0  0  0  0  0  0  0  0  0  0  0  0
  128.1450  123.6580   58.5150 C   0  0  0  0  0  0  0  0  0  0  0  0
  128.5030  123.1830   57.2460 C   0  0  0  0  0  0  0  0  0  0  0  0
  127.5230  122.9270   56.2900 C   0  0  0  0  0  0  0  0  0  0  0  0
  126.1840  123.1500   56.5970 C   0  0  0  0  0  0  0  0  0  0  0  0
  125.8140  123.6320   57.8500 C   0  0  0  0  0  0  0  0  0  0  0  0
  126.7940  123.8880   58.8040 C   0  0  0  0  0  0  0  0  0  0  0  0
  129.7920  126.3240   60.2760 N   0  0  0  0  0  0  0  0  0  0  0  0
  128.7400  126.3610   61.3030 C   0  0  0  0  0  0  0  0  0  0  0  0
  127.5250  127.0780   60.6740 C   0  0  0  0  0  0  0  0  0  0  0  0
  127.8840  128.4890   60.1090 C   0  0  0  0  0  0  0  0  0  0  0  0
  126.7350  129.2000   59.3710 C   0  0  0  0  0  0  0  0  0  0  0  0
  126.7240  129.0860   58.0110 N   0  0  0  0  0  0  0  0  0  0  0  0
  125.7130  129.6740   57.3120 C   0  0  0  0  0  0  0  0  0  0  0  0
  125.5920  129.6250   55.9480 O   0  0  0  0  0  0  0  0  0  0  0  0
  124.7220  130.3780   58.0220 C   0  0  0  0  0  0  0  0  0  0  0  0
  123.6010  131.0600   57.6470 N   0  0  0  0  0  0  0  0  0  0  0  0
  123.0170  131.5550   58.7970 N   0  0  0  0  0  0  0  0  0  0  0  0
  123.7590  131.1770   59.8600 N   0  0  0  0  0  0  0  0  0  0  0  0
  123.3820  131.5870   61.2110 C   0  0  0  0  0  0  0  0  0  0  0  0
  124.5530  131.6450   62.1820 C   0  0  0  0  0  0  0  0  0  0  0  0
  125.4610  132.7070   62.1270 C   0  0  0  0  0  0  0  0  0  0  0  0
  126.5280  132.7650   63.0250 C   0  0  0  0  0  0  0  0  0  0  0  0
  126.6890  131.7670   63.9850 C   0  0  0  0  0  0  0  0  0  0  0  0
  125.7810  130.7100   64.0520 C   0  0  0  0  0  0  0  0  0  0  0  0
  125.9630  129.4860   65.2570 Cl  0  0  0  0  0  0  0  0  0  0  0  0
  124.7190  130.6460   63.1490 C   0  0  0  0  0  0  0  0  0  0  0  0
  124.8470  130.4380   59.4260 C   0  0  0  0  0  0  0  0  0  0  0  0
  125.8300  129.8780   60.1350 N   0  0  0  0  0  0  0  0  0  0  0  0
  129.2190  128.4720   59.3030 C   0  0  0  0  0  0  0  0  0  0  0  0
  130.3410  127.6610   59.9990 C   0  0  0  0  0  0  0  0  0  0  0  0
  1  2  2  0
  2  3  1  0
  3  4  1  0
  4  5  2  0
  5  6  1  0
  6  7  2  0
  7  8  1  0
  8  9  2  0
  3 10  1  0
 10 11  2  0
 11 12  1  0
 12 13  2  0
 13 14  1  0
 14 15  2  0
  2 16  1  0
 16 17  1  0
 17 18  1  0
 18 19  1  0
 19 20  1  0
 20 21  2  0
 21 22  1  0
 22 23  1  0
 22 24  2  0
 24 25  1  0
 25 26  2  0
 26 27  1  0
 27 28  1  0
 28 29  1  0
 29 30  2  0
 30 31  1  0
 31 32  2  0
 32 33  1  0
 33 34  1  0
 33 35  2  0
 27 36  1  0
 36 37  2  0
 19 38  1  0
 38 39  1  0
  9  4  1  0
 15 10  1  0
 39 16  1  0
 37 20  1  0
 36 24  1  0
 35 29  1  0
M  END
>  <Binding energies>  (78) 
[-10.71]

>  <Ligand effiencies>  (78) 
[-0.26775000000000004]

>  <Interactions>  (78) 
["V-B:ASP:366:CG:8185, V-A:TYR:539:CZ:4875, V-B:ASP:366:CB:8184, V-B:TYR:539:C:9839, V-B:PRO:540:CD:9859, V-B:TYR:539:CA:9841, V-B:PRO:540:CB:9857, V-B:PRO:540:CA:9855, V-B:TYR:539:CZ:9849, V-B:PRO:540:N:9856, V-B:TYR:539:CD2:9846, V-B:TYR:539:CD1:9845, V-B:TYR:539:CE2:9848, V-B:HIS:456:CE1:9042, H-B:TYR:531:OH:9767, V-A:TYR:539:CE2:4874, V-B:TYR:539:CG:9844, V-B:ARG:545:CZ:9898, V-B:ALA:541:CB:9864, H-A:TYR:539:OH:4876, V-B:ILE:369:CG2:8209, V-B:ILE:369:CD1:8211, V-B:LEU:475:CD2:9231, V-A:ALA:541:CB:4890, V-A:TRP:381:CH2:3370, V-A:ILE:369:CG2:3235, V-A:LEU:475:CD2:4257, V-B:ASP:366:CA:8182"]

$$$$
RR28_Rahimova_2017
     RDKit          3D

 46 49  0  0  0  0  0  0  0  0999 V2000
  123.0720  124.0210   57.4580 C   0  0  0  0  0  0  0  0  0  0  0  0
  124.5590  124.1580   57.1520 C   0  0  0  0  0  0  0  0  0  0  0  0
  125.0550  123.5000   56.2390 O   0  0  0  0  0  0  0  0  0  0  0  0
  125.2510  125.0190   57.9260 N   0  0  0  0  0  0  0  0  0  0  0  0
  126.6940  125.3470   57.8670 C   0  0  0  0  0  0  0  0  0  0  0  0
  126.8610  126.6520   57.0360 C   0  0  0  0  0  0  0  0  0  0  0  0
  126.3640  127.8610   57.5470 C   0  0  0  0  0  0  0  0  0  0  0  0
  126.4930  129.0470   56.8300 C   0  0  0  0  0  0  0  0  0  0  0  0
  127.1200  129.0510   55.5840 C   0  0  0  0  0  0  0  0  0  0  0  0
  127.2480  130.3620   54.8090 C   0  0  0  0  0  0  0  0  0  0  0  0
  128.1400  130.2810   53.8190 F   0  0  0  0  0  0  0  0  0  0  0  0
  126.0730  130.7020   54.2780 F   0  0  0  0  0  0  0  0  0  0  0  0
  127.6370  131.3270   55.6420 F   0  0  0  0  0  0  0  0  0  0  0  0
  127.6180  127.8540   55.0630 C   0  0  0  0  0  0  0  0  0  0  0  0
  127.4890  126.6680   55.7810 C   0  0  0  0  0  0  0  0  0  0  0  0
  127.5130  124.1310   57.3040 C   0  0  0  0  0  0  0  0  0  0  0  0
  127.4920  122.8940   58.2370 C   0  0  0  0  0  0  0  0  0  0  0  0
  128.0510  123.3340   59.5260 N   0  0  0  0  0  0  0  0  0  0  0  0
  129.3770  123.1770   59.7890 C   0  0  0  0  0  0  0  0  0  0  0  0
  130.1170  122.5220   59.0510 O   0  0  0  0  0  0  0  0  0  0  0  0
  129.9390  123.6960   61.1350 C   0  0  0  0  0  0  0  0  0  0  0  0
  130.8270  124.9670   61.0550 C   0  0  0  0  0  0  0  0  0  0  0  0
  130.6260  125.8290   59.7870 C   0  0  0  0  0  0  0  0  0  0  0  0
  131.1940  125.4740   58.7500 O   0  0  0  0  0  0  0  0  0  0  0  0
  129.7350  126.8610   59.8050 N   0  0  0  0  0  0  0  0  0  0  0  0
  129.2830  127.5160   61.0380 C   0  0  0  0  0  0  0  0  0  0  0  0
  130.3310  128.6010   61.3700 C   0  0  0  0  0  0  0  0  0  0  0  0
  130.5740  129.6500   60.2290 C   0  0  0  0  0  0  0  0  0  0  0  0
  131.8420  130.3640   60.4890 N   0  0  0  0  0  0  0  0  0  0  0  0
  132.0630  131.3790   61.3500 C   0  0  0  0  0  0  0  0  0  0  0  0
  133.4830  131.9330   61.3890 C   0  0  0  0  0  0  0  0  0  0  0  0
  131.2000  131.8640   62.0800 O   0  0  0  0  0  0  0  0  0  0  0  0
  129.4170  130.6990   60.3030 C   0  0  0  0  0  0  0  0  0  0  0  0
  129.2420  131.7080   59.3420 C   0  0  0  0  0  0  0  0  0  0  0  0
  128.1980  132.6230   59.4450 C   0  0  0  0  0  0  0  0  0  0  0  0
  127.3020  132.5540   60.5140 C   0  0  0  0  0  0  0  0  0  0  0  0
  126.1480  133.5480   60.6390 C   0  0  0  0  0  0  0  0  0  0  0  0
  125.1170  133.1690   59.8810 F   0  0  0  0  0  0  0  0  0  0  0  0
  125.7480  133.5970   61.9090 F   0  0  0  0  0  0  0  0  0  0  0  0
  126.5020  134.7790   60.2640 F   0  0  0  0  0  0  0  0  0  0  0  0
  127.4680  131.5620   61.4820 C   0  0  0  0  0  0  0  0  0  0  0  0
  128.5130  130.6490   61.3760 C   0  0  0  0  0  0  0  0  0  0  0  0
  130.6410  128.8960   58.8440 C   0  0  0  0  0  0  0  0  0  0  0  0
  129.6140  127.7500   58.6420 C   0  0  0  0  0  0  0  0  0  0  0  0
  127.2200  124.3340   60.2100 C   0  0  0  0  0  0  0  0  0  0  0  0
  127.2110  125.6040   59.3200 C   0  0  0  0  0  0  0  0  0  0  0  0
  1  2  1  0
  2  3  2  0
  2  4  1  0
  4  5  1  0
  5  6  1  0
  6  7  2  0
  7  8  1  0
  8  9  2  0
  9 10  1  0
 10 11  1  0
 10 12  1  0
 10 13  1  0
  9 14  1  0
 14 15  2  0
  5 16  1  0
 16 17  1  0
 17 18  1  0
 18 19  1  0
 19 20  2  0
 19 21  1  0
 21 22  1  0
 22 23  1  0
 23 24  2  0
 23 25  1  0
 25 26  1  0
 26 27  1  0
 27 28  1  0
 28 29  1  0
 29 30  1  0
 30 31  1  0
 30 32  2  0
 28 33  1  0
 33 34  2  0
 34 35  1  0
 35 36  2  0
 36 37  1  0
 37 38  1  0
 37 39  1  0
 37 40  1  0
 36 41  1  0
 41 42  2  0
 28 43  1  0
 43 44  1  0
 18 45  1  0
 45 46  1  0
 46  5  1  0
 15  6  1  0
 44 25  1  0
 42 33  1  0
M  END
>  <Binding energies>  (79) 
[-9.16]

>  <Ligand effiencies>  (79) 
[-0.19083333333333333]

>  <Interactions>  (79) 
["V-B:ASP:366:CG:8185, V-A:TYR:539:CE1:4873, V-A:TYR:539:CZ:4875, V-A:PRO:540:CB:4883, V-B:MET:535:CE:9807, V-A:PRO:540:CA:4881, V-B:TYR:531:CZ:9766, V-B:TYR:531:CE1:9764, V-B:TYR:539:C:9839, V-B:PRO:540:CB:9857, V-B:PRO:540:CA:9855, V-B:PRO:540:N:9856, V-B:LEU:363:CD1:8161, V-B:TYR:531:CE2:9765, V-A:GLU:543:CD:4906, H-B:TYR:531:OH:9767, H-B:ASP:366:OD2:8187, V-A:TYR:539:C:4865, V-A:TYR:539:CE2:4874, H-A:ALA:541:N:4889, V-A:ASN:362:C:3170, V-A:ASN:362:CB:3174, H-A:ASP:366:OD2:3213, V-A:TYR:539:CD1:4871, V-A:TYR:539:CD2:4872, V-A:TYR:539:CG:4870, V-B:ILE:369:CG2:8209, V-B:TRP:381:CH2:8344, V-B:LEU:475:CD2:9231, V-B:LEU:363:CA:8157, V-A:ALA:541:C:4886, V-A:ASN:362:CG:3175, V-A:PRO:540:C:4879, V-B:LEU:363:CB:8159"]

$$$$
RR29_Rahimova_2017
     RDKit          3D

 18 19  0  0  0  0  0  0  0  0999 V2000
  131.1090  120.7680   61.0730 C   0  0  0  0  0  0  0  0  0  0  0  0
  130.4530  122.0330   61.6070 C   0  0  0  0  0  0  0  0  0  0  0  0
  129.0810  122.3220   60.9570 C   0  0  0  0  0  0  0  0  0  0  0  0
  129.2350  122.9690   59.5650 C   0  0  0  0  0  0  0  0  0  0  0  0
  127.8930  123.2320   58.8990 C   0  0  0  0  0  0  0  0  0  0  0  0
  126.8510  123.8360   59.6300 C   0  0  0  0  0  0  0  0  0  0  0  0
  125.6070  124.0880   59.0350 C   0  0  0  0  0  0  0  0  0  0  0  0
  125.4400  123.7090   57.7080 C   0  0  0  0  0  0  0  0  0  0  0  0
  126.4470  123.1200   56.9950 C   0  0  0  0  0  0  0  0  0  0  0  0
  127.6940  122.8680   57.5550 C   0  0  0  0  0  0  0  0  0  0  0  0
  126.0210  122.8890   55.7250 O   0  0  0  0  0  0  0  0  0  0  0  0
  124.6450  123.1580   55.7310 C   0  0  0  0  0  0  0  0  0  0  0  0
  124.3530  123.8660   56.9070 O   0  0  0  0  0  0  0  0  0  0  0  0
  131.0710  122.7170   62.4980 N   0  0  0  0  0  0  0  0  0  0  0  0
  130.5200  123.9060   62.9200 N   0  0  0  0  0  0  0  0  0  0  0  0
  131.1110  124.7420   63.7900 C   0  0  0  0  0  0  0  0  0  0  0  0
  132.3080  124.5440   64.3430 N   0  0  0  0  0  0  0  0  0  0  0  0
  130.4580  125.8450   64.1250 N   0  0  0  0  0  0  0  0  0  0  0  0
  1  2  1  0
  2  3  1  0
  3  4  1  0
  4  5  1  0
  5  6  2  0
  6  7  1  0
  7  8  2  0
  8  9  1  0
  9 10  2  0
  9 11  1  0
 11 12  1  0
 12 13  1  0
  2 14  2  0
 14 15  1  0
 15 16  1  0
 16 17  1  0
 16 18  2  0
 10  5  1  0
 13  8  1  0
M  CHG  1  18   1
M  END
>  <Binding energies>  (80) 
[-7.43]

>  <Ligand effiencies>  (80) 
[-0.32304347826086954]

>  <Interactions>  (80) 
["V-B:TYR:539:C:9839, H-B:TYR:539:N:9842, V-B:PRO:540:CD:9859, V-B:TYR:539:CA:9841, V-B:PRO:540:CB:9857, V-B:PRO:540:CA:9855, V-B:PRO:540:N:9856, V-B:ILE:538:CG2:9835, V-B:ILE:538:CB:9834, V-B:ILE:538:CA:9832, V-B:TYR:539:CD2:9846, V-B:TYR:539:CE2:9848, V-B:TYR:531:CE2:9765, H-B:TYR:531:OH:9767, V-B:GLU:543:CD:9880, V-B:TYR:539:CG:9844, V-B:ALA:541:CB:9864, H-A:TYR:484:OH:4346, V-A:LEU:475:CD2:4257, H-B:GLU:543:OE2:9882, H-B:GLU:543:OE1:9881, H-A:GLU:543:OE2:4908"]

$$$$
RR30_Rahimova_2017
     RDKit          3D

 18 19  0  0  0  0  0  0  0  0999 V2000
  129.5210  124.4190   54.0810 C   0  0  0  0  0  0  0  0  0  0  0  0
  128.0760  124.1730   53.6250 C   0  0  0  0  0  0  0  0  0  0  0  0
  127.2280  123.5550   54.7150 C   0  0  0  0  0  0  0  0  0  0  0  0
  127.6250  122.8810   55.7660 N   0  0  0  0  0  0  0  0  0  0  0  0
  126.4660  122.5230   56.4500 N   0  0  0  0  0  0  0  0  0  0  0  0
  125.4700  123.0020   55.7490 C   0  0  0  0  0  0  0  0  0  0  0  0
  123.7470  122.8860   56.1110 S   0  0  0  0  0  0  0  0  0  0  0  0
  123.5730  124.2900   57.2570 C   0  0  0  0  0  0  0  0  0  0  0  0
  124.2420  124.0210   58.6080 C   0  0  0  0  0  0  0  0  0  0  0  0
  123.5450  123.9660   59.6230 O   0  0  0  0  0  0  0  0  0  0  0  0
  125.5880  123.8950   58.5860 N   0  0  0  0  0  0  0  0  0  0  0  0
  126.4100  123.6530   59.6770 C   0  0  0  0  0  0  0  0  0  0  0  0
  126.0840  123.6190   60.9490 N   0  0  0  0  0  0  0  0  0  0  0  0
  127.1750  123.3470   61.7660 N   0  0  0  0  0  0  0  0  0  0  0  0
  128.2950  123.1820   61.1010 C   0  0  0  0  0  0  0  0  0  0  0  0
  129.6170  122.8810   61.7690 C   0  0  0  0  0  0  0  0  0  0  0  0
  128.0930  123.3490   59.3790 S   0  0  0  0  0  0  0  0  0  0  0  0
  125.8780  123.6710   54.6410 O   0  0  0  0  0  0  0  0  0  0  0  0
  1  2  1  0
  2  3  1  0
  3  4  2  0
  4  5  1  0
  5  6  2  0
  6  7  1  0
  7  8  1  0
  8  9  1  0
  9 10  2  0
  9 11  1  0
 11 12  1  0
 12 13  2  0
 13 14  1  0
 14 15  2  0
 15 16  1  0
 15 17  1  0
  6 18  1  0
 18  3  1  0
 17 12  1  0
M  END
>  <Binding energies>  (81) 
[-7.71]

>  <Ligand effiencies>  (81) 
[-0.40578947368421053]

>  <Interactions>  (81) 
["V-B:TYR:531:CZ:9766, V-B:TYR:539:C:9839, H-B:TYR:539:N:9842, V-B:PRO:540:CD:9859, V-B:MET:535:CG:9805, V-B:MET:535:CB:9804, V-B:PRO:540:CB:9857, V-B:PRO:540:CA:9855, V-B:TYR:539:CZ:9849, H-B:ALA:541:N:9863, V-B:PRO:540:N:9856, V-B:ILE:538:CG2:9835, V-B:ILE:538:CB:9834, V-B:TYR:539:CE1:9847, V-B:ILE:538:CA:9832, V-B:ILE:538:C:9830, V-B:LEU:363:CD1:8161, V-B:TYR:531:CE2:9765, H-B:TYR:531:OH:9767, H-B:LEU:363:N:8158, V-B:PRO:540:C:9853, V-B:ALA:541:CB:9864, V-B:LEU:363:CA:8157"]

$$$$
RR31_Rahimova_2017
     RDKit          3D

 18 19  0  0  0  0  0  0  0  0999 V2000
  132.1930  131.9200   55.3870 C   0  0  0  0  0  0  0  0  0  0  0  0
  131.2810  131.7980   56.6000 C   0  0  0  0  0  0  0  0  0  0  0  0
  129.9200  132.0740   56.4600 C   0  0  0  0  0  0  0  0  0  0  0  0
  129.0590  131.9680   57.5500 C   0  0  0  0  0  0  0  0  0  0  0  0
  129.5310  131.5750   58.8130 C   0  0  0  0  0  0  0  0  0  0  0  0
  128.6830  131.4740   59.9180 N   0  0  0  0  0  0  0  0  0  0  0  0
  127.7710  130.3280   60.1010 C   0  0  0  0  0  0  0  0  0  0  0  0
  126.6410  130.5790   61.1280 C   0  0  0  0  0  0  0  0  0  0  0  0
  127.1920  130.9800   62.4250 N   0  0  0  0  0  0  0  0  0  0  0  0
  126.1460  131.1910   63.4300 C   0  0  0  0  0  0  0  0  0  0  0  0
  125.7550  129.8980   64.1740 C   0  0  0  0  0  0  0  0  0  0  0  0
  126.9470  129.2660   64.9090 C   0  0  0  0  0  0  0  0  0  0  0  0
  127.8790  128.5790   63.9040 N   0  0  0  0  0  0  0  0  0  0  0  0
  127.9350  132.2230   62.2190 C   0  0  0  0  0  0  0  0  0  0  0  0
  129.1020  132.0070   61.2290 C   0  0  0  0  0  0  0  0  0  0  0  0
  130.9030  131.3090   58.9420 C   0  0  0  0  0  0  0  0  0  0  0  0
  131.7780  131.4130   57.8550 C   0  0  0  0  0  0  0  0  0  0  0  0
  133.2580  131.1140   58.0620 C   0  0  0  0  0  0  0  0  0  0  0  0
  1  2  1  0
  2  3  2  0
  3  4  1  0
  4  5  2  0
  5  6  1  0
  6  7  1  0
  7  8  1  0
  8  9  1  0
  9 10  1  0
 10 11  1  0
 11 12  1  0
 12 13  1  0
  9 14  1  0
 14 15  1  0
  5 16  1  0
 16 17  2  0
 17 18  1  0
 17  2  1  0
 15  6  1  0
M  CHG  1  13   1
M  END
>  <Binding energies>  (82) 
[-7.22]

>  <Ligand effiencies>  (82) 
[-0.3438095238095238]

>  <Interactions>  (82) 
["V-A:TYR:531:CE2:4791, V-A:PRO:540:CD:4885, V-A:PRO:540:N:4882, V-A:PRO:540:CB:4883, V-A:ILE:538:CG2:4861, V-A:TYR:531:CZ:4792, V-A:LEU:363:CA:3183, V-A:ILE:538:CA:4858, V-A:ILE:538:CB:4860, V-A:PRO:540:CA:4881, V-A:GLU:543:CD:4906, V-A:TYR:539:C:4865, V-B:GLU:543:CD:9880, V-A:TYR:539:CE2:4874, V-A:ASP:366:CG:3211, H-A:GLU:543:OE1:4907, V-B:ARG:545:CZ:9898, V-A:TYR:539:CD2:4872, V-A:ALA:541:CB:4890, H-B:GLU:543:OE2:9882, H-B:GLU:543:OE1:9881, H-A:GLU:543:OE2:4908"]

$$$$
RR32_Rahimova_2017
     RDKit          3D

 18 20  0  0  0  0  0  0  0  0999 V2000
  123.0130  124.0060   57.4390 C   0  0  0  0  0  0  0  0  0  0  0  0
  124.5020  123.9590   57.7630 C   0  0  0  0  0  0  0  0  0  0  0  0
  125.4070  123.9120   56.7020 C   0  0  0  0  0  0  0  0  0  0  0  0
  126.7740  123.8720   56.9590 C   0  0  0  0  0  0  0  0  0  0  0  0
  127.6690  123.8260   55.9040 N   0  0  0  0  0  0  0  0  0  0  0  0
  127.1270  123.4950   54.5730 C   0  0  0  0  0  0  0  0  0  0  0  0
  128.2230  123.2910   53.5010 C   0  0  0  0  0  0  0  0  0  0  0  0
  129.0460  124.4950   53.3840 N   0  0  0  0  0  0  0  0  0  0  0  0
  130.0600  124.3140   52.3510 C   0  0  0  0  0  0  0  0  0  0  0  0
  129.6800  124.7360   54.6790 C   0  0  0  0  0  0  0  0  0  0  0  0
  128.6060  124.9580   55.7690 C   0  0  0  0  0  0  0  0  0  0  0  0
  127.2820  123.8720   58.2190 N   0  0  0  0  0  0  0  0  0  0  0  0
  126.4250  123.9140   59.2750 C   0  0  0  0  0  0  0  0  0  0  0  0
  126.9830  123.9110   60.5770 C   0  0  0  0  0  0  0  0  0  0  0  0
  126.1550  123.9520   61.6930 C   0  0  0  0  0  0  0  0  0  0  0  0
  124.7740  123.9970   61.5450 C   0  0  0  0  0  0  0  0  0  0  0  0
  124.1940  124.0010   60.2800 C   0  0  0  0  0  0  0  0  0  0  0  0
  125.0030  123.9590   59.1070 C   0  0  0  0  0  0  0  0  0  0  0  0
  1  2  1  0
  2  3  2  0
  3  4  1  0
  4  5  1  0
  5  6  1  0
  6  7  1  0
  7  8  1  0
  8  9  1  0
  8 10  1  0
 10 11  1  0
  4 12  2  0
 12 13  1  0
 13 14  2  0
 14 15  1  0
 15 16  2  0
 16 17  1  0
 17 18  2  0
 18  2  1  0
 11  5  1  0
 18 13  1  0
M  END
>  <Binding energies>  (83) 
[-6.96]

>  <Ligand effiencies>  (83) 
[-0.38666666666666666]

>  <Interactions>  (83) 
["V-B:ASP:366:CG:8185, V-B:PRO:540:CB:9857, V-B:PRO:540:CA:9855, V-B:ASN:362:C:8144, V-B:TYR:539:CZ:9849, V-B:ILE:538:CG2:9835, V-B:ILE:538:CB:9834, V-B:TYR:539:CE1:9847, V-B:ILE:538:CA:9832, V-B:ASN:362:CB:8148, V-A:MET:535:CE:4833, V-B:TYR:539:CD1:9845, V-B:LEU:363:CD1:8161, V-B:VAL:537:C:9822, V-B:TYR:531:CE2:9765, V-B:GLU:543:CD:9880, V-B:ARG:545:CZ:9898, V-B:LEU:363:CA:8157, V-B:LEU:363:CB:8159, V-B:LEU:363:C:8155"]

$$$$
RR5_Rahimova_2017
     RDKit          3D

 45 50  0  0  0  0  0  0  0  0999 V2000
  128.3200  122.3920   57.0130 O   0  0  0  0  0  0  0  0  0  0  0  0
  128.6450  123.5530   56.7710 C   0  0  0  0  0  0  0  0  0  0  0  0
  128.8080  124.0120   55.3090 C   0  0  0  0  0  0  0  0  0  0  0  0
  127.5000  124.6080   54.6770 C   0  0  2  0  0  0  0  0  0  0  0  0
  127.1860  125.9930   55.0840 N   0  0  0  0  0  0  0  0  0  0  0  0
  128.1740  126.8640   55.5200 C   0  0  0  0  0  0  0  0  0  0  0  0
  129.3850  126.6350   55.5790 O   0  0  0  0  0  0  0  0  0  0  0  0
  127.5900  128.0170   55.8890 O   0  0  0  0  0  0  0  0  0  0  0  0
  128.0930  128.7910   56.9740 C   0  0  0  0  0  0  0  0  0  0  0  0
  128.1950  130.2820   56.5840 C   0  0  0  0  0  0  0  0  0  0  0  0
  129.6070  130.8350   56.6560 C   0  0  0  0  0  0  0  0  0  0  0  0
  130.4890  130.8860   57.7390 C   0  0  0  0  0  0  0  0  0  0  0  0
  131.7660  131.4250   57.5720 C   0  0  0  0  0  0  0  0  0  0  0  0
  132.1630  131.9150   56.3260 C   0  0  0  0  0  0  0  0  0  0  0  0
  131.2830  131.8680   55.2430 C   0  0  0  0  0  0  0  0  0  0  0  0
  130.0060  131.3290   55.4130 C   0  0  0  0  0  0  0  0  0  0  0  0
  128.8920  131.1630   54.4670 C   0  0  0  0  0  0  0  0  0  0  0  0
  128.7740  131.5030   53.1170 C   0  0  0  0  0  0  0  0  0  0  0  0
  127.5770  131.2530   52.4450 C   0  0  0  0  0  0  0  0  0  0  0  0
  126.5040  130.6630   53.1180 C   0  0  0  0  0  0  0  0  0  0  0  0
  126.6280  130.3220   54.4650 C   0  0  0  0  0  0  0  0  0  0  0  0
  127.8250  130.5680   55.1410 C   0  0  0  0  0  0  0  0  0  0  0  0
  126.2840  123.6920   54.9630 C   0  0  0  0  0  0  0  0  0  0  0  0
  126.3580  122.5510   55.3720 O   0  0  0  0  0  0  0  0  0  0  0  0
  125.1270  124.3710   54.7060 O   0  0  0  0  0  0  0  0  0  0  0  0
  128.8490  124.5080   57.7070 N   0  0  0  0  0  0  0  0  0  0  0  0
  128.7970  124.5110   59.1990 C   0  0  0  0  0  0  0  0  0  0  0  0
  129.3580  125.9320   59.5430 C   0  0  0  0  0  0  0  0  0  0  0  0
  130.3660  126.5290   58.7680 C   0  0  0  0  0  0  0  0  0  0  0  0
  130.8560  127.7940   59.0810 C   0  0  0  0  0  0  0  0  0  0  0  0
  130.3540  128.4790   60.1830 C   0  0  0  0  0  0  0  0  0  0  0  0
  129.3560  127.9130   60.9670 C   0  0  0  0  0  0  0  0  0  0  0  0
  128.8590  126.6530   60.6460 C   0  0  0  0  0  0  0  0  0  0  0  0
  127.2980  124.3400   59.6150 C   0  0  0  0  0  0  0  0  0  0  0  0
  126.9170  124.1800   60.9570 C   0  0  0  0  0  0  0  0  0  0  0  0
  125.5790  124.0090   61.3030 C   0  0  0  0  0  0  0  0  0  0  0  0
  124.6040  123.9940   60.3110 C   0  0  0  0  0  0  0  0  0  0  0  0
  124.9550  124.1540   58.9740 C   0  0  0  0  0  0  0  0  0  0  0  0
  126.2920  124.3330   58.6320 C   0  0  0  0  0  0  0  0  0  0  0  0
  129.7410  123.3540   59.6700 C   0  0  0  0  0  0  0  0  0  0  0  0
  129.2170  122.1610   60.2000 C   0  0  0  0  0  0  0  0  0  0  0  0
  130.0510  121.1330   60.6280 C   0  0  0  0  0  0  0  0  0  0  0  0
  131.4300  121.2760   60.5260 C   0  0  0  0  0  0  0  0  0  0  0  0
  131.9780  122.4360   59.9930 C   0  0  0  0  0  0  0  0  0  0  0  0
  131.1400  123.4630   59.5670 C   0  0  0  0  0  0  0  0  0  0  0  0
  1  2  2  0
  2  3  1  0
  4  3  1  1
  4  5  1  0
  5  6  1  0
  6  7  2  0
  6  8  1  0
  8  9  1  0
  9 10  1  0
 10 11  1  0
 11 12  2  0
 12 13  1  0
 13 14  2  0
 14 15  1  0
 15 16  2  0
 16 17  1  0
 17 18  2  0
 18 19  1  0
 19 20  2  0
 20 21  1  0
 21 22  2  0
  4 23  1  0
 23 24  2  0
 23 25  1  0
  2 26  1  0
 26 27  1  0
 27 28  1  0
 28 29  2  0
 29 30  1  0
 30 31  2  0
 31 32  1  0
 32 33  2  0
 27 34  1  0
 34 35  2  0
 35 36  1  0
 36 37  2  0
 37 38  1  0
 38 39  2  0
 27 40  1  0
 40 41  2  0
 41 42  1  0
 42 43  2  0
 43 44  1  0
 44 45  2  0
 22 10  1  0
 33 28  1  0
 39 34  1  0
 45 40  1  0
 16 11  1  0
 22 17  1  0
M  END
>  <Binding energies>  (84) 
[-12.2]

>  <Ligand effiencies>  (84) 
[-0.25416666666666665]

>  <Interactions>  (84) 
["V-A:PRO:540:CD:4885, V-A:PRO:540:N:4882, V-A:TYR:539:CE1:4873, V-A:TYR:539:CZ:4875, V-A:PRO:540:CB:4883, V-A:ILE:538:CG2:4861, V-A:ILE:538:CA:4858, V-A:ILE:538:CB:4860, V-B:MET:535:CE:9807, V-A:MET:535:CB:4830, V-A:MET:535:CG:4831, V-A:PRO:540:CA:4881, V-B:TYR:531:CZ:9766, V-B:TYR:539:C:9839, H-B:TYR:539:N:9842, V-B:PRO:540:CB:9857, V-B:PRO:540:CA:9855, V-B:TYR:539:CZ:9849, V-B:ILE:538:CG2:9835, V-B:ILE:538:CB:9834, V-B:TYR:539:CE1:9847, V-B:ILE:538:CA:9832, V-B:TYR:539:CD2:9846, V-B:TYR:539:CD1:9845, V-B:TYR:539:CE2:9848, H-B:MET:535:SD:9806, H-B:TYR:531:OH:9767, V-A:ASP:366:CG:3211, V-B:TYR:539:CG:9844, V-B:ALA:541:CB:9864, V-A:LEU:475:CD2:4257"]

$$$$
