1a_Ghoteimi_2023
     RDKit          3D

 40 43  0  0  0  0  0  0  0  0999 V2000
  132.4720  131.8300   56.6470 C   0  0  0  0  0  0  0  0  0  0  0  0
  131.3540  132.5190   55.8590 C   0  0  0  0  0  0  0  0  0  0  0  0
  130.3280  132.9280   56.7570 O   0  0  0  0  0  0  0  0  0  0  0  0
  129.2770  132.1160   57.0370 C   0  0  0  0  0  0  0  0  0  0  0  0
  128.4410  131.7700   56.1970 O   0  0  0  0  0  0  0  0  0  0  0  0
  129.2350  131.6750   58.4720 C   0  0  0  0  0  0  0  0  0  0  0  0
  129.4600  130.3420   58.8460 C   0  0  0  0  0  0  0  0  0  0  0  0
  129.4110  129.9630   60.1850 C   0  0  0  0  0  0  0  0  0  0  0  0
  129.1400  130.9160   61.1780 C   0  0  0  0  0  0  0  0  0  0  0  0
  129.0620  130.6440   62.5580 N   0  0  0  0  0  0  0  0  0  0  0  0
  128.0680  130.9000   63.4360 C   0  0  0  0  0  0  0  0  0  0  0  0
  126.9920  131.4310   63.1640 O   0  0  0  0  0  0  0  0  0  0  0  0
  128.3390  130.4710   64.8780 C   0  0  0  0  0  0  0  0  0  0  0  0
  127.2550  129.1050   65.3880 S   0  0  0  0  0  0  0  0  0  0  0  0
  128.3280  127.8160   65.9780 C   0  0  0  0  0  0  0  0  0  0  0  0
  128.2040  127.5610   67.3020 N   0  0  0  0  0  0  0  0  0  0  0  0
  128.9650  126.5930   67.8780 C   0  0  0  0  0  0  0  0  0  0  0  0
  128.7550  126.3550   69.3450 C   0  0  0  0  0  0  0  0  0  0  0  0
  127.8320  127.1160   70.0830 C   0  0  0  0  0  0  0  0  0  0  0  0
  127.6380  126.8930   71.4430 C   0  0  0  0  0  0  0  0  0  0  0  0
  128.3600  125.9060   72.1100 C   0  0  0  0  0  0  0  0  0  0  0  0
  128.1010  125.7530   73.4580 O   0  0  0  0  0  0  0  0  0  0  0  0
  127.0730  126.5320   74.0600 C   0  0  0  0  0  0  0  0  0  0  0  0
  129.2880  125.1420   71.3890 C   0  0  0  0  0  0  0  0  0  0  0  0
  129.4790  125.3670   70.0290 C   0  0  0  0  0  0  0  0  0  0  0  0
  129.8790  125.8570   67.1140 C   0  0  0  0  0  0  0  0  0  0  0  0
  130.0430  126.1200   65.7470 C   0  0  0  0  0  0  0  0  0  0  0  0
  131.0600  125.3180   65.0020 C   0  0  0  0  0  0  0  0  0  0  0  0
  132.4150  125.3830   65.3430 C   0  0  0  0  0  0  0  0  0  0  0  0
  133.3540  124.6200   64.6530 C   0  0  0  0  0  0  0  0  0  0  0  0
  132.9580  123.7750   63.6170 C   0  0  0  0  0  0  0  0  0  0  0  0
  133.9590  123.0570   62.9920 O   0  0  0  0  0  0  0  0  0  0  0  0
  134.4730  123.5220   61.7480 C   0  0  0  0  0  0  0  0  0  0  0  0
  131.5980  123.7010   63.2780 C   0  0  0  0  0  0  0  0  0  0  0  0
  130.6610  124.4650   63.9690 C   0  0  0  0  0  0  0  0  0  0  0  0
  129.2430  127.1260   65.1540 C   0  0  0  0  0  0  0  0  0  0  0  0
  129.3590  127.4360   63.7250 C   0  0  0  0  0  0  0  0  0  0  0  0
  129.4510  127.6800   62.5980 N   0  0  0  0  0  0  0  0  0  0  0  0
  128.9120  132.2420   60.8090 C   0  0  0  0  0  0  0  0  0  0  0  0
  128.9610  132.6200   59.4700 C   0  0  0  0  0  0  0  0  0  0  0  0
  1  2  1  0
  2  3  1  0
  3  4  1  0
  4  5  2  0
  4  6  1  0
  6  7  2  0
  7  8  1  0
  8  9  2  0
  9 10  1  0
 10 11  1  0
 11 12  2  0
 11 13  1  0
 13 14  1  0
 14 15  1  0
 15 16  2  0
 16 17  1  0
 17 18  1  0
 18 19  2  0
 19 20  1  0
 20 21  2  0
 21 22  1  0
 22 23  1  0
 21 24  1  0
 24 25  2  0
 17 26  2  0
 26 27  1  0
 27 28  1  0
 28 29  2  0
 29 30  1  0
 30 31  2  0
 31 32  1  0
 32 33  1  0
 31 34  1  0
 34 35  2  0
 27 36  2  0
 36 37  1  0
 37 38  3  0
  9 39  1  0
 39 40  2  0
 40  6  1  0
 36 15  1  0
 25 18  1  0
 35 28  1  0
M  END
>  <Binding energies>  (1) 
[-9.74]

>  <Ligand effiencies>  (1) 
[-0.23756097560975611]

>  <Interactions>  (1) 
["V-A:PRO:540:CB:4885, V-B:GLY:544:C:9884, H-A:GLU:543:OE2:4910, V-B:HIS:456:CE1:9040, H-A:GLU:543:OE1:4909, V-A:PRO:540:CA:4883, V-A:GLU:543:CD:4908, V-A:TYR:539:CD1:4873, V-A:TYR:539:CE1:4875, V-A:TYR:539:C:4867, V-A:GLU:543:CG:4907, V-A:TYR:539:CZ:4877, V-A:ARG:545:CZ:4926, V-A:PRO:540:N:4884, V-A:HIS:456:CE1:4069, V-A:GLY:454:CA:4049, H-A:GLY:454:N:4050, V-A:ILE:369:CD1:3239, V-A:PRO:540:CD:4887, H-A:TYR:539:N:4870, V-A:LEU:363:CD1:3189, H-B:TYR:484:OH:9319, V-A:HIS:456:CD2:4068, H-B:LYS:547:NZ:9923, V-A:GLU:543:CB:4906, V-B:LYS:547:CD:9921, V-B:LYS:547:CE:9922, H-A:TYR:539:OH:4878"]

$$$$
1b_Ghoteimi_2023
     RDKit          3D

 34 37  0  0  0  0  0  0  0  0999 V2000
  134.1590  124.2110   62.4510 C   0  0  0  0  0  0  0  0  0  0  0  0
  133.7730  124.1960   63.8210 O   0  0  0  0  0  0  0  0  0  0  0  0
  132.6020  124.8260   64.1970 C   0  0  0  0  0  0  0  0  0  0  0  0
  132.4580  125.1190   65.5520 C   0  0  0  0  0  0  0  0  0  0  0  0
  131.3110  125.7510   66.0240 C   0  0  0  0  0  0  0  0  0  0  0  0
  130.2730  126.1140   65.1520 C   0  0  0  0  0  0  0  0  0  0  0  0
  129.0350  126.7940   65.6660 C   0  0  0  0  0  0  0  0  0  0  0  0
  128.4200  127.8590   64.9990 C   0  0  0  0  0  0  0  0  0  0  0  0
  127.2650  128.4570   65.5190 C   0  0  0  0  0  0  0  0  0  0  0  0
  126.6650  129.5920   64.7560 C   0  0  0  0  0  0  0  0  0  0  0  0
  125.3820  129.4780   64.2130 C   0  0  0  0  0  0  0  0  0  0  0  0
  124.8220  130.5300   63.4940 C   0  0  0  0  0  0  0  0  0  0  0  0
  125.5330  131.7140   63.3000 C   0  0  0  0  0  0  0  0  0  0  0  0
  124.8990  132.7040   62.5740 O   0  0  0  0  0  0  0  0  0  0  0  0
  123.8290  132.3490   61.7040 C   0  0  0  0  0  0  0  0  0  0  0  0
  126.8250  131.8300   63.8370 C   0  0  0  0  0  0  0  0  0  0  0  0
  127.3820  130.7760   64.5540 C   0  0  0  0  0  0  0  0  0  0  0  0
  126.7280  127.9490   66.7270 C   0  0  0  0  0  0  0  0  0  0  0  0
  125.4680  128.4750   67.2610 C   0  0  0  0  0  0  0  0  0  0  0  0
  124.4740  128.8920   67.6820 N   0  0  0  0  0  0  0  0  0  0  0  0
  127.4100  126.8860   67.3600 C   0  0  0  0  0  0  0  0  0  0  0  0
  126.8870  126.1290   68.8850 S   0  0  0  0  0  0  0  0  0  0  0  0
  127.9240  126.7980   70.2290 C   0  0  0  0  0  0  0  0  0  0  0  0
  128.3820  125.7680   71.2710 C   0  0  0  0  0  0  0  0  0  0  0  0
  128.1770  125.9540   72.4730 O   0  0  0  0  0  0  0  0  0  0  0  0
  129.0060  124.6850   70.7570 N   0  0  0  0  0  0  0  0  0  0  0  0
  129.5220  123.6000   71.4560 C   0  0  0  0  0  0  0  0  0  0  0  0
  130.7720  123.6160   72.0720 C   0  0  0  0  0  0  0  0  0  0  0  0
  130.9040  122.3720   72.6460 C   0  0  0  0  0  0  0  0  0  0  0  0
  129.7890  121.6460   72.3910 O   0  0  0  0  0  0  0  0  0  0  0  0
  128.9200  122.4350   71.6370 N   0  0  0  0  0  0  0  0  0  0  0  0
  128.5180  126.3170   66.8280 N   0  0  0  0  0  0  0  0  0  0  0  0
  130.4280  125.8120   63.7900 C   0  0  0  0  0  0  0  0  0  0  0  0
  131.5720  125.1790   63.3150 C   0  0  0  0  0  0  0  0  0  0  0  0
  1  2  1  0
  2  3  1  0
  3  4  2  0
  4  5  1  0
  5  6  2  0
  6  7  1  0
  7  8  2  0
  8  9  1  0
  9 10  1  0
 10 11  2  0
 11 12  1  0
 12 13  2  0
 13 14  1  0
 14 15  1  0
 13 16  1  0
 16 17  2  0
  9 18  2  0
 18 19  1  0
 19 20  3  0
 18 21  1  0
 21 22  1  0
 22 23  1  0
 23 24  1  0
 24 25  2  0
 24 26  1  0
 26 27  1  0
 27 28  1  0
 28 29  2  0
 29 30  1  0
 30 31  1  0
 21 32  2  0
  6 33  1  0
 33 34  2  0
 34  3  1  0
 32  7  1  0
 17 10  1  0
 31 27  2  0
M  END
>  <Binding energies>  (2) 
[-9.96]

>  <Ligand effiencies>  (2) 
[-0.2845714285714286]

>  <Interactions>  (2) 
["V-B:ARG:545:CD:9895, V-B:GLU:543:C:9874, V-B:GLU:543:CB:9878, V-B:GLY:544:C:9884, V-B:HIS:456:CE1:9040, V-B:LEU:475:CD1:9229, V-B:ARG:545:CG:9894, V-A:GLU:543:CD:4908, V-B:ILE:369:CD1:8210, V-B:ARG:545:CZ:9898, V-A:HIS:456:CE1:4069, H-A:GLY:454:N:4050, H-B:TYR:484:OH:9319, V-A:HIS:456:CG:4066, V-A:HIS:456:CD2:4068, V-A:HIS:456:CB:4065, V-A:ASP:473:CB:4239, H-B:LYS:547:NZ:9923, V-A:TYR:484:CD2:4344, V-A:TYR:484:CD1:4343, V-A:TYR:484:CG:4342, V-A:TYR:484:CB:4341, V-A:GLY:453:C:4042, V-A:GLY:453:CA:4044, H-B:ARG:545:NE:9896, V-A:TYR:484:CE2:4346, H-B:GLU:543:O:9875, H-B:ARG:545:N:9892"]

$$$$
1c_Ghoteimi_2023
     RDKit          3D

 34 37  0  0  0  0  0  0  0  0999 V2000
  127.7000  126.6190   74.8710 C   0  0  0  0  0  0  0  0  0  0  0  0
  128.6110  125.8040   74.1430 O   0  0  0  0  0  0  0  0  0  0  0  0
  128.6400  125.8900   72.7640 C   0  0  0  0  0  0  0  0  0  0  0  0
  127.7510  126.7840   72.1740 C   0  0  0  0  0  0  0  0  0  0  0  0
  127.7110  126.9330   70.7900 C   0  0  0  0  0  0  0  0  0  0  0  0
  128.5590  126.1900   69.9550 C   0  0  0  0  0  0  0  0  0  0  0  0
  128.5150  126.3450   68.4620 C   0  0  0  0  0  0  0  0  0  0  0  0
  127.6800  127.2670   67.8210 C   0  0  0  0  0  0  0  0  0  0  0  0
  127.6940  127.3930   66.4270 C   0  0  0  0  0  0  0  0  0  0  0  0
  126.8270  128.4440   65.8150 C   0  0  0  0  0  0  0  0  0  0  0  0
  125.4840  128.5610   66.1850 C   0  0  0  0  0  0  0  0  0  0  0  0
  124.6720  129.5270   65.5980 C   0  0  0  0  0  0  0  0  0  0  0  0
  125.1840  130.3890   64.6290 C   0  0  0  0  0  0  0  0  0  0  0  0
  124.3050  131.3160   64.1010 O   0  0  0  0  0  0  0  0  0  0  0  0
  123.9270  131.2130   62.7320 C   0  0  0  0  0  0  0  0  0  0  0  0
  126.5300  130.2690   64.2500 C   0  0  0  0  0  0  0  0  0  0  0  0
  127.3400  129.3030   64.8380 C   0  0  0  0  0  0  0  0  0  0  0  0
  128.5490  126.5470   65.6820 C   0  0  0  0  0  0  0  0  0  0  0  0
  128.5850  126.6070   64.2170 C   0  0  0  0  0  0  0  0  0  0  0  0
  128.6120  126.6560   63.0610 N   0  0  0  0  0  0  0  0  0  0  0  0
  129.3760  125.6530   66.3920 C   0  0  0  0  0  0  0  0  0  0  0  0
  130.6170  124.6540   65.5990 S   0  0  0  0  0  0  0  0  0  0  0  0
  132.1690  125.5850   65.8090 C   0  0  0  0  0  0  0  0  0  0  0  0
  133.2390  125.1630   64.7960 C   0  0  0  0  0  0  0  0  0  0  0  0
  134.4020  125.0080   65.1680 O   0  0  0  0  0  0  0  0  0  0  0  0
  132.7880  124.9470   63.5400 N   0  0  0  0  0  0  0  0  0  0  0  0
  133.5080  124.4160   62.4820 C   0  0  0  0  0  0  0  0  0  0  0  0
  134.7560  124.0000   62.4820 N   0  0  0  0  0  0  0  0  0  0  0  0
  135.1040  123.5150   61.3060 C   0  0  0  0  0  0  0  0  0  0  0  0
  134.1230  123.5300   60.3190 C   0  0  0  0  0  0  0  0  0  0  0  0
  132.6700  124.2220   60.9760 S   0  0  0  0  0  0  0  0  0  0  0  0
  129.3640  125.5630   67.7440 N   0  0  0  0  0  0  0  0  0  0  0  0
  129.4550  125.2970   70.5600 C   0  0  0  0  0  0  0  0  0  0  0  0
  129.4980  125.1440   71.9430 C   0  0  0  0  0  0  0  0  0  0  0  0
  1  2  1  0
  2  3  1  0
  3  4  2  0
  4  5  1  0
  5  6  2  0
  6  7  1  0
  7  8  2  0
  8  9  1  0
  9 10  1  0
 10 11  2  0
 11 12  1  0
 12 13  2  0
 13 14  1  0
 14 15  1  0
 13 16  1  0
 16 17  2  0
  9 18  2  0
 18 19  1  0
 19 20  3  0
 18 21  1  0
 21 22  1  0
 22 23  1  0
 23 24  1  0
 24 25  2  0
 24 26  1  0
 26 27  1  0
 27 28  2  0
 28 29  1  0
 29 30  2  0
 30 31  1  0
 21 32  2  0
  6 33  1  0
 33 34  2  0
 34  3  1  0
 32  7  1  0
 17 10  1  0
 31 27  1  0
M  END
>  <Binding energies>  (3) 
[-9.17]

>  <Ligand effiencies>  (3) 
[-0.262]

>  <Interactions>  (3) 
["V-B:ARG:545:CD:9895, V-B:GLU:543:CB:9878, V-B:GLY:544:C:9884, H-A:GLU:543:OE2:4910, V-B:HIS:456:CE1:9040, V-A:ASP:366:CG:3213, V-B:GLU:543:CD:9880, V-B:ARG:545:CG:9894, V-A:ARG:545:CZ:4926, V-B:ARG:545:CZ:9898, V-B:GLY:454:CA:9020, H-A:TYR:484:OH:4348, V-A:HIS:456:CE1:4069, H-A:ARG:545:NE:4924, V-B:GLU:543:CG:9879, H-A:GLY:454:N:4050, V-A:ILE:369:CD1:3239, V-A:ILE:369:CG2:3237, H-B:GLY:454:N:9021, H-B:TYR:484:OH:9319, V-A:HIS:456:CD2:4068, H-B:LYS:547:NZ:9923, V-A:GLY:453:C:4042, V-B:LYS:547:CD:9921, V-A:ILE:369:CB:3236, V-A:ILE:369:CG1:3238"]

$$$$
1d_Ghoteimi_2023
     RDKit          3D

 30 32  0  0  0  0  0  0  0  0999 V2000
  133.3110  124.9830   63.0630 C   0  0  0  0  0  0  0  0  0  0  0  0
  133.6110  124.1940   64.2050 O   0  0  0  0  0  0  0  0  0  0  0  0
  133.6250  124.7470   65.4350 C   0  0  0  0  0  0  0  0  0  0  0  0
  134.4320  124.5050   66.3340 O   0  0  0  0  0  0  0  0  0  0  0  0
  132.4910  125.7510   65.6330 C   0  0  0  0  0  0  0  0  0  0  0  0
  130.9270  124.8260   65.5850 S   0  0  0  0  0  0  0  0  0  0  0  0
  129.6950  125.8470   66.3630 C   0  0  0  0  0  0  0  0  0  0  0  0
  129.6530  125.7200   67.7110 N   0  0  0  0  0  0  0  0  0  0  0  0
  128.7550  126.4400   68.4310 C   0  0  0  0  0  0  0  0  0  0  0  0
  128.7790  126.2460   69.9200 C   0  0  0  0  0  0  0  0  0  0  0  0
  128.0890  127.1160   70.7790 C   0  0  0  0  0  0  0  0  0  0  0  0
  128.1170  126.9380   72.1590 C   0  0  0  0  0  0  0  0  0  0  0  0
  128.8360  125.8880   72.7240 C   0  0  0  0  0  0  0  0  0  0  0  0
  128.8100  125.7910   74.1020 O   0  0  0  0  0  0  0  0  0  0  0  0
  128.0660  126.7460   74.8510 C   0  0  0  0  0  0  0  0  0  0  0  0
  129.5310  125.0110   71.8800 C   0  0  0  0  0  0  0  0  0  0  0  0
  129.4990  125.1910   70.5000 C   0  0  0  0  0  0  0  0  0  0  0  0
  127.8750  127.3230   67.7950 C   0  0  0  0  0  0  0  0  0  0  0  0
  127.8860  127.4620   66.4020 C   0  0  0  0  0  0  0  0  0  0  0  0
  126.9130  128.4170   65.7880 C   0  0  0  0  0  0  0  0  0  0  0  0
  125.6210  128.5370   66.3080 C   0  0  0  0  0  0  0  0  0  0  0  0
  124.7100  129.4250   65.7410 C   0  0  0  0  0  0  0  0  0  0  0  0
  125.0730  130.2120   64.6490 C   0  0  0  0  0  0  0  0  0  0  0  0
  124.1030  131.0580   64.1470 O   0  0  0  0  0  0  0  0  0  0  0  0
  123.8330  131.0560   62.7500 C   0  0  0  0  0  0  0  0  0  0  0  0
  126.3730  130.1040   64.1310 C   0  0  0  0  0  0  0  0  0  0  0  0
  127.2820  129.2160   64.7000 C   0  0  0  0  0  0  0  0  0  0  0  0
  128.8070  126.6880   65.6540 C   0  0  0  0  0  0  0  0  0  0  0  0
  128.7920  126.7160   64.1880 C   0  0  0  0  0  0  0  0  0  0  0  0
  128.7790  126.7390   63.0310 N   0  0  0  0  0  0  0  0  0  0  0  0
  1  2  1  0
  2  3  1  0
  3  4  2  0
  3  5  1  0
  5  6  1  0
  6  7  1  0
  7  8  2  0
  8  9  1  0
  9 10  1  0
 10 11  2  0
 11 12  1  0
 12 13  2  0
 13 14  1  0
 14 15  1  0
 13 16  1  0
 16 17  2  0
  9 18  2  0
 18 19  1  0
 19 20  1  0
 20 21  2  0
 21 22  1  0
 22 23  2  0
 23 24  1  0
 24 25  1  0
 23 26  1  0
 26 27  2  0
 19 28  2  0
 28 29  1  0
 29 30  3  0
 28  7  1  0
 17 10  1  0
 27 20  1  0
M  END
>  <Binding energies>  (4) 
[-8.69]

>  <Ligand effiencies>  (4) 
[-0.28966666666666663]

>  <Interactions>  (4) 
["V-B:ARG:545:CD:9895, V-B:GLU:543:CB:9878, V-B:HIS:456:CE1:9040, V-B:GLU:543:CD:9880, V-B:ARG:545:CG:9894, V-A:GLU:543:CD:4908, V-A:ARG:545:CZ:4926, V-B:ARG:545:CZ:9898, V-B:GLY:454:CA:9020, H-A:TYR:484:OH:4348, V-A:HIS:456:CE1:4069, V-B:GLU:543:CG:9879, H-A:GLY:454:N:4050, H-B:GLY:454:N:9021, H-B:TYR:484:OH:9319, H-A:HIS:456:NE2:4070, V-A:HIS:456:CD2:4068, H-B:LYS:547:NZ:9923, H-A:ILE:455:N:4055"]

$$$$
1j_Grossjean_2025
     RDKit          3D

 20 21  0  0  0  0  0  0  0  0999 V2000
  128.0160  130.5370   65.6610 C   0  0  0  0  0  0  0  0  0  0  0  0
  128.3960  129.1310   66.0880 C   0  0  0  0  0  0  0  0  0  0  0  0
  128.6200  128.1210   65.1550 C   0  0  0  0  0  0  0  0  0  0  0  0
  128.9800  126.8470   65.6060 C   0  0  0  0  0  0  0  0  0  0  0  0
  129.2380  125.7600   64.5630 C   0  0  0  0  0  0  0  0  0  0  0  0
  129.1000  126.6140   66.9950 C   0  0  0  0  0  0  0  0  0  0  0  0
  129.5280  125.3020   67.4870 C   0  0  0  0  0  0  0  0  0  0  0  0
  129.8670  124.2650   67.8730 N   0  0  0  0  0  0  0  0  0  0  0  0
  128.8280  127.6920   67.8710 C   0  0  0  0  0  0  0  0  0  0  0  0
  128.9270  127.5770   69.6440 S   0  0  0  0  0  0  0  0  0  0  0  0
  127.8550  126.2060   70.1690 C   0  0  0  0  0  0  0  0  0  0  0  0
  128.4750  125.3990   71.3120 C   0  0  0  0  0  0  0  0  0  0  0  0
  128.2930  125.7610   72.4750 O   0  0  0  0  0  0  0  0  0  0  0  0
  129.1930  124.3170   70.9390 N   0  0  0  0  0  0  0  0  0  0  0  0
  129.8550  123.4330   71.7790 C   0  0  0  0  0  0  0  0  0  0  0  0
  129.6060  122.1540   71.9630 N   0  0  0  0  0  0  0  0  0  0  0  0
  130.4370  121.6200   72.8360 C   0  0  0  0  0  0  0  0  0  0  0  0
  131.3900  122.4740   73.3810 C   0  0  0  0  0  0  0  0  0  0  0  0
  131.1790  124.0620   72.7050 S   0  0  0  0  0  0  0  0  0  0  0  0
  128.5000  128.9290   67.4220 N   0  0  0  0  0  0  0  0  0  0  0  0
  1  2  1  0
  2  3  2  0
  3  4  1  0
  4  5  1  0
  4  6  2  0
  6  7  1  0
  7  8  3  0
  6  9  1  0
  9 10  1  0
 10 11  1  0
 11 12  1  0
 12 13  2  0
 12 14  1  0
 14 15  1  0
 15 16  2  0
 16 17  1  0
 17 18  2  0
 18 19  1  0
  9 20  2  0
 20  2  1  0
 19 15  1  0
M  END
>  <Binding energies>  (5) 
[-6.41]

>  <Ligand effiencies>  (5) 
[-0.30523809523809525]

>  <Interactions>  (5) 
["V-B:GLU:543:C:9874, V-B:GLU:543:CB:9878, V-B:GLY:544:C:9884, V-B:HIS:456:CE1:9040, V-B:GLU:543:CD:9880, V-A:GLU:543:CD:4908, V-A:GLU:543:CG:4907, H-A:TYR:484:OH:4348, V-A:HIS:456:CE1:4069, V-B:GLU:543:CG:9879, V-A:TYR:484:CE1:4345, V-A:HIS:456:CG:4066, H-A:HIS:456:NE2:4070, V-A:HIS:456:CD2:4068, V-A:HIS:456:CB:4065, V-A:ASP:473:CB:4239, V-A:ASP:473:CG:4240, H-B:LYS:547:NZ:9923, H-B:HIS:456:NE2:9041, V-A:TYR:484:CD2:4344, V-A:GLU:543:CB:4906, V-A:TYR:484:CD1:4343, V-A:TYR:484:CG:4342, V-A:TYR:484:CB:4341, V-B:TYR:484:CZ:9318, V-B:TYR:484:CE1:9316, H-B:GLU:543:O:9875"]

$$$$
1o_Grossjean_2025
     RDKit          3D

 26 27  0  0  0  0  0  0  0  0999 V2000
  127.1240  126.8130   74.3980 C   0  0  0  0  0  0  0  0  0  0  0  0
  128.3050  126.0290   74.4890 O   0  0  0  0  0  0  0  0  0  0  0  0
  129.4330  126.3840   73.8230 C   0  0  0  0  0  0  0  0  0  0  0  0
  130.4220  126.8770   74.3740 O   0  0  0  0  0  0  0  0  0  0  0  0
  129.3620  126.1150   72.3470 C   0  0  0  0  0  0  0  0  0  0  0  0
  128.8040  127.0380   71.4510 C   0  0  0  0  0  0  0  0  0  0  0  0
  128.7560  126.7580   70.0870 C   0  0  0  0  0  0  0  0  0  0  0  0
  129.2550  125.5530   69.5940 C   0  0  0  0  0  0  0  0  0  0  0  0
  129.1640  125.3770   68.1990 N   0  0  0  0  0  0  0  0  0  0  0  0
  129.2730  126.2840   67.2030 C   0  0  0  0  0  0  0  0  0  0  0  0
  129.5290  127.4780   67.3560 O   0  0  0  0  0  0  0  0  0  0  0  0
  129.0850  125.7320   65.7820 C   0  0  0  0  0  0  0  0  0  0  0  0
  130.3160  124.9670   65.2560 C   0  0  0  0  0  0  0  0  0  0  0  0
  130.0850  123.1670   65.1690 S   0  0  0  0  0  0  0  0  0  0  0  0
  130.9660  122.5530   63.7480 C   0  0  0  0  0  0  0  0  0  0  0  0
  130.2650  121.6370   63.0320 N   0  0  0  0  0  0  0  0  0  0  0  0
  130.8310  121.1050   61.9240 C   0  0  0  0  0  0  0  0  0  0  0  0
  129.9820  120.0990   61.1680 C   0  0  0  0  0  0  0  0  0  0  0  0
  132.1100  121.4500   61.4930 C   0  0  0  0  0  0  0  0  0  0  0  0
  132.8510  122.3740   62.2370 C   0  0  0  0  0  0  0  0  0  0  0  0
  134.2560  122.7260   61.7530 C   0  0  0  0  0  0  0  0  0  0  0  0
  132.2830  122.9400   63.4010 C   0  0  0  0  0  0  0  0  0  0  0  0
  133.0660  123.8630   64.2250 C   0  0  0  0  0  0  0  0  0  0  0  0
  133.6860  124.5940   64.8740 N   0  0  0  0  0  0  0  0  0  0  0  0
  129.8190  124.6260   70.4840 C   0  0  0  0  0  0  0  0  0  0  0  0
  129.8680  124.9080   71.8470 C   0  0  0  0  0  0  0  0  0  0  0  0
  1  2  1  0
  2  3  1  0
  3  4  2  0
  3  5  1  0
  5  6  2  0
  6  7  1  0
  7  8  2  0
  8  9  1  0
  9 10  1  0
 10 11  2  0
 10 12  1  0
 12 13  1  0
 13 14  1  0
 14 15  1  0
 15 16  2  0
 16 17  1  0
 17 18  1  0
 17 19  2  0
 19 20  1  0
 20 21  1  0
 20 22  2  0
 22 23  1  0
 23 24  3  0
  8 25  1  0
 25 26  2  0
 26  5  1  0
 22 15  1  0
M  END
>  <Binding energies>  (6) 
[-8.19]

>  <Ligand effiencies>  (6) 
[-0.3033333333333333]

>  <Interactions>  (6) 
["V-B:GLU:543:C:9874, V-B:GLU:543:CB:9878, V-B:HIS:456:CE1:9040, V-B:GLU:543:CD:9880, V-B:ALA:541:CB:9864, H-A:TYR:484:OH:4348, V-A:HIS:456:CE1:4069, V-B:GLU:543:CG:9879, V-A:LEU:475:CD1:4258, V-A:TYR:484:CE1:4345, V-A:GLY:454:CA:4049, V-A:TYR:484:CZ:4347, H-A:GLY:454:N:4050, V-B:TYR:539:CD2:9846, V-A:ILE:369:CD1:3239, V-A:HIS:456:CG:4066, V-A:HIS:456:CD2:4068, H-A:LYS:547:NZ:4951, H-B:LYS:547:NZ:9923, V-A:PRO:482:CG:4327, V-B:LYS:547:CD:9921, H-B:GLU:543:O:9875"]

$$$$
1p_Grossjean_2025
     RDKit          3D

 21 22  0  0  0  0  0  0  0  0999 V2000
  123.7630  129.8760   66.3520 C   0  0  0  0  0  0  0  0  0  0  0  0
  125.1130  129.1880   66.2910 C   0  0  0  0  0  0  0  0  0  0  0  0
  126.0400  129.4890   65.2940 C   0  0  0  0  0  0  0  0  0  0  0  0
  127.2650  128.8130   65.2800 C   0  0  0  0  0  0  0  0  0  0  0  0
  128.2590  129.1470   64.1690 C   0  0  0  0  0  0  0  0  0  0  0  0
  127.5360  127.8510   66.2790 C   0  0  0  0  0  0  0  0  0  0  0  0
  128.7900  127.0960   66.2570 C   0  0  0  0  0  0  0  0  0  0  0  0
  129.7820  126.5010   66.2390 N   0  0  0  0  0  0  0  0  0  0  0  0
  126.5460  127.6270   67.2650 C   0  0  0  0  0  0  0  0  0  0  0  0
  126.7280  126.4610   68.5960 S   0  0  0  0  0  0  0  0  0  0  0  0
  128.3340  126.8000   69.3750 C   0  0  0  0  0  0  0  0  0  0  0  0
  128.2440  127.0840   70.8860 C   0  0  0  0  0  0  0  0  0  0  0  0
  128.6170  125.8780   71.7610 C   0  0  0  0  0  0  0  0  0  0  0  0
  128.2900  125.8650   72.9490 O   0  0  0  0  0  0  0  0  0  0  0  0
  129.2860  124.8850   71.1330 N   0  0  0  0  0  0  0  0  0  0  0  0
  129.7360  123.6930   71.6870 C   0  0  0  0  0  0  0  0  0  0  0  0
  130.9530  123.5780   72.3600 C   0  0  0  0  0  0  0  0  0  0  0  0
  131.0240  122.2600   72.7480 C   0  0  0  0  0  0  0  0  0  0  0  0
  129.9100  121.6140   72.3300 O   0  0  0  0  0  0  0  0  0  0  0  0
  129.1020  122.5330   71.6570 N   0  0  0  0  0  0  0  0  0  0  0  0
  125.3520  128.2720   67.2580 N   0  0  0  0  0  0  0  0  0  0  0  0
  1  2  1  0
  2  3  2  0
  3  4  1  0
  4  5  1  0
  4  6  2  0
  6  7  1  0
  7  8  3  0
  6  9  1  0
  9 10  1  0
 10 11  1  0
 11 12  1  0
 12 13  1  0
 13 14  2  0
 13 15  1  0
 15 16  1  0
 16 17  1  0
 17 18  2  0
 18 19  1  0
 19 20  1  0
  9 21  2  0
 21  2  1  0
 20 16  2  0
M  END
>  <Binding energies>  (7) 
[-7.53]

>  <Ligand effiencies>  (7) 
[-0.3422727272727273]

>  <Interactions>  (7) 
["V-B:ARG:545:CD:9895, V-B:GLU:543:CB:9878, V-B:HIS:456:CE1:9040, V-B:ARG:545:CG:9894, V-A:GLU:543:CD:4908, V-B:ARG:545:CZ:9898, V-B:GLY:454:CA:9020, V-A:HIS:456:CG:4066, V-A:HIS:456:CD2:4068, V-A:HIS:456:CB:4065, V-A:ASP:473:CB:4239, H-B:LYS:547:NZ:9923, V-A:TYR:484:CD2:4344, V-A:TYR:484:CG:4342, V-A:TYR:484:CB:4341, H-B:ARG:545:NE:9896, V-A:TYR:484:CE2:4346, H-B:GLU:543:O:9875, H-B:ARG:545:N:9892"]

$$$$
2a_Ghoteimi_2023
     RDKit          3D

 48 53  0  0  0  0  0  0  0  0999 V2000
  132.1130  132.1560   54.7630 C   0  0  0  0  0  0  0  0  0  0  0  0
  131.6970  132.8550   56.0610 C   0  0  0  0  0  0  0  0  0  0  0  0
  130.2780  132.9170   56.1290 O   0  0  0  0  0  0  0  0  0  0  0  0
  129.5360  131.7980   56.3290 C   0  0  0  0  0  0  0  0  0  0  0  0
  129.5920  130.8040   55.5970 O   0  0  0  0  0  0  0  0  0  0  0  0
  128.6430  131.8860   57.5340 C   0  0  0  0  0  0  0  0  0  0  0  0
  128.8310  132.8580   58.5270 C   0  0  0  0  0  0  0  0  0  0  0  0
  127.9850  132.9130   59.6310 C   0  0  0  0  0  0  0  0  0  0  0  0
  126.9330  132.0050   59.7630 C   0  0  0  0  0  0  0  0  0  0  0  0
  126.1430  132.1490   60.9200 N   0  0  0  0  0  0  0  0  0  0  0  0
  124.8650  132.5690   61.0480 C   0  0  0  0  0  0  0  0  0  0  0  0
  124.1530  132.9620   60.1240 O   0  0  0  0  0  0  0  0  0  0  0  0
  124.3220  132.5740   62.4830 C   0  0  0  0  0  0  0  0  0  0  0  0
  123.8890  130.9270   63.1310 S   0  0  0  0  0  0  0  0  0  0  0  0
  125.4210  130.2080   63.6780 C   0  0  0  0  0  0  0  0  0  0  0  0
  126.4230  130.3020   62.7740 N   0  0  0  0  0  0  0  0  0  0  0  0
  127.6410  129.7820   63.0720 C   0  0  0  0  0  0  0  0  0  0  0  0
  128.6970  129.9140   62.0220 C   0  0  0  0  0  0  0  0  0  0  0  0
  128.9290  128.8920   61.0930 C   0  0  0  0  0  0  0  0  0  0  0  0
  129.9220  129.0150   60.1260 C   0  0  0  0  0  0  0  0  0  0  0  0
  130.7150  130.1680   60.0440 C   0  0  0  0  0  0  0  0  0  0  0  0
  131.7290  130.2650   59.0850 N   0  0  0  0  0  0  0  0  0  0  0  0
  131.9900  129.1720   58.1270 C   0  0  0  0  0  0  0  0  0  0  0  0
  132.8770  129.5870   56.9340 C   0  0  0  0  0  0  0  0  0  0  0  0
  134.0900  130.1520   57.4040 O   0  0  0  0  0  0  0  0  0  0  0  0
  133.8540  131.3080   58.1900 C   0  0  0  0  0  0  0  0  0  0  0  0
  132.9960  130.9470   59.4220 C   0  0  0  0  0  0  0  0  0  0  0  0
  130.4870  131.1850   60.9850 C   0  0  0  0  0  0  0  0  0  0  0  0
  129.4930  131.0620   61.9510 C   0  0  0  0  0  0  0  0  0  0  0  0
  127.8810  129.1630   64.3010 C   0  0  0  0  0  0  0  0  0  0  0  0
  126.8580  129.0540   65.2530 C   0  0  0  0  0  0  0  0  0  0  0  0
  127.1810  128.3750   66.5440 C   0  0  0  0  0  0  0  0  0  0  0  0
  128.4230  128.5770   67.1520 C   0  0  0  0  0  0  0  0  0  0  0  0
  128.7410  127.9330   68.3440 C   0  0  0  0  0  0  0  0  0  0  0  0
  127.8270  127.0700   68.9660 C   0  0  0  0  0  0  0  0  0  0  0  0
  128.1340  126.4000   70.1540 N   0  0  0  0  0  0  0  0  0  0  0  0
  128.0130  127.1150   71.4400 C   0  0  0  0  0  0  0  0  0  0  0  0
  127.9970  126.1730   72.6620 C   0  0  0  0  0  0  0  0  0  0  0  0
  129.1490  125.3440   72.6530 O   0  0  0  0  0  0  0  0  0  0  0  0
  129.2100  124.5430   71.4830 C   0  0  0  0  0  0  0  0  0  0  0  0
  129.2530  125.4410   70.2290 C   0  0  0  0  0  0  0  0  0  0  0  0
  126.5870  126.8640   68.3430 C   0  0  0  0  0  0  0  0  0  0  0  0
  126.2690  127.5060   67.1500 C   0  0  0  0  0  0  0  0  0  0  0  0
  125.5870  129.5970   64.9400 C   0  0  0  0  0  0  0  0  0  0  0  0
  124.4940  129.5630   65.9170 C   0  0  0  0  0  0  0  0  0  0  0  0
  123.6320  129.5340   66.6890 N   0  0  0  0  0  0  0  0  0  0  0  0
  126.7440  131.0250   58.7780 C   0  0  0  0  0  0  0  0  0  0  0  0
  127.5900  130.9720   57.6730 C   0  0  0  0  0  0  0  0  0  0  0  0
  1  2  1  0
  2  3  1  0
  3  4  1  0
  4  5  2  0
  4  6  1  0
  6  7  2  0
  7  8  1  0
  8  9  2  0
  9 10  1  0
 10 11  1  0
 11 12  2  0
 11 13  1  0
 13 14  1  0
 14 15  1  0
 15 16  2  0
 16 17  1  0
 17 18  1  0
 18 19  2  0
 19 20  1  0
 20 21  2  0
 21 22  1  0
 22 23  1  0
 23 24  1  0
 24 25  1  0
 25 26  1  0
 26 27  1  0
 21 28  1  0
 28 29  2  0
 17 30  2  0
 30 31  1  0
 31 32  1  0
 32 33  2  0
 33 34  1  0
 34 35  2  0
 35 36  1  0
 36 37  1  0
 37 38  1  0
 38 39  1  0
 39 40  1  0
 40 41  1  0
 35 42  1  0
 42 43  2  0
 31 44  2  0
 44 45  1  0
 45 46  3  0
  9 47  1  0
 47 48  2  0
 48  6  1  0
 44 15  1  0
 29 18  1  0
 43 32  1  0
 27 22  1  0
 41 36  1  0
M  END
>  <Binding energies>  (8) 
[-11.35]

>  <Ligand effiencies>  (8) 
[-0.2316326530612245]

>  <Interactions>  (8) 
["V-B:ARG:545:CD:9895, V-A:PRO:540:CB:4885, V-B:GLU:543:CB:9878, V-A:LEU:363:CA:3185, V-B:GLY:544:C:9884, V-B:HIS:456:CE1:9040, V-B:LEU:475:CD1:9229, V-A:ASP:366:CG:3213, V-A:PRO:540:CA:4883, V-A:LEU:363:CB:3187, V-B:ARG:545:CG:9894, V-A:GLU:543:CD:4908, V-B:ARG:545:CA:9891, V-A:TYR:539:CD1:4873, V-A:TYR:539:CD2:4874, V-A:TYR:539:CE2:4876, V-A:ILE:538:CD1:4865, V-A:TYR:539:CG:4872, V-A:TYR:539:CE1:4875, V-A:TYR:539:C:4867, V-A:TYR:539:CZ:4877, V-A:ASP:366:CB:3212, V-A:TYR:531:CE2:4793, V-A:PRO:540:N:4884, V-A:TYR:531:CZ:4794, V-B:ARG:545:CZ:9898, V-B:GLY:454:CA:9020, V-A:HIS:456:CE1:4069, V-A:ILE:538:CA:4860, V-A:PRO:540:CD:4887, H-A:TYR:539:N:4870, V-A:ILE:538:CG2:4863, V-A:LEU:363:CD1:3189, H-B:GLY:454:N:9021, H-B:TYR:484:OH:9319, V-A:HIS:456:CD2:4068, H-B:LYS:547:NZ:9923, V-B:HIS:456:CD2:9039, V-A:GLU:543:CB:4906, H-B:ARG:545:NE:9896, H-B:ILE:455:N:9026, V-A:PRO:540:CG:4886, V-A:LEU:363:CG:3188"]

$$$$
2aa_Ghoteimi_2023
     RDKit          3D

 48 53  0  0  0  0  0  0  0  0999 V2000
  131.2980  132.2930   54.3650 C   0  0  0  0  0  0  0  0  0  0  0  0
  130.1310  131.3540   54.6880 C   0  0  0  0  0  0  0  0  0  0  0  0
  129.1260  132.0770   55.3860 O   0  0  0  0  0  0  0  0  0  0  0  0
  129.3230  132.5000   56.6610 C   0  0  0  0  0  0  0  0  0  0  0  0
  130.2640  133.2250   57.0000 O   0  0  0  0  0  0  0  0  0  0  0  0
  128.2730  132.0120   57.6170 C   0  0  0  0  0  0  0  0  0  0  0  0
  128.1040  132.5820   58.8880 C   0  0  0  0  0  0  0  0  0  0  0  0
  127.1190  132.1110   59.7500 C   0  0  0  0  0  0  0  0  0  0  0  0
  126.2890  131.0560   59.3660 C   0  0  0  0  0  0  0  0  0  0  0  0
  125.3250  130.6610   60.3140 N   0  0  0  0  0  0  0  0  0  0  0  0
  124.4550  131.4090   61.0260 C   0  0  0  0  0  0  0  0  0  0  0  0
  124.3350  132.6320   60.9380 O   0  0  0  0  0  0  0  0  0  0  0  0
  123.5600  130.6090   61.9830 C   0  0  0  0  0  0  0  0  0  0  0  0
  124.0550  130.7330   63.3210 O   0  0  0  0  0  0  0  0  0  0  0  0
  125.3040  130.2240   63.6520 C   0  0  0  0  0  0  0  0  0  0  0  0
  126.3010  130.3220   62.7280 N   0  0  0  0  0  0  0  0  0  0  0  0
  127.5340  129.8380   63.0210 C   0  0  0  0  0  0  0  0  0  0  0  0
  128.5770  129.9770   61.9580 C   0  0  0  0  0  0  0  0  0  0  0  0
  128.7430  128.9850   60.9860 C   0  0  0  0  0  0  0  0  0  0  0  0
  129.7070  129.1120   59.9890 C   0  0  0  0  0  0  0  0  0  0  0  0
  130.5340  130.2450   59.9200 C   0  0  0  0  0  0  0  0  0  0  0  0
  131.5170  130.3820   58.9340 N   0  0  0  0  0  0  0  0  0  0  0  0
  132.8820  130.8400   59.2650 C   0  0  0  0  0  0  0  0  0  0  0  0
  133.7100  131.2700   58.0360 C   0  0  0  0  0  0  0  0  0  0  0  0
  133.7450  130.2210   57.0830 O   0  0  0  0  0  0  0  0  0  0  0  0
  132.4420  129.8860   56.6320 C   0  0  0  0  0  0  0  0  0  0  0  0
  131.5760  129.4140   57.8190 C   0  0  0  0  0  0  0  0  0  0  0  0
  130.3790  131.2260   60.9100 C   0  0  0  0  0  0  0  0  0  0  0  0
  129.4160  131.0970   61.9070 C   0  0  0  0  0  0  0  0  0  0  0  0
  127.7960  129.2250   64.2500 C   0  0  0  0  0  0  0  0  0  0  0  0
  126.7860  129.1000   65.2120 C   0  0  0  0  0  0  0  0  0  0  0  0
  127.1200  128.4120   66.4960 C   0  0  0  0  0  0  0  0  0  0  0  0
  128.3720  128.5910   67.0880 C   0  0  0  0  0  0  0  0  0  0  0  0
  128.6970  127.9370   68.2730 C   0  0  0  0  0  0  0  0  0  0  0  0
  127.7820  127.0730   68.8940 C   0  0  0  0  0  0  0  0  0  0  0  0
  128.0850  126.4080   70.0860 N   0  0  0  0  0  0  0  0  0  0  0  0
  128.0040  127.0940   71.3890 C   0  0  0  0  0  0  0  0  0  0  0  0
  128.0240  126.1280   72.5940 C   0  0  0  0  0  0  0  0  0  0  0  0
  129.1730  125.2970   72.5300 O   0  0  0  0  0  0  0  0  0  0  0  0
  129.1890  124.5190   71.3430 C   0  0  0  0  0  0  0  0  0  0  0  0
  129.2010  125.4420   70.1060 C   0  0  0  0  0  0  0  0  0  0  0  0
  126.5260  126.9040   68.2960 C   0  0  0  0  0  0  0  0  0  0  0  0
  126.2010  127.5580   67.1110 C   0  0  0  0  0  0  0  0  0  0  0  0
  125.5090  129.6280   64.9090 C   0  0  0  0  0  0  0  0  0  0  0  0
  124.4070  129.5880   65.8730 C   0  0  0  0  0  0  0  0  0  0  0  0
  123.5370  129.5560   66.6350 N   0  0  0  0  0  0  0  0  0  0  0  0
  126.4460  130.4850   58.0950 C   0  0  0  0  0  0  0  0  0  0  0  0
  127.4300  130.9610   57.2330 C   0  0  0  0  0  0  0  0  0  0  0  0
  1  2  1  0
  2  3  1  0
  3  4  1  0
  4  5  2  0
  4  6  1  0
  6  7  2  0
  7  8  1  0
  8  9  2  0
  9 10  1  0
 10 11  1  0
 11 12  2  0
 11 13  1  0
 13 14  1  0
 14 15  1  0
 15 16  2  0
 16 17  1  0
 17 18  1  0
 18 19  2  0
 19 20  1  0
 20 21  2  0
 21 22  1  0
 22 23  1  0
 23 24  1  0
 24 25  1  0
 25 26  1  0
 26 27  1  0
 21 28  1  0
 28 29  2  0
 17 30  2  0
 30 31  1  0
 31 32  1  0
 32 33  2  0
 33 34  1  0
 34 35  2  0
 35 36  1  0
 36 37  1  0
 37 38  1  0
 38 39  1  0
 39 40  1  0
 40 41  1  0
 35 42  1  0
 42 43  2  0
 31 44  2  0
 44 45  1  0
 45 46  3  0
  9 47  1  0
 47 48  2  0
 48  6  1  0
 44 15  1  0
 29 18  1  0
 43 32  1  0
 27 22  1  0
 41 36  1  0
M  END
>  <Binding energies>  (9) 
[-10.88]

>  <Ligand effiencies>  (9) 
[-0.22204081632653064]

>  <Interactions>  (9) 
["V-B:ARG:545:CD:9895, V-A:PRO:540:CB:4885, V-B:GLU:543:CB:9878, V-A:LEU:363:CA:3185, V-B:GLY:544:C:9884, V-B:HIS:456:CE1:9040, V-A:PRO:540:CA:4883, V-A:LEU:363:CB:3187, V-B:ARG:545:CG:9894, V-B:ARG:545:CA:9891, V-A:TYR:539:CD1:4873, V-A:TYR:539:CD2:4874, V-A:TYR:539:CE2:4876, V-A:ILE:538:CD1:4865, V-A:TYR:539:CG:4872, V-A:TYR:539:CE1:4875, V-A:TYR:539:C:4867, V-A:TYR:539:CZ:4877, V-A:TYR:531:CE2:4793, V-A:PRO:540:N:4884, V-A:TYR:531:CZ:4794, H-B:ASP:366:OD1:8185, V-B:ILE:369:CD1:8210, V-B:ASP:366:CG:8184, V-B:ARG:545:CZ:9898, V-A:HIS:456:CE1:4069, V-A:ILE:538:CA:4860, H-A:TYR:539:N:4870, V-A:LEU:363:CD1:3189, H-B:GLY:454:N:9021, H-B:TYR:484:OH:9319, V-A:HIS:456:CD2:4068, H-B:LYS:547:NZ:9923, V-B:HIS:456:CD2:9039, V-A:GLU:543:CB:4906, H-B:ARG:545:NE:9896, H-B:ILE:455:N:9026, H-B:ARG:545:NH2:9900, H-A:TYR:531:OH:4795, V-A:PRO:540:CG:4886, H-B:ASP:366:OD2:8186"]

$$$$
2b_Ghoteimi_2023
     RDKit          3D

 42 47  0  0  0  0  0  0  0  0999 V2000
  130.0060  122.1530   64.4060 N   0  0  0  0  0  0  0  0  0  0  0  0
  130.0870  123.0650   63.6970 C   0  0  0  0  0  0  0  0  0  0  0  0
  130.1890  124.2230   62.8040 C   0  0  0  0  0  0  0  0  0  0  0  0
  130.0360  125.5380   63.3110 C   0  0  0  0  0  0  0  0  0  0  0  0
  129.7690  125.8490   64.7460 C   0  0  0  0  0  0  0  0  0  0  0  0
  128.8070  126.7990   65.0940 C   0  0  0  0  0  0  0  0  0  0  0  0
  128.5550  127.0940   66.4310 C   0  0  0  0  0  0  0  0  0  0  0  0
  129.2720  126.4590   67.4570 C   0  0  0  0  0  0  0  0  0  0  0  0
  129.0290  126.7280   68.8050 N   0  0  0  0  0  0  0  0  0  0  0  0
  129.4950  128.0060   69.3790 C   0  0  0  0  0  0  0  0  0  0  0  0
  129.5060  128.0160   70.9220 C   0  0  0  0  0  0  0  0  0  0  0  0
  128.2240  127.6690   71.4220 O   0  0  0  0  0  0  0  0  0  0  0  0
  127.8260  126.3760   70.9930 C   0  0  0  0  0  0  0  0  0  0  0  0
  127.7630  126.3300   69.4530 C   0  0  0  0  0  0  0  0  0  0  0  0
  130.2390  125.5090   67.0980 C   0  0  0  0  0  0  0  0  0  0  0  0
  130.4880  125.2120   65.7610 C   0  0  0  0  0  0  0  0  0  0  0  0
  130.1460  126.6120   62.4200 C   0  0  0  0  0  0  0  0  0  0  0  0
  130.4330  126.3860   61.0710 C   0  0  0  0  0  0  0  0  0  0  0  0
  130.5910  127.5000   60.0850 C   0  0  0  0  0  0  0  0  0  0  0  0
  130.5710  127.2440   58.7090 C   0  0  0  0  0  0  0  0  0  0  0  0
  130.7010  128.2780   57.7860 C   0  0  0  0  0  0  0  0  0  0  0  0
  130.8690  129.6070   58.2040 C   0  0  0  0  0  0  0  0  0  0  0  0
  130.9710  130.6600   57.2880 N   0  0  0  0  0  0  0  0  0  0  0  0
  129.8720  131.6410   57.1680 C   0  0  0  0  0  0  0  0  0  0  0  0
  129.9400  132.4900   55.8800 C   0  0  0  0  0  0  0  0  0  0  0  0
  131.2040  133.1290   55.7850 O   0  0  0  0  0  0  0  0  0  0  0  0
  132.2600  132.1840   55.7340 C   0  0  0  0  0  0  0  0  0  0  0  0
  132.2620  131.3220   57.0140 C   0  0  0  0  0  0  0  0  0  0  0  0
  130.8810  129.8600   59.5830 C   0  0  0  0  0  0  0  0  0  0  0  0
  130.7480  128.8260   60.5050 C   0  0  0  0  0  0  0  0  0  0  0  0
  130.5800  125.1260   60.5880 N   0  0  0  0  0  0  0  0  0  0  0  0
  130.4440  124.0690   61.4230 C   0  0  0  0  0  0  0  0  0  0  0  0
  130.6640  122.4950   60.6220 S   0  0  0  0  0  0  0  0  0  0  0  0
  129.1290  121.5470   60.8470 C   0  0  0  0  0  0  0  0  0  0  0  0
  127.9490  122.1780   60.1060 C   0  0  0  0  0  0  0  0  0  0  0  0
  127.0630  122.7420   60.7510 O   0  0  0  0  0  0  0  0  0  0  0  0
  127.9740  122.0550   58.7610 N   0  0  0  0  0  0  0  0  0  0  0  0
  127.0430  122.5400   57.8540 C   0  0  0  0  0  0  0  0  0  0  0  0
  126.2870  123.6890   58.0810 C   0  0  0  0  0  0  0  0  0  0  0  0
  125.4980  123.8250   56.9630 C   0  0  0  0  0  0  0  0  0  0  0  0
  125.7650  122.8110   56.1070 O   0  0  0  0  0  0  0  0  0  0  0  0
  126.7490  122.0020   56.6820 N   0  0  0  0  0  0  0  0  0  0  0  0
  1  2  3  0
  2  3  1  0
  3  4  2  0
  4  5  1  0
  5  6  2  0
  6  7  1  0
  7  8  2  0
  8  9  1  0
  9 10  1  0
 10 11  1  0
 11 12  1  0
 12 13  1  0
 13 14  1  0
  8 15  1  0
 15 16  2  0
  4 17  1  0
 17 18  2  0
 18 19  1  0
 19 20  2  0
 20 21  1  0
 21 22  2  0
 22 23  1  0
 23 24  1  0
 24 25  1  0
 25 26  1  0
 26 27  1  0
 27 28  1  0
 22 29  1  0
 29 30  2  0
 18 31  1  0
 31 32  2  0
 32 33  1  0
 33 34  1  0
 34 35  1  0
 35 36  2  0
 35 37  1  0
 37 38  1  0
 38 39  1  0
 39 40  2  0
 40 41  1  0
 41 42  1  0
 32  3  1  0
 42 38  2  0
 16  5  1  0
 30 19  1  0
 14  9  1  0
 28 23  1  0
M  END
>  <Binding energies>  (10) 
[-10.81]

>  <Ligand effiencies>  (10) 
[-0.2513953488372093]

>  <Interactions>  (10) 
["V-A:PRO:540:CB:4885, V-B:GLU:543:C:9874, V-B:GLU:543:CB:9878, V-B:GLY:544:C:9884, V-B:HIS:456:CE1:9040, V-B:GLU:543:CD:9880, V-A:GLU:543:CD:4908, V-A:TYR:539:CD1:4873, V-A:TYR:539:CE1:4875, V-B:ALA:541:CB:9864, V-A:HIS:456:CE1:4069, V-B:PRO:540:N:9856, V-A:TYR:484:CZ:4347, V-B:TYR:539:CD2:9846, V-B:PRO:540:CA:9855, V-B:TYR:539:C:9839, V-B:TYR:539:CE2:9848, V-B:PRO:540:C:9853, V-A:PRO:540:CD:4887, H-A:TYR:539:N:4870, V-A:LEU:363:CD1:3189, H-B:ALA:541:N:9863, V-B:PRO:540:CB:9857, V-A:HIS:456:CD2:4068, H-B:HIS:456:NE2:9041, V-B:HIS:456:CD2:9039, V-B:LEU:363:CD1:8160, V-B:TYR:539:CG:9844, H-B:TYR:539:N:9842, H-B:TYR:539:O:9840"]

$$$$
2c_Ghoteimi_2023
     RDKit          3D

 42 47  0  0  0  0  0  0  0  0999 V2000
  129.9950  121.8650   64.3120 N   0  0  0  0  0  0  0  0  0  0  0  0
  130.0670  122.8270   63.6740 C   0  0  0  0  0  0  0  0  0  0  0  0
  130.1600  124.0500   62.8700 C   0  0  0  0  0  0  0  0  0  0  0  0
  129.9880  125.3220   63.4700 C   0  0  0  0  0  0  0  0  0  0  0  0
  129.7040  125.5260   64.9220 C   0  0  0  0  0  0  0  0  0  0  0  0
  128.7230  126.4340   65.3260 C   0  0  0  0  0  0  0  0  0  0  0  0
  128.4490  126.6260   66.6770 C   0  0  0  0  0  0  0  0  0  0  0  0
  129.1590  125.9260   67.6650 C   0  0  0  0  0  0  0  0  0  0  0  0
  128.8870  126.0880   69.0250 N   0  0  0  0  0  0  0  0  0  0  0  0
  127.5240  126.4620   69.4500 C   0  0  0  0  0  0  0  0  0  0  0  0
  127.4580  126.9800   70.9020 C   0  0  0  0  0  0  0  0  0  0  0  0
  128.0190  126.0210   71.7860 O   0  0  0  0  0  0  0  0  0  0  0  0
  129.3780  125.7550   71.4780 C   0  0  0  0  0  0  0  0  0  0  0  0
  129.4950  125.2060   70.0410 C   0  0  0  0  0  0  0  0  0  0  0  0
  130.1450  125.0190   67.2490 C   0  0  0  0  0  0  0  0  0  0  0  0
  130.4170  124.8250   65.8980 C   0  0  0  0  0  0  0  0  0  0  0  0
  130.0890  126.4600   62.6590 C   0  0  0  0  0  0  0  0  0  0  0  0
  130.3790  126.3360   61.2970 C   0  0  0  0  0  0  0  0  0  0  0  0
  130.5150  127.5200   60.3940 C   0  0  0  0  0  0  0  0  0  0  0  0
  130.4730  127.3670   59.0050 C   0  0  0  0  0  0  0  0  0  0  0  0
  130.5930  128.4660   58.1580 C   0  0  0  0  0  0  0  0  0  0  0  0
  130.7710  129.7610   58.6710 C   0  0  0  0  0  0  0  0  0  0  0  0
  130.8680  130.8790   57.8360 N   0  0  0  0  0  0  0  0  0  0  0  0
  132.0340  131.0300   56.9410 C   0  0  0  0  0  0  0  0  0  0  0  0
  132.2030  132.4570   56.3800 C   0  0  0  0  0  0  0  0  0  0  0  0
  131.0120  132.8680   55.7290 O   0  0  0  0  0  0  0  0  0  0  0  0
  129.9100  132.8830   56.6230 C   0  0  0  0  0  0  0  0  0  0  0  0
  129.6740  131.4700   57.1970 C   0  0  0  0  0  0  0  0  0  0  0  0
  130.7990  129.9110   60.0650 C   0  0  0  0  0  0  0  0  0  0  0  0
  130.6780  128.8110   60.9110 C   0  0  0  0  0  0  0  0  0  0  0  0
  130.5460  125.1160   60.7260 N   0  0  0  0  0  0  0  0  0  0  0  0
  130.4220  124.0000   61.4820 C   0  0  0  0  0  0  0  0  0  0  0  0
  130.6600  122.4920   60.5700 S   0  0  0  0  0  0  0  0  0  0  0  0
  129.1630  121.4820   60.7850 C   0  0  0  0  0  0  0  0  0  0  0  0
  127.9450  122.1080   60.1050 C   0  0  0  0  0  0  0  0  0  0  0  0
  127.0480  122.5910   60.7970 O   0  0  0  0  0  0  0  0  0  0  0  0
  127.9520  122.0760   58.7550 N   0  0  0  0  0  0  0  0  0  0  0  0
  126.9790  122.5880   57.9080 C   0  0  0  0  0  0  0  0  0  0  0  0
  126.5760  122.1030   56.7540 N   0  0  0  0  0  0  0  0  0  0  0  0
  125.6270  122.8460   56.2210 C   0  0  0  0  0  0  0  0  0  0  0  0
  125.2410  123.9670   56.9490 C   0  0  0  0  0  0  0  0  0  0  0  0
  126.1770  124.0410   58.4120 S   0  0  0  0  0  0  0  0  0  0  0  0
  1  2  3  0
  2  3  1  0
  3  4  2  0
  4  5  1  0
  5  6  2  0
  6  7  1  0
  7  8  2  0
  8  9  1  0
  9 10  1  0
 10 11  1  0
 11 12  1  0
 12 13  1  0
 13 14  1  0
  8 15  1  0
 15 16  2  0
  4 17  1  0
 17 18  2  0
 18 19  1  0
 19 20  2  0
 20 21  1  0
 21 22  2  0
 22 23  1  0
 23 24  1  0
 24 25  1  0
 25 26  1  0
 26 27  1  0
 27 28  1  0
 22 29  1  0
 29 30  2  0
 18 31  1  0
 31 32  2  0
 32 33  1  0
 33 34  1  0
 34 35  1  0
 35 36  2  0
 35 37  1  0
 37 38  1  0
 38 39  2  0
 39 40  1  0
 40 41  2  0
 41 42  1  0
 32  3  1  0
 42 38  1  0
 16  5  1  0
 30 19  1  0
 14  9  1  0
 28 23  1  0
M  END
>  <Binding energies>  (11) 
[-10.75]

>  <Ligand effiencies>  (11) 
[-0.25]

>  <Interactions>  (11) 
["V-A:PRO:540:CB:4885, V-B:GLU:543:C:9874, V-B:GLU:543:CB:9878, V-B:GLY:544:C:9884, V-B:HIS:456:CE1:9040, V-A:PRO:540:CA:4883, V-B:GLU:543:CD:9880, V-A:TYR:539:CD1:4873, V-A:TYR:539:CG:4872, V-A:TYR:539:CE1:4875, V-A:TYR:539:C:4867, V-A:PRO:540:N:4884, V-B:ALA:541:CB:9864, V-A:HIS:456:CE1:4069, V-B:GLU:543:CG:9879, V-A:TYR:484:CE1:4345, V-B:PRO:540:N:9856, V-A:TYR:484:CZ:4347, V-B:TYR:539:CD2:9846, V-B:PRO:540:CA:9855, V-B:TYR:539:C:9839, V-B:TYR:539:CE2:9848, V-B:PRO:540:C:9853, V-A:PRO:540:CD:4887, H-A:TYR:539:N:4870, V-A:LEU:363:CD1:3189, H-B:ALA:541:N:9863, V-B:PRO:540:CD:9859, V-B:PRO:540:CB:9857, V-A:HIS:456:CD2:4068, V-B:HIS:456:CG:9037, V-A:TYR:539:CA:4869, V-B:LEU:363:CD1:8160, V-B:ILE:538:CB:9834, V-B:TYR:539:CG:9844, V-B:ILE:538:CG2:9835, H-B:TYR:539:N:9842, V-A:PRO:540:CG:4886, H-B:TYR:539:O:9840"]

$$$$
2j_Grossjean_2025
     RDKit          3D

 23 24  0  0  0  0  0  0  0  0999 V2000
  130.8610  125.4050   66.0680 C   0  0  0  0  0  0  0  0  0  0  0  0
  129.5840  126.1980   66.2740 C   0  0  0  0  0  0  0  0  0  0  0  0
  129.1680  127.1610   65.3580 C   0  0  0  0  0  0  0  0  0  0  0  0
  127.9780  127.8660   65.5900 C   0  0  0  0  0  0  0  0  0  0  0  0
  127.5320  128.9270   64.5650 C   0  0  0  0  0  0  0  0  0  0  0  0
  126.2560  128.7300   64.2310 F   0  0  0  0  0  0  0  0  0  0  0  0
  127.6600  130.1480   65.0870 F   0  0  0  0  0  0  0  0  0  0  0  0
  128.2520  128.8940   63.4420 F   0  0  0  0  0  0  0  0  0  0  0  0
  127.2350  127.5720   66.7610 C   0  0  0  0  0  0  0  0  0  0  0  0
  125.9840  128.2790   67.0540 C   0  0  0  0  0  0  0  0  0  0  0  0
  124.9970  128.8360   67.2850 N   0  0  0  0  0  0  0  0  0  0  0  0
  127.7330  126.5790   67.6380 C   0  0  0  0  0  0  0  0  0  0  0  0
  126.8790  126.1260   69.1410 S   0  0  0  0  0  0  0  0  0  0  0  0
  127.8120  126.8000   70.5580 C   0  0  0  0  0  0  0  0  0  0  0  0
  128.3610  125.7450   71.5300 C   0  0  0  0  0  0  0  0  0  0  0  0
  128.2050  125.8680   72.7460 O   0  0  0  0  0  0  0  0  0  0  0  0
  129.0150  124.7190   70.9410 N   0  0  0  0  0  0  0  0  0  0  0  0
  129.6050  123.6360   71.5790 C   0  0  0  0  0  0  0  0  0  0  0  0
  129.1520  122.4040   71.6640 N   0  0  0  0  0  0  0  0  0  0  0  0
  129.9740  121.6300   72.3460 C   0  0  0  0  0  0  0  0  0  0  0  0
  131.1270  122.2360   72.8340 C   0  0  0  0  0  0  0  0  0  0  0  0
  131.1250  123.9110   72.3680 S   0  0  0  0  0  0  0  0  0  0  0  0
  128.8860  125.9060   67.3940 N   0  0  0  0  0  0  0  0  0  0  0  0
  1  2  1  0
  2  3  2  0
  3  4  1  0
  4  5  1  0
  5  6  1  0
  5  7  1  0
  5  8  1  0
  4  9  2  0
  9 10  1  0
 10 11  3  0
  9 12  1  0
 12 13  1  0
 13 14  1  0
 14 15  1  0
 15 16  2  0
 15 17  1  0
 17 18  1  0
 18 19  2  0
 19 20  1  0
 20 21  2  0
 21 22  1  0
 12 23  2  0
 23  2  1  0
 22 18  1  0
M  END
>  <Binding energies>  (12) 
[-6.19]

>  <Ligand effiencies>  (12) 
[-0.2579166666666667]

>  <Interactions>  (12) 
["V-B:GLU:543:C:9874, V-B:GLU:543:CB:9878, V-B:GLY:544:C:9884, V-B:HIS:456:CE1:9040, V-B:GLU:543:CD:9880, V-B:ARG:545:CG:9894, V-A:GLU:543:CD:4908, V-B:ARG:545:CZ:9898, V-A:HIS:456:CE1:4069, H-B:TYR:484:OH:9319, V-A:HIS:456:CG:4066, V-A:HIS:456:CD2:4068, V-A:HIS:456:CB:4065, V-A:ASP:473:CB:4239, H-B:LYS:547:NZ:9923, V-A:TYR:484:CD2:4344, V-A:GLU:543:CB:4906, V-A:TYR:484:CD1:4343, V-A:TYR:484:CG:4342, V-A:TYR:484:CB:4341, H-B:ARG:545:NE:9896, V-A:TYR:484:CE2:4346, H-B:GLU:543:O:9875, H-B:ARG:545:N:9892"]

$$$$
3ab_Grossjean_2025
     RDKit          3D

 33 35  0  0  0  0  0  0  0  0999 V2000
  126.9830  126.8350   74.2200 C   0  0  0  0  0  0  0  0  0  0  0  0
  128.1490  126.0390   74.3760 O   0  0  0  0  0  0  0  0  0  0  0  0
  129.3080  126.3680   73.7500 C   0  0  0  0  0  0  0  0  0  0  0  0
  130.2800  126.8600   74.3320 O   0  0  0  0  0  0  0  0  0  0  0  0
  129.2930  126.0720   72.2780 C   0  0  0  0  0  0  0  0  0  0  0  0
  129.8130  124.8770   71.7560 C   0  0  0  0  0  0  0  0  0  0  0  0
  129.7850  124.6290   70.3860 C   0  0  0  0  0  0  0  0  0  0  0  0
  129.2330  125.5770   69.5100 C   0  0  0  0  0  0  0  0  0  0  0  0
  129.1470  125.4280   68.1130 N   0  0  0  0  0  0  0  0  0  0  0  0
  129.4800  126.2890   67.1280 C   0  0  0  0  0  0  0  0  0  0  0  0
  129.9320  127.4230   67.2910 O   0  0  0  0  0  0  0  0  0  0  0  0
  129.2610  125.7730   65.7040 C   0  0  0  0  0  0  0  0  0  0  0  0
  129.8630  124.0700   65.4930 S   0  0  0  0  0  0  0  0  0  0  0  0
  130.4400  123.9120   63.8160 C   0  0  0  0  0  0  0  0  0  0  0  0
  129.4440  123.7490   62.9130 N   0  0  0  0  0  0  0  0  0  0  0  0
  129.7410  123.6200   61.5940 C   0  0  0  0  0  0  0  0  0  0  0  0
  128.5810  123.4460   60.6600 C   0  0  0  0  0  0  0  0  0  0  0  0
  128.7880  123.0970   59.3150 C   0  0  0  0  0  0  0  0  0  0  0  0
  127.7150  122.9320   58.4440 C   0  0  0  0  0  0  0  0  0  0  0  0
  126.4150  123.1170   58.9060 C   0  0  0  0  0  0  0  0  0  0  0  0
  126.1830  123.4670   60.2320 C   0  0  0  0  0  0  0  0  0  0  0  0
  127.2590  123.6300   61.0990 C   0  0  0  0  0  0  0  0  0  0  0  0
  131.0700  123.6340   61.1550 C   0  0  0  0  0  0  0  0  0  0  0  0
  132.1200  123.7820   62.0730 C   0  0  0  0  0  0  0  0  0  0  0  0
  133.5690  123.7860   61.5480 C   0  0  0  0  0  0  0  0  0  0  0  0
  134.3580  124.6330   62.2140 F   0  0  0  0  0  0  0  0  0  0  0  0
  134.1030  122.5700   61.6640 F   0  0  0  0  0  0  0  0  0  0  0  0
  133.5870  124.1450   60.2640 F   0  0  0  0  0  0  0  0  0  0  0  0
  131.8040  123.9180   63.4470 C   0  0  0  0  0  0  0  0  0  0  0  0
  132.8650  124.0200   64.4530 C   0  0  0  0  0  0  0  0  0  0  0  0
  133.7050  124.0990   65.2450 N   0  0  0  0  0  0  0  0  0  0  0  0
  128.7100  126.7620   70.0280 C   0  0  0  0  0  0  0  0  0  0  0  0
  128.7410  127.0090   71.3970 C   0  0  0  0  0  0  0  0  0  0  0  0
  1  2  1  0
  2  3  1  0
  3  4  2  0
  3  5  1  0
  5  6  2  0
  6  7  1  0
  7  8  2  0
  8  9  1  0
  9 10  1  0
 10 11  2  0
 10 12  1  0
 12 13  1  0
 13 14  1  0
 14 15  2  0
 15 16  1  0
 16 17  1  0
 17 18  2  0
 18 19  1  0
 19 20  2  0
 20 21  1  0
 21 22  2  0
 16 23  2  0
 23 24  1  0
 24 25  1  0
 25 26  1  0
 25 27  1  0
 25 28  1  0
 24 29  2  0
 29 30  1  0
 30 31  3  0
  8 32  1  0
 32 33  2  0
 33  5  1  0
 29 14  1  0
 22 17  1  0
M  END
>  <Binding energies>  (13) 
[-8.3]

>  <Ligand effiencies>  (13) 
[-0.24411764705882355]

>  <Interactions>  (13) 
["V-B:GLU:543:C:9874, V-B:GLU:543:CB:9878, V-B:HIS:456:CE1:9040, V-A:ASP:366:CG:3213, V-B:GLU:543:CD:9880, V-A:ASP:366:CB:3212, V-A:ARG:545:CZ:4926, H-A:TYR:484:OH:4348, V-A:HIS:456:CE1:4069, V-B:GLU:543:CG:9879, V-A:TYR:484:CE1:4345, V-A:GLY:454:CA:4049, V-B:PRO:540:N:9856, V-A:TYR:484:CZ:4347, H-A:GLY:454:N:4050, V-B:TYR:539:CD2:9846, V-B:PRO:540:CA:9855, V-B:TYR:539:C:9839, V-B:TYR:539:CE2:9848, V-A:ILE:369:CD1:3239, V-B:PRO:540:CB:9857, V-A:HIS:456:CG:4066, H-A:HIS:456:NE2:4070, V-A:HIS:456:CD2:4068, H-A:LYS:547:NZ:4951, H-B:LYS:547:NZ:9923, V-A:GLY:453:CA:4044, V-B:LYS:547:CD:9921, H-B:GLU:543:O:9875"]

$$$$
3ac_Grossjean_2025
     RDKit          3D

 31 33  0  0  0  0  0  0  0  0999 V2000
  130.1360  132.8780   54.4500 C   0  0  0  0  0  0  0  0  0  0  0  0
  130.7190  132.8910   55.7500 O   0  0  0  0  0  0  0  0  0  0  0  0
  131.1600  131.7040   56.3030 C   0  0  0  0  0  0  0  0  0  0  0  0
  130.2200  130.6780   56.4060 C   0  0  0  0  0  0  0  0  0  0  0  0
  130.5740  129.4460   56.9470 C   0  0  0  0  0  0  0  0  0  0  0  0
  131.8740  129.2230   57.4020 C   0  0  0  0  0  0  0  0  0  0  0  0
  132.1410  127.9400   57.9140 N   0  0  0  0  0  0  0  0  0  0  0  0
  131.8490  126.7330   57.3810 C   0  0  0  0  0  0  0  0  0  0  0  0
  131.3130  126.5490   56.2880 O   0  0  0  0  0  0  0  0  0  0  0  0
  132.2360  125.5250   58.2350 C   0  0  0  0  0  0  0  0  0  0  0  0
  131.3650  125.5040   59.8320 S   0  0  0  0  0  0  0  0  0  0  0  0
  130.4370  123.9870   59.9570 C   0  0  0  0  0  0  0  0  0  0  0  0
  129.3150  123.9840   59.1970 N   0  0  0  0  0  0  0  0  0  0  0  0
  128.5090  122.8920   59.1850 C   0  0  0  0  0  0  0  0  0  0  0  0
  127.2840  122.9730   58.3240 C   0  0  0  0  0  0  0  0  0  0  0  0
  126.1000  123.5520   58.8110 C   0  0  0  0  0  0  0  0  0  0  0  0
  124.9620  123.6350   58.0140 C   0  0  0  0  0  0  0  0  0  0  0  0
  124.9900  123.1370   56.7160 C   0  0  0  0  0  0  0  0  0  0  0  0
  126.1470  122.5540   56.2110 C   0  0  0  0  0  0  0  0  0  0  0  0
  127.2830  122.4720   57.0110 C   0  0  0  0  0  0  0  0  0  0  0  0
  128.8110  121.7700   59.9630 C   0  0  0  0  0  0  0  0  0  0  0  0
  129.9540  121.7550   60.7750 C   0  0  0  0  0  0  0  0  0  0  0  0
  130.2460  120.5000   61.6210 C   0  0  0  0  0  0  0  0  0  0  0  0
  130.2430  120.7470   62.9330 F   0  0  0  0  0  0  0  0  0  0  0  0
  129.3240  119.5640   61.3920 F   0  0  0  0  0  0  0  0  0  0  0  0
  131.4460  120.0110   61.3050 F   0  0  0  0  0  0  0  0  0  0  0  0
  130.7900  122.9000   60.7890 C   0  0  0  0  0  0  0  0  0  0  0  0
  131.9510  122.9620   61.6790 C   0  0  0  0  0  0  0  0  0  0  0  0
  132.8690  123.0100   62.3830 N   0  0  0  0  0  0  0  0  0  0  0  0
  132.8270  130.2480   57.2960 C   0  0  0  0  0  0  0  0  0  0  0  0
  132.4710  131.4800   56.7530 C   0  0  0  0  0  0  0  0  0  0  0  0
  1  2  1  0
  2  3  1  0
  3  4  2  0
  4  5  1  0
  5  6  2  0
  6  7  1  0
  7  8  1  0
  8  9  2  0
  8 10  1  0
 10 11  1  0
 11 12  1  0
 12 13  2  0
 13 14  1  0
 14 15  1  0
 15 16  2  0
 16 17  1  0
 17 18  2  0
 18 19  1  0
 19 20  2  0
 14 21  2  0
 21 22  1  0
 22 23  1  0
 23 24  1  0
 23 25  1  0
 23 26  1  0
 22 27  2  0
 27 28  1  0
 28 29  3  0
  6 30  1  0
 30 31  2  0
 31  3  1  0
 27 12  1  0
 20 15  1  0
M  END
>  <Binding energies>  (14) 
[-7.89]

>  <Ligand effiencies>  (14) 
[-0.2465625]

>  <Interactions>  (14) 
["V-A:PRO:540:CB:4885, V-A:ASP:366:CG:3213, V-A:TYR:539:CD1:4873, V-A:TYR:539:CE1:4875, V-A:ASP:366:CB:3212, V-B:TYR:539:CZ:9849, V-B:ALA:541:CB:9864, V-A:LEU:475:CD1:4258, V-B:PRO:540:N:9856, V-B:TYR:539:CD2:9846, V-B:PRO:540:CA:9855, V-B:TYR:539:C:9839, V-B:TYR:539:CE2:9848, V-B:PRO:540:C:9853, V-A:ILE:538:CA:4860, H-A:TYR:539:N:4870, V-A:LEU:363:CD1:3189, V-B:PRO:540:CD:9859, V-B:PRO:540:CB:9857, V-B:ALA:541:CA:9862, V-A:PRO:482:CB:4326, V-A:PRO:482:CG:4327, V-B:LEU:363:CD1:8160, V-B:ILE:538:CB:9834, V-B:TYR:539:CG:9844, V-B:ILE:538:CA:9832, V-A:TRP:381:CH2:3372, V-B:ILE:538:CG2:9835, V-B:TYR:539:CA:9841, H-A:TYR:531:OH:4795, H-B:TYR:539:OH:9850, V-A:ILE:538:C:4858, H-A:ASP:366:OD1:3214, H-A:ASP:366:OD2:3215"]

$$$$
3af_Grossjean_2025
     RDKit          3D

 29 31  0  0  0  0  0  0  0  0999 V2000
  129.9800  124.5410   68.6240 N   0  0  0  0  0  0  0  0  0  0  0  0
  129.3770  125.3330   68.0330 C   0  0  0  0  0  0  0  0  0  0  0  0
  128.6140  126.3350   67.2850 C   0  0  0  0  0  0  0  0  0  0  0  0
  128.9870  126.6900   65.9660 C   0  0  0  0  0  0  0  0  0  0  0  0
  130.1650  126.0250   65.2260 C   0  0  0  0  0  0  0  0  0  0  0  0
  130.4050  126.5740   64.0330 F   0  0  0  0  0  0  0  0  0  0  0  0
  131.2790  126.1360   65.9520 F   0  0  0  0  0  0  0  0  0  0  0  0
  129.9080  124.7320   65.0240 F   0  0  0  0  0  0  0  0  0  0  0  0
  128.2600  127.6940   65.3090 C   0  0  0  0  0  0  0  0  0  0  0  0
  127.1910  128.3270   65.9530 C   0  0  0  0  0  0  0  0  0  0  0  0
  126.3920  129.4190   65.3050 C   0  0  0  0  0  0  0  0  0  0  0  0
  124.9970  129.4760   65.4600 C   0  0  0  0  0  0  0  0  0  0  0  0
  124.2500  130.4880   64.8640 C   0  0  0  0  0  0  0  0  0  0  0  0
  124.8900  131.4610   64.1030 C   0  0  0  0  0  0  0  0  0  0  0  0
  126.2710  131.4300   63.9370 C   0  0  0  0  0  0  0  0  0  0  0  0
  127.0140  130.4160   64.5350 C   0  0  0  0  0  0  0  0  0  0  0  0
  126.8380  127.9870   67.2180 N   0  0  0  0  0  0  0  0  0  0  0  0
  127.5120  127.0040   67.8640 C   0  0  0  0  0  0  0  0  0  0  0  0
  126.8960  126.6880   69.5050 S   0  0  0  0  0  0  0  0  0  0  0  0
  128.1530  127.2470   70.6950 C   0  0  0  0  0  0  0  0  0  0  0  0
  128.5120  126.1530   71.6990 C   0  0  0  0  0  0  0  0  0  0  0  0
  127.9750  126.1570   72.8070 O   0  0  0  0  0  0  0  0  0  0  0  0
  129.4230  125.2520   71.2720 N   0  0  0  0  0  0  0  0  0  0  0  0
  129.9690  124.1410   71.9430 C   0  0  0  0  0  0  0  0  0  0  0  0
  131.0060  124.1830   72.8940 C   0  0  0  0  0  0  0  0  0  0  0  0
  131.4540  122.9980   73.4820 C   0  0  0  0  0  0  0  0  0  0  0  0
  130.8540  121.7970   73.1030 C   0  0  0  0  0  0  0  0  0  0  0  0
  129.8540  121.7280   72.1900 N   0  0  0  0  0  0  0  0  0  0  0  0
  129.4300  122.8890   71.6280 C   0  0  0  0  0  0  0  0  0  0  0  0
  1  2  3  0
  2  3  1  0
  3  4  2  0
  4  5  1  0
  5  6  1  0
  5  7  1  0
  5  8  1  0
  4  9  1  0
  9 10  2  0
 10 11  1  0
 11 12  2  0
 12 13  1  0
 13 14  2  0
 14 15  1  0
 15 16  2  0
 10 17  1  0
 17 18  2  0
 18 19  1  0
 19 20  1  0
 20 21  1  0
 21 22  2  0
 21 23  1  0
 23 24  1  0
 24 25  2  0
 25 26  1  0
 26 27  2  0
 27 28  1  0
 28 29  2  0
 18  3  1  0
 29 24  1  0
 16 11  1  0
M  END
>  <Binding energies>  (15) 
[-7.17]

>  <Ligand effiencies>  (15) 
[-0.239]

>  <Interactions>  (15) 
["V-B:ARG:545:CD:9895, V-B:GLU:543:C:9874, V-B:GLU:543:CB:9878, V-B:HIS:456:CE1:9040, V-B:LEU:475:CD1:9229, V-B:GLU:543:CD:9880, V-A:GLU:543:CD:4908, V-B:ARG:545:CZ:9898, V-B:GLY:454:CA:9020, H-A:TYR:484:OH:4348, V-A:HIS:456:CE1:4069, V-B:GLU:543:CG:9879, V-A:TYR:484:CE1:4345, V-A:HIS:456:CG:4066, H-A:HIS:456:NE2:4070, V-A:HIS:456:CD2:4068, V-A:HIS:456:CB:4065, V-A:ASP:473:CB:4239, V-A:ASP:473:CG:4240, H-B:LYS:547:NZ:9923, V-B:HIS:456:CD2:9039, V-A:TYR:484:CD2:4344, V-A:TYR:484:CD1:4343, V-A:TYR:484:CG:4342, V-A:TYR:484:CB:4341, V-B:LYS:547:CE:9922, H-B:GLU:543:O:9875, H-B:ARG:545:N:9892"]

$$$$
3ag_Grossjean_2025
     RDKit          3D

 30 32  0  0  0  0  0  0  0  0999 V2000
  132.9280  124.7980   61.4420 N   0  0  0  0  0  0  0  0  0  0  0  0
  132.2940  125.0590   62.3740 C   0  0  0  0  0  0  0  0  0  0  0  0
  131.4940  125.3890   63.5570 C   0  0  0  0  0  0  0  0  0  0  0  0
  132.0410  125.2700   64.8580 C   0  0  0  0  0  0  0  0  0  0  0  0
  133.5030  124.8510   65.1100 C   0  0  0  0  0  0  0  0  0  0  0  0
  133.9730  125.2930   66.2780 F   0  0  0  0  0  0  0  0  0  0  0  0
  133.5990  123.5210   65.1150 F   0  0  0  0  0  0  0  0  0  0  0  0
  134.2920  125.3390   64.1520 F   0  0  0  0  0  0  0  0  0  0  0  0
  131.2180  125.5460   65.9600 C   0  0  0  0  0  0  0  0  0  0  0  0
  129.8830  125.9180   65.7700 C   0  0  0  0  0  0  0  0  0  0  0  0
  128.9590  126.2220   66.9100 C   0  0  0  0  0  0  0  0  0  0  0  0
  129.2990  125.8620   68.2240 C   0  0  0  0  0  0  0  0  0  0  0  0
  128.4450  126.1410   69.2880 C   0  0  0  0  0  0  0  0  0  0  0  0
  127.2350  126.7850   69.0510 C   0  0  0  0  0  0  0  0  0  0  0  0
  126.8730  127.1500   67.7580 C   0  0  0  0  0  0  0  0  0  0  0  0
  127.7290  126.8680   66.6970 C   0  0  0  0  0  0  0  0  0  0  0  0
  129.3650  126.0440   64.5200 N   0  0  0  0  0  0  0  0  0  0  0  0
  130.1470  125.8010   63.4410 C   0  0  0  0  0  0  0  0  0  0  0  0
  129.3040  126.0180   61.8890 S   0  0  0  0  0  0  0  0  0  0  0  0
  127.9880  124.7660   61.8080 C   0  0  0  0  0  0  0  0  0  0  0  0
  128.5210  123.3520   62.0420 C   0  0  0  0  0  0  0  0  0  0  0  0
  128.2780  122.4610   61.2270 O   0  0  0  0  0  0  0  0  0  0  0  0
  129.2510  123.1650   63.1560 N   0  0  0  0  0  0  0  0  0  0  0  0
  129.8830  121.9080   63.5560 C   0  0  0  0  0  0  0  0  0  0  0  0
  130.6780  121.2310   62.4440 C   0  0  0  0  0  0  0  0  0  0  0  0
  131.9180  121.7490   62.0620 C   0  0  0  0  0  0  0  0  0  0  0  0
  132.6590  121.1160   61.0680 C   0  0  0  0  0  0  0  0  0  0  0  0
  132.1630  119.9610   60.4670 C   0  0  0  0  0  0  0  0  0  0  0  0
  130.9340  119.4310   60.8530 C   0  0  0  0  0  0  0  0  0  0  0  0
  130.1920  120.0630   61.8480 C   0  0  0  0  0  0  0  0  0  0  0  0
  1  2  3  0
  2  3  1  0
  3  4  2  0
  4  5  1  0
  5  6  1  0
  5  7  1  0
  5  8  1  0
  4  9  1  0
  9 10  2  0
 10 11  1  0
 11 12  2  0
 12 13  1  0
 13 14  2  0
 14 15  1  0
 15 16  2  0
 10 17  1  0
 17 18  2  0
 18 19  1  0
 19 20  1  0
 20 21  1  0
 21 22  2  0
 21 23  1  0
 23 24  1  0
 24 25  1  0
 25 26  2  0
 26 27  1  0
 27 28  2  0
 28 29  1  0
 29 30  2  0
 18  3  1  0
 30 25  1  0
 16 11  1  0
M  END
>  <Binding energies>  (16) 
[-6.77]

>  <Ligand effiencies>  (16) 
[-0.21838709677419355]

>  <Interactions>  (16) 
["V-B:GLU:543:C:9874, V-B:GLU:543:CB:9878, V-B:GLY:544:C:9884, V-B:HIS:456:CE1:9040, V-B:GLU:543:CD:9880, V-B:ARG:545:CG:9894, V-A:ARG:545:CZ:4926, V-B:ALA:541:CB:9864, V-A:ARG:545:CD:4923, V-A:HIS:456:CE1:4069, V-B:GLU:543:CG:9879, V-A:LEU:475:CD1:4258, V-A:GLY:454:CA:4049, V-A:TYR:484:CZ:4347, H-A:ARG:545:NH2:4928, V-B:TYR:539:CD2:9846, V-B:TYR:539:CE2:9848, H-B:ALA:541:N:9863, V-A:PRO:482:CB:4326, V-A:PRO:482:CG:4327, V-A:TRP:381:CZ2:3370, V-A:TRP:381:CH2:3372, V-A:GLY:453:C:4042, V-A:GLY:453:CA:4044, V-A:ARG:545:CG:4922, V-A:GLY:454:C:4047"]

$$$$
3bc_Grossjean_2025
     RDKit          3D

 28 30  0  0  0  0  0  0  0  0999 V2000
  131.6330  132.1160   54.7980 C   0  0  0  0  0  0  0  0  0  0  0  0
  130.2220  131.9850   54.9300 O   0  0  0  0  0  0  0  0  0  0  0  0
  129.6550  130.7250   54.8860 C   0  0  0  0  0  0  0  0  0  0  0  0
  128.8420  130.4470   53.7870 C   0  0  0  0  0  0  0  0  0  0  0  0
  128.2270  129.2040   53.6550 C   0  0  0  0  0  0  0  0  0  0  0  0
  128.4130  128.2220   54.6300 C   0  0  0  0  0  0  0  0  0  0  0  0
  127.7620  126.9950   54.4050 N   0  0  0  0  0  0  0  0  0  0  0  0
  128.2880  125.7540   54.3210 C   0  0  0  0  0  0  0  0  0  0  0  0
  129.4820  125.4870   54.4740 O   0  0  0  0  0  0  0  0  0  0  0  0
  127.2660  124.6400   54.0520 C   0  0  0  0  0  0  0  0  0  0  0  0
  127.6280  123.0440   54.8590 S   0  0  0  0  0  0  0  0  0  0  0  0
  127.0610  123.1450   56.5420 C   0  0  0  0  0  0  0  0  0  0  0  0
  128.0130  122.8420   57.4570 N   0  0  0  0  0  0  0  0  0  0  0  0
  127.7150  122.8810   58.7820 C   0  0  0  0  0  0  0  0  0  0  0  0
  128.8190  122.5120   59.7290 C   0  0  0  0  0  0  0  0  0  0  0  0
  129.9050  123.3750   59.9360 C   0  0  0  0  0  0  0  0  0  0  0  0
  130.9320  123.0390   60.8130 C   0  0  0  0  0  0  0  0  0  0  0  0
  130.8870  121.8290   61.4970 C   0  0  0  0  0  0  0  0  0  0  0  0
  129.8230  120.9530   61.3080 C   0  0  0  0  0  0  0  0  0  0  0  0
  128.7980  121.2930   60.4280 C   0  0  0  0  0  0  0  0  0  0  0  0
  126.4340  123.2300   59.2200 C   0  0  0  0  0  0  0  0  0  0  0  0
  125.4460  123.5680   58.2890 C   0  0  0  0  0  0  0  0  0  0  0  0
  124.0650  123.9610   58.8140 C   0  0  0  0  0  0  0  0  0  0  0  0
  125.7550  123.5390   56.9120 C   0  0  0  0  0  0  0  0  0  0  0  0
  124.7520  123.9360   55.9220 C   0  0  0  0  0  0  0  0  0  0  0  0
  123.9560  124.2500   55.1420 N   0  0  0  0  0  0  0  0  0  0  0  0
  129.2390  128.4890   55.7320 C   0  0  0  0  0  0  0  0  0  0  0  0
  129.8520  129.7330   55.8590 C   0  0  0  0  0  0  0  0  0  0  0  0
  1  2  1  0
  2  3  1  0
  3  4  2  0
  4  5  1  0
  5  6  2  0
  6  7  1  0
  7  8  1  0
  8  9  2  0
  8 10  1  0
 10 11  1  0
 11 12  1  0
 12 13  2  0
 13 14  1  0
 14 15  1  0
 15 16  2  0
 16 17  1  0
 17 18  2  0
 18 19  1  0
 19 20  2  0
 14 21  2  0
 21 22  1  0
 22 23  1  0
 22 24  2  0
 24 25  1  0
 25 26  3  0
  6 27  1  0
 27 28  2  0
 28  3  1  0
 24 12  1  0
 20 15  1  0
M  END
>  <Binding energies>  (17) 
[-8.04]

>  <Ligand effiencies>  (17) 
[-0.2772413793103448]

>  <Interactions>  (17) 
["V-A:ILE:538:CD1:4865, V-A:TYR:531:CE2:4793, V-A:MET:535:CE:4835, V-B:ALA:541:CB:9864, V-B:PRO:540:N:9856, V-B:TYR:539:CD2:9846, V-B:PRO:540:CA:9855, V-B:TYR:539:C:9839, V-B:TYR:539:CE2:9848, V-B:PRO:540:C:9853, V-A:ILE:538:CA:4860, V-B:PRO:540:CB:9857, V-B:LEU:363:CD1:8160, V-B:TYR:531:CE2:9765, V-B:MET:535:CG:9805, V-B:ILE:538:CG2:9835, H-B:TYR:539:OH:9850, H-B:TYR:531:OH:9767, H-B:MET:535:SD:9806, V-B:MET:535:CE:9807"]

$$$$
3bd_Grossjean_2025
     RDKit          3D

 26 28  0  0  0  0  0  0  0  0999 V2000
  130.8580  118.9690   61.7110 C   0  0  0  0  0  0  0  0  0  0  0  0
  130.7560  120.3760   61.1250 C   0  0  0  0  0  0  0  0  0  0  0  0
  129.4910  120.8510   60.7590 C   0  0  0  0  0  0  0  0  0  0  0  0
  129.3560  122.1330   60.2150 C   0  0  0  0  0  0  0  0  0  0  0  0
  128.0310  122.7050   59.8060 C   0  0  0  0  0  0  0  0  0  0  0  0
  127.6500  122.7380   58.4560 C   0  0  0  0  0  0  0  0  0  0  0  0
  126.4210  123.2690   58.0700 C   0  0  0  0  0  0  0  0  0  0  0  0
  125.5550  123.7760   59.0330 C   0  0  0  0  0  0  0  0  0  0  0  0
  125.9110  123.7580   60.3770 C   0  0  0  0  0  0  0  0  0  0  0  0
  127.1390  123.2270   60.7590 C   0  0  0  0  0  0  0  0  0  0  0  0
  130.4400  122.9350   60.0470 N   0  0  0  0  0  0  0  0  0  0  0  0
  131.6750  122.4910   60.3950 C   0  0  0  0  0  0  0  0  0  0  0  0
  133.0160  123.6350   60.1140 S   0  0  0  0  0  0  0  0  0  0  0  0
  134.0200  123.7090   61.6280 C   0  0  0  0  0  0  0  0  0  0  0  0
  133.1930  124.1320   62.8430 C   0  0  0  0  0  0  0  0  0  0  0  0
  133.7500  124.2450   63.9360 O   0  0  0  0  0  0  0  0  0  0  0  0
  131.8780  124.3390   62.6140 N   0  0  0  0  0  0  0  0  0  0  0  0
  130.8770  124.7550   63.5120 C   0  0  0  0  0  0  0  0  0  0  0  0
  130.2090  125.9370   63.1820 C   0  0  0  0  0  0  0  0  0  0  0  0
  129.2090  126.4320   64.0150 C   0  0  0  0  0  0  0  0  0  0  0  0
  128.8830  125.7500   65.1840 C   0  0  0  0  0  0  0  0  0  0  0  0
  129.5520  124.5780   65.5300 C   0  0  0  0  0  0  0  0  0  0  0  0
  130.5510  124.0800   64.6990 C   0  0  0  0  0  0  0  0  0  0  0  0
  131.8830  121.2060   60.9410 C   0  0  0  0  0  0  0  0  0  0  0  0
  133.2210  120.7380   61.3150 C   0  0  0  0  0  0  0  0  0  0  0  0
  134.2770  120.3690   61.6120 N   0  0  0  0  0  0  0  0  0  0  0  0
  1  2  1  0
  2  3  2  0
  3  4  1  0
  4  5  1  0
  5  6  2  0
  6  7  1  0
  7  8  2  0
  8  9  1  0
  9 10  2  0
  4 11  2  0
 11 12  1  0
 12 13  1  0
 13 14  1  0
 14 15  1  0
 15 16  2  0
 15 17  1  0
 17 18  1  0
 18 19  2  0
 19 20  1  0
 20 21  2  0
 21 22  1  0
 22 23  2  0
 12 24  2  0
 24 25  1  0
 25 26  3  0
 24  2  1  0
 10  5  1  0
 23 18  1  0
M  END
>  <Binding energies>  (18) 
[-7.11]

>  <Ligand effiencies>  (18) 
[-0.26333333333333336]

>  <Interactions>  (18) 
["V-B:GLU:543:CB:9878, V-B:GLU:543:CD:9880, V-B:ALA:541:CB:9864, V-B:GLU:543:CG:9879, V-A:LEU:475:CD1:4258, V-B:PRO:540:N:9856, H-A:GLY:454:N:4050, V-B:TYR:539:CD2:9846, V-B:PRO:540:CA:9855, V-B:TYR:539:C:9839, V-B:TYR:539:CE2:9848, V-A:ILE:369:CD1:3239, V-A:ILE:369:CG2:3237, V-B:PRO:540:CB:9857, V-B:GLU:543:CA:9876, V-A:PRO:482:CB:4326, V-A:PRO:482:CG:4327, V-A:TRP:381:CZ2:3370, V-A:TRP:381:CH2:3372"]

$$$$
3be_Grossjean_2025
     RDKit          3D

 27 29  0  0  0  0  0  0  0  0999 V2000
  134.1040  123.8720   58.8450 C   0  0  0  0  0  0  0  0  0  0  0  0
  132.7330  124.4430   59.1520 C   0  0  0  0  0  0  0  0  0  0  0  0
  132.4570  125.0690   60.3700 C   0  0  0  0  0  0  0  0  0  0  0  0
  131.1720  125.5690   60.5840 C   0  0  0  0  0  0  0  0  0  0  0  0
  130.2040  125.4320   59.5850 C   0  0  0  0  0  0  0  0  0  0  0  0
  130.5480  124.7980   58.3870 C   0  0  0  0  0  0  0  0  0  0  0  0
  129.5270  124.6830   57.4260 N   0  0  0  0  0  0  0  0  0  0  0  0
  129.5080  125.1360   56.1540 C   0  0  0  0  0  0  0  0  0  0  0  0
  130.4280  125.7570   55.6180 O   0  0  0  0  0  0  0  0  0  0  0  0
  128.2190  124.8200   55.3780 C   0  0  0  0  0  0  0  0  0  0  0  0
  127.4570  123.2070   55.7640 S   0  0  0  0  0  0  0  0  0  0  0  0
  126.8220  123.2790   57.4240 C   0  0  0  0  0  0  0  0  0  0  0  0
  127.7050  122.8560   58.3620 N   0  0  0  0  0  0  0  0  0  0  0  0
  127.3530  122.8610   59.6760 C   0  0  0  0  0  0  0  0  0  0  0  0
  128.3820  122.3650   60.6480 C   0  0  0  0  0  0  0  0  0  0  0  0
  128.6350  123.0600   61.8410 C   0  0  0  0  0  0  0  0  0  0  0  0
  129.5900  122.6060   62.7460 C   0  0  0  0  0  0  0  0  0  0  0  0
  130.3090  121.4490   62.4690 C   0  0  0  0  0  0  0  0  0  0  0  0
  130.0800  120.7430   61.2930 C   0  0  0  0  0  0  0  0  0  0  0  0
  129.1240  121.2000   60.3900 C   0  0  0  0  0  0  0  0  0  0  0  0
  126.0850  123.2950   60.0760 C   0  0  0  0  0  0  0  0  0  0  0  0
  125.1710  123.7570   59.1230 C   0  0  0  0  0  0  0  0  0  0  0  0
  123.8040  124.2370   59.6090 C   0  0  0  0  0  0  0  0  0  0  0  0
  125.5390  123.7660   57.7610 C   0  0  0  0  0  0  0  0  0  0  0  0
  124.6180  124.2960   56.7530 C   0  0  0  0  0  0  0  0  0  0  0  0
  123.8880  124.7150   55.9580 N   0  0  0  0  0  0  0  0  0  0  0  0
  131.8030  124.3040   58.1730 N   0  0  0  0  0  0  0  0  0  0  0  0
  1  2  1  0
  2  3  2  0
  3  4  1  0
  4  5  2  0
  5  6  1  0
  6  7  1  0
  7  8  1  0
  8  9  2  0
  8 10  1  0
 10 11  1  0
 11 12  1  0
 12 13  2  0
 13 14  1  0
 14 15  1  0
 15 16  2  0
 16 17  1  0
 17 18  2  0
 18 19  1  0
 19 20  2  0
 14 21  2  0
 21 22  1  0
 22 23  1  0
 22 24  2  0
 24 25  1  0
 25 26  3  0
  6 27  2  0
 27  2  1  0
 24 12  1  0
 20 15  1  0
M  END
>  <Binding energies>  (19) 
[-7.12]

>  <Ligand effiencies>  (19) 
[-0.2542857142857143]

>  <Interactions>  (19) 
["V-A:ASP:366:CG:3213, V-A:ASP:366:CB:3212, V-B:ASP:366:CG:8184, V-B:TYR:539:CZ:9849, V-B:ALA:541:CB:9864, V-B:GLU:543:CG:9879, V-A:LEU:475:CD1:4258, V-B:PRO:540:N:9856, V-B:TYR:539:CD2:9846, V-B:PRO:540:CA:9855, V-B:TYR:539:C:9839, V-B:TYR:539:CE2:9848, V-B:PRO:540:C:9853, V-A:ILE:369:CG2:3237, V-B:PRO:540:CB:9857, V-B:LEU:363:CD1:8160, V-B:LEU:363:CA:8156, H-A:TYR:531:OH:4795, H-B:TYR:539:OH:9850, V-A:ASP:366:C:3208, V-A:ILE:369:CB:3236, V-A:ASP:366:CA:3210, H-B:TYR:531:OH:9767"]

$$$$
3bf_Grossjean_2025
     RDKit          3D

 26 28  0  0  0  0  0  0  0  0999 V2000
  133.9840  125.0530   64.9760 C   0  0  0  0  0  0  0  0  0  0  0  0
  132.5030  124.6910   64.8860 C   0  0  0  0  0  0  0  0  0  0  0  0
  131.6070  125.3720   65.7160 C   0  0  0  0  0  0  0  0  0  0  0  0
  130.2390  125.0820   65.6560 C   0  0  0  0  0  0  0  0  0  0  0  0
  129.2250  125.7910   66.5020 C   0  0  0  0  0  0  0  0  0  0  0  0
  129.0960  125.4910   67.8670 C   0  0  0  0  0  0  0  0  0  0  0  0
  128.1560  126.1440   68.6590 C   0  0  0  0  0  0  0  0  0  0  0  0
  127.3290  127.1100   68.0940 C   0  0  0  0  0  0  0  0  0  0  0  0
  127.4360  127.4240   66.7440 C   0  0  0  0  0  0  0  0  0  0  0  0
  128.3770  126.7670   65.9550 C   0  0  0  0  0  0  0  0  0  0  0  0
  129.7630  124.1410   64.7970 N   0  0  0  0  0  0  0  0  0  0  0  0
  130.6230  123.4550   64.0040 C   0  0  0  0  0  0  0  0  0  0  0  0
  129.8240  122.2620   62.9520 S   0  0  0  0  0  0  0  0  0  0  0  0
  129.7380  122.9600   61.2680 C   0  0  0  0  0  0  0  0  0  0  0  0
  128.3970  122.7590   60.5460 C   0  0  0  0  0  0  0  0  0  0  0  0
  127.3980  122.3900   61.1660 O   0  0  0  0  0  0  0  0  0  0  0  0
  128.4200  123.0450   59.2260 N   0  0  0  0  0  0  0  0  0  0  0  0
  127.3770  122.9570   58.2860 C   0  0  0  0  0  0  0  0  0  0  0  0
  126.1470  123.5220   58.6400 C   0  0  0  0  0  0  0  0  0  0  0  0
  125.0760  123.4790   57.7450 C   0  0  0  0  0  0  0  0  0  0  0  0
  125.2700  122.8700   56.5040 C   0  0  0  0  0  0  0  0  0  0  0  0
  126.4540  122.3240   56.1290 N   0  0  0  0  0  0  0  0  0  0  0  0
  127.4860  122.3730   57.0110 C   0  0  0  0  0  0  0  0  0  0  0  0
  132.0120  123.7090   63.9990 C   0  0  0  0  0  0  0  0  0  0  0  0
  132.9270  123.0190   63.0850 C   0  0  0  0  0  0  0  0  0  0  0  0
  133.6520  122.4750   62.3650 N   0  0  0  0  0  0  0  0  0  0  0  0
  1  2  1  0
  2  3  2  0
  3  4  1  0
  4  5  1  0
  5  6  2  0
  6  7  1  0
  7  8  2  0
  8  9  1  0
  9 10  2  0
  4 11  2  0
 11 12  1  0
 12 13  1  0
 13 14  1  0
 14 15  1  0
 15 16  2  0
 15 17  1  0
 17 18  1  0
 18 19  2  0
 19 20  1  0
 20 21  2  0
 21 22  1  0
 22 23  2  0
 12 24  2  0
 24 25  1  0
 25 26  3  0
 24  2  1  0
 10  5  1  0
 23 18  1  0
M  END
>  <Binding energies>  (20) 
[-8.53]

>  <Ligand effiencies>  (20) 
[-0.3159259259259259]

>  <Interactions>  (20) 
["V-B:GLU:543:C:9874, V-B:GLU:543:CB:9878, V-B:HIS:456:CE1:9040, V-B:GLU:543:CD:9880, V-A:ARG:545:CZ:4926, V-B:TYR:539:CZ:9849, V-A:ARG:545:CD:4923, V-A:HIS:456:CE1:4069, V-B:TYR:539:CE1:9847, V-B:GLU:543:CG:9879, V-A:LEU:475:CD1:4258, V-A:GLY:454:CA:4049, V-B:PRO:540:N:9856, H-A:GLY:454:N:4050, V-B:TYR:539:CD2:9846, V-B:PRO:540:CA:9855, V-B:TYR:539:C:9839, V-B:TYR:539:CE2:9848, H-B:ALA:541:N:9863, V-B:PRO:540:CD:9859, V-B:PRO:540:CB:9857, V-B:LEU:363:CD1:8160, V-B:ILE:538:CB:9834, V-B:TYR:539:CG:9844, V-B:TYR:539:CD1:9845, V-B:ILE:538:CG2:9835, V-B:TYR:539:CA:9841, V-A:GLY:453:C:4042, V-A:GLY:453:CA:4044, H-B:TYR:539:N:9842"]

$$$$
3bg_Grossjean_2025
     RDKit          3D

 27 29  0  0  0  0  0  0  0  0999 V2000
  124.1960  124.2440   59.5890 C   0  0  0  0  0  0  0  0  0  0  0  0
  125.5270  123.6650   59.1130 C   0  0  0  0  0  0  0  0  0  0  0  0
  126.4320  123.2080   60.0760 C   0  0  0  0  0  0  0  0  0  0  0  0
  127.6610  122.6620   59.6820 C   0  0  0  0  0  0  0  0  0  0  0  0
  128.6730  122.1430   60.6650 C   0  0  0  0  0  0  0  0  0  0  0  0
  128.8980  122.7980   61.8880 C   0  0  0  0  0  0  0  0  0  0  0  0
  129.8210  122.3100   62.8080 C   0  0  0  0  0  0  0  0  0  0  0  0
  130.5400  121.1560   62.5190 C   0  0  0  0  0  0  0  0  0  0  0  0
  130.3480  120.4930   61.3130 C   0  0  0  0  0  0  0  0  0  0  0  0
  129.4250  120.9850   60.3940 C   0  0  0  0  0  0  0  0  0  0  0  0
  127.9770  122.5540   58.3640 N   0  0  0  0  0  0  0  0  0  0  0  0
  127.1090  122.9890   57.4160 C   0  0  0  0  0  0  0  0  0  0  0  0
  127.6310  122.7580   55.7230 S   0  0  0  0  0  0  0  0  0  0  0  0
  128.2440  124.3540   55.0920 C   0  0  0  0  0  0  0  0  0  0  0  0
  128.6840  125.2850   56.2260 C   0  0  0  0  0  0  0  0  0  0  0  0
  128.0670  126.3290   56.4380 O   0  0  0  0  0  0  0  0  0  0  0  0
  129.7660  124.9040   56.9270 N   0  0  0  0  0  0  0  0  0  0  0  0
  130.4640  125.7180   57.9230 C   0  0  0  0  0  0  0  0  0  0  0  0
  131.4950  124.9060   58.6960 C   0  0  0  0  0  0  0  0  0  0  0  0
  131.1910  124.4200   59.9720 C   0  0  0  0  0  0  0  0  0  0  0  0
  132.1360  123.6870   60.6830 C   0  0  0  0  0  0  0  0  0  0  0  0
  133.3810  123.4290   60.1110 C   0  0  0  0  0  0  0  0  0  0  0  0
  133.6840  123.8910   58.8320 C   0  0  0  0  0  0  0  0  0  0  0  0
  132.7380  124.6250   58.1220 C   0  0  0  0  0  0  0  0  0  0  0  0
  125.8640  123.5640   57.7460 C   0  0  0  0  0  0  0  0  0  0  0  0
  124.9330  124.0270   56.7140 C   0  0  0  0  0  0  0  0  0  0  0  0
  124.1970  124.3930   55.9000 N   0  0  0  0  0  0  0  0  0  0  0  0
  1  2  1  0
  2  3  2  0
  3  4  1  0
  4  5  1  0
  5  6  2  0
  6  7  1  0
  7  8  2  0
  8  9  1  0
  9 10  2  0
  4 11  2  0
 11 12  1  0
 12 13  1  0
 13 14  1  0
 14 15  1  0
 15 16  2  0
 15 17  1  0
 17 18  1  0
 18 19  1  0
 19 20  2  0
 20 21  1  0
 21 22  2  0
 22 23  1  0
 23 24  2  0
 12 25  2  0
 25 26  1  0
 26 27  3  0
 25  2  1  0
 10  5  1  0
 24 19  1  0
M  END
>  <Binding energies>  (21) 
[-7.49]

>  <Ligand effiencies>  (21) 
[-0.2675]

>  <Interactions>  (21) 
["V-A:ASP:366:CG:3213, V-A:ASP:366:CB:3212, V-B:TYR:539:CZ:9849, V-B:ALA:541:CB:9864, V-B:TYR:539:CE1:9847, V-A:LEU:475:CD1:4258, V-B:PRO:540:N:9856, V-B:TYR:539:CD2:9846, V-B:PRO:540:CA:9855, V-B:TYR:539:C:9839, V-B:TYR:539:CE2:9848, V-B:PRO:540:C:9853, V-A:ILE:369:CG2:3237, V-B:PRO:540:CB:9857, V-B:LEU:363:CD1:8160, H-B:TYR:539:N:9842, H-B:TYR:539:OH:9850, V-A:ILE:369:CB:3236, V-A:ASP:366:CA:3210"]

$$$$
3ca_Grossjean_2025
     RDKit          3D

 31 33  0  0  0  0  0  0  0  0999 V2000
  127.9090  122.5950   58.4490 C   0  0  0  0  0  0  0  0  0  0  0  0
  126.5080  123.1700   58.2150 C   0  0  0  0  0  0  0  0  0  0  0  0
  126.2030  123.1210   56.8260 O   0  0  0  0  0  0  0  0  0  0  0  0
  127.1870  123.0870   55.8920 C   0  0  0  0  0  0  0  0  0  0  0  0
  127.6300  122.0410   55.4080 O   0  0  0  0  0  0  0  0  0  0  0  0
  127.6810  124.4510   55.5010 C   0  0  0  0  0  0  0  0  0  0  0  0
  128.9890  124.5920   55.0210 C   0  0  0  0  0  0  0  0  0  0  0  0
  129.4760  125.8430   54.6500 C   0  0  0  0  0  0  0  0  0  0  0  0
  128.6700  126.9770   54.7580 C   0  0  0  0  0  0  0  0  0  0  0  0
  129.2600  128.1900   54.3550 N   0  0  0  0  0  0  0  0  0  0  0  0
  128.6780  129.3640   54.0270 C   0  0  0  0  0  0  0  0  0  0  0  0
  127.4680  129.5890   54.0440 O   0  0  0  0  0  0  0  0  0  0  0  0
  129.6450  130.4840   53.6280 C   0  0  0  0  0  0  0  0  0  0  0  0
  129.3240  132.0530   54.5000 S   0  0  0  0  0  0  0  0  0  0  0  0
  129.2520  131.7650   56.2630 C   0  0  0  0  0  0  0  0  0  0  0  0
  128.0080  131.6190   56.7840 N   0  0  0  0  0  0  0  0  0  0  0  0
  127.8790  131.3780   58.1070 C   0  0  0  0  0  0  0  0  0  0  0  0
  126.4590  131.2080   58.6100 C   0  0  0  0  0  0  0  0  0  0  0  0
  128.9740  131.2890   58.9630 C   0  0  0  0  0  0  0  0  0  0  0  0
  130.2680  131.4540   58.4520 C   0  0  0  0  0  0  0  0  0  0  0  0
  131.4110  131.3640   59.4100 C   0  0  0  0  0  0  0  0  0  0  0  0
  131.2110  131.6300   60.7700 C   0  0  0  0  0  0  0  0  0  0  0  0
  132.2720  131.5570   61.6690 C   0  0  0  0  0  0  0  0  0  0  0  0
  133.5430  131.2220   61.2080 C   0  0  0  0  0  0  0  0  0  0  0  0
  133.7600  130.9610   59.8570 C   0  0  0  0  0  0  0  0  0  0  0  0
  132.6960  131.0360   58.9620 C   0  0  0  0  0  0  0  0  0  0  0  0
  130.4180  131.6910   57.0620 C   0  0  0  0  0  0  0  0  0  0  0  0
  131.7500  131.8210   56.4620 C   0  0  0  0  0  0  0  0  0  0  0  0
  132.8020  131.9240   55.9890 N   0  0  0  0  0  0  0  0  0  0  0  0
  127.3550  126.8430   55.2300 C   0  0  0  0  0  0  0  0  0  0  0  0
  126.8690  125.5910   55.5990 C   0  0  0  0  0  0  0  0  0  0  0  0
  1  2  1  0
  2  3  1  0
  3  4  1  0
  4  5  2  0
  4  6  1  0
  6  7  2  0
  7  8  1  0
  8  9  2  0
  9 10  1  0
 10 11  1  0
 11 12  2  0
 11 13  1  0
 13 14  1  0
 14 15  1  0
 15 16  2  0
 16 17  1  0
 17 18  1  0
 17 19  2  0
 19 20  1  0
 20 21  1  0
 21 22  2  0
 22 23  1  0
 23 24  2  0
 24 25  1  0
 25 26  2  0
 20 27  2  0
 27 28  1  0
 28 29  3  0
  9 30  1  0
 30 31  2  0
 31  6  1  0
 27 15  1  0
 26 21  1  0
M  END
>  <Binding energies>  (22) 
[-8.52]

>  <Ligand effiencies>  (22) 
[-0.26625]

>  <Interactions>  (22) 
["V-A:PRO:540:CB:4885, V-A:ASN:362:CB:3176, V-A:LEU:363:CA:3185, V-A:ASN:362:C:3172, V-A:ASP:366:CG:3213, V-A:PRO:540:CA:4883, V-A:GLU:543:CD:4908, V-A:TYR:539:CD1:4873, V-A:TYR:539:CE2:4876, V-A:TYR:539:CE1:4875, V-A:PRO:540:C:4881, V-A:TYR:539:CZ:4877, V-A:PRO:540:N:4884, V-B:TYR:539:CZ:9849, V-A:MET:535:CE:4835, V-B:TYR:539:CE1:9847, V-B:PRO:540:N:9856, V-B:TYR:539:CD2:9846, V-B:PRO:540:CA:9855, V-B:TYR:539:C:9839, V-B:TYR:539:CE2:9848, V-A:PRO:540:CD:4887, V-B:PRO:540:CB:9857, V-B:TYR:531:CZ:9766, H-B:TYR:539:N:9842, H-A:TYR:531:OH:4795, H-B:TYR:531:OH:9767, H-A:TYR:539:OH:4878, V-A:MET:535:CG:4833"]

$$$$
3ce_Grossjean_2025
     RDKit          3D

 27 29  0  0  0  0  0  0  0  0999 V2000
  127.3340  120.0210   76.9180 C   0  0  0  0  0  0  0  0  0  0  0  0
  128.4930  119.7070   75.9920 C   0  0  0  0  0  0  0  0  0  0  0  0
  128.8690  118.3910   75.7100 C   0  0  0  0  0  0  0  0  0  0  0  0
  129.9390  118.1770   74.8410 C   0  0  0  0  0  0  0  0  0  0  0  0
  130.6020  119.2710   74.2800 C   0  0  0  0  0  0  0  0  0  0  0  0
  130.1810  120.5640   74.6130 C   0  0  0  0  0  0  0  0  0  0  0  0
  130.8720  121.6250   74.0040 N   0  0  0  0  0  0  0  0  0  0  0  0
  130.5760  122.2620   72.8500 C   0  0  0  0  0  0  0  0  0  0  0  0
  129.6120  122.0030   72.1270 O   0  0  0  0  0  0  0  0  0  0  0  0
  131.5290  123.3880   72.4500 C   0  0  0  0  0  0  0  0  0  0  0  0
  131.3160  124.8600   73.4940 S   0  0  0  0  0  0  0  0  0  0  0  0
  129.8520  125.6710   72.8930 C   0  0  0  0  0  0  0  0  0  0  0  0
  129.7540  125.6990   71.5410 N   0  0  0  0  0  0  0  0  0  0  0  0
  128.6660  126.2800   70.9840 C   0  0  0  0  0  0  0  0  0  0  0  0
  128.6130  126.2640   69.4680 C   0  0  0  0  0  0  0  0  0  0  0  0
  127.6540  126.8600   71.7440 C   0  0  0  0  0  0  0  0  0  0  0  0
  127.7510  126.8650   73.1420 C   0  0  0  0  0  0  0  0  0  0  0  0
  126.6530  127.5220   73.9120 C   0  0  0  0  0  0  0  0  0  0  0  0
  126.9290  128.6290   74.7240 C   0  0  0  0  0  0  0  0  0  0  0  0
  125.9120  129.2440   75.4500 C   0  0  0  0  0  0  0  0  0  0  0  0
  124.6140  128.7480   75.3740 C   0  0  0  0  0  0  0  0  0  0  0  0
  124.3240  127.6420   74.5790 C   0  0  0  0  0  0  0  0  0  0  0  0
  125.3430  127.0300   73.8530 C   0  0  0  0  0  0  0  0  0  0  0  0
  128.8790  126.2500   73.7410 C   0  0  0  0  0  0  0  0  0  0  0  0
  129.0270  126.2110   75.2000 C   0  0  0  0  0  0  0  0  0  0  0  0
  129.1430  126.1800   76.3500 N   0  0  0  0  0  0  0  0  0  0  0  0
  129.1290  120.7800   75.4570 N   0  0  0  0  0  0  0  0  0  0  0  0
  1  2  1  0
  2  3  2  0
  3  4  1  0
  4  5  2  0
  5  6  1  0
  6  7  1  0
  7  8  1  0
  8  9  2  0
  8 10  1  0
 10 11  1  0
 11 12  1  0
 12 13  2  0
 13 14  1  0
 14 15  1  0
 14 16  2  0
 16 17  1  0
 17 18  1  0
 18 19  2  0
 19 20  1  0
 20 21  2  0
 21 22  1  0
 22 23  2  0
 17 24  2  0
 24 25  1  0
 25 26  3  0
  6 27  2  0
 27  2  1  0
 24 12  1  0
 23 18  1  0
M  END
>  <Binding energies>  (23) 
[-7.75]

>  <Ligand effiencies>  (23) 
[-0.2767857142857143]

>  <Interactions>  (23) 
["V-B:GLY:544:C:9884, V-B:HIS:456:CE1:9040, V-A:HIS:456:CG:4066, H-A:HIS:456:NE2:4070, V-A:HIS:456:CD2:4068, V-A:HIS:456:CB:4065, V-A:ASP:473:CB:4239, V-A:ASP:473:CG:4240, H-B:LYS:547:NZ:9923, V-B:HIS:456:CD2:9039, V-B:HIS:456:CG:9037, V-B:VAL:457:C:9044, V-B:VAL:458:CG2:9058, V-B:HIS:456:CB:9036, V-B:HIS:456:C:9032, V-B:LYS:471:CE:9191, V-B:HIS:456:CA:9034, V-A:TYR:484:CD2:4344, V-A:TYR:484:CG:4342, V-A:TYR:484:CB:4341, V-A:TYR:484:C:4337, V-A:ASP:485:CA:4353, V-A:TYR:484:CE2:4346, V-B:LYS:547:CD:9921, H-A:ASP:473:OD1:4241, V-B:LYS:547:CE:9922"]

$$$$
3cj_Grossjean_2025
     RDKit          3D

 25 27  0  0  0  0  0  0  0  0999 V2000
  127.9580  133.0530   61.0050 C   0  0  0  0  0  0  0  0  0  0  0  0
  127.8870  132.3850   59.6450 C   0  0  0  0  0  0  0  0  0  0  0  0
  128.9060  132.5350   58.7060 C   0  0  0  0  0  0  0  0  0  0  0  0
  128.8090  131.8810   57.4700 C   0  0  0  0  0  0  0  0  0  0  0  0
  129.9530  132.0170   56.5210 C   0  0  0  0  0  0  0  0  0  0  0  0
  129.7440  132.4860   55.2190 C   0  0  0  0  0  0  0  0  0  0  0  0
  130.8100  132.6010   54.3300 C   0  0  0  0  0  0  0  0  0  0  0  0
  132.0900  132.2390   54.7400 C   0  0  0  0  0  0  0  0  0  0  0  0
  132.3120  131.7610   56.0290 C   0  0  0  0  0  0  0  0  0  0  0  0
  131.2440  131.6480   56.9160 C   0  0  0  0  0  0  0  0  0  0  0  0
  127.6510  131.1090   57.2040 C   0  0  0  0  0  0  0  0  0  0  0  0
  127.4790  130.4240   55.9190 C   0  0  0  0  0  0  0  0  0  0  0  0
  127.3450  129.8830   54.9040 N   0  0  0  0  0  0  0  0  0  0  0  0
  126.6700  131.0090   58.2160 C   0  0  0  0  0  0  0  0  0  0  0  0
  125.2350  129.9660   58.0640 S   0  0  0  0  0  0  0  0  0  0  0  0
  125.7470  128.3630   58.7590 C   0  0  0  0  0  0  0  0  0  0  0  0
  125.9640  127.3100   57.6670 C   0  0  0  0  0  0  0  0  0  0  0  0
  126.8310  127.4940   56.8100 O   0  0  0  0  0  0  0  0  0  0  0  0
  125.1830  126.2120   57.7580 N   0  0  0  0  0  0  0  0  0  0  0  0
  125.2720  125.0670   56.9840 C   0  0  0  0  0  0  0  0  0  0  0  0
  125.4090  124.9830   55.6780 N   0  0  0  0  0  0  0  0  0  0  0  0
  125.4910  123.7290   55.2810 C   0  0  0  0  0  0  0  0  0  0  0  0
  125.4180  122.7600   56.2780 C   0  0  0  0  0  0  0  0  0  0  0  0
  125.2310  123.5460   57.8170 S   0  0  0  0  0  0  0  0  0  0  0  0
  126.7920  131.6270   59.4170 N   0  0  0  0  0  0  0  0  0  0  0  0
  1  2  1  0
  2  3  2  0
  3  4  1  0
  4  5  1  0
  5  6  2  0
  6  7  1  0
  7  8  2  0
  8  9  1  0
  9 10  2  0
  4 11  2  0
 11 12  1  0
 12 13  3  0
 11 14  1  0
 14 15  1  0
 15 16  1  0
 16 17  1  0
 17 18  2  0
 17 19  1  0
 19 20  1  0
 20 21  2  0
 21 22  1  0
 22 23  2  0
 23 24  1  0
 14 25  2  0
 25  2  1  0
 10  5  1  0
 24 20  1  0
M  END
>  <Binding energies>  (24) 
[-7.51]

>  <Ligand effiencies>  (24) 
[-0.28884615384615386]

>  <Interactions>  (24) 
["V-A:ALA:541:CB:4892, V-A:PRO:540:CA:4883, V-A:TYR:539:CD1:4873, V-A:TYR:539:CD2:4874, V-A:TYR:539:CE2:4876, V-A:ILE:538:CD1:4865, V-A:TYR:539:CE1:4875, V-A:TYR:539:C:4867, V-A:TYR:539:CZ:4877, V-A:TYR:531:CE2:4793, V-A:PRO:540:N:4884, H-B:ASP:366:OD1:8185, V-B:ASP:366:CG:8184, V-B:PRO:540:N:9856, V-B:PRO:540:CA:9855, V-A:ILE:538:CA:4860, V-A:ILE:538:CG2:4863, V-A:LEU:363:CD1:3189, V-B:PRO:540:CD:9859, V-B:PRO:540:CB:9857, V-B:LEU:363:CD1:8160, V-B:ILE:538:CB:9834, V-B:ILE:538:CG2:9835, H-B:TYR:531:OH:9767, V-B:ASP:366:CB:8183, H-A:TYR:539:OH:4878"]

$$$$
4ba_Grossjean_2025
     RDKit          3D

 28 30  0  0  0  0  0  0  0  0999 V2000
  128.0460  127.8520   67.6090 C   0  0  0  0  0  0  0  0  0  0  0  0
  126.6230  127.5860   67.0840 C   0  0  0  0  0  0  0  0  0  0  0  0
  125.9470  128.7870   66.3890 C   0  0  0  0  0  0  0  0  0  0  0  0
  124.9410  129.2920   66.8930 O   0  0  0  0  0  0  0  0  0  0  0  0
  126.5610  129.2920   65.1160 C   0  0  0  0  0  0  0  0  0  0  0  0
  127.7540  128.7210   64.6540 C   0  0  0  0  0  0  0  0  0  0  0  0
  128.3460  129.1720   63.4780 C   0  0  0  0  0  0  0  0  0  0  0  0
  127.7570  130.1980   62.7370 C   0  0  0  0  0  0  0  0  0  0  0  0
  128.4440  130.5810   61.5690 N   0  0  0  0  0  0  0  0  0  0  0  0
  129.4570  131.4670   61.4040 C   0  0  0  0  0  0  0  0  0  0  0  0
  129.9340  132.1480   62.3120 O   0  0  0  0  0  0  0  0  0  0  0  0
  129.9580  131.5950   60.0340 C   0  0  0  0  0  0  0  0  0  0  0  0
  129.1200  132.6280   58.8770 S   0  0  0  0  0  0  0  0  0  0  0  0
  130.2420  132.1960   57.6090 C   0  0  0  0  0  0  0  0  0  0  0  0
  130.1260  132.6960   56.3790 N   0  0  0  0  0  0  0  0  0  0  0  0
  131.0520  132.2880   55.4820 C   0  0  0  0  0  0  0  0  0  0  0  0
  130.8960  132.8630   54.0860 C   0  0  0  0  0  0  0  0  0  0  0  0
  132.0850  131.4040   55.7830 C   0  0  0  0  0  0  0  0  0  0  0  0
  132.2130  130.8740   57.0770 C   0  0  0  0  0  0  0  0  0  0  0  0
  133.3670  129.9070   57.3610 C   0  0  0  0  0  0  0  0  0  0  0  0
  134.1430  129.6930   56.2970 F   0  0  0  0  0  0  0  0  0  0  0  0
  134.1420  130.3980   58.3280 F   0  0  0  0  0  0  0  0  0  0  0  0
  132.8810  128.7260   57.7450 F   0  0  0  0  0  0  0  0  0  0  0  0
  131.2470  131.2800   58.0460 C   0  0  0  0  0  0  0  0  0  0  0  0
  131.0520  130.9480   59.4370 C   0  0  0  0  0  0  0  0  0  0  0  0
  131.8690  130.0760   60.1110 N   0  0  0  0  0  0  0  0  0  0  0  0
  126.5660  130.7790   63.1960 C   0  0  0  0  0  0  0  0  0  0  0  0
  125.9750  130.3280   64.3740 C   0  0  0  0  0  0  0  0  0  0  0  0
  1  2  1  0
  2  3  1  0
  3  4  2  0
  3  5  1  0
  5  6  2  0
  6  7  1  0
  7  8  2  0
  8  9  1  0
  9 10  1  0
 10 11  2  0
 10 12  1  0
 12 13  1  0
 13 14  1  0
 14 15  2  0
 15 16  1  0
 16 17  1  0
 16 18  2  0
 18 19  1  0
 19 20  1  0
 20 21  1  0
 20 22  1  0
 20 23  1  0
 19 24  2  0
 24 25  1  0
 25 26  1  0
  8 27  1  0
 27 28  2  0
 28  5  1  0
 25 12  2  0
 24 14  1  0
M  END
>  <Binding energies>  (25) 
[-7.69]

>  <Ligand effiencies>  (25) 
[-0.24806451612903227]

>  <Interactions>  (25) 
["V-A:PRO:540:CB:4885, V-B:GLU:543:CB:9878, V-A:LEU:363:CA:3185, V-B:HIS:456:CE1:9040, V-A:ASN:362:C:3172, H-A:GLU:543:OE1:4909, V-A:ASP:366:CG:3213, V-A:PRO:540:CA:4883, V-A:LEU:363:CB:3187, V-B:ARG:545:CG:9894, V-A:GLU:543:CD:4908, V-A:TYR:539:CD2:4874, V-A:ILE:538:CD1:4865, V-A:TYR:539:C:4867, V-A:ASP:366:CB:3212, V-A:TYR:531:CE2:4793, V-A:PRO:540:N:4884, V-A:TYR:531:CZ:4794, V-A:ILE:538:CA:4860, H-A:TYR:539:N:4870, V-A:LEU:363:CD1:3189, H-B:TYR:484:OH:9319, H-B:ARG:545:NE:9896, V-A:ILE:538:C:4858, H-A:ALA:541:N:4891, H-A:ASP:366:OD1:3214, V-A:ILE:538:CB:4862, V-A:VAL:537:C:4850, V-A:TYR:531:CD2:4791"]

$$$$
4bb_Grossjean_2025
     RDKit          3D

 27 29  0  0  0  0  0  0  0  0999 V2000
  125.1780  128.7890   66.8230 C   0  0  0  0  0  0  0  0  0  0  0  0
  124.6230  129.8620   65.8840 C   0  0  0  0  0  0  0  0  0  0  0  0
  123.5240  130.3530   66.1500 O   0  0  0  0  0  0  0  0  0  0  0  0
  125.4380  130.2510   64.6880 C   0  0  0  0  0  0  0  0  0  0  0  0
  126.4930  129.4260   64.2780 C   0  0  0  0  0  0  0  0  0  0  0  0
  127.2660  129.7640   63.1710 C   0  0  0  0  0  0  0  0  0  0  0  0
  126.9950  130.9270   62.4480 C   0  0  0  0  0  0  0  0  0  0  0  0
  127.8400  131.1750   61.3480 N   0  0  0  0  0  0  0  0  0  0  0  0
  129.0380  131.8070   61.2950 C   0  0  0  0  0  0  0  0  0  0  0  0
  129.5930  132.3200   62.2660 O   0  0  0  0  0  0  0  0  0  0  0  0
  129.6480  131.8770   59.9640 C   0  0  0  0  0  0  0  0  0  0  0  0
  128.8910  132.8300   58.6900 S   0  0  0  0  0  0  0  0  0  0  0  0
  130.1270  132.3670   57.5440 C   0  0  0  0  0  0  0  0  0  0  0  0
  130.1120  132.8090   56.2880 N   0  0  0  0  0  0  0  0  0  0  0  0
  131.1210  132.3810   55.4950 C   0  0  0  0  0  0  0  0  0  0  0  0
  131.0850  132.8980   54.0680 C   0  0  0  0  0  0  0  0  0  0  0  0
  132.1340  131.5290   55.9230 C   0  0  0  0  0  0  0  0  0  0  0  0
  132.1560  131.0600   57.2460 C   0  0  0  0  0  0  0  0  0  0  0  0
  133.2920  130.1230   57.6710 C   0  0  0  0  0  0  0  0  0  0  0  0
  134.1790  129.9020   56.6980 F   0  0  0  0  0  0  0  0  0  0  0  0
  133.9530  130.6560   58.7000 F   0  0  0  0  0  0  0  0  0  0  0  0
  132.7930  128.9420   58.0330 F   0  0  0  0  0  0  0  0  0  0  0  0
  131.1060  131.4920   58.1100 C   0  0  0  0  0  0  0  0  0  0  0  0
  130.8010  131.2270   59.4940 C   0  0  0  0  0  0  0  0  0  0  0  0
  131.5780  130.4150   60.2800 N   0  0  0  0  0  0  0  0  0  0  0  0
  125.9440  131.7620   62.8570 C   0  0  0  0  0  0  0  0  0  0  0  0
  125.1730  131.4230   63.9660 C   0  0  0  0  0  0  0  0  0  0  0  0
  1  2  1  0
  2  3  2  0
  2  4  1  0
  4  5  2  0
  5  6  1  0
  6  7  2  0
  7  8  1  0
  8  9  1  0
  9 10  2  0
  9 11  1  0
 11 12  1  0
 12 13  1  0
 13 14  2  0
 14 15  1  0
 15 16  1  0
 15 17  2  0
 17 18  1  0
 18 19  1  0
 19 20  1  0
 19 21  1  0
 19 22  1  0
 18 23  2  0
 23 24  1  0
 24 25  1  0
  7 26  1  0
 26 27  2  0
 27  4  1  0
 24 11  2  0
 23 13  1  0
M  END
>  <Binding energies>  (26) 
[-7.93]

>  <Ligand effiencies>  (26) 
[-0.2643333333333333]

>  <Interactions>  (26) 
["V-B:ARG:545:CD:9895, V-A:PRO:540:CB:4885, V-A:LEU:363:CA:3185, V-B:HIS:456:CE1:9040, V-A:ASN:362:C:3172, H-A:GLU:543:OE1:4909, V-B:LEU:475:CD1:9229, V-A:ASP:366:CG:3213, V-A:PRO:540:CA:4883, V-A:LEU:363:CB:3187, V-B:ARG:545:CG:9894, V-A:TYR:539:CD2:4874, V-A:TYR:539:CE2:4876, V-A:ILE:538:CD1:4865, V-A:TYR:539:CG:4872, V-A:TYR:539:C:4867, V-A:ASP:366:CB:3212, V-A:TYR:531:CE2:4793, V-A:PRO:540:N:4884, V-A:TYR:531:CZ:4794, V-B:ARG:545:CZ:9898, V-B:GLY:454:CA:9020, V-A:ILE:538:CA:4860, H-A:TYR:539:N:4870, V-A:ILE:538:CG2:4863, V-A:LEU:363:CD1:3189, H-B:GLY:454:N:9021, H-B:TYR:484:OH:9319, H-B:ILE:455:N:9026, V-B:TYR:484:CZ:9318, V-A:ILE:538:C:4858, H-A:ALA:541:N:4891, H-A:ASP:366:OD1:3214, V-A:ILE:538:CB:4862, V-A:VAL:537:C:4850, V-A:ILE:538:CG1:4864, V-A:LEU:363:CG:3188"]

$$$$
4bd_Grossjean_2025
     RDKit          3D

 24 26  0  0  0  0  0  0  0  0999 V2000
  130.9300  132.8720   54.0250 C   0  0  0  0  0  0  0  0  0  0  0  0
  131.0890  132.3060   55.4250 C   0  0  0  0  0  0  0  0  0  0  0  0
  132.1180  131.4200   55.7280 C   0  0  0  0  0  0  0  0  0  0  0  0
  132.2520  130.9020   57.0260 C   0  0  0  0  0  0  0  0  0  0  0  0
  133.3990  129.9260   57.3110 C   0  0  0  0  0  0  0  0  0  0  0  0
  134.1580  129.6850   56.2400 F   0  0  0  0  0  0  0  0  0  0  0  0
  134.1930  130.4260   58.2580 F   0  0  0  0  0  0  0  0  0  0  0  0
  132.9060  128.7580   57.7210 F   0  0  0  0  0  0  0  0  0  0  0  0
  131.2990  131.3260   57.9990 C   0  0  0  0  0  0  0  0  0  0  0  0
  131.1200  131.0180   59.3970 C   0  0  0  0  0  0  0  0  0  0  0  0
  131.9520  130.1700   60.0800 N   0  0  0  0  0  0  0  0  0  0  0  0
  130.0220  131.6630   59.9910 C   0  0  0  0  0  0  0  0  0  0  0  0
  129.5440  131.5660   61.3740 C   0  0  0  0  0  0  0  0  0  0  0  0
  130.1430  132.1340   62.2870 O   0  0  0  0  0  0  0  0  0  0  0  0
  128.4170  130.8320   61.5490 N   0  0  0  0  0  0  0  0  0  0  0  0
  127.7320  130.5120   62.7360 C   0  0  0  0  0  0  0  0  0  0  0  0
  126.4130  130.0770   62.5840 C   0  0  0  0  0  0  0  0  0  0  0  0
  125.6550  129.7280   63.6980 C   0  0  0  0  0  0  0  0  0  0  0  0
  126.2200  129.8050   64.9680 C   0  0  0  0  0  0  0  0  0  0  0  0
  127.5380  130.2230   65.1320 C   0  0  0  0  0  0  0  0  0  0  0  0
  128.2990  130.5740   64.0200 C   0  0  0  0  0  0  0  0  0  0  0  0
  129.1760  132.6820   58.8290 S   0  0  0  0  0  0  0  0  0  0  0  0
  130.2920  132.2380   57.5580 C   0  0  0  0  0  0  0  0  0  0  0  0
  130.1700  132.7260   56.3250 N   0  0  0  0  0  0  0  0  0  0  0  0
  1  2  1  0
  2  3  2  0
  3  4  1  0
  4  5  1  0
  5  6  1  0
  5  7  1  0
  5  8  1  0
  4  9  2  0
  9 10  1  0
 10 11  1  0
 10 12  2  0
 12 13  1  0
 13 14  2  0
 13 15  1  0
 15 16  1  0
 16 17  2  0
 17 18  1  0
 18 19  2  0
 19 20  1  0
 20 21  2  0
 12 22  1  0
 22 23  1  0
 23 24  2  0
 24  2  1  0
 23  9  1  0
 21 16  1  0
M  END
>  <Binding energies>  (27) 
[-6.74]

>  <Ligand effiencies>  (27) 
[-0.24962962962962965]

>  <Interactions>  (27) 
["V-A:PRO:540:CB:4885, V-A:LEU:363:CA:3185, V-A:ASN:362:C:3172, H-A:GLU:543:OE1:4909, V-A:ASP:366:CG:3213, V-A:PRO:540:CA:4883, V-A:LEU:363:CB:3187, V-A:GLU:543:CD:4908, V-A:TYR:539:CD2:4874, V-A:ILE:538:CD1:4865, V-A:TYR:539:C:4867, V-A:ASP:366:CB:3212, V-A:TYR:531:CE2:4793, V-A:PRO:540:N:4884, V-A:TYR:531:CZ:4794, V-A:ILE:538:CA:4860, H-A:TYR:539:N:4870, V-A:LEU:363:CD1:3189, V-A:GLU:543:CB:4906, V-A:ILE:538:C:4858, H-A:ALA:541:N:4891, H-A:ASP:366:OD1:3214, V-A:ILE:538:CB:4862, V-A:VAL:537:C:4850, V-A:TYR:531:CD2:4791, V-A:LEU:363:C:3183"]

$$$$
4be_Grossjean_2025
     RDKit          3D

 25 27  0  0  0  0  0  0  0  0999 V2000
  127.9140  119.7830   72.7980 C   0  0  0  0  0  0  0  0  0  0  0  0
  128.9650  120.8730   72.7070 C   0  0  0  0  0  0  0  0  0  0  0  0
  130.0770  120.8880   73.5530 C   0  0  0  0  0  0  0  0  0  0  0  0
  131.0030  121.9230   73.4150 C   0  0  0  0  0  0  0  0  0  0  0  0
  130.7970  122.9080   72.4460 C   0  0  0  0  0  0  0  0  0  0  0  0
  129.6650  122.8290   71.6270 C   0  0  0  0  0  0  0  0  0  0  0  0
  129.5120  123.8550   70.6760 N   0  0  0  0  0  0  0  0  0  0  0  0
  129.5740  125.1980   70.8550 C   0  0  0  0  0  0  0  0  0  0  0  0
  129.7920  125.7360   71.9420 O   0  0  0  0  0  0  0  0  0  0  0  0
  129.3390  126.0040   69.6530 C   0  0  0  0  0  0  0  0  0  0  0  0
  128.7690  127.6650   69.8000 S   0  0  0  0  0  0  0  0  0  0  0  0
  128.7260  127.8510   68.0620 C   0  0  0  0  0  0  0  0  0  0  0  0
  128.3450  128.9950   67.4950 N   0  0  0  0  0  0  0  0  0  0  0  0
  128.3550  129.0190   66.1420 C   0  0  0  0  0  0  0  0  0  0  0  0
  127.9150  130.3290   65.5150 C   0  0  0  0  0  0  0  0  0  0  0  0
  128.7350  127.9380   65.3520 C   0  0  0  0  0  0  0  0  0  0  0  0
  129.1390  126.7310   65.9430 C   0  0  0  0  0  0  0  0  0  0  0  0
  129.5520  125.5700   65.0320 C   0  0  0  0  0  0  0  0  0  0  0  0
  129.4140  125.8510   63.7340 F   0  0  0  0  0  0  0  0  0  0  0  0
  130.8340  125.2680   65.2390 F   0  0  0  0  0  0  0  0  0  0  0  0
  128.8000  124.5010   65.2920 F   0  0  0  0  0  0  0  0  0  0  0  0
  129.1360  126.6700   67.3690 C   0  0  0  0  0  0  0  0  0  0  0  0
  129.4700  125.6270   68.3080 C   0  0  0  0  0  0  0  0  0  0  0  0
  129.8850  124.3810   67.9140 N   0  0  0  0  0  0  0  0  0  0  0  0
  128.7530  121.8220   71.7600 N   0  0  0  0  0  0  0  0  0  0  0  0
  1  2  1  0
  2  3  2  0
  3  4  1  0
  4  5  2  0
  5  6  1  0
  6  7  1  0
  7  8  1  0
  8  9  2  0
  8 10  1  0
 10 11  1  0
 11 12  1  0
 12 13  2  0
 13 14  1  0
 14 15  1  0
 14 16  2  0
 16 17  1  0
 17 18  1  0
 18 19  1  0
 18 20  1  0
 18 21  1  0
 17 22  2  0
 22 23  1  0
 23 24  1  0
  6 25  2  0
 25  2  1  0
 23 10  2  0
 22 12  1  0
M  END
>  <Binding energies>  (28) 
[-7.04]

>  <Ligand effiencies>  (28) 
[-0.25142857142857145]

>  <Interactions>  (28) 
["V-B:GLU:543:C:9874, V-B:GLU:543:CB:9878, V-B:HIS:456:CE1:9040, V-B:GLU:543:CD:9880, V-A:GLU:543:CD:4908, V-A:GLU:543:CG:4907, H-A:TYR:484:OH:4348, V-A:HIS:456:CE1:4069, V-B:GLU:543:CG:9879, V-A:TYR:484:CE1:4345, V-A:TYR:484:CZ:4347, H-A:HIS:456:NE2:4070, V-A:HIS:456:CD2:4068, V-A:ASP:473:CB:4239, V-A:ASP:473:CG:4240, H-B:LYS:547:NZ:9923, H-B:HIS:456:NE2:9041, V-B:GLU:543:CA:9876, V-A:TYR:484:CD2:4344, V-A:GLU:543:CB:4906, V-A:TYR:484:CD1:4343, V-A:TYR:484:CG:4342, V-A:TYR:484:CB:4341, V-B:TYR:484:CZ:9318, V-A:TYR:484:CE2:4346, V-B:LYS:547:CE:9922, H-B:GLU:543:O:9875, H-A:HIS:456:ND1:4067"]

$$$$
4bg_Grossjean_2025
     RDKit          3D

 25 27  0  0  0  0  0  0  0  0999 V2000
  130.8400  132.4360   53.6250 C   0  0  0  0  0  0  0  0  0  0  0  0
  131.0120  132.0600   55.0860 C   0  0  0  0  0  0  0  0  0  0  0  0
  132.0500  131.2280   55.4960 C   0  0  0  0  0  0  0  0  0  0  0  0
  132.1930  130.8840   56.8500 C   0  0  0  0  0  0  0  0  0  0  0  0
  133.3510  129.9650   57.2530 C   0  0  0  0  0  0  0  0  0  0  0  0
  134.1090  130.4770   58.2250 F   0  0  0  0  0  0  0  0  0  0  0  0
  132.8700  128.8020   57.6940 F   0  0  0  0  0  0  0  0  0  0  0  0
  134.1410  129.7460   56.2030 F   0  0  0  0  0  0  0  0  0  0  0  0
  131.2390  131.4230   57.7640 C   0  0  0  0  0  0  0  0  0  0  0  0
  131.0640  131.2930   59.1900 C   0  0  0  0  0  0  0  0  0  0  0  0
  131.8880  130.5240   59.9720 N   0  0  0  0  0  0  0  0  0  0  0  0
  129.9840  132.0280   59.7020 C   0  0  0  0  0  0  0  0  0  0  0  0
  129.5040  132.1010   61.0820 C   0  0  0  0  0  0  0  0  0  0  0  0
  130.2270  131.7980   62.0320 O   0  0  0  0  0  0  0  0  0  0  0  0
  128.2430  132.5550   61.2450 N   0  0  0  0  0  0  0  0  0  0  0  0
  127.5510  132.6970   62.5260 C   0  0  0  0  0  0  0  0  0  0  0  0
  126.1620  132.0720   62.5410 C   0  0  0  0  0  0  0  0  0  0  0  0
  125.8530  131.0720   63.4680 C   0  0  0  0  0  0  0  0  0  0  0  0
  124.5720  130.5300   63.5050 C   0  0  0  0  0  0  0  0  0  0  0  0
  123.5980  130.9990   62.6260 C   0  0  0  0  0  0  0  0  0  0  0  0
  123.8940  132.0080   61.7120 C   0  0  0  0  0  0  0  0  0  0  0  0
  125.1760  132.5490   61.6730 C   0  0  0  0  0  0  0  0  0  0  0  0
  129.1220  132.8790   58.4230 S   0  0  0  0  0  0  0  0  0  0  0  0
  130.2280  132.2700   57.2140 C   0  0  0  0  0  0  0  0  0  0  0  0
  130.0950  132.5910   55.9270 N   0  0  0  0  0  0  0  0  0  0  0  0
  1  2  1  0
  2  3  2  0
  3  4  1  0
  4  5  1  0
  5  6  1  0
  5  7  1  0
  5  8  1  0
  4  9  2  0
  9 10  1  0
 10 11  1  0
 10 12  2  0
 12 13  1  0
 13 14  2  0
 13 15  1  0
 15 16  1  0
 16 17  1  0
 17 18  2  0
 18 19  1  0
 19 20  2  0
 20 21  1  0
 21 22  2  0
 12 23  1  0
 23 24  1  0
 24 25  2  0
 25  2  1  0
 24  9  1  0
 22 17  1  0
M  END
>  <Binding energies>  (29) 
[-6.94]

>  <Ligand effiencies>  (29) 
[-0.24785714285714286]

>  <Interactions>  (29) 
["V-A:PRO:540:CB:4885, V-A:ALA:541:CB:4892, V-A:LEU:363:CA:3185, V-A:ASN:362:C:3172, H-A:GLU:543:OE1:4909, V-B:LEU:475:CD1:9229, V-A:ASP:366:CG:3213, V-A:PRO:540:CA:4883, V-A:LEU:363:CB:3187, V-A:TYR:539:CD2:4874, V-A:TYR:539:CE2:4876, V-A:ILE:538:CD1:4865, V-A:TYR:539:CG:4872, V-A:TYR:539:C:4867, V-A:ASP:366:CB:3212, V-A:TYR:531:CE2:4793, V-A:PRO:540:N:4884, V-A:TYR:531:CZ:4794, V-B:ILE:369:CD1:8210, V-B:ARG:545:CZ:9898, V-B:GLY:454:CA:9020, V-A:ILE:538:CA:4860, H-A:TYR:539:N:4870, V-A:LEU:363:CD1:3189, H-A:ALA:541:N:4891, H-A:ASP:366:OD1:3214, H-A:TYR:539:O:4868, V-A:VAL:537:C:4850, V-A:TYR:531:CD2:4791, V-A:LEU:363:CG:3188"]

$$$$
4ca_Grossjean_2025
     RDKit          3D

 34 37  0  0  0  0  0  0  0  0999 V2000
  128.1440  123.8340   53.7600 C   0  0  0  0  0  0  0  0  0  0  0  0
  128.0380  123.6700   55.2790 C   0  0  0  0  0  0  0  0  0  0  0  0
  127.3760  122.4470   55.5780 O   0  0  0  0  0  0  0  0  0  0  0  0
  126.3960  122.3900   56.5160 C   0  0  0  0  0  0  0  0  0  0  0  0
  125.2430  122.0210   56.2730 O   0  0  0  0  0  0  0  0  0  0  0  0
  126.8550  122.8180   57.8790 C   0  0  0  0  0  0  0  0  0  0  0  0
  126.1270  123.7940   58.5720 C   0  0  0  0  0  0  0  0  0  0  0  0
  126.5250  124.2080   59.8400 C   0  0  0  0  0  0  0  0  0  0  0  0
  127.6620  123.6620   60.4380 C   0  0  0  0  0  0  0  0  0  0  0  0
  127.9680  124.1470   61.7250 N   0  0  0  0  0  0  0  0  0  0  0  0
  129.1640  124.4800   62.2700 C   0  0  0  0  0  0  0  0  0  0  0  0
  130.2340  124.4500   61.6610 O   0  0  0  0  0  0  0  0  0  0  0  0
  129.1150  124.9110   63.6690 C   0  0  0  0  0  0  0  0  0  0  0  0
  129.5720  123.7980   64.9560 S   0  0  0  0  0  0  0  0  0  0  0  0
  129.2970  125.0210   66.1730 C   0  0  0  0  0  0  0  0  0  0  0  0
  129.4900  124.7700   67.4650 N   0  0  0  0  0  0  0  0  0  0  0  0
  129.2640  125.7870   68.3370 C   0  0  0  0  0  0  0  0  0  0  0  0
  129.5010  125.4750   69.7860 C   0  0  0  0  0  0  0  0  0  0  0  0
  129.1570  126.3980   70.7860 C   0  0  0  0  0  0  0  0  0  0  0  0
  129.3790  126.1170   72.1320 C   0  0  0  0  0  0  0  0  0  0  0  0
  129.9520  124.9040   72.4980 C   0  0  0  0  0  0  0  0  0  0  0  0
  130.3060  123.9720   71.5280 C   0  0  0  0  0  0  0  0  0  0  0  0
  130.0820  124.2570   70.1840 C   0  0  0  0  0  0  0  0  0  0  0  0
  128.8230  127.0430   67.9080 C   0  0  0  0  0  0  0  0  0  0  0  0
  128.6120  127.3170   66.5480 C   0  0  0  0  0  0  0  0  0  0  0  0
  128.1310  128.7170   66.1480 C   0  0  0  0  0  0  0  0  0  0  0  0
  128.7560  129.1970   65.0710 F   0  0  0  0  0  0  0  0  0  0  0  0
  126.8280  128.6850   65.8710 F   0  0  0  0  0  0  0  0  0  0  0  0
  128.3480  129.5710   67.1470 F   0  0  0  0  0  0  0  0  0  0  0  0
  128.8630  126.2630   65.6240 C   0  0  0  0  0  0  0  0  0  0  0  0
  128.7700  126.1710   64.1870 C   0  0  0  0  0  0  0  0  0  0  0  0
  128.3760  127.2240   63.4010 N   0  0  0  0  0  0  0  0  0  0  0  0
  128.3950  122.6810   59.7550 C   0  0  0  0  0  0  0  0  0  0  0  0
  127.9940  122.2660   58.4870 C   0  0  0  0  0  0  0  0  0  0  0  0
  1  2  1  0
  2  3  1  0
  3  4  1  0
  4  5  2  0
  4  6  1  0
  6  7  2  0
  7  8  1  0
  8  9  2  0
  9 10  1  0
 10 11  1  0
 11 12  2  0
 11 13  1  0
 13 14  1  0
 14 15  1  0
 15 16  2  0
 16 17  1  0
 17 18  1  0
 18 19  2  0
 19 20  1  0
 20 21  2  0
 21 22  1  0
 22 23  2  0
 17 24  2  0
 24 25  1  0
 25 26  1  0
 26 27  1  0
 26 28  1  0
 26 29  1  0
 25 30  2  0
 30 31  1  0
 31 32  1  0
  9 33  1  0
 33 34  2  0
 34  6  1  0
 31 13  2  0
 30 15  1  0
 23 18  1  0
M  END
>  <Binding energies>  (30) 
[-8.4]

>  <Ligand effiencies>  (30) 
[-0.22702702702702704]

>  <Interactions>  (30) 
["V-B:GLU:543:CB:9878, V-B:HIS:456:CE1:9040, H-A:GLU:543:OE1:4909, V-B:GLU:543:CD:9880, V-A:GLU:543:CD:4908, V-A:GLU:543:CG:4907, H-B:GLU:543:OE1:9881, H-B:GLU:543:OE2:9882, V-B:TYR:539:CZ:9849, H-A:TYR:484:OH:4348, V-A:HIS:456:CE1:4069, V-B:TYR:539:CE1:9847, V-B:GLU:543:CG:9879, V-A:TYR:484:CE1:4345, V-B:PRO:540:N:9856, V-A:TYR:484:CZ:4347, V-B:TYR:539:CD2:9846, V-B:PRO:540:CA:9855, V-B:TYR:539:C:9839, V-B:TYR:539:CE2:9848, V-B:PRO:540:CD:9859, V-B:PRO:540:CB:9857, V-A:HIS:456:CG:4066, V-A:HIS:456:CD2:4068, V-B:GLU:543:CA:9876, V-A:GLU:543:CB:4906, V-A:TYR:484:CD1:4343, V-B:ILE:538:CB:9834, V-B:TYR:539:CG:9844, V-B:TYR:539:CA:9841, H-B:TYR:539:N:9842, V-B:TYR:484:CZ:9318, V-B:TYR:484:CE1:9316, V-A:TYR:484:CE2:4346"]

$$$$
4cb_Grossjean_2025
     RDKit          3D

 33 36  0  0  0  0  0  0  0  0999 V2000
  127.4960  123.2150   54.5640 C   0  0  0  0  0  0  0  0  0  0  0  0
  127.5290  122.3720   55.7070 O   0  0  0  0  0  0  0  0  0  0  0  0
  126.5170  122.3820   56.6120 C   0  0  0  0  0  0  0  0  0  0  0  0
  125.3500  122.0870   56.3320 O   0  0  0  0  0  0  0  0  0  0  0  0
  126.9560  122.7860   57.9900 C   0  0  0  0  0  0  0  0  0  0  0  0
  126.3170  123.8590   58.6250 C   0  0  0  0  0  0  0  0  0  0  0  0
  126.6960  124.2520   59.9050 C   0  0  0  0  0  0  0  0  0  0  0  0
  127.7240  123.5870   60.5740 C   0  0  0  0  0  0  0  0  0  0  0  0
  128.0150  124.0590   61.8690 N   0  0  0  0  0  0  0  0  0  0  0  0
  129.1750  124.0260   62.5690 C   0  0  0  0  0  0  0  0  0  0  0  0
  130.2380  123.5880   62.1270 O   0  0  0  0  0  0  0  0  0  0  0  0
  129.1020  124.5780   63.9250 C   0  0  0  0  0  0  0  0  0  0  0  0
  129.5580  123.5880   65.3100 S   0  0  0  0  0  0  0  0  0  0  0  0
  129.2500  124.9090   66.4130 C   0  0  0  0  0  0  0  0  0  0  0  0
  129.4290  124.7750   67.7250 N   0  0  0  0  0  0  0  0  0  0  0  0
  129.1740  125.8600   68.5010 C   0  0  0  0  0  0  0  0  0  0  0  0
  129.3900  125.6800   69.9760 C   0  0  0  0  0  0  0  0  0  0  0  0
  129.1400  126.7320   70.8720 C   0  0  0  0  0  0  0  0  0  0  0  0
  129.3420  126.5740   72.2400 C   0  0  0  0  0  0  0  0  0  0  0  0
  129.7980  125.3560   72.7340 C   0  0  0  0  0  0  0  0  0  0  0  0
  130.0560  124.2970   71.8680 C   0  0  0  0  0  0  0  0  0  0  0  0
  129.8550  124.4620   70.5010 C   0  0  0  0  0  0  0  0  0  0  0  0
  128.7200  127.0670   67.9580 C   0  0  0  0  0  0  0  0  0  0  0  0
  128.5240  127.2170   66.5770 C   0  0  0  0  0  0  0  0  0  0  0  0
  128.0270  128.5680   66.0470 C   0  0  0  0  0  0  0  0  0  0  0  0
  126.7400  128.5480   65.6920 F   0  0  0  0  0  0  0  0  0  0  0  0
  128.1650  129.4990   66.9910 F   0  0  0  0  0  0  0  0  0  0  0  0
  128.7320  128.9200   64.9730 F   0  0  0  0  0  0  0  0  0  0  0  0
  128.8050  126.0900   65.7510 C   0  0  0  0  0  0  0  0  0  0  0  0
  128.7350  125.8730   64.3270 C   0  0  0  0  0  0  0  0  0  0  0  0
  128.3410  126.8480   63.4470 N   0  0  0  0  0  0  0  0  0  0  0  0
  128.3670  122.5100   59.9480 C   0  0  0  0  0  0  0  0  0  0  0  0
  127.9860  122.1170   58.6680 C   0  0  0  0  0  0  0  0  0  0  0  0
  1  2  1  0
  2  3  1  0
  3  4  2  0
  3  5  1  0
  5  6  2  0
  6  7  1  0
  7  8  2  0
  8  9  1  0
  9 10  1  0
 10 11  2  0
 10 12  1  0
 12 13  1  0
 13 14  1  0
 14 15  2  0
 15 16  1  0
 16 17  1  0
 17 18  2  0
 18 19  1  0
 19 20  2  0
 20 21  1  0
 21 22  2  0
 16 23  2  0
 23 24  1  0
 24 25  1  0
 25 26  1  0
 25 27  1  0
 25 28  1  0
 24 29  2  0
 29 30  1  0
 30 31  1  0
  8 32  1  0
 32 33  2  0
 33  5  1  0
 30 12  2  0
 29 14  1  0
 22 17  1  0
M  END
>  <Binding energies>  (31) 
[-8.11]

>  <Ligand effiencies>  (31) 
[-0.22527777777777777]

>  <Interactions>  (31) 
["V-B:GLU:543:C:9874, V-B:GLU:543:CB:9878, V-B:HIS:456:CE1:9040, H-A:GLU:543:OE1:4909, V-B:GLU:543:CD:9880, V-A:GLU:543:CD:4908, V-A:GLU:543:CG:4907, H-B:GLU:543:OE1:9881, H-B:GLU:543:OE2:9882, V-B:TYR:539:CZ:9849, H-A:TYR:484:OH:4348, V-A:HIS:456:CE1:4069, V-B:TYR:539:CE1:9847, V-B:GLU:543:CG:9879, V-A:TYR:484:CE1:4345, V-B:PRO:540:N:9856, V-A:TYR:484:CZ:4347, V-B:TYR:539:CD2:9846, V-B:PRO:540:CA:9855, V-B:TYR:539:C:9839, V-B:TYR:539:CE2:9848, V-B:PRO:540:CD:9859, V-A:HIS:456:CG:4066, V-A:HIS:456:CD2:4068, V-B:GLU:543:CA:9876, V-A:GLU:543:CB:4906, V-B:ILE:538:CB:9834, V-B:TYR:539:CG:9844, V-B:ILE:538:CA:9832, V-B:TYR:539:CD1:9845, V-B:ILE:538:CG2:9835, V-B:TYR:539:CA:9841, H-B:TYR:539:N:9842, V-B:TYR:484:CZ:9318, V-B:TYR:484:CE1:9316"]

$$$$
4cc_Grossjean_2025
     RDKit          3D

 31 34  0  0  0  0  0  0  0  0999 V2000
  127.1990  122.8280   55.4200 C   0  0  0  0  0  0  0  0  0  0  0  0
  126.9780  122.0690   56.6030 O   0  0  0  0  0  0  0  0  0  0  0  0
  127.1470  122.6730   57.8340 C   0  0  0  0  0  0  0  0  0  0  0  0
  127.9940  122.0260   58.7330 C   0  0  0  0  0  0  0  0  0  0  0  0
  128.2280  122.5600   59.9980 C   0  0  0  0  0  0  0  0  0  0  0  0
  127.6060  123.7490   60.3840 C   0  0  0  0  0  0  0  0  0  0  0  0
  127.9150  124.2200   61.6740 N   0  0  0  0  0  0  0  0  0  0  0  0
  129.1230  124.5120   62.2130 C   0  0  0  0  0  0  0  0  0  0  0  0
  130.1870  124.4370   61.5980 O   0  0  0  0  0  0  0  0  0  0  0  0
  129.1000  124.9390   63.6160 C   0  0  0  0  0  0  0  0  0  0  0  0
  129.5590  123.8160   64.8940 S   0  0  0  0  0  0  0  0  0  0  0  0
  129.2820  125.0290   66.1210 C   0  0  0  0  0  0  0  0  0  0  0  0
  129.4740  124.7670   67.4120 N   0  0  0  0  0  0  0  0  0  0  0  0
  129.2420  125.7760   68.2910 C   0  0  0  0  0  0  0  0  0  0  0  0
  129.4630  125.4510   69.7400 C   0  0  0  0  0  0  0  0  0  0  0  0
  130.0580  124.2360   70.1200 C   0  0  0  0  0  0  0  0  0  0  0  0
  130.2650  123.9270   71.4620 C   0  0  0  0  0  0  0  0  0  0  0  0
  129.8790  124.8310   72.4460 C   0  0  0  0  0  0  0  0  0  0  0  0
  129.2840  126.0390   72.0970 C   0  0  0  0  0  0  0  0  0  0  0  0
  129.0780  126.3440   70.7540 C   0  0  0  0  0  0  0  0  0  0  0  0
  128.8030  127.0350   67.8720 C   0  0  0  0  0  0  0  0  0  0  0  0
  128.5950  127.3210   66.5130 C   0  0  0  0  0  0  0  0  0  0  0  0
  128.1190  128.7250   66.1240 C   0  0  0  0  0  0  0  0  0  0  0  0
  128.7350  129.2070   65.0410 F   0  0  0  0  0  0  0  0  0  0  0  0
  126.8130  128.7020   65.8620 F   0  0  0  0  0  0  0  0  0  0  0  0
  128.3520  129.5740   67.1250 F   0  0  0  0  0  0  0  0  0  0  0  0
  128.8440  126.2740   65.5810 C   0  0  0  0  0  0  0  0  0  0  0  0
  128.7450  126.1910   64.1440 C   0  0  0  0  0  0  0  0  0  0  0  0
  128.3420  127.2470   63.3670 N   0  0  0  0  0  0  0  0  0  0  0  0
  126.7620  124.4120   59.4810 C   0  0  0  0  0  0  0  0  0  0  0  0
  126.5320  123.8750   58.2180 C   0  0  0  0  0  0  0  0  0  0  0  0
  1  2  1  0
  2  3  1  0
  3  4  2  0
  4  5  1  0
  5  6  2  0
  6  7  1  0
  7  8  1  0
  8  9  2  0
  8 10  1  0
 10 11  1  0
 11 12  1  0
 12 13  2  0
 13 14  1  0
 14 15  1  0
 15 16  2  0
 16 17  1  0
 17 18  2  0
 18 19  1  0
 19 20  2  0
 14 21  2  0
 21 22  1  0
 22 23  1  0
 23 24  1  0
 23 25  1  0
 23 26  1  0
 22 27  2  0
 27 28  1  0
 28 29  1  0
  6 30  1  0
 30 31  2  0
 31  3  1  0
 28 10  2  0
 27 12  1  0
 20 15  1  0
M  END
>  <Binding energies>  (32) 
[-7.38]

>  <Ligand effiencies>  (32) 
[-0.21705882352941175]

>  <Interactions>  (32) 
["V-B:GLU:543:CB:9878, V-B:HIS:456:CE1:9040, H-A:GLU:543:OE1:4909, V-B:GLU:543:CD:9880, V-A:GLU:543:CD:4908, V-A:GLU:543:CG:4907, H-B:GLU:543:OE1:9881, H-B:GLU:543:OE2:9882, V-B:TYR:539:CZ:9849, H-A:TYR:484:OH:4348, V-A:HIS:456:CE1:4069, V-B:TYR:539:CE1:9847, V-B:GLU:543:CG:9879, V-A:TYR:484:CE1:4345, V-B:PRO:540:N:9856, V-A:TYR:484:CZ:4347, V-B:TYR:539:CD2:9846, V-B:PRO:540:CA:9855, V-B:TYR:539:C:9839, V-B:TYR:539:CE2:9848, V-A:HIS:456:CG:4066, V-A:HIS:456:CD2:4068, V-B:GLU:543:CA:9876, V-A:GLU:543:CB:4906, V-A:TYR:484:CD1:4343, V-B:ILE:538:CB:9834, V-B:TYR:539:CG:9844, V-B:ILE:538:CA:9832, V-B:TYR:539:CD1:9845, V-B:ILE:538:CG2:9835, H-B:TYR:539:N:9842, V-B:TYR:484:CZ:9318, V-B:TYR:484:CE1:9316, V-A:TYR:484:CE2:4346"]

$$$$
4ce_Grossjean_2025
     RDKit          3D

 30 33  0  0  0  0  0  0  0  0999 V2000
  128.5290  120.0100   73.1600 C   0  0  0  0  0  0  0  0  0  0  0  0
  129.5010  121.1330   72.8540 C   0  0  0  0  0  0  0  0  0  0  0  0
  130.7190  121.2500   73.5300 C   0  0  0  0  0  0  0  0  0  0  0  0
  131.5680  122.3040   73.1910 C   0  0  0  0  0  0  0  0  0  0  0  0
  131.1850  123.2050   72.1950 C   0  0  0  0  0  0  0  0  0  0  0  0
  129.9490  123.0330   71.5610 C   0  0  0  0  0  0  0  0  0  0  0  0
  129.6310  123.9570   70.5500 N   0  0  0  0  0  0  0  0  0  0  0  0
  129.4830  125.3020   70.6460 C   0  0  0  0  0  0  0  0  0  0  0  0
  129.6340  125.9350   71.6920 O   0  0  0  0  0  0  0  0  0  0  0  0
  129.1260  125.9860   69.4010 C   0  0  0  0  0  0  0  0  0  0  0  0
  128.3810  127.5830   69.4490 S   0  0  0  0  0  0  0  0  0  0  0  0
  128.3390  127.6640   67.7040 C   0  0  0  0  0  0  0  0  0  0  0  0
  127.8480  128.7270   67.0710 N   0  0  0  0  0  0  0  0  0  0  0  0
  127.8710  128.7060   65.7120 C   0  0  0  0  0  0  0  0  0  0  0  0
  127.3160  129.9200   65.0290 C   0  0  0  0  0  0  0  0  0  0  0  0
  126.0000  129.9260   64.5360 C   0  0  0  0  0  0  0  0  0  0  0  0
  125.4800  131.0470   63.8950 C   0  0  0  0  0  0  0  0  0  0  0  0
  126.2690  132.1810   63.7390 C   0  0  0  0  0  0  0  0  0  0  0  0
  127.5750  132.2020   64.2170 C   0  0  0  0  0  0  0  0  0  0  0  0
  128.0930  131.0780   64.8560 C   0  0  0  0  0  0  0  0  0  0  0  0
  128.3680  127.6110   64.9970 C   0  0  0  0  0  0  0  0  0  0  0  0
  128.8840  126.4830   65.6560 C   0  0  0  0  0  0  0  0  0  0  0  0
  129.4130  125.3190   64.8110 C   0  0  0  0  0  0  0  0  0  0  0  0
  129.0870  124.1230   65.3050 F   0  0  0  0  0  0  0  0  0  0  0  0
  128.9120  125.3920   63.5780 F   0  0  0  0  0  0  0  0  0  0  0  0
  130.7430  125.3760   64.7490 F   0  0  0  0  0  0  0  0  0  0  0  0
  128.8780  126.5010   67.0800 C   0  0  0  0  0  0  0  0  0  0  0  0
  129.3190  125.5560   68.0770 C   0  0  0  0  0  0  0  0  0  0  0  0
  129.8790  124.3460   67.7560 N   0  0  0  0  0  0  0  0  0  0  0  0
  129.1150  122.0010   71.8840 N   0  0  0  0  0  0  0  0  0  0  0  0
  1  2  1  0
  2  3  2  0
  3  4  1  0
  4  5  2  0
  5  6  1  0
  6  7  1  0
  7  8  1  0
  8  9  2  0
  8 10  1  0
 10 11  1  0
 11 12  1  0
 12 13  2  0
 13 14  1  0
 14 15  1  0
 15 16  2  0
 16 17  1  0
 17 18  2  0
 18 19  1  0
 19 20  2  0
 14 21  2  0
 21 22  1  0
 22 23  1  0
 23 24  1  0
 23 25  1  0
 23 26  1  0
 22 27  2  0
 27 28  1  0
 28 29  1  0
  6 30  2  0
 30  2  1  0
 28 10  2  0
 27 12  1  0
 20 15  1  0
M  END
>  <Binding energies>  (33) 
[-8.18]

>  <Ligand effiencies>  (33) 
[-0.24787878787878787]

>  <Interactions>  (33) 
["V-B:GLU:543:C:9874, V-A:ALA:541:CB:4892, V-B:GLU:543:CB:9878, V-B:HIS:456:CE1:9040, V-B:LEU:475:CD1:9229, V-B:GLU:543:CD:9880, V-A:GLU:543:CD:4908, H-A:TYR:484:OH:4348, V-A:HIS:456:CE1:4069, V-B:GLU:543:CG:9879, V-A:TYR:484:CE1:4345, V-A:TYR:484:CZ:4347, V-A:HIS:456:CG:4066, H-A:HIS:456:NE2:4070, V-A:HIS:456:CD2:4068, V-A:HIS:456:CB:4065, V-A:ASP:473:CB:4239, V-A:ASP:473:CG:4240, H-B:LYS:547:NZ:9923, V-B:GLU:543:CA:9876, V-A:TYR:484:CD2:4344, V-A:GLU:543:CB:4906, V-A:TYR:484:CD1:4343, V-A:TYR:484:CG:4342, V-A:TYR:484:CB:4341, V-A:TYR:484:CE2:4346, V-B:LYS:547:CE:9922, H-B:GLU:543:O:9875, H-A:HIS:456:ND1:4067"]

$$$$
4cf_Grossjean_2025
     RDKit          3D

 29 32  0  0  0  0  0  0  0  0999 V2000
  129.8140  124.4630   67.6520 N   0  0  0  0  0  0  0  0  0  0  0  0
  129.3940  125.7350   67.9440 C   0  0  0  0  0  0  0  0  0  0  0  0
  129.3010  126.2340   69.2540 C   0  0  0  0  0  0  0  0  0  0  0  0
  129.5750  125.5410   70.5170 C   0  0  0  0  0  0  0  0  0  0  0  0
  129.6670  126.1730   71.5700 O   0  0  0  0  0  0  0  0  0  0  0  0
  129.6990  124.1950   70.4260 N   0  0  0  0  0  0  0  0  0  0  0  0
  130.0070  123.2520   71.4240 C   0  0  0  0  0  0  0  0  0  0  0  0
  131.1700  123.2540   72.2190 C   0  0  0  0  0  0  0  0  0  0  0  0
  131.3590  122.2470   73.1680 C   0  0  0  0  0  0  0  0  0  0  0  0
  130.3820  121.2590   73.2990 C   0  0  0  0  0  0  0  0  0  0  0  0
  129.2570  121.2310   72.5410 N   0  0  0  0  0  0  0  0  0  0  0  0
  129.0870  122.2160   71.6220 C   0  0  0  0  0  0  0  0  0  0  0  0
  128.7360  127.9020   69.2610 S   0  0  0  0  0  0  0  0  0  0  0  0
  128.6210  127.9180   67.5170 C   0  0  0  0  0  0  0  0  0  0  0  0
  128.2060  128.9980   66.8580 N   0  0  0  0  0  0  0  0  0  0  0  0
  128.1340  128.9080   65.5030 C   0  0  0  0  0  0  0  0  0  0  0  0
  127.6560  130.1380   64.7880 C   0  0  0  0  0  0  0  0  0  0  0  0
  126.4850  130.1080   64.0140 C   0  0  0  0  0  0  0  0  0  0  0  0
  126.0340  131.2440   63.3470 C   0  0  0  0  0  0  0  0  0  0  0  0
  126.7490  132.4320   63.4490 C   0  0  0  0  0  0  0  0  0  0  0  0
  127.9110  132.4920   64.2120 C   0  0  0  0  0  0  0  0  0  0  0  0
  128.3580  131.3530   64.8760 C   0  0  0  0  0  0  0  0  0  0  0  0
  128.5030  127.7470   64.8180 C   0  0  0  0  0  0  0  0  0  0  0  0
  128.9470  126.6050   65.5040 C   0  0  0  0  0  0  0  0  0  0  0  0
  129.3300  125.3640   64.6910 C   0  0  0  0  0  0  0  0  0  0  0  0
  128.9100  124.2240   65.2440 F   0  0  0  0  0  0  0  0  0  0  0  0
  128.7920  125.4380   63.4740 F   0  0  0  0  0  0  0  0  0  0  0  0
  130.6570  125.2870   64.5810 F   0  0  0  0  0  0  0  0  0  0  0  0
  129.0080  126.6810   66.9260 C   0  0  0  0  0  0  0  0  0  0  0  0
  1  2  1  0
  2  3  2  0
  3  4  1  0
  4  5  2  0
  4  6  1  0
  6  7  1  0
  7  8  2  0
  8  9  1  0
  9 10  2  0
 10 11  1  0
 11 12  2  0
  3 13  1  0
 13 14  1  0
 14 15  2  0
 15 16  1  0
 16 17  1  0
 17 18  2  0
 18 19  1  0
 19 20  2  0
 20 21  1  0
 21 22  2  0
 16 23  2  0
 23 24  1  0
 24 25  1  0
 25 26  1  0
 25 27  1  0
 25 28  1  0
 24 29  2  0
 29  2  1  0
 12  7  1  0
 29 14  1  0
 22 17  1  0
M  END
>  <Binding energies>  (34) 
[-7.59]

>  <Ligand effiencies>  (34) 
[-0.2371875]

>  <Interactions>  (34) 
["V-B:GLU:543:C:9874, V-A:ALA:541:CB:4892, V-B:GLU:543:CB:9878, V-B:HIS:456:CE1:9040, V-B:LEU:475:CD1:9229, V-B:GLU:543:CD:9880, V-A:GLU:543:CD:4908, H-A:TYR:484:OH:4348, V-A:HIS:456:CE1:4069, V-B:GLU:543:CG:9879, V-A:TYR:484:CE1:4345, V-A:TYR:484:CZ:4347, V-A:HIS:456:CG:4066, H-A:HIS:456:NE2:4070, V-A:HIS:456:CD2:4068, V-A:HIS:456:CB:4065, V-A:ASP:473:CB:4239, V-A:ASP:473:CG:4240, H-B:LYS:547:NZ:9923, V-B:GLU:543:CA:9876, V-A:TYR:484:CD2:4344, V-A:GLU:543:CB:4906, V-A:TYR:484:CD1:4343, V-A:TYR:484:CG:4342, V-A:TYR:484:CB:4341, V-B:TYR:484:CE1:9316, V-A:TYR:484:CE2:4346, V-B:LYS:547:CE:9922, V-B:GLY:544:CA:9886, H-B:GLU:543:O:9875, H-A:HIS:456:ND1:4067"]

$$$$
4ci_Grossjean_2025
     RDKit          3D

 28 31  0  0  0  0  0  0  0  0999 V2000
  129.8960  124.3730   67.7470 N   0  0  0  0  0  0  0  0  0  0  0  0
  129.3370  125.5820   68.0720 C   0  0  0  0  0  0  0  0  0  0  0  0
  129.1330  126.0040   69.3960 C   0  0  0  0  0  0  0  0  0  0  0  0
  129.4620  125.3010   70.6400 C   0  0  0  0  0  0  0  0  0  0  0  0
  129.6110  125.9230   71.6940 O   0  0  0  0  0  0  0  0  0  0  0  0
  129.5960  123.9550   70.5310 N   0  0  0  0  0  0  0  0  0  0  0  0
  129.9040  123.0520   71.5400 C   0  0  0  0  0  0  0  0  0  0  0  0
  131.0660  123.1320   72.3070 C   0  0  0  0  0  0  0  0  0  0  0  0
  130.9940  122.0700   73.1780 C   0  0  0  0  0  0  0  0  0  0  0  0
  129.8480  121.3860   72.9490 O   0  0  0  0  0  0  0  0  0  0  0  0
  129.1660  122.0170   71.9080 N   0  0  0  0  0  0  0  0  0  0  0  0
  128.4060  127.6080   69.4490 S   0  0  0  0  0  0  0  0  0  0  0  0
  128.3710  127.6990   67.7040 C   0  0  0  0  0  0  0  0  0  0  0  0
  127.8890  128.7670   67.0720 N   0  0  0  0  0  0  0  0  0  0  0  0
  127.9060  128.7480   65.7140 C   0  0  0  0  0  0  0  0  0  0  0  0
  127.3510  129.9650   65.0310 C   0  0  0  0  0  0  0  0  0  0  0  0
  126.0440  129.9690   64.5170 C   0  0  0  0  0  0  0  0  0  0  0  0
  125.5240  131.0940   63.8830 C   0  0  0  0  0  0  0  0  0  0  0  0
  126.3070  132.2360   63.7520 C   0  0  0  0  0  0  0  0  0  0  0  0
  127.6060  132.2580   64.2470 C   0  0  0  0  0  0  0  0  0  0  0  0
  128.1230  131.1300   64.8790 C   0  0  0  0  0  0  0  0  0  0  0  0
  128.3920  127.6490   64.9980 C   0  0  0  0  0  0  0  0  0  0  0  0
  128.9030  126.5170   65.6540 C   0  0  0  0  0  0  0  0  0  0  0  0
  129.4190  125.3480   64.8060 C   0  0  0  0  0  0  0  0  0  0  0  0
  129.0900  124.1550   65.3030 F   0  0  0  0  0  0  0  0  0  0  0  0
  128.9070  125.4240   63.5780 F   0  0  0  0  0  0  0  0  0  0  0  0
  130.7500  125.3980   64.7320 F   0  0  0  0  0  0  0  0  0  0  0  0
  128.9010  126.5330   67.0780 C   0  0  0  0  0  0  0  0  0  0  0  0
  1  2  1  0
  2  3  2  0
  3  4  1  0
  4  5  2  0
  4  6  1  0
  6  7  1  0
  7  8  1  0
  8  9  2  0
  9 10  1  0
 10 11  1  0
  3 12  1  0
 12 13  1  0
 13 14  2  0
 14 15  1  0
 15 16  1  0
 16 17  2  0
 17 18  1  0
 18 19  2  0
 19 20  1  0
 20 21  2  0
 15 22  2  0
 22 23  1  0
 23 24  1  0
 24 25  1  0
 24 26  1  0
 24 27  1  0
 23 28  2  0
 28  2  1  0
 11  7  2  0
 28 13  1  0
 21 16  1  0
M  END
>  <Binding energies>  (35) 
[-8.48]

>  <Ligand effiencies>  (35) 
[-0.2735483870967742]

>  <Interactions>  (35) 
["V-B:GLU:543:C:9874, V-A:ALA:541:CB:4892, V-B:GLU:543:CB:9878, V-B:HIS:456:CE1:9040, V-B:LEU:475:CD1:9229, V-B:GLU:543:CD:9880, V-A:GLU:543:CD:4908, H-A:TYR:484:OH:4348, V-A:HIS:456:CE1:4069, V-B:GLU:543:CG:9879, V-A:TYR:484:CE1:4345, V-A:TYR:484:CZ:4347, V-A:HIS:456:CG:4066, H-A:HIS:456:NE2:4070, V-A:HIS:456:CD2:4068, V-A:HIS:456:CB:4065, V-A:ASP:473:CB:4239, V-A:ASP:473:CG:4240, H-B:LYS:547:NZ:9923, V-B:GLU:543:CA:9876, V-A:TYR:484:CD2:4344, V-A:GLU:543:CB:4906, V-A:TYR:484:CD1:4343, V-A:TYR:484:CG:4342, V-A:TYR:484:CB:4341, V-A:TYR:484:CE2:4346, H-B:GLU:543:O:9875, H-A:HIS:456:ND1:4067"]

$$$$
8a_Ghoteimi_2023
     RDKit          3D

 40 44  0  0  0  0  0  0  0  0999 V2000
  131.3570  131.7640   54.3880 C   0  0  0  0  0  0  0  0  0  0  0  0
  132.1030  132.7780   55.2600 C   0  0  0  0  0  0  0  0  0  0  0  0
  131.7040  132.6180   56.6160 O   0  0  0  0  0  0  0  0  0  0  0  0
  130.3930  132.6650   56.9710 C   0  0  0  0  0  0  0  0  0  0  0  0
  129.5260  133.2280   56.2970 O   0  0  0  0  0  0  0  0  0  0  0  0
  130.1060  131.9680   58.2700 C   0  0  0  0  0  0  0  0  0  0  0  0
  130.9360  130.9170   58.6800 C   0  0  0  0  0  0  0  0  0  0  0  0
  130.6950  130.2500   59.8780 C   0  0  0  0  0  0  0  0  0  0  0  0
  129.6210  130.6180   60.6900 C   0  0  0  0  0  0  0  0  0  0  0  0
  129.4720  129.8700   61.8750 N   0  0  0  0  0  0  0  0  0  0  0  0
  128.3510  129.4890   62.5360 C   0  0  0  0  0  0  0  0  0  0  0  0
  127.2060  129.7620   62.1760 O   0  0  0  0  0  0  0  0  0  0  0  0
  128.5800  128.6980   63.7490 C   0  0  0  0  0  0  0  0  0  0  0  0
  127.7390  129.0980   65.2460 S   0  0  0  0  0  0  0  0  0  0  0  0
  128.5330  127.7930   66.0970 C   0  0  0  0  0  0  0  0  0  0  0  0
  128.3140  127.5650   67.3910 N   0  0  0  0  0  0  0  0  0  0  0  0
  128.9870  126.5280   67.9570 C   0  0  0  0  0  0  0  0  0  0  0  0
  128.7410  126.3040   69.4150 C   0  0  0  0  0  0  0  0  0  0  0  0
  127.8130  127.0820   70.1210 C   0  0  0  0  0  0  0  0  0  0  0  0
  127.5980  126.8760   71.4810 C   0  0  0  0  0  0  0  0  0  0  0  0
  128.3000  125.8870   72.1670 C   0  0  0  0  0  0  0  0  0  0  0  0
  128.0230  125.7560   73.5150 O   0  0  0  0  0  0  0  0  0  0  0  0
  126.9900  126.5490   74.0910 C   0  0  0  0  0  0  0  0  0  0  0  0
  129.2260  125.0990   71.4690 C   0  0  0  0  0  0  0  0  0  0  0  0
  129.4420  125.3100   70.1100 C   0  0  0  0  0  0  0  0  0  0  0  0
  129.8650  125.7230   67.2300 C   0  0  0  0  0  0  0  0  0  0  0  0
  130.0860  125.9480   65.8670 C   0  0  0  0  0  0  0  0  0  0  0  0
  131.0060  125.0420   65.1330 C   0  0  0  0  0  0  0  0  0  0  0  0
  132.3720  125.3240   65.0750 C   0  0  0  0  0  0  0  0  0  0  0  0
  133.2410  124.4660   64.4060 C   0  0  0  0  0  0  0  0  0  0  0  0
  132.7610  123.3110   63.7890 C   0  0  0  0  0  0  0  0  0  0  0  0
  133.6960  122.5190   63.1500 O   0  0  0  0  0  0  0  0  0  0  0  0
  134.2600  122.9660   61.9220 C   0  0  0  0  0  0  0  0  0  0  0  0
  131.3890  123.0210   63.8530 C   0  0  0  0  0  0  0  0  0  0  0  0
  130.5230  123.8800   64.5250 C   0  0  0  0  0  0  0  0  0  0  0  0
  129.4090  127.0420   65.2580 C   0  0  0  0  0  0  0  0  0  0  0  0
  129.4300  127.5940   63.9260 C   0  0  0  0  0  0  0  0  0  0  0  0
  130.2280  127.0870   62.9300 N   0  0  0  0  0  0  0  0  0  0  0  0
  128.7870  131.6720   60.2890 C   0  0  0  0  0  0  0  0  0  0  0  0
  129.0290  132.3380   59.0910 C   0  0  0  0  0  0  0  0  0  0  0  0
  1  2  1  0
  2  3  1  0
  3  4  1  0
  4  5  2  0
  4  6  1  0
  6  7  2  0
  7  8  1  0
  8  9  2  0
  9 10  1  0
 10 11  1  0
 11 12  2  0
 11 13  1  0
 13 14  1  0
 14 15  1  0
 15 16  2  0
 16 17  1  0
 17 18  1  0
 18 19  2  0
 19 20  1  0
 20 21  2  0
 21 22  1  0
 22 23  1  0
 21 24  1  0
 24 25  2  0
 17 26  2  0
 26 27  1  0
 27 28  1  0
 28 29  2  0
 29 30  1  0
 30 31  2  0
 31 32  1  0
 32 33  1  0
 31 34  1  0
 34 35  2  0
 27 36  2  0
 36 37  1  0
 37 38  1  0
  9 39  1  0
 39 40  2  0
 40  6  1  0
 37 13  2  0
 36 15  1  0
 25 18  1  0
 35 28  1  0
M  END
>  <Binding energies>  (36) 
[-10.3]

>  <Ligand effiencies>  (36) 
[-0.23953488372093024]

>  <Interactions>  (36) 
["V-A:PRO:540:CB:4885, V-B:GLY:544:C:9884, H-A:GLU:543:OE2:4910, V-B:HIS:456:CE1:9040, H-A:GLU:543:OE1:4909, V-A:PRO:540:CA:4883, V-A:GLU:543:CD:4908, V-A:ILE:538:CD1:4865, V-A:TYR:539:C:4867, V-A:TYR:531:CE2:4793, V-A:PRO:540:N:4884, V-A:HIS:456:CE1:4069, V-A:LEU:475:CD1:4258, V-A:GLY:454:CA:4049, H-A:GLY:454:N:4050, V-A:ILE:538:CA:4860, V-A:ILE:369:CD1:3239, V-A:PRO:540:CD:4887, H-A:TYR:539:N:4870, V-A:ILE:538:CG2:4863, V-A:LEU:363:CD1:3189, V-A:HIS:456:CD2:4068, H-B:LYS:547:NZ:9923, V-A:TYR:539:CA:4869, V-B:LYS:547:CD:9921, V-B:LYS:547:CE:9922, V-A:ILE:538:CB:4862"]

$$$$
8c_Ghoteimi_2023
     RDKit          3D

 34 38  0  0  0  0  0  0  0  0999 V2000
  123.5830  131.6360   62.0070 C   0  0  0  0  0  0  0  0  0  0  0  0
  123.8680  131.8950   63.3770 O   0  0  0  0  0  0  0  0  0  0  0  0
  124.5900  130.9660   64.1030 C   0  0  0  0  0  0  0  0  0  0  0  0
  125.9070  130.7500   63.7020 C   0  0  0  0  0  0  0  0  0  0  0  0
  126.7080  129.8310   64.3730 C   0  0  0  0  0  0  0  0  0  0  0  0
  126.2110  129.1020   65.4640 C   0  0  0  0  0  0  0  0  0  0  0  0
  127.0660  128.1100   66.1860 C   0  0  0  0  0  0  0  0  0  0  0  0
  128.0740  127.3930   65.5350 C   0  0  0  0  0  0  0  0  0  0  0  0
  128.8610  126.4720   66.2350 C   0  0  0  0  0  0  0  0  0  0  0  0
  129.9150  125.7220   65.5140 C   0  0  0  0  0  0  0  0  0  0  0  0
  131.2480  125.8120   65.9230 C   0  0  0  0  0  0  0  0  0  0  0  0
  132.2350  125.0990   65.2500 C   0  0  0  0  0  0  0  0  0  0  0  0
  131.9090  124.2910   64.1600 C   0  0  0  0  0  0  0  0  0  0  0  0
  132.9530  123.6180   63.5550 O   0  0  0  0  0  0  0  0  0  0  0  0
  133.6630  124.2470   62.4940 C   0  0  0  0  0  0  0  0  0  0  0  0
  130.5690  124.2050   63.7480 C   0  0  0  0  0  0  0  0  0  0  0  0
  129.5820  124.9180   64.4220 C   0  0  0  0  0  0  0  0  0  0  0  0
  128.6090  126.2950   67.6220 C   0  0  0  0  0  0  0  0  0  0  0  0
  129.2120  125.4570   68.6240 C   0  0  0  0  0  0  0  0  0  0  0  0
  130.2490  124.6040   68.3420 N   0  0  0  0  0  0  0  0  0  0  0  0
  128.6440  125.5980   69.9000 C   0  0  0  0  0  0  0  0  0  0  0  0
  129.0080  124.9120   71.1420 C   0  0  0  0  0  0  0  0  0  0  0  0
  128.9000  125.4790   72.2310 O   0  0  0  0  0  0  0  0  0  0  0  0
  129.4620  123.6420   70.9930 N   0  0  0  0  0  0  0  0  0  0  0  0
  129.8680  122.7780   71.9990 C   0  0  0  0  0  0  0  0  0  0  0  0
  129.3600  121.6050   72.3100 N   0  0  0  0  0  0  0  0  0  0  0  0
  129.9980  121.0540   73.3240 C   0  0  0  0  0  0  0  0  0  0  0  0
  131.0510  121.7870   73.8600 C   0  0  0  0  0  0  0  0  0  0  0  0
  131.2060  123.2800   72.9820 S   0  0  0  0  0  0  0  0  0  0  0  0
  127.3390  126.7860   69.8890 S   0  0  0  0  0  0  0  0  0  0  0  0
  127.5610  127.0830   68.1810 C   0  0  0  0  0  0  0  0  0  0  0  0
  126.8090  127.9590   67.5140 N   0  0  0  0  0  0  0  0  0  0  0  0
  124.8870  129.3270   65.8620 C   0  0  0  0  0  0  0  0  0  0  0  0
  124.0830  130.2450   65.1930 C   0  0  0  0  0  0  0  0  0  0  0  0
  1  2  1  0
  2  3  1  0
  3  4  2  0
  4  5  1  0
  5  6  2  0
  6  7  1  0
  7  8  2  0
  8  9  1  0
  9 10  1  0
 10 11  2  0
 11 12  1  0
 12 13  2  0
 13 14  1  0
 14 15  1  0
 13 16  1  0
 16 17  2  0
  9 18  2  0
 18 19  1  0
 19 20  1  0
 19 21  2  0
 21 22  1  0
 22 23  2  0
 22 24  1  0
 24 25  1  0
 25 26  2  0
 26 27  1  0
 27 28  2  0
 28 29  1  0
 21 30  1  0
 30 31  1  0
 31 32  2  0
  6 33  1  0
 33 34  2  0
 34  3  1  0
 32  7  1  0
 17 10  1  0
 31 18  1  0
 29 25  1  0
M  END
>  <Binding energies>  (37) 
[-9.25]

>  <Ligand effiencies>  (37) 
[-0.25]

>  <Interactions>  (37) 
["V-B:ARG:545:CD:9895, V-B:GLU:543:C:9874, V-B:GLU:543:CB:9878, V-B:GLY:544:C:9884, V-B:HIS:456:CE1:9040, V-B:GLU:543:CD:9880, V-B:ARG:545:CG:9894, V-A:GLU:543:CD:4908, V-B:ILE:369:CD1:8210, V-B:ARG:545:CZ:9898, V-B:GLY:454:CA:9020, H-A:TYR:484:OH:4348, V-A:HIS:456:CE1:4069, V-B:GLU:543:CG:9879, V-A:TYR:484:CE1:4345, V-A:TYR:484:CZ:4347, H-A:GLY:454:N:4050, H-B:GLY:454:N:9021, V-A:HIS:456:CG:4066, V-A:HIS:456:CB:4065, V-A:ASP:473:CB:4239, V-A:ASP:473:CG:4240, H-B:LYS:547:NZ:9923, V-A:TYR:484:CD2:4344, V-A:TYR:484:CD1:4343, V-A:TYR:484:CG:4342, V-A:TYR:484:CB:4341, V-A:TYR:484:CE2:4346, V-B:LYS:547:CE:9922, H-B:GLU:543:O:9875, H-A:HIS:456:ND1:4067"]

$$$$
8d_Ghoteimi_2023
     RDKit          3D

 30 33  0  0  0  0  0  0  0  0999 V2000
  130.8170  123.4910   72.0910 C   0  0  0  0  0  0  0  0  0  0  0  0
  129.4960  123.7510   71.6340 O   0  0  0  0  0  0  0  0  0  0  0  0
  128.9490  124.9890   71.7550 C   0  0  0  0  0  0  0  0  0  0  0  0
  128.7600  125.5570   72.8330 O   0  0  0  0  0  0  0  0  0  0  0  0
  128.5990  125.5930   70.4510 C   0  0  0  0  0  0  0  0  0  0  0  0
  127.2640  126.7420   70.3430 S   0  0  0  0  0  0  0  0  0  0  0  0
  127.5160  126.9340   68.6240 C   0  0  0  0  0  0  0  0  0  0  0  0
  126.7570  127.7460   67.8880 N   0  0  0  0  0  0  0  0  0  0  0  0
  127.0400  127.8230   66.5600 C   0  0  0  0  0  0  0  0  0  0  0  0
  126.1700  128.7370   65.7560 C   0  0  0  0  0  0  0  0  0  0  0  0
  126.5660  129.1840   64.4870 C   0  0  0  0  0  0  0  0  0  0  0  0
  125.7530  130.0350   63.7440 C   0  0  0  0  0  0  0  0  0  0  0  0
  124.5250  130.4620   64.2480 C   0  0  0  0  0  0  0  0  0  0  0  0
  123.7860  131.3040   63.4420 O   0  0  0  0  0  0  0  0  0  0  0  0
  123.7660  131.0800   62.0360 C   0  0  0  0  0  0  0  0  0  0  0  0
  124.1190  130.0200   65.5150 C   0  0  0  0  0  0  0  0  0  0  0  0
  124.9350  129.1680   66.2550 C   0  0  0  0  0  0  0  0  0  0  0  0
  128.0720  127.0860   65.9730 C   0  0  0  0  0  0  0  0  0  0  0  0
  128.8710  126.2370   66.7460 C   0  0  0  0  0  0  0  0  0  0  0  0
  129.9630  125.4750   66.0960 C   0  0  0  0  0  0  0  0  0  0  0  0
  131.2640  125.9820   66.0880 C   0  0  0  0  0  0  0  0  0  0  0  0
  132.2890  125.2710   65.4700 C   0  0  0  0  0  0  0  0  0  0  0  0
  132.0310  124.0440   64.8560 C   0  0  0  0  0  0  0  0  0  0  0  0
  133.1070  123.4110   64.2680 O   0  0  0  0  0  0  0  0  0  0  0  0
  133.4430  123.7200   62.9200 C   0  0  0  0  0  0  0  0  0  0  0  0
  130.7210  123.5350   64.8690 C   0  0  0  0  0  0  0  0  0  0  0  0
  129.6980  124.2480   65.4870 C   0  0  0  0  0  0  0  0  0  0  0  0
  128.5950  126.1430   68.1350 C   0  0  0  0  0  0  0  0  0  0  0  0
  129.1940  125.3870   69.2010 C   0  0  0  0  0  0  0  0  0  0  0  0
  130.2520  124.5380   69.0000 N   0  0  0  0  0  0  0  0  0  0  0  0
  1  2  1  0
  2  3  1  0
  3  4  2  0
  3  5  1  0
  5  6  1  0
  6  7  1  0
  7  8  2  0
  8  9  1  0
  9 10  1  0
 10 11  2  0
 11 12  1  0
 12 13  2  0
 13 14  1  0
 14 15  1  0
 13 16  1  0
 16 17  2  0
  9 18  2  0
 18 19  1  0
 19 20  1  0
 20 21  2  0
 21 22  1  0
 22 23  2  0
 23 24  1  0
 24 25  1  0
 23 26  1  0
 26 27  2  0
 19 28  2  0
 28 29  1  0
 29 30  1  0
 29  5  2  0
 28  7  1  0
 17 10  1  0
 27 20  1  0
M  END
>  <Binding energies>  (38) 
[-7.99]

>  <Ligand effiencies>  (38) 
[-0.2496875]

>  <Interactions>  (38) 
["V-B:ARG:545:CD:9895, V-B:GLU:543:C:9874, V-B:GLU:543:CB:9878, V-B:GLY:544:C:9884, V-B:HIS:456:CE1:9040, V-B:GLU:543:CD:9880, V-B:ARG:545:CG:9894, V-A:GLU:543:CD:4908, V-B:ILE:369:CD1:8210, V-B:ARG:545:CZ:9898, V-B:GLY:454:CA:9020, H-A:TYR:484:OH:4348, V-A:HIS:456:CE1:4069, V-B:GLU:543:CG:9879, V-A:TYR:484:CE1:4345, V-A:GLY:454:CA:4049, V-A:TYR:484:CZ:4347, H-A:GLY:454:N:4050, H-B:GLY:454:N:9021, V-A:HIS:456:CG:4066, V-A:HIS:456:CD2:4068, V-A:HIS:456:CB:4065, H-B:LYS:547:NZ:9923, V-B:GLU:543:CA:9876, V-A:TYR:484:CD2:4344, V-A:TYR:484:CD1:4343, V-A:TYR:484:CG:4342, V-A:TYR:484:CE2:4346, H-B:GLU:543:O:9875, H-A:HIS:456:ND1:4067"]

$$$$
9a_Ghoteimi_2023
     RDKit          3D

 48 54  0  0  0  0  0  0  0  0999 V2000
  130.7440  131.5570   53.9850 C   0  0  0  0  0  0  0  0  0  0  0  0
  129.8470  132.7670   54.2660 C   0  0  0  0  0  0  0  0  0  0  0  0
  129.6700  132.9090   55.6710 O   0  0  0  0  0  0  0  0  0  0  0  0
  130.7240  132.8180   56.5220 C   0  0  0  0  0  0  0  0  0  0  0  0
  131.8540  133.2380   56.2540 O   0  0  0  0  0  0  0  0  0  0  0  0
  130.3810  132.1490   57.8220 C   0  0  0  0  0  0  0  0  0  0  0  0
  131.2060  131.1240   58.3040 C   0  0  0  0  0  0  0  0  0  0  0  0
  130.9140  130.4840   59.5040 C   0  0  0  0  0  0  0  0  0  0  0  0
  129.7940  130.8530   60.2490 C   0  0  0  0  0  0  0  0  0  0  0  0
  129.5980  130.1360   61.4460 N   0  0  0  0  0  0  0  0  0  0  0  0
  128.4530  129.8130   62.0980 C   0  0  0  0  0  0  0  0  0  0  0  0
  127.3260  130.1200   61.7110 O   0  0  0  0  0  0  0  0  0  0  0  0
  128.6330  129.0430   63.3330 C   0  0  0  0  0  0  0  0  0  0  0  0
  128.3110  129.7850   64.9000 S   0  0  0  0  0  0  0  0  0  0  0  0
  128.7240  128.3060   65.7360 C   0  0  0  0  0  0  0  0  0  0  0  0
  128.6540  128.2110   67.0630 N   0  0  0  0  0  0  0  0  0  0  0  0
  128.9850  127.0130   67.6140 C   0  0  0  0  0  0  0  0  0  0  0  0
  128.8890  126.9260   69.1030 C   0  0  0  0  0  0  0  0  0  0  0  0
  128.4100  125.7640   69.7180 C   0  0  0  0  0  0  0  0  0  0  0  0
  128.3190  125.6740   71.1040 C   0  0  0  0  0  0  0  0  0  0  0  0
  128.7160  126.7390   71.9290 C   0  0  0  0  0  0  0  0  0  0  0  0
  128.6110  126.6700   73.3220 N   0  0  0  0  0  0  0  0  0  0  0  0
  129.7990  126.4680   74.1760 C   0  0  0  0  0  0  0  0  0  0  0  0
  129.4620  126.0590   75.6250 C   0  0  0  0  0  0  0  0  0  0  0  0
  128.5750  127.0020   76.2030 O   0  0  0  0  0  0  0  0  0  0  0  0
  127.3570  127.0820   75.4780 C   0  0  0  0  0  0  0  0  0  0  0  0
  127.6360  127.5270   74.0280 C   0  0  0  0  0  0  0  0  0  0  0  0
  129.1810  127.9060   71.3060 C   0  0  0  0  0  0  0  0  0  0  0  0
  129.2700  127.9970   69.9210 C   0  0  0  0  0  0  0  0  0  0  0  0
  129.4100  125.9290   66.8420 C   0  0  0  0  0  0  0  0  0  0  0  0
  129.5030  126.0320   65.4500 C   0  0  0  0  0  0  0  0  0  0  0  0
  129.9950  124.8600   64.6800 C   0  0  0  0  0  0  0  0  0  0  0  0
  131.3020  124.3950   64.8490 C   0  0  0  0  0  0  0  0  0  0  0  0
  131.7560  123.2890   64.1370 C   0  0  0  0  0  0  0  0  0  0  0  0
  130.9090  122.6060   63.2490 C   0  0  0  0  0  0  0  0  0  0  0  0
  131.3460  121.5000   62.5160 N   0  0  0  0  0  0  0  0  0  0  0  0
  132.5370  121.6340   61.6520 C   0  0  0  0  0  0  0  0  0  0  0  0
  133.1260  120.2780   61.2100 C   0  0  0  0  0  0  0  0  0  0  0  0
  132.1260  119.4970   60.5760 O   0  0  0  0  0  0  0  0  0  0  0  0
  131.0350  119.2360   61.4440 C   0  0  0  0  0  0  0  0  0  0  0  0
  130.3890  120.5650   61.8930 C   0  0  0  0  0  0  0  0  0  0  0  0
  129.5990  123.0800   63.0900 C   0  0  0  0  0  0  0  0  0  0  0  0
  129.1460  124.1880   63.7980 C   0  0  0  0  0  0  0  0  0  0  0  0
  129.1270  127.2660   64.8480 C   0  0  0  0  0  0  0  0  0  0  0  0
  129.0420  127.7080   63.4780 C   0  0  0  0  0  0  0  0  0  0  0  0
  129.3240  126.8840   62.4180 N   0  0  0  0  0  0  0  0  0  0  0  0
  128.9630  131.8810   59.7770 C   0  0  0  0  0  0  0  0  0  0  0  0
  129.2560  132.5200   58.5750 C   0  0  0  0  0  0  0  0  0  0  0  0
  1  2  1  0
  2  3  1  0
  3  4  1  0
  4  5  2  0
  4  6  1  0
  6  7  2  0
  7  8  1  0
  8  9  2  0
  9 10  1  0
 10 11  1  0
 11 12  2  0
 11 13  1  0
 13 14  1  0
 14 15  1  0
 15 16  2  0
 16 17  1  0
 17 18  1  0
 18 19  2  0
 19 20  1  0
 20 21  2  0
 21 22  1  0
 22 23  1  0
 23 24  1  0
 24 25  1  0
 25 26  1  0
 26 27  1  0
 21 28  1  0
 28 29  2  0
 17 30  2  0
 30 31  1  0
 31 32  1  0
 32 33  2  0
 33 34  1  0
 34 35  2  0
 35 36  1  0
 36 37  1  0
 37 38  1  0
 38 39  1  0
 39 40  1  0
 40 41  1  0
 35 42  1  0
 42 43  2  0
 31 44  2  0
 44 45  1  0
 45 46  1  0
  9 47  1  0
 47 48  2  0
 48  6  1  0
 45 13  2  0
 44 15  1  0
 29 18  1  0
 43 32  1  0
 27 22  1  0
 41 36  1  0
M  END
>  <Binding energies>  (39) 
[-10.79]

>  <Ligand effiencies>  (39) 
[-0.21156862745098037]

>  <Interactions>  (39) 
["V-A:PRO:540:CB:4885, V-B:GLU:543:C:9874, V-B:GLU:543:CB:9878, V-B:GLY:544:C:9884, V-B:HIS:456:CE1:9040, H-A:GLU:543:OE1:4909, V-A:PRO:540:CA:4883, V-B:GLU:543:CD:9880, V-A:GLU:543:CD:4908, V-A:TYR:539:CD1:4873, V-A:TYR:539:CD2:4874, V-A:ILE:538:CD1:4865, V-A:TYR:539:CE1:4875, V-A:TYR:539:C:4867, V-A:GLU:543:CG:4907, V-A:TYR:531:CE2:4793, V-A:PRO:540:N:4884, H-B:GLU:543:OE2:9882, V-B:ALA:541:CB:9864, V-A:HIS:456:CE1:4069, V-B:GLU:543:CG:9879, V-A:LEU:475:CD1:4258, V-A:ILE:538:CA:4860, V-A:ILE:369:CD1:3239, V-A:PRO:540:CD:4887, H-A:TYR:539:N:4870, V-A:HIS:456:CD2:4068, H-A:LYS:547:NZ:4951, V-B:HIS:456:CD2:9039, V-A:GLU:543:CB:4906, V-A:TYR:539:CA:4869, V-A:PRO:482:CB:4326, V-A:PRO:482:CG:4327, V-A:TRP:381:CZ2:3370, V-A:TRP:381:CH2:3372"]

$$$$
9b_Ghoteimi_2023
     RDKit          3D

 42 48  0  0  0  0  0  0  0  0999 V2000
  129.3480  127.1210   63.2880 N   0  0  0  0  0  0  0  0  0  0  0  0
  128.9160  127.7460   64.4300 C   0  0  0  0  0  0  0  0  0  0  0  0
  128.3260  129.0200   64.4380 C   0  0  0  0  0  0  0  0  0  0  0  0
  128.0350  129.8990   63.3030 C   0  0  0  0  0  0  0  0  0  0  0  0
  127.0590  129.6890   62.5800 O   0  0  0  0  0  0  0  0  0  0  0  0
  128.9050  130.9240   63.1220 N   0  0  0  0  0  0  0  0  0  0  0  0
  128.8750  131.8940   62.1270 C   0  0  0  0  0  0  0  0  0  0  0  0
  127.7380  132.6400   61.8260 C   0  0  0  0  0  0  0  0  0  0  0  0
  128.1200  133.4770   60.8020 C   0  0  0  0  0  0  0  0  0  0  0  0
  129.4210  133.2450   60.5040 O   0  0  0  0  0  0  0  0  0  0  0  0
  129.8880  132.2400   61.3500 N   0  0  0  0  0  0  0  0  0  0  0  0
  127.9240  129.5250   66.0790 S   0  0  0  0  0  0  0  0  0  0  0  0
  128.5630  128.0400   66.7420 C   0  0  0  0  0  0  0  0  0  0  0  0
  128.5740  127.8090   68.0540 N   0  0  0  0  0  0  0  0  0  0  0  0
  129.1100  126.6310   68.4680 C   0  0  0  0  0  0  0  0  0  0  0  0
  129.1290  126.4050   69.9450 C   0  0  0  0  0  0  0  0  0  0  0  0
  128.8250  127.4390   70.8390 C   0  0  0  0  0  0  0  0  0  0  0  0
  128.8590  127.2280   72.2140 C   0  0  0  0  0  0  0  0  0  0  0  0
  129.2120  125.9780   72.7460 C   0  0  0  0  0  0  0  0  0  0  0  0
  129.2470  125.7490   74.1270 N   0  0  0  0  0  0  0  0  0  0  0  0
  128.4410  126.5600   75.0610 C   0  0  0  0  0  0  0  0  0  0  0  0
  128.3340  125.9560   76.4770 C   0  0  0  0  0  0  0  0  0  0  0  0
  129.6290  125.7160   77.0010 O   0  0  0  0  0  0  0  0  0  0  0  0
  130.3550  124.8010   76.1970 C   0  0  0  0  0  0  0  0  0  0  0  0
  130.5220  125.3650   74.7690 C   0  0  0  0  0  0  0  0  0  0  0  0
  129.4950  124.9410   71.8460 C   0  0  0  0  0  0  0  0  0  0  0  0
  129.4570  125.1520   70.4710 C   0  0  0  0  0  0  0  0  0  0  0  0
  129.6050  125.6800   67.5720 C   0  0  0  0  0  0  0  0  0  0  0  0
  129.5770  125.9100   66.1910 C   0  0  0  0  0  0  0  0  0  0  0  0
  130.0880  124.8550   65.2790 C   0  0  0  0  0  0  0  0  0  0  0  0
  129.4540  123.6140   65.2120 C   0  0  0  0  0  0  0  0  0  0  0  0
  129.9190  122.6310   64.3450 C   0  0  0  0  0  0  0  0  0  0  0  0
  131.0320  122.8610   63.5210 C   0  0  0  0  0  0  0  0  0  0  0  0
  131.5060  121.8930   62.6320 N   0  0  0  0  0  0  0  0  0  0  0  0
  130.5470  121.1660   61.7780 C   0  0  0  0  0  0  0  0  0  0  0  0
  131.1390  119.8810   61.1580 C   0  0  0  0  0  0  0  0  0  0  0  0
  132.3200  120.1910   60.4340 O   0  0  0  0  0  0  0  0  0  0  0  0
  133.3100  120.7730   61.2690 C   0  0  0  0  0  0  0  0  0  0  0  0
  132.7740  122.0770   61.8970 C   0  0  0  0  0  0  0  0  0  0  0  0
  131.6500  124.1190   63.5840 C   0  0  0  0  0  0  0  0  0  0  0  0
  131.1840  125.1030   64.4520 C   0  0  0  0  0  0  0  0  0  0  0  0
  129.0520  127.1530   65.7370 C   0  0  0  0  0  0  0  0  0  0  0  0
  1  2  1  0
  2  3  2  0
  3  4  1  0
  4  5  2  0
  4  6  1  0
  6  7  1  0
  7  8  1  0
  8  9  2  0
  9 10  1  0
 10 11  1  0
  3 12  1  0
 12 13  1  0
 13 14  2  0
 14 15  1  0
 15 16  1  0
 16 17  2  0
 17 18  1  0
 18 19  2  0
 19 20  1  0
 20 21  1  0
 21 22  1  0
 22 23  1  0
 23 24  1  0
 24 25  1  0
 19 26  1  0
 26 27  2  0
 15 28  2  0
 28 29  1  0
 29 30  1  0
 30 31  2  0
 31 32  1  0
 32 33  2  0
 33 34  1  0
 34 35  1  0
 35 36  1  0
 36 37  1  0
 37 38  1  0
 38 39  1  0
 33 40  1  0
 40 41  2  0
 29 42  2  0
 42  2  1  0
 11  7  2  0
 42 13  1  0
 27 16  1  0
 41 30  1  0
 25 20  1  0
 39 34  1  0
M  END
>  <Binding energies>  (40) 
[-9.71]

>  <Ligand effiencies>  (40) 
[-0.2157777777777778]

>  <Interactions>  (40) 
["V-A:ALA:541:CB:4892, V-B:GLU:543:CB:9878, H-A:GLU:543:OE2:4910, V-B:HIS:456:CE1:9040, H-A:GLU:543:OE1:4909, V-A:GLU:543:CD:4908, H-B:GLU:543:OE1:9881, V-B:ALA:541:CB:9864, V-A:HIS:456:CE1:4069, V-B:GLU:543:CG:9879, V-A:LEU:475:CD1:4258, V-A:TYR:484:CE1:4345, V-B:TYR:539:CD2:9846, V-A:ILE:369:CD1:3239, V-A:ILE:369:CG2:3237, V-A:HIS:456:CD2:4068, V-B:GLU:543:CA:9876, V-A:GLU:543:CB:4906, V-A:TRP:381:CH2:3372, V-B:LYS:547:CD:9921, H-A:ALA:541:N:4891"]

$$$$
9c_Ghoteimi_2023
     RDKit          3D

 42 48  0  0  0  0  0  0  0  0999 V2000
  129.1630  127.0890   63.3580 N   0  0  0  0  0  0  0  0  0  0  0  0
  128.7820  127.6940   64.5290 C   0  0  0  0  0  0  0  0  0  0  0  0
  128.1800  128.9600   64.5840 C   0  0  0  0  0  0  0  0  0  0  0  0
  127.8280  129.8540   63.4770 C   0  0  0  0  0  0  0  0  0  0  0  0
  126.8340  129.6360   62.7820 O   0  0  0  0  0  0  0  0  0  0  0  0
  128.6670  130.9020   63.2860 N   0  0  0  0  0  0  0  0  0  0  0  0
  128.5710  131.8800   62.3070 C   0  0  0  0  0  0  0  0  0  0  0  0
  129.5120  132.3000   61.4890 N   0  0  0  0  0  0  0  0  0  0  0  0
  129.0680  133.2500   60.6870 C   0  0  0  0  0  0  0  0  0  0  0  0
  127.7360  133.6200   60.8490 C   0  0  0  0  0  0  0  0  0  0  0  0
  127.0350  132.6660   62.1210 S   0  0  0  0  0  0  0  0  0  0  0  0
  127.8520  129.4380   66.2500 S   0  0  0  0  0  0  0  0  0  0  0  0
  128.5380  127.9510   66.8590 C   0  0  0  0  0  0  0  0  0  0  0  0
  128.6130  127.7000   68.1660 N   0  0  0  0  0  0  0  0  0  0  0  0
  129.1790  126.5220   68.5360 C   0  0  0  0  0  0  0  0  0  0  0  0
  129.2710  126.2770   70.0070 C   0  0  0  0  0  0  0  0  0  0  0  0
  129.5060  124.9940   70.5150 C   0  0  0  0  0  0  0  0  0  0  0  0
  129.5810  124.7690   71.8850 C   0  0  0  0  0  0  0  0  0  0  0  0
  129.4100  125.8190   72.8020 C   0  0  0  0  0  0  0  0  0  0  0  0
  129.4900  125.6100   74.1840 N   0  0  0  0  0  0  0  0  0  0  0  0
  128.7700  126.4810   75.1360 C   0  0  0  0  0  0  0  0  0  0  0  0
  128.6840  125.9050   76.5650 C   0  0  0  0  0  0  0  0  0  0  0  0
  129.9850  125.5990   77.0420 O   0  0  0  0  0  0  0  0  0  0  0  0
  130.6220  124.6310   76.2250 C   0  0  0  0  0  0  0  0  0  0  0  0
  130.7650  125.1640   74.7820 C   0  0  0  0  0  0  0  0  0  0  0  0
  129.1940  127.1050   72.2880 C   0  0  0  0  0  0  0  0  0  0  0  0
  129.1230  127.3300   70.9160 C   0  0  0  0  0  0  0  0  0  0  0  0
  129.6400  125.5900   67.6030 C   0  0  0  0  0  0  0  0  0  0  0  0
  129.5430  125.8390   66.2300 C   0  0  0  0  0  0  0  0  0  0  0  0
  130.0180  124.8040   65.2790 C   0  0  0  0  0  0  0  0  0  0  0  0
  131.0840  125.0730   64.4180 C   0  0  0  0  0  0  0  0  0  0  0  0
  131.5440  124.0990   63.5370 C   0  0  0  0  0  0  0  0  0  0  0  0
  130.9480  122.8290   63.4910 C   0  0  0  0  0  0  0  0  0  0  0  0
  131.4000  121.8320   62.6210 N   0  0  0  0  0  0  0  0  0  0  0  0
  130.4160  121.0570   61.8390 C   0  0  0  0  0  0  0  0  0  0  0  0
  131.0000  119.7600   61.2390 C   0  0  0  0  0  0  0  0  0  0  0  0
  132.1420  120.0610   60.4510 O   0  0  0  0  0  0  0  0  0  0  0  0
  133.1590  120.6870   61.2190 C   0  0  0  0  0  0  0  0  0  0  0  0
  132.6300  122.0050   61.8240 C   0  0  0  0  0  0  0  0  0  0  0  0
  129.8910  122.5630   64.3740 C   0  0  0  0  0  0  0  0  0  0  0  0
  129.4310  123.5370   65.2560 C   0  0  0  0  0  0  0  0  0  0  0  0
  128.9850  127.0840   65.8190 C   0  0  0  0  0  0  0  0  0  0  0  0
  1  2  1  0
  2  3  2  0
  3  4  1  0
  4  5  2  0
  4  6  1  0
  6  7  1  0
  7  8  2  0
  8  9  1  0
  9 10  2  0
 10 11  1  0
  3 12  1  0
 12 13  1  0
 13 14  2  0
 14 15  1  0
 15 16  1  0
 16 17  2  0
 17 18  1  0
 18 19  2  0
 19 20  1  0
 20 21  1  0
 21 22  1  0
 22 23  1  0
 23 24  1  0
 24 25  1  0
 19 26  1  0
 26 27  2  0
 15 28  2  0
 28 29  1  0
 29 30  1  0
 30 31  2  0
 31 32  1  0
 32 33  2  0
 33 34  1  0
 34 35  1  0
 35 36  1  0
 36 37  1  0
 37 38  1  0
 38 39  1  0
 33 40  1  0
 40 41  2  0
 29 42  2  0
 42  2  1  0
 11  7  1  0
 42 13  1  0
 27 16  1  0
 41 30  1  0
 25 20  1  0
 39 34  1  0
M  END
>  <Binding energies>  (41) 
[-9.57]

>  <Ligand effiencies>  (41) 
[-0.21266666666666667]

>  <Interactions>  (41) 
["V-A:ALA:541:CB:4892, V-B:GLU:543:CB:9878, H-A:GLU:543:OE2:4910, V-B:HIS:456:CE1:9040, H-A:GLU:543:OE1:4909, V-B:LEU:475:CD1:9229, V-A:PRO:540:CA:4883, V-A:GLU:543:CD:4908, V-A:TYR:539:CD2:4874, V-A:PRO:540:C:4881, V-A:TYR:539:C:4867, V-A:PRO:540:N:4884, H-B:GLU:543:OE1:9881, H-B:GLU:543:OE2:9882, V-B:ALA:541:CB:9864, V-A:HIS:456:CE1:4069, V-B:GLU:543:CG:9879, V-A:LEU:475:CD1:4258, V-A:TYR:484:CE1:4345, V-B:TYR:539:CD2:9846, V-A:ILE:369:CD1:3239, V-A:ILE:369:CG2:3237, V-A:HIS:456:CD2:4068, V-B:GLU:543:CA:9876, V-A:GLU:543:CB:4906, V-A:TRP:381:CH2:3372, H-A:ALA:541:N:4891"]

$$$$
RR11_Rahimova_2017
     RDKit          3D

 33 38  0  0  0  0  0  0  0  0999 V2000
  132.4770  132.1090   54.6310 N   0  0  0  0  0  0  0  0  0  0  0  0
  131.5950  132.1120   55.7090 C   0  0  0  0  0  0  0  0  0  0  0  0
  130.2720  132.5080   55.5220 C   0  0  0  0  0  0  0  0  0  0  0  0
  129.3910  132.5080   56.6000 C   0  0  0  0  0  0  0  0  0  0  0  0
  129.8220  132.1120   57.8730 C   0  0  0  0  0  0  0  0  0  0  0  0
  128.8700  132.1070   59.0310 C   0  0  0  0  0  0  0  0  0  0  0  0
  127.8200  131.3210   59.1270 N   0  0  0  0  0  0  0  0  0  0  0  0
  127.2440  131.6310   60.3310 C   0  0  0  0  0  0  0  0  0  0  0  0
  126.1020  131.0850   60.9330 C   0  0  0  0  0  0  0  0  0  0  0  0
  125.7210  131.5630   62.1920 C   0  0  0  0  0  0  0  0  0  0  0  0
  124.4810  130.9940   62.8690 C   0  0  0  0  0  0  0  0  0  0  0  0
  124.8010  130.2210   64.1410 C   0  0  0  0  0  0  0  0  0  0  0  0
  123.8940  130.2450   65.2070 C   0  0  0  0  0  0  0  0  0  0  0  0
  124.1390  129.5460   66.3910 C   0  0  0  0  0  0  0  0  0  0  0  0
  125.3230  128.8040   66.4870 C   0  0  0  0  0  0  0  0  0  0  0  0
  125.7920  128.0480   67.5300 N   0  0  0  0  0  0  0  0  0  0  0  0
  126.9450  127.5660   67.1180 C   0  0  0  0  0  0  0  0  0  0  0  0
  127.8390  126.6830   67.9420 C   0  0  0  0  0  0  0  0  0  0  0  0
  127.6780  126.6080   69.3310 C   0  0  0  0  0  0  0  0  0  0  0  0
  128.5140  125.7980   70.0960 C   0  0  0  0  0  0  0  0  0  0  0  0
  129.5160  125.0560   69.4760 C   0  0  0  0  0  0  0  0  0  0  0  0
  130.3560  124.2480   70.2420 N   0  0  0  0  0  0  0  0  0  0  0  0
  129.6850  125.1180   68.0950 C   0  0  0  0  0  0  0  0  0  0  0  0
  128.8490  125.9280   67.3310 C   0  0  0  0  0  0  0  0  0  0  0  0
  127.2470  127.9740   65.8360 N   0  0  0  0  0  0  0  0  0  0  0  0
  126.2240  128.7790   65.3960 C   0  0  0  0  0  0  0  0  0  0  0  0
  125.9830  129.4720   64.2070 C   0  0  0  0  0  0  0  0  0  0  0  0
  126.4490  132.5800   62.8200 C   0  0  0  0  0  0  0  0  0  0  0  0
  127.5890  133.1480   62.2440 C   0  0  0  0  0  0  0  0  0  0  0  0
  127.9680  132.6500   60.9950 C   0  0  0  0  0  0  0  0  0  0  0  0
  129.0000  132.9310   60.1310 N   0  0  0  0  0  0  0  0  0  0  0  0
  131.1560  131.7180   58.0470 C   0  0  0  0  0  0  0  0  0  0  0  0
  132.0390  131.7170   56.9700 C   0  0  0  0  0  0  0  0  0  0  0  0
  1  2  1  0
  2  3  2  0
  3  4  1  0
  4  5  2  0
  5  6  1  0
  6  7  2  0
  7  8  1  0
  8  9  2  0
  9 10  1  0
 10 11  1  0
 11 12  1  0
 12 13  2  0
 13 14  1  0
 14 15  2  0
 15 16  1  0
 16 17  2  0
 17 18  1  0
 18 19  2  0
 19 20  1  0
 20 21  2  0
 21 22  1  0
 21 23  1  0
 23 24  2  0
 17 25  1  0
 25 26  1  0
 26 27  2  0
 10 28  2  0
 28 29  1  0
 29 30  2  0
 30 31  1  0
  5 32  1  0
 32 33  2  0
 33  2  1  0
 31  6  1  0
 30  8  1  0
 27 12  1  0
 26 15  1  0
 24 18  1  0
M  END
>  <Binding energies>  (42) 
[-8.65]

>  <Ligand effiencies>  (42) 
[-0.2217948717948718]

>  <Interactions>  (42) 
["V-B:ARG:545:CD:9895, V-A:PRO:540:CB:4885, V-B:GLU:543:C:9874, V-A:ALA:541:CB:4892, V-B:GLU:543:CB:9878, V-B:GLY:544:C:9884, V-B:HIS:456:CE1:9040, V-B:LEU:475:CD1:9229, V-A:PRO:540:CA:4883, V-B:GLU:543:CD:9880, V-B:ARG:545:CG:9894, V-A:TYR:539:CD1:4873, V-A:ILE:538:CD1:4865, V-A:TYR:539:CG:4872, V-A:TYR:539:CE1:4875, V-A:PRO:540:C:4881, V-A:TYR:539:C:4867, V-A:TYR:539:CZ:4877, V-A:TYR:531:CE2:4793, V-A:PRO:540:N:4884, H-B:GLU:543:OE1:9881, V-B:ARG:545:CZ:9898, V-B:GLY:454:CA:9020, H-A:TYR:484:OH:4348, V-A:HIS:456:CE1:4069, V-A:TYR:484:CE1:4345, V-A:TYR:484:CZ:4347, V-A:PRO:540:CD:4887, V-A:ILE:538:CG2:4863, V-A:LEU:363:CD1:3189, V-A:HIS:456:CG:4066, V-A:HIS:456:CD2:4068, V-A:TYR:484:CD1:4343, V-A:TYR:484:CE2:4346, H-A:TYR:531:OH:4795, V-B:GLY:453:C:9013, H-B:GLU:543:O:9875, H-A:TYR:539:O:4868, H-A:HIS:456:ND1:4067"]

$$$$
RR16_Rahimova_2017
     RDKit          3D

 44 49  0  0  0  0  0  0  0  0999 V2000
  130.4150  124.5210   73.0150 O   0  0  0  0  0  0  0  0  0  0  0  0
  130.0820  125.9470   73.1020 S   0  0  0  0  0  0  0  0  0  0  0  0
  131.1270  126.9520   73.3270 O   0  0  0  0  0  0  0  0  0  0  0  0
  128.8620  126.1320   74.3640 N   0  0  0  0  0  0  0  0  0  0  0  0
  127.6840  127.0080   74.1620 C   0  0  0  0  0  0  0  0  0  0  0  0
  126.4730  126.4180   74.9310 C   0  0  0  0  0  0  0  0  0  0  0  0
  125.0690  126.8930   74.5110 C   0  0  0  0  0  0  0  0  0  0  0  0
  124.6560  128.2420   75.1260 C   0  0  0  0  0  0  0  0  0  0  0  0
  125.6660  129.3960   74.9560 C   0  0  0  0  0  0  0  0  0  0  0  0
  127.0940  129.1650   75.4890 C   0  0  0  0  0  0  0  0  0  0  0  0
  128.0780  128.4550   74.5390 C   0  0  0  0  0  0  0  0  0  0  0  0
  129.2260  126.3730   71.5900 C   0  0  0  0  0  0  0  0  0  0  0  0
  128.3270  125.4730   71.0110 C   0  0  0  0  0  0  0  0  0  0  0  0
  127.7620  125.7650   69.7730 C   0  0  0  0  0  0  0  0  0  0  0  0
  128.0960  126.9530   69.1200 C   0  0  0  0  0  0  0  0  0  0  0  0
  127.4820  127.2660   67.4670 S   0  0  0  0  0  0  0  0  0  0  0  0
  127.5710  128.7130   67.2310 O   0  0  0  0  0  0  0  0  0  0  0  0
  126.1950  126.5710   67.3370 O   0  0  0  0  0  0  0  0  0  0  0  0
  128.6540  126.4570   66.4080 N   0  0  0  0  0  0  0  0  0  0  0  0
  128.9640  127.1950   65.1560 C   0  0  0  0  0  0  0  0  0  0  0  0
  129.7320  126.2890   64.1720 C   0  0  0  0  0  0  0  0  0  0  0  0
  130.9850  125.6590   64.8290 C   0  0  0  0  0  0  0  0  0  0  0  0
  131.7360  124.7190   63.8820 C   0  0  0  0  0  0  0  0  0  0  0  0
  133.1030  124.9180   63.6430 C   0  0  0  0  0  0  0  0  0  0  0  0
  133.8280  124.0810   62.7940 C   0  0  0  0  0  0  0  0  0  0  0  0
  135.1660  124.2900   62.5750 O   0  0  0  0  0  0  0  0  0  0  0  0
  133.1520  123.0180   62.1760 C   0  0  0  0  0  0  0  0  0  0  0  0
  133.5970  122.0460   61.3270 N   0  0  0  0  0  0  0  0  0  0  0  0
  132.5270  121.2270   61.0380 N   0  0  0  0  0  0  0  0  0  0  0  0
  131.4370  121.7140   61.6630 N   0  0  0  0  0  0  0  0  0  0  0  0
  130.1730  120.9920   61.6020 C   0  0  0  0  0  0  0  0  0  0  0  0
  129.0540  121.8190   60.9840 C   0  0  0  0  0  0  0  0  0  0  0  0
  128.3040  122.6910   61.7800 C   0  0  0  0  0  0  0  0  0  0  0  0
  127.2920  123.4660   61.2120 C   0  0  0  0  0  0  0  0  0  0  0  0
  127.0270  123.3760   59.8450 C   0  0  0  0  0  0  0  0  0  0  0  0
  127.7730  122.5100   59.0450 C   0  0  0  0  0  0  0  0  0  0  0  0
  127.4540  122.4030   57.3530 Cl  0  0  0  0  0  0  0  0  0  0  0  0
  128.7830  121.7300   59.6150 C   0  0  0  0  0  0  0  0  0  0  0  0
  131.7710  122.8280   62.4160 C   0  0  0  0  0  0  0  0  0  0  0  0
  131.0420  123.6690   63.2630 C   0  0  0  0  0  0  0  0  0  0  0  0
  130.6650  125.0020   66.1980 C   0  0  0  0  0  0  0  0  0  0  0  0
  129.8580  125.9450   67.1130 C   0  0  0  0  0  0  0  0  0  0  0  0
  128.9620  127.8710   69.7200 C   0  0  0  0  0  0  0  0  0  0  0  0
  129.5300  127.5780   70.9550 C   0  0  0  0  0  0  0  0  0  0  0  0
  1  2  2  0
  2  3  2  0
  2  4  1  0
  4  5  1  0
  5  6  1  0
  6  7  1  0
  7  8  1  0
  8  9  1  0
  9 10  1  0
 10 11  1  0
  2 12  1  0
 12 13  2  0
 13 14  1  0
 14 15  2  0
 15 16  1  0
 16 17  2  0
 16 18  2  0
 16 19  1  0
 19 20  1  0
 20 21  1  0
 21 22  1  0
 22 23  1  0
 23 24  2  0
 24 25  1  0
 25 26  1  0
 25 27  2  0
 27 28  1  0
 28 29  2  0
 29 30  1  0
 30 31  1  0
 31 32  1  0
 32 33  2  0
 33 34  1  0
 34 35  2  0
 35 36  1  0
 36 37  1  0
 36 38  2  0
 30 39  1  0
 39 40  2  0
 22 41  1  0
 41 42  1  0
 15 43  1  0
 43 44  2  0
 11  5  1  0
 44 12  1  0
 42 19  1  0
 40 23  1  0
 39 27  1  0
 38 32  1  0
M  END
>  <Binding energies>  (43) 
[-9.88]

>  <Ligand effiencies>  (43) 
[-0.20583333333333334]

>  <Interactions>  (43) 
["V-B:GLU:543:C:9874, V-B:GLU:543:CB:9878, V-B:GLY:544:C:9884, V-B:HIS:456:CE1:9040, V-B:GLU:543:CD:9880, V-A:GLU:543:CD:4908, V-A:ARG:545:CZ:4926, V-B:TYR:539:CZ:9849, V-B:ALA:541:CB:9864, V-A:HIS:456:CE1:4069, H-A:ARG:545:NH1:4927, V-B:GLU:543:CG:9879, V-A:LEU:475:CD1:4258, V-A:TYR:484:CE1:4345, V-B:PRO:540:N:9856, V-A:TYR:484:CZ:4347, H-A:GLY:454:N:4050, V-B:TYR:539:CD2:9846, V-B:PRO:540:CA:9855, V-B:TYR:539:C:9839, V-B:TYR:539:CE2:9848, H-A:HIS:456:NE2:4070, V-A:HIS:456:CD2:4068, H-A:LYS:547:NZ:4951, H-B:LYS:547:NZ:9923, V-B:HIS:456:CD2:9039, V-B:HIS:456:CG:9037, V-B:VAL:457:C:9044, V-B:VAL:458:CG2:9058, V-B:HIS:456:CB:9036, V-B:HIS:456:C:9032, V-B:LYS:471:CE:9191, V-B:TYR:539:CG:9844, V-B:TYR:539:CA:9841, V-B:LYS:547:CD:9921, V-B:LYS:547:CE:9922, V-B:GLY:544:CA:9886, H-A:ASP:366:OD2:3215"]

$$$$
RR18_Rahimova_2017
     RDKit          3D

 36 41  0  0  0  0  0  0  0  0999 V2000
  128.3310  127.6250   57.9620 C   0  0  0  0  0  0  0  0  0  0  0  0
  128.5500  127.8410   59.4380 C   0  0  0  0  0  0  0  0  0  0  0  0
  128.8510  127.0060   60.5020 C   0  0  0  0  0  0  0  0  0  0  0  0
  128.9270  127.8110   61.6380 C   0  0  0  0  0  0  0  0  0  0  0  0
  128.6690  129.1090   61.2270 C   0  0  0  0  0  0  0  0  0  0  0  0
  128.6040  130.4530   61.9480 C   0  0  1  0  0  0  0  0  0  0  0  0
  128.4930  131.6370   60.9410 C   0  0  0  0  0  0  0  0  0  0  0  0
  129.5880  131.9290   60.0210 C   0  0  0  0  0  0  0  0  0  0  0  0
  130.6140  132.5020   60.3930 O   0  0  0  0  0  0  0  0  0  0  0  0
  129.3770  131.5030   58.7540 N   0  0  0  0  0  0  0  0  0  0  0  0
  130.1870  131.6220   57.6040 C   0  0  0  0  0  0  0  0  0  0  0  0
  129.8490  132.4220   56.4970 C   0  0  0  0  0  0  0  0  0  0  0  0
  130.6900  132.4910   55.3880 C   0  0  0  0  0  0  0  0  0  0  0  0
  131.8740  131.7600   55.3630 C   0  0  0  0  0  0  0  0  0  0  0  0
  132.2160  130.9550   56.4470 C   0  0  0  0  0  0  0  0  0  0  0  0
  131.3830  130.8770   57.5680 C   0  0  0  0  0  0  0  0  0  0  0  0
  131.8010  129.9760   58.7270 C   0  0  0  0  0  0  0  0  0  0  0  0
  127.3200  132.3190   60.8700 C   0  0  0  0  0  0  0  0  0  0  0  0
  126.2580  132.1260   61.7000 N   0  0  0  0  0  0  0  0  0  0  0  0
  126.3640  131.3050   62.6800 C   0  0  0  0  0  0  0  0  0  0  0  0
  125.1460  131.0660   63.9100 S   0  0  0  0  0  0  0  0  0  0  0  0
  126.1670  129.8660   64.7620 C   0  0  0  0  0  0  0  0  0  0  0  0
  125.8590  129.1810   65.9180 C   0  0  0  0  0  0  0  0  0  0  0  0
  124.6080  129.4630   66.6360 C   0  0  0  0  0  0  0  0  0  0  0  0
  123.6970  130.2440   66.3630 O   0  0  0  0  0  0  0  0  0  0  0  0
  124.5990  128.7020   67.7350 N   0  0  0  0  0  0  0  0  0  0  0  0
  125.6950  127.9000   67.8350 C   0  0  0  0  0  0  0  0  0  0  0  0
  125.9920  126.9800   68.8400 C   0  0  0  0  0  0  0  0  0  0  0  0
  127.1590  126.2280   68.7390 C   0  0  0  0  0  0  0  0  0  0  0  0
  127.9980  126.4000   67.6390 C   0  0  0  0  0  0  0  0  0  0  0  0
  127.6780  127.3290   66.6450 C   0  0  0  0  0  0  0  0  0  0  0  0
  126.5150  128.1160   66.7410 C   0  0  0  0  0  0  0  0  0  0  0  0
  127.4220  129.7340   64.0220 C   0  0  0  0  0  0  0  0  0  0  0  0
  128.3850  129.0410   64.3350 O   0  0  0  0  0  0  0  0  0  0  0  0
  127.4400  130.5080   62.9020 N   0  0  0  0  0  0  0  0  0  0  0  0
  128.4400  129.1180   59.8870 O   0  0  0  0  0  0  0  0  0  0  0  0
  1  2  1  0
  2  3  2  0
  3  4  1  0
  4  5  2  0
  6  5  1  6
  6  7  1  0
  7  8  1  0
  8  9  2  0
  8 10  1  0
 10 11  1  0
 11 12  2  0
 12 13  1  0
 13 14  2  0
 14 15  1  0
 15 16  2  0
 16 17  1  0
  7 18  2  0
 18 19  1  0
 19 20  2  0
 20 21  1  0
 21 22  1  0
 22 23  2  0
 23 24  1  0
 24 25  2  0
 24 26  1  0
 26 27  1  0
 27 28  2  0
 28 29  1  0
 29 30  2  0
 30 31  1  0
 31 32  2  0
 22 33  1  0
 33 34  2  0
 33 35  1  0
  5 36  1  0
 36  2  1  0
 35  6  1  0
 16 11  1  0
 35 20  1  0
 32 23  1  0
 32 27  1  0
M  END
>  <Binding energies>  (44) 
[-8.88]

>  <Ligand effiencies>  (44) 
[-0.2336842105263158]

>  <Interactions>  (44) 
["V-B:ARG:545:CD:9895, V-B:GLU:543:C:9874, V-B:GLU:543:CB:9878, V-B:GLY:544:C:9884, V-B:HIS:456:CE1:9040, V-A:PRO:540:CA:4883, V-B:GLU:543:CD:9880, V-B:ARG:545:CG:9894, V-B:ARG:545:CA:9891, V-A:TYR:539:CD1:4873, V-A:ILE:538:CD1:4865, V-A:TYR:539:CE1:4875, V-A:TYR:539:C:4867, V-A:TYR:531:CE2:4793, V-A:PRO:540:N:4884, V-A:ILE:538:CA:4860, V-A:LEU:363:CD1:3189, H-B:GLY:454:N:9021, H-B:TYR:484:OH:9319, H-B:ILE:455:N:9026, V-B:TYR:484:CZ:9318, H-A:ALA:541:N:4891, H-B:HIS:456:ND1:9038, V-B:ARG:545:CB:9893, H-B:ILE:455:O:9024"]

$$$$
RR20_Rahimova_2017
     RDKit          3D

 38 43  0  0  0  0  0  0  0  0999 V2000
  133.9460  118.6270   61.1170 C   0  0  0  0  0  0  0  0  0  0  0  0
  132.7210  119.5190   61.0290 C   0  0  0  0  0  0  0  0  0  0  0  0
  131.4810  119.0410   61.4560 C   0  0  0  0  0  0  0  0  0  0  0  0
  130.3580  119.8600   61.3840 C   0  0  0  0  0  0  0  0  0  0  0  0
  130.4620  121.1590   60.8720 C   0  0  0  0  0  0  0  0  0  0  0  0
  129.2330  122.0400   60.8220 C   0  0  0  0  0  0  0  0  0  0  0  0
  128.1920  121.5440   60.3840 O   0  0  0  0  0  0  0  0  0  0  0  0
  129.3140  123.3270   61.2680 N   0  0  0  0  0  0  0  0  0  0  0  0
  128.9820  124.4680   60.3990 C   0  0  0  0  0  0  0  0  0  0  0  0
  129.0400  125.7070   61.2770 C   0  0  0  0  0  0  0  0  0  0  0  0
  129.0320  125.1350   62.6620 C   0  0  0  0  0  0  0  0  0  0  0  0
  128.9850  125.8000   63.8880 C   0  0  0  0  0  0  0  0  0  0  0  0
  129.1520  125.0970   65.0880 C   0  0  0  0  0  0  0  0  0  0  0  0
  129.0940  125.8120   66.4090 C   0  0  0  0  0  0  0  0  0  0  0  0
  129.1890  125.0940   67.5170 N   0  0  0  0  0  0  0  0  0  0  0  0
  129.1460  125.8200   68.6050 C   0  0  0  0  0  0  0  0  0  0  0  0
  129.2240  125.3910   69.9210 N   0  0  0  0  0  0  0  0  0  0  0  0
  129.4790  126.1530   71.0130 C   0  0  0  0  0  0  0  0  0  0  0  0
  129.6590  127.3720   70.9750 O   0  0  0  0  0  0  0  0  0  0  0  0
  129.5200  125.4550   72.3930 C   0  0  0  0  0  0  0  0  0  0  0  0
  128.6210  126.0810   73.3810 N   0  0  0  0  0  0  0  0  0  0  0  0
  129.2470  127.2220   74.0660 C   0  0  0  0  0  0  0  0  0  0  0  0
  128.3770  127.6670   75.2630 C   0  0  0  0  0  0  0  0  0  0  0  0
  126.8910  127.7700   74.9170 C   0  0  0  0  0  0  0  0  0  0  0  0
  125.9920  128.4070   75.7790 C   0  0  0  0  0  0  0  0  0  0  0  0
  124.6330  128.4680   75.4820 C   0  0  0  0  0  0  0  0  0  0  0  0
  124.1550  127.8900   74.3100 C   0  0  0  0  0  0  0  0  0  0  0  0
  125.0400  127.2600   73.4380 C   0  0  0  0  0  0  0  0  0  0  0  0
  126.4080  127.1910   73.7250 C   0  0  0  0  0  0  0  0  0  0  0  0
  127.3870  126.5520   72.7410 C   0  0  0  0  0  0  0  0  0  0  0  0
  128.9650  127.5080   68.3280 S   0  0  0  0  0  0  0  0  0  0  0  0
  128.9380  127.2000   66.6080 C   0  0  0  0  0  0  0  0  0  0  0  0
  128.7440  128.3380   65.6290 C   0  0  0  0  0  0  0  0  0  0  0  0
  129.4220  123.7210   65.0260 C   0  0  0  0  0  0  0  0  0  0  0  0
  129.4880  123.0570   63.8010 C   0  0  0  0  0  0  0  0  0  0  0  0
  129.2350  123.7560   62.6130 C   0  0  0  0  0  0  0  0  0  0  0  0
  131.7140  121.6420   60.4730 C   0  0  0  0  0  0  0  0  0  0  0  0
  132.8390  120.8230   60.5460 C   0  0  0  0  0  0  0  0  0  0  0  0
  1  2  1  0
  2  3  2  0
  3  4  1  0
  4  5  2  0
  5  6  1  0
  6  7  2  0
  6  8  1  0
  8  9  1  0
  9 10  1  0
 10 11  1  0
 11 12  2  0
 12 13  1  0
 13 14  1  0
 14 15  1  0
 15 16  2  0
 16 17  1  0
 17 18  1  0
 18 19  2  0
 18 20  1  0
 20 21  1  0
 21 22  1  0
 22 23  1  0
 23 24  1  0
 24 25  2  0
 25 26  1  0
 26 27  2  0
 27 28  1  0
 28 29  2  0
 29 30  1  0
 16 31  1  0
 31 32  1  0
 32 33  1  0
 13 34  2  0
 34 35  1  0
 35 36  2  0
  5 37  1  0
 37 38  2  0
 38  2  1  0
 36  8  1  0
 36 11  1  0
 32 14  2  0
 30 21  1  0
 29 24  1  0
M  END
>  <Binding energies>  (45) 
[-10.9]

>  <Ligand effiencies>  (45) 
[-0.2794871794871795]

>  <Interactions>  (45) 
["V-B:GLU:543:C:9874, V-B:GLU:543:CB:9878, V-B:GLY:544:C:9884, V-B:HIS:456:CE1:9040, V-B:GLU:543:CD:9880, V-A:GLU:543:CD:4908, V-B:ARG:545:CA:9891, V-A:GLU:543:CG:4907, V-B:ALA:541:CB:9864, V-A:HIS:456:CE1:4069, V-B:GLU:543:CG:9879, V-A:LEU:475:CD1:4258, V-A:TYR:484:CE1:4345, V-B:TYR:539:CD2:9846, V-B:TYR:539:CE2:9848, V-A:ILE:369:CD1:3239, V-A:ILE:369:CG2:3237, H-B:ALA:541:N:9863, H-A:HIS:456:NE2:4070, V-A:HIS:456:CD2:4068, H-B:LYS:547:NZ:9923, V-B:GLU:543:CA:9876, V-B:VAL:457:CA:9046, V-B:HIS:456:CG:9037, V-B:VAL:457:C:9044, V-B:VAL:458:CG2:9058, V-B:HIS:456:CB:9036, V-B:HIS:456:C:9032, V-B:HIS:456:CA:9034, V-A:GLU:543:CB:4906, V-A:PRO:482:CB:4326, V-A:PRO:482:CG:4327, V-A:TRP:381:CZ2:3370, V-A:TRP:381:CH2:3372, V-A:SER:385:CB:3409, V-A:SER:385:C:3405, V-A:SER:385:CA:3407, H-B:GLU:543:O:9875, V-B:ARG:545:C:9889"]

$$$$
RR21_Rahimova_2017
     RDKit          3D

 40 45  0  0  0  0  0  0  0  0999 V2000
  124.0000  130.6170   63.2170 C   0  0  0  0  0  0  0  0  0  0  0  0
  124.1340  130.6120   64.6350 O   0  0  0  0  0  0  0  0  0  0  0  0
  125.0810  129.7940   65.2210 C   0  0  0  0  0  0  0  0  0  0  0  0
  126.3620  129.5630   64.6920 C   0  0  0  0  0  0  0  0  0  0  0  0
  127.2610  128.7240   65.3490 C   0  0  0  0  0  0  0  0  0  0  0  0
  126.9070  128.0980   66.5500 C   0  0  0  0  0  0  0  0  0  0  0  0
  127.8770  127.2000   67.2560 C   0  0  0  0  0  0  0  0  0  0  0  0
  127.9250  127.1960   68.5740 N   0  0  0  0  0  0  0  0  0  0  0  0
  128.8700  126.3090   68.9210 N   0  0  0  0  0  0  0  0  0  0  0  0
  129.1690  126.0400   70.2820 C   0  0  0  0  0  0  0  0  0  0  0  0
  129.6630  124.7860   70.6740 C   0  0  0  0  0  0  0  0  0  0  0  0
  129.9580  124.5350   72.0120 C   0  0  0  0  0  0  0  0  0  0  0  0
  129.7590  125.5350   72.9610 C   0  0  0  0  0  0  0  0  0  0  0  0
  129.2670  126.7820   72.5860 C   0  0  0  0  0  0  0  0  0  0  0  0
  128.9710  127.0360   71.2490 C   0  0  0  0  0  0  0  0  0  0  0  0
  129.4140  125.7330   67.8010 C   0  0  0  0  0  0  0  0  0  0  0  0
  128.8040  126.2960   66.6900 C   0  0  0  0  0  0  0  0  0  0  0  0
  129.0170  125.9730   65.2880 C   0  0  0  0  0  0  0  0  0  0  0  0
  130.1560  125.5580   64.6870 C   0  0  0  0  0  0  0  0  0  0  0  0
  131.7480  125.2900   65.4310 S   0  0  0  0  0  0  0  0  0  0  0  0
  132.3770  124.7850   63.8700 C   0  0  0  0  0  0  0  0  0  0  0  0
  133.5780  124.3820   63.5890 N   0  0  0  0  0  0  0  0  0  0  0  0
  133.9570  123.9870   62.2760 C   0  0  0  0  0  0  0  0  0  0  0  0
  135.0640  123.5750   61.9330 O   0  0  0  0  0  0  0  0  0  0  0  0
  132.8500  124.1010   61.2640 C   0  0  0  0  0  0  0  0  0  0  0  0
  133.1470  123.7210   59.8080 C   0  0  0  0  0  0  0  0  0  0  0  0
  132.2860  124.4510   58.7790 C   0  0  0  0  0  0  0  0  0  0  0  0
  132.8910  125.2000   57.7660 C   0  0  0  0  0  0  0  0  0  0  0  0
  132.1060  125.8520   56.8180 C   0  0  0  0  0  0  0  0  0  0  0  0
  130.7150  125.7540   56.8790 C   0  0  0  0  0  0  0  0  0  0  0  0
  129.8640  126.4570   55.8360 C   0  0  0  0  0  0  0  0  0  0  0  0
  130.1080  124.9960   57.8830 C   0  0  0  0  0  0  0  0  0  0  0  0
  130.8930  124.3450   58.8310 C   0  0  0  0  0  0  0  0  0  0  0  0
  131.6590  124.5100   61.5580 N   0  0  0  0  0  0  0  0  0  0  0  0
  131.4190  124.8560   62.8930 N   0  0  0  0  0  0  0  0  0  0  0  0
  130.1820  125.2740   63.2590 C   0  0  0  0  0  0  0  0  0  0  0  0
  129.2210  125.3890   62.4890 O   0  0  0  0  0  0  0  0  0  0  0  0
  125.6300  128.3220   67.0740 C   0  0  0  0  0  0  0  0  0  0  0  0
  124.7280  129.1610   66.4180 C   0  0  0  0  0  0  0  0  0  0  0  0
  123.5010  129.3580   66.9520 F   0  0  0  0  0  0  0  0  0  0  0  0
  1  2  1  0
  2  3  1  0
  3  4  2  0
  4  5  1  0
  5  6  2  0
  6  7  1  0
  7  8  2  0
  8  9  1  0
  9 10  1  0
 10 11  2  0
 11 12  1  0
 12 13  2  0
 13 14  1  0
 14 15  2  0
  9 16  1  0
 16 17  2  0
 17 18  1  0
 18 19  2  0
 19 20  1  0
 20 21  1  0
 21 22  2  0
 22 23  1  0
 23 24  2  0
 23 25  1  0
 25 26  1  0
 26 27  1  0
 27 28  2  0
 28 29  1  0
 29 30  2  0
 30 31  1  0
 30 32  1  0
 32 33  2  0
 25 34  2  0
 34 35  1  0
 35 36  1  0
 36 37  2  0
  6 38  1  0
 38 39  2  0
 39 40  1  0
 39  3  1  0
 17  7  1  0
 36 19  1  0
 15 10  1  0
 35 21  1  0
 33 27  1  0
M  END
>  <Binding energies>  (46) 
[-10.31]

>  <Ligand effiencies>  (46) 
[-0.25775000000000003]

>  <Interactions>  (46) 
["V-B:ARG:545:CD:9895, V-B:GLU:543:CB:9878, V-B:HIS:456:CE1:9040, V-A:ASP:366:CG:3213, V-B:GLU:543:CD:9880, V-B:ARG:545:CG:9894, V-A:ASP:366:CB:3212, V-B:ARG:545:CZ:9898, V-B:TYR:539:CZ:9849, V-A:HIS:456:CE1:4069, V-B:GLU:543:CG:9879, H-A:GLY:454:N:4050, V-B:TYR:539:CE2:9848, H-B:GLY:454:N:9021, H-B:TYR:484:OH:9319, V-A:HIS:456:CG:4066, V-A:HIS:456:CD2:4068, V-A:ASP:366:C:3208, V-A:ASP:366:CA:3210, V-B:ARG:545:CB:9893, V-B:ILE:455:C:9023"]

$$$$
RR23_Rahimova_2017
     RDKit          3D

 39 44  0  0  0  0  0  0  0  0999 V2000
  133.8300  119.0980   60.9020 C   0  0  0  0  0  0  0  0  0  0  0  0
  132.6040  119.9750   61.0780 C   0  0  0  0  0  0  0  0  0  0  0  0
  132.7350  121.3640   61.0970 C   0  0  0  0  0  0  0  0  0  0  0  0
  131.6080  122.1680   61.2500 C   0  0  0  0  0  0  0  0  0  0  0  0
  130.3430  121.5880   61.3970 C   0  0  0  0  0  0  0  0  0  0  0  0
  129.1290  122.4790   61.5410 C   0  0  0  0  0  0  0  0  0  0  0  0
  128.0190  121.9480   61.4660 O   0  0  0  0  0  0  0  0  0  0  0  0
  129.3010  123.8160   61.7610 N   0  0  0  0  0  0  0  0  0  0  0  0
  128.8510  124.8210   60.7850 C   0  0  0  0  0  0  0  0  0  0  0  0
  129.0740  126.1780   61.4330 C   0  0  0  0  0  0  0  0  0  0  0  0
  129.2850  125.8270   62.8750 C   0  0  0  0  0  0  0  0  0  0  0  0
  129.4510  126.6760   63.9700 C   0  0  0  0  0  0  0  0  0  0  0  0
  129.7980  126.1530   65.2250 C   0  0  0  0  0  0  0  0  0  0  0  0
  129.9900  127.0510   66.4570 C   0  0  2  0  0  0  0  0  0  0  0  0
  129.9060  126.3060   67.6950 N   0  0  0  0  0  0  0  0  0  0  0  0
  129.4200  127.0080   68.6380 C   0  0  0  0  0  0  0  0  0  0  0  0
  129.1730  126.6310   69.9220 N   0  0  0  0  0  0  0  0  0  0  0  0
  129.2510  125.3930   70.4660 C   0  0  0  0  0  0  0  0  0  0  0  0
  129.6110  124.3720   69.8750 O   0  0  0  0  0  0  0  0  0  0  0  0
  128.8430  125.2920   71.9450 C   0  0  0  0  0  0  0  0  0  0  0  0
  130.0550  125.3960   72.7900 N   0  0  0  0  0  0  0  0  0  0  0  0
  130.3460  126.6690   73.2610 N   0  0  0  0  0  0  0  0  0  0  0  0
  131.3790  126.8940   74.0090 N   0  0  0  0  0  0  0  0  0  0  0  0
  132.2260  125.8390   74.3580 C   0  0  0  0  0  0  0  0  0  0  0  0
  133.3320  126.1150   75.1650 C   0  0  0  0  0  0  0  0  0  0  0  0
  134.1970  125.0820   75.5300 C   0  0  0  0  0  0  0  0  0  0  0  0
  133.9590  123.7780   75.0910 C   0  0  0  0  0  0  0  0  0  0  0  0
  132.8540  123.5000   74.2840 C   0  0  0  0  0  0  0  0  0  0  0  0
  131.9850  124.5360   73.9190 C   0  0  0  0  0  0  0  0  0  0  0  0
  130.7860  124.2570   73.0440 C   0  0  0  0  0  0  0  0  0  0  0  0
  130.5050  123.1390   72.6010 O   0  0  0  0  0  0  0  0  0  0  0  0
  128.9860  128.6980   68.2510 S   0  0  0  0  0  0  0  0  0  0  0  0
  129.0570  128.2830   66.4990 C   0  0  2  0  0  0  0  0  0  0  0  0
  127.6200  128.0820   65.9720 C   0  0  0  0  0  0  0  0  0  0  0  0
  130.0210  124.7770   65.3460 C   0  0  0  0  0  0  0  0  0  0  0  0
  129.8750  123.9310   64.2460 C   0  0  0  0  0  0  0  0  0  0  0  0
  129.4500  124.4490   63.0160 C   0  0  0  0  0  0  0  0  0  0  0  0
  130.2150  120.1940   61.3490 C   0  0  0  0  0  0  0  0  0  0  0  0
  131.3410  119.3910   61.1950 C   0  0  0  0  0  0  0  0  0  0  0  0
  1  2  1  0
  2  3  2  0
  3  4  1  0
  4  5  2  0
  5  6  1  0
  6  7  2  0
  6  8  1  0
  8  9  1  0
  9 10  1  0
 10 11  1  0
 11 12  2  0
 12 13  1  0
 14 13  1  6
 14 15  1  0
 15 16  2  0
 16 17  1  0
 17 18  1  0
 18 19  2  0
 18 20  1  0
 20 21  1  0
 21 22  1  0
 22 23  2  0
 23 24  1  0
 24 25  2  0
 25 26  1  0
 26 27  2  0
 27 28  1  0
 28 29  2  0
 29 30  1  0
 30 31  2  0
 16 32  1  0
 32 33  1  0
 33 34  1  1
 13 35  2  0
 35 36  1  0
 36 37  2  0
  5 38  1  0
 38 39  2  0
 39  2  1  0
 37  8  1  0
 37 11  1  0
 33 14  1  0
 30 21  1  0
 29 24  1  0
M  END
>  <Binding energies>  (47) 
[-10.87]

>  <Ligand effiencies>  (47) 
[-0.27175]

>  <Interactions>  (47) 
["V-B:GLU:543:CD:9880, V-A:GLU:543:CD:4908, V-A:GLU:543:CG:4907, V-B:ALA:541:CB:9864, V-A:HIS:456:CE1:4069, V-B:GLU:543:CG:9879, V-A:LEU:475:CD1:4258, V-B:TYR:539:CD2:9846, V-A:ILE:369:CD1:3239, V-A:ILE:369:CG2:3237, H-B:ALA:541:N:9863, V-A:HIS:456:CG:4066, V-A:VAL:458:CG2:4087, H-A:HIS:456:NE2:4070, V-A:HIS:456:CD2:4068, V-A:HIS:456:CB:4065, V-A:LYS:547:CD:4949, H-A:LYS:547:NZ:4951, V-A:HIS:456:C:4061, V-A:ASP:473:CB:4239, V-A:ASP:473:CG:4240, H-B:LYS:547:NZ:9923, H-B:HIS:456:NE2:9041, V-A:GLU:543:CB:4906, V-A:PRO:482:CB:4326, V-A:TRP:381:CZ2:3370, V-A:TRP:381:CH2:3372, V-A:SER:385:C:3405, V-A:SER:385:CA:3407"]

$$$$
RR26_Rahimova_2017
     RDKit          3D

 38 44  0  0  0  0  0  0  0  0999 V2000
  129.7130  120.8680   60.6190 C   0  0  0  0  0  0  0  0  0  0  0  0
  131.2140  120.6850   60.8030 C   0  0  0  0  0  0  0  0  0  0  0  0
  131.8720  119.7500   59.9970 C   0  0  0  0  0  0  0  0  0  0  0  0
  133.2500  119.5700   60.0950 C   0  0  0  0  0  0  0  0  0  0  0  0
  133.9860  120.3310   60.9980 C   0  0  0  0  0  0  0  0  0  0  0  0
  133.3430  121.2670   61.8050 C   0  0  0  0  0  0  0  0  0  0  0  0
  131.9550  121.4550   61.7270 C   0  0  0  0  0  0  0  0  0  0  0  0
  131.3390  122.4730   62.6440 C   0  0  0  0  0  0  0  0  0  0  0  0
  130.9760  122.1800   63.8900 N   0  0  0  0  0  0  0  0  0  0  0  0
  130.5150  123.3260   64.3130 C   0  0  0  0  0  0  0  0  0  0  0  0
  129.8260  123.9160   65.7800 S   0  0  0  0  0  0  0  0  0  0  0  0
  129.6670  125.5460   65.0230 C   0  0  0  0  0  0  0  0  0  0  0  0
  129.1600  126.6700   65.5760 C   0  0  0  0  0  0  0  0  0  0  0  0
  128.6240  126.8460   66.9170 C   0  0  0  0  0  0  0  0  0  0  0  0
  129.1330  126.3630   68.1130 C   0  0  0  0  0  0  0  0  0  0  0  0
  128.3240  126.8110   69.1270 N   0  0  0  0  0  0  0  0  0  0  0  0
  128.4520  126.5770   70.5200 C   0  0  0  0  0  0  0  0  0  0  0  0
  129.4080  125.6750   71.0120 C   0  0  0  0  0  0  0  0  0  0  0  0
  129.5210  125.4520   72.3810 C   0  0  0  0  0  0  0  0  0  0  0  0
  128.6830  126.1300   73.2630 C   0  0  0  0  0  0  0  0  0  0  0  0
  127.7320  127.0310   72.7880 C   0  0  0  0  0  0  0  0  0  0  0  0
  127.6150  127.2540   71.4190 C   0  0  0  0  0  0  0  0  0  0  0  0
  127.3410  127.5790   68.6330 N   0  0  0  0  0  0  0  0  0  0  0  0
  127.5030  127.6040   67.3240 C   0  0  0  0  0  0  0  0  0  0  0  0
  126.5480  128.3790   66.4690 C   0  0  0  0  0  0  0  0  0  0  0  0
  125.2890  128.7490   66.9660 C   0  0  0  0  0  0  0  0  0  0  0  0
  124.3910  129.4680   66.1760 C   0  0  0  0  0  0  0  0  0  0  0  0
  124.7470  129.8220   64.8760 C   0  0  0  0  0  0  0  0  0  0  0  0
  126.0100  129.4740   64.3740 C   0  0  0  0  0  0  0  0  0  0  0  0
  126.9020  128.7510   65.1640 C   0  0  0  0  0  0  0  0  0  0  0  0
  126.3880  129.7660   63.0780 O   0  0  0  0  0  0  0  0  0  0  0  0
  125.6120  130.7980   62.4600 C   0  0  0  0  0  0  0  0  0  0  0  0
  124.1040  130.5830   62.7370 C   0  0  0  0  0  0  0  0  0  0  0  0
  123.8480  130.5740   64.1460 O   0  0  0  0  0  0  0  0  0  0  0  0
  130.1530  125.5680   63.6470 C   0  0  0  0  0  0  0  0  0  0  0  0
  130.1860  126.5060   62.8490 O   0  0  0  0  0  0  0  0  0  0  0  0
  130.6050  124.2700   63.3590 N   0  0  0  0  0  0  0  0  0  0  0  0
  131.1460  123.7270   62.2660 N   0  0  0  0  0  0  0  0  0  0  0  0
  1  2  1  0
  2  3  2  0
  3  4  1  0
  4  5  2  0
  5  6  1  0
  6  7  2  0
  7  8  1  0
  8  9  1  0
  9 10  2  0
 10 11  1  0
 11 12  1  0
 12 13  2  0
 13 14  1  0
 14 15  2  0
 15 16  1  0
 16 17  1  0
 17 18  2  0
 18 19  1  0
 19 20  2  0
 20 21  1  0
 21 22  2  0
 16 23  1  0
 23 24  2  0
 24 25  1  0
 25 26  2  0
 26 27  1  0
 27 28  2  0
 28 29  1  0
 29 30  2  0
 29 31  1  0
 31 32  1  0
 32 33  1  0
 33 34  1  0
 12 35  1  0
 35 36  2  0
 35 37  1  0
 37 38  1  0
  7  2  1  0
 38  8  2  0
 37 10  1  0
 24 14  1  0
 30 25  1  0
 22 17  1  0
 34 28  1  0
M  END
>  <Binding energies>  (48) 
[-9.91]

>  <Ligand effiencies>  (48) 
[-0.2607894736842105]

>  <Interactions>  (48) 
["V-B:ARG:545:CD:9895, V-B:GLU:543:CB:9878, V-B:HIS:456:CE1:9040, V-B:ARG:545:CG:9894, V-A:GLU:543:CD:4908, V-B:ARG:545:CZ:9898, V-B:ALA:541:CB:9864, V-A:HIS:456:CE1:4069, V-B:GLU:543:CG:9879, V-A:LEU:475:CD1:4258, V-A:TYR:484:CE1:4345, V-A:TYR:484:CZ:4347, V-B:TYR:539:CD2:9846, V-B:TYR:539:CE2:9848, V-A:ILE:369:CD1:3239, V-A:ILE:369:CG2:3237, H-B:GLY:454:N:9021, V-A:HIS:456:CD2:4068, H-B:HIS:456:NE2:9041, V-B:GLU:543:CA:9876, V-B:HIS:456:CD2:9039, V-B:HIS:456:CG:9037, V-A:TRP:381:CZ2:3370, V-A:TRP:381:CH2:3372, H-B:ARG:545:NH2:9900"]

$$$$
RR2_Rahimova_2017
     RDKit          3D

 46 50  0  0  0  0  0  0  0  0999 V2000
  134.1140  118.9310   60.4840 C   0  0  0  0  0  0  0  0  0  0  0  0
  133.5160  119.8500   61.3910 O   0  0  0  0  0  0  0  0  0  0  0  0
  132.2560  120.3470   61.1150 C   0  0  0  0  0  0  0  0  0  0  0  0
  131.0820  119.5820   61.1310 C   0  0  0  0  0  0  0  0  0  0  0  0
  129.8550  120.1690   60.8350 C   0  0  0  0  0  0  0  0  0  0  0  0
  129.7730  121.5320   60.5150 C   0  0  0  0  0  0  0  0  0  0  0  0
  128.4250  122.1460   60.1900 C   0  0  0  0  0  0  0  0  0  0  0  0
  127.6120  122.3770   61.0910 O   0  0  0  0  0  0  0  0  0  0  0  0
  128.1910  122.3960   58.8800 N   0  0  0  0  0  0  0  0  0  0  0  0
  126.9360  122.8730   58.5170 N   0  0  0  0  0  0  0  0  0  0  0  0
  126.4660  122.5640   57.2920 C   0  0  0  0  0  0  0  0  0  0  0  0
  127.1300  122.0400   56.3930 O   0  0  0  0  0  0  0  0  0  0  0  0
  124.9850  122.8850   57.0520 C   0  0  0  0  0  0  0  0  0  0  0  0
  124.5400  124.6530   57.2090 S   0  0  0  0  0  0  0  0  0  0  0  0
  125.8210  125.3980   56.2460 C   0  0  0  0  0  0  0  0  0  0  0  0
  126.3190  124.8430   55.1700 N   0  0  0  0  0  0  0  0  0  0  0  0
  127.3450  125.6600   54.7160 N   0  0  0  0  0  0  0  0  0  0  0  0
  127.4090  126.6950   55.5190 C   0  0  0  0  0  0  0  0  0  0  0  0
  128.3870  127.8120   55.3440 C   0  0  0  0  0  0  0  0  0  0  0  0
  129.2530  128.1470   56.3880 C   0  0  0  0  0  0  0  0  0  0  0  0
  130.1620  129.1900   56.2370 C   0  0  0  0  0  0  0  0  0  0  0  0
  130.2250  129.8980   55.0320 C   0  0  0  0  0  0  0  0  0  0  0  0
  131.1130  130.9650   54.8270 N   0  0  0  0  0  0  0  0  0  0  0  0
  130.9370  132.5810   55.5460 S   0  0  0  0  0  0  0  0  0  0  0  0
  129.8750  133.2480   54.7840 O   0  0  0  0  0  0  0  0  0  0  0  0
  132.2730  133.1780   55.6560 O   0  0  0  0  0  0  0  0  0  0  0  0
  130.2890  132.2940   57.1910 C   0  0  0  0  0  0  0  0  0  0  0  0
  128.9830  132.6680   57.5170 C   0  0  0  0  0  0  0  0  0  0  0  0
  128.5040  132.4500   58.8060 C   0  0  0  0  0  0  0  0  0  0  0  0
  129.3260  131.8540   59.7650 C   0  0  0  0  0  0  0  0  0  0  0  0
  128.8060  131.6320   61.1740 C   0  0  0  0  0  0  0  0  0  0  0  0
  130.6320  131.4850   59.4370 C   0  0  0  0  0  0  0  0  0  0  0  0
  131.1130  131.7030   58.1500 C   0  0  0  0  0  0  0  0  0  0  0  0
  129.3620  129.5610   53.9890 C   0  0  0  0  0  0  0  0  0  0  0  0
  128.4480  128.5220   54.1410 C   0  0  0  0  0  0  0  0  0  0  0  0
  126.4640  126.5900   56.5260 N   0  0  0  0  0  0  0  0  0  0  0  0
  126.2350  127.4640   57.6090 C   0  0  0  0  0  0  0  0  0  0  0  0
  126.6870  127.1250   58.8850 C   0  0  0  0  0  0  0  0  0  0  0  0
  126.4620  127.9940   59.9480 C   0  0  0  0  0  0  0  0  0  0  0  0
  125.7880  129.2000   59.7500 C   0  0  0  0  0  0  0  0  0  0  0  0
  125.6110  129.9960   60.8660 O   0  0  0  0  0  0  0  0  0  0  0  0
  124.3370  130.5860   61.1040 C   0  0  0  0  0  0  0  0  0  0  0  0
  125.3360  129.5330   58.4620 C   0  0  0  0  0  0  0  0  0  0  0  0
  125.5600  128.6680   57.3950 C   0  0  0  0  0  0  0  0  0  0  0  0
  130.9520  122.2930   60.5070 C   0  0  0  0  0  0  0  0  0  0  0  0
  132.1770  121.7030   60.8040 C   0  0  0  0  0  0  0  0  0  0  0  0
  1  2  1  0
  2  3  1  0
  3  4  2  0
  4  5  1  0
  5  6  2  0
  6  7  1  0
  7  8  2  0
  7  9  1  0
  9 10  1  0
 10 11  1  0
 11 12  2  0
 11 13  1  0
 13 14  1  0
 14 15  1  0
 15 16  2  0
 16 17  1  0
 17 18  2  0
 18 19  1  0
 19 20  2  0
 20 21  1  0
 21 22  2  0
 22 23  1  0
 23 24  1  0
 24 25  2  0
 24 26  2  0
 24 27  1  0
 27 28  2  0
 28 29  1  0
 29 30  2  0
 30 31  1  0
 30 32  1  0
 32 33  2  0
 22 34  1  0
 34 35  2  0
 18 36  1  0
 36 37  1  0
 37 38  2  0
 38 39  1  0
 39 40  2  0
 40 41  1  0
 41 42  1  0
 40 43  1  0
 43 44  2  0
  6 45  1  0
 45 46  2  0
 46  3  1  0
 36 15  1  0
 44 37  1  0
 35 19  1  0
 33 27  1  0
M  END
>  <Binding energies>  (49) 
[-11.45]

>  <Ligand effiencies>  (49) 
[-0.2336734693877551]

>  <Interactions>  (49) 
["V-A:PRO:540:CB:4885, V-A:PRO:540:CA:4883, V-A:TYR:539:CD1:4873, V-A:TYR:539:CD2:4874, V-A:TYR:539:CE2:4876, V-A:TYR:539:CG:4872, V-A:TYR:539:CE1:4875, V-A:TYR:539:C:4867, V-A:TYR:539:CZ:4877, V-A:TYR:531:CE2:4793, V-A:PRO:540:N:4884, V-A:TYR:531:CZ:4794, V-B:ASP:366:CG:8184, V-A:MET:535:CE:4835, V-B:ALA:541:CB:9864, V-A:LEU:475:CD1:4258, V-B:PRO:540:N:9856, V-B:TYR:539:CD2:9846, V-B:PRO:540:CA:9855, V-B:TYR:539:C:9839, V-B:TYR:539:CE2:9848, V-A:ILE:538:CA:4860, V-A:ILE:369:CD1:3239, H-A:TYR:539:N:4870, V-A:ILE:369:CG2:3237, H-B:ALA:541:N:9863, V-B:PRO:540:CD:9859, V-B:PRO:540:CB:9857, V-B:TYR:531:CZ:9766, V-A:PRO:482:CB:4326, V-A:PRO:482:CG:4327, V-B:LEU:363:CD1:8160, V-B:TYR:531:CE2:9765, V-A:TRP:381:CZ2:3370, V-A:TRP:381:CH2:3372, H-B:TYR:539:N:9842, H-A:TYR:531:OH:4795, V-A:SER:385:C:3405, V-A:SER:385:CA:3407, H-B:TYR:531:OH:9767, V-B:ASP:366:CB:8183, V-B:PRO:540:CG:9858, H-B:TYR:539:O:9840"]

$$$$
RR33_Rahimova_2017
     RDKit          3D

 18 19  0  0  0  0  0  0  0  0999 V2000
  125.9310  126.8700   74.1680 C   0  0  0  0  0  0  0  0  0  0  0  0
  127.4480  127.0550   74.0650 C   0  0  0  0  0  0  0  0  0  0  0  0
  128.0150  125.8770   73.5000 O   0  0  0  0  0  0  0  0  0  0  0  0
  128.3340  125.8550   72.1560 C   0  0  0  0  0  0  0  0  0  0  0  0
  127.6950  126.7970   71.3500 C   0  0  0  0  0  0  0  0  0  0  0  0
  127.9500  126.8490   69.9830 C   0  0  0  0  0  0  0  0  0  0  0  0
  128.8530  125.9560   69.3990 C   0  0  0  0  0  0  0  0  0  0  0  0
  129.1260  126.0120   67.9300 C   0  0  0  0  0  0  0  0  0  0  0  0
  129.7920  125.1430   67.2030 N   0  0  0  0  0  0  0  0  0  0  0  0
  129.7640  125.6230   65.9700 C   0  0  0  0  0  0  0  0  0  0  0  0
  130.4270  124.8790   64.8300 C   0  0  0  0  0  0  0  0  0  0  0  0
  130.8300  123.5460   65.2520 N   0  0  0  0  0  0  0  0  0  0  0  0
  129.8170  122.5670   64.8960 C   0  0  0  0  0  0  0  0  0  0  0  0
  129.0590  126.8200   65.9510 C   0  0  0  0  0  0  0  0  0  0  0  0
  128.6770  127.8250   64.8910 C   0  0  0  0  0  0  0  0  0  0  0  0
  128.6510  127.0670   67.2170 O   0  0  0  0  0  0  0  0  0  0  0  0
  129.5000  125.0130   70.2030 C   0  0  0  0  0  0  0  0  0  0  0  0
  129.2440  124.9600   71.5720 C   0  0  0  0  0  0  0  0  0  0  0  0
  1  2  1  0
  2  3  1  0
  3  4  1  0
  4  5  2  0
  5  6  1  0
  6  7  2  0
  7  8  1  0
  8  9  2  0
  9 10  1  0
 10 11  1  0
 11 12  1  0
 12 13  1  0
 10 14  2  0
 14 15  1  0
 14 16  1  0
  7 17  1  0
 17 18  2  0
 18  4  1  0
 16  8  1  0
M  END
>  <Binding energies>  (50) 
[-5.24]

>  <Ligand effiencies>  (50) 
[-0.27578947368421053]

>  <Interactions>  (50) 
["V-B:GLU:543:CB:9878, V-B:GLY:544:C:9884, V-B:HIS:456:CE1:9040, V-A:GLU:543:CD:4908, V-B:ALA:541:CB:9864, H-A:TYR:484:OH:4348, V-A:HIS:456:CE1:4069, V-B:GLU:543:CG:9879, V-A:TYR:484:CE1:4345, V-A:TYR:484:CZ:4347, V-A:HIS:456:CD2:4068, H-B:LYS:547:NZ:9923, V-B:GLU:543:CA:9876, V-B:LYS:547:CD:9921"]

$$$$
RR3_Rahimova_2017
     RDKit          3D

 38 44  0  0  0  0  0  0  0  0999 V2000
  124.2320  132.2320   62.1690 C   0  0  0  0  0  0  0  0  0  0  0  0
  123.5800  131.0910   62.6240 C   0  0  0  0  0  0  0  0  0  0  0  0
  124.2170  130.2470   63.5280 C   0  0  0  0  0  0  0  0  0  0  0  0
  125.5110  130.5310   63.9900 C   0  0  0  0  0  0  0  0  0  0  0  0
  126.1950  129.6230   64.9640 C   0  0  0  0  0  0  0  0  0  0  0  0
  125.4670  128.9450   65.9500 C   0  0  0  0  0  0  0  0  0  0  0  0
  126.1040  128.1040   66.8580 C   0  0  0  0  0  0  0  0  0  0  0  0
  127.4890  127.9260   66.8040 C   0  0  0  0  0  0  0  0  0  0  0  0
  128.1800  127.0270   67.7800 C   0  0  0  0  0  0  0  0  0  0  0  0
  128.2200  127.3500   69.0680 N   0  0  0  0  0  0  0  0  0  0  0  0
  128.8410  126.3700   69.6810 C   0  0  0  0  0  0  0  0  0  0  0  0
  129.1080  126.3100   71.1150 C   0  0  0  0  0  0  0  0  0  0  0  0
  128.6670  127.2210   72.0600 C   0  0  0  0  0  0  0  0  0  0  0  0
  129.0950  126.8520   73.3090 N   0  0  0  0  0  0  0  0  0  0  0  0
  129.8320  125.6910   73.2270 C   0  0  0  0  0  0  0  0  0  0  0  0
  130.4680  124.9410   74.2230 C   0  0  0  0  0  0  0  0  0  0  0  0
  131.1470  123.7940   73.8140 C   0  0  0  0  0  0  0  0  0  0  0  0
  131.1960  123.4060   72.4790 C   0  0  0  0  0  0  0  0  0  0  0  0
  130.5620  124.1520   71.4880 C   0  0  0  0  0  0  0  0  0  0  0  0
  129.8630  125.3190   71.8460 C   0  0  0  0  0  0  0  0  0  0  0  0
  129.2190  125.4000   68.7940 N   0  0  0  0  0  0  0  0  0  0  0  0
  128.8270  125.8020   67.5430 C   0  0  0  0  0  0  0  0  0  0  0  0
  129.1260  125.0160   66.3080 C   0  0  0  0  0  0  0  0  0  0  0  0
  129.0580  125.6270   65.0560 C   0  0  0  0  0  0  0  0  0  0  0  0
  129.3230  124.8960   63.9030 C   0  0  0  0  0  0  0  0  0  0  0  0
  129.6670  123.5380   63.9740 C   0  0  0  0  0  0  0  0  0  0  0  0
  129.9330  122.7490   62.7310 C   0  0  0  0  0  0  0  0  0  0  0  0
  131.1760  122.1340   62.5210 C   0  0  0  0  0  0  0  0  0  0  0  0
  131.4220  121.3950   61.3650 C   0  0  0  0  0  0  0  0  0  0  0  0
  130.4230  121.2650   60.4050 C   0  0  0  0  0  0  0  0  0  0  0  0
  129.1830  121.8650   60.5930 C   0  0  0  0  0  0  0  0  0  0  0  0
  128.9410  122.6030   61.7480 C   0  0  0  0  0  0  0  0  0  0  0  0
  129.7490  122.9400   65.2390 C   0  0  0  0  0  0  0  0  0  0  0  0
  129.4840  123.6690   66.3950 C   0  0  0  0  0  0  0  0  0  0  0  0
  128.2210  128.5870   65.8160 C   0  0  0  0  0  0  0  0  0  0  0  0
  127.5820  129.4280   64.9100 C   0  0  0  0  0  0  0  0  0  0  0  0
  126.1500  131.6870   63.5160 C   0  0  0  0  0  0  0  0  0  0  0  0
  125.5160  132.5340   62.6120 C   0  0  0  0  0  0  0  0  0  0  0  0
  1  2  2  0
  2  3  1  0
  3  4  2  0
  4  5  1  0
  5  6  2  0
  6  7  1  0
  7  8  2  0
  8  9  1  0
  9 10  1  0
 10 11  2  0
 11 12  1  0
 12 13  2  0
 13 14  1  0
 14 15  1  0
 15 16  2  0
 16 17  1  0
 17 18  2  0
 18 19  1  0
 19 20  2  0
 11 21  1  0
 21 22  1  0
 22 23  1  0
 23 24  2  0
 24 25  1  0
 25 26  2  0
 26 27  1  0
 27 28  2  0
 28 29  1  0
 29 30  2  0
 30 31  1  0
 31 32  2  0
 26 33  1  0
 33 34  2  0
  8 35  1  0
 35 36  2  0
  4 37  1  0
 37 38  2  0
 38  1  1  0
 36  5  1  0
 22  9  2  0
 34 23  1  0
 20 12  1  0
 32 27  1  0
 20 15  1  0
M  END
>  <Binding energies>  (51) 
[-10.27]

>  <Ligand effiencies>  (51) 
[-0.25675]

>  <Interactions>  (51) 
["V-B:ARG:545:CD:9895, V-B:GLU:543:C:9874, V-B:GLU:543:CB:9878, V-B:HIS:456:CE1:9040, V-B:LEU:475:CD1:9229, V-B:GLU:543:CD:9880, V-B:ARG:545:CG:9894, V-A:GLU:543:CD:4908, V-B:ILE:369:CD1:8210, V-B:ARG:545:CZ:9898, V-B:GLY:454:CA:9020, V-B:ALA:541:CB:9864, H-A:TYR:484:OH:4348, V-A:HIS:456:CE1:4069, V-B:GLU:543:CG:9879, V-A:LEU:475:CD1:4258, V-A:TYR:484:CE1:4345, V-A:TYR:484:CZ:4347, V-B:TYR:539:CD2:9846, V-B:TYR:539:CE2:9848, V-A:HIS:456:CG:4066, V-A:HIS:456:CD2:4068, V-A:HIS:456:CB:4065, H-B:HIS:456:NE2:9041, V-B:GLU:543:CA:9876, V-A:TYR:484:CD2:4344, V-A:GLU:543:CB:4906, V-A:TYR:484:CE2:4346, H-B:GLU:543:O:9875"]

$$$$
RR4_Rahimova_2017
     RDKit          3D

 40 44  0  0  0  0  0  0  0  0999 V2000
  128.7730  121.8240   60.5250 C   0  0  0  0  0  0  0  0  0  0  0  0
  127.6570  122.3950   61.1980 O   0  0  0  0  0  0  0  0  0  0  0  0
  127.3370  123.7200   60.9690 C   0  0  0  0  0  0  0  0  0  0  0  0
  128.1080  124.6730   61.6290 C   0  0  0  0  0  0  0  0  0  0  0  0
  127.8590  126.0310   61.4580 C   0  0  0  0  0  0  0  0  0  0  0  0
  126.8260  126.4770   60.6210 C   0  0  0  0  0  0  0  0  0  0  0  0
  126.5580  127.9440   60.4380 C   0  0  0  0  0  0  0  0  0  0  0  0
  127.3690  128.7700   59.6540 C   0  0  0  0  0  0  0  0  0  0  0  0
  127.0750  130.1320   59.5110 C   0  0  0  0  0  0  0  0  0  0  0  0
  127.9700  130.9460   58.6340 C   0  0  0  0  0  0  0  0  0  0  0  0
  128.9780  131.7340   59.1980 C   0  0  0  0  0  0  0  0  0  0  0  0
  129.8240  132.4870   58.3880 C   0  0  0  0  0  0  0  0  0  0  0  0
  129.6840  132.4620   57.0000 C   0  0  0  0  0  0  0  0  0  0  0  0
  130.5680  133.2390   56.2770 O   0  0  0  0  0  0  0  0  0  0  0  0
  131.6100  132.6050   55.5420 C   0  0  0  0  0  0  0  0  0  0  0  0
  128.6770  131.6680   56.4300 C   0  0  0  0  0  0  0  0  0  0  0  0
  127.8320  130.9160   57.2430 C   0  0  0  0  0  0  0  0  0  0  0  0
  125.9570  130.6570   60.2040 C   0  0  0  0  0  0  0  0  0  0  0  0
  125.6040  132.0750   60.0890 C   0  0  0  0  0  0  0  0  0  0  0  0
  125.3250  133.1950   59.9990 N   0  0  0  0  0  0  0  0  0  0  0  0
  125.1980  129.7720   61.0030 C   0  0  0  0  0  0  0  0  0  0  0  0
  123.7710  130.2580   61.9490 S   0  0  0  0  0  0  0  0  0  0  0  0
  124.3530  131.2580   63.3590 C   0  0  0  0  0  0  0  0  0  0  0  0
  124.7640  130.4420   64.5920 C   0  0  0  0  0  0  0  0  0  0  0  0
  124.1230  130.5270   65.6420 O   0  0  0  0  0  0  0  0  0  0  0  0
  125.8620  129.6690   64.4200 N   0  0  0  0  0  0  0  0  0  0  0  0
  126.4790  128.8190   65.3410 C   0  0  0  0  0  0  0  0  0  0  0  0
  125.7810  128.4340   66.8920 S   0  0  0  0  0  0  0  0  0  0  0  0
  127.1260  127.4160   67.3070 C   0  0  0  0  0  0  0  0  0  0  0  0
  128.0830  127.3810   66.2800 C   0  0  0  0  0  0  0  0  0  0  0  0
  127.7070  128.1640   65.1610 C   0  0  0  0  0  0  0  0  0  0  0  0
  128.5170  128.2800   63.9530 C   0  0  0  0  0  0  0  0  0  0  0  0
  129.1610  128.3740   62.9950 N   0  0  0  0  0  0  0  0  0  0  0  0
  129.3470  126.5210   66.3910 C   0  0  0  0  0  0  0  0  0  0  0  0
  129.1970  125.4730   67.5160 C   0  0  0  0  0  0  0  0  0  0  0  0
  128.6230  126.0840   68.8060 C   0  0  0  0  0  0  0  0  0  0  0  0
  127.1900  126.6210   68.6040 C   0  0  0  0  0  0  0  0  0  0  0  0
  125.4850  128.4520   61.0970 N   0  0  0  0  0  0  0  0  0  0  0  0
  126.0560  125.5090   59.9560 C   0  0  0  0  0  0  0  0  0  0  0  0
  126.3020  124.1500   60.1260 C   0  0  0  0  0  0  0  0  0  0  0  0
  1  2  1  0
  2  3  1  0
  3  4  2  0
  4  5  1  0
  5  6  2  0
  6  7  1  0
  7  8  2  0
  8  9  1  0
  9 10  1  0
 10 11  2  0
 11 12  1  0
 12 13  2  0
 13 14  1  0
 14 15  1  0
 13 16  1  0
 16 17  2  0
  9 18  2  0
 18 19  1  0
 19 20  3  0
 18 21  1  0
 21 22  1  0
 22 23  1  0
 23 24  1  0
 24 25  2  0
 24 26  1  0
 26 27  1  0
 27 28  1  0
 28 29  1  0
 29 30  2  0
 30 31  1  0
 31 32  1  0
 32 33  3  0
 30 34  1  0
 34 35  1  0
 35 36  1  0
 36 37  1  0
 21 38  2  0
  6 39  1  0
 39 40  2  0
 40  3  1  0
 38  7  1  0
 17 10  1  0
 31 27  2  0
 37 29  1  0
M  END
>  <Binding energies>  (52) 
[-9.73]

>  <Ligand effiencies>  (52) 
[-0.23731707317073172]

>  <Interactions>  (52) 
["V-B:ARG:545:CD:9895, V-A:PRO:540:CB:4885, V-B:GLU:543:C:9874, V-B:GLU:543:CB:9878, V-B:GLY:544:C:9884, V-B:HIS:456:CE1:9040, V-A:PRO:540:CA:4883, V-B:GLU:543:CD:9880, V-B:ARG:545:CG:9894, V-A:GLU:543:CD:4908, V-A:TYR:539:CD1:4873, V-A:TYR:539:CE2:4876, V-A:ILE:538:CD1:4865, V-A:TYR:539:CG:4872, V-A:TYR:539:CE1:4875, V-A:TYR:539:C:4867, V-A:TYR:539:CZ:4877, V-A:PRO:540:N:4884, V-B:ASP:366:CG:8184, V-B:GLY:454:CA:9020, V-B:ALA:541:CB:9864, V-A:HIS:456:CE1:4069, V-B:GLU:543:CG:9879, V-B:TYR:539:CD2:9846, V-B:PRO:540:CA:9855, V-B:TYR:539:CE2:9848, V-A:ILE:538:CA:4860, V-A:PRO:540:CD:4887, H-A:TYR:539:N:4870, H-B:ALA:541:N:9863, H-B:GLY:454:N:9021, H-B:TYR:484:OH:9319, H-B:ILE:455:N:9026, H-B:ARG:545:NH2:9900"]

$$$$
RR6_Rahimova_2017
     RDKit          3D

 38 41  0  0  0  0  0  0  0  0999 V2000
  131.7370  132.6530   55.7670 C   0  0  0  0  0  0  0  0  0  0  0  0
  130.7380  133.1700   56.6350 O   0  0  0  0  0  0  0  0  0  0  0  0
  129.6230  132.4510   56.9230 C   0  0  0  0  0  0  0  0  0  0  0  0
  128.7630  132.1640   56.0840 O   0  0  0  0  0  0  0  0  0  0  0  0
  129.5380  132.0380   58.3650 C   0  0  0  0  0  0  0  0  0  0  0  0
  130.6250  131.4630   59.0380 C   0  0  0  0  0  0  0  0  0  0  0  0
  130.5130  131.0830   60.3740 C   0  0  0  0  0  0  0  0  0  0  0  0
  129.3040  131.2710   61.0590 C   0  0  0  0  0  0  0  0  0  0  0  0
  129.0730  130.8990   62.3970 N   0  0  0  0  0  0  0  0  0  0  0  0
  128.3430  131.5260   63.3460 C   0  0  0  0  0  0  0  0  0  0  0  0
  127.7170  132.5740   63.1890 O   0  0  0  0  0  0  0  0  0  0  0  0
  128.3710  130.8800   64.7350 C   0  0  0  0  0  0  0  0  0  0  0  0
  127.3600  129.3670   64.8610 S   0  0  0  0  0  0  0  0  0  0  0  0
  128.3870  128.1240   65.6180 C   0  0  0  0  0  0  0  0  0  0  0  0
  128.3350  128.1070   66.9720 N   0  0  0  0  0  0  0  0  0  0  0  0
  129.0520  127.1840   67.6610 C   0  0  0  0  0  0  0  0  0  0  0  0
  128.8910  127.1930   69.1530 C   0  0  0  0  0  0  0  0  0  0  0  0
  129.4910  128.1890   69.9390 C   0  0  0  0  0  0  0  0  0  0  0  0
  129.3520  128.1890   71.3240 C   0  0  0  0  0  0  0  0  0  0  0  0
  128.6050  127.1930   71.9510 C   0  0  0  0  0  0  0  0  0  0  0  0
  128.4640  127.1920   73.4620 C   0  0  0  0  0  0  0  0  0  0  0  0
  128.0000  126.1960   71.1890 C   0  0  0  0  0  0  0  0  0  0  0  0
  128.1410  126.2010   69.8050 C   0  0  0  0  0  0  0  0  0  0  0  0
  129.8570  126.2580   66.9910 C   0  0  0  0  0  0  0  0  0  0  0  0
  129.9320  126.2590   65.5900 C   0  0  0  0  0  0  0  0  0  0  0  0
  130.7960  125.2300   64.9390 C   0  0  0  0  0  0  0  0  0  0  0  0
  132.1870  125.3770   64.9410 C   0  0  0  0  0  0  0  0  0  0  0  0
  133.0010  124.4140   64.3500 C   0  0  0  0  0  0  0  0  0  0  0  0
  132.4430  123.2860   63.7510 C   0  0  0  0  0  0  0  0  0  0  0  0
  133.3270  122.3830   63.1920 O   0  0  0  0  0  0  0  0  0  0  0  0
  133.9910  122.7230   61.9800 C   0  0  0  0  0  0  0  0  0  0  0  0
  131.0480  123.1310   63.7510 C   0  0  0  0  0  0  0  0  0  0  0  0
  130.2370  124.0950   64.3430 C   0  0  0  0  0  0  0  0  0  0  0  0
  129.1800  127.2240   64.8770 C   0  0  0  0  0  0  0  0  0  0  0  0
  129.2340  127.2990   63.4140 C   0  0  0  0  0  0  0  0  0  0  0  0
  129.2760  127.3570   62.2590 N   0  0  0  0  0  0  0  0  0  0  0  0
  128.2250  131.8590   60.3980 C   0  0  0  0  0  0  0  0  0  0  0  0
  128.3390  132.2350   59.0620 C   0  0  0  0  0  0  0  0  0  0  0  0
  1  2  1  0
  2  3  1  0
  3  4  2  0
  3  5  1  0
  5  6  2  0
  6  7  1  0
  7  8  2  0
  8  9  1  0
  9 10  1  0
 10 11  2  0
 10 12  1  0
 12 13  1  0
 13 14  1  0
 14 15  2  0
 15 16  1  0
 16 17  1  0
 17 18  2  0
 18 19  1  0
 19 20  2  0
 20 21  1  0
 20 22  1  0
 22 23  2  0
 16 24  2  0
 24 25  1  0
 25 26  1  0
 26 27  2  0
 27 28  1  0
 28 29  2  0
 29 30  1  0
 30 31  1  0
 29 32  1  0
 32 33  2  0
 25 34  2  0
 34 35  1  0
 35 36  3  0
  8 37  1  0
 37 38  2  0
 38  5  1  0
 34 14  1  0
 23 17  1  0
 33 26  1  0
M  END
>  <Binding energies>  (53) 
[-9.33]

>  <Ligand effiencies>  (53) 
[-0.23923076923076922]

>  <Interactions>  (53) 
["V-A:PRO:540:CB:4885, V-B:GLU:543:C:9874, V-A:ALA:541:CB:4892, V-B:GLY:544:C:9884, V-B:HIS:456:CE1:9040, H-A:GLU:543:OE1:4909, V-A:PRO:540:CA:4883, V-A:GLU:543:CD:4908, V-A:TYR:539:CD1:4873, V-A:TYR:539:CD2:4874, V-A:TYR:539:CE2:4876, V-A:TYR:539:CG:4872, V-A:TYR:539:CE1:4875, V-A:TYR:539:C:4867, V-A:PRO:540:N:4884, V-A:HIS:456:CE1:4069, V-A:LEU:475:CD1:4258, V-A:GLY:454:CA:4049, H-A:GLY:454:N:4050, V-A:ILE:369:CD1:3239, V-A:PRO:540:CD:4887, H-A:TYR:539:N:4870, V-A:ILE:538:CG2:4863, V-A:LEU:363:CD1:3189, H-B:TYR:484:OH:9319, V-A:HIS:456:CD2:4068, V-B:HIS:456:CD2:9039, V-A:GLU:543:CB:4906"]

$$$$
RR7_Rahimova_2017
     RDKit          3D

 47 53  0  0  0  0  0  0  0  0999 V2000
  132.8400  124.7180   58.5150 C   0  0  0  0  0  0  0  0  0  0  0  0
  131.7990  125.3410   59.2600 O   0  0  0  0  0  0  0  0  0  0  0  0
  131.3050  126.5600   58.8360 C   0  0  0  0  0  0  0  0  0  0  0  0
  130.2800  127.1170   59.5990 C   0  0  0  0  0  0  0  0  0  0  0  0
  129.7240  128.3440   59.2530 C   0  0  0  0  0  0  0  0  0  0  0  0
  130.1740  129.0410   58.1220 C   0  0  0  0  0  0  0  0  0  0  0  0
  129.5910  130.4350   57.7290 C   0  0  0  0  0  0  0  0  0  0  0  0
  128.3400  130.1760   57.0540 O   0  0  0  0  0  0  0  0  0  0  0  0
  127.9770  128.8360   56.7030 C   0  0  0  0  0  0  0  0  0  0  0  0
  126.4580  128.6680   56.8720 C   0  0  1  0  0  0  0  0  0  0  0  0
  126.2500  128.0440   58.1360 O   0  0  0  0  0  0  0  0  0  0  0  0
  125.4540  128.8240   58.9800 C   0  0  1  0  0  0  0  0  0  0  0  0
  125.8590  128.6390   60.3600 N   0  0  0  0  0  0  0  0  0  0  0  0
  126.5910  127.5970   60.9020 C   0  0  0  0  0  0  0  0  0  0  0  0
  126.7770  127.6560   62.1970 N   0  0  0  0  0  0  0  0  0  0  0  0
  126.0950  128.7810   62.5750 C   0  0  0  0  0  0  0  0  0  0  0  0
  125.8950  129.3850   63.8310 C   0  0  0  0  0  0  0  0  0  0  0  0
  126.4830  128.7950   64.9660 N   0  0  0  0  0  0  0  0  0  0  0  0
  127.4580  129.2810   65.7700 C   0  0  0  0  0  0  0  0  0  0  0  0
  128.0170  130.3670   65.6050 O   0  0  0  0  0  0  0  0  0  0  0  0
  127.8730  128.3790   66.9130 C   0  0  0  0  0  0  0  0  0  0  0  0
  127.0270  127.3350   67.3160 C   0  0  0  0  0  0  0  0  0  0  0  0
  127.3920  126.4910   68.3620 C   0  0  0  0  0  0  0  0  0  0  0  0
  128.6080  126.6810   69.0100 C   0  0  0  0  0  0  0  0  0  0  0  0
  129.4640  127.7080   68.6220 C   0  0  0  0  0  0  0  0  0  0  0  0
  129.0990  128.5540   67.5770 C   0  0  0  0  0  0  0  0  0  0  0  0
  125.1360  130.5190   63.9130 N   0  0  0  0  0  0  0  0  0  0  0  0
  124.6050  131.0120   62.7630 C   0  0  0  0  0  0  0  0  0  0  0  0
  124.7370  130.5140   61.5050 N   0  0  0  0  0  0  0  0  0  0  0  0
  125.4910  129.4070   61.4550 C   0  0  0  0  0  0  0  0  0  0  0  0
  125.5890  130.2490   58.4550 C   0  0  0  0  0  0  0  0  0  0  0  0
  125.6660  129.9810   56.9620 C   0  0  2  0  0  0  0  0  0  0  0  0
  124.3810  129.8780   56.3730 O   0  0  0  0  0  0  0  0  0  0  0  0
  129.2650  131.3100   58.9680 C   0  0  0  0  0  0  0  0  0  0  0  0
  130.0910  131.2660   60.1030 C   0  0  0  0  0  0  0  0  0  0  0  0
  129.8000  132.0350   61.2250 C   0  0  0  0  0  0  0  0  0  0  0  0
  128.6780  132.8580   61.2250 C   0  0  0  0  0  0  0  0  0  0  0  0
  127.8460  132.9170   60.1110 C   0  0  0  0  0  0  0  0  0  0  0  0
  128.1360  132.1460   58.9890 C   0  0  0  0  0  0  0  0  0  0  0  0
  130.4970  131.3160   56.8220 C   0  0  0  0  0  0  0  0  0  0  0  0
  130.0530  131.7200   55.5530 C   0  0  0  0  0  0  0  0  0  0  0  0
  130.8600  132.5010   54.7310 C   0  0  0  0  0  0  0  0  0  0  0  0
  132.1270  132.8780   55.1670 C   0  0  0  0  0  0  0  0  0  0  0  0
  132.5930  132.4770   56.4150 C   0  0  0  0  0  0  0  0  0  0  0  0
  131.7840  131.6970   57.2360 C   0  0  0  0  0  0  0  0  0  0  0  0
  131.2150  128.4840   57.3660 C   0  0  0  0  0  0  0  0  0  0  0  0
  131.7730  127.2560   57.7130 C   0  0  0  0  0  0  0  0  0  0  0  0
  1  2  1  0
  2  3  1  0
  3  4  2  0
  4  5  1  0
  5  6  2  0
  6  7  1  0
  7  8  1  0
  8  9  1  0
 10  9  1  1
 10 11  1  0
 11 12  1  0
 12 13  1  1
 13 14  1  0
 14 15  2  0
 15 16  1  0
 16 17  2  0
 17 18  1  0
 18 19  1  0
 19 20  2  0
 19 21  1  0
 21 22  2  0
 22 23  1  0
 23 24  2  0
 24 25  1  0
 25 26  2  0
 17 27  1  0
 27 28  2  0
 28 29  1  0
 29 30  2  0
 12 31  1  0
 31 32  1  0
 32 33  1  1
  7 34  1  0
 34 35  2  0
 35 36  1  0
 36 37  2  0
 37 38  1  0
 38 39  2  0
  7 40  1  0
 40 41  2  0
 41 42  1  0
 42 43  2  0
 43 44  1  0
 44 45  2  0
  6 46  1  0
 46 47  2  0
 47  3  1  0
 32 10  1  0
 39 34  1  0
 45 40  1  0
 30 13  1  0
 30 16  1  0
 26 21  1  0
M  END
>  <Binding energies>  (54) 
[-9.41]

>  <Ligand effiencies>  (54) 
[-0.1920408163265306]

>  <Interactions>  (54) 
["V-A:PRO:540:CB:4885, V-B:GLU:543:C:9874, V-A:ALA:541:CB:4892, V-B:GLU:543:CB:9878, V-B:HIS:456:CE1:9040, V-A:ASP:366:CG:3213, V-A:PRO:540:CA:4883, V-B:GLU:543:CD:9880, V-A:GLU:543:CD:4908, V-A:TYR:539:CD2:4874, V-A:TYR:539:CE2:4876, V-A:ILE:538:CD1:4865, V-A:PRO:540:C:4881, V-A:GLU:543:CG:4907, V-A:TYR:539:CZ:4877, V-A:ASP:366:CB:3212, V-A:PRO:540:N:4884, H-B:GLU:543:OE1:9881, V-B:ASP:366:CG:8184, V-B:ARG:545:CZ:9898, V-A:HIS:456:CE1:4069, V-A:ILE:538:CA:4860, V-A:PRO:540:CD:4887, V-A:ILE:538:CG2:4863, V-A:LEU:363:CD1:3189, H-B:TYR:484:OH:9319, V-A:GLU:543:CB:4906, H-B:ARG:545:NH2:9900, V-A:PRO:540:CG:4886, V-A:ILE:538:C:4858, V-A:ASP:366:CA:3210, H-B:TYR:531:OH:9767, V-B:ASP:366:CB:8183, H-A:TYR:539:OH:4878, V-A:ILE:538:CB:4862, H-B:ASN:370:OD1:8218, H-B:ASP:366:O:8180"]

$$$$
RR8_A_Rahimova_2017
     RDKit          3D

 42 46  0  0  0  0  0  0  0  0999 V2000
  133.3600  123.4120   57.7980 O   0  0  0  0  0  0  0  0  0  0  0  0
  132.8570  124.2840   58.5150 C   0  0  0  0  0  0  0  0  0  0  0  0
  132.0560  125.2950   58.0580 O   0  0  0  0  0  0  0  0  0  0  0  0
  130.6710  125.1320   58.1840 C   0  0  1  0  0  0  0  0  0  0  0  0
  130.3470  123.9140   58.7890 O   0  0  0  0  0  0  0  0  0  0  0  0
  129.2380  124.0400   59.6740 C   0  0  2  0  0  0  0  0  0  0  0  0
  128.1560  123.0320   59.2510 C   0  0  0  0  0  0  0  0  0  0  0  0
  127.9060  122.1470   60.3340 O   0  0  0  0  0  0  0  0  0  0  0  0
  128.8050  122.2990   61.4240 C   0  0  0  0  0  0  0  0  0  0  0  0
  129.9410  121.2940   61.3000 C   0  0  0  0  0  0  0  0  0  0  0  0
  129.6560  119.9300   61.1960 C   0  0  0  0  0  0  0  0  0  0  0  0
  130.6940  119.0090   61.0760 C   0  0  0  0  0  0  0  0  0  0  0  0
  132.0140  119.4550   61.0570 C   0  0  0  0  0  0  0  0  0  0  0  0
  132.3070  120.8140   61.1550 C   0  0  0  0  0  0  0  0  0  0  0  0
  131.2690  121.7350   61.2730 C   0  0  0  0  0  0  0  0  0  0  0  0
  128.8440  125.5190   59.5580 C   0  0  1  0  0  0  0  0  0  0  0  0
  128.4510  126.0940   60.8020 O   0  0  0  0  0  0  0  0  0  0  0  0
  128.0110  125.1750   61.7950 C   0  0  0  0  0  0  0  0  0  0  0  0
  128.7960  125.3860   63.0820 C   0  0  0  0  0  0  0  0  0  0  0  0
  128.7860  126.6390   63.7030 C   0  0  0  0  0  0  0  0  0  0  0  0
  129.5090  126.8410   64.8750 C   0  0  0  0  0  0  0  0  0  0  0  0
  130.2440  125.7910   65.4230 C   0  0  0  0  0  0  0  0  0  0  0  0
  130.2660  124.5430   64.8070 C   0  0  0  0  0  0  0  0  0  0  0  0
  129.5440  124.3400   63.6340 C   0  0  0  0  0  0  0  0  0  0  0  0
  130.1370  126.1930   59.1370 C   0  0  2  0  0  0  0  0  0  0  0  0
  129.8690  127.4450   58.5090 O   0  0  0  0  0  0  0  0  0  0  0  0
  130.7870  127.8330   57.4930 C   0  0  0  0  0  0  0  0  0  0  0  0
  131.6810  128.9530   58.0030 C   0  0  0  0  0  0  0  0  0  0  0  0
  131.3680  129.6170   59.1940 C   0  0  0  0  0  0  0  0  0  0  0  0
  132.1950  130.6350   59.6620 C   0  0  0  0  0  0  0  0  0  0  0  0
  133.3350  130.9840   58.9410 C   0  0  0  0  0  0  0  0  0  0  0  0
  133.6570  130.3240   57.7580 C   0  0  0  0  0  0  0  0  0  0  0  0
  132.8300  129.3050   57.2890 C   0  0  0  0  0  0  0  0  0  0  0  0
  133.0580  124.3320   60.0020 C   0  0  0  0  0  0  0  0  0  0  0  0
  132.2740  125.1510   60.8310 C   0  0  0  0  0  0  0  0  0  0  0  0
  132.4860  125.1750   62.2060 C   0  0  0  0  0  0  0  0  0  0  0  0
  133.4850  124.3850   62.7890 C   0  0  0  0  0  0  0  0  0  0  0  0
  133.7080  124.4100   64.2550 N   0  0  0  0  0  0  0  0  0  0  0  0
  133.2190  123.5170   64.9410 O   0  0  0  0  0  0  0  0  0  0  0  0
  134.3750  125.3230   64.7330 O   0  0  0  0  0  0  0  0  0  0  0  0
  134.2680  123.5700   61.9620 C   0  0  0  0  0  0  0  0  0  0  0  0
  134.0590  123.5450   60.5870 C   0  0  0  0  0  0  0  0  0  0  0  0
  1  2  2  0
  2  3  1  0
  4  3  1  1
  4  5  1  0
  5  6  1  0
  6  7  1  6
  7  8  1  0
  8  9  1  0
  9 10  1  0
 10 11  2  0
 11 12  1  0
 12 13  2  0
 13 14  1  0
 14 15  2  0
  6 16  1  0
 16 17  1  1
 17 18  1  0
 18 19  1  0
 19 20  2  0
 20 21  1  0
 21 22  2  0
 22 23  1  0
 23 24  2  0
 16 25  1  0
 25 26  1  6
 26 27  1  0
 27 28  1  0
 28 29  2  0
 29 30  1  0
 30 31  2  0
 31 32  1  0
 32 33  2  0
  2 34  1  0
 34 35  2  0
 35 36  1  0
 36 37  2  0
 37 38  1  0
 38 39  2  0
 38 40  1  0
 37 41  1  0
 41 42  2  0
 25  4  1  0
 33 28  1  0
 42 34  1  0
 15 10  1  0
 24 19  1  0
M  CHG  2  38   1  40  -1
M  END
>  <Binding energies>  (55) 
[-8.99]

>  <Ligand effiencies>  (55) 
[-0.21404761904761904]

>  <Interactions>  (55) 
["V-A:PRO:540:CB:4885, V-A:LEU:363:CA:3185, V-A:ASP:366:CG:3213, V-A:PRO:540:CA:4883, V-A:LEU:363:CB:3187, V-B:GLU:543:CD:9880, V-A:GLU:543:CD:4908, V-A:ASP:366:CB:3212, V-A:ARG:545:CZ:4926, V-A:TYR:531:CZ:4794, V-B:TYR:539:CZ:9849, V-B:ALA:541:CB:9864, H-A:TYR:484:OH:4348, H-A:ARG:545:NH1:4927, H-A:ARG:545:NE:4924, V-B:GLU:543:CG:9879, V-A:LEU:475:CD1:4258, V-A:GLY:454:CA:4049, H-A:GLY:454:N:4050, H-A:ARG:545:NH2:4928, V-B:TYR:539:CD2:9846, V-B:PRO:540:CA:9855, V-B:TYR:539:CE2:9848, V-A:ILE:369:CD1:3239, V-A:ILE:369:CG2:3237, V-A:LEU:363:CD1:3189, H-B:ALA:541:N:9863, V-B:ALA:541:CA:9862, V-A:PRO:482:CB:4326, V-A:PRO:482:CG:4327, V-A:TRP:381:CZ2:3370, V-A:TRP:381:CH2:3372, V-A:GLY:453:C:4042, V-A:GLY:453:CA:4044, H-B:TYR:539:OH:9850"]

$$$$
RR8_B_Rahimova_2017
     RDKit          3D

 42 46  0  0  0  0  0  0  0  0999 V2000
  133.2690  123.9970   57.7620 O   0  0  0  0  0  0  0  0  0  0  0  0
  132.6680  124.6790   58.5980 C   0  0  0  0  0  0  0  0  0  0  0  0
  131.7630  125.6580   58.2900 O   0  0  0  0  0  0  0  0  0  0  0  0
  130.7940  125.3810   57.3100 C   0  0  2  0  0  0  0  0  0  0  0  0
  130.5900  126.4710   56.4550 O   0  0  0  0  0  0  0  0  0  0  0  0
  129.5420  127.3160   56.9260 C   0  0  2  0  0  0  0  0  0  0  0  0
  130.0860  128.7400   57.1370 C   0  0  0  0  0  0  0  0  0  0  0  0
  131.4270  128.6640   57.6050 O   0  0  0  0  0  0  0  0  0  0  0  0
  131.9830  129.8990   58.0310 C   0  0  0  0  0  0  0  0  0  0  0  0
  131.6930  130.9660   56.9850 C   0  0  0  0  0  0  0  0  0  0  0  0
  130.6220  131.8450   57.1690 C   0  0  0  0  0  0  0  0  0  0  0  0
  130.3360  132.8070   56.2040 C   0  0  0  0  0  0  0  0  0  0  0  0
  131.1250  132.8890   55.0580 C   0  0  0  0  0  0  0  0  0  0  0  0
  132.1990  132.0210   54.8720 C   0  0  0  0  0  0  0  0  0  0  0  0
  132.4830  131.0560   55.8350 C   0  0  0  0  0  0  0  0  0  0  0  0
  129.0270  126.6140   58.1880 C   0  0  1  0  0  0  0  0  0  0  0  0
  127.6120  126.7920   58.2990 O   0  0  0  0  0  0  0  0  0  0  0  0
  126.8510  126.7280   57.0900 C   0  0  0  0  0  0  0  0  0  0  0  0
  126.7590  125.3080   56.5390 C   0  0  0  0  0  0  0  0  0  0  0  0
  126.1400  124.3040   57.2890 C   0  0  0  0  0  0  0  0  0  0  0  0
  126.0290  123.0170   56.7700 C   0  0  0  0  0  0  0  0  0  0  0  0
  126.5400  122.7380   55.5040 C   0  0  0  0  0  0  0  0  0  0  0  0
  127.1620  123.7320   54.7530 C   0  0  0  0  0  0  0  0  0  0  0  0
  127.2700  125.0210   55.2710 C   0  0  0  0  0  0  0  0  0  0  0  0
  129.4390  125.1600   57.9810 C   0  0  2  0  0  0  0  0  0  0  0  0
  129.5210  124.4850   59.2340 O   0  0  0  0  0  0  0  0  0  0  0  0
  128.8570  123.2320   59.3000 C   0  0  0  0  0  0  0  0  0  0  0  0
  129.3700  122.4860   60.5190 C   0  0  0  0  0  0  0  0  0  0  0  0
  129.4700  123.1330   61.7530 C   0  0  0  0  0  0  0  0  0  0  0  0
  129.9610  122.4440   62.8600 C   0  0  0  0  0  0  0  0  0  0  0  0
  130.3500  121.1130   62.7280 C   0  0  0  0  0  0  0  0  0  0  0  0
  130.2510  120.4610   61.5000 C   0  0  0  0  0  0  0  0  0  0  0  0
  129.7600  121.1490   60.3940 C   0  0  0  0  0  0  0  0  0  0  0  0
  132.8840  124.5440   60.0770 C   0  0  0  0  0  0  0  0  0  0  0  0
  132.1540  125.3030   61.0040 C   0  0  0  0  0  0  0  0  0  0  0  0
  132.3820  125.1630   62.3690 C   0  0  0  0  0  0  0  0  0  0  0  0
  133.3510  124.2710   62.8420 C   0  0  0  0  0  0  0  0  0  0  0  0
  133.6120  124.1420   64.2970 N   0  0  0  0  0  0  0  0  0  0  0  0
  133.2380  123.1250   64.8740 O   0  0  0  0  0  0  0  0  0  0  0  0
  134.1960  125.0570   64.8730 O   0  0  0  0  0  0  0  0  0  0  0  0
  134.0770  123.5090   61.9170 C   0  0  0  0  0  0  0  0  0  0  0  0
  133.8450  123.6430   60.5520 C   0  0  0  0  0  0  0  0  0  0  0  0
  1  2  2  0
  2  3  1  0
  4  3  1  1
  4  5  1  0
  5  6  1  0
  6  7  1  1
  7  8  1  0
  8  9  1  0
  9 10  1  0
 10 11  2  0
 11 12  1  0
 12 13  2  0
 13 14  1  0
 14 15  2  0
  6 16  1  0
 16 17  1  6
 17 18  1  0
 18 19  1  0
 19 20  2  0
 20 21  1  0
 21 22  2  0
 22 23  1  0
 23 24  2  0
 16 25  1  0
 25 26  1  1
 26 27  1  0
 27 28  1  0
 28 29  2  0
 29 30  1  0
 30 31  2  0
 31 32  1  0
 32 33  2  0
  2 34  1  0
 34 35  2  0
 35 36  1  0
 36 37  2  0
 37 38  1  0
 38 39  2  0
 38 40  1  0
 37 41  1  0
 41 42  2  0
 25  4  1  0
 33 28  1  0
 42 34  1  0
 15 10  1  0
 24 19  1  0
M  CHG  2  38   1  40  -1
M  END
>  <Binding energies>  (56) 
[-9.24]

>  <Ligand effiencies>  (56) 
[-0.22]

>  <Interactions>  (56) 
["V-A:ASP:366:CG:3213, V-A:PRO:540:CA:4883, V-A:TYR:539:CD1:4873, V-A:ILE:538:CD1:4865, V-A:TYR:539:C:4867, V-A:ASP:366:CB:3212, V-A:TYR:531:CE2:4793, V-A:PRO:540:N:4884, V-A:TYR:531:CZ:4794, V-B:TYR:539:CZ:9849, V-B:ALA:541:CB:9864, H-A:TYR:484:OH:4348, H-A:ARG:545:NE:4924, V-A:LEU:475:CD1:4258, V-A:GLY:454:CA:4049, V-B:PRO:540:N:9856, H-A:GLY:454:N:4050, H-A:ARG:545:NH2:4928, V-B:TYR:539:CD2:9846, V-B:PRO:540:CA:9855, V-B:TYR:539:CE2:9848, V-A:ILE:538:CA:4860, V-A:ILE:369:CD1:3239, V-A:PRO:540:CD:4887, V-A:ILE:538:CG2:4863, V-A:LEU:363:CD1:3189, V-B:PRO:540:CD:9859, V-A:TYR:539:CA:4869, V-B:ILE:538:CB:9834, V-B:ILE:538:C:9830, V-B:ILE:538:CA:9832, V-B:ILE:538:CG2:9835, V-A:GLY:453:C:4042, H-A:TYR:531:OH:4795, H-B:TYR:539:OH:9850, V-A:ILE:538:C:4858"]

$$$$
RR9_Rahimova_2017
     RDKit          3D

 36 40  0  0  0  0  0  0  0  0999 V2000
  130.4580  122.7300   72.4640 C   0  0  0  0  0  0  0  0  0  0  0  0
  129.6450  123.1260   71.2280 C   0  0  0  0  0  0  0  0  0  0  0  0
  130.2580  124.2600   70.6210 O   0  0  0  0  0  0  0  0  0  0  0  0
  129.5020  125.0890   69.8140 C   0  0  0  0  0  0  0  0  0  0  0  0
  129.7930  125.0670   68.4520 C   0  0  0  0  0  0  0  0  0  0  0  0
  129.0860  125.8700   67.5630 C   0  0  0  0  0  0  0  0  0  0  0  0
  128.0640  126.7200   68.0130 C   0  0  0  0  0  0  0  0  0  0  0  0
  127.3010  127.5910   67.0600 C   0  0  0  0  0  0  0  0  0  0  0  0
  127.8080  127.9140   65.7910 C   0  0  0  0  0  0  0  0  0  0  0  0
  127.0830  128.7210   64.8960 C   0  0  0  0  0  0  0  0  0  0  0  0
  127.6330  128.9470   63.5140 C   0  0  0  0  0  0  0  0  0  0  0  0
  127.8600  127.9920   62.7700 O   0  0  0  0  0  0  0  0  0  0  0  0
  127.8710  130.2310   63.1810 N   0  0  0  0  0  0  0  0  0  0  0  0
  128.5230  130.6940   61.9520 C   0  0  0  0  0  0  0  0  0  0  0  0
  127.9060  130.0830   60.6720 C   0  0  0  0  0  0  0  0  0  0  0  0
  128.2940  130.7890   59.3780 C   0  0  0  0  0  0  0  0  0  0  0  0
  127.7000  130.4140   58.1680 C   0  0  0  0  0  0  0  0  0  0  0  0
  128.0320  131.0840   56.9940 C   0  0  0  0  0  0  0  0  0  0  0  0
  128.9580  132.1240   57.0310 C   0  0  0  0  0  0  0  0  0  0  0  0
  129.5570  132.5000   58.2320 C   0  0  0  0  0  0  0  0  0  0  0  0
  129.2250  131.8310   59.4070 C   0  0  0  0  0  0  0  0  0  0  0  0
  125.8380  129.2110   65.3610 C   0  0  0  0  0  0  0  0  0  0  0  0
  124.7640  130.0610   64.9020 C   0  0  0  0  0  0  0  0  0  0  0  0
  124.6550  130.8530   63.6410 C   0  0  0  0  0  0  0  0  0  0  0  0
  125.3130  132.0810   63.5220 C   0  0  0  0  0  0  0  0  0  0  0  0
  125.1970  132.8260   62.3510 C   0  0  0  0  0  0  0  0  0  0  0  0
  124.4240  132.3440   61.2940 C   0  0  0  0  0  0  0  0  0  0  0  0
  124.2820  133.1650   60.0240 C   0  0  0  0  0  0  0  0  0  0  0  0
  123.7630  131.1200   61.4090 C   0  0  0  0  0  0  0  0  0  0  0  0
  123.8830  130.3760   62.5790 C   0  0  0  0  0  0  0  0  0  0  0  0
  123.7970  130.1040   65.7910 N   0  0  0  0  0  0  0  0  0  0  0  0
  124.1800  129.3760   66.8530 N   0  0  0  0  0  0  0  0  0  0  0  0
  125.4200  128.8170   66.6550 C   0  0  0  0  0  0  0  0  0  0  0  0
  126.0960  128.0450   67.5050 N   0  0  0  0  0  0  0  0  0  0  0  0
  127.7790  126.7380   69.3850 C   0  0  0  0  0  0  0  0  0  0  0  0
  128.4840  125.9340   70.2770 C   0  0  0  0  0  0  0  0  0  0  0  0
  1  2  1  0
  2  3  1  0
  3  4  1  0
  4  5  2  0
  5  6  1  0
  6  7  2  0
  7  8  1  0
  8  9  2  0
  9 10  1  0
 10 11  1  0
 11 12  2  0
 11 13  1  0
 13 14  1  0
 14 15  1  0
 15 16  1  0
 16 17  2  0
 17 18  1  0
 18 19  2  0
 19 20  1  0
 20 21  2  0
 10 22  2  0
 22 23  1  0
 23 24  1  0
 24 25  2  0
 25 26  1  0
 26 27  2  0
 27 28  1  0
 27 29  1  0
 29 30  2  0
 23 31  2  0
 31 32  1  0
 32 33  1  0
 33 34  2  0
  7 35  1  0
 35 36  2  0
 36  4  1  0
 34  8  1  0
 21 16  1  0
 33 22  1  0
 30 24  1  0
M  END
>  <Binding energies>  (57) 
[-8.62]

>  <Ligand effiencies>  (57) 
[-0.22684210526315787]

>  <Interactions>  (57) 
["V-B:ARG:545:CD:9895, V-B:GLU:543:C:9874, V-B:GLU:543:CB:9878, V-B:GLY:544:C:9884, V-B:HIS:456:CE1:9040, V-B:LEU:475:CD1:9229, V-A:PRO:540:CA:4883, V-B:GLU:543:CD:9880, V-B:ARG:545:CG:9894, V-A:TYR:539:CD1:4873, V-A:TYR:539:CD2:4874, V-A:TYR:539:CE2:4876, V-A:TYR:539:CG:4872, V-A:TYR:539:CE1:4875, V-A:TYR:539:C:4867, V-A:TYR:539:CZ:4877, V-A:PRO:540:N:4884, V-B:ILE:369:CD1:8210, V-B:ASP:366:CG:8184, V-B:ARG:545:CZ:9898, V-A:HIS:456:CE1:4069, V-A:TYR:484:CE1:4345, V-A:TYR:484:CZ:4347, H-B:GLY:454:N:9021, H-B:TYR:484:OH:9319, H-A:HIS:456:NE2:4070, V-A:HIS:456:CD2:4068, V-A:TYR:484:CD2:4344, V-A:TYR:484:CD1:4343, V-A:TYR:484:CG:4342, H-B:ARG:545:NE:9896, H-B:ILE:455:N:9026, V-A:TYR:484:CE2:4346, V-B:ILE:369:CG2:8208, H-B:HIS:456:ND1:9038, H-B:ILE:455:O:9024"]

$$$$
