1a_Grossjean_2025
     RDKit          3D

 26 27  0  0  0  0  0  0  0  0999 V2000
  125.6400  127.2720   73.4920 C   0  0  0  0  0  0  0  0  0  0  0  0
  126.6780  126.5060   74.3180 C   0  0  0  0  0  0  0  0  0  0  0  0
  127.6830  125.9890   73.4550 O   0  0  0  0  0  0  0  0  0  0  0  0
  128.5200  126.8180   72.7780 C   0  0  0  0  0  0  0  0  0  0  0  0
  128.9230  127.8940   73.2300 O   0  0  0  0  0  0  0  0  0  0  0  0
  128.8930  126.3030   71.4180 C   0  0  0  0  0  0  0  0  0  0  0  0
  128.6060  127.0820   70.2890 C   0  0  0  0  0  0  0  0  0  0  0  0
  128.9360  126.6300   69.0150 C   0  0  0  0  0  0  0  0  0  0  0  0
  129.5560  125.3920   68.8410 C   0  0  0  0  0  0  0  0  0  0  0  0
  129.8420  125.0340   67.5090 N   0  0  0  0  0  0  0  0  0  0  0  0
  129.2700  125.4470   66.3580 C   0  0  0  0  0  0  0  0  0  0  0  0
  128.3470  126.2570   66.2670 O   0  0  0  0  0  0  0  0  0  0  0  0
  129.8480  124.8320   65.0810 C   0  0  0  0  0  0  0  0  0  0  0  0
  130.1240  123.0430   65.2470 S   0  0  0  0  0  0  0  0  0  0  0  0
  130.9770  122.4960   63.7850 C   0  0  0  0  0  0  0  0  0  0  0  0
  130.2420  121.6710   62.9980 N   0  0  0  0  0  0  0  0  0  0  0  0
  130.7980  121.1900   61.8610 C   0  0  0  0  0  0  0  0  0  0  0  0
  129.9210  120.2630   61.0390 C   0  0  0  0  0  0  0  0  0  0  0  0
  132.0910  121.5180   61.4590 C   0  0  0  0  0  0  0  0  0  0  0  0
  132.8500  122.3850   62.2520 C   0  0  0  0  0  0  0  0  0  0  0  0
  134.2590  122.7420   61.7840 C   0  0  0  0  0  0  0  0  0  0  0  0
  132.2890  122.9020   63.4430 C   0  0  0  0  0  0  0  0  0  0  0  0
  133.0470  123.8500   64.2640 C   0  0  0  0  0  0  0  0  0  0  0  0
  133.6470  124.5980   64.9110 N   0  0  0  0  0  0  0  0  0  0  0  0
  129.8550  124.6090   69.9660 C   0  0  0  0  0  0  0  0  0  0  0  0
  129.5240  125.0620   71.2400 C   0  0  0  0  0  0  0  0  0  0  0  0
  1  2  1  0
  2  3  1  0
  3  4  1  0
  4  5  2  0
  4  6  1  0
  6  7  2  0
  7  8  1  0
  8  9  2  0
  9 10  1  0
 10 11  1  0
 11 12  2  0
 11 13  1  0
 13 14  1  0
 14 15  1  0
 15 16  2  0
 16 17  1  0
 17 18  1  0
 17 19  2  0
 19 20  1  0
 20 21  1  0
 20 22  2  0
 22 23  1  0
 23 24  3  0
  9 25  1  0
 25 26  2  0
 26  6  1  0
 22 15  1  0
M  END
>  <Binding energies>  (1) 
[-7.99]

>  <Ligand effiencies>  (1) 
[-0.2959259259259259]

>  <Interactions>  (1) 
["V-B:GLU:543:C:9874, V-B:GLU:543:CB:9878, V-B:HIS:456:CE1:9040, V-B:ALA:541:CB:9864, H-A:TYR:484:OH:4348, V-A:HIS:456:CE1:4069, V-B:GLU:543:CG:9879, V-A:LEU:475:CD1:4258, V-A:TYR:484:CE1:4345, V-A:GLY:454:CA:4049, V-A:TYR:484:CZ:4347, H-A:GLY:454:N:4050, V-B:TYR:539:CD2:9846, V-A:ILE:369:CD1:3239, V-A:HIS:456:CG:4066, V-A:HIS:456:CD2:4068, H-A:LYS:547:NZ:4951, H-B:LYS:547:NZ:9923, V-B:HIS:456:CG:9037, V-B:HIS:456:CB:9036, V-B:LYS:547:CD:9921, V-B:LYS:547:CE:9922, H-B:GLU:543:O:9875, H-A:HIS:456:ND1:4067"]

$$$$
1aa_Ghoteimi_2023
     RDKit          3D

 40 43  0  0  0  0  0  0  0  0999 V2000
  125.8600  123.9870   55.2010 C   0  0  0  0  0  0  0  0  0  0  0  0
  125.1290  123.2660   56.3380 C   0  0  0  0  0  0  0  0  0  0  0  0
  125.8820  123.3910   57.5380 O   0  0  0  0  0  0  0  0  0  0  0  0
  127.0090  122.6610   57.7370 C   0  0  0  0  0  0  0  0  0  0  0  0
  127.5470  121.9860   56.8550 O   0  0  0  0  0  0  0  0  0  0  0  0
  127.5380  122.7560   59.1390 C   0  0  0  0  0  0  0  0  0  0  0  0
  128.4840  121.8480   59.6390 C   0  0  0  0  0  0  0  0  0  0  0  0
  128.9580  121.9610   60.9440 C   0  0  0  0  0  0  0  0  0  0  0  0
  128.4930  122.9920   61.7740 C   0  0  0  0  0  0  0  0  0  0  0  0
  128.8980  123.2040   63.1050 N   0  0  0  0  0  0  0  0  0  0  0  0
  130.1090  123.5340   63.6110 C   0  0  0  0  0  0  0  0  0  0  0  0
  131.1240  123.7230   62.9410 O   0  0  0  0  0  0  0  0  0  0  0  0
  130.2160  123.6870   65.1370 C   0  0  0  0  0  0  0  0  0  0  0  0
  130.5360  125.0400   65.4850 O   0  0  0  0  0  0  0  0  0  0  0  0
  129.6590  125.7940   66.2510 C   0  0  0  0  0  0  0  0  0  0  0  0
  129.7160  125.6630   67.6060 N   0  0  0  0  0  0  0  0  0  0  0  0
  128.8640  126.3740   68.3900 C   0  0  0  0  0  0  0  0  0  0  0  0
  128.9930  126.1760   69.8730 C   0  0  0  0  0  0  0  0  0  0  0  0
  129.4570  124.9620   70.4010 C   0  0  0  0  0  0  0  0  0  0  0  0
  129.5750  124.7750   71.7750 C   0  0  0  0  0  0  0  0  0  0  0  0
  129.2360  125.7930   72.6630 C   0  0  0  0  0  0  0  0  0  0  0  0
  129.3850  125.5170   74.0090 O   0  0  0  0  0  0  0  0  0  0  0  0
  130.6950  125.3720   74.5470 C   0  0  0  0  0  0  0  0  0  0  0  0
  128.7760  127.0140   72.1500 C   0  0  0  0  0  0  0  0  0  0  0  0
  128.6590  127.1980   70.7760 C   0  0  0  0  0  0  0  0  0  0  0  0
  127.9380  127.2570   67.8200 C   0  0  0  0  0  0  0  0  0  0  0  0
  127.8660  127.4180   66.4290 C   0  0  0  0  0  0  0  0  0  0  0  0
  126.8640  128.3820   65.8840 C   0  0  0  0  0  0  0  0  0  0  0  0
  127.2060  129.2260   64.8230 C   0  0  0  0  0  0  0  0  0  0  0  0
  126.2750  130.1210   64.3030 C   0  0  0  0  0  0  0  0  0  0  0  0
  124.9840  130.1860   64.8270 C   0  0  0  0  0  0  0  0  0  0  0  0
  124.1280  131.1040   64.2480 O   0  0  0  0  0  0  0  0  0  0  0  0
  123.8720  131.0290   62.8500 C   0  0  0  0  0  0  0  0  0  0  0  0
  124.6350  129.3360   65.8860 C   0  0  0  0  0  0  0  0  0  0  0  0
  125.5670  128.4420   66.4060 C   0  0  0  0  0  0  0  0  0  0  0  0
  128.7450  126.6580   65.6240 C   0  0  0  0  0  0  0  0  0  0  0  0
  128.7130  126.7270   64.1620 C   0  0  0  0  0  0  0  0  0  0  0  0
  128.6900  126.7800   63.0060 N   0  0  0  0  0  0  0  0  0  0  0  0
  127.5510  123.8960   61.2810 C   0  0  0  0  0  0  0  0  0  0  0  0
  127.0790  123.7810   59.9770 C   0  0  0  0  0  0  0  0  0  0  0  0
  1  2  1  0
  2  3  1  0
  3  4  1  0
  4  5  2  0
  4  6  1  0
  6  7  2  0
  7  8  1  0
  8  9  2  0
  9 10  1  0
 10 11  1  0
 11 12  2  0
 11 13  1  0
 13 14  1  0
 14 15  1  0
 15 16  2  0
 16 17  1  0
 17 18  1  0
 18 19  2  0
 19 20  1  0
 20 21  2  0
 21 22  1  0
 22 23  1  0
 21 24  1  0
 24 25  2  0
 17 26  2  0
 26 27  1  0
 27 28  1  0
 28 29  2  0
 29 30  1  0
 30 31  2  0
 31 32  1  0
 32 33  1  0
 31 34  1  0
 34 35  2  0
 27 36  2  0
 36 37  1  0
 37 38  3  0
  9 39  1  0
 39 40  2  0
 40  6  1  0
 36 15  1  0
 25 18  1  0
 35 28  1  0
M  END
>  <Binding energies>  (2) 
[-9.45]

>  <Ligand effiencies>  (2) 
[-0.23048780487804876]

>  <Interactions>  (2) 
["V-B:ARG:545:CD:9895, V-B:GLU:543:CB:9878, V-B:HIS:456:CE1:9040, V-B:GLU:543:CD:9880, V-B:ARG:545:CG:9894, V-B:ARG:545:CZ:9898, V-B:GLY:454:CA:9020, H-B:GLU:543:OE2:9882, V-B:ALA:541:CB:9864, H-A:TYR:484:OH:4348, V-A:HIS:456:CE1:4069, V-B:GLU:543:CG:9879, V-A:TYR:484:CE1:4345, V-B:PRO:540:N:9856, V-A:TYR:484:CZ:4347, V-B:TYR:539:CD2:9846, V-B:PRO:540:CA:9855, V-B:TYR:539:C:9839, V-B:TYR:539:CE2:9848, H-B:GLY:454:N:9021, H-B:TYR:484:OH:9319, H-A:HIS:456:NE2:4070, V-A:HIS:456:CD2:4068, H-B:LYS:547:NZ:9923, V-B:LEU:363:CD1:8160, V-B:ILE:538:CB:9834, V-B:ILE:538:CG2:9835, H-B:TYR:539:N:9842"]

$$$$
1b_Grossjean_2025
     RDKit          3D

 25 26  0  0  0  0  0  0  0  0999 V2000
  127.1030  126.7990   73.8190 C   0  0  0  0  0  0  0  0  0  0  0  0
  128.2770  126.0030   73.9190 O   0  0  0  0  0  0  0  0  0  0  0  0
  129.4160  126.3540   73.2690 C   0  0  0  0  0  0  0  0  0  0  0  0
  130.3800  126.8880   73.8260 O   0  0  0  0  0  0  0  0  0  0  0  0
  129.3900  126.0230   71.8040 C   0  0  0  0  0  0  0  0  0  0  0  0
  129.8980  124.8130   71.3080 C   0  0  0  0  0  0  0  0  0  0  0  0
  129.8600  124.5370   69.9440 C   0  0  0  0  0  0  0  0  0  0  0  0
  129.3150  125.4590   69.0500 C   0  0  0  0  0  0  0  0  0  0  0  0
  129.3310  125.0750   67.6950 N   0  0  0  0  0  0  0  0  0  0  0  0
  129.9710  125.6270   66.6420 C   0  0  0  0  0  0  0  0  0  0  0  0
  130.7010  126.6170   66.6860 O   0  0  0  0  0  0  0  0  0  0  0  0
  129.7530  124.9240   65.3010 C   0  0  0  0  0  0  0  0  0  0  0  0
  130.0870  123.1400   65.4000 S   0  0  0  0  0  0  0  0  0  0  0  0
  130.9060  122.6690   63.8910 C   0  0  0  0  0  0  0  0  0  0  0  0
  130.1780  121.8290   63.1140 N   0  0  0  0  0  0  0  0  0  0  0  0
  130.7060  121.4080   61.9400 C   0  0  0  0  0  0  0  0  0  0  0  0
  129.8300  120.4820   61.1170 C   0  0  0  0  0  0  0  0  0  0  0  0
  131.9710  121.7940   61.5030 C   0  0  0  0  0  0  0  0  0  0  0  0
  132.7380  122.6430   62.3090 C   0  0  0  0  0  0  0  0  0  0  0  0
  134.1290  123.0390   61.8170 C   0  0  0  0  0  0  0  0  0  0  0  0
  132.2080  123.0950   63.5380 C   0  0  0  0  0  0  0  0  0  0  0  0
  133.0100  123.9490   64.4180 C   0  0  0  0  0  0  0  0  0  0  0  0
  133.6460  124.6230   65.1110 N   0  0  0  0  0  0  0  0  0  0  0  0
  128.8050  126.6710   69.5380 C   0  0  0  0  0  0  0  0  0  0  0  0
  128.8430  126.9460   70.9020 C   0  0  0  0  0  0  0  0  0  0  0  0
  1  2  1  0
  2  3  1  0
  3  4  2  0
  3  5  1  0
  5  6  2  0
  6  7  1  0
  7  8  2  0
  8  9  1  0
  9 10  1  0
 10 11  2  0
 10 12  1  0
 12 13  1  0
 13 14  1  0
 14 15  2  0
 15 16  1  0
 16 17  1  0
 16 18  2  0
 18 19  1  0
 19 20  1  0
 19 21  2  0
 21 22  1  0
 22 23  3  0
  8 24  1  0
 24 25  2  0
 25  5  1  0
 21 14  1  0
M  END
>  <Binding energies>  (3) 
[-7.87]

>  <Ligand effiencies>  (3) 
[-0.3026923076923077]

>  <Interactions>  (3) 
["V-B:GLU:543:C:9874, V-B:GLU:543:CB:9878, V-B:HIS:456:CE1:9040, V-B:ALA:541:CB:9864, H-A:TYR:484:OH:4348, V-A:HIS:456:CE1:4069, V-B:GLU:543:CG:9879, V-A:LEU:475:CD1:4258, V-A:TYR:484:CE1:4345, V-A:GLY:454:CA:4049, V-A:TYR:484:CZ:4347, H-A:GLY:454:N:4050, V-B:TYR:539:CD2:9846, V-A:ILE:369:CD1:3239, V-A:HIS:456:CG:4066, H-A:HIS:456:NE2:4070, V-A:HIS:456:CD2:4068, H-A:LYS:547:NZ:4951, H-B:LYS:547:NZ:9923, V-B:GLU:543:CA:9876, V-B:LYS:547:CD:9921, H-B:GLU:543:O:9875"]

$$$$
1c_Grossjean_2025
     RDKit          3D

 23 24  0  0  0  0  0  0  0  0999 V2000
  127.2720  126.8730   73.4020 C   0  0  0  0  0  0  0  0  0  0  0  0
  128.2620  125.8910   73.1200 O   0  0  0  0  0  0  0  0  0  0  0  0
  128.6400  125.6720   71.8090 C   0  0  0  0  0  0  0  0  0  0  0  0
  129.4550  124.5650   71.5720 C   0  0  0  0  0  0  0  0  0  0  0  0
  129.8870  124.2610   70.2850 C   0  0  0  0  0  0  0  0  0  0  0  0
  129.4970  125.0680   69.2060 C   0  0  0  0  0  0  0  0  0  0  0  0
  129.8840  124.8590   67.8680 N   0  0  0  0  0  0  0  0  0  0  0  0
  129.3710  125.3840   66.7350 C   0  0  0  0  0  0  0  0  0  0  0  0
  128.4410  126.1890   66.6780 O   0  0  0  0  0  0  0  0  0  0  0  0
  130.0330  124.9170   65.4370 C   0  0  0  0  0  0  0  0  0  0  0  0
  130.0430  123.1060   65.2950 S   0  0  0  0  0  0  0  0  0  0  0  0
  130.9300  122.6630   63.8150 C   0  0  0  0  0  0  0  0  0  0  0  0
  130.2380  121.8260   63.0010 N   0  0  0  0  0  0  0  0  0  0  0  0
  130.8120  121.4190   61.8440 C   0  0  0  0  0  0  0  0  0  0  0  0
  129.9730  120.4940   60.9820 C   0  0  0  0  0  0  0  0  0  0  0  0
  132.0900  121.8160   61.4600 C   0  0  0  0  0  0  0  0  0  0  0  0
  132.8230  122.6580   62.3020 C   0  0  0  0  0  0  0  0  0  0  0  0
  134.2290  123.0650   61.8670 C   0  0  0  0  0  0  0  0  0  0  0  0
  132.2440  123.0940   63.5170 C   0  0  0  0  0  0  0  0  0  0  0  0
  133.0170  123.9320   64.4380 C   0  0  0  0  0  0  0  0  0  0  0  0
  133.6270  124.5940   65.1640 N   0  0  0  0  0  0  0  0  0  0  0  0
  128.6910  126.1830   69.4400 C   0  0  0  0  0  0  0  0  0  0  0  0
  128.2610  126.4840   70.7290 C   0  0  0  0  0  0  0  0  0  0  0  0
  1  2  1  0
  2  3  1  0
  3  4  2  0
  4  5  1  0
  5  6  2  0
  6  7  1  0
  7  8  1  0
  8  9  2  0
  8 10  1  0
 10 11  1  0
 11 12  1  0
 12 13  2  0
 13 14  1  0
 14 15  1  0
 14 16  2  0
 16 17  1  0
 17 18  1  0
 17 19  2  0
 19 20  1  0
 20 21  3  0
  6 22  1  0
 22 23  2  0
 23  3  1  0
 19 12  1  0
M  END
>  <Binding energies>  (4) 
[-7.59]

>  <Ligand effiencies>  (4) 
[-0.31625]

>  <Interactions>  (4) 
["V-B:GLU:543:C:9874, V-B:GLU:543:CB:9878, V-B:HIS:456:CE1:9040, V-B:ALA:541:CB:9864, H-A:TYR:484:OH:4348, V-A:HIS:456:CE1:4069, V-A:LEU:475:CD1:4258, V-A:TYR:484:CE1:4345, V-A:GLY:454:CA:4049, V-A:TYR:484:CZ:4347, H-A:GLY:454:N:4050, V-B:TYR:539:CD2:9846, V-A:ILE:369:CD1:3239, V-A:HIS:456:CG:4066, V-A:HIS:456:CD2:4068, H-B:LYS:547:NZ:9923, V-A:TYR:484:CD1:4343, H-B:GLU:543:O:9875, H-A:HIS:456:ND1:4067"]

$$$$
1d_Grossjean_2025
     RDKit          3D

 21 22  0  0  0  0  0  0  0  0999 V2000
  130.7420  125.2850   65.8500 C   0  0  0  0  0  0  0  0  0  0  0  0
  129.6780  125.7490   66.8250 C   0  0  0  0  0  0  0  0  0  0  0  0
  128.6200  126.5600   66.4210 C   0  0  0  0  0  0  0  0  0  0  0  0
  127.6620  126.9490   67.3630 C   0  0  0  0  0  0  0  0  0  0  0  0
  126.5030  127.8250   66.8910 C   0  0  0  0  0  0  0  0  0  0  0  0
  127.7950  126.5180   68.7030 C   0  0  0  0  0  0  0  0  0  0  0  0
  126.7790  126.8730   69.6960 C   0  0  0  0  0  0  0  0  0  0  0  0
  125.9740  127.1550   70.4780 N   0  0  0  0  0  0  0  0  0  0  0  0
  128.9150  125.7170   69.0300 C   0  0  0  0  0  0  0  0  0  0  0  0
  129.2390  125.0890   70.6620 S   0  0  0  0  0  0  0  0  0  0  0  0
  129.4710  126.5210   71.7590 C   0  0  0  0  0  0  0  0  0  0  0  0
  128.4620  126.5370   72.9070 C   0  0  0  0  0  0  0  0  0  0  0  0
  128.6550  125.8180   73.8880 O   0  0  0  0  0  0  0  0  0  0  0  0
  127.4220  127.3850   72.7510 N   0  0  0  0  0  0  0  0  0  0  0  0
  126.3230  127.6300   73.5950 C   0  0  0  0  0  0  0  0  0  0  0  0
  126.4840  128.6720   74.5120 C   0  0  0  0  0  0  0  0  0  0  0  0
  125.4560  129.0010   75.3900 C   0  0  0  0  0  0  0  0  0  0  0  0
  124.2580  128.2910   75.3480 C   0  0  0  0  0  0  0  0  0  0  0  0
  124.0810  127.2560   74.4330 C   0  0  0  0  0  0  0  0  0  0  0  0
  125.1080  126.9240   73.5540 C   0  0  0  0  0  0  0  0  0  0  0  0
  129.8270  125.3270   68.1030 N   0  0  0  0  0  0  0  0  0  0  0  0
  1  2  1  0
  2  3  2  0
  3  4  1  0
  4  5  1  0
  4  6  2  0
  6  7  1  0
  7  8  3  0
  6  9  1  0
  9 10  1  0
 10 11  1  0
 11 12  1  0
 12 13  2  0
 12 14  1  0
 14 15  1  0
 15 16  2  0
 16 17  1  0
 17 18  2  0
 18 19  1  0
 19 20  2  0
  9 21  2  0
 21  2  1  0
 20 15  1  0
M  END
>  <Binding energies>  (5) 
[-6.33]

>  <Ligand effiencies>  (5) 
[-0.2877272727272727]

>  <Interactions>  (5) 
["V-B:GLU:543:C:9874, V-B:GLU:543:CB:9878, V-B:GLY:544:C:9884, V-B:HIS:456:CE1:9040, V-B:ARG:545:CG:9894, V-B:ARG:545:CA:9891, H-A:TYR:484:OH:4348, V-A:HIS:456:CE1:4069, H-A:HIS:456:NE2:4070, V-A:HIS:456:CD2:4068, H-B:LYS:547:NZ:9923, V-B:HIS:456:CD2:9039, V-B:VAL:457:CA:9046, V-B:HIS:456:CG:9037, V-B:VAL:457:C:9044, V-B:VAL:458:CG2:9058, V-B:HIS:456:CB:9036, V-B:HIS:456:C:9032, V-B:LYS:547:CD:9921, H-B:GLY:544:O:9885, H-B:HIS:456:ND1:9038, H-B:ARG:545:N:9892, V-B:ARG:545:C:9889"]

$$$$
1e_Grossjean_2025
     RDKit          3D

 22 23  0  0  0  0  0  0  0  0999 V2000
  130.6580  132.8700   53.9930 C   0  0  0  0  0  0  0  0  0  0  0  0
  130.9430  132.3990   55.4070 C   0  0  0  0  0  0  0  0  0  0  0  0
  132.0140  131.5480   55.6920 C   0  0  0  0  0  0  0  0  0  0  0  0
  132.2130  131.1540   57.0160 C   0  0  0  0  0  0  0  0  0  0  0  0
  131.3480  131.6130   58.0110 C   0  0  0  0  0  0  0  0  0  0  0  0
  130.2980  132.4690   57.6570 C   0  0  0  0  0  0  0  0  0  0  0  0
  129.4530  132.8880   58.7000 N   0  0  0  0  0  0  0  0  0  0  0  0
  128.1810  132.5120   58.9550 C   0  0  0  0  0  0  0  0  0  0  0  0
  127.5300  131.7150   58.2770 O   0  0  0  0  0  0  0  0  0  0  0  0
  127.5230  133.1690   60.1700 C   0  0  0  0  0  0  0  0  0  0  0  0
  128.2990  132.6470   61.7290 S   0  0  0  0  0  0  0  0  0  0  0  0
  129.5770  131.4610   61.3610 C   0  0  0  0  0  0  0  0  0  0  0  0
  130.8320  131.9480   61.5390 N   0  0  0  0  0  0  0  0  0  0  0  0
  131.8870  131.1390   61.2880 C   0  0  0  0  0  0  0  0  0  0  0  0
  133.2560  131.7490   61.5150 C   0  0  0  0  0  0  0  0  0  0  0  0
  131.7390  129.8270   60.8420 C   0  0  0  0  0  0  0  0  0  0  0  0
  130.4510  129.3230   60.6320 C   0  0  0  0  0  0  0  0  0  0  0  0
  130.3160  127.8880   60.1250 C   0  0  0  0  0  0  0  0  0  0  0  0
  129.3340  130.1510   60.8840 C   0  0  0  0  0  0  0  0  0  0  0  0
  127.9820  129.6580   60.6140 C   0  0  0  0  0  0  0  0  0  0  0  0
  126.9140  129.2650   60.3990 N   0  0  0  0  0  0  0  0  0  0  0  0
  130.0940  132.8550   56.3630 N   0  0  0  0  0  0  0  0  0  0  0  0
  1  2  1  0
  2  3  2  0
  3  4  1  0
  4  5  2  0
  5  6  1  0
  6  7  1  0
  7  8  1  0
  8  9  2  0
  8 10  1  0
 10 11  1  0
 11 12  1  0
 12 13  2  0
 13 14  1  0
 14 15  1  0
 14 16  2  0
 16 17  1  0
 17 18  1  0
 17 19  2  0
 19 20  1  0
 20 21  3  0
  6 22  2  0
 22  2  1  0
 19 12  1  0
M  END
>  <Binding energies>  (6) 
[-6.9]

>  <Ligand effiencies>  (6) 
[-0.3]

>  <Interactions>  (6) 
["V-A:PRO:540:CB:4885, V-A:ASN:362:CB:3176, V-A:PRO:540:CA:4883, V-A:TYR:539:CD2:4874, V-A:TYR:539:CE2:4876, V-A:ILE:538:CD1:4865, V-A:PRO:540:C:4881, V-A:TYR:539:C:4867, V-A:TYR:539:CZ:4877, V-A:TYR:531:CE2:4793, V-A:PRO:540:N:4884, V-A:ILE:538:CA:4860, V-A:PRO:540:CD:4887, H-A:TYR:539:N:4870, V-A:LEU:363:CD1:3189, V-A:ILE:538:C:4858, H-A:ALA:541:N:4891, H-A:TYR:539:OH:4878, V-A:ILE:538:CB:4862, H-A:TYR:539:O:4868, V-A:VAL:537:C:4850"]

$$$$
1f_Grossjean_2025
     RDKit          3D

 21 22  0  0  0  0  0  0  0  0999 V2000
  134.2630  124.1280   62.6070 C   0  0  0  0  0  0  0  0  0  0  0  0
  133.3660  122.9740   62.2030 C   0  0  0  0  0  0  0  0  0  0  0  0
  133.8610  121.8730   61.5100 C   0  0  0  0  0  0  0  0  0  0  0  0
  132.9830  120.8440   61.1530 C   0  0  0  0  0  0  0  0  0  0  0  0
  133.5450  119.6550   60.3760 C   0  0  0  0  0  0  0  0  0  0  0  0
  131.6190  120.9420   61.5130 C   0  0  0  0  0  0  0  0  0  0  0  0
  130.6740  119.9020   61.1000 C   0  0  0  0  0  0  0  0  0  0  0  0
  129.9290  119.0790   60.7740 N   0  0  0  0  0  0  0  0  0  0  0  0
  131.2090  122.0830   62.2420 C   0  0  0  0  0  0  0  0  0  0  0  0
  129.5370  122.3800   62.7810 S   0  0  0  0  0  0  0  0  0  0  0  0
  128.7460  123.5260   61.6010 C   0  0  0  0  0  0  0  0  0  0  0  0
  128.0420  122.8480   60.4160 C   0  0  0  0  0  0  0  0  0  0  0  0
  127.9990  121.6200   60.3330 O   0  0  0  0  0  0  0  0  0  0  0  0
  127.5240  123.7020   59.5070 N   0  0  0  0  0  0  0  0  0  0  0  0
  126.8170  123.4320   58.3210 C   0  0  0  0  0  0  0  0  0  0  0  0
  125.6040  124.0340   57.9340 C   0  0  0  0  0  0  0  0  0  0  0  0
  125.0090  123.6730   56.7220 C   0  0  0  0  0  0  0  0  0  0  0  0
  125.6430  122.7220   55.9230 C   0  0  0  0  0  0  0  0  0  0  0  0
  126.8140  122.1310   56.2700 N   0  0  0  0  0  0  0  0  0  0  0  0
  127.3800  122.4910   57.4510 C   0  0  0  0  0  0  0  0  0  0  0  0
  132.0650  123.0870   62.5610 N   0  0  0  0  0  0  0  0  0  0  0  0
  1  2  1  0
  2  3  2  0
  3  4  1  0
  4  5  1  0
  4  6  2  0
  6  7  1  0
  7  8  3  0
  6  9  1  0
  9 10  1  0
 10 11  1  0
 11 12  1  0
 12 13  2  0
 12 14  1  0
 14 15  1  0
 15 16  2  0
 16 17  1  0
 17 18  2  0
 18 19  1  0
 19 20  2  0
  9 21  2  0
 21  2  1  0
 20 15  1  0
M  END
>  <Binding energies>  (7) 
[-7.05]

>  <Ligand effiencies>  (7) 
[-0.32045454545454544]

>  <Interactions>  (7) 
["V-B:TYR:539:CZ:9849, V-A:LEU:475:CD1:4258, V-A:GLY:454:CA:4049, V-B:PRO:540:N:9856, V-B:TYR:539:CD2:9846, V-B:PRO:540:CA:9855, V-B:TYR:539:C:9839, V-B:TYR:539:CE2:9848, V-A:ILE:369:CD1:3239, V-A:ILE:369:CG2:3237, H-B:ALA:541:N:9863, V-B:PRO:540:CD:9859, V-B:LEU:363:CD1:8160, V-B:ILE:538:CB:9834, V-B:TYR:539:CG:9844, V-B:ILE:538:CA:9832, V-A:TRP:381:CH2:3372, V-B:ILE:538:CG2:9835, V-A:GLY:453:C:4042, V-A:GLY:453:CA:4044, H-B:TYR:539:N:9842"]

$$$$
1g_Grossjean_2025
     RDKit          3D

 22 23  0  0  0  0  0  0  0  0999 V2000
  128.4080  132.9460   59.6250 C   0  0  0  0  0  0  0  0  0  0  0  0
  128.4300  132.1350   58.3430 C   0  0  0  0  0  0  0  0  0  0  0  0
  127.7880  130.9020   58.2480 C   0  0  0  0  0  0  0  0  0  0  0  0
  127.8560  130.1910   57.0460 C   0  0  0  0  0  0  0  0  0  0  0  0
  127.1570  128.8340   56.9710 C   0  0  0  0  0  0  0  0  0  0  0  0
  128.5650  130.7430   55.9550 C   0  0  0  0  0  0  0  0  0  0  0  0
  128.6930  129.9930   54.7030 C   0  0  0  0  0  0  0  0  0  0  0  0
  128.7940  129.3980   53.7150 N   0  0  0  0  0  0  0  0  0  0  0  0
  129.1640  132.0120   56.1320 C   0  0  0  0  0  0  0  0  0  0  0  0
  130.0830  132.8560   54.8650 S   0  0  0  0  0  0  0  0  0  0  0  0
  131.5880  131.8850   54.5510 C   0  0  0  0  0  0  0  0  0  0  0  0
  132.4760  131.7880   55.7920 C   0  0  0  0  0  0  0  0  0  0  0  0
  132.8410  132.8120   56.3710 O   0  0  0  0  0  0  0  0  0  0  0  0
  132.8180  130.5480   56.1830 N   0  0  0  0  0  0  0  0  0  0  0  0
  133.6090  130.2210   57.3700 C   0  0  0  0  0  0  0  0  0  0  0  0
  132.9510  130.6130   58.6900 C   0  0  0  0  0  0  0  0  0  0  0  0
  131.5590  130.5630   58.8180 C   0  0  0  0  0  0  0  0  0  0  0  0
  130.9590  130.9200   60.0230 C   0  0  0  0  0  0  0  0  0  0  0  0
  131.7530  131.3210   61.0960 C   0  0  0  0  0  0  0  0  0  0  0  0
  133.1390  131.3680   60.9760 C   0  0  0  0  0  0  0  0  0  0  0  0
  133.7410  131.0130   59.7720 C   0  0  0  0  0  0  0  0  0  0  0  0
  129.1120  132.6840   57.3100 N   0  0  0  0  0  0  0  0  0  0  0  0
  1  2  1  0
  2  3  2  0
  3  4  1  0
  4  5  1  0
  4  6  2  0
  6  7  1  0
  7  8  3  0
  6  9  1  0
  9 10  1  0
 10 11  1  0
 11 12  1  0
 12 13  2  0
 12 14  1  0
 14 15  1  0
 15 16  1  0
 16 17  2  0
 17 18  1  0
 18 19  2  0
 19 20  1  0
 20 21  2  0
  9 22  2  0
 22  2  1  0
 21 16  1  0
M  END
>  <Binding energies>  (8) 
[-7.1]

>  <Ligand effiencies>  (8) 
[-0.30869565217391304]

>  <Interactions>  (8) 
["V-A:PRO:540:CB:4885, V-A:ASN:362:CB:3176, V-A:LEU:363:CA:3185, V-A:ASN:362:C:3172, V-A:ASP:366:CG:3213, V-A:PRO:540:CA:4883, V-A:TYR:539:CD1:4873, V-A:TYR:539:CD2:4874, V-A:TYR:539:CE2:4876, V-A:ILE:538:CD1:4865, V-A:TYR:539:CE1:4875, V-A:TYR:539:C:4867, V-A:TYR:539:CZ:4877, V-A:ASP:366:CB:3212, V-A:TYR:531:CE2:4793, V-A:TYR:531:CZ:4794, H-A:TYR:539:N:4870, V-A:LEU:363:CD1:3189, H-A:TYR:531:OH:4795"]

$$$$
1h_Grossjean_2025
     RDKit          3D

 28 29  0  0  0  0  0  0  0  0999 V2000
  131.2530  123.1330   72.2290 C   0  0  0  0  0  0  0  0  0  0  0  0
  129.8740  123.4440   72.0630 O   0  0  0  0  0  0  0  0  0  0  0  0
  129.5140  124.6730   71.5390 C   0  0  0  0  0  0  0  0  0  0  0  0
  129.4990  124.9660   70.1670 C   0  0  0  0  0  0  0  0  0  0  0  0
  129.1380  126.2340   69.7100 C   0  0  0  0  0  0  0  0  0  0  0  0
  129.1040  126.5320   68.2140 C   0  0  0  0  0  0  0  0  0  0  0  0
  129.2260  125.3460   67.3680 N   0  0  0  0  0  0  0  0  0  0  0  0
  130.1480  125.1700   66.4040 C   0  0  0  0  0  0  0  0  0  0  0  0
  131.0240  125.9920   66.1390 O   0  0  0  0  0  0  0  0  0  0  0  0
  130.0650  123.8650   65.6120 C   0  0  0  0  0  0  0  0  0  0  0  0
  129.8490  124.1630   63.8310 S   0  0  0  0  0  0  0  0  0  0  0  0
  130.7860  122.9260   62.9460 C   0  0  0  0  0  0  0  0  0  0  0  0
  130.0540  122.0320   62.2300 N   0  0  0  0  0  0  0  0  0  0  0  0
  130.7010  121.0710   61.5320 C   0  0  0  0  0  0  0  0  0  0  0  0
  129.8170  120.1130   60.7550 C   0  0  0  0  0  0  0  0  0  0  0  0
  132.0900  120.9570   61.5170 C   0  0  0  0  0  0  0  0  0  0  0  0
  132.8540  121.8700   62.2510 C   0  0  0  0  0  0  0  0  0  0  0  0
  134.3740  121.7290   62.2200 C   0  0  0  0  0  0  0  0  0  0  0  0
  132.1990  122.8830   62.9880 C   0  0  0  0  0  0  0  0  0  0  0  0
  132.9740  123.8520   63.7680 C   0  0  0  0  0  0  0  0  0  0  0  0
  133.5860  124.6170   64.3840 N   0  0  0  0  0  0  0  0  0  0  0  0
  128.7510  127.2120   70.6280 C   0  0  0  0  0  0  0  0  0  0  0  0
  128.7510  126.9450   72.0060 C   0  0  0  0  0  0  0  0  0  0  0  0
  128.3820  127.8650   72.9700 O   0  0  0  0  0  0  0  0  0  0  0  0
  127.0710  127.8110   73.5240 C   0  0  0  0  0  0  0  0  0  0  0  0
  129.1450  125.6740   72.4500 C   0  0  0  0  0  0  0  0  0  0  0  0
  129.1440  125.3970   73.7950 O   0  0  0  0  0  0  0  0  0  0  0  0
  130.3560  125.7310   74.4560 C   0  0  0  0  0  0  0  0  0  0  0  0
  1  2  1  0
  2  3  1  0
  3  4  2  0
  4  5  1  0
  5  6  1  0
  6  7  1  0
  7  8  1  0
  8  9  2  0
  8 10  1  0
 10 11  1  0
 11 12  1  0
 12 13  2  0
 13 14  1  0
 14 15  1  0
 14 16  2  0
 16 17  1  0
 17 18  1  0
 17 19  2  0
 19 20  1  0
 20 21  3  0
  5 22  2  0
 22 23  1  0
 23 24  1  0
 24 25  1  0
 23 26  2  0
 26 27  1  0
 27 28  1  0
 26  3  1  0
 19 12  1  0
M  END
>  <Binding energies>  (9) 
[-7.23]

>  <Ligand effiencies>  (9) 
[-0.2493103448275862]

>  <Interactions>  (9) 
["V-B:GLU:543:C:9874, V-B:GLU:543:CB:9878, V-B:HIS:456:CE1:9040, V-B:ALA:541:CB:9864, H-A:TYR:484:OH:4348, V-A:HIS:456:CE1:4069, V-B:GLU:543:CG:9879, V-A:LEU:475:CD1:4258, V-A:TYR:484:CE1:4345, V-A:GLY:454:CA:4049, V-A:TYR:484:CZ:4347, H-A:GLY:454:N:4050, V-B:TYR:539:CD2:9846, V-B:TYR:539:CE2:9848, V-A:ILE:369:CD1:3239, V-A:HIS:456:CG:4066, V-A:HIS:456:CD2:4068, V-A:HIS:456:CB:4065, H-B:LYS:547:NZ:9923, V-B:GLU:543:CA:9876, V-B:HIS:456:CD2:9039, V-B:HIS:456:CG:9037, V-B:HIS:456:CB:9036, V-A:TYR:484:CD2:4344, V-A:TYR:484:CG:4342, V-A:PRO:482:CG:4327, V-A:TYR:484:CE2:4346, H-B:GLU:543:O:9875"]

$$$$
1i_Grossjean_2025
     RDKit          3D

 20 21  0  0  0  0  0  0  0  0999 V2000
  124.1110  129.5280   66.8300 C   0  0  0  0  0  0  0  0  0  0  0  0
  125.4460  128.8120   66.7590 C   0  0  0  0  0  0  0  0  0  0  0  0
  126.3540  129.0610   65.7320 C   0  0  0  0  0  0  0  0  0  0  0  0
  127.5750  128.3780   65.7240 C   0  0  0  0  0  0  0  0  0  0  0  0
  128.5610  128.6800   64.5970 C   0  0  0  0  0  0  0  0  0  0  0  0
  127.8550  127.4480   66.7530 C   0  0  0  0  0  0  0  0  0  0  0  0
  129.1470  126.7600   66.7910 C   0  0  0  0  0  0  0  0  0  0  0  0
  130.1700  126.2180   66.8200 N   0  0  0  0  0  0  0  0  0  0  0  0
  126.8640  127.2410   67.7410 C   0  0  0  0  0  0  0  0  0  0  0  0
  127.0470  126.1120   69.1040 S   0  0  0  0  0  0  0  0  0  0  0  0
  128.0500  126.9410   70.3740 C   0  0  0  0  0  0  0  0  0  0  0  0
  128.6540  125.9470   71.3690 C   0  0  0  0  0  0  0  0  0  0  0  0
  128.8160  126.2900   72.5410 O   0  0  0  0  0  0  0  0  0  0  0  0
  128.9670  124.7340   70.8630 N   0  0  0  0  0  0  0  0  0  0  0  0
  129.5270  123.6600   71.5400 C   0  0  0  0  0  0  0  0  0  0  0  0
  130.7370  123.7410   72.2270 C   0  0  0  0  0  0  0  0  0  0  0  0
  130.9360  122.4840   72.7500 C   0  0  0  0  0  0  0  0  0  0  0  0
  129.9020  121.6870   72.3940 O   0  0  0  0  0  0  0  0  0  0  0  0
  129.0150  122.4430   71.6250 N   0  0  0  0  0  0  0  0  0  0  0  0
  125.6910  127.9240   67.7510 N   0  0  0  0  0  0  0  0  0  0  0  0
  1  2  1  0
  2  3  2  0
  3  4  1  0
  4  5  1  0
  4  6  2  0
  6  7  1  0
  7  8  3  0
  6  9  1  0
  9 10  1  0
 10 11  1  0
 11 12  1  0
 12 13  2  0
 12 14  1  0
 14 15  1  0
 15 16  1  0
 16 17  2  0
 17 18  1  0
 18 19  1  0
  9 20  2  0
 20  2  1  0
 19 15  2  0
M  END
>  <Binding energies>  (10) 
[-7.33]

>  <Ligand effiencies>  (10) 
[-0.34904761904761905]

>  <Interactions>  (10) 
["V-B:ARG:545:CD:9895, V-B:GLU:543:C:9874, V-B:GLU:543:CB:9878, V-B:HIS:456:CE1:9040, V-B:ARG:545:CG:9894, V-A:GLU:543:CD:4908, V-A:HIS:456:CG:4066, H-A:HIS:456:NE2:4070, V-A:HIS:456:CD2:4068, V-A:HIS:456:CB:4065, V-A:ASP:473:CB:4239, H-B:LYS:547:NZ:9923, V-A:TYR:484:CD2:4344, V-A:TYR:484:CG:4342, V-A:TYR:484:CB:4341, H-B:GLU:543:O:9875, H-B:ARG:545:N:9892, V-B:ILE:455:C:9023"]

$$$$
1k_Grossjean_2025
     RDKit          3D

 25 25  0  0  0  0  0  0  0  0999 V2000
  127.2350  122.6160   57.3140 C   0  0  0  0  0  0  0  0  0  0  0  0
  126.8610  122.2220   56.0040 O   0  0  0  0  0  0  0  0  0  0  0  0
  126.5990  123.3180   55.1370 C   0  0  0  0  0  0  0  0  0  0  0  0
  127.9030  123.7610   54.4610 C   0  0  0  0  0  0  0  0  0  0  0  0
  128.4560  124.8590   55.1750 O   0  0  0  0  0  0  0  0  0  0  0  0
  128.6330  126.0250   54.3810 C   0  0  0  0  0  0  0  0  0  0  0  0
  128.9860  127.2100   55.2890 C   0  0  0  0  0  0  0  0  0  0  0  0
  129.4930  128.2780   54.4990 O   0  0  0  0  0  0  0  0  0  0  0  0
  128.5210  129.2670   54.1830 C   0  0  0  0  0  0  0  0  0  0  0  0
  129.1340  130.6680   54.3580 C   0  0  0  0  0  0  0  0  0  0  0  0
  130.4900  130.6610   54.9080 N   0  0  0  0  0  0  0  0  0  0  0  0
  131.1310  131.7330   55.4060 C   0  0  0  0  0  0  0  0  0  0  0  0
  130.6260  132.8560   55.4540 O   0  0  0  0  0  0  0  0  0  0  0  0
  132.5580  131.4750   55.9150 C   0  0  0  0  0  0  0  0  0  0  0  0
  132.7450  131.3870   57.7300 S   0  0  0  0  0  0  0  0  0  0  0  0
  132.0690  129.8400   58.3160 C   0  0  0  0  0  0  0  0  0  0  0  0
  132.2410  128.7700   57.4970 N   0  0  0  0  0  0  0  0  0  0  0  0
  131.7450  127.5700   57.8760 C   0  0  0  0  0  0  0  0  0  0  0  0
  131.9710  126.4270   56.9060 C   0  0  0  0  0  0  0  0  0  0  0  0
  131.0690  127.3830   59.0800 C   0  0  0  0  0  0  0  0  0  0  0  0
  130.8900  128.4750   59.9350 C   0  0  0  0  0  0  0  0  0  0  0  0
  130.1460  128.2480   61.2490 C   0  0  0  0  0  0  0  0  0  0  0  0
  131.3970  129.7380   59.5560 C   0  0  0  0  0  0  0  0  0  0  0  0
  131.2220  130.9000   60.4310 C   0  0  0  0  0  0  0  0  0  0  0  0
  131.0830  131.8180   61.1230 N   0  0  0  0  0  0  0  0  0  0  0  0
  1  2  1  0
  2  3  1  0
  3  4  1  0
  4  5  1  0
  5  6  1  0
  6  7  1  0
  7  8  1  0
  8  9  1  0
  9 10  1  0
 10 11  1  0
 11 12  1  0
 12 13  2  0
 12 14  1  0
 14 15  1  0
 15 16  1  0
 16 17  2  0
 17 18  1  0
 18 19  1  0
 18 20  2  0
 20 21  1  0
 21 22  1  0
 21 23  2  0
 23 24  1  0
 24 25  3  0
 23 16  1  0
M  END
>  <Binding energies>  (11) 
[-5.99]

>  <Ligand effiencies>  (11) 
[-0.23038461538461538]

>  <Interactions>  (11) 
["V-A:PRO:540:CB:4885, V-A:ASP:366:CG:3213, V-A:PRO:540:CA:4883, V-A:ASP:366:CB:3212, V-A:TYR:531:CE2:4793, V-A:TYR:531:CZ:4794, V-B:TYR:539:CZ:9849, V-A:MET:535:CE:4835, V-B:TYR:539:CE1:9847, V-B:PRO:540:N:9856, V-B:TYR:539:CD2:9846, V-B:PRO:540:CA:9855, V-B:TYR:539:C:9839, V-B:TYR:539:CE2:9848, H-A:TYR:539:N:4870, V-A:LEU:363:CD1:3189, V-B:ILE:538:CB:9834, V-B:ILE:538:CA:9832, V-B:ILE:538:CG2:9835, H-B:TYR:539:N:9842, H-A:TYR:531:OH:4795, H-B:TYR:539:OH:9850, H-A:ALA:541:N:4891"]

$$$$
1l_Grossjean_2025
     RDKit          3D

 17 17  0  0  0  0  0  0  0  0999 V2000
  130.5290  123.0460   71.9230 C   0  0  0  0  0  0  0  0  0  0  0  0
  129.1690  123.3370   71.6360 O   0  0  0  0  0  0  0  0  0  0  0  0
  129.0800  124.5200   70.9020 N   0  0  0  0  0  0  0  0  0  0  0  0
  128.5840  125.6220   71.4970 C   0  0  0  0  0  0  0  0  0  0  0  0
  128.4110  125.7220   72.7150 O   0  0  0  0  0  0  0  0  0  0  0  0
  128.2530  126.7820   70.5480 C   0  0  0  0  0  0  0  0  0  0  0  0
  126.8420  126.4850   69.4290 S   0  0  0  0  0  0  0  0  0  0  0  0
  127.3020  127.0360   67.7950 C   0  0  0  0  0  0  0  0  0  0  0  0
  126.5210  128.0090   67.2580 N   0  0  0  0  0  0  0  0  0  0  0  0
  126.8140  128.4720   66.0200 C   0  0  0  0  0  0  0  0  0  0  0  0
  125.8960  129.5580   65.4890 C   0  0  0  0  0  0  0  0  0  0  0  0
  127.8860  127.9930   65.2720 C   0  0  0  0  0  0  0  0  0  0  0  0
  128.6990  126.9920   65.8140 C   0  0  0  0  0  0  0  0  0  0  0  0
  129.8700  126.4820   64.9760 C   0  0  0  0  0  0  0  0  0  0  0  0
  128.4110  126.4940   67.1040 C   0  0  0  0  0  0  0  0  0  0  0  0
  129.2460  125.4440   67.6980 C   0  0  0  0  0  0  0  0  0  0  0  0
  129.9060  124.6170   68.1640 N   0  0  0  0  0  0  0  0  0  0  0  0
  1  2  1  0
  2  3  1  0
  3  4  1  0
  4  5  2  0
  4  6  1  0
  6  7  1  0
  7  8  1  0
  8  9  2  0
  9 10  1  0
 10 11  1  0
 10 12  2  0
 12 13  1  0
 13 14  1  0
 13 15  2  0
 15 16  1  0
 16 17  3  0
 15  8  1  0
M  END
>  <Binding energies>  (12) 
[-5.81]

>  <Ligand effiencies>  (12) 
[-0.3227777777777778]

>  <Interactions>  (12) 
["V-B:GLU:543:C:9874, V-B:GLU:543:CB:9878, V-B:GLY:544:C:9884, V-B:HIS:456:CE1:9040, V-B:GLU:543:CD:9880, V-A:GLU:543:CD:4908, H-A:TYR:484:OH:4348, V-A:HIS:456:CE1:4069, V-A:HIS:456:CG:4066, H-A:HIS:456:NE2:4070, H-B:LYS:547:NZ:9923, V-A:TYR:484:CD2:4344, V-A:TYR:484:CD1:4343, V-A:TYR:484:CG:4342, V-A:TYR:484:CE2:4346, H-B:GLU:543:O:9875, H-B:ARG:545:N:9892"]

$$$$
1m_Grossjean_2025
     RDKit          3D

 20 20  0  0  0  0  0  0  0  0999 V2000
  127.5090  122.7360   55.4040 C   0  0  0  0  0  0  0  0  0  0  0  0
  127.1060  122.1450   56.6310 O   0  0  0  0  0  0  0  0  0  0  0  0
  126.2180  122.7670   57.4330 C   0  0  0  0  0  0  0  0  0  0  0  0
  125.0710  123.0960   57.1140 O   0  0  0  0  0  0  0  0  0  0  0  0
  126.8040  123.0210   58.8370 C   0  0  0  0  0  0  0  0  0  0  0  0
  127.9890  122.1970   59.1180 N   0  0  0  0  0  0  0  0  0  0  0  0
  128.4830  121.9210   60.3400 C   0  0  0  0  0  0  0  0  0  0  0  0
  127.9860  122.3580   61.3790 O   0  0  0  0  0  0  0  0  0  0  0  0
  129.7270  121.0230   60.3630 C   0  0  0  0  0  0  0  0  0  0  0  0
  130.2620  120.5050   62.0300 S   0  0  0  0  0  0  0  0  0  0  0  0
  130.8870  121.9410   62.8780 C   0  0  0  0  0  0  0  0  0  0  0  0
  130.0840  122.3670   63.8860 N   0  0  0  0  0  0  0  0  0  0  0  0
  130.4610  123.4490   64.6060 C   0  0  0  0  0  0  0  0  0  0  0  0
  129.5240  123.8540   65.7280 C   0  0  0  0  0  0  0  0  0  0  0  0
  131.6360  124.1520   64.3470 C   0  0  0  0  0  0  0  0  0  0  0  0
  132.4580  123.7370   63.2940 C   0  0  0  0  0  0  0  0  0  0  0  0
  133.7320  124.5330   63.0180 C   0  0  0  0  0  0  0  0  0  0  0  0
  132.0840  122.6100   62.5270 C   0  0  0  0  0  0  0  0  0  0  0  0
  132.9040  122.1900   61.3880 C   0  0  0  0  0  0  0  0  0  0  0  0
  133.5520  121.8570   60.4900 N   0  0  0  0  0  0  0  0  0  0  0  0
  1  2  1  0
  2  3  1  0
  3  4  2  0
  3  5  1  0
  5  6  1  0
  6  7  1  0
  7  8  2  0
  7  9  1  0
  9 10  1  0
 10 11  1  0
 11 12  2  0
 12 13  1  0
 13 14  1  0
 13 15  2  0
 15 16  1  0
 16 17  1  0
 16 18  2  0
 18 19  1  0
 19 20  3  0
 18 11  1  0
M  END
>  <Binding energies>  (13) 
[-5.59]

>  <Ligand effiencies>  (13) 
[-0.2661904761904762]

>  <Interactions>  (13) 
["V-B:GLU:543:CB:9878, V-A:ARG:545:CZ:4926, V-B:TYR:539:CZ:9849, V-B:ALA:541:CB:9864, V-B:TYR:539:CE1:9847, V-B:GLU:543:CG:9879, V-A:LEU:475:CD1:4258, V-A:TYR:484:CE1:4345, V-B:PRO:540:N:9856, V-A:TYR:484:CZ:4347, V-B:TYR:539:CD2:9846, V-B:PRO:540:CA:9855, V-B:TYR:539:C:9839, V-B:TYR:539:CE2:9848, V-B:PRO:540:C:9853, H-B:ALA:541:N:9863, V-B:PRO:540:CD:9859, V-B:PRO:540:CB:9857, V-B:GLU:543:CA:9876, V-B:ILE:538:CB:9834, V-B:TYR:539:CG:9844, V-B:ILE:538:CA:9832, V-B:TYR:539:CD1:9845, H-B:TYR:539:N:9842, H-B:TYR:539:O:9840"]

$$$$
1n_Grossjean_2025
     RDKit          3D

 27 28  0  0  0  0  0  0  0  0999 V2000
  132.5140  132.0670   56.5740 C   0  0  0  0  0  0  0  0  0  0  0  0
  132.2350  132.4790   55.1250 C   0  0  0  0  0  0  0  0  0  0  0  0
  130.8840  132.9090   55.0070 O   0  0  0  0  0  0  0  0  0  0  0  0
  129.9060  132.3670   55.7770 C   0  0  0  0  0  0  0  0  0  0  0  0
  129.3470  132.9750   56.6940 O   0  0  0  0  0  0  0  0  0  0  0  0
  129.5640  130.9550   55.3940 C   0  0  0  0  0  0  0  0  0  0  0  0
  129.2190  129.9890   56.3520 C   0  0  0  0  0  0  0  0  0  0  0  0
  128.9100  128.6890   55.9630 C   0  0  0  0  0  0  0  0  0  0  0  0
  128.9450  128.3250   54.6170 C   0  0  0  0  0  0  0  0  0  0  0  0
  128.6200  126.9840   54.3360 N   0  0  0  0  0  0  0  0  0  0  0  0
  129.3980  125.8810   54.3710 C   0  0  0  0  0  0  0  0  0  0  0  0
  130.5900  125.8580   54.6780 O   0  0  0  0  0  0  0  0  0  0  0  0
  128.7020  124.5660   53.9940 C   0  0  0  0  0  0  0  0  0  0  0  0
  127.3280  124.3910   54.6760 C   0  0  0  0  0  0  0  0  0  0  0  0
  127.0450  122.7430   55.3880 S   0  0  0  0  0  0  0  0  0  0  0  0
  126.8180  122.9450   57.1420 C   0  0  0  0  0  0  0  0  0  0  0  0
  127.7390  122.2860   57.8890 N   0  0  0  0  0  0  0  0  0  0  0  0
  127.6730  122.3820   59.2370 C   0  0  0  0  0  0  0  0  0  0  0  0
  128.7410  121.6270   60.0050 C   0  0  0  0  0  0  0  0  0  0  0  0
  126.6940  123.1260   59.8910 C   0  0  0  0  0  0  0  0  0  0  0  0
  125.7270  123.7930   59.1310 C   0  0  0  0  0  0  0  0  0  0  0  0
  124.6550  124.5920   59.8700 C   0  0  0  0  0  0  0  0  0  0  0  0
  125.7730  123.7030   57.7210 C   0  0  0  0  0  0  0  0  0  0  0  0
  124.7410  124.3500   56.9080 C   0  0  0  0  0  0  0  0  0  0  0  0
  123.9250  124.8620   56.2670 N   0  0  0  0  0  0  0  0  0  0  0  0
  129.2780  129.2880   53.6530 C   0  0  0  0  0  0  0  0  0  0  0  0
  129.5840  130.5890   54.0430 C   0  0  0  0  0  0  0  0  0  0  0  0
  1  2  1  0
  2  3  1  0
  3  4  1  0
  4  5  2  0
  4  6  1  0
  6  7  2  0
  7  8  1  0
  8  9  2  0
  9 10  1  0
 10 11  1  0
 11 12  2  0
 11 13  1  0
 13 14  1  0
 14 15  1  0
 15 16  1  0
 16 17  2  0
 17 18  1  0
 18 19  1  0
 18 20  2  0
 20 21  1  0
 21 22  1  0
 21 23  2  0
 23 24  1  0
 24 25  3  0
  9 26  1  0
 26 27  2  0
 27  6  1  0
 23 16  1  0
M  END
>  <Binding energies>  (14) 
[-8.75]

>  <Ligand effiencies>  (14) 
[-0.3125]

>  <Interactions>  (14) 
["V-A:PRO:540:CB:4885, V-A:PRO:540:CA:4883, V-A:TYR:539:CD1:4873, V-A:ILE:538:CD1:4865, V-A:TYR:539:CE1:4875, V-A:TYR:531:CE2:4793, V-A:PRO:540:N:4884, V-B:ASP:366:CG:8184, V-B:TYR:539:CZ:9849, V-A:MET:535:CE:4835, V-B:TYR:539:CE1:9847, V-B:PRO:540:N:9856, V-B:TYR:539:CD2:9846, V-B:PRO:540:CA:9855, V-B:TYR:539:C:9839, V-B:TYR:539:CE2:9848, V-A:ILE:538:CA:4860, V-A:PRO:540:CD:4887, H-A:TYR:539:N:4870, V-A:ILE:538:CG2:4863, V-A:LEU:363:CD1:3189, V-B:PRO:540:CB:9857, V-B:LEU:363:CD1:8160, H-B:TYR:539:N:9842, H-A:TYR:531:OH:4795, H-B:TYR:539:OH:9850, H-A:ASN:370:ND2:3248, V-A:PRO:540:CG:4886, H-B:TYR:531:OH:9767, V-A:MET:535:CG:4833, H-B:MET:535:SD:9806"]

$$$$
1q_Grossjean_2025
     RDKit          3D

 21 21  0  0  0  0  0  0  0  0999 V2000
  127.6230  123.1530   54.7990 C   0  0  0  0  0  0  0  0  0  0  0  0
  127.4360  122.2960   55.9150 O   0  0  0  0  0  0  0  0  0  0  0  0
  126.2970  122.3570   56.6470 C   0  0  0  0  0  0  0  0  0  0  0  0
  125.1590  122.1580   56.2180 O   0  0  0  0  0  0  0  0  0  0  0  0
  126.5190  122.7440   58.1250 C   0  0  0  0  0  0  0  0  0  0  0  0
  127.9130  122.5730   58.5600 N   0  0  0  0  0  0  0  0  0  0  0  0
  128.3320  122.4390   59.8330 C   0  0  0  0  0  0  0  0  0  0  0  0
  127.5650  122.4440   60.7990 O   0  0  0  0  0  0  0  0  0  0  0  0
  129.8440  122.2590   60.0290 C   0  0  0  0  0  0  0  0  0  0  0  0
  130.2270  121.1260   61.0030 C   0  0  0  0  0  0  0  0  0  0  0  0
  130.1250  121.6060   62.7530 S   0  0  0  0  0  0  0  0  0  0  0  0
  131.4540  122.7370   63.1090 C   0  0  0  0  0  0  0  0  0  0  0  0
  132.4280  122.7400   62.1630 N   0  0  0  0  0  0  0  0  0  0  0  0
  133.4930  123.5580   62.3250 C   0  0  0  0  0  0  0  0  0  0  0  0
  134.5470  123.4920   61.2360 C   0  0  0  0  0  0  0  0  0  0  0  0
  133.6280  124.4090   63.4200 C   0  0  0  0  0  0  0  0  0  0  0  0
  132.6190  124.4340   64.3880 C   0  0  0  0  0  0  0  0  0  0  0  0
  132.7810  125.3890   65.5710 C   0  0  0  0  0  0  0  0  0  0  0  0
  131.4950  123.5900   64.2400 C   0  0  0  0  0  0  0  0  0  0  0  0
  130.4030  123.6440   65.2130 C   0  0  0  0  0  0  0  0  0  0  0  0
  129.5420  123.6900   65.9850 N   0  0  0  0  0  0  0  0  0  0  0  0
  1  2  1  0
  2  3  1  0
  3  4  2  0
  3  5  1  0
  5  6  1  0
  6  7  1  0
  7  8  2  0
  7  9  1  0
  9 10  1  0
 10 11  1  0
 11 12  1  0
 12 13  2  0
 13 14  1  0
 14 15  1  0
 14 16  2  0
 16 17  1  0
 17 18  1  0
 17 19  2  0
 19 20  1  0
 20 21  3  0
 19 12  1  0
M  END
>  <Binding energies>  (15) 
[-6.1]

>  <Ligand effiencies>  (15) 
[-0.2772727272727273]

>  <Interactions>  (15) 
["V-A:ARG:545:CZ:4926, V-B:TYR:539:CZ:9849, V-B:ALA:541:CB:9864, H-A:TYR:484:OH:4348, V-A:HIS:456:CE1:4069, V-B:TYR:539:CE1:9847, V-A:LEU:475:CD1:4258, V-A:TYR:484:CE1:4345, V-B:PRO:540:N:9856, V-A:TYR:484:CZ:4347, V-B:TYR:539:CD2:9846, V-B:PRO:540:CA:9855, V-B:TYR:539:C:9839, V-B:TYR:539:CE2:9848, V-A:ILE:369:CD1:3239, H-B:ALA:541:N:9863, V-B:PRO:540:CD:9859, V-B:PRO:540:CB:9857, V-B:ILE:538:CB:9834, V-B:ILE:538:CA:9832, V-B:TYR:539:CD1:9845, V-B:ILE:538:CG2:9835, V-B:TYR:539:CA:9841, H-B:TYR:539:N:9842, H-B:TYR:539:OH:9850"]

$$$$
2a_Grossjean_2025
     RDKit          3D

 29 30  0  0  0  0  0  0  0  0999 V2000
  125.9140  127.0630   73.9060 C   0  0  0  0  0  0  0  0  0  0  0  0
  127.2180  127.0750   74.7110 C   0  0  0  0  0  0  0  0  0  0  0  0
  128.0880  126.0670   74.2110 O   0  0  0  0  0  0  0  0  0  0  0  0
  129.2730  126.3890   73.6310 C   0  0  0  0  0  0  0  0  0  0  0  0
  130.2190  126.8880   74.2470 O   0  0  0  0  0  0  0  0  0  0  0  0
  129.3240  126.0540   72.1670 C   0  0  0  0  0  0  0  0  0  0  0  0
  128.8890  126.9560   71.1850 C   0  0  0  0  0  0  0  0  0  0  0  0
  128.9480  126.6150   69.8370 C   0  0  0  0  0  0  0  0  0  0  0  0
  129.4350  125.3680   69.4430 C   0  0  0  0  0  0  0  0  0  0  0  0
  129.4360  125.1260   68.0570 N   0  0  0  0  0  0  0  0  0  0  0  0
  129.7910  125.9330   67.0350 C   0  0  0  0  0  0  0  0  0  0  0  0
  130.1730  127.0990   67.1440 O   0  0  0  0  0  0  0  0  0  0  0  0
  129.6920  125.3120   65.6370 C   0  0  0  0  0  0  0  0  0  0  0  0
  130.0380  123.5220   65.6170 S   0  0  0  0  0  0  0  0  0  0  0  0
  130.6710  123.0470   64.0120 C   0  0  0  0  0  0  0  0  0  0  0  0
  129.7910  122.4140   63.1960 N   0  0  0  0  0  0  0  0  0  0  0  0
  130.2040  122.0150   61.9720 C   0  0  0  0  0  0  0  0  0  0  0  0
  129.1720  121.2900   61.1290 C   0  0  0  0  0  0  0  0  0  0  0  0
  131.4980  122.2350   61.5080 C   0  0  0  0  0  0  0  0  0  0  0  0
  132.4230  122.8960   62.3320 C   0  0  0  0  0  0  0  0  0  0  0  0
  133.8500  123.1330   61.8030 C   0  0  0  0  0  0  0  0  0  0  0  0
  134.6680  122.1800   62.2510 F   0  0  0  0  0  0  0  0  0  0  0  0
  133.8510  123.1140   60.4690 F   0  0  0  0  0  0  0  0  0  0  0  0
  134.3540  124.3080   62.1880 F   0  0  0  0  0  0  0  0  0  0  0  0
  132.0020  123.3160   63.6190 C   0  0  0  0  0  0  0  0  0  0  0  0
  132.9280  124.0080   64.5220 C   0  0  0  0  0  0  0  0  0  0  0  0
  133.6590  124.5550   65.2350 N   0  0  0  0  0  0  0  0  0  0  0  0
  129.8800  124.4650   70.4190 C   0  0  0  0  0  0  0  0  0  0  0  0
  129.8240  124.8090   71.7670 C   0  0  0  0  0  0  0  0  0  0  0  0
  1  2  1  0
  2  3  1  0
  3  4  1  0
  4  5  2  0
  4  6  1  0
  6  7  2  0
  7  8  1  0
  8  9  2  0
  9 10  1  0
 10 11  1  0
 11 12  2  0
 11 13  1  0
 13 14  1  0
 14 15  1  0
 15 16  2  0
 16 17  1  0
 17 18  1  0
 17 19  2  0
 19 20  1  0
 20 21  1  0
 21 22  1  0
 21 23  1  0
 21 24  1  0
 20 25  2  0
 25 26  1  0
 26 27  3  0
  9 28  1  0
 28 29  2  0
 29  6  1  0
 25 15  1  0
M  END
>  <Binding energies>  (16) 
[-7.7]

>  <Ligand effiencies>  (16) 
[-0.25666666666666665]

>  <Interactions>  (16) 
["V-B:GLU:543:C:9874, V-B:GLU:543:CB:9878, V-B:HIS:456:CE1:9040, V-A:ASP:366:CG:3213, V-B:ALA:541:CB:9864, H-A:TYR:484:OH:4348, V-A:HIS:456:CE1:4069, V-B:GLU:543:CG:9879, V-A:LEU:475:CD1:4258, V-A:TYR:484:CE1:4345, V-A:GLY:454:CA:4049, V-A:TYR:484:CZ:4347, H-A:GLY:454:N:4050, V-A:ILE:369:CD1:3239, V-A:ILE:369:CG2:3237, V-B:ALA:541:CA:9862, V-A:HIS:456:CG:4066, H-A:HIS:456:NE2:4070, V-A:HIS:456:CD2:4068, H-A:LYS:547:NZ:4951, H-B:LYS:547:NZ:9923, V-A:GLY:453:C:4042, V-A:GLY:453:CA:4044, V-B:LYS:547:CD:9921, H-B:GLU:543:O:9875"]

$$$$
2b_Grossjean_2025
     RDKit          3D

 28 29  0  0  0  0  0  0  0  0999 V2000
  126.9620  126.8990   73.8900 C   0  0  0  0  0  0  0  0  0  0  0  0
  128.1130  126.1140   74.1670 O   0  0  0  0  0  0  0  0  0  0  0  0
  129.3070  126.3910   73.5830 C   0  0  0  0  0  0  0  0  0  0  0  0
  130.2650  126.8790   74.1910 O   0  0  0  0  0  0  0  0  0  0  0  0
  129.3450  126.0500   72.1220 C   0  0  0  0  0  0  0  0  0  0  0  0
  128.9050  126.9480   71.1380 C   0  0  0  0  0  0  0  0  0  0  0  0
  128.9520  126.5990   69.7910 C   0  0  0  0  0  0  0  0  0  0  0  0
  129.4440  125.3540   69.3990 C   0  0  0  0  0  0  0  0  0  0  0  0
  129.4410  125.1030   68.0140 N   0  0  0  0  0  0  0  0  0  0  0  0
  129.7650  125.9200   66.9890 C   0  0  0  0  0  0  0  0  0  0  0  0
  130.1120  127.0970   67.0980 O   0  0  0  0  0  0  0  0  0  0  0  0
  129.6600  125.2920   65.5950 C   0  0  0  0  0  0  0  0  0  0  0  0
  130.0060  123.5030   65.5870 S   0  0  0  0  0  0  0  0  0  0  0  0
  130.6490  123.0130   63.9920 C   0  0  0  0  0  0  0  0  0  0  0  0
  129.7740  122.3740   63.1750 N   0  0  0  0  0  0  0  0  0  0  0  0
  130.1940  121.9700   61.9560 C   0  0  0  0  0  0  0  0  0  0  0  0
  129.1600  121.2520   61.1090 C   0  0  0  0  0  0  0  0  0  0  0  0
  131.4890  122.1900   61.4960 C   0  0  0  0  0  0  0  0  0  0  0  0
  132.4090  122.8560   62.3210 C   0  0  0  0  0  0  0  0  0  0  0  0
  133.8370  123.0960   61.7950 C   0  0  0  0  0  0  0  0  0  0  0  0
  134.6560  122.1460   62.2500 F   0  0  0  0  0  0  0  0  0  0  0  0
  133.8450  123.0710   60.4610 F   0  0  0  0  0  0  0  0  0  0  0  0
  134.3370  124.2730   62.1770 F   0  0  0  0  0  0  0  0  0  0  0  0
  131.9840  123.2790   63.6060 C   0  0  0  0  0  0  0  0  0  0  0  0
  132.9050  123.9730   64.5110 C   0  0  0  0  0  0  0  0  0  0  0  0
  133.6310  124.5220   65.2260 N   0  0  0  0  0  0  0  0  0  0  0  0
  129.8790  124.4480   70.3770 C   0  0  0  0  0  0  0  0  0  0  0  0
  129.8300  124.7970   71.7230 C   0  0  0  0  0  0  0  0  0  0  0  0
  1  2  1  0
  2  3  1  0
  3  4  2  0
  3  5  1  0
  5  6  2  0
  6  7  1  0
  7  8  2  0
  8  9  1  0
  9 10  1  0
 10 11  2  0
 10 12  1  0
 12 13  1  0
 13 14  1  0
 14 15  2  0
 15 16  1  0
 16 17  1  0
 16 18  2  0
 18 19  1  0
 19 20  1  0
 20 21  1  0
 20 22  1  0
 20 23  1  0
 19 24  2  0
 24 25  1  0
 25 26  3  0
  8 27  1  0
 27 28  2  0
 28  5  1  0
 24 14  1  0
M  END
>  <Binding energies>  (17) 
[-7.6]

>  <Ligand effiencies>  (17) 
[-0.26206896551724135]

>  <Interactions>  (17) 
["V-B:GLU:543:C:9874, V-B:GLU:543:CB:9878, V-B:HIS:456:CE1:9040, V-A:ASP:366:CG:3213, V-B:ALA:541:CB:9864, H-A:TYR:484:OH:4348, V-A:HIS:456:CE1:4069, V-B:GLU:543:CG:9879, V-A:LEU:475:CD1:4258, V-A:TYR:484:CE1:4345, V-A:GLY:454:CA:4049, V-A:TYR:484:CZ:4347, H-A:GLY:454:N:4050, V-B:TYR:539:CD2:9846, V-A:ILE:369:CD1:3239, V-A:ILE:369:CG2:3237, V-B:ALA:541:CA:9862, V-A:HIS:456:CG:4066, H-A:HIS:456:NE2:4070, V-A:HIS:456:CD2:4068, H-A:LYS:547:NZ:4951, H-B:LYS:547:NZ:9923, V-A:GLY:453:C:4042, V-A:GLY:453:CA:4044, V-B:LYS:547:CD:9921, H-B:GLU:543:O:9875"]

$$$$
2c_Grossjean_2025
     RDKit          3D

 26 27  0  0  0  0  0  0  0  0999 V2000
  127.2960  126.9900   73.4020 C   0  0  0  0  0  0  0  0  0  0  0  0
  128.3860  126.0940   73.2130 O   0  0  0  0  0  0  0  0  0  0  0  0
  128.7850  125.7800   71.9280 C   0  0  0  0  0  0  0  0  0  0  0  0
  128.3710  126.6490   70.9180 C   0  0  0  0  0  0  0  0  0  0  0  0
  128.7230  126.4160   69.5910 C   0  0  0  0  0  0  0  0  0  0  0  0
  129.4920  125.2910   69.2580 C   0  0  0  0  0  0  0  0  0  0  0  0
  129.9110  124.9830   67.9510 N   0  0  0  0  0  0  0  0  0  0  0  0
  129.4500  125.4750   66.7810 C   0  0  0  0  0  0  0  0  0  0  0  0
  128.5110  126.2660   66.6740 O   0  0  0  0  0  0  0  0  0  0  0  0
  130.1640  124.9420   65.5290 C   0  0  0  0  0  0  0  0  0  0  0  0
  130.0520  123.1360   65.2700 S   0  0  0  0  0  0  0  0  0  0  0  0
  130.7610  122.7190   63.6820 C   0  0  0  0  0  0  0  0  0  0  0  0
  129.9390  122.0550   62.8280 N   0  0  0  0  0  0  0  0  0  0  0  0
  130.4110  121.6990   61.6140 C   0  0  0  0  0  0  0  0  0  0  0  0
  129.4390  120.9460   60.7260 C   0  0  0  0  0  0  0  0  0  0  0  0
  131.7060  121.9920   61.1950 C   0  0  0  0  0  0  0  0  0  0  0  0
  132.5690  122.6840   62.0570 C   0  0  0  0  0  0  0  0  0  0  0  0
  133.9990  123.0030   61.5780 C   0  0  0  0  0  0  0  0  0  0  0  0
  134.8740  122.2050   62.1910 F   0  0  0  0  0  0  0  0  0  0  0  0
  134.0930  122.8190   60.2610 F   0  0  0  0  0  0  0  0  0  0  0  0
  134.3580  124.2640   61.8340 F   0  0  0  0  0  0  0  0  0  0  0  0
  132.0900  123.0590   63.3370 C   0  0  0  0  0  0  0  0  0  0  0  0
  132.9490  123.7820   64.2810 C   0  0  0  0  0  0  0  0  0  0  0  0
  133.6280  124.3530   65.0240 N   0  0  0  0  0  0  0  0  0  0  0  0
  129.9220  124.4280   70.2670 C   0  0  0  0  0  0  0  0  0  0  0  0
  129.5690  124.6650   71.5920 C   0  0  0  0  0  0  0  0  0  0  0  0
  1  2  1  0
  2  3  1  0
  3  4  2  0
  4  5  1  0
  5  6  2  0
  6  7  1  0
  7  8  1  0
  8  9  2  0
  8 10  1  0
 10 11  1  0
 11 12  1  0
 12 13  2  0
 13 14  1  0
 14 15  1  0
 14 16  2  0
 16 17  1  0
 17 18  1  0
 18 19  1  0
 18 20  1  0
 18 21  1  0
 17 22  2  0
 22 23  1  0
 23 24  3  0
  6 25  1  0
 25 26  2  0
 26  3  1  0
 22 12  1  0
M  END
>  <Binding energies>  (18) 
[-7.13]

>  <Ligand effiencies>  (18) 
[-0.26407407407407407]

>  <Interactions>  (18) 
["V-B:GLU:543:C:9874, V-B:GLU:543:CB:9878, V-B:HIS:456:CE1:9040, V-A:ASP:366:CG:3213, V-B:ALA:541:CB:9864, H-A:TYR:484:OH:4348, V-A:HIS:456:CE1:4069, V-A:LEU:475:CD1:4258, V-A:TYR:484:CE1:4345, V-A:GLY:454:CA:4049, V-A:TYR:484:CZ:4347, H-A:GLY:454:N:4050, V-B:TYR:539:CD2:9846, V-B:TYR:539:CE2:9848, V-A:ILE:369:CD1:3239, V-A:ILE:369:CG2:3237, V-A:HIS:456:CG:4066, V-A:HIS:456:CD2:4068, H-B:LYS:547:NZ:9923, V-A:GLY:453:C:4042, V-A:ILE:369:CB:3236, H-B:GLU:543:O:9875, V-A:ILE:369:CG1:3238, H-A:HIS:456:ND1:4067"]

$$$$
2d_Ghoteimi_2023
     RDKit          3D

 38 42  0  0  0  0  0  0  0  0999 V2000
  124.6770  130.2940   63.3220 C   0  0  0  0  0  0  0  0  0  0  0  0
  123.8760  130.3470   64.4930 O   0  0  0  0  0  0  0  0  0  0  0  0
  124.3400  129.8610   65.6630 C   0  0  0  0  0  0  0  0  0  0  0  0
  123.9390  130.1870   66.7840 O   0  0  0  0  0  0  0  0  0  0  0  0
  125.4470  128.8210   65.4350 C   0  0  0  0  0  0  0  0  0  0  0  0
  127.0430  129.3970   66.1070 S   0  0  0  0  0  0  0  0  0  0  0  0
  128.0250  127.9700   66.5210 C   0  0  0  0  0  0  0  0  0  0  0  0
  128.1810  127.7980   67.8560 N   0  0  0  0  0  0  0  0  0  0  0  0
  128.9130  126.7520   68.3170 C   0  0  0  0  0  0  0  0  0  0  0  0
  129.0560  126.6370   69.8000 C   0  0  0  0  0  0  0  0  0  0  0  0
  129.1400  127.7820   70.5990 C   0  0  0  0  0  0  0  0  0  0  0  0
  129.2730  127.6820   71.9810 C   0  0  0  0  0  0  0  0  0  0  0  0
  129.3160  126.4320   72.6160 C   0  0  0  0  0  0  0  0  0  0  0  0
  129.4670  126.3130   74.0030 N   0  0  0  0  0  0  0  0  0  0  0  0
  130.7920  126.1050   74.6190 C   0  0  0  0  0  0  0  0  0  0  0  0
  130.7230  125.6300   76.0860 C   0  0  0  0  0  0  0  0  0  0  0  0
  129.9470  126.5370   76.8520 O   0  0  0  0  0  0  0  0  0  0  0  0
  128.6190  126.6290   76.3630 C   0  0  0  0  0  0  0  0  0  0  0  0
  128.6250  127.1270   74.9020 C   0  0  0  0  0  0  0  0  0  0  0  0
  129.2450  125.2860   71.8110 C   0  0  0  0  0  0  0  0  0  0  0  0
  129.1150  125.3860   70.4290 C   0  0  0  0  0  0  0  0  0  0  0  0
  129.5070  125.8450   67.4360 C   0  0  0  0  0  0  0  0  0  0  0  0
  129.3340  125.9810   66.0530 C   0  0  0  0  0  0  0  0  0  0  0  0
  129.9740  124.9580   65.1730 C   0  0  0  0  0  0  0  0  0  0  0  0
  129.5040  123.6440   65.1660 C   0  0  0  0  0  0  0  0  0  0  0  0
  130.0850  122.6860   64.3400 C   0  0  0  0  0  0  0  0  0  0  0  0
  131.1600  123.0160   63.4990 C   0  0  0  0  0  0  0  0  0  0  0  0
  131.7510  122.0740   62.6520 N   0  0  0  0  0  0  0  0  0  0  0  0
  133.1300  122.2450   62.1540 C   0  0  0  0  0  0  0  0  0  0  0  0
  133.7280  120.9590   61.5440 C   0  0  0  0  0  0  0  0  0  0  0  0
  132.8760  120.4650   60.5220 O   0  0  0  0  0  0  0  0  0  0  0  0
  131.5830  120.1580   61.0190 C   0  0  0  0  0  0  0  0  0  0  0  0
  130.9300  121.4250   61.6120 C   0  0  0  0  0  0  0  0  0  0  0  0
  131.6140  124.3420   63.4990 C   0  0  0  0  0  0  0  0  0  0  0  0
  131.0310  125.3000   64.3240 C   0  0  0  0  0  0  0  0  0  0  0  0
  128.5660  127.0710   65.5730 C   0  0  0  0  0  0  0  0  0  0  0  0
  128.3400  127.2460   64.1350 C   0  0  0  0  0  0  0  0  0  0  0  0
  128.1630  127.3800   62.9990 N   0  0  0  0  0  0  0  0  0  0  0  0
  1  2  1  0
  2  3  1  0
  3  4  2  0
  3  5  1  0
  5  6  1  0
  6  7  1  0
  7  8  2  0
  8  9  1  0
  9 10  1  0
 10 11  2  0
 11 12  1  0
 12 13  2  0
 13 14  1  0
 14 15  1  0
 15 16  1  0
 16 17  1  0
 17 18  1  0
 18 19  1  0
 13 20  1  0
 20 21  2  0
  9 22  2  0
 22 23  1  0
 23 24  1  0
 24 25  2  0
 25 26  1  0
 26 27  2  0
 27 28  1  0
 28 29  1  0
 29 30  1  0
 30 31  1  0
 31 32  1  0
 32 33  1  0
 27 34  1  0
 34 35  2  0
 23 36  2  0
 36 37  1  0
 37 38  3  0
 36  7  1  0
 21 10  1  0
 35 24  1  0
 19 14  1  0
 33 28  1  0
M  END
>  <Binding energies>  (19) 
[-9.05]

>  <Ligand effiencies>  (19) 
[-0.23815789473684212]

>  <Interactions>  (19) 
["V-B:ARG:545:CD:9895, V-B:GLU:543:CB:9878, V-B:HIS:456:CE1:9040, V-B:GLU:543:CD:9880, V-B:ARG:545:CZ:9898, V-B:ALA:541:CB:9864, V-A:HIS:456:CE1:4069, V-B:GLU:543:CG:9879, V-A:LEU:475:CD1:4258, V-A:TYR:484:CE1:4345, V-B:TYR:539:CD2:9846, V-A:ILE:369:CD1:3239, V-A:ILE:369:CG2:3237, H-B:GLY:454:N:9021, H-B:TYR:484:OH:9319, V-A:HIS:456:CD2:4068, H-A:LYS:547:NZ:4951, V-B:GLU:543:CA:9876, V-A:TRP:381:CH2:3372, H-B:ILE:455:N:9026, H-B:ARG:545:NH2:9900"]

$$$$
2d_Grossjean_2025
     RDKit          3D

 24 25  0  0  0  0  0  0  0  0999 V2000
  130.7070  127.5320   58.1060 C   0  0  0  0  0  0  0  0  0  0  0  0
  129.6480  128.2340   57.2770 C   0  0  0  0  0  0  0  0  0  0  0  0
  128.3630  128.4530   57.7680 C   0  0  0  0  0  0  0  0  0  0  0  0
  127.4210  129.1110   56.9640 C   0  0  0  0  0  0  0  0  0  0  0  0
  126.0080  129.3540   57.5280 C   0  0  0  0  0  0  0  0  0  0  0  0
  125.0900  128.9690   56.6400 F   0  0  0  0  0  0  0  0  0  0  0  0
  125.8390  128.6580   58.6540 F   0  0  0  0  0  0  0  0  0  0  0  0
  125.7780  130.6370   57.8120 F   0  0  0  0  0  0  0  0  0  0  0  0
  127.8100  129.5280   55.6650 C   0  0  0  0  0  0  0  0  0  0  0  0
  126.8780  130.2600   54.8040 C   0  0  0  0  0  0  0  0  0  0  0  0
  126.1410  130.8400   54.1260 N   0  0  0  0  0  0  0  0  0  0  0  0
  129.1300  129.2400   55.2420 C   0  0  0  0  0  0  0  0  0  0  0  0
  129.7740  129.6630   53.6340 S   0  0  0  0  0  0  0  0  0  0  0  0
  130.4330  131.3610   53.6950 C   0  0  0  0  0  0  0  0  0  0  0  0
  130.9230  131.7630   55.0900 C   0  0  0  0  0  0  0  0  0  0  0  0
  130.7850  132.9300   55.4590 O   0  0  0  0  0  0  0  0  0  0  0  0
  131.5090  130.7830   55.8080 N   0  0  0  0  0  0  0  0  0  0  0  0
  132.0500  130.8340   57.1070 C   0  0  0  0  0  0  0  0  0  0  0  0
  131.1470  131.1140   58.1360 C   0  0  0  0  0  0  0  0  0  0  0  0
  131.5880  131.1920   59.4540 C   0  0  0  0  0  0  0  0  0  0  0  0
  132.9370  130.9990   59.7430 C   0  0  0  0  0  0  0  0  0  0  0  0
  133.8480  130.7330   58.7240 C   0  0  0  0  0  0  0  0  0  0  0  0
  133.4110  130.6530   57.4060 C   0  0  0  0  0  0  0  0  0  0  0  0
  130.0340  128.6210   56.0400 N   0  0  0  0  0  0  0  0  0  0  0  0
  1  2  1  0
  2  3  2  0
  3  4  1  0
  4  5  1  0
  5  6  1  0
  5  7  1  0
  5  8  1  0
  4  9  2  0
  9 10  1  0
 10 11  3  0
  9 12  1  0
 12 13  1  0
 13 14  1  0
 14 15  1  0
 15 16  2  0
 15 17  1  0
 17 18  1  0
 18 19  2  0
 19 20  1  0
 20 21  2  0
 21 22  1  0
 22 23  2  0
 12 24  2  0
 24  2  1  0
 23 18  1  0
M  END
>  <Binding energies>  (20) 
[-6.0]

>  <Ligand effiencies>  (20) 
[-0.24]

>  <Interactions>  (20) 
["V-A:PRO:540:CB:4885, V-A:LEU:363:CA:3185, V-A:ASN:362:C:3172, V-A:ASP:366:CG:3213, V-A:PRO:540:CA:4883, V-A:LEU:363:CB:3187, V-A:TYR:539:CE2:4876, V-A:TYR:539:CE1:4875, V-A:TYR:539:CZ:4877, V-A:ASP:366:CB:3212, V-A:TYR:531:CE2:4793, V-A:TYR:531:CZ:4794, V-B:ASP:366:CG:8184, H-A:TYR:539:N:4870, V-A:LEU:363:CD1:3189, V-B:TYR:531:CZ:9766, H-A:TYR:531:OH:4795, H-B:TYR:531:OH:9767, V-B:ASP:366:CB:8183, H-A:TYR:539:OH:4878, V-B:TYR:531:CE1:9764, V-A:MET:535:CB:4832"]

$$$$
2e_Grossjean_2025
     RDKit          3D

 25 26  0  0  0  0  0  0  0  0999 V2000
  127.6160  122.7380   54.6140 C   0  0  0  0  0  0  0  0  0  0  0  0
  126.9270  122.9930   55.9410 C   0  0  0  0  0  0  0  0  0  0  0  0
  125.5440  122.8540   56.0860 C   0  0  0  0  0  0  0  0  0  0  0  0
  124.9810  123.0940   57.3410 C   0  0  0  0  0  0  0  0  0  0  0  0
  125.8030  123.4630   58.4080 C   0  0  0  0  0  0  0  0  0  0  0  0
  127.1800  123.5920   58.1910 C   0  0  0  0  0  0  0  0  0  0  0  0
  127.9660  123.9230   59.3080 N   0  0  0  0  0  0  0  0  0  0  0  0
  127.9480  123.3580   60.5360 C   0  0  0  0  0  0  0  0  0  0  0  0
  127.2660  122.3840   60.8560 O   0  0  0  0  0  0  0  0  0  0  0  0
  128.8230  124.0380   61.5940 C   0  0  0  0  0  0  0  0  0  0  0  0
  129.4130  122.8600   62.8520 S   0  0  0  0  0  0  0  0  0  0  0  0
  131.0700  122.4330   62.3640 C   0  0  0  0  0  0  0  0  0  0  0  0
  132.0010  123.3790   62.6410 N   0  0  0  0  0  0  0  0  0  0  0  0
  133.2800  123.1550   62.2630 C   0  0  0  0  0  0  0  0  0  0  0  0
  134.2700  124.2520   62.6030 C   0  0  0  0  0  0  0  0  0  0  0  0
  133.6760  121.9960   61.5960 C   0  0  0  0  0  0  0  0  0  0  0  0
  132.7230  121.0130   61.2950 C   0  0  0  0  0  0  0  0  0  0  0  0
  133.1720  119.7480   60.5390 C   0  0  0  0  0  0  0  0  0  0  0  0
  132.6180  119.7180   59.3260 F   0  0  0  0  0  0  0  0  0  0  0  0
  134.4990  119.7420   60.4090 F   0  0  0  0  0  0  0  0  0  0  0  0
  132.8240  118.6220   61.1670 F   0  0  0  0  0  0  0  0  0  0  0  0
  131.3790  121.2300   61.6890 C   0  0  0  0  0  0  0  0  0  0  0  0
  130.3300  120.2540   61.3770 C   0  0  0  0  0  0  0  0  0  0  0  0
  129.5020  119.4840   61.1300 N   0  0  0  0  0  0  0  0  0  0  0  0
  127.7390  123.3520   56.9690 N   0  0  0  0  0  0  0  0  0  0  0  0
  1  2  1  0
  2  3  2  0
  3  4  1  0
  4  5  2  0
  5  6  1  0
  6  7  1  0
  7  8  1  0
  8  9  2  0
  8 10  1  0
 10 11  1  0
 11 12  1  0
 12 13  2  0
 13 14  1  0
 14 15  1  0
 14 16  2  0
 16 17  1  0
 17 18  1  0
 18 19  1  0
 18 20  1  0
 18 21  1  0
 17 22  2  0
 22 23  1  0
 23 24  3  0
  6 25  2  0
 25  2  1  0
 22 12  1  0
M  END
>  <Binding energies>  (21) 
[-6.61]

>  <Ligand effiencies>  (21) 
[-0.25423076923076926]

>  <Interactions>  (21) 
["V-A:ARG:545:CZ:4926, V-B:TYR:539:CZ:9849, V-B:ALA:541:CB:9864, V-B:TYR:539:CE1:9847, V-A:LEU:475:CD1:4258, V-B:PRO:540:N:9856, V-B:TYR:539:CD2:9846, V-B:PRO:540:CA:9855, V-B:TYR:539:CE2:9848, V-A:ILE:369:CD1:3239, V-A:ILE:369:CG2:3237, H-B:ALA:541:N:9863, V-B:PRO:540:CD:9859, V-B:PRO:540:CB:9857, V-B:LEU:363:CD1:8160, V-B:ILE:538:CB:9834, V-B:ILE:538:C:9830, V-A:TRP:381:CZ2:3370, V-B:ILE:538:CA:9832, V-B:TYR:539:CD1:9845, V-A:TRP:381:CH2:3372, V-B:ILE:538:CG2:9835, V-A:GLY:453:C:4042, V-A:GLY:453:CA:4044, V-A:ILE:369:CB:3236, V-A:TRP:381:CZ3:3371, V-A:SER:385:C:3405, V-A:SER:385:CA:3407, V-A:ILE:369:CG1:3238"]

$$$$
2f_Grossjean_2025
     RDKit          3D

 24 25  0  0  0  0  0  0  0  0999 V2000
  127.8580  130.5360   64.7040 C   0  0  0  0  0  0  0  0  0  0  0  0
  128.3340  129.2040   65.2530 C   0  0  0  0  0  0  0  0  0  0  0  0
  128.5780  128.1160   64.4190 C   0  0  0  0  0  0  0  0  0  0  0  0
  129.0100  126.9020   64.9770 C   0  0  0  0  0  0  0  0  0  0  0  0
  129.2630  125.7070   64.0390 C   0  0  0  0  0  0  0  0  0  0  0  0
  128.7730  124.5880   64.5780 F   0  0  0  0  0  0  0  0  0  0  0  0
  128.6680  125.9160   62.8640 F   0  0  0  0  0  0  0  0  0  0  0  0
  130.5600  125.5010   63.8020 F   0  0  0  0  0  0  0  0  0  0  0  0
  129.1900  126.8270   66.3820 C   0  0  0  0  0  0  0  0  0  0  0  0
  129.5830  125.5670   67.0170 C   0  0  0  0  0  0  0  0  0  0  0  0
  129.8950  124.5710   67.5180 N   0  0  0  0  0  0  0  0  0  0  0  0
  128.9420  127.9910   67.1480 C   0  0  0  0  0  0  0  0  0  0  0  0
  129.1270  128.0810   68.9170 S   0  0  0  0  0  0  0  0  0  0  0  0
  127.9590  126.8980   69.6700 C   0  0  0  0  0  0  0  0  0  0  0  0
  128.5180  126.0940   70.8520 C   0  0  0  0  0  0  0  0  0  0  0  0
  128.4620  126.5420   71.9980 O   0  0  0  0  0  0  0  0  0  0  0  0
  129.0680  124.9080   70.5140 N   0  0  0  0  0  0  0  0  0  0  0  0
  129.6560  123.9280   71.3350 C   0  0  0  0  0  0  0  0  0  0  0  0
  130.7570  124.1300   72.1870 C   0  0  0  0  0  0  0  0  0  0  0  0
  131.2410  123.0690   72.9550 C   0  0  0  0  0  0  0  0  0  0  0  0
  130.6080  121.8290   72.8550 C   0  0  0  0  0  0  0  0  0  0  0  0
  129.5400  121.6100   72.0470 N   0  0  0  0  0  0  0  0  0  0  0  0
  129.0810  122.6520   71.3070 C   0  0  0  0  0  0  0  0  0  0  0  0
  128.5040  129.1480   66.5940 N   0  0  0  0  0  0  0  0  0  0  0  0
  1  2  1  0
  2  3  2  0
  3  4  1  0
  4  5  1  0
  5  6  1  0
  5  7  1  0
  5  8  1  0
  4  9  2  0
  9 10  1  0
 10 11  3  0
  9 12  1  0
 12 13  1  0
 13 14  1  0
 14 15  1  0
 15 16  2  0
 15 17  1  0
 17 18  1  0
 18 19  2  0
 19 20  1  0
 20 21  2  0
 21 22  1  0
 22 23  2  0
 12 24  2  0
 24  2  1  0
 23 18  1  0
M  END
>  <Binding energies>  (22) 
[-5.93]

>  <Ligand effiencies>  (22) 
[-0.2372]

>  <Interactions>  (22) 
["V-B:GLU:543:C:9874, V-B:GLU:543:CB:9878, V-B:HIS:456:CE1:9040, V-B:GLU:543:CD:9880, V-A:GLU:543:CD:4908, H-A:TYR:484:OH:4348, V-A:HIS:456:CE1:4069, V-B:GLU:543:CG:9879, V-A:TYR:484:CE1:4345, V-A:HIS:456:CG:4066, H-A:HIS:456:NE2:4070, V-A:HIS:456:CD2:4068, V-A:HIS:456:CB:4065, V-A:ASP:473:CB:4239, H-B:LYS:547:NZ:9923, H-B:HIS:456:NE2:9041, V-B:GLU:543:CA:9876, V-A:TYR:484:CD2:4344, V-A:GLU:543:CB:4906, V-A:TYR:484:CD1:4343, V-A:TYR:484:CG:4342, V-A:TYR:484:CB:4341, V-B:LYS:547:CE:9922, V-B:GLY:544:CA:9886, H-B:GLU:543:O:9875"]

$$$$
2g_Grossjean_2025
     RDKit          3D

 25 26  0  0  0  0  0  0  0  0999 V2000
  133.9850  124.3070   62.7920 C   0  0  0  0  0  0  0  0  0  0  0  0
  133.0340  123.1840   62.4270 C   0  0  0  0  0  0  0  0  0  0  0  0
  133.4780  122.0320   61.7810 C   0  0  0  0  0  0  0  0  0  0  0  0
  132.5570  121.0240   61.4580 C   0  0  0  0  0  0  0  0  0  0  0  0
  133.0650  119.7610   60.7350 C   0  0  0  0  0  0  0  0  0  0  0  0
  132.5980  119.7240   59.4860 F   0  0  0  0  0  0  0  0  0  0  0  0
  134.3980  119.7680   60.6980 F   0  0  0  0  0  0  0  0  0  0  0  0
  132.6840  118.6330   61.3370 F   0  0  0  0  0  0  0  0  0  0  0  0
  131.1950  121.2100   61.8100 C   0  0  0  0  0  0  0  0  0  0  0  0
  130.1840  120.2150   61.4450 C   0  0  0  0  0  0  0  0  0  0  0  0
  129.3860  119.4280   61.1560 N   0  0  0  0  0  0  0  0  0  0  0  0
  130.8410  122.4000   62.4920 C   0  0  0  0  0  0  0  0  0  0  0  0
  129.1880  122.7820   63.0280 S   0  0  0  0  0  0  0  0  0  0  0  0
  128.4460  123.8820   61.7750 C   0  0  0  0  0  0  0  0  0  0  0  0
  127.4740  123.1910   60.8090 C   0  0  0  0  0  0  0  0  0  0  0  0
  127.6540  122.0290   60.4390 O   0  0  0  0  0  0  0  0  0  0  0  0
  126.4330  123.9400   60.4020 N   0  0  0  0  0  0  0  0  0  0  0  0
  125.3740  123.5000   59.4920 C   0  0  0  0  0  0  0  0  0  0  0  0
  125.8110  123.3630   58.0380 C   0  0  0  0  0  0  0  0  0  0  0  0
  125.0100  123.8850   57.0180 C   0  0  0  0  0  0  0  0  0  0  0  0
  125.4260  123.7940   55.6920 C   0  0  0  0  0  0  0  0  0  0  0  0
  126.6440  123.1910   55.3910 C   0  0  0  0  0  0  0  0  0  0  0  0
  127.4530  122.6800   56.4040 C   0  0  0  0  0  0  0  0  0  0  0  0
  127.0390  122.7710   57.7300 C   0  0  0  0  0  0  0  0  0  0  0  0
  131.7410  123.3740   62.7760 N   0  0  0  0  0  0  0  0  0  0  0  0
  1  2  1  0
  2  3  2  0
  3  4  1  0
  4  5  1  0
  5  6  1  0
  5  7  1  0
  5  8  1  0
  4  9  2  0
  9 10  1  0
 10 11  3  0
  9 12  1  0
 12 13  1  0
 13 14  1  0
 14 15  1  0
 15 16  2  0
 15 17  1  0
 17 18  1  0
 18 19  1  0
 19 20  2  0
 20 21  1  0
 21 22  2  0
 22 23  1  0
 23 24  2  0
 12 25  2  0
 25  2  1  0
 24 19  1  0
M  END
>  <Binding energies>  (23) 
[-6.98]

>  <Ligand effiencies>  (23) 
[-0.2684615384615385]

>  <Interactions>  (23) 
["V-B:GLU:543:CD:9880, V-A:ARG:545:CZ:4926, H-B:GLU:543:OE2:9882, V-B:TYR:539:CZ:9849, V-B:ALA:541:CB:9864, V-B:TYR:539:CE1:9847, V-B:GLU:543:CG:9879, V-A:LEU:475:CD1:4258, V-B:PRO:540:N:9856, V-B:TYR:539:CD2:9846, V-B:PRO:540:CA:9855, V-B:TYR:539:C:9839, V-B:TYR:539:CE2:9848, V-A:ILE:369:CD1:3239, V-A:ILE:369:CG2:3237, H-B:ALA:541:N:9863, V-B:PRO:540:CB:9857, V-B:LEU:363:CD1:8160, V-B:ILE:538:CB:9834, V-B:TYR:539:CG:9844, V-A:TRP:381:CZ2:3370, V-B:ILE:538:CA:9832, V-B:TYR:539:CD1:9845, V-A:TRP:381:CH2:3372, V-B:ILE:538:CG2:9835, V-A:GLY:453:C:4042, V-A:GLY:453:CA:4044, V-A:TRP:381:CZ3:3371, V-A:SER:385:C:3405, V-A:SER:385:CA:3407, V-A:ILE:369:CG1:3238"]

$$$$
2h_Grossjean_2025
     RDKit          3D

 31 32  0  0  0  0  0  0  0  0999 V2000
  132.7650  126.6310   74.2970 C   0  0  0  0  0  0  0  0  0  0  0  0
  131.3730  126.8580   74.4910 O   0  0  0  0  0  0  0  0  0  0  0  0
  130.5100  126.7400   73.4160 C   0  0  0  0  0  0  0  0  0  0  0  0
  130.0510  127.8280   72.6570 C   0  0  0  0  0  0  0  0  0  0  0  0
  129.1880  127.6310   71.5820 C   0  0  0  0  0  0  0  0  0  0  0  0
  128.7650  126.3450   71.2400 C   0  0  0  0  0  0  0  0  0  0  0  0
  127.8350  126.1510   70.0440 C   0  0  0  0  0  0  0  0  0  0  0  0
  128.5310  126.1160   68.7580 N   0  0  0  0  0  0  0  0  0  0  0  0
  129.3430  127.0840   68.2950 C   0  0  0  0  0  0  0  0  0  0  0  0
  129.5220  128.1530   68.8820 O   0  0  0  0  0  0  0  0  0  0  0  0
  130.0570  126.7720   66.9730 C   0  0  0  0  0  0  0  0  0  0  0  0
  130.3590  125.0010   66.6580 S   0  0  0  0  0  0  0  0  0  0  0  0
  130.6880  124.8370   64.9160 C   0  0  0  0  0  0  0  0  0  0  0  0
  129.5800  124.9310   64.1410 N   0  0  0  0  0  0  0  0  0  0  0  0
  129.7130  124.8020   62.8020 C   0  0  0  0  0  0  0  0  0  0  0  0
  128.4310  124.9100   61.9980 C   0  0  0  0  0  0  0  0  0  0  0  0
  130.9440  124.5820   62.1860 C   0  0  0  0  0  0  0  0  0  0  0  0
  132.1040  124.5030   62.9710 C   0  0  0  0  0  0  0  0  0  0  0  0
  133.4570  124.2690   62.2710 C   0  0  0  0  0  0  0  0  0  0  0  0
  134.3560  125.1490   62.7130 F   0  0  0  0  0  0  0  0  0  0  0  0
  133.9490  123.0480   62.4930 F   0  0  0  0  0  0  0  0  0  0  0  0
  133.3220  124.4140   60.9520 F   0  0  0  0  0  0  0  0  0  0  0  0
  131.9820  124.6440   64.3770 C   0  0  0  0  0  0  0  0  0  0  0  0
  133.1700  124.6280   65.2340 C   0  0  0  0  0  0  0  0  0  0  0  0
  134.1100  124.6190   65.9090 N   0  0  0  0  0  0  0  0  0  0  0  0
  129.1970  125.2500   72.0040 C   0  0  0  0  0  0  0  0  0  0  0  0
  128.7820  123.9810   71.6760 O   0  0  0  0  0  0  0  0  0  0  0  0
  129.7130  123.2440   70.8930 C   0  0  0  0  0  0  0  0  0  0  0  0
  130.0830  125.4500   73.0770 C   0  0  0  0  0  0  0  0  0  0  0  0
  130.5230  124.3780   73.8150 O   0  0  0  0  0  0  0  0  0  0  0  0
  131.6920  123.7570   73.2990 C   0  0  0  0  0  0  0  0  0  0  0  0
  1  2  1  0
  2  3  1  0
  3  4  2  0
  4  5  1  0
  5  6  2  0
  6  7  1  0
  7  8  1  0
  8  9  1  0
  9 10  2  0
  9 11  1  0
 11 12  1  0
 12 13  1  0
 13 14  2  0
 14 15  1  0
 15 16  1  0
 15 17  2  0
 17 18  1  0
 18 19  1  0
 19 20  1  0
 19 21  1  0
 19 22  1  0
 18 23  2  0
 23 24  1  0
 24 25  3  0
  6 26  1  0
 26 27  1  0
 27 28  1  0
 26 29  2  0
 29 30  1  0
 30 31  1  0
 29  3  1  0
 23 13  1  0
M  END
>  <Binding energies>  (24) 
[-6.74]

>  <Ligand effiencies>  (24) 
[-0.210625]

>  <Interactions>  (24) 
["V-B:GLU:543:C:9874, V-B:GLY:544:C:9884, V-B:HIS:456:CE1:9040, V-A:ASP:366:CG:3213, V-B:GLU:543:CD:9880, V-A:GLU:543:CD:4908, V-A:ARG:545:CZ:4926, H-A:TYR:484:OH:4348, V-A:HIS:456:CE1:4069, V-B:GLU:543:CG:9879, V-A:TYR:484:CE1:4345, V-A:GLY:454:CA:4049, V-A:TYR:484:CZ:4347, H-A:GLY:454:N:4050, V-A:ILE:369:CD1:3239, V-A:HIS:456:CG:4066, H-A:HIS:456:NE2:4070, V-A:HIS:456:CD2:4068, V-A:HIS:456:CB:4065, V-A:LYS:547:CD:4949, V-A:LYS:547:CE:4950, H-A:LYS:547:NZ:4951, H-B:LYS:547:NZ:9923, H-B:HIS:456:NE2:9041, V-A:TYR:484:CD2:4344, V-A:TYR:484:CD1:4343, V-A:TYR:484:CG:4342, V-A:GLY:453:C:4042, V-A:GLY:453:CA:4044, V-A:TYR:484:CE2:4346, H-B:GLU:543:O:9875"]

$$$$
2i_Grossjean_2025
     RDKit          3D

 23 24  0  0  0  0  0  0  0  0999 V2000
  128.6930  126.0680   65.6900 C   0  0  0  0  0  0  0  0  0  0  0  0
  129.8230  125.2410   65.1060 C   0  0  0  0  0  0  0  0  0  0  0  0
  131.1520  125.4740   65.4510 C   0  0  0  0  0  0  0  0  0  0  0  0
  132.1600  124.6800   64.8860 C   0  0  0  0  0  0  0  0  0  0  0  0
  133.6250  124.9520   65.2780 C   0  0  0  0  0  0  0  0  0  0  0  0
  133.7040  126.0720   65.9990 F   0  0  0  0  0  0  0  0  0  0  0  0
  134.1020  123.9380   66.0010 F   0  0  0  0  0  0  0  0  0  0  0  0
  134.4240  125.1000   64.2190 F   0  0  0  0  0  0  0  0  0  0  0  0
  131.7880  123.6580   63.9760 C   0  0  0  0  0  0  0  0  0  0  0  0
  132.8010  122.7980   63.3570 C   0  0  0  0  0  0  0  0  0  0  0  0
  133.6000  122.1180   62.8680 N   0  0  0  0  0  0  0  0  0  0  0  0
  130.4150  123.4920   63.6800 C   0  0  0  0  0  0  0  0  0  0  0  0
  129.8300  122.2460   62.5440 S   0  0  0  0  0  0  0  0  0  0  0  0
  129.7690  122.9800   60.8810 C   0  0  0  0  0  0  0  0  0  0  0  0
  128.4180  122.7580   60.1980 C   0  0  0  0  0  0  0  0  0  0  0  0
  127.4500  122.4180   60.8810 O   0  0  0  0  0  0  0  0  0  0  0  0
  128.4000  122.9330   58.8590 N   0  0  0  0  0  0  0  0  0  0  0  0
  127.3110  122.7760   58.0190 C   0  0  0  0  0  0  0  0  0  0  0  0
  126.0300  123.3430   58.0850 C   0  0  0  0  0  0  0  0  0  0  0  0
  125.3660  122.8360   56.9910 C   0  0  0  0  0  0  0  0  0  0  0  0
  126.2010  122.0190   56.3050 O   0  0  0  0  0  0  0  0  0  0  0  0
  127.4310  121.9970   56.9660 N   0  0  0  0  0  0  0  0  0  0  0  0
  129.4540  124.2710   64.2390 N   0  0  0  0  0  0  0  0  0  0  0  0
  1  2  1  0
  2  3  2  0
  3  4  1  0
  4  5  1  0
  5  6  1  0
  5  7  1  0
  5  8  1  0
  4  9  2  0
  9 10  1  0
 10 11  3  0
  9 12  1  0
 12 13  1  0
 13 14  1  0
 14 15  1  0
 15 16  2  0
 15 17  1  0
 17 18  1  0
 18 19  1  0
 19 20  2  0
 20 21  1  0
 21 22  1  0
 12 23  2  0
 23  2  1  0
 22 18  2  0
M  END
>  <Binding energies>  (25) 
[-6.83]

>  <Ligand effiencies>  (25) 
[-0.28458333333333335]

>  <Interactions>  (25) 
["V-B:GLU:543:CB:9878, V-B:GLU:543:CD:9880, V-A:ARG:545:CZ:4926, V-A:ARG:545:CD:4923, V-A:HIS:456:CE1:4069, V-B:GLU:543:CG:9879, V-A:LEU:475:CD1:4258, V-A:GLY:454:CA:4049, V-B:PRO:540:N:9856, V-A:TYR:484:CZ:4347, H-A:GLY:454:N:4050, V-B:TYR:539:CD2:9846, V-B:PRO:540:CA:9855, V-B:TYR:539:C:9839, V-B:TYR:539:CE2:9848, H-B:ALA:541:N:9863, V-B:PRO:540:CD:9859, V-B:PRO:540:CB:9857, V-B:LEU:363:CD1:8160, V-A:GLY:453:C:4042, V-A:GLY:453:CA:4044, V-A:ARG:545:CG:4922, H-B:TYR:539:N:9842, H-B:TYR:539:OH:9850, V-A:GLY:454:C:4047"]

$$$$
2k_Grossjean_2025
     RDKit          3D

 28 28  0  0  0  0  0  0  0  0999 V2000
  127.2650  122.4320   57.5500 C   0  0  0  0  0  0  0  0  0  0  0  0
  126.8070  122.0310   56.2680 O   0  0  0  0  0  0  0  0  0  0  0  0
  126.4670  123.1220   55.4210 C   0  0  0  0  0  0  0  0  0  0  0  0
  127.6510  123.4530   54.5040 C   0  0  0  0  0  0  0  0  0  0  0  0
  128.0800  124.7820   54.7630 O   0  0  0  0  0  0  0  0  0  0  0  0
  129.0070  124.8980   55.8370 C   0  0  0  0  0  0  0  0  0  0  0  0
  129.8760  126.1380   55.5950 C   0  0  0  0  0  0  0  0  0  0  0  0
  131.2350  125.7500   55.7310 O   0  0  0  0  0  0  0  0  0  0  0  0
  131.8530  126.1340   56.9490 C   0  0  0  0  0  0  0  0  0  0  0  0
  131.4140  125.1620   58.0600 C   0  0  0  0  0  0  0  0  0  0  0  0
  132.5240  124.7290   58.9130 N   0  0  0  0  0  0  0  0  0  0  0  0
  133.5430  123.9360   58.5290 C   0  0  0  0  0  0  0  0  0  0  0  0
  133.6690  123.5020   57.3820 O   0  0  0  0  0  0  0  0  0  0  0  0
  134.5540  123.5720   59.6260 C   0  0  0  0  0  0  0  0  0  0  0  0
  133.8680  123.4570   61.3150 S   0  0  0  0  0  0  0  0  0  0  0  0
  132.1840  122.8640   61.2340 C   0  0  0  0  0  0  0  0  0  0  0  0
  131.2230  123.8220   61.1950 N   0  0  0  0  0  0  0  0  0  0  0  0
  129.9260  123.4450   61.1370 C   0  0  0  0  0  0  0  0  0  0  0  0
  128.9140  124.5730   61.1100 C   0  0  0  0  0  0  0  0  0  0  0  0
  129.5330  122.1100   61.1030 C   0  0  0  0  0  0  0  0  0  0  0  0
  130.5090  121.1030   61.1330 C   0  0  0  0  0  0  0  0  0  0  0  0
  130.0570  119.6300   61.0880 C   0  0  0  0  0  0  0  0  0  0  0  0
  130.4210  119.0110   59.9640 F   0  0  0  0  0  0  0  0  0  0  0  0
  130.5920  118.9570   62.1080 F   0  0  0  0  0  0  0  0  0  0  0  0
  128.7280  119.5590   61.1730 F   0  0  0  0  0  0  0  0  0  0  0  0
  131.8740  121.4830   61.2020 C   0  0  0  0  0  0  0  0  0  0  0  0
  132.9350  120.4730   61.2390 C   0  0  0  0  0  0  0  0  0  0  0  0
  133.7730  119.6740   61.2680 N   0  0  0  0  0  0  0  0  0  0  0  0
  1  2  1  0
  2  3  1  0
  3  4  1  0
  4  5  1  0
  5  6  1  0
  6  7  1  0
  7  8  1  0
  8  9  1  0
  9 10  1  0
 10 11  1  0
 11 12  1  0
 12 13  2  0
 12 14  1  0
 14 15  1  0
 15 16  1  0
 16 17  2  0
 17 18  1  0
 18 19  1  0
 18 20  2  0
 20 21  1  0
 21 22  1  0
 22 23  1  0
 22 24  1  0
 22 25  1  0
 21 26  2  0
 26 27  1  0
 27 28  3  0
 26 16  1  0
M  END
>  <Binding energies>  (26) 
[-5.67]

>  <Ligand effiencies>  (26) 
[-0.19551724137931034]

>  <Interactions>  (26) 
["V-A:ASP:366:CG:3213, V-A:ASP:366:CB:3212, V-B:TYR:539:CZ:9849, V-B:ALA:541:CB:9864, V-B:TYR:539:CE1:9847, V-A:LEU:475:CD1:4258, V-B:PRO:540:N:9856, V-B:TYR:539:CD2:9846, V-B:PRO:540:CA:9855, V-B:TYR:539:C:9839, V-B:TYR:539:CE2:9848, V-B:PRO:540:C:9853, V-A:ILE:369:CD1:3239, V-A:ILE:369:CG2:3237, V-B:ALA:541:CA:9862, V-A:PRO:482:CB:4326, V-A:PRO:482:CG:4327, V-B:ILE:538:CB:9834, V-B:TYR:539:CG:9844, V-A:TRP:381:CZ2:3370, V-B:ILE:538:CA:9832, V-A:TRP:381:CH2:3372, V-B:ILE:538:CG2:9835, H-B:TYR:539:N:9842, H-A:TYR:531:OH:4795, H-B:TYR:539:OH:9850, V-A:ILE:369:CB:3236, V-A:ASP:366:CA:3210, V-A:TRP:381:CZ3:3371, H-A:ASP:366:OD1:3214, V-A:ILE:369:CG1:3238, H-A:ASP:366:OD2:3215, V-B:TYR:539:CB:9843"]

$$$$
3aa_Grossjean_2025
     RDKit          3D

 34 36  0  0  0  0  0  0  0  0999 V2000
  125.9030  126.9510   73.8940 C   0  0  0  0  0  0  0  0  0  0  0  0
  127.0620  127.0430   74.8930 C   0  0  0  0  0  0  0  0  0  0  0  0
  128.0400  126.0600   74.5750 O   0  0  0  0  0  0  0  0  0  0  0  0
  129.2050  126.4050   73.9700 C   0  0  0  0  0  0  0  0  0  0  0  0
  130.1790  126.8610   74.5780 O   0  0  0  0  0  0  0  0  0  0  0  0
  129.1880  126.1930   72.4830 C   0  0  0  0  0  0  0  0  0  0  0  0
  129.5830  124.9790   71.9010 C   0  0  0  0  0  0  0  0  0  0  0  0
  129.5510  124.8140   70.5190 C   0  0  0  0  0  0  0  0  0  0  0  0
  129.1180  125.8530   69.6930 C   0  0  0  0  0  0  0  0  0  0  0  0
  129.1200  125.5810   68.3100 N   0  0  0  0  0  0  0  0  0  0  0  0
  129.3140  126.4190   67.2680 C   0  0  0  0  0  0  0  0  0  0  0  0
  129.5090  127.6320   67.3540 O   0  0  0  0  0  0  0  0  0  0  0  0
  129.2670  125.7720   65.8840 C   0  0  0  0  0  0  0  0  0  0  0  0
  130.1650  124.1910   65.8470 S   0  0  0  0  0  0  0  0  0  0  0  0
  130.7820  123.9810   64.1910 C   0  0  0  0  0  0  0  0  0  0  0  0
  129.8120  123.7450   63.2760 N   0  0  0  0  0  0  0  0  0  0  0  0
  130.1470  123.5640   61.9720 C   0  0  0  0  0  0  0  0  0  0  0  0
  129.0160  123.3220   61.0180 C   0  0  0  0  0  0  0  0  0  0  0  0
  129.2680  123.0690   59.6610 C   0  0  0  0  0  0  0  0  0  0  0  0
  128.2230  122.8420   58.7680 C   0  0  0  0  0  0  0  0  0  0  0  0
  126.9090  122.8660   59.2240 C   0  0  0  0  0  0  0  0  0  0  0  0
  126.6330  123.1120   60.5650 C   0  0  0  0  0  0  0  0  0  0  0  0
  127.6800  123.3360   61.4550 C   0  0  0  0  0  0  0  0  0  0  0  0
  131.4810  123.6250   61.5580 C   0  0  0  0  0  0  0  0  0  0  0  0
  132.5050  123.8510   62.4910 C   0  0  0  0  0  0  0  0  0  0  0  0
  133.9630  123.9000   61.9970 C   0  0  0  0  0  0  0  0  0  0  0  0
  134.6250  122.7630   62.2210 F   0  0  0  0  0  0  0  0  0  0  0  0
  133.9960  124.1270   60.6830 F   0  0  0  0  0  0  0  0  0  0  0  0
  134.6210  124.8780   62.6200 F   0  0  0  0  0  0  0  0  0  0  0  0
  132.1520  124.0230   63.8520 C   0  0  0  0  0  0  0  0  0  0  0  0
  133.1830  124.2040   64.8780 C   0  0  0  0  0  0  0  0  0  0  0  0
  133.9980  124.3470   65.6880 N   0  0  0  0  0  0  0  0  0  0  0  0
  128.7350  127.0740   70.2670 C   0  0  0  0  0  0  0  0  0  0  0  0
  128.7700  127.2370   71.6480 C   0  0  0  0  0  0  0  0  0  0  0  0
  1  2  1  0
  2  3  1  0
  3  4  1  0
  4  5  2  0
  4  6  1  0
  6  7  2  0
  7  8  1  0
  8  9  2  0
  9 10  1  0
 10 11  1  0
 11 12  2  0
 11 13  1  0
 13 14  1  0
 14 15  1  0
 15 16  2  0
 16 17  1  0
 17 18  1  0
 18 19  2  0
 19 20  1  0
 20 21  2  0
 21 22  1  0
 22 23  2  0
 17 24  2  0
 24 25  1  0
 25 26  1  0
 26 27  1  0
 26 28  1  0
 26 29  1  0
 25 30  2  0
 30 31  1  0
 31 32  3  0
  9 33  1  0
 33 34  2  0
 34  6  1  0
 30 15  1  0
 23 18  1  0
M  END
>  <Binding energies>  (27) 
[-8.45]

>  <Ligand effiencies>  (27) 
[-0.2414285714285714]

>  <Interactions>  (27) 
["V-B:GLU:543:C:9874, V-B:GLU:543:CB:9878, V-B:HIS:456:CE1:9040, V-A:ASP:366:CG:3213, V-B:GLU:543:CD:9880, V-A:ARG:545:CZ:4926, V-B:ALA:541:CB:9864, H-A:TYR:484:OH:4348, V-A:HIS:456:CE1:4069, V-B:GLU:543:CG:9879, V-A:GLY:454:CA:4049, V-B:PRO:540:N:9856, H-A:GLY:454:N:4050, V-B:TYR:539:CD2:9846, V-B:PRO:540:CA:9855, V-B:TYR:539:C:9839, V-B:TYR:539:CE2:9848, V-B:PRO:540:C:9853, V-A:ILE:369:CD1:3239, V-B:PRO:540:CB:9857, V-A:HIS:456:CD2:4068, H-A:LYS:547:NZ:4951, H-B:LYS:547:NZ:9923, V-A:GLY:453:C:4042, V-A:GLY:453:CA:4044, V-B:LYS:547:CD:9921, H-B:GLU:543:O:9875"]

$$$$
3ad_Grossjean_2025
     RDKit          3D

 29 31  0  0  0  0  0  0  0  0999 V2000
  133.0840  124.5690   61.4780 N   0  0  0  0  0  0  0  0  0  0  0  0
  132.4310  124.8580   62.3890 C   0  0  0  0  0  0  0  0  0  0  0  0
  131.6070  125.2230   63.5460 C   0  0  0  0  0  0  0  0  0  0  0  0
  132.1110  125.0960   64.8630 C   0  0  0  0  0  0  0  0  0  0  0  0
  133.5450  124.6190   65.1630 C   0  0  0  0  0  0  0  0  0  0  0  0
  133.9900  125.0310   66.3510 F   0  0  0  0  0  0  0  0  0  0  0  0
  133.5910  123.2850   65.1560 F   0  0  0  0  0  0  0  0  0  0  0  0
  134.3860  125.0850   64.2390 F   0  0  0  0  0  0  0  0  0  0  0  0
  131.2660  125.4140   65.9370 C   0  0  0  0  0  0  0  0  0  0  0  0
  129.9550  125.8440   65.7030 C   0  0  0  0  0  0  0  0  0  0  0  0
  129.0050  126.1820   66.8130 C   0  0  0  0  0  0  0  0  0  0  0  0
  129.2910  125.8150   68.1380 C   0  0  0  0  0  0  0  0  0  0  0  0
  128.4150  126.1270   69.1730 C   0  0  0  0  0  0  0  0  0  0  0  0
  127.2360  126.8130   68.8970 C   0  0  0  0  0  0  0  0  0  0  0  0
  126.9310  127.1900   67.5940 C   0  0  0  0  0  0  0  0  0  0  0  0
  127.8110  126.8770   66.5610 C   0  0  0  0  0  0  0  0  0  0  0  0
  129.4750  125.9580   64.4390 N   0  0  0  0  0  0  0  0  0  0  0  0
  130.2780  125.6760   63.3860 C   0  0  0  0  0  0  0  0  0  0  0  0
  129.4880  125.8930   61.8070 S   0  0  0  0  0  0  0  0  0  0  0  0
  128.0500  124.7820   61.7660 C   0  0  0  0  0  0  0  0  0  0  0  0
  128.4580  123.3130   61.6290 C   0  0  0  0  0  0  0  0  0  0  0  0
  127.5910  122.4420   61.7000 O   0  0  0  0  0  0  0  0  0  0  0  0
  129.7760  123.0940   61.4360 N   0  0  0  0  0  0  0  0  0  0  0  0
  130.4720  121.8840   61.2600 C   0  0  0  0  0  0  0  0  0  0  0  0
  129.6760  120.7520   61.0580 C   0  0  0  0  0  0  0  0  0  0  0  0
  130.2640  119.5020   60.8770 C   0  0  0  0  0  0  0  0  0  0  0  0
  131.6500  119.3820   60.9020 C   0  0  0  0  0  0  0  0  0  0  0  0
  132.4540  120.4990   61.1090 C   0  0  0  0  0  0  0  0  0  0  0  0
  131.8710  121.7510   61.2910 C   0  0  0  0  0  0  0  0  0  0  0  0
  1  2  3  0
  2  3  1  0
  3  4  2  0
  4  5  1  0
  5  6  1  0
  5  7  1  0
  5  8  1  0
  4  9  1  0
  9 10  2  0
 10 11  1  0
 11 12  2  0
 12 13  1  0
 13 14  2  0
 14 15  1  0
 15 16  2  0
 10 17  1  0
 17 18  2  0
 18 19  1  0
 19 20  1  0
 20 21  1  0
 21 22  2  0
 21 23  1  0
 23 24  1  0
 24 25  2  0
 25 26  1  0
 26 27  2  0
 27 28  1  0
 28 29  2  0
 18  3  1  0
 29 24  1  0
 16 11  1  0
M  END
>  <Binding energies>  (28) 
[-7.22]

>  <Ligand effiencies>  (28) 
[-0.24066666666666667]

>  <Interactions>  (28) 
["V-B:GLU:543:C:9874, V-B:GLU:543:CB:9878, V-B:GLY:544:C:9884, V-B:HIS:456:CE1:9040, V-B:GLU:543:CD:9880, V-B:ARG:545:CG:9894, V-A:ARG:545:CZ:4926, V-B:ALA:541:CB:9864, V-A:ARG:545:CD:4923, V-A:HIS:456:CE1:4069, V-B:GLU:543:CG:9879, V-A:LEU:475:CD1:4258, V-A:GLY:454:CA:4049, V-A:TYR:484:CZ:4347, V-B:TYR:539:CD2:9846, H-B:ALA:541:N:9863, V-A:PRO:482:CB:4326, V-A:PRO:482:CG:4327, V-A:TRP:381:CZ2:3370, V-A:TRP:381:CH2:3372, V-A:GLY:453:C:4042, V-A:GLY:453:CA:4044, V-A:ARG:545:CG:4922, V-A:GLY:454:C:4047"]

$$$$
3ai_Grossjean_2025
     RDKit          3D

 28 30  0  0  0  0  0  0  0  0999 V2000
  125.3580  128.9570   67.1410 N   0  0  0  0  0  0  0  0  0  0  0  0
  126.3020  128.3780   66.8050 C   0  0  0  0  0  0  0  0  0  0  0  0
  127.4980  127.6460   66.3780 C   0  0  0  0  0  0  0  0  0  0  0  0
  128.1140  127.9250   65.1340 C   0  0  0  0  0  0  0  0  0  0  0  0
  127.6050  129.0270   64.1840 C   0  0  0  0  0  0  0  0  0  0  0  0
  126.3100  128.8980   63.8880 F   0  0  0  0  0  0  0  0  0  0  0  0
  127.7710  130.2250   64.7460 F   0  0  0  0  0  0  0  0  0  0  0  0
  128.2810  128.9910   63.0350 F   0  0  0  0  0  0  0  0  0  0  0  0
  129.2280  127.1640   64.7500 C   0  0  0  0  0  0  0  0  0  0  0  0
  129.7130  126.1500   65.5830 C   0  0  0  0  0  0  0  0  0  0  0  0
  130.8920  125.2990   65.2190 C   0  0  0  0  0  0  0  0  0  0  0  0
  132.1810  125.6340   65.6620 C   0  0  0  0  0  0  0  0  0  0  0  0
  133.2800  124.8460   65.3320 C   0  0  0  0  0  0  0  0  0  0  0  0
  133.1040  123.7070   64.5530 C   0  0  0  0  0  0  0  0  0  0  0  0
  131.8360  123.3520   64.1040 C   0  0  0  0  0  0  0  0  0  0  0  0
  130.7400  124.1420   64.4360 C   0  0  0  0  0  0  0  0  0  0  0  0
  129.1150  125.8800   66.7710 N   0  0  0  0  0  0  0  0  0  0  0  0
  128.0520  126.6180   67.1750 C   0  0  0  0  0  0  0  0  0  0  0  0
  127.4170  126.1340   68.7660 S   0  0  0  0  0  0  0  0  0  0  0  0
  128.4180  126.9660   70.0450 C   0  0  0  0  0  0  0  0  0  0  0  0
  129.0110  126.0340   71.1130 C   0  0  0  0  0  0  0  0  0  0  0  0
  129.3340  126.4690   72.2200 O   0  0  0  0  0  0  0  0  0  0  0  0
  129.1380  124.7440   70.7270 N   0  0  0  0  0  0  0  0  0  0  0  0
  129.6330  123.6860   71.4790 C   0  0  0  0  0  0  0  0  0  0  0  0
  130.8300  123.7520   72.1910 C   0  0  0  0  0  0  0  0  0  0  0  0
  130.9610  122.5190   72.7880 C   0  0  0  0  0  0  0  0  0  0  0  0
  129.8970  121.7500   72.4540 O   0  0  0  0  0  0  0  0  0  0  0  0
  129.0620  122.5020   71.6240 N   0  0  0  0  0  0  0  0  0  0  0  0
  1  2  3  0
  2  3  1  0
  3  4  2  0
  4  5  1  0
  5  6  1  0
  5  7  1  0
  5  8  1  0
  4  9  1  0
  9 10  2  0
 10 11  1  0
 11 12  2  0
 12 13  1  0
 13 14  2  0
 14 15  1  0
 15 16  2  0
 10 17  1  0
 17 18  2  0
 18 19  1  0
 19 20  1  0
 20 21  1  0
 21 22  2  0
 21 23  1  0
 23 24  1  0
 24 25  1  0
 25 26  2  0
 26 27  1  0
 27 28  1  0
 18  3  1  0
 28 24  2  0
 16 11  1  0
M  END
>  <Binding energies>  (29) 
[-8.0]

>  <Ligand effiencies>  (29) 
[-0.27586206896551724]

>  <Interactions>  (29) 
["V-B:GLU:543:C:9874, V-B:GLU:543:CB:9878, V-B:HIS:456:CE1:9040, V-B:GLU:543:CD:9880, V-B:ARG:545:CG:9894, V-A:GLU:543:CD:4908, V-A:ARG:545:CZ:4926, V-A:HIS:456:CE1:4069, V-A:LEU:475:CD1:4258, V-A:GLY:454:CA:4049, H-B:TYR:484:OH:9319, V-A:HIS:456:CG:4066, V-A:HIS:456:CD2:4068, V-A:HIS:456:CB:4065, V-A:ASP:473:CB:4239, H-B:LYS:547:NZ:9923, V-A:TYR:484:CD2:4344, V-A:GLU:543:CB:4906, V-A:TYR:484:CD1:4343, V-A:TYR:484:CG:4342, V-A:TYR:484:CB:4341, H-B:GLU:543:O:9875"]

$$$$
3aj_Grossjean_2025
     RDKit          3D

 28 30  0  0  0  0  0  0  0  0999 V2000
  130.1760  124.4360   68.8920 N   0  0  0  0  0  0  0  0  0  0  0  0
  129.5470  125.2030   68.2970 C   0  0  0  0  0  0  0  0  0  0  0  0
  128.7520  126.1740   67.5400 C   0  0  0  0  0  0  0  0  0  0  0  0
  129.1180  126.5370   66.2200 C   0  0  0  0  0  0  0  0  0  0  0  0
  130.3250  125.9160   65.4910 C   0  0  0  0  0  0  0  0  0  0  0  0
  130.2000  124.5990   65.3140 F   0  0  0  0  0  0  0  0  0  0  0  0
  130.4660  126.4730   64.2880 F   0  0  0  0  0  0  0  0  0  0  0  0
  131.4380  126.1200   66.1950 F   0  0  0  0  0  0  0  0  0  0  0  0
  128.3510  127.5070   65.5560 C   0  0  0  0  0  0  0  0  0  0  0  0
  127.2550  128.1000   66.1910 C   0  0  0  0  0  0  0  0  0  0  0  0
  126.4100  129.1460   65.5310 C   0  0  0  0  0  0  0  0  0  0  0  0
  125.0420  129.2520   65.8260 C   0  0  0  0  0  0  0  0  0  0  0  0
  124.2510  130.2250   65.2190 C   0  0  0  0  0  0  0  0  0  0  0  0
  124.8210  131.1070   64.3060 C   0  0  0  0  0  0  0  0  0  0  0  0
  126.1750  131.0230   63.9980 C   0  0  0  0  0  0  0  0  0  0  0  0
  126.9610  130.0510   64.6080 C   0  0  0  0  0  0  0  0  0  0  0  0
  126.9130  127.7540   67.4580 N   0  0  0  0  0  0  0  0  0  0  0  0
  127.6230  126.8030   68.1120 C   0  0  0  0  0  0  0  0  0  0  0  0
  127.0160  126.4650   69.7510 S   0  0  0  0  0  0  0  0  0  0  0  0
  128.2490  127.0880   70.9430 C   0  0  0  0  0  0  0  0  0  0  0  0
  128.7410  126.0550   71.9680 C   0  0  0  0  0  0  0  0  0  0  0  0
  128.4000  126.1280   73.1510 O   0  0  0  0  0  0  0  0  0  0  0  0
  129.5490  125.0980   71.4610 N   0  0  0  0  0  0  0  0  0  0  0  0
  130.1250  124.0440   72.1580 C   0  0  0  0  0  0  0  0  0  0  0  0
  129.9140  122.7560   71.9950 N   0  0  0  0  0  0  0  0  0  0  0  0
  130.6370  122.0360   72.8300 C   0  0  0  0  0  0  0  0  0  0  0  0
  131.4610  122.7460   73.7010 C   0  0  0  0  0  0  0  0  0  0  0  0
  131.2680  124.4460   73.4000 S   0  0  0  0  0  0  0  0  0  0  0  0
  1  2  3  0
  2  3  1  0
  3  4  2  0
  4  5  1  0
  5  6  1  0
  5  7  1  0
  5  8  1  0
  4  9  1  0
  9 10  2  0
 10 11  1  0
 11 12  2  0
 12 13  1  0
 13 14  2  0
 14 15  1  0
 15 16  2  0
 10 17  1  0
 17 18  2  0
 18 19  1  0
 19 20  1  0
 20 21  1  0
 21 22  2  0
 21 23  1  0
 23 24  1  0
 24 25  2  0
 25 26  1  0
 26 27  2  0
 27 28  1  0
 18  3  1  0
 28 24  1  0
 16 11  1  0
M  END
>  <Binding energies>  (30) 
[-7.14]

>  <Ligand effiencies>  (30) 
[-0.24620689655172412]

>  <Interactions>  (30) 
["V-B:ARG:545:CD:9895, V-B:GLU:543:C:9874, V-B:GLU:543:CB:9878, V-B:HIS:456:CE1:9040, V-B:GLU:543:CD:9880, V-B:ARG:545:CG:9894, V-A:GLU:543:CD:4908, V-B:ARG:545:CZ:9898, V-B:GLY:454:CA:9020, H-A:TYR:484:OH:4348, V-A:HIS:456:CE1:4069, V-A:TYR:484:CE1:4345, V-A:TYR:484:CZ:4347, V-A:HIS:456:CG:4066, H-A:HIS:456:NE2:4070, V-A:HIS:456:CD2:4068, V-A:HIS:456:CB:4065, V-A:ASP:473:CB:4239, V-A:ASP:473:CG:4240, H-B:LYS:547:NZ:9923, V-A:TYR:484:CD2:4344, V-A:TYR:484:CG:4342, V-A:TYR:484:CB:4341, H-B:GLU:543:O:9875, H-B:ARG:545:N:9892"]

$$$$
3ak_Grossjean_2025
     RDKit          3D

 33 34  0  0  0  0  0  0  0  0999 V2000
  125.0190  122.3900   56.3220 C   0  0  0  0  0  0  0  0  0  0  0  0
  126.3860  122.3800   55.9410 O   0  0  0  0  0  0  0  0  0  0  0  0
  126.8890  123.6650   55.6080 C   0  0  0  0  0  0  0  0  0  0  0  0
  128.0550  123.5060   54.6240 C   0  0  0  0  0  0  0  0  0  0  0  0
  128.3470  124.7730   54.0440 O   0  0  0  0  0  0  0  0  0  0  0  0
  129.5930  125.3510   54.4260 C   0  0  0  0  0  0  0  0  0  0  0  0
  129.5570  126.0530   55.7960 C   0  0  0  0  0  0  0  0  0  0  0  0
  129.4380  125.0750   56.8190 O   0  0  0  0  0  0  0  0  0  0  0  0
  130.0010  125.4700   58.0630 C   0  0  0  0  0  0  0  0  0  0  0  0
  131.5380  125.4570   57.9780 C   0  0  0  0  0  0  0  0  0  0  0  0
  132.1750  124.6550   59.0250 N   0  0  0  0  0  0  0  0  0  0  0  0
  133.1790  123.7750   58.8450 C   0  0  0  0  0  0  0  0  0  0  0  0
  133.6900  123.5620   57.7450 O   0  0  0  0  0  0  0  0  0  0  0  0
  133.7120  123.0010   60.0620 C   0  0  0  0  0  0  0  0  0  0  0  0
  133.8290  123.9300   61.6360 S   0  0  0  0  0  0  0  0  0  0  0  0
  132.1900  124.0920   62.3290 C   0  0  0  0  0  0  0  0  0  0  0  0
  131.1660  123.8540   61.4730 N   0  0  0  0  0  0  0  0  0  0  0  0
  129.8830  123.9580   61.9050 C   0  0  0  0  0  0  0  0  0  0  0  0
  128.8130  123.6760   60.8920 C   0  0  0  0  0  0  0  0  0  0  0  0
  128.9610  122.6350   59.9630 C   0  0  0  0  0  0  0  0  0  0  0  0
  127.9690  122.3660   59.0240 C   0  0  0  0  0  0  0  0  0  0  0  0
  126.8120  123.1370   59.0020 C   0  0  0  0  0  0  0  0  0  0  0  0
  126.6390  124.1730   59.9130 C   0  0  0  0  0  0  0  0  0  0  0  0
  127.6320  124.4390   60.8520 C   0  0  0  0  0  0  0  0  0  0  0  0
  129.5990  124.2940   63.2330 C   0  0  0  0  0  0  0  0  0  0  0  0
  130.6390  124.5440   64.1390 C   0  0  0  0  0  0  0  0  0  0  0  0
  130.2870  124.9140   65.5930 C   0  0  0  0  0  0  0  0  0  0  0  0
  129.1620  125.6290   65.6220 F   0  0  0  0  0  0  0  0  0  0  0  0
  130.1150  123.8080   66.3170 F   0  0  0  0  0  0  0  0  0  0  0  0
  131.2380  125.6380   66.1880 F   0  0  0  0  0  0  0  0  0  0  0  0
  131.9750  124.4440   63.6790 C   0  0  0  0  0  0  0  0  0  0  0  0
  133.1030  124.6940   64.5810 C   0  0  0  0  0  0  0  0  0  0  0  0
  133.9950  124.8930   65.2930 N   0  0  0  0  0  0  0  0  0  0  0  0
  1  2  1  0
  2  3  1  0
  3  4  1  0
  4  5  1  0
  5  6  1  0
  6  7  1  0
  7  8  1  0
  8  9  1  0
  9 10  1  0
 10 11  1  0
 11 12  1  0
 12 13  2  0
 12 14  1  0
 14 15  1  0
 15 16  1  0
 16 17  2  0
 17 18  1  0
 18 19  1  0
 19 20  2  0
 20 21  1  0
 21 22  2  0
 22 23  1  0
 23 24  2  0
 18 25  2  0
 25 26  1  0
 26 27  1  0
 27 28  1  0
 27 29  1  0
 27 30  1  0
 26 31  2  0
 31 32  1  0
 32 33  3  0
 31 16  1  0
 24 19  1  0
M  END
>  <Binding energies>  (31) 
[-6.24]

>  <Ligand effiencies>  (31) 
[-0.18352941176470589]

>  <Interactions>  (31) 
["V-B:GLU:543:CB:9878, V-A:ASP:366:CG:3213, V-B:GLU:543:CD:9880, V-A:ASP:366:CB:3212, V-A:ARG:545:CZ:4926, V-B:TYR:539:CZ:9849, V-A:MET:535:CE:4835, H-A:TYR:484:OH:4348, V-A:HIS:456:CE1:4069, H-A:ARG:545:NE:4924, V-B:TYR:539:CE1:9847, V-B:GLU:543:CG:9879, V-A:TYR:484:CE1:4345, V-B:PRO:540:N:9856, V-A:TYR:484:CZ:4347, H-A:GLY:454:N:4050, V-B:TYR:539:CD2:9846, V-B:PRO:540:CA:9855, V-B:TYR:539:C:9839, V-B:TYR:539:CE2:9848, V-A:ILE:369:CD1:3239, V-A:ILE:369:CG2:3237, V-B:PRO:540:CD:9859, V-B:PRO:540:CB:9857, V-B:GLU:543:CA:9876, V-B:LEU:363:CD1:8160, V-B:ILE:538:CB:9834, V-B:TYR:539:CD1:9845, V-B:ILE:538:CG2:9835, H-B:TYR:539:N:9842, H-B:TYR:539:OH:9850, V-A:ILE:369:CB:3236, V-B:PRO:540:CG:9858"]

$$$$
3bk_Grossjean_2025
     RDKit          3D

 30 31  0  0  0  0  0  0  0  0999 V2000
  129.8870  132.6430   54.3460 C   0  0  0  0  0  0  0  0  0  0  0  0
  130.9720  133.1990   55.0730 O   0  0  0  0  0  0  0  0  0  0  0  0
  132.1070  132.3470   55.1380 C   0  0  0  0  0  0  0  0  0  0  0  0
  132.4130  132.0060   56.6030 C   0  0  0  0  0  0  0  0  0  0  0  0
  131.2210  131.5770   57.2450 O   0  0  0  0  0  0  0  0  0  0  0  0
  131.1200  130.1660   57.3870 C   0  0  0  0  0  0  0  0  0  0  0  0
  130.2310  129.6060   56.2700 C   0  0  0  0  0  0  0  0  0  0  0  0
  129.2700  128.7210   56.8300 O   0  0  0  0  0  0  0  0  0  0  0  0
  129.1090  127.5110   56.1010 C   0  0  0  0  0  0  0  0  0  0  0  0
  128.1930  127.7600   54.8940 C   0  0  0  0  0  0  0  0  0  0  0  0
  127.5560  126.5310   54.4150 N   0  0  0  0  0  0  0  0  0  0  0  0
  128.1950  125.3910   54.1040 C   0  0  0  0  0  0  0  0  0  0  0  0
  129.4140  125.2410   54.2060 O   0  0  0  0  0  0  0  0  0  0  0  0
  127.3220  124.2290   53.6250 C   0  0  0  0  0  0  0  0  0  0  0  0
  127.5870  122.7240   54.6170 S   0  0  0  0  0  0  0  0  0  0  0  0
  127.0810  123.0400   56.2990 C   0  0  0  0  0  0  0  0  0  0  0  0
  127.9960  122.7520   57.2580 N   0  0  0  0  0  0  0  0  0  0  0  0
  127.6960  122.9570   58.5680 C   0  0  0  0  0  0  0  0  0  0  0  0
  128.7710  122.6320   59.5610 C   0  0  0  0  0  0  0  0  0  0  0  0
  129.7870  123.5570   59.8480 C   0  0  0  0  0  0  0  0  0  0  0  0
  130.7910  123.2580   60.7660 C   0  0  0  0  0  0  0  0  0  0  0  0
  130.7930  122.0260   61.4110 C   0  0  0  0  0  0  0  0  0  0  0  0
  129.7950  121.0920   61.1470 C   0  0  0  0  0  0  0  0  0  0  0  0
  128.7920  121.3960   60.2300 C   0  0  0  0  0  0  0  0  0  0  0  0
  126.4510  123.4720   58.9470 C   0  0  0  0  0  0  0  0  0  0  0  0
  125.4950  123.7740   57.9710 C   0  0  0  0  0  0  0  0  0  0  0  0
  124.1490  124.3330   58.4280 C   0  0  0  0  0  0  0  0  0  0  0  0
  125.8050  123.5580   56.6120 C   0  0  0  0  0  0  0  0  0  0  0  0
  124.8240  123.8670   55.5670 C   0  0  0  0  0  0  0  0  0  0  0  0
  124.0490  124.1110   54.7430 N   0  0  0  0  0  0  0  0  0  0  0  0
  1  2  1  0
  2  3  1  0
  3  4  1  0
  4  5  1  0
  5  6  1  0
  6  7  1  0
  7  8  1  0
  8  9  1  0
  9 10  1  0
 10 11  1  0
 11 12  1  0
 12 13  2  0
 12 14  1  0
 14 15  1  0
 15 16  1  0
 16 17  2  0
 17 18  1  0
 18 19  1  0
 19 20  2  0
 20 21  1  0
 21 22  2  0
 22 23  1  0
 23 24  2  0
 18 25  2  0
 25 26  1  0
 26 27  1  0
 26 28  2  0
 28 29  1  0
 29 30  3  0
 28 16  1  0
 24 19  1  0
M  END
>  <Binding energies>  (32) 
[-7.11]

>  <Ligand effiencies>  (32) 
[-0.22935483870967743]

>  <Interactions>  (32) 
["V-A:PRO:540:CB:4885, V-A:PRO:540:CA:4883, V-A:TYR:539:CD1:4873, V-A:ILE:538:CD1:4865, V-A:TYR:539:CE1:4875, V-A:TYR:531:CE2:4793, V-A:PRO:540:N:4884, V-A:MET:535:CE:4835, V-B:ALA:541:CB:9864, V-B:PRO:540:N:9856, V-B:TYR:539:CD2:9846, V-B:PRO:540:CA:9855, V-B:TYR:539:C:9839, V-B:TYR:539:CE2:9848, V-B:PRO:540:C:9853, V-A:ILE:538:CA:4860, V-A:PRO:540:CD:4887, H-A:TYR:539:N:4870, V-A:ILE:538:CG2:4863, V-A:LEU:363:CD1:3189, V-B:PRO:540:CB:9857, V-B:LEU:363:CD1:8160, V-B:TYR:531:CE2:9765, V-B:ILE:538:CB:9834, V-B:MET:535:CG:9805, V-B:ILE:538:CG2:9835, H-B:TYR:539:N:9842, V-B:MET:535:CB:9804, H-B:TYR:539:OH:9850, V-A:PRO:540:CG:4886, H-B:TYR:531:OH:9767, H-B:MET:535:SD:9806"]

$$$$
3cb_Grossjean_2025
     RDKit          3D

 30 32  0  0  0  0  0  0  0  0999 V2000
  132.0890  132.6360   55.5940 C   0  0  0  0  0  0  0  0  0  0  0  0
  131.0740  133.2090   56.4070 O   0  0  0  0  0  0  0  0  0  0  0  0
  129.9370  132.5240   56.6920 C   0  0  0  0  0  0  0  0  0  0  0  0
  129.1080  132.1970   55.8380 O   0  0  0  0  0  0  0  0  0  0  0  0
  129.7870  132.2060   58.1520 C   0  0  0  0  0  0  0  0  0  0  0  0
  128.7180  132.6990   58.9150 C   0  0  0  0  0  0  0  0  0  0  0  0
  128.6060  132.3830   60.2660 C   0  0  0  0  0  0  0  0  0  0  0  0
  129.5600  131.5730   60.8840 C   0  0  0  0  0  0  0  0  0  0  0  0
  129.3470  131.3140   62.2530 N   0  0  0  0  0  0  0  0  0  0  0  0
  128.2040  131.0400   62.9180 C   0  0  0  0  0  0  0  0  0  0  0  0
  127.0910  130.9480   62.3980 O   0  0  0  0  0  0  0  0  0  0  0  0
  128.3820  130.8210   64.4280 C   0  0  0  0  0  0  0  0  0  0  0  0
  127.2610  129.5810   65.1630 S   0  0  0  0  0  0  0  0  0  0  0  0
  128.2640  128.3520   65.9710 C   0  0  0  0  0  0  0  0  0  0  0  0
  128.3520  128.5250   67.3130 N   0  0  0  0  0  0  0  0  0  0  0  0
  129.0890  127.6490   68.0320 C   0  0  0  0  0  0  0  0  0  0  0  0
  129.1330  127.8970   69.5280 C   0  0  0  0  0  0  0  0  0  0  0  0
  129.7640  126.5810   67.4490 C   0  0  0  0  0  0  0  0  0  0  0  0
  129.7010  126.3920   66.0620 C   0  0  0  0  0  0  0  0  0  0  0  0
  130.4480  125.2340   65.4840 C   0  0  0  0  0  0  0  0  0  0  0  0
  129.8190  123.9900   65.3400 C   0  0  0  0  0  0  0  0  0  0  0  0
  130.5030  122.9080   64.7920 C   0  0  0  0  0  0  0  0  0  0  0  0
  131.8230  123.0670   64.3800 C   0  0  0  0  0  0  0  0  0  0  0  0
  132.4620  124.2970   64.5080 C   0  0  0  0  0  0  0  0  0  0  0  0
  131.7740  125.3770   65.0550 C   0  0  0  0  0  0  0  0  0  0  0  0
  128.9420  127.3100   65.2910 C   0  0  0  0  0  0  0  0  0  0  0  0
  128.9170  127.2160   63.8280 C   0  0  0  0  0  0  0  0  0  0  0  0
  128.8960  127.1410   62.6740 N   0  0  0  0  0  0  0  0  0  0  0  0
  130.6300  131.0720   60.1280 C   0  0  0  0  0  0  0  0  0  0  0  0
  130.7400  131.3890   58.7760 C   0  0  0  0  0  0  0  0  0  0  0  0
  1  2  1  0
  2  3  1  0
  3  4  2  0
  3  5  1  0
  5  6  2  0
  6  7  1  0
  7  8  2  0
  8  9  1  0
  9 10  1  0
 10 11  2  0
 10 12  1  0
 12 13  1  0
 13 14  1  0
 14 15  2  0
 15 16  1  0
 16 17  1  0
 16 18  2  0
 18 19  1  0
 19 20  1  0
 20 21  2  0
 21 22  1  0
 22 23  2  0
 23 24  1  0
 24 25  2  0
 19 26  2  0
 26 27  1  0
 27 28  3  0
  8 29  1  0
 29 30  2  0
 30  5  1  0
 26 14  1  0
 25 20  1  0
M  END
>  <Binding energies>  (33) 
[-8.19]

>  <Ligand effiencies>  (33) 
[-0.26419354838709674]

>  <Interactions>  (33) 
["V-A:PRO:540:CB:4885, V-A:ALA:541:CB:4892, V-B:GLU:543:CB:9878, V-B:HIS:456:CE1:9040, H-A:GLU:543:OE1:4909, V-A:PRO:540:CA:4883, V-B:GLU:543:CD:9880, V-A:GLU:543:CD:4908, V-A:TYR:539:CD1:4873, V-A:TYR:539:CD2:4874, V-A:TYR:539:CE2:4876, V-A:ILE:538:CD1:4865, V-A:TYR:539:CG:4872, V-A:TYR:539:CE1:4875, V-A:TYR:539:C:4867, V-A:PRO:540:N:4884, V-A:HIS:456:CE1:4069, V-B:GLU:543:CG:9879, V-A:LEU:475:CD1:4258, V-A:TYR:484:CE1:4345, V-A:TYR:484:CZ:4347, V-A:ILE:538:CA:4860, V-A:PRO:540:CD:4887, H-A:TYR:539:N:4870, V-A:ILE:538:CG2:4863, V-A:LEU:363:CD1:3189, H-B:TYR:484:OH:9319, V-B:GLU:543:CA:9876, V-A:GLU:543:CB:4906"]

$$$$
3ch_Grossjean_2025
     RDKit          3D

 32 34  0  0  0  0  0  0  0  0999 V2000
  131.4130  122.8990   72.4540 C   0  0  0  0  0  0  0  0  0  0  0  0
  130.3170  123.7080   72.8670 O   0  0  0  0  0  0  0  0  0  0  0  0
  129.7400  124.5870   71.9670 C   0  0  0  0  0  0  0  0  0  0  0  0
  129.8650  124.4770   70.5730 C   0  0  0  0  0  0  0  0  0  0  0  0
  129.2430  125.4010   69.7210 C   0  0  0  0  0  0  0  0  0  0  0  0
  129.3070  125.3710   68.3140 N   0  0  0  0  0  0  0  0  0  0  0  0
  129.6360  126.3500   67.4440 C   0  0  0  0  0  0  0  0  0  0  0  0
  129.9670  127.4960   67.7500 O   0  0  0  0  0  0  0  0  0  0  0  0
  129.6240  125.9520   65.9690 C   0  0  0  0  0  0  0  0  0  0  0  0
  130.1000  124.2160   65.7220 S   0  0  0  0  0  0  0  0  0  0  0  0
  130.1590  123.9650   63.9610 C   0  0  0  0  0  0  0  0  0  0  0  0
  128.9530  123.6950   63.4040 N   0  0  0  0  0  0  0  0  0  0  0  0
  128.8910  123.4810   62.0700 C   0  0  0  0  0  0  0  0  0  0  0  0
  127.5140  123.1780   61.5130 C   0  0  0  0  0  0  0  0  0  0  0  0
  130.0160  123.5250   61.2490 C   0  0  0  0  0  0  0  0  0  0  0  0
  131.2710  123.8110   61.8060 C   0  0  0  0  0  0  0  0  0  0  0  0
  132.4500  123.8390   60.8880 C   0  0  0  0  0  0  0  0  0  0  0  0
  132.2910  124.2110   59.5480 C   0  0  0  0  0  0  0  0  0  0  0  0
  133.3840  124.2310   58.6860 C   0  0  0  0  0  0  0  0  0  0  0  0
  134.6430  123.8740   59.1610 C   0  0  0  0  0  0  0  0  0  0  0  0
  134.8180  123.4950   60.4890 C   0  0  0  0  0  0  0  0  0  0  0  0
  133.7220  123.4750   61.3490 C   0  0  0  0  0  0  0  0  0  0  0  0
  131.3490  124.0570   63.2010 C   0  0  0  0  0  0  0  0  0  0  0  0
  132.6170  124.4530   63.8200 C   0  0  0  0  0  0  0  0  0  0  0  0
  133.6180  124.7640   64.3100 N   0  0  0  0  0  0  0  0  0  0  0  0
  128.5100  126.4510   70.2760 C   0  0  0  0  0  0  0  0  0  0  0  0
  128.3720  126.5830   71.6660 C   0  0  0  0  0  0  0  0  0  0  0  0
  127.6530  127.5950   72.2790 O   0  0  0  0  0  0  0  0  0  0  0  0
  126.4930  127.2700   73.0380 C   0  0  0  0  0  0  0  0  0  0  0  0
  128.9940  125.6460   72.5010 C   0  0  0  0  0  0  0  0  0  0  0  0
  128.8530  125.7540   73.8640 O   0  0  0  0  0  0  0  0  0  0  0  0
  130.0320  126.1710   74.5380 C   0  0  0  0  0  0  0  0  0  0  0  0
  1  2  1  0
  2  3  1  0
  3  4  2  0
  4  5  1  0
  5  6  1  0
  6  7  1  0
  7  8  2  0
  7  9  1  0
  9 10  1  0
 10 11  1  0
 11 12  2  0
 12 13  1  0
 13 14  1  0
 13 15  2  0
 15 16  1  0
 16 17  1  0
 17 18  2  0
 18 19  1  0
 19 20  2  0
 20 21  1  0
 21 22  2  0
 16 23  2  0
 23 24  1  0
 24 25  3  0
  5 26  2  0
 26 27  1  0
 27 28  1  0
 28 29  1  0
 27 30  2  0
 30 31  1  0
 31 32  1  0
 30  3  1  0
 23 11  1  0
 22 17  1  0
M  END
>  <Binding energies>  (34) 
[-7.96]

>  <Ligand effiencies>  (34) 
[-0.2412121212121212]

>  <Interactions>  (34) 
["V-B:GLU:543:C:9874, V-B:HIS:456:CE1:9040, V-A:ASP:366:CG:3213, V-B:GLU:543:CD:9880, V-A:ASP:366:CB:3212, V-B:ALA:541:CB:9864, H-A:TYR:484:OH:4348, V-A:HIS:456:CE1:4069, H-A:ARG:545:NE:4924, V-B:GLU:543:CG:9879, V-A:TYR:484:CE1:4345, V-A:TYR:484:CZ:4347, H-A:GLY:454:N:4050, H-A:ARG:545:NH2:4928, V-B:TYR:539:CE2:9848, V-A:ILE:369:CD1:3239, V-A:ILE:369:CG2:3237, V-A:HIS:456:CG:4066, H-A:HIS:456:NE2:4070, V-A:HIS:456:CD2:4068, V-A:HIS:456:CB:4065, V-A:ASP:473:CB:4239, H-B:LYS:547:NZ:9923, H-B:HIS:456:NE2:9041, V-B:HIS:456:CD2:9039, V-B:HIS:456:CG:9037, V-B:HIS:456:CB:9036, V-A:TYR:484:CD2:4344, V-A:TYR:484:CG:4342, V-A:TYR:484:CE2:4346, V-A:ASP:366:C:3208, V-A:ILE:369:CB:3236, V-A:ASP:366:CA:3210, H-B:GLU:543:O:9875, V-A:ILE:369:CG1:3238"]

$$$$
3ci_Grossjean_2025
     RDKit          3D

 25 27  0  0  0  0  0  0  0  0999 V2000
  130.8890  125.7030   65.9880 C   0  0  0  0  0  0  0  0  0  0  0  0
  129.5810  126.4330   66.2320 C   0  0  0  0  0  0  0  0  0  0  0  0
  129.1110  127.4050   65.3540 C   0  0  0  0  0  0  0  0  0  0  0  0
  127.8880  128.0400   65.6140 C   0  0  0  0  0  0  0  0  0  0  0  0
  127.4160  129.0650   64.6360 C   0  0  0  0  0  0  0  0  0  0  0  0
  127.8030  130.4060   64.7590 C   0  0  0  0  0  0  0  0  0  0  0  0
  127.3530  131.3590   63.8500 C   0  0  0  0  0  0  0  0  0  0  0  0
  126.5060  130.9760   62.8140 C   0  0  0  0  0  0  0  0  0  0  0  0
  126.1050  129.6500   62.6820 C   0  0  0  0  0  0  0  0  0  0  0  0
  126.5570  128.6990   63.5920 C   0  0  0  0  0  0  0  0  0  0  0  0
  127.1730  127.6720   66.7820 C   0  0  0  0  0  0  0  0  0  0  0  0
  125.9100  128.3330   67.1280 C   0  0  0  0  0  0  0  0  0  0  0  0
  124.9130  128.8550   67.4000 N   0  0  0  0  0  0  0  0  0  0  0  0
  127.7210  126.6700   67.6190 C   0  0  0  0  0  0  0  0  0  0  0  0
  126.8940  126.1150   69.1040 S   0  0  0  0  0  0  0  0  0  0  0  0
  127.7230  126.8250   70.5630 C   0  0  0  0  0  0  0  0  0  0  0  0
  128.2970  125.7670   71.5120 C   0  0  0  0  0  0  0  0  0  0  0  0
  128.1840  125.9250   72.7300 O   0  0  0  0  0  0  0  0  0  0  0  0
  128.9120  124.7200   70.9200 N   0  0  0  0  0  0  0  0  0  0  0  0
  129.4870  123.6200   71.5430 C   0  0  0  0  0  0  0  0  0  0  0  0
  130.7310  123.6660   72.1700 C   0  0  0  0  0  0  0  0  0  0  0  0
  130.9370  122.3920   72.6500 C   0  0  0  0  0  0  0  0  0  0  0  0
  129.8710  121.6210   72.3290 O   0  0  0  0  0  0  0  0  0  0  0  0
  128.9590  122.4100   71.6260 N   0  0  0  0  0  0  0  0  0  0  0  0
  128.9080  126.0700   67.3460 N   0  0  0  0  0  0  0  0  0  0  0  0
  1  2  1  0
  2  3  2  0
  3  4  1  0
  4  5  1  0
  5  6  2  0
  6  7  1  0
  7  8  2  0
  8  9  1  0
  9 10  2  0
  4 11  2  0
 11 12  1  0
 12 13  3  0
 11 14  1  0
 14 15  1  0
 15 16  1  0
 16 17  1  0
 17 18  2  0
 17 19  1  0
 19 20  1  0
 20 21  1  0
 21 22  2  0
 22 23  1  0
 23 24  1  0
 14 25  2  0
 25  2  1  0
 10  5  1  0
 24 20  2  0
M  END
>  <Binding energies>  (35) 
[-8.23]

>  <Ligand effiencies>  (35) 
[-0.31653846153846155]

>  <Interactions>  (35) 
["V-B:GLU:543:C:9874, V-B:GLU:543:CB:9878, V-B:GLY:544:C:9884, V-B:HIS:456:CE1:9040, V-B:GLU:543:CD:9880, V-B:ARG:545:CG:9894, V-A:GLU:543:CD:4908, V-A:HIS:456:CE1:4069, H-B:TYR:484:OH:9319, V-A:HIS:456:CG:4066, V-A:HIS:456:CD2:4068, V-A:HIS:456:CB:4065, V-A:ASP:473:CB:4239, H-B:LYS:547:NZ:9923, V-A:TYR:484:CD2:4344, V-A:GLU:543:CB:4906, V-A:TYR:484:CG:4342, V-A:TYR:484:CB:4341, H-B:ARG:545:NE:9896, V-A:TYR:484:CE2:4346, V-B:GLY:544:CA:9886, H-B:GLU:543:O:9875, H-B:ARG:545:N:9892"]

$$$$
3ck_Grossjean_2025
     RDKit          3D

 30 31  0  0  0  0  0  0  0  0999 V2000
  130.5780  132.5010   54.2050 C   0  0  0  0  0  0  0  0  0  0  0  0
  130.6020  133.2490   55.4100 O   0  0  0  0  0  0  0  0  0  0  0  0
  130.9630  132.4780   56.5480 C   0  0  0  0  0  0  0  0  0  0  0  0
  132.2960  131.7670   56.2840 C   0  0  0  0  0  0  0  0  0  0  0  0
  132.6270  130.9570   57.4050 O   0  0  0  0  0  0  0  0  0  0  0  0
  131.7240  129.8810   57.6260 C   0  0  0  0  0  0  0  0  0  0  0  0
  132.4550  128.5560   57.3780 C   0  0  0  0  0  0  0  0  0  0  0  0
  131.4830  127.5370   57.1950 O   0  0  0  0  0  0  0  0  0  0  0  0
  131.9950  126.2130   57.2280 C   0  0  0  0  0  0  0  0  0  0  0  0
  131.4170  125.4670   58.4450 C   0  0  0  0  0  0  0  0  0  0  0  0
  132.4390  124.9120   59.3370 N   0  0  0  0  0  0  0  0  0  0  0  0
  133.3620  123.9940   58.9970 C   0  0  0  0  0  0  0  0  0  0  0  0
  133.4660  123.5290   57.8600 O   0  0  0  0  0  0  0  0  0  0  0  0
  134.3060  123.5530   60.1280 C   0  0  0  0  0  0  0  0  0  0  0  0
  133.6930  122.1840   61.1690 S   0  0  0  0  0  0  0  0  0  0  0  0
  132.0270  122.5520   61.6990 C   0  0  0  0  0  0  0  0  0  0  0  0
  131.0390  122.0260   60.9330 N   0  0  0  0  0  0  0  0  0  0  0  0
  129.7530  122.2670   61.2730 C   0  0  0  0  0  0  0  0  0  0  0  0
  128.7050  121.6490   60.3690 C   0  0  0  0  0  0  0  0  0  0  0  0
  129.4010  123.0380   62.3790 C   0  0  0  0  0  0  0  0  0  0  0  0
  130.4050  123.5970   63.1810 C   0  0  0  0  0  0  0  0  0  0  0  0
  129.9810  124.4340   64.3420 C   0  0  0  0  0  0  0  0  0  0  0  0
  129.7060  125.7960   64.1640 C   0  0  0  0  0  0  0  0  0  0  0  0
  129.3200  126.5850   65.2460 C   0  0  0  0  0  0  0  0  0  0  0  0
  129.2140  126.0160   66.5110 C   0  0  0  0  0  0  0  0  0  0  0  0
  129.4930  124.6650   66.7060 C   0  0  0  0  0  0  0  0  0  0  0  0
  129.8780  123.8790   65.6240 C   0  0  0  0  0  0  0  0  0  0  0  0
  131.7590  123.3400   62.8420 C   0  0  0  0  0  0  0  0  0  0  0  0
  132.8510  123.8660   63.6700 C   0  0  0  0  0  0  0  0  0  0  0  0
  133.7120  124.2790   64.3230 N   0  0  0  0  0  0  0  0  0  0  0  0
  1  2  1  0
  2  3  1  0
  3  4  1  0
  4  5  1  0
  5  6  1  0
  6  7  1  0
  7  8  1  0
  8  9  1  0
  9 10  1  0
 10 11  1  0
 11 12  1  0
 12 13  2  0
 12 14  1  0
 14 15  1  0
 15 16  1  0
 16 17  2  0
 17 18  1  0
 18 19  1  0
 18 20  2  0
 20 21  1  0
 21 22  1  0
 22 23  2  0
 23 24  1  0
 24 25  2  0
 25 26  1  0
 26 27  2  0
 21 28  2  0
 28 29  1  0
 29 30  3  0
 28 16  1  0
 27 22  1  0
M  END
>  <Binding energies>  (36) 
[-7.21]

>  <Ligand effiencies>  (36) 
[-0.23258064516129032]

>  <Interactions>  (36) 
["V-A:PRO:540:CB:4885, V-B:GLU:543:C:9874, V-B:GLU:543:CB:9878, V-A:ASP:366:CG:3213, V-A:PRO:540:CA:4883, V-A:GLU:543:CD:4908, V-A:ILE:538:CD1:4865, V-A:TYR:539:C:4867, V-A:ASP:366:CB:3212, V-A:PRO:540:N:4884, V-A:TYR:531:CZ:4794, V-B:ALA:541:CB:9864, H-A:TYR:484:OH:4348, V-B:GLU:543:CG:9879, V-A:TYR:484:CE1:4345, V-A:TYR:484:CZ:4347, H-A:GLY:454:N:4050, V-B:TYR:539:CD2:9846, V-B:PRO:540:CA:9855, V-B:TYR:539:C:9839, V-B:TYR:539:CE2:9848, V-B:PRO:540:C:9853, V-A:ILE:538:CA:4860, V-A:ILE:369:CD1:3239, V-A:PRO:540:CD:4887, H-A:TYR:539:N:4870, V-A:ILE:369:CG2:3237, V-A:LEU:363:CD1:3189, V-B:GLU:543:CA:9876, H-A:TYR:531:OH:4795, H-B:TYR:539:OH:9850, V-A:ILE:369:CB:3236, V-A:ASP:366:CA:3210, H-A:ASP:366:OD1:3214, H-A:ASP:366:OD2:3215"]

$$$$
4aa_Grossjean_2025
     RDKit          3D

 26 28  0  0  0  0  0  0  0  0999 V2000
  124.9960  126.9570   73.8350 C   0  0  0  0  0  0  0  0  0  0  0  0
  126.3330  126.6780   74.5290 C   0  0  0  0  0  0  0  0  0  0  0  0
  127.2470  126.1260   73.5910 O   0  0  0  0  0  0  0  0  0  0  0  0
  128.1350  126.9130   72.9300 C   0  0  0  0  0  0  0  0  0  0  0  0
  128.6260  127.9390   73.4130 O   0  0  0  0  0  0  0  0  0  0  0  0
  128.4580  126.4140   71.5520 C   0  0  0  0  0  0  0  0  0  0  0  0
  129.4360  125.4230   71.3940 C   0  0  0  0  0  0  0  0  0  0  0  0
  129.7620  124.9430   70.1280 C   0  0  0  0  0  0  0  0  0  0  0  0
  129.1120  125.4370   68.9960 C   0  0  0  0  0  0  0  0  0  0  0  0
  129.5250  124.8890   67.7670 N   0  0  0  0  0  0  0  0  0  0  0  0
  130.2410  125.4440   66.7590 C   0  0  0  0  0  0  0  0  0  0  0  0
  130.6320  126.6110   66.7500 O   0  0  0  0  0  0  0  0  0  0  0  0
  130.5170  124.5580   65.6270 C   0  0  0  0  0  0  0  0  0  0  0  0
  129.5060  123.1380   65.3400 S   0  0  0  0  0  0  0  0  0  0  0  0
  130.4730  122.6710   63.9590 C   0  0  0  0  0  0  0  0  0  0  0  0
  130.1970  121.5820   63.2410 N   0  0  0  0  0  0  0  0  0  0  0  0
  131.0270  121.3300   62.2000 C   0  0  0  0  0  0  0  0  0  0  0  0
  130.6990  120.0830   61.3990 C   0  0  0  0  0  0  0  0  0  0  0  0
  132.1120  122.1360   61.8600 C   0  0  0  0  0  0  0  0  0  0  0  0
  132.3970  123.2800   62.6150 C   0  0  0  0  0  0  0  0  0  0  0  0
  133.5910  124.1290   62.2050 C   0  0  0  0  0  0  0  0  0  0  0  0
  131.5520  123.5740   63.7180 C   0  0  0  0  0  0  0  0  0  0  0  0
  131.5560  124.6380   64.6870 C   0  0  0  0  0  0  0  0  0  0  0  0
  132.4990  125.6360   64.6730 N   0  0  0  0  0  0  0  0  0  0  0  0
  128.1360  126.4340   69.1430 C   0  0  0  0  0  0  0  0  0  0  0  0
  127.8140  126.9150   70.4100 C   0  0  0  0  0  0  0  0  0  0  0  0
  1  2  1  0
  2  3  1  0
  3  4  1  0
  4  5  2  0
  4  6  1  0
  6  7  2  0
  7  8  1  0
  8  9  2  0
  9 10  1  0
 10 11  1  0
 11 12  2  0
 11 13  1  0
 13 14  1  0
 14 15  1  0
 15 16  2  0
 16 17  1  0
 17 18  1  0
 17 19  2  0
 19 20  1  0
 20 21  1  0
 20 22  2  0
 22 23  1  0
 23 24  1  0
  9 25  1  0
 25 26  2  0
 26  6  1  0
 23 13  2  0
 22 15  1  0
M  END
>  <Binding energies>  (37) 
[-7.39]

>  <Ligand effiencies>  (37) 
[-0.25482758620689655]

>  <Interactions>  (37) 
["V-B:GLU:543:C:9874, V-B:GLU:543:CB:9878, V-B:GLY:544:C:9884, H-A:GLU:543:OE2:4910, V-B:HIS:456:CE1:9040, V-A:GLU:543:CD:4908, V-A:ARG:545:CZ:4926, V-B:ALA:541:CB:9864, H-A:TYR:484:OH:4348, V-A:HIS:456:CE1:4069, V-B:GLU:543:CG:9879, V-A:LEU:475:CD1:4258, V-A:TYR:484:CE1:4345, V-A:TYR:484:CZ:4347, V-A:HIS:456:CG:4066, H-A:HIS:456:NE2:4070, V-A:HIS:456:CD2:4068, H-A:LYS:547:NZ:4951, H-B:LYS:547:NZ:9923, V-B:GLU:543:CA:9876, V-B:HIS:456:CB:9036, V-B:LYS:547:CD:9921, V-B:LYS:547:CE:9922, H-B:GLU:543:O:9875, V-B:ARG:545:C:9889"]

$$$$
4ab_Grossjean_2025
     RDKit          3D

 25 27  0  0  0  0  0  0  0  0999 V2000
  127.1590  126.8200   67.9180 C   0  0  0  0  0  0  0  0  0  0  0  0
  127.5510  127.9970   67.2270 O   0  0  0  0  0  0  0  0  0  0  0  0
  126.6650  128.6880   66.4640 C   0  0  0  0  0  0  0  0  0  0  0  0
  125.4760  128.8330   66.7660 O   0  0  0  0  0  0  0  0  0  0  0  0
  127.2740  129.2510   65.2130 C   0  0  0  0  0  0  0  0  0  0  0  0
  127.5810  128.3870   64.1530 C   0  0  0  0  0  0  0  0  0  0  0  0
  128.1480  128.8790   62.9800 C   0  0  0  0  0  0  0  0  0  0  0  0
  128.4100  130.2420   62.8390 C   0  0  0  0  0  0  0  0  0  0  0  0
  128.9900  130.6280   61.6150 N   0  0  0  0  0  0  0  0  0  0  0  0
  130.0220  131.4710   61.3650 C   0  0  0  0  0  0  0  0  0  0  0  0
  130.6260  132.1030   62.2320 O   0  0  0  0  0  0  0  0  0  0  0  0
  130.3800  131.6160   59.9530 C   0  0  0  0  0  0  0  0  0  0  0  0
  129.3620  132.5670   58.8690 S   0  0  0  0  0  0  0  0  0  0  0  0
  130.3960  132.2070   57.5050 C   0  0  0  0  0  0  0  0  0  0  0  0
  130.1420  132.6770   56.2830 N   0  0  0  0  0  0  0  0  0  0  0  0
  131.0200  132.3210   55.3140 C   0  0  0  0  0  0  0  0  0  0  0  0
  130.7100  132.8620   53.9300 C   0  0  0  0  0  0  0  0  0  0  0  0
  132.1360  131.5180   55.5360 C   0  0  0  0  0  0  0  0  0  0  0  0
  132.4000  131.0260   56.8200 C   0  0  0  0  0  0  0  0  0  0  0  0
  133.6300  130.1520   57.0110 C   0  0  0  0  0  0  0  0  0  0  0  0
  131.4990  131.3740   57.8620 C   0  0  0  0  0  0  0  0  0  0  0  0
  131.4620  131.0470   59.2620 C   0  0  0  0  0  0  0  0  0  0  0  0
  132.4110  130.2520   59.8520 N   0  0  0  0  0  0  0  0  0  0  0  0
  128.1110  131.1140   63.8960 C   0  0  0  0  0  0  0  0  0  0  0  0
  127.5460  130.6200   65.0690 C   0  0  0  0  0  0  0  0  0  0  0  0
  1  2  1  0
  2  3  1  0
  3  4  2  0
  3  5  1  0
  5  6  2  0
  6  7  1  0
  7  8  2  0
  8  9  1  0
  9 10  1  0
 10 11  2  0
 10 12  1  0
 12 13  1  0
 13 14  1  0
 14 15  2  0
 15 16  1  0
 16 17  1  0
 16 18  2  0
 18 19  1  0
 19 20  1  0
 19 21  2  0
 21 22  1  0
 22 23  1  0
  8 24  1  0
 24 25  2  0
 25  5  1  0
 22 12  2  0
 21 14  1  0
M  END
>  <Binding energies>  (38) 
[-7.56]

>  <Ligand effiencies>  (38) 
[-0.26999999999999996]

>  <Interactions>  (38) 
["V-A:PRO:540:CB:4885, V-B:GLU:543:CB:9878, V-A:LEU:363:CA:3185, V-B:HIS:456:CE1:9040, H-A:GLU:543:OE1:4909, V-A:ASP:366:CG:3213, V-A:PRO:540:CA:4883, V-B:GLU:543:CD:9880, V-A:ILE:538:CD1:4865, V-A:TYR:539:C:4867, V-A:ASP:366:CB:3212, V-A:TYR:531:CE2:4793, V-A:PRO:540:N:4884, V-A:TYR:531:CZ:4794, V-A:ILE:538:CA:4860, H-A:TYR:539:N:4870, V-A:LEU:363:CD1:3189, H-B:TYR:484:OH:9319, V-A:GLU:543:CB:4906, H-B:ARG:545:NE:9896, V-B:TYR:484:CZ:9318, V-A:ILE:538:C:4858, H-A:ALA:541:N:4891, H-A:ASP:366:OD1:3214, V-A:ILE:538:CB:4862, V-A:VAL:537:C:4850"]

$$$$
4ac_Grossjean_2025
     RDKit          3D

 23 25  0  0  0  0  0  0  0  0999 V2000
  124.1900  129.5060   66.6210 C   0  0  0  0  0  0  0  0  0  0  0  0
  123.9410  130.2980   65.4630 O   0  0  0  0  0  0  0  0  0  0  0  0
  124.9450  130.4600   64.5290 C   0  0  0  0  0  0  0  0  0  0  0  0
  124.6070  131.1520   63.3660 C   0  0  0  0  0  0  0  0  0  0  0  0
  125.5540  131.3660   62.3680 C   0  0  0  0  0  0  0  0  0  0  0  0
  126.8580  130.8950   62.5250 C   0  0  0  0  0  0  0  0  0  0  0  0
  127.7420  131.1460   61.4580 N   0  0  0  0  0  0  0  0  0  0  0  0
  128.9930  131.6640   61.4860 C   0  0  0  0  0  0  0  0  0  0  0  0
  129.5590  132.0460   62.5120 O   0  0  0  0  0  0  0  0  0  0  0  0
  129.6620  131.7610   60.1860 C   0  0  0  0  0  0  0  0  0  0  0  0
  128.9020  132.6340   58.8540 S   0  0  0  0  0  0  0  0  0  0  0  0
  130.2450  132.2790   57.7920 C   0  0  0  0  0  0  0  0  0  0  0  0
  130.2770  132.7030   56.5280 N   0  0  0  0  0  0  0  0  0  0  0  0
  131.3750  132.3590   55.8120 C   0  0  0  0  0  0  0  0  0  0  0  0
  131.3920  132.8510   54.3770 C   0  0  0  0  0  0  0  0  0  0  0  0
  132.4300  131.6060   56.3250 C   0  0  0  0  0  0  0  0  0  0  0  0
  132.3930  131.1620   57.6520 C   0  0  0  0  0  0  0  0  0  0  0  0
  133.5690  130.3450   58.1650 C   0  0  0  0  0  0  0  0  0  0  0  0
  131.2580  131.5060   58.4340 C   0  0  0  0  0  0  0  0  0  0  0  0
  130.9010  131.2260   59.7990 C   0  0  0  0  0  0  0  0  0  0  0  0
  131.7120  130.4990   60.6330 N   0  0  0  0  0  0  0  0  0  0  0  0
  127.2030  130.1870   63.6850 C   0  0  0  0  0  0  0  0  0  0  0  0
  126.2540  129.9760   64.6820 C   0  0  0  0  0  0  0  0  0  0  0  0
  1  2  1  0
  2  3  1  0
  3  4  2  0
  4  5  1  0
  5  6  2  0
  6  7  1  0
  7  8  1  0
  8  9  2  0
  8 10  1  0
 10 11  1  0
 11 12  1  0
 12 13  2  0
 13 14  1  0
 14 15  1  0
 14 16  2  0
 16 17  1  0
 17 18  1  0
 17 19  2  0
 19 20  1  0
 20 21  1  0
  6 22  1  0
 22 23  2  0
 23  3  1  0
 20 10  2  0
 19 12  1  0
M  END
>  <Binding energies>  (39) 
[-7.49]

>  <Ligand effiencies>  (39) 
[-0.28807692307692306]

>  <Interactions>  (39) 
["V-B:ARG:545:CD:9895, V-A:PRO:540:CB:4885, V-A:LEU:363:CA:3185, V-B:HIS:456:CE1:9040, H-A:GLU:543:OE1:4909, V-A:ASP:366:CG:3213, V-A:PRO:540:CA:4883, V-B:ARG:545:CG:9894, V-A:TYR:539:CD2:4874, V-A:TYR:539:CE2:4876, V-A:ILE:538:CD1:4865, V-A:TYR:539:C:4867, V-A:ASP:366:CB:3212, V-A:TYR:531:CE2:4793, V-A:PRO:540:N:4884, V-B:ARG:545:CZ:9898, V-B:GLY:454:CA:9020, V-A:ILE:538:CA:4860, V-A:PRO:540:CD:4887, H-A:TYR:539:N:4870, V-A:ILE:538:CG2:4863, V-A:LEU:363:CD1:3189, H-B:GLY:454:N:9021, H-B:TYR:484:OH:9319, H-B:ARG:545:NE:9896, V-A:ILE:538:C:4858, H-A:ALA:541:N:4891, H-A:ASP:366:OD1:3214, V-A:ILE:538:CB:4862, V-A:ILE:538:CG1:4864"]

$$$$
4ad_Grossjean_2025
     RDKit          3D

 21 23  0  0  0  0  0  0  0  0999 V2000
  130.6670  132.8770   53.8930 C   0  0  0  0  0  0  0  0  0  0  0  0
  131.0010  132.3270   55.2670 C   0  0  0  0  0  0  0  0  0  0  0  0
  132.1070  131.5010   55.4600 C   0  0  0  0  0  0  0  0  0  0  0  0
  132.3950  131.0040   56.7370 C   0  0  0  0  0  0  0  0  0  0  0  0
  133.6110  130.1050   56.8980 C   0  0  0  0  0  0  0  0  0  0  0  0
  131.5280  131.3700   57.8020 C   0  0  0  0  0  0  0  0  0  0  0  0
  131.5240  131.0490   59.2040 C   0  0  0  0  0  0  0  0  0  0  0  0
  132.4830  130.2490   59.7730 N   0  0  0  0  0  0  0  0  0  0  0  0
  130.4630  131.6260   59.9190 C   0  0  0  0  0  0  0  0  0  0  0  0
  130.1480  131.4980   61.3430 C   0  0  0  0  0  0  0  0  0  0  0  0
  130.8310  132.0730   62.1920 O   0  0  0  0  0  0  0  0  0  0  0  0
  129.0700  130.7270   61.6330 N   0  0  0  0  0  0  0  0  0  0  0  0
  128.5330  130.3720   62.8850 C   0  0  0  0  0  0  0  0  0  0  0  0
  128.5040  131.3860   63.8470 C   0  0  0  0  0  0  0  0  0  0  0  0
  127.9830  131.1370   65.1140 C   0  0  0  0  0  0  0  0  0  0  0  0
  127.4820  129.8740   65.4180 C   0  0  0  0  0  0  0  0  0  0  0  0
  127.4930  128.8590   64.4640 C   0  0  0  0  0  0  0  0  0  0  0  0
  128.0140  129.1050   63.1970 C   0  0  0  0  0  0  0  0  0  0  0  0
  129.4350  132.5940   58.8610 S   0  0  0  0  0  0  0  0  0  0  0  0
  130.4290  132.2200   57.4720 C   0  0  0  0  0  0  0  0  0  0  0  0
  130.1530  132.6960   56.2570 N   0  0  0  0  0  0  0  0  0  0  0  0
  1  2  1  0
  2  3  2  0
  3  4  1  0
  4  5  1  0
  4  6  2  0
  6  7  1  0
  7  8  1  0
  7  9  2  0
  9 10  1  0
 10 11  2  0
 10 12  1  0
 12 13  1  0
 13 14  2  0
 14 15  1  0
 15 16  2  0
 16 17  1  0
 17 18  2  0
  9 19  1  0
 19 20  1  0
 20 21  2  0
 21  2  1  0
 20  6  1  0
 18 13  1  0
M  END
>  <Binding energies>  (40) 
[-7.23]

>  <Ligand effiencies>  (40) 
[-0.30125]

>  <Interactions>  (40) 
["V-A:PRO:540:CB:4885, V-A:ALA:541:CB:4892, V-A:LEU:363:CA:3185, H-A:GLU:543:OE1:4909, V-A:ASP:366:CG:3213, V-A:PRO:540:CA:4883, V-A:GLU:543:CD:4908, V-A:ILE:538:CD1:4865, V-A:TYR:539:C:4867, V-A:ASP:366:CB:3212, V-A:TYR:531:CE2:4793, V-A:PRO:540:N:4884, V-A:TYR:531:CZ:4794, V-A:ILE:538:CA:4860, H-A:TYR:539:N:4870, V-A:LEU:363:CD1:3189, V-A:GLU:543:CB:4906, V-B:TYR:484:CZ:9318, V-B:TYR:484:CE1:9316, V-A:ILE:538:C:4858, H-A:ALA:541:N:4891, H-A:ASP:366:OD1:3214, V-A:ILE:538:CB:4862, V-A:VAL:537:C:4850"]

$$$$
4ae_Grossjean_2025
     RDKit          3D

 22 24  0  0  0  0  0  0  0  0999 V2000
  127.9500  119.7890   72.8730 C   0  0  0  0  0  0  0  0  0  0  0  0
  128.9980  120.8770   72.7450 C   0  0  0  0  0  0  0  0  0  0  0  0
  130.1290  120.9030   73.5640 C   0  0  0  0  0  0  0  0  0  0  0  0
  131.0480  121.9390   73.3940 C   0  0  0  0  0  0  0  0  0  0  0  0
  130.8160  122.9140   72.4210 C   0  0  0  0  0  0  0  0  0  0  0  0
  129.6670  122.8230   71.6280 C   0  0  0  0  0  0  0  0  0  0  0  0
  129.4790  123.8440   70.6800 N   0  0  0  0  0  0  0  0  0  0  0  0
  129.5980  125.1850   70.8440 C   0  0  0  0  0  0  0  0  0  0  0  0
  129.8990  125.7220   71.9110 O   0  0  0  0  0  0  0  0  0  0  0  0
  129.3360  125.9880   69.6470 C   0  0  0  0  0  0  0  0  0  0  0  0
  128.7720  127.6530   69.7970 S   0  0  0  0  0  0  0  0  0  0  0  0
  128.6840  127.8310   68.0600 C   0  0  0  0  0  0  0  0  0  0  0  0
  128.2830  128.9650   67.4860 N   0  0  0  0  0  0  0  0  0  0  0  0
  128.2550  128.9700   66.1320 C   0  0  0  0  0  0  0  0  0  0  0  0
  127.7890  130.2690   65.4990 C   0  0  0  0  0  0  0  0  0  0  0  0
  128.6170  127.8780   65.3450 C   0  0  0  0  0  0  0  0  0  0  0  0
  129.0380  126.6880   65.9510 C   0  0  0  0  0  0  0  0  0  0  0  0
  129.4180  125.5230   65.0500 C   0  0  0  0  0  0  0  0  0  0  0  0
  129.0790  126.6450   67.3710 C   0  0  0  0  0  0  0  0  0  0  0  0
  129.4480  125.6100   68.2990 C   0  0  0  0  0  0  0  0  0  0  0  0
  129.8670  124.3700   67.8870 N   0  0  0  0  0  0  0  0  0  0  0  0
  128.7600  121.8160   71.7940 N   0  0  0  0  0  0  0  0  0  0  0  0
  1  2  1  0
  2  3  2  0
  3  4  1  0
  4  5  2  0
  5  6  1  0
  6  7  1  0
  7  8  1  0
  8  9  2  0
  8 10  1  0
 10 11  1  0
 11 12  1  0
 12 13  2  0
 13 14  1  0
 14 15  1  0
 14 16  2  0
 16 17  1  0
 17 18  1  0
 17 19  2  0
 19 20  1  0
 20 21  1  0
  6 22  2  0
 22  2  1  0
 20 10  2  0
 19 12  1  0
M  END
>  <Binding energies>  (41) 
[-7.34]

>  <Ligand effiencies>  (41) 
[-0.29359999999999997]

>  <Interactions>  (41) 
["V-B:GLU:543:C:9874, V-B:GLU:543:CB:9878, V-B:HIS:456:CE1:9040, V-B:GLU:543:CD:9880, V-A:GLU:543:CD:4908, H-A:TYR:484:OH:4348, V-A:HIS:456:CE1:4069, V-B:GLU:543:CG:9879, V-A:TYR:484:CE1:4345, V-A:TYR:484:CZ:4347, H-A:HIS:456:NE2:4070, V-A:HIS:456:CD2:4068, V-A:ASP:473:CB:4239, V-A:ASP:473:CG:4240, H-B:LYS:547:NZ:9923, H-B:HIS:456:NE2:9041, V-B:GLU:543:CA:9876, V-A:TYR:484:CD2:4344, V-A:GLU:543:CB:4906, V-A:TYR:484:CD1:4343, V-A:TYR:484:CG:4342, V-A:TYR:484:CB:4341, V-B:TYR:484:CZ:9318, V-A:TYR:484:CE2:4346, V-B:LYS:547:CE:9922, H-B:GLU:543:O:9875, H-A:HIS:456:ND1:4067"]

$$$$
4af_Grossjean_2025
     RDKit          3D

 21 23  0  0  0  0  0  0  0  0999 V2000
  130.6680  132.8640   53.9170 C   0  0  0  0  0  0  0  0  0  0  0  0
  130.9850  132.3190   55.2980 C   0  0  0  0  0  0  0  0  0  0  0  0
  132.0950  131.5040   55.5100 C   0  0  0  0  0  0  0  0  0  0  0  0
  132.3660  131.0100   56.7920 C   0  0  0  0  0  0  0  0  0  0  0  0
  133.5880  130.1240   56.9730 C   0  0  0  0  0  0  0  0  0  0  0  0
  131.4780  131.3680   57.8420 C   0  0  0  0  0  0  0  0  0  0  0  0
  131.4540  131.0450   59.2440 C   0  0  0  0  0  0  0  0  0  0  0  0
  132.4070  130.2500   59.8280 N   0  0  0  0  0  0  0  0  0  0  0  0
  130.3780  131.6150   59.9420 C   0  0  0  0  0  0  0  0  0  0  0  0
  130.0320  131.4730   61.3570 C   0  0  0  0  0  0  0  0  0  0  0  0
  130.6900  132.0500   62.2250 O   0  0  0  0  0  0  0  0  0  0  0  0
  128.9550  130.6920   61.6150 N   0  0  0  0  0  0  0  0  0  0  0  0
  128.3960  130.3170   62.8520 C   0  0  0  0  0  0  0  0  0  0  0  0
  127.8370  129.0600   63.1470 C   0  0  0  0  0  0  0  0  0  0  0  0
  127.2980  128.8240   64.4120 C   0  0  0  0  0  0  0  0  0  0  0  0
  127.3270  129.8530   65.3550 C   0  0  0  0  0  0  0  0  0  0  0  0
  127.8530  131.0760   65.0930 N   0  0  0  0  0  0  0  0  0  0  0  0
  128.3720  131.2910   63.8580 C   0  0  0  0  0  0  0  0  0  0  0  0
  129.3570  132.5740   58.8660 S   0  0  0  0  0  0  0  0  0  0  0  0
  130.3780  132.2080   57.4940 C   0  0  0  0  0  0  0  0  0  0  0  0
  130.1170  132.6810   56.2750 N   0  0  0  0  0  0  0  0  0  0  0  0
  1  2  1  0
  2  3  2  0
  3  4  1  0
  4  5  1  0
  4  6  2  0
  6  7  1  0
  7  8  1  0
  7  9  2  0
  9 10  1  0
 10 11  2  0
 10 12  1  0
 12 13  1  0
 13 14  2  0
 14 15  1  0
 15 16  2  0
 16 17  1  0
 17 18  2  0
  9 19  1  0
 19 20  1  0
 20 21  2  0
 21  2  1  0
 20  6  1  0
 18 13  1  0
M  END
>  <Binding energies>  (42) 
[-6.98]

>  <Ligand effiencies>  (42) 
[-0.29083333333333333]

>  <Interactions>  (42) 
["V-A:PRO:540:CB:4885, V-A:ALA:541:CB:4892, V-A:LEU:363:CA:3185, H-A:GLU:543:OE1:4909, V-A:ASP:366:CG:3213, V-A:PRO:540:CA:4883, V-A:GLU:543:CD:4908, V-A:ILE:538:CD1:4865, V-A:TYR:539:C:4867, V-A:ASP:366:CB:3212, V-A:TYR:531:CE2:4793, V-A:PRO:540:N:4884, V-A:TYR:531:CZ:4794, V-A:ILE:538:CA:4860, H-A:TYR:539:N:4870, V-A:LEU:363:CD1:3189, H-B:TYR:484:OH:9319, V-A:GLU:543:CB:4906, V-A:ILE:538:C:4858, H-A:ALA:541:N:4891, H-A:ASP:366:OD1:3214, V-A:ILE:538:CB:4862, V-A:VAL:537:C:4850"]

$$$$
4ag_Grossjean_2025
     RDKit          3D

 22 24  0  0  0  0  0  0  0  0999 V2000
  133.2690  125.8910   75.9900 C   0  0  0  0  0  0  0  0  0  0  0  0
  132.2870  125.5110   74.8970 C   0  0  0  0  0  0  0  0  0  0  0  0
  132.2660  124.2200   74.3700 C   0  0  0  0  0  0  0  0  0  0  0  0
  131.3520  123.8900   73.3630 C   0  0  0  0  0  0  0  0  0  0  0  0
  131.3660  122.4690   72.8210 C   0  0  0  0  0  0  0  0  0  0  0  0
  130.4670  124.9060   72.9120 C   0  0  0  0  0  0  0  0  0  0  0  0
  129.4280  124.9150   71.9180 C   0  0  0  0  0  0  0  0  0  0  0  0
  129.1100  123.8030   71.1790 N   0  0  0  0  0  0  0  0  0  0  0  0
  128.7840  126.1530   71.7790 C   0  0  0  0  0  0  0  0  0  0  0  0
  127.6870  126.5110   70.8800 C   0  0  0  0  0  0  0  0  0  0  0  0
  126.8140  127.3130   71.2190 O   0  0  0  0  0  0  0  0  0  0  0  0
  127.6820  125.9000   69.6760 N   0  0  0  0  0  0  0  0  0  0  0  0
  126.7010  126.1250   68.6160 C   0  0  0  0  0  0  0  0  0  0  0  0
  127.0300  127.3050   67.7080 C   0  0  0  0  0  0  0  0  0  0  0  0
  125.9970  128.0170   67.0910 C   0  0  0  0  0  0  0  0  0  0  0  0
  126.2940  129.1110   66.2820 C   0  0  0  0  0  0  0  0  0  0  0  0
  127.6210  129.4960   66.1000 C   0  0  0  0  0  0  0  0  0  0  0  0
  128.6530  128.8000   66.7240 C   0  0  0  0  0  0  0  0  0  0  0  0
  128.3570  127.7070   67.5340 C   0  0  0  0  0  0  0  0  0  0  0  0
  129.4470  127.3480   72.8940 S   0  0  0  0  0  0  0  0  0  0  0  0
  130.5890  126.1860   73.5320 C   0  0  0  0  0  0  0  0  0  0  0  0
  131.4580  126.5030   74.4930 N   0  0  0  0  0  0  0  0  0  0  0  0
  1  2  1  0
  2  3  2  0
  3  4  1  0
  4  5  1  0
  4  6  2  0
  6  7  1  0
  7  8  1  0
  7  9  2  0
  9 10  1  0
 10 11  2  0
 10 12  1  0
 12 13  1  0
 13 14  1  0
 14 15  2  0
 15 16  1  0
 16 17  2  0
 17 18  1  0
 18 19  2  0
  9 20  1  0
 20 21  1  0
 21 22  2  0
 22  2  1  0
 21  6  1  0
 19 14  1  0
M  END
>  <Binding energies>  (43) 
[-7.28]

>  <Ligand effiencies>  (43) 
[-0.2912]

>  <Interactions>  (43) 
["V-B:GLU:543:C:9874, V-B:GLU:543:CB:9878, V-B:GLY:544:C:9884, V-B:HIS:456:CE1:9040, V-B:ARG:545:CG:9894, V-A:GLU:543:CD:4908, V-B:ARG:545:CA:9891, V-A:GLU:543:CG:4907, V-A:HIS:456:CG:4066, V-A:VAL:458:CG2:4087, V-A:HIS:456:CD2:4068, V-A:HIS:456:CB:4065, V-A:LYS:547:CD:4949, H-A:LYS:547:NZ:4951, V-A:ASP:473:CB:4239, H-B:HIS:456:NE2:9041, V-B:GLU:543:CA:9876, V-A:TYR:484:CD2:4344, V-A:GLU:543:CB:4906, V-A:TYR:484:CG:4342, V-A:TYR:484:CE2:4346, V-B:GLY:544:CA:9886, H-B:GLU:543:O:9875, H-B:GLY:544:O:9885"]

$$$$
4ah_Grossjean_2025
     RDKit          3D

 28 30  0  0  0  0  0  0  0  0999 V2000
  133.1470  126.8450   74.4400 C   0  0  0  0  0  0  0  0  0  0  0  0
  131.7500  126.6780   74.6510 O   0  0  0  0  0  0  0  0  0  0  0  0
  131.0000  125.9880   73.7150 C   0  0  0  0  0  0  0  0  0  0  0  0
  129.9410  126.5540   72.9880 C   0  0  0  0  0  0  0  0  0  0  0  0
  129.2260  125.7960   72.0590 C   0  0  0  0  0  0  0  0  0  0  0  0
  128.1100  126.4410   71.2450 C   0  0  0  0  0  0  0  0  0  0  0  0
  128.3050  126.3380   69.7990 N   0  0  0  0  0  0  0  0  0  0  0  0
  129.0040  127.2080   69.0410 C   0  0  0  0  0  0  0  0  0  0  0  0
  129.5260  128.2230   69.5050 O   0  0  0  0  0  0  0  0  0  0  0  0
  129.0720  126.9020   67.6120 C   0  0  0  0  0  0  0  0  0  0  0  0
  128.5550  128.0980   66.4230 S   0  0  0  0  0  0  0  0  0  0  0  0
  128.8930  126.9990   65.1050 C   0  0  0  0  0  0  0  0  0  0  0  0
  128.6970  127.3420   63.8320 N   0  0  0  0  0  0  0  0  0  0  0  0
  129.0010  126.4000   62.9070 C   0  0  0  0  0  0  0  0  0  0  0  0
  128.7680  126.8100   61.4650 C   0  0  0  0  0  0  0  0  0  0  0  0
  129.4910  125.1350   63.2220 C   0  0  0  0  0  0  0  0  0  0  0  0
  129.6940  124.7750   64.5600 C   0  0  0  0  0  0  0  0  0  0  0  0
  130.2310  123.3830   64.8540 C   0  0  0  0  0  0  0  0  0  0  0  0
  129.3850  125.7380   65.5590 C   0  0  0  0  0  0  0  0  0  0  0  0
  129.4660  125.7050   66.9950 C   0  0  0  0  0  0  0  0  0  0  0  0
  129.9000  124.6000   67.6810 N   0  0  0  0  0  0  0  0  0  0  0  0
  129.5870  124.4680   71.8310 C   0  0  0  0  0  0  0  0  0  0  0  0
  130.6380  123.8740   72.5470 C   0  0  0  0  0  0  0  0  0  0  0  0
  131.0380  122.5600   72.3830 O   0  0  0  0  0  0  0  0  0  0  0  0
  130.8130  121.6260   73.4340 C   0  0  0  0  0  0  0  0  0  0  0  0
  131.3320  124.6430   73.4910 C   0  0  0  0  0  0  0  0  0  0  0  0
  132.3760  124.0800   74.1870 O   0  0  0  0  0  0  0  0  0  0  0  0
  132.1260  123.9220   75.5770 C   0  0  0  0  0  0  0  0  0  0  0  0
  1  2  1  0
  2  3  1  0
  3  4  2  0
  4  5  1  0
  5  6  1  0
  6  7  1  0
  7  8  1  0
  8  9  2  0
  8 10  1  0
 10 11  1  0
 11 12  1  0
 12 13  2  0
 13 14  1  0
 14 15  1  0
 14 16  2  0
 16 17  1  0
 17 18  1  0
 17 19  2  0
 19 20  1  0
 20 21  1  0
  5 22  2  0
 22 23  1  0
 23 24  1  0
 24 25  1  0
 23 26  2  0
 26 27  1  0
 27 28  1  0
 26  3  1  0
 20 10  2  0
 19 12  1  0
M  END
>  <Binding energies>  (44) 
[-6.91]

>  <Ligand effiencies>  (44) 
[-0.2229032258064516]

>  <Interactions>  (44) 
["V-B:GLU:543:C:9874, V-B:GLU:543:CB:9878, V-B:GLY:544:C:9884, V-B:HIS:456:CE1:9040, V-B:GLU:543:CD:9880, V-A:GLU:543:CD:4908, H-A:TYR:484:OH:4348, V-A:HIS:456:CE1:4069, V-B:GLU:543:CG:9879, V-A:TYR:484:CE1:4345, V-A:TYR:484:CZ:4347, V-A:HIS:456:CG:4066, H-A:HIS:456:NE2:4070, V-A:HIS:456:CD2:4068, V-A:HIS:456:CB:4065, V-A:LYS:547:CD:4949, V-A:LYS:547:CE:4950, H-A:LYS:547:NZ:4951, V-A:ASP:473:CB:4239, V-A:ASP:473:CG:4240, H-B:LYS:547:NZ:9923, H-B:HIS:456:NE2:9041, V-A:TYR:484:CD2:4344, V-A:TYR:484:CG:4342, V-A:TYR:484:CB:4341, H-B:GLU:543:O:9875, H-B:GLY:544:O:9885, H-A:HIS:456:ND1:4067"]

$$$$
4ai_Grossjean_2025
     RDKit          3D

 20 22  0  0  0  0  0  0  0  0999 V2000
  127.9730  130.3910   65.2460 C   0  0  0  0  0  0  0  0  0  0  0  0
  128.3690  129.0830   65.9050 C   0  0  0  0  0  0  0  0  0  0  0  0
  128.6930  127.9640   65.1400 C   0  0  0  0  0  0  0  0  0  0  0  0
  129.0620  126.7690   65.7680 C   0  0  0  0  0  0  0  0  0  0  0  0
  129.4090  125.5760   64.8900 C   0  0  0  0  0  0  0  0  0  0  0  0
  129.0910  126.7490   67.1890 C   0  0  0  0  0  0  0  0  0  0  0  0
  129.4160  125.7170   68.1370 C   0  0  0  0  0  0  0  0  0  0  0  0
  129.7830  124.4530   67.7470 N   0  0  0  0  0  0  0  0  0  0  0  0
  129.3290  126.1260   69.4770 C   0  0  0  0  0  0  0  0  0  0  0  0
  129.5780  125.3400   70.6880 C   0  0  0  0  0  0  0  0  0  0  0  0
  129.6940  125.8920   71.7830 O   0  0  0  0  0  0  0  0  0  0  0  0
  129.6500  123.9970   70.5040 N   0  0  0  0  0  0  0  0  0  0  0  0
  129.8640  123.0230   71.4700 C   0  0  0  0  0  0  0  0  0  0  0  0
  130.9910  123.0010   72.2930 C   0  0  0  0  0  0  0  0  0  0  0  0
  130.8270  121.8950   73.0940 C   0  0  0  0  0  0  0  0  0  0  0  0
  129.6630  121.2830   72.7730 O   0  0  0  0  0  0  0  0  0  0  0  0
  129.0600  122.0080   71.7440 N   0  0  0  0  0  0  0  0  0  0  0  0
  128.8120  127.8090   69.5970 S   0  0  0  0  0  0  0  0  0  0  0  0
  128.7370  127.9600   67.8560 C   0  0  0  0  0  0  0  0  0  0  0  0
  128.3840  129.1000   67.2600 N   0  0  0  0  0  0  0  0  0  0  0  0
  1  2  1  0
  2  3  2  0
  3  4  1  0
  4  5  1  0
  4  6  2  0
  6  7  1  0
  7  8  1  0
  7  9  2  0
  9 10  1  0
 10 11  2  0
 10 12  1  0
 12 13  1  0
 13 14  1  0
 14 15  2  0
 15 16  1  0
 16 17  1  0
  9 18  1  0
 18 19  1  0
 19 20  2  0
 20  2  1  0
 19  6  1  0
 17 13  2  0
M  END
>  <Binding energies>  (45) 
[-7.58]

>  <Ligand effiencies>  (45) 
[-0.32956521739130434]

>  <Interactions>  (45) 
["V-B:GLU:543:C:9874, V-B:GLU:543:CB:9878, V-B:HIS:456:CE1:9040, V-B:GLU:543:CD:9880, V-A:GLU:543:CD:4908, V-A:GLU:543:CG:4907, H-A:TYR:484:OH:4348, V-A:HIS:456:CE1:4069, V-B:GLU:543:CG:9879, V-A:TYR:484:CE1:4345, V-A:TYR:484:CZ:4347, V-A:HIS:456:CG:4066, H-A:HIS:456:NE2:4070, V-A:HIS:456:CD2:4068, V-A:HIS:456:CB:4065, V-A:ASP:473:CB:4239, H-B:LYS:547:NZ:9923, H-B:HIS:456:NE2:9041, V-B:GLU:543:CA:9876, V-A:TYR:484:CD2:4344, V-A:GLU:543:CB:4906, V-A:TYR:484:CD1:4343, V-A:TYR:484:CG:4342, V-A:TYR:484:CB:4341, V-A:TYR:484:CE2:4346, H-B:GLU:543:O:9875, H-A:HIS:456:ND1:4067"]

$$$$
4aj_Grossjean_2025
     RDKit          3D

 20 22  0  0  0  0  0  0  0  0999 V2000
  130.6770  132.8510   53.9310 C   0  0  0  0  0  0  0  0  0  0  0  0
  130.9900  132.3110   55.3150 C   0  0  0  0  0  0  0  0  0  0  0  0
  132.1090  131.5110   55.5360 C   0  0  0  0  0  0  0  0  0  0  0  0
  132.3760  131.0190   56.8190 C   0  0  0  0  0  0  0  0  0  0  0  0
  133.6090  130.1490   57.0080 C   0  0  0  0  0  0  0  0  0  0  0  0
  131.4770  131.3650   57.8620 C   0  0  0  0  0  0  0  0  0  0  0  0
  131.4460  131.0420   59.2630 C   0  0  0  0  0  0  0  0  0  0  0  0
  132.4010  130.2530   59.8530 N   0  0  0  0  0  0  0  0  0  0  0  0
  130.3650  131.6080   59.9550 C   0  0  0  0  0  0  0  0  0  0  0  0
  130.0230  131.4790   61.3740 C   0  0  0  0  0  0  0  0  0  0  0  0
  130.6390  132.1160   62.2310 O   0  0  0  0  0  0  0  0  0  0  0  0
  128.9960  130.6380   61.6510 N   0  0  0  0  0  0  0  0  0  0  0  0
  128.4700  130.3490   62.9020 C   0  0  0  0  0  0  0  0  0  0  0  0
  128.1330  129.1710   63.3840 N   0  0  0  0  0  0  0  0  0  0  0  0
  127.6680  129.2660   64.6150 C   0  0  0  0  0  0  0  0  0  0  0  0
  127.6200  130.5470   65.1580 C   0  0  0  0  0  0  0  0  0  0  0  0
  128.2190  131.6810   63.9830 S   0  0  0  0  0  0  0  0  0  0  0  0
  129.3390  132.5510   58.8730 S   0  0  0  0  0  0  0  0  0  0  0  0
  130.3700  132.1940   57.5060 C   0  0  0  0  0  0  0  0  0  0  0  0
  130.1120  132.6630   56.2850 N   0  0  0  0  0  0  0  0  0  0  0  0
  1  2  1  0
  2  3  2  0
  3  4  1  0
  4  5  1  0
  4  6  2  0
  6  7  1  0
  7  8  1  0
  7  9  2  0
  9 10  1  0
 10 11  2  0
 10 12  1  0
 12 13  1  0
 13 14  2  0
 14 15  1  0
 15 16  2  0
 16 17  1  0
  9 18  1  0
 18 19  1  0
 19 20  2  0
 20  2  1  0
 19  6  1  0
 17 13  1  0
M  END
>  <Binding energies>  (46) 
[-6.81]

>  <Ligand effiencies>  (46) 
[-0.2960869565217391]

>  <Interactions>  (46) 
["V-A:PRO:540:CB:4885, V-A:ALA:541:CB:4892, V-A:LEU:363:CA:3185, H-A:GLU:543:OE1:4909, V-A:ASP:366:CG:3213, V-A:PRO:540:CA:4883, V-A:GLU:543:CD:4908, V-A:ILE:538:CD1:4865, V-A:TYR:539:C:4867, V-A:ASP:366:CB:3212, V-A:TYR:531:CE2:4793, V-A:PRO:540:N:4884, V-A:TYR:531:CZ:4794, V-A:ILE:538:CA:4860, H-A:TYR:539:N:4870, V-A:LEU:363:CD1:3189, V-A:GLU:543:CB:4906, V-B:TYR:484:CZ:9318, V-A:ILE:538:C:4858, H-A:ALA:541:N:4891, H-A:ASP:366:OD1:3214, V-A:ILE:538:CB:4862, V-A:VAL:537:C:4850"]

$$$$
4ak_Grossjean_2025
     RDKit          3D

 25 26  0  0  0  0  0  0  0  0999 V2000
  135.1210  127.2540   73.8870 C   0  0  0  0  0  0  0  0  0  0  0  0
  133.7710  126.8780   74.1100 O   0  0  0  0  0  0  0  0  0  0  0  0
  133.6310  125.7550   74.9720 C   0  0  0  0  0  0  0  0  0  0  0  0
  132.4380  125.9760   75.9100 C   0  0  0  0  0  0  0  0  0  0  0  0
  131.4390  126.7260   75.2330 O   0  0  0  0  0  0  0  0  0  0  0  0
  130.2590  125.9850   74.9490 C   0  0  0  0  0  0  0  0  0  0  0  0
  129.5290  126.6280   73.7640 C   0  0  0  0  0  0  0  0  0  0  0  0
  128.4370  125.8030   73.3810 O   0  0  0  0  0  0  0  0  0  0  0  0
  128.4450  125.4400   72.0060 C   0  0  0  0  0  0  0  0  0  0  0  0
  127.9780  126.6390   71.1610 C   0  0  0  0  0  0  0  0  0  0  0  0
  128.2010  126.4660   69.7250 N   0  0  0  0  0  0  0  0  0  0  0  0
  128.9640  127.2650   68.9530 C   0  0  0  0  0  0  0  0  0  0  0  0
  129.5790  128.2320   69.4060 O   0  0  0  0  0  0  0  0  0  0  0  0
  129.0310  126.9150   67.5350 C   0  0  0  0  0  0  0  0  0  0  0  0
  128.5850  128.0970   66.3040 S   0  0  0  0  0  0  0  0  0  0  0  0
  128.9380  126.9620   65.0210 C   0  0  0  0  0  0  0  0  0  0  0  0
  128.7830  127.2800   63.7350 N   0  0  0  0  0  0  0  0  0  0  0  0
  129.0890  126.3080   62.8410 C   0  0  0  0  0  0  0  0  0  0  0  0
  128.9070  126.6900   61.3830 C   0  0  0  0  0  0  0  0  0  0  0  0
  129.5440  125.0410   63.1990 C   0  0  0  0  0  0  0  0  0  0  0  0
  129.7070  124.7100   64.5490 C   0  0  0  0  0  0  0  0  0  0  0  0
  130.2020  123.3130   64.8900 C   0  0  0  0  0  0  0  0  0  0  0  0
  129.3940  125.7030   65.5160 C   0  0  0  0  0  0  0  0  0  0  0  0
  129.4430  125.7060   66.9530 C   0  0  0  0  0  0  0  0  0  0  0  0
  129.8550  124.6140   67.6750 N   0  0  0  0  0  0  0  0  0  0  0  0
  1  2  1  0
  2  3  1  0
  3  4  1  0
  4  5  1  0
  5  6  1  0
  6  7  1  0
  7  8  1  0
  8  9  1  0
  9 10  1  0
 10 11  1  0
 11 12  1  0
 12 13  2  0
 12 14  1  0
 14 15  1  0
 15 16  1  0
 16 17  2  0
 17 18  1  0
 18 19  1  0
 18 20  2  0
 20 21  1  0
 21 22  1  0
 21 23  2  0
 23 24  1  0
 24 25  1  0
 24 14  2  0
 23 16  1  0
M  END
>  <Binding energies>  (47) 
[-6.38]

>  <Ligand effiencies>  (47) 
[-0.22785714285714284]

>  <Interactions>  (47) 
["V-B:GLU:543:C:9874, V-B:GLU:543:CB:9878, V-B:GLY:544:C:9884, V-B:HIS:456:CE1:9040, V-B:GLU:543:CD:9880, V-A:GLU:543:CD:4908, H-A:TYR:484:OH:4348, V-A:HIS:456:CE1:4069, V-B:GLU:543:CG:9879, V-A:TYR:484:CE1:4345, V-A:TYR:484:CZ:4347, V-A:HIS:456:CG:4066, V-A:VAL:458:CG2:4087, H-A:HIS:456:NE2:4070, V-A:HIS:456:CD2:4068, V-A:VAL:457:C:4073, V-A:HIS:456:CB:4065, V-A:LYS:547:CD:4949, H-A:LYS:547:NZ:4951, V-A:HIS:456:C:4061, H-B:LYS:547:NZ:9923, V-A:HIS:456:CA:4063, H-B:HIS:456:NE2:9041, V-A:LYS:547:CG:4948, V-B:LYS:547:CE:9922, H-B:GLU:543:O:9875, H-B:GLY:544:O:9885, H-A:HIS:456:ND1:4067, V-A:ARG:545:C:4917, V-A:LYS:547:CB:4947"]

$$$$
4al_Grossjean_2025
     RDKit          3D

 16 17  0  0  0  0  0  0  0  0999 V2000
  132.4850  131.7580   62.1190 C   0  0  0  0  0  0  0  0  0  0  0  0
  131.1170  132.1150   61.9890 O   0  0  0  0  0  0  0  0  0  0  0  0
  130.2740  131.3760   61.2220 C   0  0  0  0  0  0  0  0  0  0  0  0
  129.3720  130.6680   61.6750 O   0  0  0  0  0  0  0  0  0  0  0  0
  130.5490  131.5060   59.7740 C   0  0  0  0  0  0  0  0  0  0  0  0
  129.5240  132.5360   58.7720 S   0  0  0  0  0  0  0  0  0  0  0  0
  130.4600  132.1500   57.3460 C   0  0  0  0  0  0  0  0  0  0  0  0
  130.1660  132.6600   56.1500 N   0  0  0  0  0  0  0  0  0  0  0  0
  130.9700  132.2810   55.1260 C   0  0  0  0  0  0  0  0  0  0  0  0
  130.6180  132.8740   53.7740 C   0  0  0  0  0  0  0  0  0  0  0  0
  132.0500  131.4120   55.2700 C   0  0  0  0  0  0  0  0  0  0  0  0
  132.3560  130.8780   56.5260 C   0  0  0  0  0  0  0  0  0  0  0  0
  133.5430  129.9350   56.6330 C   0  0  0  0  0  0  0  0  0  0  0  0
  131.5350  131.2530   57.6230 C   0  0  0  0  0  0  0  0  0  0  0  0
  131.5600  130.9030   59.0170 C   0  0  0  0  0  0  0  0  0  0  0  0
  132.4960  130.0540   59.5480 N   0  0  0  0  0  0  0  0  0  0  0  0
  1  2  1  0
  2  3  1  0
  3  4  2  0
  3  5  1  0
  5  6  1  0
  6  7  1  0
  7  8  2  0
  8  9  1  0
  9 10  1  0
  9 11  2  0
 11 12  1  0
 12 13  1  0
 12 14  2  0
 14 15  1  0
 15 16  1  0
 15  5  2  0
 14  7  1  0
M  END
>  <Binding energies>  (48) 
[-5.97]

>  <Ligand effiencies>  (48) 
[-0.33166666666666667]

>  <Interactions>  (48) 
["V-A:PRO:540:CB:4885, V-A:ASN:362:CB:3176, V-A:LEU:363:CA:3185, V-A:ASP:366:CG:3213, V-A:PRO:540:CA:4883, V-A:ALA:541:C:4888, V-A:GLU:543:CD:4908, V-A:ILE:538:CD1:4865, V-A:PRO:540:C:4881, V-A:TYR:539:C:4867, V-A:ASP:366:CB:3212, V-A:TYR:531:CE2:4793, V-A:PRO:540:N:4884, V-A:TYR:531:CZ:4794, V-A:ALA:541:CA:4890, V-A:ILE:538:CA:4860, H-A:TYR:539:N:4870, V-A:LEU:363:CD1:3189, V-A:ILE:538:C:4858, H-A:ALA:541:N:4891, H-A:ASP:366:OD1:3214, V-A:ILE:538:CB:4862, V-A:VAL:537:C:4850"]

$$$$
4bc_Grossjean_2025
     RDKit          3D

 26 28  0  0  0  0  0  0  0  0999 V2000
  124.0950  129.5470   66.3600 C   0  0  0  0  0  0  0  0  0  0  0  0
  123.9890  130.5790   65.3840 O   0  0  0  0  0  0  0  0  0  0  0  0
  124.9710  130.6970   64.4190 C   0  0  0  0  0  0  0  0  0  0  0  0
  124.6380  131.4270   63.2790 C   0  0  0  0  0  0  0  0  0  0  0  0
  125.5620  131.6000   62.2520 C   0  0  0  0  0  0  0  0  0  0  0  0
  126.8410  131.0490   62.3580 C   0  0  0  0  0  0  0  0  0  0  0  0
  127.7010  131.2630   61.2650 N   0  0  0  0  0  0  0  0  0  0  0  0
  128.9690  131.7430   61.2530 C   0  0  0  0  0  0  0  0  0  0  0  0
  129.5710  132.1170   62.2600 O   0  0  0  0  0  0  0  0  0  0  0  0
  129.6060  131.8050   59.9340 C   0  0  0  0  0  0  0  0  0  0  0  0
  128.8770  132.7530   58.6410 S   0  0  0  0  0  0  0  0  0  0  0  0
  130.1560  132.3130   57.5340 C   0  0  0  0  0  0  0  0  0  0  0  0
  130.1740  132.7600   56.2790 N   0  0  0  0  0  0  0  0  0  0  0  0
  131.2140  132.3490   55.5170 C   0  0  0  0  0  0  0  0  0  0  0  0
  131.2190  132.8730   54.0930 C   0  0  0  0  0  0  0  0  0  0  0  0
  132.2270  131.5110   55.9760 C   0  0  0  0  0  0  0  0  0  0  0  0
  132.2130  131.0370   57.2980 C   0  0  0  0  0  0  0  0  0  0  0  0
  133.3480  130.1140   57.7560 C   0  0  0  0  0  0  0  0  0  0  0  0
  134.2470  129.8790   56.7980 F   0  0  0  0  0  0  0  0  0  0  0  0
  133.9920  130.6690   58.7820 F   0  0  0  0  0  0  0  0  0  0  0  0
  132.8490  128.9370   58.1330 F   0  0  0  0  0  0  0  0  0  0  0  0
  131.1300  131.4530   58.1280 C   0  0  0  0  0  0  0  0  0  0  0  0
  130.7880  131.1830   59.5040 C   0  0  0  0  0  0  0  0  0  0  0  0
  131.5560  130.3860   60.3150 N   0  0  0  0  0  0  0  0  0  0  0  0
  127.1790  130.3020   63.4960 C   0  0  0  0  0  0  0  0  0  0  0  0
  126.2520  130.1310   64.5200 C   0  0  0  0  0  0  0  0  0  0  0  0
  1  2  1  0
  2  3  1  0
  3  4  2  0
  4  5  1  0
  5  6  2  0
  6  7  1  0
  7  8  1  0
  8  9  2  0
  8 10  1  0
 10 11  1  0
 11 12  1  0
 12 13  2  0
 13 14  1  0
 14 15  1  0
 14 16  2  0
 16 17  1  0
 17 18  1  0
 18 19  1  0
 18 20  1  0
 18 21  1  0
 17 22  2  0
 22 23  1  0
 23 24  1  0
  6 25  1  0
 25 26  2  0
 26  3  1  0
 23 10  2  0
 22 12  1  0
M  END
>  <Binding energies>  (49) 
[-7.08]

>  <Ligand effiencies>  (49) 
[-0.24413793103448275]

>  <Interactions>  (49) 
["V-B:ARG:545:CD:9895, V-A:PRO:540:CB:4885, V-A:LEU:363:CA:3185, V-A:ASN:362:C:3172, H-A:GLU:543:OE1:4909, V-A:ASP:366:CG:3213, V-A:PRO:540:CA:4883, V-A:LEU:363:CB:3187, V-B:ARG:545:CG:9894, V-A:TYR:539:CD2:4874, V-A:TYR:539:CE2:4876, V-A:ILE:538:CD1:4865, V-A:TYR:539:CG:4872, V-A:TYR:539:C:4867, V-A:ASP:366:CB:3212, V-A:TYR:531:CE2:4793, V-A:PRO:540:N:4884, V-A:TYR:531:CZ:4794, V-B:ARG:545:CZ:9898, V-B:GLY:454:CA:9020, V-A:ILE:538:CA:4860, H-A:TYR:539:N:4870, V-A:ILE:538:CG2:4863, V-A:LEU:363:CD1:3189, H-B:GLY:454:N:9021, H-B:TYR:484:OH:9319, V-A:ILE:538:C:4858, H-A:ALA:541:N:4891, H-A:ASP:366:OD1:3214, V-A:ILE:538:CB:4862, V-A:VAL:537:C:4850, V-A:ILE:538:CG1:4864, V-A:LEU:363:CG:3188, V-A:LEU:363:C:3183"]

$$$$
4bf_Grossjean_2025
     RDKit          3D

 24 26  0  0  0  0  0  0  0  0999 V2000
  127.9710  130.3290   64.7110 C   0  0  0  0  0  0  0  0  0  0  0  0
  128.3760  129.0560   65.4340 C   0  0  0  0  0  0  0  0  0  0  0  0
  128.7060  127.9040   64.7260 C   0  0  0  0  0  0  0  0  0  0  0  0
  129.0750  126.7330   65.4060 C   0  0  0  0  0  0  0  0  0  0  0  0
  129.4280  125.4890   64.5850 C   0  0  0  0  0  0  0  0  0  0  0  0
  130.7410  125.2490   64.5370 F   0  0  0  0  0  0  0  0  0  0  0  0
  128.8450  124.4150   65.1190 F   0  0  0  0  0  0  0  0  0  0  0  0
  129.0050  125.6410   63.3290 F   0  0  0  0  0  0  0  0  0  0  0  0
  129.0930  126.7850   66.8320 C   0  0  0  0  0  0  0  0  0  0  0  0
  129.4100  125.8100   67.8460 C   0  0  0  0  0  0  0  0  0  0  0  0
  129.7920  124.5270   67.5440 N   0  0  0  0  0  0  0  0  0  0  0  0
  129.2960  126.2890   69.1610 C   0  0  0  0  0  0  0  0  0  0  0  0
  129.5090  125.5670   70.4190 C   0  0  0  0  0  0  0  0  0  0  0  0
  129.4790  126.1620   71.4970 O   0  0  0  0  0  0  0  0  0  0  0  0
  129.7180  124.2330   70.2940 N   0  0  0  0  0  0  0  0  0  0  0  0
  129.9990  123.2740   71.2850 C   0  0  0  0  0  0  0  0  0  0  0  0
  131.1570  123.2410   72.0820 C   0  0  0  0  0  0  0  0  0  0  0  0
  131.3200  122.2200   73.0220 C   0  0  0  0  0  0  0  0  0  0  0  0
  130.3210  121.2530   73.1390 C   0  0  0  0  0  0  0  0  0  0  0  0
  129.1990  121.2590   72.3770 N   0  0  0  0  0  0  0  0  0  0  0  0
  129.0550  122.2570   71.4670 C   0  0  0  0  0  0  0  0  0  0  0  0
  128.7850  127.9760   69.1810 S   0  0  0  0  0  0  0  0  0  0  0  0
  128.7330  128.0300   67.4350 C   0  0  0  0  0  0  0  0  0  0  0  0
  128.3840  129.1390   66.7840 N   0  0  0  0  0  0  0  0  0  0  0  0
  1  2  1  0
  2  3  2  0
  3  4  1  0
  4  5  1  0
  5  6  1  0
  5  7  1  0
  5  8  1  0
  4  9  2  0
  9 10  1  0
 10 11  1  0
 10 12  2  0
 12 13  1  0
 13 14  2  0
 13 15  1  0
 15 16  1  0
 16 17  2  0
 17 18  1  0
 18 19  2  0
 19 20  1  0
 20 21  2  0
 12 22  1  0
 22 23  1  0
 23 24  2  0
 24  2  1  0
 23  9  1  0
 21 16  1  0
M  END
>  <Binding energies>  (50) 
[-6.54]

>  <Ligand effiencies>  (50) 
[-0.24222222222222223]

>  <Interactions>  (50) 
["V-B:GLU:543:C:9874, V-B:GLU:543:CB:9878, V-B:HIS:456:CE1:9040, V-B:GLU:543:CD:9880, V-A:GLU:543:CD:4908, H-A:TYR:484:OH:4348, V-A:HIS:456:CE1:4069, V-B:GLU:543:CG:9879, V-A:TYR:484:CE1:4345, V-A:TYR:484:CZ:4347, V-A:HIS:456:CG:4066, H-A:HIS:456:NE2:4070, V-A:HIS:456:CD2:4068, V-A:HIS:456:CB:4065, V-A:ASP:473:CB:4239, V-A:ASP:473:CG:4240, H-B:LYS:547:NZ:9923, V-B:GLU:543:CA:9876, V-A:TYR:484:CD2:4344, V-A:GLU:543:CB:4906, V-A:TYR:484:CD1:4343, V-A:TYR:484:CG:4342, V-A:TYR:484:CB:4341, V-A:TYR:484:CE2:4346, V-B:LYS:547:CE:9922, V-B:GLY:544:CA:9886, H-B:GLU:543:O:9875, H-A:HIS:456:ND1:4067"]

$$$$
4bh_Grossjean_2025
     RDKit          3D

 31 33  0  0  0  0  0  0  0  0999 V2000
  130.7770  121.5700   73.4270 C   0  0  0  0  0  0  0  0  0  0  0  0
  131.0830  122.5120   72.4050 O   0  0  0  0  0  0  0  0  0  0  0  0
  130.6590  123.8220   72.5400 C   0  0  0  0  0  0  0  0  0  0  0  0
  129.5980  124.3810   71.8100 C   0  0  0  0  0  0  0  0  0  0  0  0
  129.2250  125.7130   71.9960 C   0  0  0  0  0  0  0  0  0  0  0  0
  128.0420  126.2890   71.2270 C   0  0  0  0  0  0  0  0  0  0  0  0
  128.2180  126.2600   69.7750 N   0  0  0  0  0  0  0  0  0  0  0  0
  128.9400  127.1440   69.0570 C   0  0  0  0  0  0  0  0  0  0  0  0
  129.5030  128.1130   69.5710 O   0  0  0  0  0  0  0  0  0  0  0  0
  128.9820  126.9170   67.6120 C   0  0  0  0  0  0  0  0  0  0  0  0
  128.4710  128.1860   66.5040 S   0  0  0  0  0  0  0  0  0  0  0  0
  128.7670  127.1580   65.1220 C   0  0  0  0  0  0  0  0  0  0  0  0
  128.5540  127.5870   63.8780 N   0  0  0  0  0  0  0  0  0  0  0  0
  128.8210  126.7010   62.8910 C   0  0  0  0  0  0  0  0  0  0  0  0
  128.5700  127.2100   61.4820 C   0  0  0  0  0  0  0  0  0  0  0  0
  129.2940  125.4110   63.1140 C   0  0  0  0  0  0  0  0  0  0  0  0
  129.5180  124.9530   64.4220 C   0  0  0  0  0  0  0  0  0  0  0  0
  130.0420  123.5260   64.6180 C   0  0  0  0  0  0  0  0  0  0  0  0
  129.3400  122.8300   65.5160 F   0  0  0  0  0  0  0  0  0  0  0  0
  129.9820  122.8610   63.4650 F   0  0  0  0  0  0  0  0  0  0  0  0
  131.3050  123.5630   65.0400 F   0  0  0  0  0  0  0  0  0  0  0  0
  129.2440  125.8610   65.4870 C   0  0  0  0  0  0  0  0  0  0  0  0
  129.3430  125.7490   66.9210 C   0  0  0  0  0  0  0  0  0  0  0  0
  129.7620  124.6050   67.5500 N   0  0  0  0  0  0  0  0  0  0  0  0
  129.8970  126.4900   72.9410 C   0  0  0  0  0  0  0  0  0  0  0  0
  130.9660  125.9600   73.6790 C   0  0  0  0  0  0  0  0  0  0  0  0
  131.6850  126.6750   74.6200 O   0  0  0  0  0  0  0  0  0  0  0  0
  133.0840  126.8630   74.4340 C   0  0  0  0  0  0  0  0  0  0  0  0
  131.3410  124.6250   73.4650 C   0  0  0  0  0  0  0  0  0  0  0  0
  132.3750  124.0870   74.1950 O   0  0  0  0  0  0  0  0  0  0  0  0
  132.0740  123.9000   75.5710 C   0  0  0  0  0  0  0  0  0  0  0  0
  1  2  1  0
  2  3  1  0
  3  4  2  0
  4  5  1  0
  5  6  1  0
  6  7  1  0
  7  8  1  0
  8  9  2  0
  8 10  1  0
 10 11  1  0
 11 12  1  0
 12 13  2  0
 13 14  1  0
 14 15  1  0
 14 16  2  0
 16 17  1  0
 17 18  1  0
 18 19  1  0
 18 20  1  0
 18 21  1  0
 17 22  2  0
 22 23  1  0
 23 24  1  0
  5 25  2  0
 25 26  1  0
 26 27  1  0
 27 28  1  0
 26 29  2  0
 29 30  1  0
 30 31  1  0
 29  3  1  0
 23 10  2  0
 22 12  1  0
M  END
>  <Binding energies>  (51) 
[-6.69]

>  <Ligand effiencies>  (51) 
[-0.19676470588235295]

>  <Interactions>  (51) 
["V-B:GLU:543:C:9874, V-B:GLU:543:CB:9878, V-B:GLY:544:C:9884, V-B:HIS:456:CE1:9040, V-B:GLU:543:CD:9880, V-A:GLU:543:CD:4908, V-B:ALA:541:CB:9864, H-A:TYR:484:OH:4348, V-A:HIS:456:CE1:4069, V-B:GLU:543:CG:9879, V-A:TYR:484:CE1:4345, V-A:TYR:484:CZ:4347, V-A:HIS:456:CG:4066, H-A:HIS:456:NE2:4070, V-A:HIS:456:CD2:4068, V-A:HIS:456:CB:4065, V-A:LYS:547:CD:4949, V-A:LYS:547:CE:4950, H-A:LYS:547:NZ:4951, V-A:ASP:473:CB:4239, V-A:ASP:473:CG:4240, H-B:LYS:547:NZ:9923, H-B:HIS:456:NE2:9041, V-B:GLU:543:CA:9876, V-A:TYR:484:CD2:4344, V-A:TYR:484:CG:4342, V-A:TYR:484:CB:4341, H-B:GLU:543:O:9875, H-B:GLY:544:O:9885, H-A:HIS:456:ND1:4067"]

$$$$
4bi_Grossjean_2025
     RDKit          3D

 23 25  0  0  0  0  0  0  0  0999 V2000
  127.9350  130.2860   65.2040 C   0  0  0  0  0  0  0  0  0  0  0  0
  128.3620  128.9870   65.8640 C   0  0  0  0  0  0  0  0  0  0  0  0
  128.7370  127.8840   65.1010 C   0  0  0  0  0  0  0  0  0  0  0  0
  129.1340  126.6900   65.7260 C   0  0  0  0  0  0  0  0  0  0  0  0
  129.5450  125.5060   64.8450 C   0  0  0  0  0  0  0  0  0  0  0  0
  129.0390  124.3430   65.2620 F   0  0  0  0  0  0  0  0  0  0  0  0
  129.1190  125.7010   63.5970 F   0  0  0  0  0  0  0  0  0  0  0  0
  130.8730  125.3850   64.8430 F   0  0  0  0  0  0  0  0  0  0  0  0
  129.1280  126.6660   67.1520 C   0  0  0  0  0  0  0  0  0  0  0  0
  129.4580  125.6470   68.1180 C   0  0  0  0  0  0  0  0  0  0  0  0
  129.8720  124.3900   67.7570 N   0  0  0  0  0  0  0  0  0  0  0  0
  129.3260  126.0580   69.4550 C   0  0  0  0  0  0  0  0  0  0  0  0
  129.5630  125.2840   70.6760 C   0  0  0  0  0  0  0  0  0  0  0  0
  129.6800  125.8480   71.7660 O   0  0  0  0  0  0  0  0  0  0  0  0
  129.6210  123.9390   70.5110 N   0  0  0  0  0  0  0  0  0  0  0  0
  129.8200  122.9740   71.4900 C   0  0  0  0  0  0  0  0  0  0  0  0
  130.9480  122.9430   72.3100 C   0  0  0  0  0  0  0  0  0  0  0  0
  130.7650  121.8520   73.1290 C   0  0  0  0  0  0  0  0  0  0  0  0
  129.5880  121.2580   72.8200 O   0  0  0  0  0  0  0  0  0  0  0  0
  128.9990  121.9790   71.7780 N   0  0  0  0  0  0  0  0  0  0  0  0
  128.7590  127.7240   69.5560 S   0  0  0  0  0  0  0  0  0  0  0  0
  128.7220  127.8650   67.8140 C   0  0  0  0  0  0  0  0  0  0  0  0
  128.3480  128.9970   67.2170 N   0  0  0  0  0  0  0  0  0  0  0  0
  1  2  1  0
  2  3  2  0
  3  4  1  0
  4  5  1  0
  5  6  1  0
  5  7  1  0
  5  8  1  0
  4  9  2  0
  9 10  1  0
 10 11  1  0
 10 12  2  0
 12 13  1  0
 13 14  2  0
 13 15  1  0
 15 16  1  0
 16 17  1  0
 17 18  2  0
 18 19  1  0
 19 20  1  0
 12 21  1  0
 21 22  1  0
 22 23  2  0
 23  2  1  0
 22  9  1  0
 20 16  2  0
M  END
>  <Binding energies>  (52) 
[-7.27]

>  <Ligand effiencies>  (52) 
[-0.2796153846153846]

>  <Interactions>  (52) 
["V-B:GLU:543:C:9874, V-B:GLU:543:CB:9878, V-B:HIS:456:CE1:9040, V-B:GLU:543:CD:9880, V-A:GLU:543:CD:4908, V-A:GLU:543:CG:4907, H-A:TYR:484:OH:4348, V-A:HIS:456:CE1:4069, V-B:GLU:543:CG:9879, V-A:TYR:484:CE1:4345, V-A:TYR:484:CZ:4347, V-A:HIS:456:CG:4066, H-A:HIS:456:NE2:4070, V-A:HIS:456:CD2:4068, V-A:HIS:456:CB:4065, V-A:ASP:473:CB:4239, H-B:LYS:547:NZ:9923, V-B:GLU:543:CA:9876, V-A:TYR:484:CD2:4344, V-A:GLU:543:CB:4906, V-A:TYR:484:CD1:4343, V-A:TYR:484:CG:4342, V-A:TYR:484:CB:4341, V-A:TYR:484:CE2:4346, H-B:GLU:543:O:9875, H-A:HIS:456:ND1:4067"]

$$$$
4bj_Grossjean_2025
     RDKit          3D

 23 25  0  0  0  0  0  0  0  0999 V2000
  127.9720  130.3000   65.4330 C   0  0  0  0  0  0  0  0  0  0  0  0
  128.3970  128.9950   66.0820 C   0  0  0  0  0  0  0  0  0  0  0  0
  128.7780  127.9000   65.3100 C   0  0  0  0  0  0  0  0  0  0  0  0
  129.1620  126.6980   65.9230 C   0  0  0  0  0  0  0  0  0  0  0  0
  129.5700  125.5190   65.0310 C   0  0  0  0  0  0  0  0  0  0  0  0
  130.8920  125.3400   64.9760 F   0  0  0  0  0  0  0  0  0  0  0  0
  129.0330  124.3930   65.4980 F   0  0  0  0  0  0  0  0  0  0  0  0
  129.1430  125.7290   63.7860 F   0  0  0  0  0  0  0  0  0  0  0  0
  129.1460  126.6580   67.3490 C   0  0  0  0  0  0  0  0  0  0  0  0
  129.4630  125.6260   68.3060 C   0  0  0  0  0  0  0  0  0  0  0  0
  129.8740  124.3710   67.9340 N   0  0  0  0  0  0  0  0  0  0  0  0
  129.3190  126.0220   69.6450 C   0  0  0  0  0  0  0  0  0  0  0  0
  129.5430  125.2340   70.8590 C   0  0  0  0  0  0  0  0  0  0  0  0
  129.4420  125.7500   71.9750 O   0  0  0  0  0  0  0  0  0  0  0  0
  129.8470  123.9280   70.6580 N   0  0  0  0  0  0  0  0  0  0  0  0
  130.0930  122.9690   71.6320 C   0  0  0  0  0  0  0  0  0  0  0  0
  129.3440  121.9390   71.9590 N   0  0  0  0  0  0  0  0  0  0  0  0
  129.8900  121.2310   72.9280 C   0  0  0  0  0  0  0  0  0  0  0  0
  131.1130  121.6870   73.4100 C   0  0  0  0  0  0  0  0  0  0  0  0
  131.5630  123.1240   72.5410 S   0  0  0  0  0  0  0  0  0  0  0  0
  128.7610  127.6890   69.7620 S   0  0  0  0  0  0  0  0  0  0  0  0
  128.7390  127.8510   68.0210 C   0  0  0  0  0  0  0  0  0  0  0  0
  128.3720  128.9900   67.4350 N   0  0  0  0  0  0  0  0  0  0  0  0
  1  2  1  0
  2  3  2  0
  3  4  1  0
  4  5  1  0
  5  6  1  0
  5  7  1  0
  5  8  1  0
  4  9  2  0
  9 10  1  0
 10 11  1  0
 10 12  2  0
 12 13  1  0
 13 14  2  0
 13 15  1  0
 15 16  1  0
 16 17  2  0
 17 18  1  0
 18 19  2  0
 19 20  1  0
 12 21  1  0
 21 22  1  0
 22 23  2  0
 23  2  1  0
 22  9  1  0
 20 16  1  0
M  END
>  <Binding energies>  (53) 
[-6.43]

>  <Ligand effiencies>  (53) 
[-0.24730769230769228]

>  <Interactions>  (53) 
["V-B:GLU:543:C:9874, V-B:GLU:543:CB:9878, V-B:HIS:456:CE1:9040, V-B:GLU:543:CD:9880, V-A:GLU:543:CD:4908, V-A:GLU:543:CG:4907, H-A:TYR:484:OH:4348, V-A:HIS:456:CE1:4069, V-B:GLU:543:CG:9879, V-A:TYR:484:CE1:4345, V-A:TYR:484:CZ:4347, V-A:HIS:456:CG:4066, H-A:HIS:456:NE2:4070, V-A:HIS:456:CD2:4068, V-A:HIS:456:CB:4065, V-A:ASP:473:CB:4239, V-A:ASP:473:CG:4240, H-B:LYS:547:NZ:9923, H-B:HIS:456:NE2:9041, V-B:GLU:543:CA:9876, V-A:TYR:484:CD2:4344, V-A:GLU:543:CB:4906, V-A:TYR:484:CD1:4343, V-A:TYR:484:CG:4342, V-A:TYR:484:CB:4341, V-A:TYR:484:CE2:4346, V-B:LYS:547:CE:9922, H-B:GLU:543:O:9875, H-A:HIS:456:ND1:4067"]

$$$$
4bk_Grossjean_2025
     RDKit          3D

 28 29  0  0  0  0  0  0  0  0999 V2000
  135.1350  127.2500   73.9440 C   0  0  0  0  0  0  0  0  0  0  0  0
  133.7830  126.8550   74.1170 O   0  0  0  0  0  0  0  0  0  0  0  0
  133.6260  125.7410   74.9860 C   0  0  0  0  0  0  0  0  0  0  0  0
  132.1340  125.4190   75.1420 C   0  0  0  0  0  0  0  0  0  0  0  0
  131.3780  126.6180   75.0290 O   0  0  0  0  0  0  0  0  0  0  0  0
  130.0300  126.4880   75.4590 C   0  0  0  0  0  0  0  0  0  0  0  0
  129.0950  126.6050   74.2470 C   0  0  0  0  0  0  0  0  0  0  0  0
  129.1320  125.3920   73.5070 O   0  0  0  0  0  0  0  0  0  0  0  0
  129.4500  125.5670   72.1320 C   0  0  0  0  0  0  0  0  0  0  0  0
  128.2420  126.1800   71.4030 C   0  0  0  0  0  0  0  0  0  0  0  0
  128.3620  126.1570   69.9450 N   0  0  0  0  0  0  0  0  0  0  0  0
  128.9730  127.1000   69.1980 C   0  0  0  0  0  0  0  0  0  0  0  0
  129.5190  128.0860   69.6970 O   0  0  0  0  0  0  0  0  0  0  0  0
  128.9610  126.8830   67.7500 C   0  0  0  0  0  0  0  0  0  0  0  0
  128.4550  128.1770   66.6670 S   0  0  0  0  0  0  0  0  0  0  0  0
  128.7450  127.1760   65.2650 C   0  0  0  0  0  0  0  0  0  0  0  0
  128.5270  127.6270   64.0300 N   0  0  0  0  0  0  0  0  0  0  0  0
  128.7900  126.7610   63.0250 C   0  0  0  0  0  0  0  0  0  0  0  0
  128.5360  127.2970   61.6280 C   0  0  0  0  0  0  0  0  0  0  0  0
  129.2610  125.4650   63.2230 C   0  0  0  0  0  0  0  0  0  0  0  0
  129.4910  124.9820   64.5210 C   0  0  0  0  0  0  0  0  0  0  0  0
  130.0050  123.5490   64.6880 C   0  0  0  0  0  0  0  0  0  0  0  0
  129.9980  122.8550   63.5480 F   0  0  0  0  0  0  0  0  0  0  0  0
  131.2600  123.5700   65.1360 F   0  0  0  0  0  0  0  0  0  0  0  0
  129.2390  122.8940   65.5590 F   0  0  0  0  0  0  0  0  0  0  0  0
  129.2250  125.8720   65.6040 C   0  0  0  0  0  0  0  0  0  0  0  0
  129.3420  125.7380   67.0350 C   0  0  0  0  0  0  0  0  0  0  0  0
  129.7840  124.5890   67.6390 N   0  0  0  0  0  0  0  0  0  0  0  0
  1  2  1  0
  2  3  1  0
  3  4  1  0
  4  5  1  0
  5  6  1  0
  6  7  1  0
  7  8  1  0
  8  9  1  0
  9 10  1  0
 10 11  1  0
 11 12  1  0
 12 13  2  0
 12 14  1  0
 14 15  1  0
 15 16  1  0
 16 17  2  0
 17 18  1  0
 18 19  1  0
 18 20  2  0
 20 21  1  0
 21 22  1  0
 22 23  1  0
 22 24  1  0
 22 25  1  0
 21 26  2  0
 26 27  1  0
 27 28  1  0
 27 14  2  0
 26 16  1  0
M  END
>  <Binding energies>  (54) 
[-6.13]

>  <Ligand effiencies>  (54) 
[-0.19774193548387095]

>  <Interactions>  (54) 
["V-B:GLU:543:C:9874, V-B:GLU:543:CB:9878, V-B:GLY:544:C:9884, V-B:HIS:456:CE1:9040, V-B:GLU:543:CD:9880, V-A:GLU:543:CD:4908, V-B:ALA:541:CB:9864, H-A:TYR:484:OH:4348, V-A:HIS:456:CE1:4069, V-B:GLU:543:CG:9879, V-A:TYR:484:CE1:4345, V-A:TYR:484:CZ:4347, V-A:VAL:458:CG2:4087, H-A:HIS:456:NE2:4070, V-A:HIS:456:CD2:4068, V-A:VAL:457:C:4073, V-A:HIS:456:CB:4065, V-A:LYS:547:CD:4949, H-A:LYS:547:NZ:4951, V-A:HIS:456:C:4061, H-B:LYS:547:NZ:9923, V-A:HIS:456:CA:4063, H-B:HIS:456:NE2:9041, V-B:GLU:543:CA:9876, V-A:LYS:547:CG:4948, H-B:GLU:543:O:9875, H-B:GLY:544:O:9885, H-A:HIS:456:ND1:4067, V-A:VAL:457:CA:4075, V-A:ARG:545:C:4917, V-A:LYS:547:CB:4947"]

$$$$
4cd_Grossjean_2025
     RDKit          3D

 29 32  0  0  0  0  0  0  0  0999 V2000
  129.7500  124.2460   66.9560 N   0  0  0  0  0  0  0  0  0  0  0  0
  129.4960  124.9270   65.7930 C   0  0  0  0  0  0  0  0  0  0  0  0
  129.7800  124.4070   64.5200 C   0  0  0  0  0  0  0  0  0  0  0  0
  130.3870  123.1180   64.1740 C   0  0  0  0  0  0  0  0  0  0  0  0
  130.8230  122.3740   65.0520 O   0  0  0  0  0  0  0  0  0  0  0  0
  130.4170  122.8270   62.8500 N   0  0  0  0  0  0  0  0  0  0  0  0
  130.9670  121.7140   62.1890 C   0  0  0  0  0  0  0  0  0  0  0  0
  132.3210  121.8090   61.8530 C   0  0  0  0  0  0  0  0  0  0  0  0
  132.9600  120.7540   61.2090 C   0  0  0  0  0  0  0  0  0  0  0  0
  132.2480  119.5960   60.9060 C   0  0  0  0  0  0  0  0  0  0  0  0
  130.9030  119.4820   61.2480 C   0  0  0  0  0  0  0  0  0  0  0  0
  130.2590  120.5370   61.8920 C   0  0  0  0  0  0  0  0  0  0  0  0
  129.3170  125.5410   63.2520 S   0  0  0  0  0  0  0  0  0  0  0  0
  128.7570  126.7020   64.4330 C   0  0  0  0  0  0  0  0  0  0  0  0
  128.2500  127.8760   64.0660 N   0  0  0  0  0  0  0  0  0  0  0  0
  127.8540  128.7180   65.0560 C   0  0  0  0  0  0  0  0  0  0  0  0
  127.2880  130.0360   64.6110 C   0  0  0  0  0  0  0  0  0  0  0  0
  125.9400  130.1480   64.2330 C   0  0  0  0  0  0  0  0  0  0  0  0
  125.4090  131.3670   63.8210 C   0  0  0  0  0  0  0  0  0  0  0  0
  126.2210  132.4950   63.7810 C   0  0  0  0  0  0  0  0  0  0  0  0
  127.5580  132.4130   64.1530 C   0  0  0  0  0  0  0  0  0  0  0  0
  128.0850  131.1930   64.5670 C   0  0  0  0  0  0  0  0  0  0  0  0
  127.9510  128.3700   66.4060 C   0  0  0  0  0  0  0  0  0  0  0  0
  128.4820  127.1320   66.8040 C   0  0  0  0  0  0  0  0  0  0  0  0
  128.5630  126.8150   68.3020 C   0  0  0  0  0  0  0  0  0  0  0  0
  129.6320  126.0840   68.6250 F   0  0  0  0  0  0  0  0  0  0  0  0
  128.6300  127.9490   68.9990 F   0  0  0  0  0  0  0  0  0  0  0  0
  127.4830  126.1300   68.6770 F   0  0  0  0  0  0  0  0  0  0  0  0
  128.9110  126.2460   65.7750 C   0  0  0  0  0  0  0  0  0  0  0  0
  1  2  1  0
  2  3  2  0
  3  4  1  0
  4  5  2  0
  4  6  1  0
  6  7  1  0
  7  8  2  0
  8  9  1  0
  9 10  2  0
 10 11  1  0
 11 12  2  0
  3 13  1  0
 13 14  1  0
 14 15  2  0
 15 16  1  0
 16 17  1  0
 17 18  2  0
 18 19  1  0
 19 20  2  0
 20 21  1  0
 21 22  2  0
 16 23  2  0
 23 24  1  0
 24 25  1  0
 25 26  1  0
 25 27  1  0
 25 28  1  0
 24 29  2  0
 29  2  1  0
 12  7  1  0
 29 14  1  0
 22 17  1  0
M  END
>  <Binding energies>  (55) 
[-7.07]

>  <Ligand effiencies>  (55) 
[-0.2209375]

>  <Interactions>  (55) 
["V-B:GLU:543:C:9874, V-A:ALA:541:CB:4892, V-B:GLU:543:CB:9878, V-B:GLY:544:C:9884, V-B:HIS:456:CE1:9040, V-B:LEU:475:CD1:9229, V-B:GLU:543:CD:9880, V-A:GLU:543:CD:4908, V-B:ALA:541:CB:9864, H-A:TYR:484:OH:4348, V-A:HIS:456:CE1:4069, V-B:GLU:543:CG:9879, V-A:LEU:475:CD1:4258, V-A:TYR:484:CE1:4345, V-A:TYR:484:CZ:4347, V-B:TYR:539:CD2:9846, V-A:ILE:369:CD1:3239, V-A:HIS:456:CD2:4068, V-B:GLU:543:CA:9876, V-A:GLU:543:CB:4906, V-A:PRO:482:CB:4326, V-A:PRO:482:CG:4327, V-A:TRP:381:CZ2:3370, V-A:TRP:381:CH2:3372, H-B:GLU:543:O:9875"]

$$$$
4cg_Grossjean_2025
     RDKit          3D

 30 33  0  0  0  0  0  0  0  0999 V2000
  125.5450  125.9810   58.8770 N   0  0  0  0  0  0  0  0  0  0  0  0
  126.5340  125.7320   59.7930 C   0  0  0  0  0  0  0  0  0  0  0  0
  126.9050  126.6450   60.7900 C   0  0  0  0  0  0  0  0  0  0  0  0
  126.3250  127.9550   61.0880 C   0  0  0  0  0  0  0  0  0  0  0  0
  126.0360  128.7490   60.1900 O   0  0  0  0  0  0  0  0  0  0  0  0
  126.1680  128.2480   62.3960 N   0  0  0  0  0  0  0  0  0  0  0  0
  125.5910  129.4840   62.9240 C   0  0  0  0  0  0  0  0  0  0  0  0
  125.2620  129.4130   64.4110 C   0  0  0  0  0  0  0  0  0  0  0  0
  124.0320  129.8900   64.8730 C   0  0  0  0  0  0  0  0  0  0  0  0
  123.7150  129.7980   66.2260 C   0  0  0  0  0  0  0  0  0  0  0  0
  124.6250  129.2210   67.1100 C   0  0  0  0  0  0  0  0  0  0  0  0
  125.8450  128.7290   66.6520 C   0  0  0  0  0  0  0  0  0  0  0  0
  126.1620  128.8190   65.3000 C   0  0  0  0  0  0  0  0  0  0  0  0
  128.1910  126.0010   61.8060 S   0  0  0  0  0  0  0  0  0  0  0  0
  128.2410  124.5220   60.8750 C   0  0  0  0  0  0  0  0  0  0  0  0
  129.0910  123.5430   61.1730 N   0  0  0  0  0  0  0  0  0  0  0  0
  129.0540  122.4290   60.3970 C   0  0  0  0  0  0  0  0  0  0  0  0
  130.0270  121.3430   60.7580 C   0  0  0  0  0  0  0  0  0  0  0  0
  129.5770  120.0650   61.1300 C   0  0  0  0  0  0  0  0  0  0  0  0
  130.4740  119.0560   61.4660 C   0  0  0  0  0  0  0  0  0  0  0  0
  131.8420  119.3100   61.4370 C   0  0  0  0  0  0  0  0  0  0  0  0
  132.3160  120.5670   61.0760 C   0  0  0  0  0  0  0  0  0  0  0  0
  131.4150  121.5730   60.7410 C   0  0  0  0  0  0  0  0  0  0  0  0
  128.1760  122.3130   59.3130 C   0  0  0  0  0  0  0  0  0  0  0  0
  127.2760  123.3400   58.9900 C   0  0  0  0  0  0  0  0  0  0  0  0
  126.3420  123.1470   57.7890 C   0  0  0  0  0  0  0  0  0  0  0  0
  126.5550  122.0020   57.1390 F   0  0  0  0  0  0  0  0  0  0  0  0
  125.0740  123.1430   58.2010 F   0  0  0  0  0  0  0  0  0  0  0  0
  126.5180  124.1390   56.9180 F   0  0  0  0  0  0  0  0  0  0  0  0
  127.2960  124.5070   59.8080 C   0  0  0  0  0  0  0  0  0  0  0  0
  1  2  1  0
  2  3  2  0
  3  4  1  0
  4  5  2  0
  4  6  1  0
  6  7  1  0
  7  8  1  0
  8  9  2  0
  9 10  1  0
 10 11  2  0
 11 12  1  0
 12 13  2  0
  3 14  1  0
 14 15  1  0
 15 16  2  0
 16 17  1  0
 17 18  1  0
 18 19  2  0
 19 20  1  0
 20 21  2  0
 21 22  1  0
 22 23  2  0
 17 24  2  0
 24 25  1  0
 25 26  1  0
 26 27  1  0
 26 28  1  0
 26 29  1  0
 25 30  2  0
 30  2  1  0
 13  8  1  0
 30 15  1  0
 23 18  1  0
M  END
>  <Binding energies>  (56) 
[-7.36]

>  <Ligand effiencies>  (56) 
[-0.22303030303030305]

>  <Interactions>  (56) 
["V-B:ARG:545:CD:9895, V-B:HIS:456:CE1:9040, V-B:GLU:543:CD:9880, V-B:ARG:545:CG:9894, H-B:GLU:543:OE1:9881, H-B:ASP:366:OD1:8185, V-B:ASP:366:CG:8184, V-B:ARG:545:CZ:9898, V-B:GLY:454:CA:9020, H-B:GLU:543:OE2:9882, V-B:ALA:541:CB:9864, V-A:LEU:475:CD1:4258, V-B:PRO:540:N:9856, V-B:TYR:539:CD2:9846, V-B:PRO:540:CA:9855, V-B:TYR:539:C:9839, V-B:TYR:539:CE2:9848, V-B:PRO:540:CD:9859, V-B:PRO:540:CB:9857, V-B:ALA:541:CA:9862, V-A:PRO:482:CB:4326, V-A:PRO:482:CG:4327, V-B:LEU:363:CD1:8160, V-A:TRP:381:CZ2:3370, V-A:TRP:381:CH2:3372, V-B:TYR:539:CA:9841, V-B:TYR:484:CZ:9318, V-B:PRO:540:CG:9858"]

$$$$
4ch_Grossjean_2025
     RDKit          3D

 36 39  0  0  0  0  0  0  0  0999 V2000
  132.3220  126.4680   74.2940 C   0  0  0  0  0  0  0  0  0  0  0  0
  130.9210  126.6510   74.1210 O   0  0  0  0  0  0  0  0  0  0  0  0
  130.2970  126.1020   73.0160 C   0  0  0  0  0  0  0  0  0  0  0  0
  129.7120  126.8600   71.9880 C   0  0  0  0  0  0  0  0  0  0  0  0
  129.1000  126.2370   70.8990 C   0  0  0  0  0  0  0  0  0  0  0  0
  128.4460  127.0760   69.8070 C   0  0  0  0  0  0  0  0  0  0  0  0
  128.5880  126.5230   68.4590 N   0  0  0  0  0  0  0  0  0  0  0  0
  128.9020  127.2270   67.3520 C   0  0  0  0  0  0  0  0  0  0  0  0
  129.1330  128.4380   67.3800 O   0  0  0  0  0  0  0  0  0  0  0  0
  128.9910  126.4610   66.1090 C   0  0  0  0  0  0  0  0  0  0  0  0
  128.6370  127.2360   64.5680 S   0  0  0  0  0  0  0  0  0  0  0  0
  128.9820  125.7610   63.6970 C   0  0  0  0  0  0  0  0  0  0  0  0
  128.8780  125.6950   62.3720 N   0  0  0  0  0  0  0  0  0  0  0  0
  129.1730  124.5070   61.7830 C   0  0  0  0  0  0  0  0  0  0  0  0
  129.0400  124.4650   60.2870 C   0  0  0  0  0  0  0  0  0  0  0  0
  129.8620  125.2580   59.4700 C   0  0  0  0  0  0  0  0  0  0  0  0
  129.7430  125.2240   58.0820 C   0  0  0  0  0  0  0  0  0  0  0  0
  128.7960  124.3950   57.4910 C   0  0  0  0  0  0  0  0  0  0  0  0
  127.9670  123.6020   58.2780 C   0  0  0  0  0  0  0  0  0  0  0  0
  128.0880  123.6400   59.6640 C   0  0  0  0  0  0  0  0  0  0  0  0
  129.5530  123.3870   62.5280 C   0  0  0  0  0  0  0  0  0  0  0  0
  129.6650  123.4440   63.9270 C   0  0  0  0  0  0  0  0  0  0  0  0
  130.0870  122.1790   64.6830 C   0  0  0  0  0  0  0  0  0  0  0  0
  130.1750  121.1040   63.8960 F   0  0  0  0  0  0  0  0  0  0  0  0
  131.2820  122.3640   65.2410 F   0  0  0  0  0  0  0  0  0  0  0  0
  129.1950  121.9030   65.6340 F   0  0  0  0  0  0  0  0  0  0  0  0
  129.3710  124.6890   64.5540 C   0  0  0  0  0  0  0  0  0  0  0  0
  129.3780  125.1240   65.9300 C   0  0  0  0  0  0  0  0  0  0  0  0
  129.7230  124.2980   66.9690 N   0  0  0  0  0  0  0  0  0  0  0  0
  129.0530  124.8440   70.8400 C   0  0  0  0  0  0  0  0  0  0  0  0
  129.6280  124.0610   71.8540 C   0  0  0  0  0  0  0  0  0  0  0  0
  129.6200  122.6780   71.8600 O   0  0  0  0  0  0  0  0  0  0  0  0
  128.5370  121.9830   71.2490 C   0  0  0  0  0  0  0  0  0  0  0  0
  130.2520  124.7030   72.9340 C   0  0  0  0  0  0  0  0  0  0  0  0
  130.8050  123.9490   73.9400 O   0  0  0  0  0  0  0  0  0  0  0  0
  131.9340  123.1850   73.5380 C   0  0  0  0  0  0  0  0  0  0  0  0
  1  2  1  0
  2  3  1  0
  3  4  2  0
  4  5  1  0
  5  6  1  0
  6  7  1  0
  7  8  1  0
  8  9  2  0
  8 10  1  0
 10 11  1  0
 11 12  1  0
 12 13  2  0
 13 14  1  0
 14 15  1  0
 15 16  2  0
 16 17  1  0
 17 18  2  0
 18 19  1  0
 19 20  2  0
 14 21  2  0
 21 22  1  0
 22 23  1  0
 23 24  1  0
 23 25  1  0
 23 26  1  0
 22 27  2  0
 27 28  1  0
 28 29  1  0
  5 30  2  0
 30 31  1  0
 31 32  1  0
 32 33  1  0
 31 34  2  0
 34 35  1  0
 35 36  1  0
 34  3  1  0
 28 10  2  0
 27 12  1  0
 20 15  1  0
M  END
>  <Binding energies>  (57) 
[-7.11]

>  <Ligand effiencies>  (57) 
[-0.1823076923076923]

>  <Interactions>  (57) 
["V-B:GLU:543:C:9874, V-B:GLU:543:CB:9878, V-B:HIS:456:CE1:9040, V-B:GLU:543:CD:9880, V-A:GLU:543:CD:4908, V-B:TYR:539:CZ:9849, V-B:ALA:541:CB:9864, H-A:TYR:484:OH:4348, V-A:HIS:456:CE1:4069, V-B:GLU:543:CG:9879, V-A:LEU:475:CD1:4258, V-A:TYR:484:CE1:4345, V-A:TYR:484:CZ:4347, V-B:TYR:539:CE2:9848, V-A:HIS:456:CG:4066, V-A:HIS:456:CD2:4068, V-A:HIS:456:CB:4065, V-A:LYS:547:CD:4949, V-A:LYS:547:CE:4950, H-A:LYS:547:NZ:4951, V-A:ASP:473:CB:4239, V-A:ASP:473:CG:4240, H-B:LYS:547:NZ:9923, V-B:GLU:543:CA:9876, V-A:TYR:484:CD1:4343, V-A:TYR:484:CG:4342, V-A:TYR:484:CB:4341, V-B:LYS:547:CE:9922, V-A:LEU:475:CD2:4259, V-B:GLY:544:CA:9886, H-B:GLU:543:O:9875, V-A:LEU:475:CG:4257"]

$$$$
4cj_Grossjean_2025
     RDKit          3D

 28 31  0  0  0  0  0  0  0  0999 V2000
  129.9210  124.3130   67.8030 N   0  0  0  0  0  0  0  0  0  0  0  0
  129.3410  125.5110   68.1320 C   0  0  0  0  0  0  0  0  0  0  0  0
  129.1290  125.9250   69.4580 C   0  0  0  0  0  0  0  0  0  0  0  0
  129.4630  125.2220   70.6990 C   0  0  0  0  0  0  0  0  0  0  0  0
  129.5890  125.8390   71.7590 O   0  0  0  0  0  0  0  0  0  0  0  0
  129.6260  123.8800   70.5820 N   0  0  0  0  0  0  0  0  0  0  0  0
  129.9430  122.9880   71.5980 C   0  0  0  0  0  0  0  0  0  0  0  0
  129.2910  121.9010   71.9490 N   0  0  0  0  0  0  0  0  0  0  0  0
  129.8790  121.2870   72.9570 C   0  0  0  0  0  0  0  0  0  0  0  0
  131.0400  121.8800   73.4460 C   0  0  0  0  0  0  0  0  0  0  0  0
  131.3700  123.3190   72.5270 S   0  0  0  0  0  0  0  0  0  0  0  0
  128.3770  127.5170   69.5150 S   0  0  0  0  0  0  0  0  0  0  0  0
  128.3500  127.6160   67.7700 C   0  0  0  0  0  0  0  0  0  0  0  0
  127.8600  128.6820   67.1430 N   0  0  0  0  0  0  0  0  0  0  0  0
  127.8880  128.6730   65.7860 C   0  0  0  0  0  0  0  0  0  0  0  0
  127.3400  129.8970   65.1100 C   0  0  0  0  0  0  0  0  0  0  0  0
  126.0050  129.9410   64.6760 C   0  0  0  0  0  0  0  0  0  0  0  0
  125.4920  131.0700   64.0430 C   0  0  0  0  0  0  0  0  0  0  0  0
  126.3100  132.1750   63.8320 C   0  0  0  0  0  0  0  0  0  0  0  0
  127.6360  132.1580   64.2500 C   0  0  0  0  0  0  0  0  0  0  0  0
  128.1440  131.0270   64.8840 C   0  0  0  0  0  0  0  0  0  0  0  0
  128.3860  127.5830   65.0650 C   0  0  0  0  0  0  0  0  0  0  0  0
  128.9030  126.4520   65.7160 C   0  0  0  0  0  0  0  0  0  0  0  0
  129.4360  125.2940   64.8640 C   0  0  0  0  0  0  0  0  0  0  0  0
  129.1240  124.0940   65.3580 F   0  0  0  0  0  0  0  0  0  0  0  0
  128.9240  125.3660   63.6360 F   0  0  0  0  0  0  0  0  0  0  0  0
  130.7650  125.3620   64.7910 F   0  0  0  0  0  0  0  0  0  0  0  0
  128.8960  126.4600   67.1400 C   0  0  0  0  0  0  0  0  0  0  0  0
  1  2  1  0
  2  3  2  0
  3  4  1  0
  4  5  2  0
  4  6  1  0
  6  7  1  0
  7  8  2  0
  8  9  1  0
  9 10  2  0
 10 11  1  0
  3 12  1  0
 12 13  1  0
 13 14  2  0
 14 15  1  0
 15 16  1  0
 16 17  2  0
 17 18  1  0
 18 19  2  0
 19 20  1  0
 20 21  2  0
 15 22  2  0
 22 23  1  0
 23 24  1  0
 24 25  1  0
 24 26  1  0
 24 27  1  0
 23 28  2  0
 28  2  1  0
 11  7  1  0
 28 13  1  0
 21 16  1  0
M  END
>  <Binding energies>  (58) 
[-7.71]

>  <Ligand effiencies>  (58) 
[-0.24870967741935485]

>  <Interactions>  (58) 
["V-B:GLU:543:C:9874, V-A:ALA:541:CB:4892, V-B:GLU:543:CB:9878, V-B:HIS:456:CE1:9040, V-B:LEU:475:CD1:9229, V-B:GLU:543:CD:9880, V-A:GLU:543:CD:4908, H-A:TYR:484:OH:4348, V-A:HIS:456:CE1:4069, V-B:GLU:543:CG:9879, V-A:TYR:484:CE1:4345, V-A:TYR:484:CZ:4347, V-A:HIS:456:CG:4066, H-A:HIS:456:NE2:4070, V-A:HIS:456:CD2:4068, V-A:HIS:456:CB:4065, V-A:ASP:473:CB:4239, V-A:ASP:473:CG:4240, H-B:LYS:547:NZ:9923, V-B:GLU:543:CA:9876, V-A:TYR:484:CD2:4344, V-A:GLU:543:CB:4906, V-A:TYR:484:CD1:4343, V-A:TYR:484:CG:4342, V-A:TYR:484:CB:4341, V-A:TYR:484:CE2:4346, V-B:LYS:547:CE:9922, H-B:GLU:543:O:9875, H-A:HIS:456:ND1:4067"]

$$$$
4ck_Grossjean_2025
     RDKit          3D

 33 35  0  0  0  0  0  0  0  0999 V2000
  127.2430  122.7610   54.7610 C   0  0  0  0  0  0  0  0  0  0  0  0
  126.6110  122.0830   55.8350 O   0  0  0  0  0  0  0  0  0  0  0  0
  126.5640  122.8430   57.0340 C   0  0  0  0  0  0  0  0  0  0  0  0
  127.8820  123.6110   57.1920 C   0  0  0  0  0  0  0  0  0  0  0  0
  128.4410  123.3180   58.4650 O   0  0  0  0  0  0  0  0  0  0  0  0
  127.4850  122.8570   59.4110 C   0  0  0  0  0  0  0  0  0  0  0  0
  128.1680  122.6910   60.7750 C   0  0  0  0  0  0  0  0  0  0  0  0
  128.5000  121.3210   60.9570 O   0  0  0  0  0  0  0  0  0  0  0  0
  129.8920  121.0840   61.1190 C   0  0  0  0  0  0  0  0  0  0  0  0
  130.2700  121.2290   62.6010 C   0  0  0  0  0  0  0  0  0  0  0  0
  129.9040  122.5400   63.1370 N   0  0  0  0  0  0  0  0  0  0  0  0
  130.1750  122.9900   64.3800 C   0  0  0  0  0  0  0  0  0  0  0  0
  130.8040  122.3260   65.2050 O   0  0  0  0  0  0  0  0  0  0  0  0
  129.6840  124.3320   64.6950 C   0  0  0  0  0  0  0  0  0  0  0  0
  129.2040  125.4240   63.3990 S   0  0  0  0  0  0  0  0  0  0  0  0
  128.7360  126.6530   64.5510 C   0  0  0  0  0  0  0  0  0  0  0  0
  128.2470  127.8260   64.1560 N   0  0  0  0  0  0  0  0  0  0  0  0
  127.9130  128.7190   65.1240 C   0  0  0  0  0  0  0  0  0  0  0  0
  127.3470  130.0250   64.6450 C   0  0  0  0  0  0  0  0  0  0  0  0
  128.1460  131.1780   64.5900 C   0  0  0  0  0  0  0  0  0  0  0  0
  127.6270  132.3940   64.1500 C   0  0  0  0  0  0  0  0  0  0  0  0
  126.2950  132.4720   63.7560 C   0  0  0  0  0  0  0  0  0  0  0  0
  125.4830  131.3440   63.7950 C   0  0  0  0  0  0  0  0  0  0  0  0
  126.0060  130.1310   64.2350 C   0  0  0  0  0  0  0  0  0  0  0  0
  128.0630  128.4270   66.4830 C   0  0  0  0  0  0  0  0  0  0  0  0
  128.5790  127.1930   66.9110 C   0  0  0  0  0  0  0  0  0  0  0  0
  128.7210  126.9400   68.4170 C   0  0  0  0  0  0  0  0  0  0  0  0
  128.7760  128.0640   69.1340 F   0  0  0  0  0  0  0  0  0  0  0  0
  127.6770  126.2370   68.8560 F   0  0  0  0  0  0  0  0  0  0  0  0
  129.8420  126.2590   68.6550 F   0  0  0  0  0  0  0  0  0  0  0  0
  128.9350  126.2500   65.9050 C   0  0  0  0  0  0  0  0  0  0  0  0
  129.4720  124.9120   65.9560 C   0  0  0  0  0  0  0  0  0  0  0  0
  129.7540  124.2690   67.1340 N   0  0  0  0  0  0  0  0  0  0  0  0
  1  2  1  0
  2  3  1  0
  3  4  1  0
  4  5  1  0
  5  6  1  0
  6  7  1  0
  7  8  1  0
  8  9  1  0
  9 10  1  0
 10 11  1  0
 11 12  1  0
 12 13  2  0
 12 14  1  0
 14 15  1  0
 15 16  1  0
 16 17  2  0
 17 18  1  0
 18 19  1  0
 19 20  2  0
 20 21  1  0
 21 22  2  0
 22 23  1  0
 23 24  2  0
 18 25  2  0
 25 26  1  0
 26 27  1  0
 27 28  1  0
 27 29  1  0
 27 30  1  0
 26 31  2  0
 31 32  1  0
 32 33  1  0
 32 14  2  0
 31 16  1  0
 24 19  1  0
M  END
>  <Binding energies>  (59) 
[-6.82]

>  <Ligand effiencies>  (59) 
[-0.18944444444444444]

>  <Interactions>  (59) 
["V-B:GLU:543:C:9874, V-A:ALA:541:CB:4892, V-B:GLU:543:CB:9878, V-B:GLY:544:C:9884, V-B:HIS:456:CE1:9040, V-B:LEU:475:CD1:9229, V-B:GLU:543:CD:9880, V-A:GLU:543:CD:4908, V-B:TYR:539:CZ:9849, V-B:ALA:541:CB:9864, H-A:TYR:484:OH:4348, V-A:HIS:456:CE1:4069, V-B:TYR:539:CE1:9847, V-B:GLU:543:CG:9879, V-A:LEU:475:CD1:4258, V-A:TYR:484:CE1:4345, V-B:PRO:540:N:9856, V-A:TYR:484:CZ:4347, V-B:TYR:539:CD2:9846, V-B:PRO:540:CA:9855, V-B:TYR:539:C:9839, V-B:TYR:539:CE2:9848, H-B:ALA:541:N:9863, V-A:HIS:456:CD2:4068, V-B:GLU:543:CA:9876, V-A:GLU:543:CB:4906, V-B:ILE:538:CB:9834, V-B:ILE:538:C:9830, V-B:ILE:538:CA:9832, V-B:TYR:539:CD1:9845, V-B:ILE:538:CG2:9835, H-B:TYR:539:N:9842, H-B:GLU:543:O:9875"]

$$$$
4dd_Grossjean_2025
     RDKit          3D

 26 29  0  0  0  0  0  0  0  0999 V2000
  129.8520  120.2990   61.4440 C   0  0  0  0  0  0  0  0  0  0  0  0
  129.1260  121.5940   61.1120 C   0  0  0  0  0  0  0  0  0  0  0  0
  128.4420  121.6740   59.8930 C   0  0  0  0  0  0  0  0  0  0  0  0
  127.7540  122.8380   59.5290 C   0  0  0  0  0  0  0  0  0  0  0  0
  127.0190  122.9540   58.2270 C   0  0  0  0  0  0  0  0  0  0  0  0
  125.6950  123.4200   58.1870 C   0  0  0  0  0  0  0  0  0  0  0  0
  125.0070  123.5330   56.9820 C   0  0  0  0  0  0  0  0  0  0  0  0
  125.6360  123.1780   55.7940 C   0  0  0  0  0  0  0  0  0  0  0  0
  126.9470  122.7150   55.8030 C   0  0  0  0  0  0  0  0  0  0  0  0
  127.6320  122.6060   57.0110 C   0  0  0  0  0  0  0  0  0  0  0  0
  127.7280  123.9380   60.3310 N   0  0  0  0  0  0  0  0  0  0  0  0
  128.3720  123.8600   61.4940 C   0  0  0  0  0  0  0  0  0  0  0  0
  128.4040  125.1920   62.6280 S   0  0  0  0  0  0  0  0  0  0  0  0
  129.3870  124.2640   63.7630 C   0  0  0  0  0  0  0  0  0  0  0  0
  129.7900  124.8480   65.0440 C   0  0  0  0  0  0  0  0  0  0  0  0
  130.8360  124.4970   65.5920 O   0  0  0  0  0  0  0  0  0  0  0  0
  128.9450  125.7790   65.5490 N   0  0  0  0  0  0  0  0  0  0  0  0
  129.0090  126.4820   66.7660 C   0  0  0  0  0  0  0  0  0  0  0  0
  128.7250  125.7400   67.9160 C   0  0  0  0  0  0  0  0  0  0  0  0
  128.7760  126.3420   69.1710 C   0  0  0  0  0  0  0  0  0  0  0  0
  129.1200  127.6870   69.2770 C   0  0  0  0  0  0  0  0  0  0  0  0
  129.4180  128.4350   68.1410 C   0  0  0  0  0  0  0  0  0  0  0  0
  129.3670  127.8360   66.8850 C   0  0  0  0  0  0  0  0  0  0  0  0
  129.6680  122.9840   63.2590 C   0  0  0  0  0  0  0  0  0  0  0  0
  130.4170  122.0480   63.9280 N   0  0  0  0  0  0  0  0  0  0  0  0
  129.0960  122.7280   61.9640 C   0  0  0  0  0  0  0  0  0  0  0  0
  1  2  1  0
  2  3  2  0
  3  4  1  0
  4  5  1  0
  5  6  2  0
  6  7  1  0
  7  8  2  0
  8  9  1  0
  9 10  2  0
  4 11  2  0
 11 12  1  0
 12 13  1  0
 13 14  1  0
 14 15  1  0
 15 16  2  0
 15 17  1  0
 17 18  1  0
 18 19  2  0
 19 20  1  0
 20 21  2  0
 21 22  1  0
 22 23  2  0
 14 24  2  0
 24 25  1  0
 24 26  1  0
 26  2  1  0
 10  5  1  0
 26 12  2  0
 23 18  1  0
M  END
>  <Binding energies>  (60) 
[-7.24]

>  <Ligand effiencies>  (60) 
[-0.24965517241379312]

>  <Interactions>  (60) 
["V-B:GLU:543:C:9874, V-B:GLU:543:CB:9878, V-B:HIS:456:CE1:9040, V-B:GLU:543:CD:9880, V-A:GLU:543:CD:4908, V-A:GLU:543:CG:4907, H-B:GLU:543:OE1:9881, H-B:GLU:543:OE2:9882, V-B:TYR:539:CZ:9849, V-B:ALA:541:CB:9864, H-A:TYR:484:OH:4348, V-A:HIS:456:CE1:4069, V-B:TYR:539:CE1:9847, V-B:GLU:543:CG:9879, V-A:LEU:475:CD1:4258, V-B:PRO:540:N:9856, V-B:TYR:539:CD2:9846, V-B:PRO:540:CA:9855, V-B:TYR:539:C:9839, V-B:TYR:539:CE2:9848, V-B:PRO:540:C:9853, V-B:PRO:540:CB:9857, V-A:GLU:543:CB:4906, V-B:LEU:363:CD1:8160, V-B:ILE:538:CB:9834, V-B:TYR:539:CG:9844, V-B:ILE:538:CA:9832, V-B:TYR:539:CD1:9845, V-B:ILE:538:CG2:9835, V-A:GLU:543:C:4902"]

$$$$
4dg_Grossjean_2025
     RDKit          3D

 27 30  0  0  0  0  0  0  0  0999 V2000
  126.1230  127.2520   67.6030 C   0  0  0  0  0  0  0  0  0  0  0  0
  127.4160  126.5350   67.9610 C   0  0  0  0  0  0  0  0  0  0  0  0
  128.2340  126.0870   66.9170 C   0  0  0  0  0  0  0  0  0  0  0  0
  129.4370  125.4210   67.1800 C   0  0  0  0  0  0  0  0  0  0  0  0
  130.3360  124.9300   66.0800 C   0  0  0  0  0  0  0  0  0  0  0  0
  131.5490  125.5790   65.7970 C   0  0  0  0  0  0  0  0  0  0  0  0
  132.3830  125.1300   64.7760 C   0  0  0  0  0  0  0  0  0  0  0  0
  132.0160  124.0220   64.0210 C   0  0  0  0  0  0  0  0  0  0  0  0
  130.8190  123.3620   64.2780 C   0  0  0  0  0  0  0  0  0  0  0  0
  129.9870  123.8140   65.2980 C   0  0  0  0  0  0  0  0  0  0  0  0
  129.8710  125.1970   68.4500 N   0  0  0  0  0  0  0  0  0  0  0  0
  129.0930  125.6220   69.4460 C   0  0  0  0  0  0  0  0  0  0  0  0
  129.5290  125.3930   71.1230 S   0  0  0  0  0  0  0  0  0  0  0  0
  128.0560  126.1990   71.6610 C   0  0  0  0  0  0  0  0  0  0  0  0
  127.7610  126.3170   73.0880 C   0  0  0  0  0  0  0  0  0  0  0  0
  128.6230  126.0980   73.9410 O   0  0  0  0  0  0  0  0  0  0  0  0
  126.4890  126.6390   73.4030 N   0  0  0  0  0  0  0  0  0  0  0  0
  125.9750  126.8310   74.7580 C   0  0  0  0  0  0  0  0  0  0  0  0
  125.6370  128.2830   75.0770 C   0  0  0  0  0  0  0  0  0  0  0  0
  124.3220  128.6350   75.3980 C   0  0  0  0  0  0  0  0  0  0  0  0
  124.0150  129.9540   75.7200 C   0  0  0  0  0  0  0  0  0  0  0  0
  125.0240  130.9140   75.7320 C   0  0  0  0  0  0  0  0  0  0  0  0
  126.3390  130.5680   75.4290 C   0  0  0  0  0  0  0  0  0  0  0  0
  126.6470  129.2480   75.1080 C   0  0  0  0  0  0  0  0  0  0  0  0
  127.2700  126.6050   70.5710 C   0  0  0  0  0  0  0  0  0  0  0  0
  126.0630  127.2440   70.6970 N   0  0  0  0  0  0  0  0  0  0  0  0
  127.8490  126.2960   69.2910 C   0  0  0  0  0  0  0  0  0  0  0  0
  1  2  1  0
  2  3  2  0
  3  4  1  0
  4  5  1  0
  5  6  2  0
  6  7  1  0
  7  8  2  0
  8  9  1  0
  9 10  2  0
  4 11  2  0
 11 12  1  0
 12 13  1  0
 13 14  1  0
 14 15  1  0
 15 16  2  0
 15 17  1  0
 17 18  1  0
 18 19  1  0
 19 20  2  0
 20 21  1  0
 21 22  2  0
 22 23  1  0
 23 24  2  0
 14 25  2  0
 25 26  1  0
 25 27  1  0
 27  2  1  0
 10  5  1  0
 27 12  2  0
 24 19  1  0
M  END
>  <Binding energies>  (61) 
[-8.38]

>  <Ligand effiencies>  (61) 
[-0.2793333333333334]

>  <Interactions>  (61) 
["V-B:GLU:543:C:9874, V-B:GLU:543:CB:9878, V-B:GLY:544:C:9884, V-B:HIS:456:CE1:9040, V-B:GLU:543:CD:9880, V-B:ARG:545:CG:9894, V-B:ARG:545:CA:9891, H-A:TYR:484:OH:4348, V-A:HIS:456:CE1:4069, V-B:GLU:543:CG:9879, V-A:TYR:484:CE1:4345, V-A:TYR:484:CZ:4347, H-A:HIS:456:NE2:4070, V-A:HIS:456:CD2:4068, H-B:LYS:547:NZ:9923, V-B:GLU:543:CA:9876, V-B:HIS:456:CD2:9039, V-B:LYS:471:CG:9189, V-B:ASP:473:CG:9211, V-B:VAL:457:CA:9046, V-B:HIS:456:CG:9037, V-B:VAL:457:C:9044, V-B:VAL:458:CG2:9058, V-B:HIS:456:CB:9036, V-B:HIS:456:C:9032, V-B:LYS:471:CE:9191, V-B:HIS:456:CA:9034, V-B:LYS:547:CD:9921, V-B:LYS:547:CE:9922, H-B:GLY:544:O:9885, H-B:HIS:456:ND1:9038, H-B:ARG:545:O:9890"]

$$$$
4dj_Grossjean_2025
     RDKit          3D

 25 28  0  0  0  0  0  0  0  0999 V2000
  129.3950  125.2880   64.9040 C   0  0  0  0  0  0  0  0  0  0  0  0
  128.8710  126.4460   65.7410 C   0  0  0  0  0  0  0  0  0  0  0  0
  128.3540  127.5610   65.0730 C   0  0  0  0  0  0  0  0  0  0  0  0
  127.8580  128.6600   65.7850 C   0  0  0  0  0  0  0  0  0  0  0  0
  127.2920  129.8690   65.0950 C   0  0  0  0  0  0  0  0  0  0  0  0
  125.9500  129.8990   64.6800 C   0  0  0  0  0  0  0  0  0  0  0  0
  125.4190  131.0150   64.0400 C   0  0  0  0  0  0  0  0  0  0  0  0
  126.2270  132.1230   63.8020 C   0  0  0  0  0  0  0  0  0  0  0  0
  127.5590  132.1200   64.1990 C   0  0  0  0  0  0  0  0  0  0  0  0
  128.0860  131.0020   64.8390 C   0  0  0  0  0  0  0  0  0  0  0  0
  127.8420  128.6870   67.1450 N   0  0  0  0  0  0  0  0  0  0  0  0
  128.3350  127.6260   67.7830 C   0  0  0  0  0  0  0  0  0  0  0  0
  128.3820  127.5310   69.5290 S   0  0  0  0  0  0  0  0  0  0  0  0
  129.1220  125.9290   69.4680 C   0  0  0  0  0  0  0  0  0  0  0  0
  129.4610  125.2240   70.7050 C   0  0  0  0  0  0  0  0  0  0  0  0
  129.5970  125.8400   71.7650 O   0  0  0  0  0  0  0  0  0  0  0  0
  129.6150  123.8820   70.5880 N   0  0  0  0  0  0  0  0  0  0  0  0
  129.9370  122.9880   71.5990 C   0  0  0  0  0  0  0  0  0  0  0  0
  129.2830  121.9030   71.9570 N   0  0  0  0  0  0  0  0  0  0  0  0
  129.8770  121.2880   72.9610 C   0  0  0  0  0  0  0  0  0  0  0  0
  131.0440  121.8750   73.4390 C   0  0  0  0  0  0  0  0  0  0  0  0
  131.3720  123.3120   72.5170 S   0  0  0  0  0  0  0  0  0  0  0  0
  129.3150  125.5120   68.1430 C   0  0  0  0  0  0  0  0  0  0  0  0
  129.8750  124.3070   67.7960 N   0  0  0  0  0  0  0  0  0  0  0  0
  128.8720  126.4630   67.1600 C   0  0  0  0  0  0  0  0  0  0  0  0
  1  2  1  0
  2  3  2  0
  3  4  1  0
  4  5  1  0
  5  6  2  0
  6  7  1  0
  7  8  2  0
  8  9  1  0
  9 10  2  0
  4 11  2  0
 11 12  1  0
 12 13  1  0
 13 14  1  0
 14 15  1  0
 15 16  2  0
 15 17  1  0
 17 18  1  0
 18 19  2  0
 19 20  1  0
 20 21  2  0
 21 22  1  0
 14 23  2  0
 23 24  1  0
 23 25  1  0
 25  2  1  0
 10  5  1  0
 25 12  2  0
 22 18  1  0
M  END
>  <Binding energies>  (62) 
[-8.04]

>  <Ligand effiencies>  (62) 
[-0.2871428571428571]

>  <Interactions>  (62) 
["V-B:GLU:543:C:9874, V-A:ALA:541:CB:4892, V-B:GLU:543:CB:9878, V-B:HIS:456:CE1:9040, V-B:LEU:475:CD1:9229, V-B:GLU:543:CD:9880, V-A:GLU:543:CD:4908, H-A:TYR:484:OH:4348, V-A:HIS:456:CE1:4069, V-B:GLU:543:CG:9879, V-A:TYR:484:CE1:4345, V-A:TYR:484:CZ:4347, V-A:HIS:456:CG:4066, H-A:HIS:456:NE2:4070, V-A:HIS:456:CD2:4068, V-A:HIS:456:CB:4065, V-A:ASP:473:CB:4239, V-A:ASP:473:CG:4240, H-B:LYS:547:NZ:9923, V-B:GLU:543:CA:9876, V-A:TYR:484:CD2:4344, V-A:GLU:543:CB:4906, V-A:TYR:484:CD1:4343, V-A:TYR:484:CG:4342, V-A:TYR:484:CB:4341, V-A:TYR:484:CE2:4346, V-B:LYS:547:CE:9922, H-B:GLU:543:O:9875, H-A:HIS:456:ND1:4067"]

$$$$
4ea_Grossjean_2025
     RDKit          3D

 31 34  0  0  0  0  0  0  0  0999 V2000
  131.4320  131.7490   54.3920 C   0  0  0  0  0  0  0  0  0  0  0  0
  132.3430  132.5070   55.3610 C   0  0  0  0  0  0  0  0  0  0  0  0
  131.9110  132.2750   56.6950 O   0  0  0  0  0  0  0  0  0  0  0  0
  130.6330  132.5330   57.0750 C   0  0  0  0  0  0  0  0  0  0  0  0
  129.8610  133.2430   56.4230 O   0  0  0  0  0  0  0  0  0  0  0  0
  130.2520  131.8700   58.3670 C   0  0  0  0  0  0  0  0  0  0  0  0
  131.0050  130.7790   58.8220 C   0  0  0  0  0  0  0  0  0  0  0  0
  130.6780  130.1420   60.0160 C   0  0  0  0  0  0  0  0  0  0  0  0
  129.5940  130.5800   60.7780 C   0  0  0  0  0  0  0  0  0  0  0  0
  129.3580  129.8610   61.9650 N   0  0  0  0  0  0  0  0  0  0  0  0
  128.2010  129.3820   62.4870 C   0  0  0  0  0  0  0  0  0  0  0  0
  127.0960  129.5150   61.9610 O   0  0  0  0  0  0  0  0  0  0  0  0
  128.3390  128.6710   63.7610 C   0  0  0  0  0  0  0  0  0  0  0  0
  127.3110  129.0900   65.1340 S   0  0  0  0  0  0  0  0  0  0  0  0
  128.0700  127.8740   66.1350 C   0  0  0  0  0  0  0  0  0  0  0  0
  127.7030  127.6740   67.4020 N   0  0  0  0  0  0  0  0  0  0  0  0
  128.3700  126.7010   68.0700 C   0  0  0  0  0  0  0  0  0  0  0  0
  127.9360  126.4910   69.5090 C   0  0  0  0  0  0  0  0  0  0  0  0
  129.3840  125.9310   67.5060 C   0  0  0  0  0  0  0  0  0  0  0  0
  129.7660  126.1430   66.1770 C   0  0  0  0  0  0  0  0  0  0  0  0
  130.8460  125.3160   65.5930 C   0  0  0  0  0  0  0  0  0  0  0  0
  132.1780  125.7360   65.6780 C   0  0  0  0  0  0  0  0  0  0  0  0
  133.1940  124.9580   65.1310 C   0  0  0  0  0  0  0  0  0  0  0  0
  132.8780  123.7610   64.4940 C   0  0  0  0  0  0  0  0  0  0  0  0
  131.5550  123.3350   64.3990 C   0  0  0  0  0  0  0  0  0  0  0  0
  130.5400  124.1140   64.9470 C   0  0  0  0  0  0  0  0  0  0  0  0
  129.0910  127.1560   65.4420 C   0  0  0  0  0  0  0  0  0  0  0  0
  129.2230  127.6310   64.0890 C   0  0  0  0  0  0  0  0  0  0  0  0
  130.1370  127.1020   63.2140 N   0  0  0  0  0  0  0  0  0  0  0  0
  128.8350  131.6720   60.3290 C   0  0  0  0  0  0  0  0  0  0  0  0
  129.1630  132.3080   59.1360 C   0  0  0  0  0  0  0  0  0  0  0  0
  1  2  1  0
  2  3  1  0
  3  4  1  0
  4  5  2  0
  4  6  1  0
  6  7  2  0
  7  8  1  0
  8  9  2  0
  9 10  1  0
 10 11  1  0
 11 12  2  0
 11 13  1  0
 13 14  1  0
 14 15  1  0
 15 16  2  0
 16 17  1  0
 17 18  1  0
 17 19  2  0
 19 20  1  0
 20 21  1  0
 21 22  2  0
 22 23  1  0
 23 24  2  0
 24 25  1  0
 25 26  2  0
 20 27  2  0
 27 28  1  0
 28 29  1  0
  9 30  1  0
 30 31  2  0
 31  6  1  0
 28 13  2  0
 27 15  1  0
 26 21  1  0
M  END
>  <Binding energies>  (63) 
[-8.52]

>  <Ligand effiencies>  (63) 
[-0.2505882352941176]

>  <Interactions>  (63) 
["V-A:PRO:540:CB:4885, V-B:GLU:543:CB:9878, V-B:GLY:544:C:9884, H-A:GLU:543:OE2:4910, V-B:HIS:456:CE1:9040, H-A:GLU:543:OE1:4909, V-A:PRO:540:CA:4883, V-A:GLU:543:CD:4908, V-A:ILE:538:CD1:4865, V-A:TYR:539:C:4867, V-A:TYR:531:CE2:4793, V-A:ARG:545:CZ:4926, V-A:PRO:540:N:4884, V-A:HIS:456:CE1:4069, V-A:LEU:475:CD1:4258, V-A:GLY:454:CA:4049, V-A:ILE:538:CA:4860, V-A:PRO:540:CD:4887, H-A:TYR:539:N:4870, V-A:ILE:538:CG2:4863, V-A:LEU:363:CD1:3189"]

$$$$
4eb_Grossjean_2025
     RDKit          3D

 30 33  0  0  0  0  0  0  0  0999 V2000
  129.9450  132.4700   54.9120 C   0  0  0  0  0  0  0  0  0  0  0  0
  130.1820  132.9130   56.2400 O   0  0  0  0  0  0  0  0  0  0  0  0
  131.1800  132.3760   56.9890 C   0  0  0  0  0  0  0  0  0  0  0  0
  132.3690  132.4050   56.6580 O   0  0  0  0  0  0  0  0  0  0  0  0
  130.6930  131.7420   58.2600 C   0  0  0  0  0  0  0  0  0  0  0  0
  131.3900  130.6470   58.7880 C   0  0  0  0  0  0  0  0  0  0  0  0
  130.9640  130.0380   59.9640 C   0  0  0  0  0  0  0  0  0  0  0  0
  129.8340  130.5070   60.6360 C   0  0  0  0  0  0  0  0  0  0  0  0
  129.4960  129.8140   61.8150 N   0  0  0  0  0  0  0  0  0  0  0  0
  128.2830  129.4840   62.3220 C   0  0  0  0  0  0  0  0  0  0  0  0
  127.2090  129.7630   61.7890 O   0  0  0  0  0  0  0  0  0  0  0  0
  128.3150  128.7500   63.5900 C   0  0  0  0  0  0  0  0  0  0  0  0
  127.2110  129.1800   64.8980 S   0  0  0  0  0  0  0  0  0  0  0  0
  127.8650  127.9260   65.9270 C   0  0  0  0  0  0  0  0  0  0  0  0
  127.4080  127.7190   67.1630 N   0  0  0  0  0  0  0  0  0  0  0  0
  127.9990  126.7170   67.8570 C   0  0  0  0  0  0  0  0  0  0  0  0
  127.4640  126.4990   69.2610 C   0  0  0  0  0  0  0  0  0  0  0  0
  129.0270  125.9240   67.3500 C   0  0  0  0  0  0  0  0  0  0  0  0
  129.5030  126.1450   66.0530 C   0  0  0  0  0  0  0  0  0  0  0  0
  130.5950  125.2940   65.5270 C   0  0  0  0  0  0  0  0  0  0  0  0
  130.3020  124.0670   64.9240 C   0  0  0  0  0  0  0  0  0  0  0  0
  131.3290  123.2670   64.4280 C   0  0  0  0  0  0  0  0  0  0  0  0
  132.6500  123.6940   64.5390 C   0  0  0  0  0  0  0  0  0  0  0  0
  132.9530  124.9140   65.1410 C   0  0  0  0  0  0  0  0  0  0  0  0
  131.9250  125.7120   65.6360 C   0  0  0  0  0  0  0  0  0  0  0  0
  128.9080  127.1880   65.2920 C   0  0  0  0  0  0  0  0  0  0  0  0
  129.1440  127.6790   63.9590 C   0  0  0  0  0  0  0  0  0  0  0  0
  130.0990  127.1360   63.1370 N   0  0  0  0  0  0  0  0  0  0  0  0
  129.1300  131.6030   60.1140 C   0  0  0  0  0  0  0  0  0  0  0  0
  129.5580  132.2110   58.9380 C   0  0  0  0  0  0  0  0  0  0  0  0
  1  2  1  0
  2  3  1  0
  3  4  2  0
  3  5  1  0
  5  6  2  0
  6  7  1  0
  7  8  2  0
  8  9  1  0
  9 10  1  0
 10 11  2  0
 10 12  1  0
 12 13  1  0
 13 14  1  0
 14 15  2  0
 15 16  1  0
 16 17  1  0
 16 18  2  0
 18 19  1  0
 19 20  1  0
 20 21  2  0
 21 22  1  0
 22 23  2  0
 23 24  1  0
 24 25  2  0
 19 26  2  0
 26 27  1  0
 27 28  1  0
  8 29  1  0
 29 30  2  0
 30  5  1  0
 27 12  2  0
 26 14  1  0
 25 20  1  0
M  END
>  <Binding energies>  (64) 
[-8.26]

>  <Ligand effiencies>  (64) 
[-0.2503030303030303]

>  <Interactions>  (64) 
["V-A:PRO:540:CB:4885, V-B:GLU:543:C:9874, V-B:GLU:543:CB:9878, V-B:GLY:544:C:9884, H-A:GLU:543:OE2:4910, V-B:HIS:456:CE1:9040, H-A:GLU:543:OE1:4909, V-A:PRO:540:CA:4883, V-A:GLU:543:CD:4908, V-A:TYR:539:CD1:4873, V-A:TYR:539:CE1:4875, V-A:TYR:539:C:4867, V-A:ARG:545:CZ:4926, V-A:PRO:540:N:4884, V-A:HIS:456:CE1:4069, V-A:LEU:475:CD1:4258, V-A:GLY:454:CA:4049, V-A:PRO:540:CD:4887, H-A:TYR:539:N:4870"]

$$$$
8b_Ghoteimi_2023
     RDKit          3D

 34 38  0  0  0  0  0  0  0  0999 V2000
  123.5380  131.7360   62.0140 C   0  0  0  0  0  0  0  0  0  0  0  0
  123.8810  131.9390   63.3810 O   0  0  0  0  0  0  0  0  0  0  0  0
  124.7250  131.0410   64.0050 C   0  0  0  0  0  0  0  0  0  0  0  0
  124.1690  130.2650   65.0200 C   0  0  0  0  0  0  0  0  0  0  0  0
  124.9430  129.3340   65.7050 C   0  0  0  0  0  0  0  0  0  0  0  0
  126.2990  129.1540   65.3910 C   0  0  0  0  0  0  0  0  0  0  0  0
  127.1370  128.1560   66.1250 C   0  0  0  0  0  0  0  0  0  0  0  0
  128.1320  127.4130   65.4800 C   0  0  0  0  0  0  0  0  0  0  0  0
  128.9020  126.4870   66.1890 C   0  0  0  0  0  0  0  0  0  0  0  0
  129.9410  125.7100   65.4750 C   0  0  0  0  0  0  0  0  0  0  0  0
  131.2760  125.7890   65.8730 C   0  0  0  0  0  0  0  0  0  0  0  0
  132.2500  125.0500   65.2070 C   0  0  0  0  0  0  0  0  0  0  0  0
  131.9060  124.2260   64.1340 C   0  0  0  0  0  0  0  0  0  0  0  0
  132.9380  123.5290   63.5350 O   0  0  0  0  0  0  0  0  0  0  0  0
  133.8290  124.2200   62.6660 C   0  0  0  0  0  0  0  0  0  0  0  0
  130.5630  124.1520   63.7330 C   0  0  0  0  0  0  0  0  0  0  0  0
  129.5900  124.8900   64.4010 C   0  0  0  0  0  0  0  0  0  0  0  0
  128.6490  126.3310   67.5790 C   0  0  0  0  0  0  0  0  0  0  0  0
  129.2400  125.4950   68.5910 C   0  0  0  0  0  0  0  0  0  0  0  0
  130.2620  124.6220   68.3170 N   0  0  0  0  0  0  0  0  0  0  0  0
  128.6760  125.6610   69.8650 C   0  0  0  0  0  0  0  0  0  0  0  0
  129.0320  124.9840   71.1140 C   0  0  0  0  0  0  0  0  0  0  0  0
  128.7940  125.5100   72.2050 O   0  0  0  0  0  0  0  0  0  0  0  0
  129.6270  123.7730   70.9710 N   0  0  0  0  0  0  0  0  0  0  0  0
  130.0610  122.9200   71.9760 C   0  0  0  0  0  0  0  0  0  0  0  0
  131.1770  123.1830   72.7690 C   0  0  0  0  0  0  0  0  0  0  0  0
  131.2690  122.1100   73.6260 C   0  0  0  0  0  0  0  0  0  0  0  0
  130.2590  121.2470   73.3660 O   0  0  0  0  0  0  0  0  0  0  0  0
  129.4980  121.7720   72.3190 N   0  0  0  0  0  0  0  0  0  0  0  0
  127.3910  126.8700   69.8410 S   0  0  0  0  0  0  0  0  0  0  0  0
  127.6160  127.1430   68.1290 C   0  0  0  0  0  0  0  0  0  0  0  0
  126.8790  128.0240   67.4540 N   0  0  0  0  0  0  0  0  0  0  0  0
  126.8510  129.9350   64.3670 C   0  0  0  0  0  0  0  0  0  0  0  0
  126.0790  130.8690   63.6800 C   0  0  0  0  0  0  0  0  0  0  0  0
  1  2  1  0
  2  3  1  0
  3  4  2  0
  4  5  1  0
  5  6  2  0
  6  7  1  0
  7  8  2  0
  8  9  1  0
  9 10  1  0
 10 11  2  0
 11 12  1  0
 12 13  2  0
 13 14  1  0
 14 15  1  0
 13 16  1  0
 16 17  2  0
  9 18  2  0
 18 19  1  0
 19 20  1  0
 19 21  2  0
 21 22  1  0
 22 23  2  0
 22 24  1  0
 24 25  1  0
 25 26  1  0
 26 27  2  0
 27 28  1  0
 28 29  1  0
 21 30  1  0
 30 31  1  0
 31 32  2  0
  6 33  1  0
 33 34  2  0
 34  3  1  0
 32  7  1  0
 17 10  1  0
 31 18  1  0
 29 25  2  0
M  END
>  <Binding energies>  (65) 
[-9.54]

>  <Ligand effiencies>  (65) 
[-0.2578378378378378]

>  <Interactions>  (65) 
["V-B:ARG:545:CD:9895, V-B:GLU:543:C:9874, V-B:GLU:543:CB:9878, V-B:GLY:544:C:9884, V-B:HIS:456:CE1:9040, V-B:GLU:543:CD:9880, V-A:GLU:543:CD:4908, V-B:ILE:369:CD1:8210, V-B:ARG:545:CZ:9898, V-B:GLY:454:CA:9020, H-A:TYR:484:OH:4348, V-A:HIS:456:CE1:4069, V-B:GLU:543:CG:9879, V-A:TYR:484:CE1:4345, V-A:TYR:484:CZ:4347, H-A:GLY:454:N:4050, H-B:GLY:454:N:9021, V-A:HIS:456:CG:4066, V-A:HIS:456:CD2:4068, V-A:HIS:456:CB:4065, V-A:ASP:473:CB:4239, V-A:ASP:473:CG:4240, H-B:LYS:547:NZ:9923, V-A:TYR:484:CD2:4344, V-A:TYR:484:CD1:4343, V-A:TYR:484:CG:4342, H-B:GLU:543:O:9875, H-A:HIS:456:ND1:4067"]

$$$$
9d_Ghoteimi_2023
     RDKit          3D

 38 43  0  0  0  0  0  0  0  0999 V2000
  129.1470  132.4590   58.2050 C   0  0  0  0  0  0  0  0  0  0  0  0
  129.2060  132.7780   59.5880 O   0  0  0  0  0  0  0  0  0  0  0  0
  128.0900  132.7360   60.3610 C   0  0  0  0  0  0  0  0  0  0  0  0
  127.1550  133.5360   60.2660 O   0  0  0  0  0  0  0  0  0  0  0  0
  128.1080  131.6270   61.3400 C   0  0  0  0  0  0  0  0  0  0  0  0
  128.4550  131.9600   63.0360 S   0  0  0  0  0  0  0  0  0  0  0  0
  128.2600  130.2730   63.4480 C   0  0  0  0  0  0  0  0  0  0  0  0
  128.3760  129.8430   64.7040 N   0  0  0  0  0  0  0  0  0  0  0  0
  128.1890  128.5150   64.9220 C   0  0  0  0  0  0  0  0  0  0  0  0
  128.2980  128.0600   66.3420 C   0  0  0  0  0  0  0  0  0  0  0  0
  127.2740  127.3090   66.9270 C   0  0  0  0  0  0  0  0  0  0  0  0
  127.3640  126.8830   68.2490 C   0  0  0  0  0  0  0  0  0  0  0  0
  128.4910  127.1820   69.0320 C   0  0  0  0  0  0  0  0  0  0  0  0
  128.5890  126.7750   70.3670 N   0  0  0  0  0  0  0  0  0  0  0  0
  127.5790  127.1740   71.3680 C   0  0  0  0  0  0  0  0  0  0  0  0
  128.0190  126.9380   72.8280 C   0  0  0  0  0  0  0  0  0  0  0  0
  128.4050  125.5860   73.0060 O   0  0  0  0  0  0  0  0  0  0  0  0
  129.4940  125.2410   72.1660 C   0  0  0  0  0  0  0  0  0  0  0  0
  129.1020  125.4250   70.6840 C   0  0  0  0  0  0  0  0  0  0  0  0
  129.5090  127.9480   68.4440 C   0  0  0  0  0  0  0  0  0  0  0  0
  129.4160  128.3760   67.1230 C   0  0  0  0  0  0  0  0  0  0  0  0
  127.9220  127.6190   63.8830 C   0  0  0  0  0  0  0  0  0  0  0  0
  127.8190  128.0630   62.5600 C   0  0  0  0  0  0  0  0  0  0  0  0
  127.5610  127.0630   61.4890 C   0  0  0  0  0  0  0  0  0  0  0  0
  126.3690  127.0890   60.7620 C   0  0  0  0  0  0  0  0  0  0  0  0
  126.1400  126.1630   59.7480 C   0  0  0  0  0  0  0  0  0  0  0  0
  127.1050  125.1960   59.4240 C   0  0  0  0  0  0  0  0  0  0  0  0
  126.8950  124.2500   58.4180 N   0  0  0  0  0  0  0  0  0  0  0  0
  125.5140  123.8540   58.0820 C   0  0  0  0  0  0  0  0  0  0  0  0
  125.4020  123.1240   56.7270 C   0  0  0  0  0  0  0  0  0  0  0  0
  126.2700  122.0010   56.7060 O   0  0  0  0  0  0  0  0  0  0  0  0
  127.6260  122.3830   56.8900 C   0  0  0  0  0  0  0  0  0  0  0  0
  127.7920  123.0900   58.2520 C   0  0  0  0  0  0  0  0  0  0  0  0
  128.2970  125.1790   60.1620 C   0  0  0  0  0  0  0  0  0  0  0  0
  128.5250  126.1040   61.1760 C   0  0  0  0  0  0  0  0  0  0  0  0
  127.9700  129.4560   62.3150 C   0  0  0  0  0  0  0  0  0  0  0  0
  127.8700  130.2640   61.1270 C   0  0  0  0  0  0  0  0  0  0  0  0
  127.5470  129.7460   59.8990 N   0  0  0  0  0  0  0  0  0  0  0  0
  1  2  1  0
  2  3  1  0
  3  4  2  0
  3  5  1  0
  5  6  1  0
  6  7  1  0
  7  8  2  0
  8  9  1  0
  9 10  1  0
 10 11  2  0
 11 12  1  0
 12 13  2  0
 13 14  1  0
 14 15  1  0
 15 16  1  0
 16 17  1  0
 17 18  1  0
 18 19  1  0
 13 20  1  0
 20 21  2  0
  9 22  2  0
 22 23  1  0
 23 24  1  0
 24 25  2  0
 25 26  1  0
 26 27  2  0
 27 28  1  0
 28 29  1  0
 29 30  1  0
 30 31  1  0
 31 32  1  0
 32 33  1  0
 27 34  1  0
 34 35  2  0
 23 36  2  0
 36 37  1  0
 37 38  1  0
 37  5  2  0
 36  7  1  0
 21 10  1  0
 35 24  1  0
 19 14  1  0
 33 28  1  0
M  END
>  <Binding energies>  (66) 
[-8.24]

>  <Ligand effiencies>  (66) 
[-0.20600000000000002]

>  <Interactions>  (66) 
["V-A:ALA:541:CB:4892, V-B:GLU:543:CB:9878, V-B:GLY:544:C:9884, V-B:HIS:456:CE1:9040, V-A:PRO:540:CA:4883, V-B:GLU:543:CD:9880, V-A:GLU:543:CD:4908, V-A:TYR:539:CD2:4874, V-A:TYR:539:CE2:4876, V-A:TYR:539:C:4867, V-A:GLU:543:CG:4907, V-A:PRO:540:N:4884, V-B:TYR:539:CZ:9849, V-A:HIS:456:CE1:4069, V-B:TYR:539:CE1:9847, V-B:PRO:540:N:9856, V-B:TYR:539:CD2:9846, V-B:PRO:540:CA:9855, V-B:TYR:539:C:9839, V-B:TYR:539:CE2:9848, V-B:PRO:540:CD:9859, V-B:PRO:540:CB:9857, V-A:HIS:456:CD2:4068, H-B:LYS:547:NZ:9923, V-B:HIS:456:CD2:9039, V-B:HIS:456:CG:9037, V-A:GLU:543:CB:4906, V-B:LEU:363:CD1:8160, V-B:TYR:539:CG:9844, V-B:TYR:539:CD1:9845, V-B:TYR:539:CA:9841, H-B:TYR:539:N:9842"]

$$$$
RR10_Rahimova_2017
     RDKit          3D

 34 38  0  0  0  0  0  0  0  0999 V2000
  129.5230  123.9800   65.8900 C   0  0  0  0  0  0  0  0  0  0  0  0
  130.3280  123.6800   64.6140 C   0  0  1  0  0  0  0  0  0  0  0  0
  129.8740  122.3630   63.9420 C   0  0  0  0  0  0  0  0  0  0  0  0
  130.7190  122.0640   62.6830 C   0  0  0  0  0  0  0  0  0  0  0  0
  130.6500  123.2140   61.6450 C   0  0  1  0  0  0  0  0  0  0  0  0
  129.3050  123.3080   61.0610 N   0  0  0  0  0  0  0  0  0  0  0  0
  128.6720  122.3220   60.3990 C   0  0  0  0  0  0  0  0  0  0  0  0
  129.1630  121.2020   60.2310 O   0  0  0  0  0  0  0  0  0  0  0  0
  127.2770  122.6530   59.8290 C   0  0  1  0  0  0  0  0  0  0  0  0
  126.6810  123.8610   60.5970 C   0  0  0  0  0  0  0  0  0  0  0  0
  125.3230  124.2540   59.9680 C   0  0  0  0  0  0  0  0  0  0  0  0
  125.4170  124.4660   58.4390 C   0  0  0  0  0  0  0  0  0  0  0  0
  126.0570  123.2920   57.7850 N   0  0  0  0  0  0  0  0  0  0  0  0
  125.9500  123.2890   56.0170 S   0  0  0  0  0  0  0  0  0  0  0  0
  124.5970  123.7170   55.6410 O   0  0  0  0  0  0  0  0  0  0  0  0
  126.4800  122.0070   55.5350 O   0  0  0  0  0  0  0  0  0  0  0  0
  127.0670  124.5840   55.4800 C   0  0  0  0  0  0  0  0  0  0  0  0
  128.1540  124.2560   54.6630 C   0  0  0  0  0  0  0  0  0  0  0  0
  129.0630  125.2180   54.2130 C   0  0  0  0  0  0  0  0  0  0  0  0
  128.8300  126.5340   54.6180 C   0  0  0  0  0  0  0  0  0  0  0  0
  129.4770  127.7270   54.3980 N   0  0  0  0  0  0  0  0  0  0  0  0
  128.7820  128.7160   55.0620 C   0  0  0  0  0  0  0  0  0  0  0  0
  129.1910  130.1610   55.0640 C   0  0  0  0  0  0  0  0  0  0  0  0
  129.6610  130.7670   53.8910 C   0  0  0  0  0  0  0  0  0  0  0  0
  130.0380  132.1080   53.8900 C   0  0  0  0  0  0  0  0  0  0  0  0
  129.9470  132.8500   55.0650 C   0  0  0  0  0  0  0  0  0  0  0  0
  129.4820  132.2630   56.2380 C   0  0  0  0  0  0  0  0  0  0  0  0
  129.1060  130.9220   56.2380 C   0  0  0  0  0  0  0  0  0  0  0  0
  127.7280  128.2410   55.6890 N   0  0  0  0  0  0  0  0  0  0  0  0
  127.7330  126.8950   55.4360 C   0  0  0  0  0  0  0  0  0  0  0  0
  126.8360  125.9080   55.8700 C   0  0  0  0  0  0  0  0  0  0  0  0
  127.4060  122.9790   58.3210 C   0  0  0  0  0  0  0  0  0  0  0  0
  131.0910  124.5320   62.3380 C   0  0  0  0  0  0  0  0  0  0  0  0
  130.2430  124.8390   63.5930 C   0  0  0  0  0  0  0  0  0  0  0  0
  2  1  1  1
  2  3  1  0
  3  4  1  0
  4  5  1  0
  5  6  1  1
  6  7  1  0
  7  8  2  0
  9  7  1  1
  9 10  1  0
 10 11  1  0
 11 12  1  0
 12 13  1  0
 13 14  1  0
 14 15  2  0
 14 16  2  0
 14 17  1  0
 17 18  2  0
 18 19  1  0
 19 20  2  0
 20 21  1  0
 21 22  1  0
 22 23  1  0
 23 24  2  0
 24 25  1  0
 25 26  2  0
 26 27  1  0
 27 28  2  0
 22 29  2  0
 29 30  1  0
 30 31  2  0
 13 32  1  0
  5 33  1  0
 33 34  1  0
 34  2  1  0
 32  9  1  0
 31 17  1  0
 30 20  1  0
 28 23  1  0
M  END
>  <Binding energies>  (67) 
[-10.6]

>  <Ligand effiencies>  (67) 
[-0.29444444444444445]

>  <Interactions>  (67) 
["V-B:GLU:543:CB:9878, V-B:GLU:543:CD:9880, V-A:TYR:539:CD1:4873, V-A:TYR:539:CG:4872, V-A:TYR:539:CE1:4875, V-A:TYR:539:CZ:4877, V-A:TYR:531:CZ:4794, V-B:TYR:539:CZ:9849, V-A:MET:535:CE:4835, V-B:ALA:541:CB:9864, V-B:TYR:539:CE1:9847, V-B:GLU:543:CG:9879, V-A:LEU:475:CD1:4258, V-A:TYR:484:CE1:4345, V-B:PRO:540:N:9856, V-A:TYR:484:CZ:4347, V-B:TYR:539:CD2:9846, V-B:PRO:540:CA:9855, V-B:TYR:539:C:9839, V-B:TYR:539:CE2:9848, V-B:PRO:540:C:9853, V-A:ILE:538:CA:4860, H-B:ALA:541:N:9863, V-B:PRO:540:CB:9857, V-B:GLU:543:CA:9876, V-B:ILE:538:CB:9834, V-B:ILE:538:CG2:9835, H-B:TYR:539:N:9842, H-A:TYR:531:OH:4795, V-A:ILE:538:C:4858, H-B:TYR:531:OH:9767, H-A:MET:535:SD:4834"]

$$$$
RR12_Rahimova_2017
     RDKit          3D

 26 28  0  0  0  0  0  0  0  0999 V2000
  129.3350  125.3830   65.4790 C   0  0  0  0  0  0  0  0  0  0  0  0
  130.1210  125.9750   66.6560 C   0  0  0  0  0  0  0  0  0  0  0  0
  129.7330  127.4350   66.9520 C   0  0  0  0  0  0  0  0  0  0  0  0
  128.2970  127.5510   67.1900 N   0  0  0  0  0  0  0  0  0  0  0  0
  127.5690  127.0150   68.2420 C   0  0  0  0  0  0  0  0  0  0  0  0
  128.1720  126.1460   69.3320 C   0  0  0  0  0  0  0  0  0  0  0  0
  129.0340  126.9560   70.3180 C   0  0  0  0  0  0  0  0  0  0  0  0
  128.3730  127.1060   71.7020 C   0  0  0  0  0  0  0  0  0  0  0  0
  129.2700  126.8160   72.8200 N   0  0  0  0  0  0  0  0  0  0  0  0
  128.8820  126.3500   74.0210 C   0  0  0  0  0  0  0  0  0  0  0  0
  127.7050  126.1210   74.3080 O   0  0  0  0  0  0  0  0  0  0  0  0
  130.0070  126.1110   75.0350 C   0  0  0  0  0  0  0  0  0  0  0  0
  131.2030  126.7460   74.5800 O   0  0  0  0  0  0  0  0  0  0  0  0
  132.4180  126.1150   74.7690 C   0  0  0  0  0  0  0  0  0  0  0  0
  133.5580  126.8600   74.4600 C   0  0  0  0  0  0  0  0  0  0  0  0
  134.8270  126.3110   74.6210 C   0  0  0  0  0  0  0  0  0  0  0  0
  134.9590  125.0080   75.0940 C   0  0  0  0  0  0  0  0  0  0  0  0
  133.8330  124.2500   75.4040 C   0  0  0  0  0  0  0  0  0  0  0  0
  132.5640  124.8000   75.2420 C   0  0  0  0  0  0  0  0  0  0  0  0
  126.2950  127.3150   68.1980 N   0  0  0  0  0  0  0  0  0  0  0  0
  126.1580  128.1050   67.0900 C   0  0  0  0  0  0  0  0  0  0  0  0
  125.0030  128.7160   66.5790 C   0  0  0  0  0  0  0  0  0  0  0  0
  125.1250  129.4890   65.4250 C   0  0  0  0  0  0  0  0  0  0  0  0
  126.3560  129.6550   64.7900 C   0  0  0  0  0  0  0  0  0  0  0  0
  127.5230  129.0590   65.2730 C   0  0  0  0  0  0  0  0  0  0  0  0
  127.4000  128.2820   66.4320 C   0  0  0  0  0  0  0  0  0  0  0  0
  1  2  1  0
  2  3  1  0
  3  4  1  0
  4  5  1  0
  5  6  1  0
  6  7  1  0
  7  8  1  0
  8  9  1  0
  9 10  1  0
 10 11  2  0
 10 12  1  0
 12 13  1  0
 13 14  1  0
 14 15  2  0
 15 16  1  0
 16 17  2  0
 17 18  1  0
 18 19  2  0
  5 20  2  0
 20 21  1  0
 21 22  2  0
 22 23  1  0
 23 24  2  0
 24 25  1  0
 25 26  2  0
 26  4  1  0
 19 14  1  0
 26 21  1  0
M  END
>  <Binding energies>  (68) 
[-6.93]

>  <Ligand effiencies>  (68) 
[-0.25666666666666665]

>  <Interactions>  (68) 
["V-B:ARG:545:CD:9895, V-B:GLU:543:C:9874, V-B:GLU:543:CB:9878, V-B:HIS:456:CE1:9040, V-B:GLU:543:CD:9880, V-B:ARG:545:CG:9894, V-A:GLU:543:CD:4908, V-A:GLU:543:CG:4907, V-B:ARG:545:CZ:9898, V-A:HIS:456:CE1:4069, V-B:GLU:543:CG:9879, V-A:HIS:456:CG:4066, V-A:VAL:458:CG2:4087, V-A:HIS:456:CD2:4068, V-A:VAL:457:C:4073, V-A:HIS:456:CB:4065, V-A:LYS:547:CD:4949, V-A:LYS:547:CE:4950, H-A:LYS:547:NZ:4951, V-A:HIS:456:C:4061, H-B:LYS:547:NZ:9923, V-A:HIS:456:CA:4063, V-A:LYS:547:CG:4948, V-A:VAL:457:CA:4075"]

$$$$
RR13_Rahimova_2017
     RDKit          3D

 48 54  0  0  0  0  0  0  0  0999 V2000
  128.2290  132.9440   59.5480 Cl  0  0  0  0  0  0  0  0  0  0  0  0
  128.0880  132.2580   61.1310 C   0  0  0  0  0  0  0  0  0  0  0  0
  127.1360  132.8050   61.9960 C   0  0  0  0  0  0  0  0  0  0  0  0
  126.9890  132.3110   63.2890 C   0  0  0  0  0  0  0  0  0  0  0  0
  127.7960  131.2660   63.7290 C   0  0  0  0  0  0  0  0  0  0  0  0
  128.7470  130.7140   62.8730 C   0  0  0  0  0  0  0  0  0  0  0  0
  128.9030  131.1900   61.5610 C   0  0  0  0  0  0  0  0  0  0  0  0
  129.9820  130.5790   60.6400 C   0  0  1  0  0  0  0  0  0  0  0  0
  131.3790  131.1020   61.0040 C   0  0  0  0  0  0  0  0  0  0  0  0
  131.7090  131.7750   62.0840 N   0  0  0  0  0  0  0  0  0  0  0  0
  133.0670  132.0520   61.9610 N   0  0  0  0  0  0  0  0  0  0  0  0
  133.5480  131.5460   60.7700 N   0  0  0  0  0  0  0  0  0  0  0  0
  132.4830  130.9870   60.1860 N   0  0  0  0  0  0  0  0  0  0  0  0
  132.6170  130.3050   58.9040 C   0  0  0  0  0  0  0  0  0  0  0  0
  133.1130  131.2880   57.8270 C   0  0  0  0  0  0  0  0  0  0  0  0
  131.9950  131.7370   56.8990 C   0  0  0  0  0  0  0  0  0  0  0  0
  130.6780  131.7780   57.3630 C   0  0  0  0  0  0  0  0  0  0  0  0
  129.6530  132.1820   56.5110 C   0  0  0  0  0  0  0  0  0  0  0  0
  129.9500  132.5420   55.1970 C   0  0  0  0  0  0  0  0  0  0  0  0
  131.2610  132.5020   54.7290 C   0  0  0  0  0  0  0  0  0  0  0  0
  132.2860  132.0990   55.5810 C   0  0  0  0  0  0  0  0  0  0  0  0
  129.9320  129.0980   60.5750 N   0  0  0  0  0  0  0  0  0  0  0  0
  131.1440  128.5130   61.1770 C   0  0  0  0  0  0  0  0  0  0  0  0
  131.0400  126.9710   61.2340 C   0  0  0  0  0  0  0  0  0  0  0  0
  130.9090  126.4100   59.8790 N   0  0  0  0  0  0  0  0  0  0  0  0
  130.8890  124.9290   59.8790 C   0  0  1  0  0  0  0  0  0  0  0  0
  129.6020  124.2810   59.3220 C   0  0  0  0  0  0  0  0  0  0  0  0
  129.4120  124.3270   57.9340 C   0  0  0  0  0  0  0  0  0  0  0  0
  128.2880  123.7530   57.3410 C   0  0  0  0  0  0  0  0  0  0  0  0
  127.3300  123.1260   58.1330 C   0  0  0  0  0  0  0  0  0  0  0  0
  127.4920  123.0830   59.5140 C   0  0  0  0  0  0  0  0  0  0  0  0
  128.6130  123.6590   60.1190 C   0  0  0  0  0  0  0  0  0  0  0  0
  128.6880  123.6140   61.8480 Cl  0  0  0  0  0  0  0  0  0  0  0  0
  132.1200  124.3100   59.2130 C   0  0  0  0  0  0  0  0  0  0  0  0
  132.4760  124.4820   57.9610 N   0  0  0  0  0  0  0  0  0  0  0  0
  133.6520  123.7580   57.7950 N   0  0  0  0  0  0  0  0  0  0  0  0
  134.0080  123.1550   58.9840 N   0  0  0  0  0  0  0  0  0  0  0  0
  133.0590  123.5270   59.8510 N   0  0  0  0  0  0  0  0  0  0  0  0
  133.1010  123.0500   61.2290 C   0  0  0  0  0  0  0  0  0  0  0  0
  133.8650  124.0470   62.1190 C   0  0  0  0  0  0  0  0  0  0  0  0
  133.0380  124.5040   63.3110 C   0  0  0  0  0  0  0  0  0  0  0  0
  133.6730  124.9980   64.4530 C   0  0  0  0  0  0  0  0  0  0  0  0
  132.9140  125.4240   65.5410 C   0  0  0  0  0  0  0  0  0  0  0  0
  131.5230  125.3520   65.4830 C   0  0  0  0  0  0  0  0  0  0  0  0
  130.8850  124.8610   64.3450 C   0  0  0  0  0  0  0  0  0  0  0  0
  131.6420  124.4370   63.2570 C   0  0  0  0  0  0  0  0  0  0  0  0
  129.6940  126.9930   59.2830 C   0  0  0  0  0  0  0  0  0  0  0  0
  129.8080  128.5340   59.2200 C   0  0  0  0  0  0  0  0  0  0  0  0
  1  2  1  0
  2  3  2  0
  3  4  1  0
  4  5  2  0
  5  6  1  0
  6  7  2  0
  7  8  1  0
  8  9  1  0
  9 10  2  0
 10 11  1  0
 11 12  2  0
 12 13  1  0
 13 14  1  0
 14 15  1  0
 15 16  1  0
 16 17  2  0
 17 18  1  0
 18 19  2  0
 19 20  1  0
 20 21  2  0
  8 22  1  1
 22 23  1  0
 23 24  1  0
 24 25  1  0
 26 25  1  6
 26 27  1  0
 27 28  2  0
 28 29  1  0
 29 30  2  0
 30 31  1  0
 31 32  2  0
 32 33  1  0
 26 34  1  0
 34 35  2  0
 35 36  1  0
 36 37  2  0
 37 38  1  0
 38 39  1  0
 39 40  1  0
 40 41  1  0
 41 42  2  0
 42 43  1  0
 43 44  2  0
 44 45  1  0
 45 46  2  0
 25 47  1  0
 47 48  1  0
  7  2  1  0
 13  9  1  0
 21 16  1  0
 48 22  1  0
 32 27  1  0
 38 34  1  0
 46 41  1  0
M  END
>  <Binding energies>  (69) 
[-12.86]

>  <Ligand effiencies>  (69) 
[-0.26791666666666664]

>  <Interactions>  (69) 
["V-A:PRO:540:CB:4885, V-A:ALA:541:CB:4892, V-A:LEU:363:CA:3185, V-B:LEU:475:CD1:9229, V-A:ASP:366:CG:3213, V-A:PRO:540:CA:4883, V-B:GLU:543:CD:9880, V-A:GLU:543:CD:4908, V-A:TYR:539:CD1:4873, V-A:TYR:539:CD2:4874, V-A:TYR:539:CE2:4876, V-A:ILE:538:CD1:4865, V-A:TYR:539:CE1:4875, V-A:TYR:539:C:4867, V-A:TYR:531:CE2:4793, V-A:ARG:545:CZ:4926, V-A:PRO:540:N:4884, V-B:TYR:539:CZ:9849, V-A:HIS:456:CE1:4069, V-B:GLU:543:CG:9879, V-B:PRO:540:N:9856, V-B:TYR:539:CD2:9846, V-B:PRO:540:CA:9855, V-B:TYR:539:CE2:9848, V-A:ILE:538:CA:4860, V-A:PRO:540:CD:4887, V-A:LEU:363:CD1:3189, V-A:GLY:453:CA:4044, H-B:TYR:539:OH:9850, H-A:ASN:362:ND2:3179, H-A:ALA:541:N:4891"]

$$$$
RR14_Rahimova_2017
     RDKit          3D

 39 43  0  0  0  0  0  0  0  0999 V2000
  133.3760  125.2590   65.6060 C   0  0  0  0  0  0  0  0  0  0  0  0
  134.0120  124.7940   64.4200 O   0  0  0  0  0  0  0  0  0  0  0  0
  133.2540  124.1610   63.4530 C   0  0  0  0  0  0  0  0  0  0  0  0
  131.9580  123.7950   63.8190 C   0  0  0  0  0  0  0  0  0  0  0  0
  131.1290  123.1320   62.9200 C   0  0  0  0  0  0  0  0  0  0  0  0
  131.5940  122.8210   61.6400 C   0  0  0  0  0  0  0  0  0  0  0  0
  130.7120  122.0370   60.6760 C   0  0  0  0  0  0  0  0  0  0  0  0
  129.3550  122.5700   60.5690 N   0  0  0  0  0  0  0  0  0  0  0  0
  128.3420  121.9750   61.2090 N   0  0  0  0  0  0  0  0  0  0  0  0
  127.2260  122.7140   60.8650 N   0  0  0  0  0  0  0  0  0  0  0  0
  127.5850  123.7490   60.0080 N   0  0  0  0  0  0  0  0  0  0  0  0
  128.8810  123.6380   59.8370 C   0  0  0  0  0  0  0  0  0  0  0  0
  129.7300  124.5410   58.9520 C   0  0  0  0  0  0  0  0  0  0  0  0
  128.9380  125.2120   57.9090 N   0  0  0  0  0  0  0  0  0  0  0  0
  128.1470  126.3250   58.4500 C   0  0  0  0  0  0  0  0  0  0  0  0
  126.6630  126.2860   58.0270 C   0  0  0  0  0  0  0  0  0  0  0  0
  126.4560  126.2050   56.4990 C   0  0  0  0  0  0  0  0  0  0  0  0
  126.2680  124.8350   56.0110 N   0  0  0  0  0  0  0  0  0  0  0  0
  125.9430  123.9360   57.1260 C   0  0  0  0  0  0  0  0  0  0  0  0
  125.7900  122.4740   56.6530 C   0  0  0  0  0  0  0  0  0  0  0  0
  126.9570  122.0630   55.9490 O   0  0  0  0  0  0  0  0  0  0  0  0
  127.2070  122.8670   54.8020 C   0  0  0  0  0  0  0  0  0  0  0  0
  127.4050  124.3400   55.2200 C   0  0  0  0  0  0  0  0  0  0  0  0
  129.8180  125.6830   56.8300 C   0  0  0  0  0  0  0  0  0  0  0  0
  130.4200  127.0740   57.0150 C   0  0  0  0  0  0  0  0  0  0  0  0
  129.8950  128.1530   56.3850 C   0  0  0  0  0  0  0  0  0  0  0  0
  130.4820  129.5030   56.5150 C   0  0  0  0  0  0  0  0  0  0  0  0
  129.9520  130.6460   55.8930 C   0  0  0  0  0  0  0  0  0  0  0  0
  128.7060  130.5740   55.0210 C   0  0  0  0  0  0  0  0  0  0  0  0
  130.5840  131.8770   56.0830 C   0  0  0  0  0  0  0  0  0  0  0  0
  131.7240  131.9770   56.8780 C   0  0  0  0  0  0  0  0  0  0  0  0
  132.2580  130.8460   57.5030 C   0  0  0  0  0  0  0  0  0  0  0  0
  133.5040  130.9890   58.3670 C   0  0  0  0  0  0  0  0  0  0  0  0
  131.6320  129.6040   57.3190 C   0  0  0  0  0  0  0  0  0  0  0  0
  132.1360  128.4350   57.9270 N   0  0  0  0  0  0  0  0  0  0  0  0
  131.6310  127.1790   57.8360 C   0  0  0  0  0  0  0  0  0  0  0  0
  132.1840  126.2420   58.4100 O   0  0  0  0  0  0  0  0  0  0  0  0
  132.8780  123.2090   61.2550 C   0  0  0  0  0  0  0  0  0  0  0  0
  133.7070  123.8720   62.1560 C   0  0  0  0  0  0  0  0  0  0  0  0
  1  2  1  0
  2  3  1  0
  3  4  2  0
  4  5  1  0
  5  6  2  0
  6  7  1  0
  7  8  1  0
  8  9  1  0
  9 10  2  0
 10 11  1  0
 11 12  2  0
 12 13  1  0
 13 14  1  0
 14 15  1  0
 15 16  1  0
 16 17  1  0
 17 18  1  0
 18 19  1  0
 19 20  1  0
 20 21  1  0
 21 22  1  0
 22 23  1  0
 14 24  1  0
 24 25  1  0
 25 26  2  0
 26 27  1  0
 27 28  2  0
 28 29  1  0
 28 30  1  0
 30 31  2  0
 31 32  1  0
 32 33  1  0
 32 34  2  0
 34 35  1  0
 35 36  1  0
 36 37  2  0
  6 38  1  0
 38 39  2  0
 39  3  1  0
 12  8  1  0
 23 18  1  0
 36 25  1  0
 34 27  1  0
M  END
>  <Binding energies>  (70) 
[-10.02]

>  <Ligand effiencies>  (70) 
[-0.2505]

>  <Interactions>  (70) 
["V-A:PRO:540:CB:4885, V-A:LEU:363:CA:3185, V-A:ASP:366:CG:3213, V-A:PRO:540:CA:4883, V-A:LEU:363:CB:3187, V-A:TYR:539:CE1:4875, V-A:ASP:366:CB:3212, V-A:ARG:545:CZ:4926, V-A:PRO:540:N:4884, V-B:TYR:539:CZ:9849, V-A:ARG:545:CD:4923, V-A:HIS:456:CE1:4069, H-A:ARG:545:NE:4924, V-B:TYR:539:CE1:9847, V-B:PRO:540:N:9856, H-A:GLY:454:N:4050, H-A:ARG:545:NH2:4928, V-B:TYR:539:CD2:9846, V-B:PRO:540:CA:9855, V-B:TYR:539:C:9839, V-B:TYR:539:CE2:9848, V-A:PRO:540:CD:4887, V-A:LEU:363:CD1:3189, H-B:ALA:541:N:9863, V-B:PRO:540:CD:9859, V-B:PRO:540:CB:9857, V-B:ILE:538:CB:9834, V-B:ILE:538:CA:9832, V-B:TYR:539:CD1:9845, V-B:ILE:538:CG2:9835, H-B:TYR:539:N:9842, H-B:TYR:531:OH:9767, H-A:ASP:366:OD1:3214"]

$$$$
RR15_Rahimova_2017
     RDKit          3D

 45 49  0  0  0  0  0  0  0  0999 V2000
  127.2970  126.7780   73.5520 C   0  0  0  0  0  0  0  0  0  0  0  0
  128.1790  125.8410   72.9430 O   0  0  0  0  0  0  0  0  0  0  0  0
  128.4460  125.9380   71.5880 C   0  0  0  0  0  0  0  0  0  0  0  0
  127.9760  126.9820   70.7760 C   0  0  0  0  0  0  0  0  0  0  0  0
  128.2800  127.0180   69.4170 C   0  0  0  0  0  0  0  0  0  0  0  0
  129.0590  126.0160   68.8310 C   0  0  0  0  0  0  0  0  0  0  0  0
  129.3820  126.0520   67.3620 C   0  0  0  0  0  0  0  0  0  0  0  0
  130.3310  125.3050   66.8140 N   0  0  0  0  0  0  0  0  0  0  0  0
  130.3350  125.6180   65.4710 N   0  0  0  0  0  0  0  0  0  0  0  0
  129.3450  126.5030   65.3510 N   0  0  0  0  0  0  0  0  0  0  0  0
  129.1010  127.2280   64.1060 C   0  0  0  0  0  0  0  0  0  0  0  0
  129.6740  126.5500   62.8360 C   0  0  0  0  0  0  0  0  0  0  0  0
  130.8840  126.6460   62.6210 O   0  0  0  0  0  0  0  0  0  0  0  0
  128.8420  125.8440   62.0110 N   0  0  0  0  0  0  0  0  0  0  0  0
  127.5540  126.4050   61.5560 C   0  0  0  0  0  0  0  0  0  0  0  0
  127.1880  126.0180   60.1070 C   0  0  0  0  0  0  0  0  0  0  0  0
  126.5710  124.6080   59.9480 C   0  0  0  0  0  0  0  0  0  0  0  0
  126.6610  124.0740   58.5860 N   0  0  0  0  0  0  0  0  0  0  0  0
  127.6320  122.9780   58.4470 C   0  0  0  0  0  0  0  0  0  0  0  0
  127.6270  122.3960   57.0180 C   0  0  0  0  0  0  0  0  0  0  0  0
  126.3090  121.9970   56.6550 O   0  0  0  0  0  0  0  0  0  0  0  0
  125.3860  123.0810   56.6880 C   0  0  0  0  0  0  0  0  0  0  0  0
  125.3280  123.6800   58.1100 C   0  0  0  0  0  0  0  0  0  0  0  0
  129.2330  124.5600   61.3520 C   0  0  2  0  0  0  0  0  0  0  0  0
  129.5350  123.3990   62.3500 C   0  0  0  0  0  0  0  0  0  0  0  0
  129.1270  122.2560   62.1380 O   0  0  0  0  0  0  0  0  0  0  0  0
  130.2920  123.7260   63.4120 N   0  0  0  0  0  0  0  0  0  0  0  0
  130.7850  122.7920   64.4180 C   0  0  0  0  0  0  0  0  0  0  0  0
  132.3240  122.7720   64.4520 C   0  0  2  0  0  0  0  0  0  0  0  0
  132.9940  124.1080   64.8170 C   0  0  0  0  0  0  0  0  0  0  0  0
  133.4530  124.6760   63.4960 C   0  0  0  0  0  0  0  0  0  0  0  0
  133.8020  123.4100   62.7320 C   0  0  0  0  0  0  0  0  0  0  0  0
  132.7500  122.5270   63.1040 O   0  0  0  0  0  0  0  0  0  0  0  0
  130.2460  124.8120   60.2410 C   0  0  0  0  0  0  0  0  0  0  0  0
  130.1680  126.0210   59.5400 C   0  0  0  0  0  0  0  0  0  0  0  0
  131.0660  126.3050   58.5150 C   0  0  0  0  0  0  0  0  0  0  0  0
  132.0520  125.3800   58.1850 C   0  0  0  0  0  0  0  0  0  0  0  0
  132.9250  125.6560   57.1900 F   0  0  0  0  0  0  0  0  0  0  0  0
  132.1460  124.1730   58.8720 C   0  0  0  0  0  0  0  0  0  0  0  0
  131.2460  123.8890   59.8960 C   0  0  0  0  0  0  0  0  0  0  0  0
  128.7520  126.8330   66.5050 N   0  0  0  0  0  0  0  0  0  0  0  0
  129.5290  124.9770   69.6450 C   0  0  0  0  0  0  0  0  0  0  0  0
  129.2340  124.9270   71.0180 C   0  0  0  0  0  0  0  0  0  0  0  0
  129.6770  123.9250   71.8620 O   0  0  0  0  0  0  0  0  0  0  0  0
  131.0030  123.4240   71.7250 C   0  0  0  0  0  0  0  0  0  0  0  0
  1  2  1  0
  2  3  1  0
  3  4  2  0
  4  5  1  0
  5  6  2  0
  6  7  1  0
  7  8  1  0
  8  9  2  0
  9 10  1  0
 10 11  1  0
 11 12  1  0
 12 13  2  0
 12 14  1  0
 14 15  1  0
 15 16  1  0
 16 17  1  0
 17 18  1  0
 18 19  1  0
 19 20  1  0
 20 21  1  0
 21 22  1  0
 22 23  1  0
 24 14  1  1
 24 25  1  0
 25 26  2  0
 25 27  1  0
 27 28  1  0
 29 28  1  6
 29 30  1  0
 30 31  1  0
 31 32  1  0
 32 33  1  0
 24 34  1  0
 34 35  2  0
 35 36  1  0
 36 37  2  0
 37 38  1  0
 37 39  1  0
 39 40  2  0
 10 41  1  0
  6 42  1  0
 42 43  2  0
 43 44  1  0
 44 45  1  0
 43  3  1  0
 41  7  2  0
 23 18  1  0
 33 29  1  0
 40 34  1  0
M  END
>  <Binding energies>  (71) 
[-8.5]

>  <Ligand effiencies>  (71) 
[-0.18478260869565216]

>  <Interactions>  (71) 
["V-B:GLU:543:C:9874, V-B:GLY:544:C:9884, V-B:HIS:456:CE1:9040, V-A:ASP:366:CG:3213, V-B:GLU:543:CD:9880, V-A:GLU:543:CD:4908, V-A:ASP:366:CB:3212, V-A:ARG:545:CZ:4926, V-B:TYR:539:CZ:9849, H-A:TYR:484:OH:4348, V-A:HIS:456:CE1:4069, V-B:TYR:539:CE1:9847, V-A:LEU:475:CD1:4258, V-A:TYR:484:CE1:4345, V-A:GLY:454:CA:4049, V-B:PRO:540:N:9856, V-A:TYR:484:CZ:4347, H-A:ARG:545:NH2:4928, V-B:TYR:539:CD2:9846, V-B:PRO:540:CA:9855, V-B:TYR:539:C:9839, V-B:TYR:539:CE2:9848, V-B:PRO:540:CD:9859, V-B:PRO:540:CB:9857, V-A:HIS:456:CG:4066, V-A:HIS:456:CD2:4068, V-A:HIS:456:CB:4065, H-B:LYS:547:NZ:9923, V-A:TYR:484:CD2:4344, V-A:TYR:484:CG:4342, V-B:LEU:363:CD1:8160, V-B:TYR:539:CG:9844, V-B:TYR:539:CD1:9845, V-B:TYR:539:CA:9841, H-B:TYR:539:N:9842, V-A:TYR:484:CE2:4346, V-A:ASP:366:C:3208, V-A:ASP:366:CA:3210"]

$$$$
RR17_Rahimova_2017
     RDKit          3D

 38 41  0  0  0  0  0  0  0  0999 V2000
  131.0230  132.4950   55.2890 C   0  0  0  0  0  0  0  0  0  0  0  0
  129.6690  132.1720   54.6500 C   0  0  0  0  0  0  0  0  0  0  0  0
  128.9090  131.3830   55.5610 O   0  0  0  0  0  0  0  0  0  0  0  0
  128.8430  130.0140   55.3800 C   0  0  0  0  0  0  0  0  0  0  0  0
  129.6780  129.2380   56.1830 C   0  0  0  0  0  0  0  0  0  0  0  0
  129.6820  127.8520   56.0710 C   0  0  0  0  0  0  0  0  0  0  0  0
  128.8470  127.2080   55.1470 C   0  0  0  0  0  0  0  0  0  0  0  0
  128.8720  125.7110   55.0490 C   0  0  0  0  0  0  0  0  0  0  0  0
  129.4150  125.0010   55.9010 O   0  0  0  0  0  0  0  0  0  0  0  0
  128.1940  125.0770   53.8130 C   0  0  0  0  0  0  0  0  0  0  0  0
  126.4500  124.6320   54.1360 S   0  0  0  0  0  0  0  0  0  0  0  0
  126.6490  123.6640   55.6050 C   0  0  0  0  0  0  0  0  0  0  0  0
  126.8870  122.3740   55.6390 N   0  0  0  0  0  0  0  0  0  0  0  0
  126.9840  121.9940   56.9720 N   0  0  0  0  0  0  0  0  0  0  0  0
  126.8050  123.0710   57.6940 C   0  0  0  0  0  0  0  0  0  0  0  0
  126.8430  123.1080   59.2150 C   0  0  0  0  0  0  0  0  0  0  0  0
  127.6710  122.0620   59.8100 N   0  0  0  0  0  0  0  0  0  0  0  0
  128.4610  122.2490   60.9580 C   0  0  0  0  0  0  0  0  0  0  0  0
  129.4810  121.3270   61.1940 C   0  0  0  0  0  0  0  0  0  0  0  0
  130.2960  121.4510   62.3150 C   0  0  0  0  0  0  0  0  0  0  0  0
  130.1030  122.5030   63.2140 C   0  0  0  0  0  0  0  0  0  0  0  0
  131.0040  122.6210   64.4430 C   0  0  0  0  0  0  0  0  0  0  0  0
  130.8030  123.7600   65.1100 F   0  0  0  0  0  0  0  0  0  0  0  0
  130.7800  121.6090   65.2830 F   0  0  0  0  0  0  0  0  0  0  0  0
  132.2790  122.5820   64.0560 F   0  0  0  0  0  0  0  0  0  0  0  0
  129.0860  123.4340   62.9750 C   0  0  0  0  0  0  0  0  0  0  0  0
  128.2720  123.3100   61.8540 C   0  0  0  0  0  0  0  0  0  0  0  0
  126.5750  124.1670   56.8880 N   0  0  0  0  0  0  0  0  0  0  0  0
  126.3500  125.4940   57.2850 C   0  0  0  0  0  0  0  0  0  0  0  0
  125.1340  126.1060   56.9820 C   0  0  0  0  0  0  0  0  0  0  0  0
  124.9130  127.4240   57.3720 C   0  0  0  0  0  0  0  0  0  0  0  0
  125.9070  128.1330   58.0660 C   0  0  0  0  0  0  0  0  0  0  0  0
  125.7760  129.4410   58.4920 O   0  0  0  0  0  0  0  0  0  0  0  0
  124.6490  130.2000   58.0670 C   0  0  0  0  0  0  0  0  0  0  0  0
  127.1190  127.5050   58.3580 C   0  0  0  0  0  0  0  0  0  0  0  0
  127.3470  126.1870   57.9720 C   0  0  0  0  0  0  0  0  0  0  0  0
  128.0060  127.9890   54.3390 C   0  0  0  0  0  0  0  0  0  0  0  0
  128.0030  129.3770   54.4540 C   0  0  0  0  0  0  0  0  0  0  0  0
  1  2  1  0
  2  3  1  0
  3  4  1  0
  4  5  2  0
  5  6  1  0
  6  7  2  0
  7  8  1  0
  8  9  2  0
  8 10  1  0
 10 11  1  0
 11 12  1  0
 12 13  2  0
 13 14  1  0
 14 15  2  0
 15 16  1  0
 16 17  1  0
 17 18  1  0
 18 19  2  0
 19 20  1  0
 20 21  2  0
 21 22  1  0
 22 23  1  0
 22 24  1  0
 22 25  1  0
 21 26  1  0
 26 27  2  0
 15 28  1  0
 28 29  1  0
 29 30  2  0
 30 31  1  0
 31 32  2  0
 32 33  1  0
 33 34  1  0
 32 35  1  0
 35 36  2  0
  7 37  1  0
 37 38  2  0
 38  4  1  0
 28 12  1  0
 36 29  1  0
 27 18  1  0
M  END
>  <Binding energies>  (72) 
[-7.57]

>  <Ligand effiencies>  (72) 
[-0.1941025641025641]

>  <Interactions>  (72) 
["V-B:GLU:543:CD:9880, V-A:TYR:539:CD1:4873, V-A:TYR:539:CE1:4875, V-A:TYR:539:CZ:4877, V-B:ASP:366:CG:8184, V-A:MET:535:CE:4835, V-B:ALA:541:CB:9864, V-B:GLU:543:CG:9879, V-A:LEU:475:CD1:4258, V-A:TYR:484:CE1:4345, V-A:GLY:454:CA:4049, V-B:PRO:540:N:9856, V-A:TYR:484:CZ:4347, V-B:TYR:539:CD2:9846, V-B:PRO:540:CA:9855, V-B:TYR:539:C:9839, V-B:PRO:540:C:9853, V-A:ILE:538:CA:4860, V-B:PRO:540:CB:9857, V-B:TYR:531:CZ:9766, V-A:TYR:484:CD1:4343, V-B:TYR:531:CE2:9765, V-B:ILE:538:CG2:9835, H-B:TYR:539:N:9842, H-B:TYR:539:OH:9850, V-A:LEU:475:CD2:4259, H-B:TYR:531:OH:9767, V-B:ASP:366:CB:8183, H-B:TYR:539:O:9840, V-A:LEU:475:CG:4257"]

$$$$
RR19_Rahimova_2017
     RDKit          3D

 46 51  0  0  0  0  0  0  0  0999 V2000
  133.4810  123.8540   64.0990 O   0  0  0  0  0  0  0  0  0  0  0  0
  132.3600  124.0040   63.6050 C   0  0  0  0  0  0  0  0  0  0  0  0
  132.0930  124.2910   62.3050 N   0  0  0  0  0  0  0  0  0  0  0  0
  132.8640  124.2840   61.1690 C   0  0  0  0  0  0  0  0  0  0  0  0
  134.4250  123.6430   61.0400 S   0  0  0  0  0  0  0  0  0  0  0  0
  132.1570  124.8830   60.1560 N   0  0  0  0  0  0  0  0  0  0  0  0
  132.3810  125.0130   58.8240 C   0  0  0  0  0  0  0  0  0  0  0  0
  133.2460  124.4290   58.1670 O   0  0  0  0  0  0  0  0  0  0  0  0
  131.4390  126.0240   58.1230 C   0  0  2  0  0  0  0  0  0  0  0  0
  131.0550  127.2630   58.9840 C   0  0  0  0  0  0  0  0  0  0  0  0
  131.6610  128.5800   58.5290 C   0  0  0  0  0  0  0  0  0  0  0  0
  131.5060  129.7530   59.2990 C   0  0  0  0  0  0  0  0  0  0  0  0
  132.1330  130.9290   58.9090 C   0  0  0  0  0  0  0  0  0  0  0  0
  132.9300  130.9530   57.7700 C   0  0  0  0  0  0  0  0  0  0  0  0
  133.1160  129.8000   57.0190 C   0  0  0  0  0  0  0  0  0  0  0  0
  132.5000  128.6130   57.3940 C   0  0  0  0  0  0  0  0  0  0  0  0
  130.2330  125.3470   57.5720 N   0  0  0  0  0  0  0  0  0  0  0  0
  129.3300  124.7320   58.3870 C   0  0  0  0  0  0  0  0  0  0  0  0
  129.3830  124.6250   59.6130 O   0  0  0  0  0  0  0  0  0  0  0  0
  128.2650  124.2240   57.4870 C   0  0  0  0  0  0  0  0  0  0  0  0
  127.0960  123.5140   57.7630 C   0  0  0  0  0  0  0  0  0  0  0  0
  126.2570  123.1650   56.6990 C   0  0  0  0  0  0  0  0  0  0  0  0
  126.5920  123.5290   55.3870 C   0  0  0  0  0  0  0  0  0  0  0  0
  127.7680  124.2420   55.1320 C   0  0  0  0  0  0  0  0  0  0  0  0
  128.5920  124.5790   56.2070 C   0  0  0  0  0  0  0  0  0  0  0  0
  129.8740  125.3240   56.2530 C   0  0  0  0  0  0  0  0  0  0  0  0
  130.4780  125.8240   55.3020 O   0  0  0  0  0  0  0  0  0  0  0  0
  131.1030  123.8790   64.5070 C   0  0  2  0  0  0  0  0  0  0  0  0
  130.2540  122.6050   64.2310 C   0  0  0  0  0  0  0  0  0  0  0  0
  129.9520  122.3710   62.7620 C   0  0  0  0  0  0  0  0  0  0  0  0
  130.8540  121.6370   61.9630 C   0  0  0  0  0  0  0  0  0  0  0  0
  130.5280  121.3370   60.6450 C   0  0  0  0  0  0  0  0  0  0  0  0
  129.3060  121.7330   60.1190 C   0  0  0  0  0  0  0  0  0  0  0  0
  128.3920  122.4230   60.9060 C   0  0  0  0  0  0  0  0  0  0  0  0
  128.6990  122.7330   62.2250 C   0  0  0  0  0  0  0  0  0  0  0  0
  130.2580  125.1070   64.5170 N   0  0  0  0  0  0  0  0  0  0  0  0
  129.9980  125.7890   65.6680 C   0  0  0  0  0  0  0  0  0  0  0  0
  130.3780  125.5070   66.8040 O   0  0  0  0  0  0  0  0  0  0  0  0
  129.1590  126.9440   65.2590 C   0  0  0  0  0  0  0  0  0  0  0  0
  128.5920  127.9730   66.0120 C   0  0  0  0  0  0  0  0  0  0  0  0
  127.8370  128.9480   65.3510 C   0  0  0  0  0  0  0  0  0  0  0  0
  127.6620  128.8850   63.9620 C   0  0  0  0  0  0  0  0  0  0  0  0
  128.2400  127.8460   63.2250 C   0  0  0  0  0  0  0  0  0  0  0  0
  128.9880  126.8820   63.9040 C   0  0  0  0  0  0  0  0  0  0  0  0
  129.7120  125.6870   63.4070 C   0  0  0  0  0  0  0  0  0  0  0  0
  129.8020  125.2990   62.2410 O   0  0  0  0  0  0  0  0  0  0  0  0
  1  2  2  0
  2  3  1  0
  3  4  1  0
  4  5  2  0
  4  6  1  0
  6  7  1  0
  7  8  2  0
  7  9  1  0
  9 10  1  1
 10 11  1  0
 11 12  2  0
 12 13  1  0
 13 14  2  0
 14 15  1  0
 15 16  2  0
  9 17  1  0
 17 18  1  0
 18 19  2  0
 18 20  1  0
 20 21  2  0
 21 22  1  0
 22 23  2  0
 23 24  1  0
 24 25  2  0
 25 26  1  0
 26 27  2  0
  2 28  1  0
 28 29  1  6
 29 30  1  0
 30 31  2  0
 31 32  1  0
 32 33  2  0
 33 34  1  0
 34 35  2  0
 28 36  1  0
 36 37  1  0
 37 38  2  0
 37 39  1  0
 39 40  2  0
 40 41  1  0
 41 42  2  0
 42 43  1  0
 43 44  2  0
 44 45  1  0
 45 46  2  0
 16 11  1  0
 26 17  1  0
 35 30  1  0
 45 36  1  0
 25 20  1  0
 44 39  1  0
M  END
>  <Binding energies>  (73) 
[-10.92]

>  <Ligand effiencies>  (73) 
[-0.2275]

>  <Interactions>  (73) 
["V-A:PRO:540:CB:4885, V-A:ASP:366:CG:3213, V-A:PRO:540:CA:4883, V-B:GLU:543:CD:9880, V-A:GLU:543:CD:4908, V-A:ASP:366:CB:3212, V-A:TYR:531:CE2:4793, V-A:TYR:531:CZ:4794, V-B:TYR:539:CZ:9849, V-B:ALA:541:CB:9864, H-A:TYR:484:OH:4348, V-B:TYR:539:CE1:9847, V-B:GLU:543:CG:9879, V-A:LEU:475:CD1:4258, V-B:PRO:540:N:9856, H-A:GLY:454:N:4050, V-B:TYR:539:CD2:9846, V-B:TYR:539:CE2:9848, V-A:ILE:369:CD1:3239, V-A:LEU:363:CD1:3189, V-B:ILE:538:CB:9834, V-B:ILE:538:CG2:9835, H-A:TYR:531:OH:4795, H-B:TYR:539:OH:9850"]

$$$$
RR1_Rahimova_2017
     RDKit          3D

 41 44  0  0  0  0  0  0  0  0999 V2000
  131.8870  132.4590   55.5080 C   0  0  0  0  0  0  0  0  0  0  0  0
  130.9900  132.8660   56.5360 O   0  0  0  0  0  0  0  0  0  0  0  0
  130.8200  132.0570   57.6420 C   0  0  0  0  0  0  0  0  0  0  0  0
  129.7030  132.1010   58.4910 C   0  0  0  0  0  0  0  0  0  0  0  0
  129.6210  131.2500   59.5890 C   0  0  0  0  0  0  0  0  0  0  0  0
  130.6450  130.3390   59.8540 C   0  0  0  0  0  0  0  0  0  0  0  0
  130.4920  129.5540   61.0130 N   0  0  0  0  0  0  0  0  0  0  0  0
  130.2060  128.2390   61.1230 C   0  0  0  0  0  0  0  0  0  0  0  0
  129.9530  127.4940   60.1760 O   0  0  0  0  0  0  0  0  0  0  0  0
  130.2070  127.7030   62.5640 C   0  0  0  0  0  0  0  0  0  0  0  0
  128.6290  126.9790   63.1320 S   0  0  0  0  0  0  0  0  0  0  0  0
  129.1610  126.4670   64.7310 C   0  0  0  0  0  0  0  0  0  0  0  0
  128.8650  127.0950   65.8410 N   0  0  0  0  0  0  0  0  0  0  0  0
  129.4520  126.3670   66.7850 C   0  0  0  0  0  0  0  0  0  0  0  0
  129.3630  126.7170   68.2430 C   0  0  0  0  0  0  0  0  0  0  0  0
  129.0660  125.7470   69.2140 C   0  0  0  0  0  0  0  0  0  0  0  0
  128.9860  126.1030   70.5620 C   0  0  0  0  0  0  0  0  0  0  0  0
  129.2070  127.4340   70.9120 C   0  0  0  0  0  0  0  0  0  0  0  0
  129.4950  128.3970   70.0000 N   0  0  0  0  0  0  0  0  0  0  0  0
  129.5700  128.0300   68.6950 C   0  0  0  0  0  0  0  0  0  0  0  0
  130.1170  125.3110   66.3540 N   0  0  0  0  0  0  0  0  0  0  0  0
  129.9320  125.3740   65.0320 N   0  0  0  0  0  0  0  0  0  0  0  0
  130.4970  124.3500   64.1520 C   0  0  0  0  0  0  0  0  0  0  0  0
  130.2920  124.6000   62.6480 C   0  0  0  0  0  0  0  0  0  0  0  0
  131.2160  125.0230   61.9450 O   0  0  0  0  0  0  0  0  0  0  0  0
  129.0550  124.3270   62.1900 N   0  0  0  0  0  0  0  0  0  0  0  0
  128.8360  124.3870   60.8210 N   0  0  0  0  0  0  0  0  0  0  0  0
  128.1760  123.3610   60.2420 C   0  0  0  0  0  0  0  0  0  0  0  0
  127.6660  122.4250   60.8670 O   0  0  0  0  0  0  0  0  0  0  0  0
  128.0600  123.4240   58.7330 C   0  0  0  0  0  0  0  0  0  0  0  0
  128.8910  124.2810   58.0030 C   0  0  0  0  0  0  0  0  0  0  0  0
  128.7930  124.3640   56.6180 C   0  0  0  0  0  0  0  0  0  0  0  0
  127.8510  123.5930   55.9180 C   0  0  0  0  0  0  0  0  0  0  0  0
  127.6930  123.6380   54.5440 O   0  0  0  0  0  0  0  0  0  0  0  0
  126.7950  124.5820   53.9720 C   0  0  0  0  0  0  0  0  0  0  0  0
  127.0040  122.7340   56.6310 C   0  0  0  0  0  0  0  0  0  0  0  0
  126.0800  122.0120   55.8950 O   0  0  0  0  0  0  0  0  0  0  0  0
  124.7170  122.4230   55.8790 C   0  0  0  0  0  0  0  0  0  0  0  0
  127.1180  122.6550   58.0300 C   0  0  0  0  0  0  0  0  0  0  0  0
  131.7630  130.2910   59.0070 C   0  0  0  0  0  0  0  0  0  0  0  0
  131.8400  131.1430   57.9100 C   0  0  0  0  0  0  0  0  0  0  0  0
  1  2  1  0
  2  3  1  0
  3  4  2  0
  4  5  1  0
  5  6  2  0
  6  7  1  0
  7  8  1  0
  8  9  2  0
  8 10  1  0
 10 11  1  0
 11 12  1  0
 12 13  2  0
 13 14  1  0
 14 15  1  0
 15 16  2  0
 16 17  1  0
 17 18  2  0
 18 19  1  0
 19 20  2  0
 14 21  2  0
 21 22  1  0
 22 23  1  0
 23 24  1  0
 24 25  2  0
 24 26  1  0
 26 27  1  0
 27 28  1  0
 28 29  2  0
 28 30  1  0
 30 31  2  0
 31 32  1  0
 32 33  2  0
 33 34  1  0
 34 35  1  0
 33 36  1  0
 36 37  1  0
 37 38  1  0
 36 39  2  0
  6 40  1  0
 40 41  2  0
 41  3  1  0
 22 12  1  0
 39 30  1  0
 20 15  1  0
M  END
>  <Binding energies>  (74) 
[-8.83]

>  <Ligand effiencies>  (74) 
[-0.20068181818181818]

>  <Interactions>  (74) 
["V-A:PRO:540:CB:4885, V-B:GLU:543:C:9874, V-B:HIS:456:CE1:9040, H-A:GLU:543:OE1:4909, V-A:PRO:540:CA:4883, V-B:GLU:543:CD:9880, V-A:GLU:543:CD:4908, V-A:ILE:538:CD1:4865, V-A:TYR:539:C:4867, V-A:PRO:540:N:4884, H-B:GLU:543:OE2:9882, V-B:TYR:539:CZ:9849, H-A:TYR:484:OH:4348, V-A:HIS:456:CE1:4069, V-B:TYR:539:CE1:9847, V-B:GLU:543:CG:9879, V-B:PRO:540:N:9856, V-B:TYR:539:CD2:9846, V-B:PRO:540:CA:9855, V-B:TYR:539:C:9839, V-B:TYR:539:CE2:9848, V-A:PRO:540:CD:4887, H-A:TYR:539:N:4870, V-A:ILE:538:CG2:4863, V-A:LEU:363:CD1:3189, H-B:ALA:541:N:9863, V-B:PRO:540:CD:9859, V-B:PRO:540:CB:9857, H-A:HIS:456:NE2:4070, V-A:HIS:456:CD2:4068, H-B:HIS:456:NE2:9041, V-B:LEU:363:CD1:8160, V-B:ILE:538:CB:9834, V-B:MET:535:CG:9805, V-B:ILE:538:CA:9832, V-B:ILE:538:CG2:9835, H-B:TYR:539:N:9842, V-B:MET:535:CB:9804"]

$$$$
RR22_Rahimova_2017
     RDKit          3D

 31 36  0  0  0  0  0  0  0  0999 V2000
  129.8700  133.4010   54.3410 O   0  0  0  0  0  0  0  0  0  0  0  0
  129.9260  132.4830   55.1560 C   0  0  0  0  0  0  0  0  0  0  0  0
  130.5490  132.4890   56.3920 N   0  0  0  0  0  0  0  0  0  0  0  0
  130.4680  131.3490   57.2530 C   0  0  1  0  0  0  0  0  0  0  0  0
  131.8250  130.9960   57.5370 O   0  0  0  0  0  0  0  0  0  0  0  0
  132.2470  131.0020   58.8670 C   0  0  0  0  0  0  0  0  0  0  0  0
  133.6250  131.0210   59.0820 C   0  0  0  0  0  0  0  0  0  0  0  0
  134.1240  130.9870   60.3840 C   0  0  0  0  0  0  0  0  0  0  0  0
  133.2460  130.9260   61.4670 C   0  0  0  0  0  0  0  0  0  0  0  0
  131.8670  130.9060   61.2520 C   0  0  0  0  0  0  0  0  0  0  0  0
  131.3520  130.9650   59.9530 C   0  0  0  0  0  0  0  0  0  0  0  0
  129.8800  130.9050   59.6120 C   0  0  1  0  0  0  0  0  0  0  0  0
  128.8100  131.4740   60.5220 C   0  0  0  0  0  0  0  0  0  0  0  0
  127.7590  131.8640   59.4780 C   0  0  0  0  0  0  0  0  0  0  0  0
  126.3460  132.1160   59.8240 C   0  0  0  0  0  0  0  0  0  0  0  0
  126.0010  133.1550   60.7010 C   0  0  0  0  0  0  0  0  0  0  0  0
  124.6670  133.3890   61.0220 C   0  0  0  0  0  0  0  0  0  0  0  0
  123.6710  132.5880   60.4700 C   0  0  0  0  0  0  0  0  0  0  0  0
  123.9980  131.5530   59.5980 C   0  0  0  0  0  0  0  0  0  0  0  0
  125.3310  131.3180   59.2750 C   0  0  0  0  0  0  0  0  0  0  0  0
  128.2800  131.9590   58.3130 N   0  0  0  0  0  0  0  0  0  0  0  0
  129.6520  131.6810   58.4300 N   0  0  0  0  0  0  0  0  0  0  0  0
  129.8770  130.2180   56.4240 C   0  0  0  0  0  0  0  0  0  0  0  0
  129.9640  128.9160   56.7850 C   0  0  0  0  0  0  0  0  0  0  0  0
  129.4240  127.7310   56.0900 C   0  0  0  0  0  0  0  0  0  0  0  0
  130.0710  126.4870   56.0780 C   0  0  0  0  0  0  0  0  0  0  0  0
  129.4990  125.4100   55.3990 C   0  0  0  0  0  0  0  0  0  0  0  0
  128.2870  125.6080   54.7380 C   0  0  0  0  0  0  0  0  0  0  0  0
  127.6430  126.8020   54.7260 N   0  0  0  0  0  0  0  0  0  0  0  0
  128.2140  127.8370   55.3930 C   0  0  0  0  0  0  0  0  0  0  0  0
  129.1770  130.8420   54.9230 S   0  0  0  0  0  0  0  0  0  0  0  0
  1  2  2  0
  2  3  1  0
  4  3  1  6
  4  5  1  0
  5  6  1  0
  6  7  2  0
  7  8  1  0
  8  9  2  0
  9 10  1  0
 10 11  2  0
 11 12  1  0
 12 13  1  1
 13 14  1  0
 14 15  1  0
 15 16  2  0
 16 17  1  0
 17 18  2  0
 18 19  1  0
 19 20  2  0
 14 21  2  0
 21 22  1  0
  4 23  1  0
 23 24  2  0
 24 25  1  0
 25 26  2  0
 26 27  1  0
 27 28  2  0
 28 29  1  0
 29 30  2  0
 23 31  1  0
 31  2  1  0
 22  4  1  0
 30 25  1  0
 11  6  1  0
 22 12  1  0
 20 15  1  0
M  END
>  <Binding energies>  (75) 
[-8.67]

>  <Ligand effiencies>  (75) 
[-0.2709375]

>  <Interactions>  (75) 
["V-A:PRO:540:CB:4885, V-A:ASN:362:CB:3176, V-A:LEU:363:CA:3185, V-A:ASN:362:C:3172, V-B:LEU:475:CD1:9229, V-A:ASP:366:CG:3213, V-A:PRO:540:CA:4883, V-A:LEU:363:CB:3187, V-A:TYR:539:CD1:4873, V-A:TYR:539:CD2:4874, V-A:TYR:539:CE2:4876, V-A:TYR:539:CE1:4875, V-A:TYR:539:C:4867, V-A:TYR:539:CZ:4877, V-A:PRO:540:N:4884, V-B:ILE:369:CD1:8210, V-B:TYR:539:CZ:9849, V-A:PRO:540:CD:4887, H-A:TYR:539:N:4870, H-B:TYR:531:OH:9767, V-B:ILE:369:CG2:8208, H-A:TYR:539:O:4868, V-B:ILE:369:CB:8207, V-A:ASN:362:CA:3174"]

$$$$
RR24_Rahimova_2017
     RDKit          3D

 43 49  0  0  0  0  0  0  0  0999 V2000
  128.2440  131.7990   60.4280 C   0  0  0  0  0  0  0  0  0  0  0  0
  129.4100  130.9030   59.9860 C   0  0  2  0  0  0  0  0  0  0  0  0
  130.5200  130.7620   61.0690 C   0  0  0  0  0  0  0  0  0  0  0  0
  130.8340  131.6980   61.8120 O   0  0  0  0  0  0  0  0  0  0  0  0
  131.0980  129.5250   61.0680 O   0  0  0  0  0  0  0  0  0  0  0  0
  130.3010  128.4030   61.0500 C   0  0  0  0  0  0  0  0  0  0  0  0
  130.5830  127.3770   60.1460 C   0  0  0  0  0  0  0  0  0  0  0  0
  129.7900  126.2330   60.1260 C   0  0  0  0  0  0  0  0  0  0  0  0
  128.7180  126.1060   61.0140 C   0  0  0  0  0  0  0  0  0  0  0  0
  127.8360  124.8530   60.9740 C   0  0  1  0  0  0  0  0  0  0  0  0
  127.1250  124.6900   59.6100 C   0  0  0  0  0  0  0  0  0  0  0  0
  127.1620  123.5460   58.9020 C   0  0  0  0  0  0  0  0  0  0  0  0
  127.8390  122.4350   59.3400 N   0  0  0  0  0  0  0  0  0  0  0  0
  128.5190  122.4380   60.5350 C   0  0  0  0  0  0  0  0  0  0  0  0
  129.1270  121.2590   60.8270 N   0  0  0  0  0  0  0  0  0  0  0  0
  129.9110  121.0980   61.9280 C   0  0  0  0  0  0  0  0  0  0  0  0
  130.6830  120.1380   61.9830 O   0  0  0  0  0  0  0  0  0  0  0  0
  129.8630  122.1600   62.8170 N   0  0  0  0  0  0  0  0  0  0  0  0
  130.6240  121.9980   64.0730 C   0  0  0  0  0  0  0  0  0  0  0  0
  129.2780  123.4000   62.6210 C   0  0  0  0  0  0  0  0  0  0  0  0
  129.3190  124.3230   63.4400 O   0  0  0  0  0  0  0  0  0  0  0  0
  128.5680  123.5280   61.3440 C   0  0  0  0  0  0  0  0  0  0  0  0
  126.4100  123.6790   57.6650 C   0  0  0  0  0  0  0  0  0  0  0  0
  126.1530  122.8040   56.6090 C   0  0  0  0  0  0  0  0  0  0  0  0
  125.3750  123.2420   55.5340 C   0  0  0  0  0  0  0  0  0  0  0  0
  124.8610  124.5420   55.5210 C   0  0  0  0  0  0  0  0  0  0  0  0
  125.1220  125.4140   56.5820 C   0  0  0  0  0  0  0  0  0  0  0  0
  125.9010  124.9710   57.6520 C   0  0  0  0  0  0  0  0  0  0  0  0
  126.3240  125.6690   58.8850 C   0  0  0  0  0  0  0  0  0  0  0  0
  126.0830  126.8150   59.2620 O   0  0  0  0  0  0  0  0  0  0  0  0
  128.4500  127.1280   61.9310 C   0  0  0  0  0  0  0  0  0  0  0  0
  129.2430  128.2710   61.9530 C   0  0  0  0  0  0  0  0  0  0  0  0
  129.9580  131.3100   58.6590 N   0  0  0  0  0  0  0  0  0  0  0  0
  129.1420  131.6950   57.6380 C   0  0  0  0  0  0  0  0  0  0  0  0
  127.9110  131.7550   57.6460 O   0  0  0  0  0  0  0  0  0  0  0  0
  130.0490  132.0270   56.5110 C   0  0  0  0  0  0  0  0  0  0  0  0
  129.7730  132.4740   55.2180 C   0  0  0  0  0  0  0  0  0  0  0  0
  130.8450  132.7140   54.3510 C   0  0  0  0  0  0  0  0  0  0  0  0
  132.1620  132.5100   54.7810 C   0  0  0  0  0  0  0  0  0  0  0  0
  132.4180  132.0620   56.0820 C   0  0  0  0  0  0  0  0  0  0  0  0
  131.3360  131.8260   56.9320 C   0  0  0  0  0  0  0  0  0  0  0  0
  131.2880  131.3600   58.3400 C   0  0  0  0  0  0  0  0  0  0  0  0
  132.2430  131.0820   59.0660 O   0  0  0  0  0  0  0  0  0  0  0  0
  2  1  1  1
  2  3  1  0
  3  4  2  0
  3  5  1  0
  5  6  1  0
  6  7  2  0
  7  8  1  0
  8  9  2  0
 10  9  1  6
 10 11  1  0
 11 12  2  0
 12 13  1  0
 13 14  1  0
 14 15  1  0
 15 16  1  0
 16 17  2  0
 16 18  1  0
 18 19  1  0
 18 20  1  0
 20 21  2  0
 20 22  1  0
 12 23  1  0
 23 24  2  0
 24 25  1  0
 25 26  2  0
 26 27  1  0
 27 28  2  0
 28 29  1  0
 29 30  2  0
  9 31  1  0
 31 32  2  0
  2 33  1  0
 33 34  1  0
 34 35  2  0
 34 36  1  0
 36 37  2  0
 37 38  1  0
 38 39  2  0
 39 40  1  0
 40 41  2  0
 41 42  1  0
 42 43  2  0
 32  6  1  0
 42 33  1  0
 22 10  1  0
 28 23  1  0
 41 36  1  0
 29 11  1  0
 22 14  2  0
M  END
>  <Binding energies>  (76) 
[-10.43]

>  <Ligand effiencies>  (76) 
[-0.23177777777777778]

>  <Interactions>  (76) 
["V-A:PRO:540:CB:4885, V-A:PRO:540:CA:4883, V-B:GLU:543:CD:9880, V-A:TYR:539:CD1:4873, V-A:ILE:538:CD1:4865, V-A:TYR:539:CE1:4875, V-A:TYR:531:CE2:4793, V-A:PRO:540:N:4884, V-B:ALA:541:CB:9864, V-B:GLU:543:CG:9879, V-A:LEU:475:CD1:4258, V-B:PRO:540:N:9856, H-A:ARG:545:NH2:4928, V-B:TYR:539:CD2:9846, V-B:PRO:540:CA:9855, V-B:TYR:539:C:9839, V-B:TYR:539:CE2:9848, V-A:ILE:538:CA:4860, V-A:PRO:540:CD:4887, V-A:ILE:538:CG2:4863, V-A:LEU:363:CD1:3189, V-B:PRO:540:CD:9859, V-B:TYR:531:CZ:9766, V-B:LEU:363:CD1:8160, V-B:TYR:531:CE2:9765, V-B:ILE:538:CB:9834, V-B:ILE:538:CG2:9835, V-A:ILE:538:C:4858, H-A:ALA:541:N:4891, H-A:TYR:539:OH:4878, H-B:TYR:539:O:9840, V-A:ILE:538:CB:4862"]

$$$$
RR25_Rahimova_2017
     RDKit          3D

 39 44  0  0  0  0  0  0  0  0999 V2000
  123.6600  129.5340   66.9980 O   0  0  0  0  0  0  0  0  0  0  0  0
  124.7530  129.1580   66.5740 C   0  0  0  0  0  0  0  0  0  0  0  0
  125.5790  128.5470   67.4860 O   0  0  0  0  0  0  0  0  0  0  0  0
  126.7140  127.8650   67.0870 C   0  0  0  0  0  0  0  0  0  0  0  0
  127.1660  126.8520   67.9320 C   0  0  0  0  0  0  0  0  0  0  0  0
  128.3090  126.1290   67.5960 C   0  0  0  0  0  0  0  0  0  0  0  0
  129.0170  126.4100   66.4180 C   0  0  0  0  0  0  0  0  0  0  0  0
  130.2290  125.6340   66.0590 N   0  0  0  0  0  0  0  0  0  0  0  0
  131.3280  126.0800   66.3770 O   0  0  0  0  0  0  0  0  0  0  0  0
  130.0900  124.5740   65.4560 O   0  0  0  0  0  0  0  0  0  0  0  0
  128.5520  127.4430   65.5870 C   0  0  0  0  0  0  0  0  0  0  0  0
  127.4120  128.1820   65.9130 C   0  0  0  0  0  0  0  0  0  0  0  0
  126.8640  129.2990   65.0440 C   0  0  0  0  0  0  0  0  0  0  0  0
  125.3120  129.3160   65.1300 C   0  0  2  0  0  0  0  0  0  0  0  0
  124.7180  130.5110   64.3280 C   0  0  0  0  0  0  0  0  0  0  0  0
  124.1660  131.3900   64.9950 O   0  0  0  0  0  0  0  0  0  0  0  0
  124.9060  130.6490   62.9810 N   0  0  0  0  0  0  0  0  0  0  0  0
  125.2700  129.5160   62.1040 C   0  0  0  0  0  0  0  0  0  0  0  0
  126.2400  130.0170   61.0130 C   0  0  0  0  0  0  0  0  0  0  0  0
  125.6750  131.1500   60.2750 N   0  0  0  0  0  0  0  0  0  0  0  0
  126.5370  131.5430   59.1510 C   0  0  0  0  0  0  0  0  0  0  0  0
  127.6160  132.5830   59.5550 C   0  0  0  0  0  0  0  0  0  0  0  0
  129.0340  132.1310   59.4520 N   0  0  0  0  0  0  0  0  0  0  0  0
  129.4560  131.8010   58.1810 C   0  0  0  0  0  0  0  0  0  0  0  0
  128.7150  131.8360   57.1920 O   0  0  0  0  0  0  0  0  0  0  0  0
  130.9170  131.4070   58.0830 C   0  0  0  0  0  0  0  0  0  0  0  0
  131.4580  131.0770   56.8340 C   0  0  0  0  0  0  0  0  0  0  0  0
  132.7980  130.7170   56.7060 C   0  0  0  0  0  0  0  0  0  0  0  0
  133.6390  130.6800   57.8170 C   0  0  0  0  0  0  0  0  0  0  0  0
  133.1370  131.0050   59.1000 C   0  0  0  0  0  0  0  0  0  0  0  0
  133.9350  130.9880   60.2680 C   0  0  0  0  0  0  0  0  0  0  0  0
  133.3770  131.3230   61.5010 C   0  0  0  0  0  0  0  0  0  0  0  0
  132.0330  131.6770   61.6060 C   0  0  0  0  0  0  0  0  0  0  0  0
  131.2050  131.7070   60.4770 C   0  0  0  0  0  0  0  0  0  0  0  0
  131.7660  131.3680   59.2180 C   0  0  0  0  0  0  0  0  0  0  0  0
  129.7500  132.1050   60.6310 C   0  0  0  0  0  0  0  0  0  0  0  0
  129.2630  132.3960   61.7290 O   0  0  0  0  0  0  0  0  0  0  0  0
  125.4340  132.2680   61.1880 C   0  0  0  0  0  0  0  0  0  0  0  0
  124.4410  131.8840   62.3110 C   0  0  0  0  0  0  0  0  0  0  0  0
  1  2  2  0
  2  3  1  0
  3  4  1  0
  4  5  2  0
  5  6  1  0
  6  7  2  0
  7  8  1  0
  8  9  2  0
  8 10  1  0
  7 11  1  0
 11 12  2  0
 12 13  1  0
 13 14  1  0
 14 15  1  1
 15 16  2  0
 15 17  1  0
 17 18  1  0
 18 19  1  0
 19 20  1  0
 20 21  1  0
 21 22  1  0
 22 23  1  0
 23 24  1  0
 24 25  2  0
 24 26  1  0
 26 27  2  0
 27 28  1  0
 28 29  2  0
 29 30  1  0
 30 31  2  0
 31 32  1  0
 32 33  2  0
 33 34  1  0
 34 35  2  0
 34 36  1  0
 36 37  2  0
 20 38  1  0
 38 39  1  0
 14  2  1  0
 39 17  1  0
 12  4  1  0
 36 23  1  0
 35 26  1  0
 35 30  1  0
M  CHG  2   8   1  10  -1
M  END
>  <Binding energies>  (77) 
[-11.08]

>  <Ligand effiencies>  (77) 
[-0.2841025641025641]

>  <Interactions>  (77) 
["V-B:ARG:545:CD:9895, V-A:PRO:540:CB:4885, V-A:ASN:362:CB:3176, V-B:GLU:543:C:9874, V-B:GLU:543:CB:9878, V-A:LEU:363:CA:3185, V-B:HIS:456:CE1:9040, V-A:ASN:362:C:3172, V-A:ASP:366:CG:3213, V-A:PRO:540:CA:4883, V-A:LEU:363:CB:3187, V-B:ARG:545:CG:9894, V-A:GLU:543:CD:4908, V-A:TYR:539:CD2:4874, V-A:TYR:539:CE2:4876, V-A:PRO:540:C:4881, V-A:TYR:539:CZ:4877, V-A:ASP:366:CB:3212, V-A:TYR:531:CE2:4793, V-A:PRO:540:N:4884, V-B:ASP:366:CG:8184, V-B:ARG:545:CZ:9898, H-A:TYR:484:OH:4348, V-A:HIS:456:CE1:4069, V-A:LEU:363:CD1:3189, H-B:GLY:454:N:9021, H-B:TYR:484:OH:9319, H-A:HIS:456:NE2:4070, H-B:ARG:545:NE:9896, H-B:ILE:455:N:9026, H-A:ALA:541:N:4891, V-A:ASN:362:CA:3174"]

$$$$
RR27_Rahimova_2017
     RDKit          3D

 39 44  0  0  0  0  0  0  0  0999 V2000
  127.5260  122.7380   60.7810 O   0  0  0  0  0  0  0  0  0  0  0  0
  128.7580  122.7760   60.8440 C   0  0  0  0  0  0  0  0  0  0  0  0
  129.4580  122.0870   62.0520 C   0  0  0  0  0  0  0  0  0  0  0  0
  129.5960  123.0100   63.2770 C   0  0  0  0  0  0  0  0  0  0  0  0
  129.8090  122.5000   64.5670 C   0  0  0  0  0  0  0  0  0  0  0  0
  129.9320  123.3630   65.6530 C   0  0  0  0  0  0  0  0  0  0  0  0
  129.8420  124.7380   65.4540 C   0  0  0  0  0  0  0  0  0  0  0  0
  129.6280  125.2580   64.1810 C   0  0  0  0  0  0  0  0  0  0  0  0
  129.5050  124.3950   63.0960 C   0  0  0  0  0  0  0  0  0  0  0  0
  130.7550  121.3710   61.6290 C   0  0  0  0  0  0  0  0  0  0  0  0
  130.7410  120.2770   60.7530 C   0  0  0  0  0  0  0  0  0  0  0  0
  131.9310  119.6460   60.4000 C   0  0  0  0  0  0  0  0  0  0  0  0
  133.1370  120.1020   60.9250 C   0  0  0  0  0  0  0  0  0  0  0  0
  133.1650  121.1810   61.8040 C   0  0  0  0  0  0  0  0  0  0  0  0
  131.9750  121.8100   62.1570 C   0  0  0  0  0  0  0  0  0  0  0  0
  129.5110  123.2680   59.8190 N   0  0  0  0  0  0  0  0  0  0  0  0
  130.9450  123.5700   59.9390 C   0  0  0  0  0  0  0  0  0  0  0  0
  131.0550  125.0190   60.4630 C   0  0  0  0  0  0  0  0  0  0  0  0
  130.2820  126.0430   59.5720 C   0  0  0  0  0  0  0  0  0  0  0  0
  130.2660  127.4850   60.1120 C   0  0  0  0  0  0  0  0  0  0  0  0
  129.4880  127.7130   61.2110 N   0  0  0  0  0  0  0  0  0  0  0  0
  129.4590  128.9660   61.7440 C   0  0  0  0  0  0  0  0  0  0  0  0
  128.7230  129.3160   62.8450 O   0  0  0  0  0  0  0  0  0  0  0  0
  130.2320  129.9760   61.1390 C   0  0  0  0  0  0  0  0  0  0  0  0
  130.4320  131.2970   61.4110 N   0  0  0  0  0  0  0  0  0  0  0  0
  131.3020  131.7860   60.4550 N   0  0  0  0  0  0  0  0  0  0  0  0
  131.6370  130.7830   59.6160 N   0  0  0  0  0  0  0  0  0  0  0  0
  132.5320  131.0270   58.4880 C   0  0  0  0  0  0  0  0  0  0  0  0
  131.8170  131.5030   57.2310 C   0  0  0  0  0  0  0  0  0  0  0  0
  132.4520  132.3850   56.3510 C   0  0  0  0  0  0  0  0  0  0  0  0
  131.8000  132.8130   55.1930 C   0  0  0  0  0  0  0  0  0  0  0  0
  130.5130  132.3580   54.9070 C   0  0  0  0  0  0  0  0  0  0  0  0
  129.8770  131.4700   55.7770 C   0  0  0  0  0  0  0  0  0  0  0  0
  128.2950  130.8840   55.4110 Cl  0  0  0  0  0  0  0  0  0  0  0  0
  130.5250  131.0480   56.9380 C   0  0  0  0  0  0  0  0  0  0  0  0
  130.9870  129.6220   60.0000 C   0  0  0  0  0  0  0  0  0  0  0  0
  131.0270  128.4050   59.4520 N   0  0  0  0  0  0  0  0  0  0  0  0
  128.8700  125.5160   59.1720 C   0  0  0  0  0  0  0  0  0  0  0  0
  128.8750  124.0300   58.7330 C   0  0  0  0  0  0  0  0  0  0  0  0
  1  2  2  0
  2  3  1  0
  3  4  1  0
  4  5  2  0
  5  6  1  0
  6  7  2  0
  7  8  1  0
  8  9  2  0
  3 10  1  0
 10 11  2  0
 11 12  1  0
 12 13  2  0
 13 14  1  0
 14 15  2  0
  2 16  1  0
 16 17  1  0
 17 18  1  0
 18 19  1  0
 19 20  1  0
 20 21  2  0
 21 22  1  0
 22 23  1  0
 22 24  2  0
 24 25  1  0
 25 26  2  0
 26 27  1  0
 27 28  1  0
 28 29  1  0
 29 30  2  0
 30 31  1  0
 31 32  2  0
 32 33  1  0
 33 34  1  0
 33 35  2  0
 27 36  1  0
 36 37  2  0
 19 38  1  0
 38 39  1  0
  9  4  1  0
 15 10  1  0
 39 16  1  0
 37 20  1  0
 36 24  1  0
 35 29  1  0
M  END
>  <Binding energies>  (78) 
[-9.67]

>  <Ligand effiencies>  (78) 
[-0.24175]

>  <Interactions>  (78) 
["V-A:PRO:540:CB:4885, V-B:GLU:543:CB:9878, H-A:GLU:543:OE1:4909, V-A:PRO:540:CA:4883, V-B:GLU:543:CD:9880, V-A:ILE:538:CD1:4865, V-A:TYR:539:CE1:4875, V-A:TYR:539:CZ:4877, V-A:PRO:540:N:4884, V-B:ALA:541:CB:9864, V-B:GLU:543:CG:9879, V-A:LEU:475:CD1:4258, V-A:TYR:484:CE1:4345, V-A:TYR:484:CZ:4347, V-B:TYR:539:CD2:9846, V-B:TYR:539:CE2:9848, V-A:ILE:538:CA:4860, V-A:ILE:369:CD1:3239, V-A:PRO:540:CD:4887, V-A:ILE:369:CG2:3237, V-A:ILE:538:CG2:4863, V-A:LEU:363:CD1:3189, H-B:ALA:541:N:9863, V-B:GLU:543:CA:9876, V-A:TRP:381:CZ2:3370, V-A:TRP:381:CH2:3372, V-A:PRO:540:CG:4886, V-A:ILE:538:C:4858, H-A:ALA:541:N:4891, V-A:ILE:538:CB:4862"]

$$$$
RR28_Rahimova_2017
     RDKit          3D

 46 49  0  0  0  0  0  0  0  0999 V2000
  134.4670  125.3740   66.0210 C   0  0  0  0  0  0  0  0  0  0  0  0
  133.3480  124.7130   65.2230 C   0  0  0  0  0  0  0  0  0  0  0  0
  133.5530  123.6340   64.6700 O   0  0  0  0  0  0  0  0  0  0  0  0
  132.1750  125.3760   65.1760 N   0  0  0  0  0  0  0  0  0  0  0  0
  130.9290  124.9850   64.4790 C   0  0  0  0  0  0  0  0  0  0  0  0
  129.8800  126.1150   64.6870 C   0  0  0  0  0  0  0  0  0  0  0  0
  129.5240  126.4920   65.9910 C   0  0  0  0  0  0  0  0  0  0  0  0
  128.5860  127.4950   66.2140 C   0  0  0  0  0  0  0  0  0  0  0  0
  127.9810  128.1450   65.1380 C   0  0  0  0  0  0  0  0  0  0  0  0
  126.9500  129.2420   65.4030 C   0  0  0  0  0  0  0  0  0  0  0  0
  126.3180  129.0720   66.5660 F   0  0  0  0  0  0  0  0  0  0  0  0
  127.5410  130.4360   65.4260 F   0  0  0  0  0  0  0  0  0  0  0  0
  126.0400  129.2320   64.4290 F   0  0  0  0  0  0  0  0  0  0  0  0
  128.3260  127.7780   63.8340 C   0  0  0  0  0  0  0  0  0  0  0  0
  129.2640  126.7740   63.6120 C   0  0  0  0  0  0  0  0  0  0  0  0
  130.4440  123.5740   64.9690 C   0  0  0  0  0  0  0  0  0  0  0  0
  131.4130  122.4260   64.5890 C   0  0  0  0  0  0  0  0  0  0  0  0
  131.5260  122.4450   63.1210 N   0  0  0  0  0  0  0  0  0  0  0  0
  130.7180  121.6580   62.3590 C   0  0  0  0  0  0  0  0  0  0  0  0
  129.9940  120.7910   62.8530 O   0  0  0  0  0  0  0  0  0  0  0  0
  130.8330  121.7410   60.8170 C   0  0  0  0  0  0  0  0  0  0  0  0
  129.4910  121.7260   60.0350 C   0  0  0  0  0  0  0  0  0  0  0  0
  128.4440  122.7610   60.5090 C   0  0  0  0  0  0  0  0  0  0  0  0
  127.6360  122.4130   61.3750 O   0  0  0  0  0  0  0  0  0  0  0  0
  128.5210  124.0500   60.0720 N   0  0  0  0  0  0  0  0  0  0  0  0
  129.2260  124.4450   58.8470 C   0  0  0  0  0  0  0  0  0  0  0  0
  128.2260  124.2600   57.6840 C   0  0  0  0  0  0  0  0  0  0  0  0
  126.8810  125.0510   57.8430 C   0  0  0  0  0  0  0  0  0  0  0  0
  125.8780  124.4950   56.9100 N   0  0  0  0  0  0  0  0  0  0  0  0
  125.7650  123.2250   56.4710 C   0  0  0  0  0  0  0  0  0  0  0  0
  124.6310  122.9480   55.4890 C   0  0  0  0  0  0  0  0  0  0  0  0
  126.5110  122.3080   56.8130 O   0  0  0  0  0  0  0  0  0  0  0  0
  127.1540  126.5300   57.4150 C   0  0  0  0  0  0  0  0  0  0  0  0
  126.4790  127.6230   57.9830 C   0  0  0  0  0  0  0  0  0  0  0  0
  126.7520  128.9260   57.5740 C   0  0  0  0  0  0  0  0  0  0  0  0
  127.7060  129.1680   56.5830 C   0  0  0  0  0  0  0  0  0  0  0  0
  128.0200  130.5920   56.1250 C   0  0  0  0  0  0  0  0  0  0  0  0
  129.3130  130.7130   55.8180 F   0  0  0  0  0  0  0  0  0  0  0  0
  127.2970  130.8730   55.0420 F   0  0  0  0  0  0  0  0  0  0  0  0
  127.7350  131.4960   57.0650 F   0  0  0  0  0  0  0  0  0  0  0  0
  128.3790  128.0920   56.0030 C   0  0  0  0  0  0  0  0  0  0  0  0
  128.1030  126.7910   56.4150 C   0  0  0  0  0  0  0  0  0  0  0  0
  126.3800  124.9180   59.3340 C   0  0  0  0  0  0  0  0  0  0  0  0
  127.4740  125.0140   60.4310 C   0  0  0  0  0  0  0  0  0  0  0  0
  132.1650  123.6630   62.6020 C   0  0  0  0  0  0  0  0  0  0  0  0
  131.2300  124.8500   62.9500 C   0  0  0  0  0  0  0  0  0  0  0  0
  1  2  1  0
  2  3  2  0
  2  4  1  0
  4  5  1  0
  5  6  1  0
  6  7  2  0
  7  8  1  0
  8  9  2  0
  9 10  1  0
 10 11  1  0
 10 12  1  0
 10 13  1  0
  9 14  1  0
 14 15  2  0
  5 16  1  0
 16 17  1  0
 17 18  1  0
 18 19  1  0
 19 20  2  0
 19 21  1  0
 21 22  1  0
 22 23  1  0
 23 24  2  0
 23 25  1  0
 25 26  1  0
 26 27  1  0
 27 28  1  0
 28 29  1  0
 29 30  1  0
 30 31  1  0
 30 32  2  0
 28 33  1  0
 33 34  2  0
 34 35  1  0
 35 36  2  0
 36 37  1  0
 37 38  1  0
 37 39  1  0
 37 40  1  0
 36 41  1  0
 41 42  2  0
 28 43  1  0
 43 44  1  0
 18 45  1  0
 45 46  1  0
 46  5  1  0
 15  6  1  0
 44 25  1  0
 42 33  1  0
M  END
>  <Binding energies>  (79) 
[-9.23]

>  <Ligand effiencies>  (79) 
[-0.19229166666666667]

>  <Interactions>  (79) 
["H-A:GLU:543:OE2:4910, V-B:HIS:456:CE1:9040, V-B:GLU:543:CD:9880, V-A:GLU:543:CD:4908, V-A:TYR:539:CD1:4873, V-A:TYR:539:CE2:4876, V-A:TYR:539:CE1:4875, V-A:TYR:539:CZ:4877, V-A:ARG:545:CZ:4926, V-B:TYR:539:CZ:9849, V-B:ALA:541:CB:9864, V-A:ARG:545:CD:4923, H-A:TYR:484:OH:4348, V-A:HIS:456:CE1:4069, V-A:LEU:475:CD1:4258, V-A:TYR:484:CE1:4345, V-A:TYR:484:CZ:4347, H-A:GLY:454:N:4050, V-B:TYR:539:CD2:9846, V-B:TYR:539:CE2:9848, H-B:ALA:541:N:9863, V-A:GLU:543:CB:4906, V-B:LEU:363:CD1:8160, V-B:ILE:538:CB:9834, V-B:ILE:538:CG2:9835, V-A:GLY:453:CA:4044, V-A:ARG:545:CG:4922, H-B:TYR:539:N:9842, V-B:TYR:484:CZ:9318, V-B:TYR:484:CE1:9316, H-B:TYR:531:OH:9767, V-A:LEU:475:CG:4257"]

$$$$
RR29_Rahimova_2017
     RDKit          3D

 18 19  0  0  0  0  0  0  0  0999 V2000
  128.0260  132.3930   62.6100 C   0  0  0  0  0  0  0  0  0  0  0  0
  129.1120  132.3260   61.5470 C   0  0  0  0  0  0  0  0  0  0  0  0
  128.6540  132.8810   60.1800 C   0  0  0  0  0  0  0  0  0  0  0  0
  127.9470  131.8020   59.3340 C   0  0  0  0  0  0  0  0  0  0  0  0
  128.4480  131.7750   57.8980 C   0  0  0  0  0  0  0  0  0  0  0  0
  127.7890  130.9810   56.9380 C   0  0  0  0  0  0  0  0  0  0  0  0
  128.2340  130.9420   55.6090 C   0  0  0  0  0  0  0  0  0  0  0  0
  129.3500  131.7030   55.2820 C   0  0  0  0  0  0  0  0  0  0  0  0
  129.9940  132.4730   56.2100 C   0  0  0  0  0  0  0  0  0  0  0  0
  129.5690  132.5400   57.5320 C   0  0  0  0  0  0  0  0  0  0  0  0
  131.0220  133.1320   55.6120 O   0  0  0  0  0  0  0  0  0  0  0  0
  131.1280  132.5810   54.3260 C   0  0  0  0  0  0  0  0  0  0  0  0
  129.9530  131.8560   54.0740 O   0  0  0  0  0  0  0  0  0  0  0  0
  130.2510  131.8300   61.8640 N   0  0  0  0  0  0  0  0  0  0  0  0
  131.2070  131.6890   60.8820 N   0  0  0  0  0  0  0  0  0  0  0  0
  131.9340  130.5760   60.6950 C   0  0  0  0  0  0  0  0  0  0  0  0
  131.8160  129.4590   61.4140 N   0  0  0  0  0  0  0  0  0  0  0  0
  132.8340  130.5830   59.7230 N   0  0  0  0  0  0  0  0  0  0  0  0
  1  2  1  0
  2  3  1  0
  3  4  1  0
  4  5  1  0
  5  6  2  0
  6  7  1  0
  7  8  2  0
  8  9  1  0
  9 10  2  0
  9 11  1  0
 11 12  1  0
 12 13  1  0
  2 14  2  0
 14 15  1  0
 15 16  1  0
 16 17  1  0
 16 18  2  0
 10  5  1  0
 13  8  1  0
M  CHG  1  18   1
M  END
>  <Binding energies>  (80) 
[-7.3]

>  <Ligand effiencies>  (80) 
[-0.3173913043478261]

>  <Interactions>  (80) 
["V-A:PRO:540:CB:4885, V-A:ALA:541:CB:4892, H-A:GLU:543:OE2:4910, H-A:GLU:543:OE1:4909, V-A:ASP:366:CG:3213, V-A:PRO:540:CA:4883, V-A:GLU:543:CD:4908, V-A:TYR:539:CD1:4873, V-A:TYR:539:CE2:4876, V-A:ILE:538:CD1:4865, V-A:TYR:539:CG:4872, V-A:TYR:539:CE1:4875, V-A:PRO:540:C:4881, V-A:TYR:539:C:4867, V-A:TYR:539:CZ:4877, V-A:PRO:540:N:4884, V-A:ILE:538:CA:4860, H-A:TYR:539:N:4870, H-A:ALA:541:N:4891, H-A:ASP:366:OD1:3214"]

$$$$
RR30_Rahimova_2017
     RDKit          3D

 18 19  0  0  0  0  0  0  0  0999 V2000
  133.5180  130.2400   57.3720 C   0  0  0  0  0  0  0  0  0  0  0  0
  133.2440  131.7490   57.3070 C   0  0  0  0  0  0  0  0  0  0  0  0
  131.9760  132.0690   56.5460 C   0  0  0  0  0  0  0  0  0  0  0  0
  131.6720  133.1690   55.9030 N   0  0  0  0  0  0  0  0  0  0  0  0
  130.3960  132.9690   55.3840 N   0  0  0  0  0  0  0  0  0  0  0  0
  130.0340  131.7700   55.7660 C   0  0  0  0  0  0  0  0  0  0  0  0
  128.5200  130.9390   55.4090 S   0  0  0  0  0  0  0  0  0  0  0  0
  127.6820  131.1100   57.0160 C   0  0  0  0  0  0  0  0  0  0  0  0
  128.5910  131.7360   58.0780 C   0  0  0  0  0  0  0  0  0  0  0  0
  128.7560  132.9580   58.0850 O   0  0  0  0  0  0  0  0  0  0  0  0
  129.1860  130.8720   58.9310 N   0  0  0  0  0  0  0  0  0  0  0  0
  130.0480  131.1990   59.9670 C   0  0  0  0  0  0  0  0  0  0  0  0
  129.8490  132.0420   60.9560 N   0  0  0  0  0  0  0  0  0  0  0  0
  130.9390  132.1170   61.8130 N   0  0  0  0  0  0  0  0  0  0  0  0
  131.9350  131.3370   61.4590 C   0  0  0  0  0  0  0  0  0  0  0  0
  133.2310  131.2470   62.2310 C   0  0  0  0  0  0  0  0  0  0  0  0
  131.6000  130.4240   60.0130 S   0  0  0  0  0  0  0  0  0  0  0  0
  130.9870  131.1410   56.5010 O   0  0  0  0  0  0  0  0  0  0  0  0
  1  2  1  0
  2  3  1  0
  3  4  2  0
  4  5  1  0
  5  6  2  0
  6  7  1  0
  7  8  1  0
  8  9  1  0
  9 10  2  0
  9 11  1  0
 11 12  1  0
 12 13  2  0
 13 14  1  0
 14 15  2  0
 15 16  1  0
 15 17  1  0
  6 18  1  0
 18  3  1  0
 17 12  1  0
M  END
>  <Binding energies>  (81) 
[-6.43]

>  <Ligand effiencies>  (81) 
[-0.33842105263157896]

>  <Interactions>  (81) 
["V-A:PRO:540:CB:4885, V-A:ASN:362:CB:3176, V-A:LEU:363:CA:3185, V-A:ASN:362:CG:3177, V-A:PRO:540:CA:4883, V-A:LEU:363:CB:3187, V-A:GLU:543:CD:4908, V-A:TYR:539:CE2:4876, V-A:TYR:539:CE1:4875, V-A:TYR:539:CZ:4877, V-A:ASP:366:CB:3212, V-A:ARG:545:CZ:4926, V-A:PRO:540:N:4884, V-A:PRO:540:CD:4887, H-A:TYR:539:N:4870, V-A:LEU:363:CD1:3189, V-A:PRO:540:CG:4886, H-A:ALA:541:N:4891, V-A:LEU:363:CG:3188"]

$$$$
RR31_Rahimova_2017
     RDKit          3D

 18 19  0  0  0  0  0  0  0  0999 V2000
  133.6010  119.3920   61.4170 C   0  0  0  0  0  0  0  0  0  0  0  0
  132.2880  120.0930   61.0940 C   0  0  0  0  0  0  0  0  0  0  0  0
  131.1000  119.3630   61.1280 C   0  0  0  0  0  0  0  0  0  0  0  0
  129.8820  119.9760   60.8400 C   0  0  0  0  0  0  0  0  0  0  0  0
  129.8150  121.3410   60.5180 C   0  0  0  0  0  0  0  0  0  0  0  0
  128.6040  121.9680   60.2180 N   0  0  0  0  0  0  0  0  0  0  0  0
  127.8690  122.7680   61.2160 C   0  0  0  0  0  0  0  0  0  0  0  0
  126.3890  123.0310   60.8490 C   0  0  0  0  0  0  0  0  0  0  0  0
  126.2820  123.6690   59.5340 N   0  0  0  0  0  0  0  0  0  0  0  0
  124.8920  123.9640   59.1730 C   0  0  0  0  0  0  0  0  0  0  0  0
  124.7360  125.2960   58.4130 C   0  0  0  0  0  0  0  0  0  0  0  0
  125.7680  126.3450   58.8580 C   0  0  0  0  0  0  0  0  0  0  0  0
  125.8590  126.3750   60.3870 N   0  0  0  0  0  0  0  0  0  0  0  0
  126.8620  122.7520   58.5540 C   0  0  0  0  0  0  0  0  0  0  0  0
  128.3550  122.4940   58.8600 C   0  0  0  0  0  0  0  0  0  0  0  0
  131.0190  122.0620   60.4790 C   0  0  0  0  0  0  0  0  0  0  0  0
  132.2480  121.4570   60.7650 C   0  0  0  0  0  0  0  0  0  0  0  0
  133.5200  122.2940   60.7020 C   0  0  0  0  0  0  0  0  0  0  0  0
  1  2  1  0
  2  3  2  0
  3  4  1  0
  4  5  2  0
  5  6  1  0
  6  7  1  0
  7  8  1  0
  8  9  1  0
  9 10  1  0
 10 11  1  0
 11 12  1  0
 12 13  1  0
  9 14  1  0
 14 15  1  0
  5 16  1  0
 16 17  2  0
 17 18  1  0
 17  2  1  0
 15  6  1  0
M  CHG  1  13   1
M  END
>  <Binding energies>  (82) 
[-6.31]

>  <Ligand effiencies>  (82) 
[-0.30047619047619045]

>  <Interactions>  (82) 
["V-B:GLU:543:CD:9880, H-B:ASP:366:OD1:8185, V-B:ASP:366:CG:8184, H-B:GLU:543:OE2:9882, V-B:TYR:539:CZ:9849, V-B:ALA:541:CB:9864, V-B:GLU:543:CG:9879, V-A:LEU:475:CD1:4258, V-B:PRO:540:N:9856, V-B:TYR:539:CD2:9846, V-B:PRO:540:CA:9855, V-B:TYR:539:C:9839, V-B:TYR:539:CE2:9848, V-B:PRO:540:C:9853, V-A:ILE:369:CD1:3239, V-A:ILE:369:CG2:3237, V-B:PRO:540:CB:9857, V-A:PRO:482:CB:4326, V-A:PRO:482:CG:4327, V-A:TRP:381:CZ2:3370, V-A:TRP:381:CH2:3372, V-A:SER:385:C:3405, V-A:SER:385:CA:3407, H-B:ASP:366:OD2:8186"]

$$$$
RR32_Rahimova_2017
     RDKit          3D

 18 20  0  0  0  0  0  0  0  0999 V2000
  133.5110  130.8050   57.7990 C   0  0  0  0  0  0  0  0  0  0  0  0
  132.0750  131.3020   57.6740 C   0  0  0  0  0  0  0  0  0  0  0  0
  131.3010  131.3820   58.8320 C   0  0  0  0  0  0  0  0  0  0  0  0
  129.9870  131.8340   58.7570 C   0  0  0  0  0  0  0  0  0  0  0  0
  129.2220  131.9120   59.9080 N   0  0  0  0  0  0  0  0  0  0  0  0
  129.9230  131.7550   61.1960 C   0  0  0  0  0  0  0  0  0  0  0  0
  128.9640  131.6760   62.4070 C   0  0  0  0  0  0  0  0  0  0  0  0
  128.1310  132.8760   62.4720 N   0  0  0  0  0  0  0  0  0  0  0  0
  127.2480  132.8160   63.6320 C   0  0  0  0  0  0  0  0  0  0  0  0
  127.3450  132.9470   61.2420 C   0  0  0  0  0  0  0  0  0  0  0  0
  128.2790  133.0420   60.0130 C   0  0  0  0  0  0  0  0  0  0  0  0
  129.4070  132.2070   57.5870 N   0  0  0  0  0  0  0  0  0  0  0  0
  130.1350  132.1370   56.4390 C   0  0  0  0  0  0  0  0  0  0  0  0
  129.5040  132.5300   55.2340 C   0  0  0  0  0  0  0  0  0  0  0  0
  130.1990  132.4800   54.0310 C   0  0  0  0  0  0  0  0  0  0  0  0
  131.5190  132.0450   53.9970 C   0  0  0  0  0  0  0  0  0  0  0  0
  132.1680  131.6520   55.1640 C   0  0  0  0  0  0  0  0  0  0  0  0
  131.4950  131.6870   56.4200 C   0  0  0  0  0  0  0  0  0  0  0  0
  1  2  1  0
  2  3  2  0
  3  4  1  0
  4  5  1  0
  5  6  1  0
  6  7  1  0
  7  8  1  0
  8  9  1  0
  8 10  1  0
 10 11  1  0
  4 12  2  0
 12 13  1  0
 13 14  2  0
 14 15  1  0
 15 16  2  0
 16 17  1  0
 17 18  2  0
 18  2  1  0
 11  5  1  0
 18 13  1  0
M  END
>  <Binding energies>  (83) 
[-6.29]

>  <Ligand effiencies>  (83) 
[-0.34944444444444445]

>  <Interactions>  (83) 
["V-A:PRO:540:CB:4885, V-A:ALA:541:CB:4892, V-A:LEU:363:CA:3185, V-B:LEU:475:CD1:9229, V-A:PRO:540:CA:4883, V-A:LEU:363:CB:3187, V-A:TYR:539:CD1:4873, V-A:TYR:539:CD2:4874, V-A:TYR:539:CE2:4876, V-A:ILE:538:CD1:4865, V-A:TYR:539:CG:4872, V-A:TYR:539:CE1:4875, V-A:TYR:539:C:4867, V-A:TYR:531:CE2:4793, V-A:PRO:540:N:4884, V-A:TYR:531:CZ:4794, V-A:ILE:538:CA:4860, V-A:LEU:363:CD1:3189"]

$$$$
RR5_Rahimova_2017
     RDKit          3D

 45 50  0  0  0  0  0  0  0  0999 V2000
  130.2440  132.6940   57.4550 O   0  0  0  0  0  0  0  0  0  0  0  0
  129.4540  131.7690   57.2730 C   0  0  0  0  0  0  0  0  0  0  0  0
  128.7300  131.6390   55.9190 C   0  0  0  0  0  0  0  0  0  0  0  0
  129.6770  131.2760   54.7200 C   0  0  2  0  0  0  0  0  0  0  0  0
  129.8660  129.8290   54.4920 N   0  0  0  0  0  0  0  0  0  0  0  0
  128.7930  128.9860   54.2400 C   0  0  0  0  0  0  0  0  0  0  0  0
  127.6090  129.3140   54.1300 O   0  0  0  0  0  0  0  0  0  0  0  0
  129.2550  127.7270   54.1470 O   0  0  0  0  0  0  0  0  0  0  0  0
  128.4100  126.6050   54.3870 C   0  0  0  0  0  0  0  0  0  0  0  0
  128.2060  126.3860   55.9020 C   0  0  0  0  0  0  0  0  0  0  0  0
  127.5570  125.0560   56.2430 C   0  0  0  0  0  0  0  0  0  0  0  0
  126.3260  124.5360   55.8320 C   0  0  0  0  0  0  0  0  0  0  0  0
  125.9330  123.2650   56.2540 C   0  0  0  0  0  0  0  0  0  0  0  0
  126.7650  122.5140   57.0860 C   0  0  0  0  0  0  0  0  0  0  0  0
  127.9930  123.0320   57.5000 C   0  0  0  0  0  0  0  0  0  0  0  0
  128.3840  124.3040   57.0770 C   0  0  0  0  0  0  0  0  0  0  0  0
  129.5970  125.0880   57.3600 C   0  0  0  0  0  0  0  0  0  0  0  0
  130.7170  124.7980   58.1430 C   0  0  0  0  0  0  0  0  0  0  0  0
  131.7370  125.7420   58.2630 C   0  0  0  0  0  0  0  0  0  0  0  0
  131.6390  126.9690   57.6020 C   0  0  0  0  0  0  0  0  0  0  0  0
  130.5210  127.2520   56.8190 C   0  0  0  0  0  0  0  0  0  0  0  0
  129.4980  126.3090   56.6920 C   0  0  0  0  0  0  0  0  0  0  0  0
  131.0560  131.9630   54.8820 C   0  0  0  0  0  0  0  0  0  0  0  0
  131.2370  133.1640   54.8640 O   0  0  0  0  0  0  0  0  0  0  0  0
  132.0220  131.0150   55.0640 O   0  0  0  0  0  0  0  0  0  0  0  0
  129.1750  130.8040   58.1770 N   0  0  0  0  0  0  0  0  0  0  0  0
  129.6350  130.5400   59.5730 C   0  0  0  0  0  0  0  0  0  0  0  0
  129.1950  129.0520   59.7870 C   0  0  0  0  0  0  0  0  0  0  0  0
  127.9850  128.5640   59.2660 C   0  0  0  0  0  0  0  0  0  0  0  0
  127.6050  127.2390   59.4610 C   0  0  0  0  0  0  0  0  0  0  0  0
  128.4230  126.3820   60.1890 C   0  0  0  0  0  0  0  0  0  0  0  0
  129.6260  126.8380   60.7150 C   0  0  0  0  0  0  0  0  0  0  0  0
  130.0110  128.1600   60.5100 C   0  0  0  0  0  0  0  0  0  0  0  0
  131.1910  130.7160   59.5930 C   0  0  0  0  0  0  0  0  0  0  0  0
  131.9770  130.4620   58.4580 C   0  0  0  0  0  0  0  0  0  0  0  0
  133.3620  130.6060   58.5040 C   0  0  0  0  0  0  0  0  0  0  0  0
  133.9780  131.0040   59.6860 C   0  0  0  0  0  0  0  0  0  0  0  0
  133.2200  131.2640   60.8230 C   0  0  0  0  0  0  0  0  0  0  0  0
  131.8360  131.1280   60.7720 C   0  0  0  0  0  0  0  0  0  0  0  0
  128.8530  131.5430   60.4860 C   0  0  0  0  0  0  0  0  0  0  0  0
  128.2680  132.7050   59.9500 C   0  0  0  0  0  0  0  0  0  0  0  0
  127.5790  133.6050   60.7580 C   0  0  0  0  0  0  0  0  0  0  0  0
  127.4550  133.3540   62.1190 C   0  0  0  0  0  0  0  0  0  0  0  0
  128.0090  132.2080   62.6760 C   0  0  0  0  0  0  0  0  0  0  0  0
  128.6980  131.3110   61.8650 C   0  0  0  0  0  0  0  0  0  0  0  0
  1  2  2  0
  2  3  1  0
  4  3  1  1
  4  5  1  0
  5  6  1  0
  6  7  2  0
  6  8  1  0
  8  9  1  0
  9 10  1  0
 10 11  1  0
 11 12  2  0
 12 13  1  0
 13 14  2  0
 14 15  1  0
 15 16  2  0
 16 17  1  0
 17 18  2  0
 18 19  1  0
 19 20  2  0
 20 21  1  0
 21 22  2  0
  4 23  1  0
 23 24  2  0
 23 25  1  0
  2 26  1  0
 26 27  1  0
 27 28  1  0
 28 29  2  0
 29 30  1  0
 30 31  2  0
 31 32  1  0
 32 33  2  0
 27 34  1  0
 34 35  2  0
 35 36  1  0
 36 37  2  0
 37 38  1  0
 38 39  2  0
 27 40  1  0
 40 41  2  0
 41 42  1  0
 42 43  2  0
 43 44  1  0
 44 45  2  0
 22 10  1  0
 33 28  1  0
 39 34  1  0
 45 40  1  0
 16 11  1  0
 22 17  1  0
M  END
>  <Binding energies>  (84) 
[-9.88]

>  <Ligand effiencies>  (84) 
[-0.20583333333333334]

>  <Interactions>  (84) 
["V-A:PRO:540:CB:4885, V-A:ASN:362:CB:3176, V-A:ALA:541:CB:4892, V-A:LEU:363:CA:3185, V-A:ASN:362:C:3172, V-B:LEU:475:CD1:9229, V-A:ASP:366:CG:3213, V-A:PRO:540:CA:4883, V-A:LEU:363:CB:3187, V-A:TYR:539:CD1:4873, V-A:TYR:539:CD2:4874, V-A:TYR:539:CE2:4876, V-A:ILE:538:CD1:4865, V-A:TYR:539:CE1:4875, V-A:TYR:539:CZ:4877, V-A:ASP:366:CB:3212, V-A:TYR:531:CZ:4794, V-B:TYR:539:CZ:9849, V-A:MET:535:CE:4835, V-B:PRO:540:N:9856, V-B:TYR:539:CD2:9846, V-B:PRO:540:CA:9855, V-B:TYR:539:C:9839, V-B:TYR:539:CE2:9848, H-A:TYR:539:N:4870, V-B:PRO:540:CD:9859, H-A:TYR:531:OH:4795, H-B:TYR:531:OH:9767"]

$$$$
