1a_Ghoteimi_2023
     RDKit          3D

 67 70  0  0  0  0  0  0  0  0999 V2000
  132.4720  131.8300   56.6470 C   0  0  0  0  0  0  0  0  0  0  0  0
  131.3540  132.5190   55.8590 C   0  0  0  0  0  0  0  0  0  0  0  0
  130.3280  132.9280   56.7570 O   0  0  0  0  0  0  0  0  0  0  0  0
  129.2770  132.1160   57.0370 C   0  0  0  0  0  0  0  0  0  0  0  0
  128.4410  131.7700   56.1970 O   0  0  0  0  0  0  0  0  0  0  0  0
  129.2350  131.6750   58.4720 C   0  0  0  0  0  0  0  0  0  0  0  0
  129.4600  130.3420   58.8460 C   0  0  0  0  0  0  0  0  0  0  0  0
  129.4110  129.9630   60.1850 C   0  0  0  0  0  0  0  0  0  0  0  0
  129.1400  130.9160   61.1780 C   0  0  0  0  0  0  0  0  0  0  0  0
  129.0620  130.6440   62.5580 N   0  0  0  0  0  0  0  0  0  0  0  0
  128.0680  130.9000   63.4360 C   0  0  0  0  0  0  0  0  0  0  0  0
  126.9920  131.4310   63.1640 O   0  0  0  0  0  0  0  0  0  0  0  0
  128.3390  130.4710   64.8780 C   0  0  0  0  0  0  0  0  0  0  0  0
  127.2550  129.1050   65.3880 S   0  0  0  0  0  0  0  0  0  0  0  0
  128.3280  127.8160   65.9780 C   0  0  0  0  0  0  0  0  0  0  0  0
  128.2040  127.5610   67.3020 N   0  0  0  0  0  0  0  0  0  0  0  0
  128.9650  126.5930   67.8780 C   0  0  0  0  0  0  0  0  0  0  0  0
  128.7550  126.3550   69.3450 C   0  0  0  0  0  0  0  0  0  0  0  0
  127.8320  127.1160   70.0830 C   0  0  0  0  0  0  0  0  0  0  0  0
  127.6380  126.8930   71.4430 C   0  0  0  0  0  0  0  0  0  0  0  0
  128.3600  125.9060   72.1100 C   0  0  0  0  0  0  0  0  0  0  0  0
  128.1010  125.7530   73.4580 O   0  0  0  0  0  0  0  0  0  0  0  0
  127.0730  126.5320   74.0600 C   0  0  0  0  0  0  0  0  0  0  0  0
  129.2880  125.1420   71.3890 C   0  0  0  0  0  0  0  0  0  0  0  0
  129.4790  125.3670   70.0290 C   0  0  0  0  0  0  0  0  0  0  0  0
  129.8790  125.8570   67.1140 C   0  0  0  0  0  0  0  0  0  0  0  0
  130.0430  126.1200   65.7470 C   0  0  0  0  0  0  0  0  0  0  0  0
  131.0600  125.3180   65.0020 C   0  0  0  0  0  0  0  0  0  0  0  0
  132.4150  125.3830   65.3430 C   0  0  0  0  0  0  0  0  0  0  0  0
  133.3540  124.6200   64.6530 C   0  0  0  0  0  0  0  0  0  0  0  0
  132.9580  123.7750   63.6170 C   0  0  0  0  0  0  0  0  0  0  0  0
  133.9590  123.0570   62.9920 O   0  0  0  0  0  0  0  0  0  0  0  0
  134.4730  123.5220   61.7480 C   0  0  0  0  0  0  0  0  0  0  0  0
  131.5980  123.7010   63.2780 C   0  0  0  0  0  0  0  0  0  0  0  0
  130.6610  124.4650   63.9690 C   0  0  0  0  0  0  0  0  0  0  0  0
  129.2430  127.1260   65.1540 C   0  0  0  0  0  0  0  0  0  0  0  0
  129.3590  127.4360   63.7250 C   0  0  0  0  0  0  0  0  0  0  0  0
  129.4510  127.6800   62.5980 N   0  0  0  0  0  0  0  0  0  0  0  0
  128.9120  132.2420   60.8090 C   0  0  0  0  0  0  0  0  0  0  0  0
  128.9610  132.6200   59.4700 C   0  0  0  0  0  0  0  0  0  0  0  0
  132.2854  131.9450   57.7249 H   0  0  0  0  0  0  0  0  0  0  0  0
  132.4956  130.7605   56.3910 H   0  0  0  0  0  0  0  0  0  0  0  0
  133.4380  132.2897   56.3910 H   0  0  0  0  0  0  0  0  0  0  0  0
  131.7597  133.3995   55.3392 H   0  0  0  0  0  0  0  0  0  0  0  0
  130.9386  131.8182   55.1198 H   0  0  0  0  0  0  0  0  0  0  0  0
  129.6772  129.5889   58.0742 H   0  0  0  0  0  0  0  0  0  0  0  0
  129.5853  128.9136   60.4648 H   0  0  0  0  0  0  0  0  0  0  0  0
  129.8650  130.1550   62.9260 H   0  0  0  0  0  0  0  0  0  0  0  0
  129.3863  130.1454   64.9622 H   0  0  0  0  0  0  0  0  0  0  0  0
  128.1393  131.3306   65.5347 H   0  0  0  0  0  0  0  0  0  0  0  0
  127.2526  127.9020   69.5765 H   0  0  0  0  0  0  0  0  0  0  0  0
  126.9078  127.5018   71.9963 H   0  0  0  0  0  0  0  0  0  0  0  0
  127.1578  126.4678   75.1548 H   0  0  0  0  0  0  0  0  0  0  0  0
  127.1758  127.5810   73.7452 H   0  0  0  0  0  0  0  0  0  0  0  0
  126.0909  126.1493   73.7452 H   0  0  0  0  0  0  0  0  0  0  0  0
  129.8685  124.3603   71.9009 H   0  0  0  0  0  0  0  0  0  0  0  0
  130.2121  124.7582   69.4795 H   0  0  0  0  0  0  0  0  0  0  0  0
  130.4742  125.0646   67.5913 H   0  0  0  0  0  0  0  0  0  0  0  0
  132.7412  126.0412   66.1617 H   0  0  0  0  0  0  0  0  0  0  0  0
  134.4172  124.6846   64.9278 H   0  0  0  0  0  0  0  0  0  0  0  0
  135.2772  124.2495   61.9325 H   0  0  0  0  0  0  0  0  0  0  0  0
  134.8720  122.6718   61.1753 H   0  0  0  0  0  0  0  0  0  0  0  0
  133.6669  124.0039   61.1753 H   0  0  0  0  0  0  0  0  0  0  0  0
  131.2713  123.0374   62.4639 H   0  0  0  0  0  0  0  0  0  0  0  0
  129.5968  124.3966   63.6994 H   0  0  0  0  0  0  0  0  0  0  0  0
  128.6920  132.9939   61.5812 H   0  0  0  0  0  0  0  0  0  0  0  0
  128.7831  133.6696   59.1929 H   0  0  0  0  0  0  0  0  0  0  0  0
  1  2  1  0
  2  3  1  0
  3  4  1  0
  4  5  2  0
  4  6  1  0
  6  7  2  0
  7  8  1  0
  8  9  2  0
  9 10  1  0
 10 11  1  0
 11 12  2  0
 11 13  1  0
 13 14  1  0
 14 15  1  0
 15 16  2  0
 16 17  1  0
 17 18  1  0
 18 19  2  0
 19 20  1  0
 20 21  2  0
 21 22  1  0
 22 23  1  0
 21 24  1  0
 24 25  2  0
 17 26  2  0
 26 27  1  0
 27 28  1  0
 28 29  2  0
 29 30  1  0
 30 31  2  0
 31 32  1  0
 32 33  1  0
 31 34  1  0
 34 35  2  0
 27 36  2  0
 36 37  1  0
 37 38  3  0
  9 39  1  0
 39 40  2  0
 40  6  1  0
 36 15  1  0
 25 18  1  0
 35 28  1  0
  1 41  1  0
  1 42  1  0
  1 43  1  0
  2 44  1  0
  2 45  1  0
  7 46  1  0
  8 47  1  0
 10 48  1  0
 13 49  1  0
 13 50  1  0
 19 51  1  0
 20 52  1  0
 23 53  1  0
 23 54  1  0
 23 55  1  0
 24 56  1  0
 25 57  1  0
 26 58  1  0
 29 59  1  0
 30 60  1  0
 33 61  1  0
 33 62  1  0
 33 63  1  0
 34 64  1  0
 35 65  1  0
 39 66  1  0
 40 67  1  0
M  END
>  <Binding energies>  (1) 
[-9.74]

>  <Ligand effiencies>  (1) 
[-0.23756097560975611]

>  <Interactions>  (1) 
["V-A:PRO:540:CB:4885, V-B:GLY:544:C:9884, H-A:GLU:543:OE2:4910, V-B:HIS:456:CE1:9040, H-A:GLU:543:OE1:4909, V-A:PRO:540:CA:4883, V-A:GLU:543:CD:4908, V-A:TYR:539:CD1:4873, V-A:TYR:539:CE1:4875, V-A:TYR:539:C:4867, V-A:GLU:543:CG:4907, V-A:TYR:539:CZ:4877, V-A:ARG:545:CZ:4926, V-A:PRO:540:N:4884, V-A:HIS:456:CE1:4069, V-A:GLY:454:CA:4049, H-A:GLY:454:N:4050, V-A:ILE:369:CD1:3239, V-A:PRO:540:CD:4887, H-A:TYR:539:N:4870, V-A:LEU:363:CD1:3189, H-B:TYR:484:OH:9319, V-A:HIS:456:CD2:4068, H-B:LYS:547:NZ:9923, V-A:GLU:543:CB:4906, V-B:LYS:547:CD:9921, V-B:LYS:547:CE:9922, H-A:TYR:539:OH:4878"]

$$$$
1a_Grossjean_2025
     RDKit          3D

 45 46  0  0  0  0  0  0  0  0999 V2000
  125.6400  127.2720   73.4920 C   0  0  0  0  0  0  0  0  0  0  0  0
  126.6780  126.5060   74.3180 C   0  0  0  0  0  0  0  0  0  0  0  0
  127.6830  125.9890   73.4550 O   0  0  0  0  0  0  0  0  0  0  0  0
  128.5200  126.8180   72.7780 C   0  0  0  0  0  0  0  0  0  0  0  0
  128.9230  127.8940   73.2300 O   0  0  0  0  0  0  0  0  0  0  0  0
  128.8930  126.3030   71.4180 C   0  0  0  0  0  0  0  0  0  0  0  0
  128.6060  127.0820   70.2890 C   0  0  0  0  0  0  0  0  0  0  0  0
  128.9360  126.6300   69.0150 C   0  0  0  0  0  0  0  0  0  0  0  0
  129.5560  125.3920   68.8410 C   0  0  0  0  0  0  0  0  0  0  0  0
  129.8420  125.0340   67.5090 N   0  0  0  0  0  0  0  0  0  0  0  0
  129.2700  125.4470   66.3580 C   0  0  0  0  0  0  0  0  0  0  0  0
  128.3470  126.2570   66.2670 O   0  0  0  0  0  0  0  0  0  0  0  0
  129.8480  124.8320   65.0810 C   0  0  0  0  0  0  0  0  0  0  0  0
  130.1240  123.0430   65.2470 S   0  0  0  0  0  0  0  0  0  0  0  0
  130.9770  122.4960   63.7850 C   0  0  0  0  0  0  0  0  0  0  0  0
  130.2420  121.6710   62.9980 N   0  0  0  0  0  0  0  0  0  0  0  0
  130.7980  121.1900   61.8610 C   0  0  0  0  0  0  0  0  0  0  0  0
  129.9210  120.2630   61.0390 C   0  0  0  0  0  0  0  0  0  0  0  0
  132.0910  121.5180   61.4590 C   0  0  0  0  0  0  0  0  0  0  0  0
  132.8500  122.3850   62.2520 C   0  0  0  0  0  0  0  0  0  0  0  0
  134.2590  122.7420   61.7840 C   0  0  0  0  0  0  0  0  0  0  0  0
  132.2890  122.9020   63.4430 C   0  0  0  0  0  0  0  0  0  0  0  0
  133.0470  123.8500   64.2640 C   0  0  0  0  0  0  0  0  0  0  0  0
  133.6470  124.5980   64.9110 N   0  0  0  0  0  0  0  0  0  0  0  0
  129.8550  124.6090   69.9660 C   0  0  0  0  0  0  0  0  0  0  0  0
  129.5240  125.0620   71.2400 C   0  0  0  0  0  0  0  0  0  0  0  0
  124.9416  127.7874   74.1677 H   0  0  0  0  0  0  0  0  0  0  0  0
  126.1498  128.0120   72.8576 H   0  0  0  0  0  0  0  0  0  0  0  0
  125.0832  126.5667   72.8576 H   0  0  0  0  0  0  0  0  0  0  0  0
  127.1379  127.1858   75.0504 H   0  0  0  0  0  0  0  0  0  0  0  0
  126.1861  125.6760   74.8464 H   0  0  0  0  0  0  0  0  0  0  0  0
  128.1157  128.0591   70.4109 H   0  0  0  0  0  0  0  0  0  0  0  0
  128.7064  127.2534   68.1383 H   0  0  0  0  0  0  0  0  0  0  0  0
  130.6140  124.3920   67.4140 H   0  0  0  0  0  0  0  0  0  0  0  0
  129.1448  125.0070   64.2534 H   0  0  0  0  0  0  0  0  0  0  0  0
  130.8204  125.3079   64.8863 H   0  0  0  0  0  0  0  0  0  0  0  0
  129.3232  119.6311   61.7123 H   0  0  0  0  0  0  0  0  0  0  0  0
  129.2497  120.8603   60.4045 H   0  0  0  0  0  0  0  0  0  0  0  0
  130.5546  119.6258   60.4045 H   0  0  0  0  0  0  0  0  0  0  0  0
  132.5092  121.1010   60.5310 H   0  0  0  0  0  0  0  0  0  0  0  0
  134.9054  122.9058   62.6588 H   0  0  0  0  0  0  0  0  0  0  0  0
  134.6639  121.9181   61.1780 H   0  0  0  0  0  0  0  0  0  0  0  0
  134.2227  123.6593   61.1780 H   0  0  0  0  0  0  0  0  0  0  0  0
  130.3518  123.6355   69.8412 H   0  0  0  0  0  0  0  0  0  0  0  0
  129.7595  124.4407   72.1166 H   0  0  0  0  0  0  0  0  0  0  0  0
  1  2  1  0
  2  3  1  0
  3  4  1  0
  4  5  2  0
  4  6  1  0
  6  7  2  0
  7  8  1  0
  8  9  2  0
  9 10  1  0
 10 11  1  0
 11 12  2  0
 11 13  1  0
 13 14  1  0
 14 15  1  0
 15 16  2  0
 16 17  1  0
 17 18  1  0
 17 19  2  0
 19 20  1  0
 20 21  1  0
 20 22  2  0
 22 23  1  0
 23 24  3  0
  9 25  1  0
 25 26  2  0
 26  6  1  0
 22 15  1  0
  1 27  1  0
  1 28  1  0
  1 29  1  0
  2 30  1  0
  2 31  1  0
  7 32  1  0
  8 33  1  0
 10 34  1  0
 13 35  1  0
 13 36  1  0
 18 37  1  0
 18 38  1  0
 18 39  1  0
 19 40  1  0
 21 41  1  0
 21 42  1  0
 21 43  1  0
 25 44  1  0
 26 45  1  0
M  END
>  <Binding energies>  (1) 
[-7.99]

>  <Ligand effiencies>  (1) 
[-0.2959259259259259]

>  <Interactions>  (1) 
["V-B:GLU:543:C:9874, V-B:GLU:543:CB:9878, V-B:HIS:456:CE1:9040, V-B:ALA:541:CB:9864, H-A:TYR:484:OH:4348, V-A:HIS:456:CE1:4069, V-B:GLU:543:CG:9879, V-A:LEU:475:CD1:4258, V-A:TYR:484:CE1:4345, V-A:GLY:454:CA:4049, V-A:TYR:484:CZ:4347, H-A:GLY:454:N:4050, V-B:TYR:539:CD2:9846, V-A:ILE:369:CD1:3239, V-A:HIS:456:CG:4066, V-A:HIS:456:CD2:4068, H-A:LYS:547:NZ:4951, H-B:LYS:547:NZ:9923, V-B:HIS:456:CG:9037, V-B:HIS:456:CB:9036, V-B:LYS:547:CD:9921, V-B:LYS:547:CE:9922, H-B:GLU:543:O:9875, H-A:HIS:456:ND1:4067"]

$$$$
1aa_Ghoteimi_2023
     RDKit          3D

 67 70  0  0  0  0  0  0  0  0999 V2000
  125.8600  123.9870   55.2010 C   0  0  0  0  0  0  0  0  0  0  0  0
  125.1290  123.2660   56.3380 C   0  0  0  0  0  0  0  0  0  0  0  0
  125.8820  123.3910   57.5380 O   0  0  0  0  0  0  0  0  0  0  0  0
  127.0090  122.6610   57.7370 C   0  0  0  0  0  0  0  0  0  0  0  0
  127.5470  121.9860   56.8550 O   0  0  0  0  0  0  0  0  0  0  0  0
  127.5380  122.7560   59.1390 C   0  0  0  0  0  0  0  0  0  0  0  0
  128.4840  121.8480   59.6390 C   0  0  0  0  0  0  0  0  0  0  0  0
  128.9580  121.9610   60.9440 C   0  0  0  0  0  0  0  0  0  0  0  0
  128.4930  122.9920   61.7740 C   0  0  0  0  0  0  0  0  0  0  0  0
  128.8980  123.2040   63.1050 N   0  0  0  0  0  0  0  0  0  0  0  0
  130.1090  123.5340   63.6110 C   0  0  0  0  0  0  0  0  0  0  0  0
  131.1240  123.7230   62.9410 O   0  0  0  0  0  0  0  0  0  0  0  0
  130.2160  123.6870   65.1370 C   0  0  0  0  0  0  0  0  0  0  0  0
  130.5360  125.0400   65.4850 O   0  0  0  0  0  0  0  0  0  0  0  0
  129.6590  125.7940   66.2510 C   0  0  0  0  0  0  0  0  0  0  0  0
  129.7160  125.6630   67.6060 N   0  0  0  0  0  0  0  0  0  0  0  0
  128.8640  126.3740   68.3900 C   0  0  0  0  0  0  0  0  0  0  0  0
  128.9930  126.1760   69.8730 C   0  0  0  0  0  0  0  0  0  0  0  0
  129.4570  124.9620   70.4010 C   0  0  0  0  0  0  0  0  0  0  0  0
  129.5750  124.7750   71.7750 C   0  0  0  0  0  0  0  0  0  0  0  0
  129.2360  125.7930   72.6630 C   0  0  0  0  0  0  0  0  0  0  0  0
  129.3850  125.5170   74.0090 O   0  0  0  0  0  0  0  0  0  0  0  0
  130.6950  125.3720   74.5470 C   0  0  0  0  0  0  0  0  0  0  0  0
  128.7760  127.0140   72.1500 C   0  0  0  0  0  0  0  0  0  0  0  0
  128.6590  127.1980   70.7760 C   0  0  0  0  0  0  0  0  0  0  0  0
  127.9380  127.2570   67.8200 C   0  0  0  0  0  0  0  0  0  0  0  0
  127.8660  127.4180   66.4290 C   0  0  0  0  0  0  0  0  0  0  0  0
  126.8640  128.3820   65.8840 C   0  0  0  0  0  0  0  0  0  0  0  0
  127.2060  129.2260   64.8230 C   0  0  0  0  0  0  0  0  0  0  0  0
  126.2750  130.1210   64.3030 C   0  0  0  0  0  0  0  0  0  0  0  0
  124.9840  130.1860   64.8270 C   0  0  0  0  0  0  0  0  0  0  0  0
  124.1280  131.1040   64.2480 O   0  0  0  0  0  0  0  0  0  0  0  0
  123.8720  131.0290   62.8500 C   0  0  0  0  0  0  0  0  0  0  0  0
  124.6350  129.3360   65.8860 C   0  0  0  0  0  0  0  0  0  0  0  0
  125.5670  128.4420   66.4060 C   0  0  0  0  0  0  0  0  0  0  0  0
  128.7450  126.6580   65.6240 C   0  0  0  0  0  0  0  0  0  0  0  0
  128.7130  126.7270   64.1620 C   0  0  0  0  0  0  0  0  0  0  0  0
  128.6900  126.7800   63.0060 N   0  0  0  0  0  0  0  0  0  0  0  0
  127.5510  123.8960   61.2810 C   0  0  0  0  0  0  0  0  0  0  0  0
  127.0790  123.7810   59.9770 C   0  0  0  0  0  0  0  0  0  0  0  0
  126.5830  124.7001   55.6239 H   0  0  0  0  0  0  0  0  0  0  0  0
  126.3917  123.2499   54.5813 H   0  0  0  0  0  0  0  0  0  0  0  0
  125.1303  124.5288   54.5813 H   0  0  0  0  0  0  0  0  0  0  0  0
  124.1356  123.7166   56.4795 H   0  0  0  0  0  0  0  0  0  0  0  0
  125.0152  122.2016   56.0849 H   0  0  0  0  0  0  0  0  0  0  0  0
  128.8552  121.0384   58.9935 H   0  0  0  0  0  0  0  0  0  0  0  0
  129.6977  121.2410   61.3241 H   0  0  0  0  0  0  0  0  0  0  0  0
  128.1570  123.0940   63.7830 H   0  0  0  0  0  0  0  0  0  0  0  0
  129.2549  123.4127   65.5965 H   0  0  0  0  0  0  0  0  0  0  0  0
  131.0149  123.0266   65.5054 H   0  0  0  0  0  0  0  0  0  0  0  0
  129.7320  124.1447   69.7180 H   0  0  0  0  0  0  0  0  0  0  0  0
  129.9399  123.8129   72.1638 H   0  0  0  0  0  0  0  0  0  0  0  0
  130.6428  125.3778   75.6457 H   0  0  0  0  0  0  0  0  0  0  0  0
  131.1284  124.4204   74.2055 H   0  0  0  0  0  0  0  0  0  0  0  0
  131.3260  126.2058   74.2055 H   0  0  0  0  0  0  0  0  0  0  0  0
  128.5065  127.8299   72.8368 H   0  0  0  0  0  0  0  0  0  0  0  0
  128.2979  128.1626   70.3897 H   0  0  0  0  0  0  0  0  0  0  0  0
  127.2605  127.8299   68.4702 H   0  0  0  0  0  0  0  0  0  0  0  0
  128.2187  129.1825   64.3958 H   0  0  0  0  0  0  0  0  0  0  0  0
  126.5600  130.7826   63.4717 H   0  0  0  0  0  0  0  0  0  0  0  0
  122.8284  130.7233   62.6842 H   0  0  0  0  0  0  0  0  0  0  0  0
  124.0423  132.0148   62.3926 H   0  0  0  0  0  0  0  0  0  0  0  0
  124.5474  130.2910   62.3926 H   0  0  0  0  0  0  0  0  0  0  0  0
  123.6199  129.3757   66.3080 H   0  0  0  0  0  0  0  0  0  0  0  0
  125.2814  127.7770   67.2344 H   0  0  0  0  0  0  0  0  0  0  0  0
  127.1792  124.7047   61.9274 H   0  0  0  0  0  0  0  0  0  0  0  0
  126.3383  124.5018   59.6004 H   0  0  0  0  0  0  0  0  0  0  0  0
  1  2  1  0
  2  3  1  0
  3  4  1  0
  4  5  2  0
  4  6  1  0
  6  7  2  0
  7  8  1  0
  8  9  2  0
  9 10  1  0
 10 11  1  0
 11 12  2  0
 11 13  1  0
 13 14  1  0
 14 15  1  0
 15 16  2  0
 16 17  1  0
 17 18  1  0
 18 19  2  0
 19 20  1  0
 20 21  2  0
 21 22  1  0
 22 23  1  0
 21 24  1  0
 24 25  2  0
 17 26  2  0
 26 27  1  0
 27 28  1  0
 28 29  2  0
 29 30  1  0
 30 31  2  0
 31 32  1  0
 32 33  1  0
 31 34  1  0
 34 35  2  0
 27 36  2  0
 36 37  1  0
 37 38  3  0
  9 39  1  0
 39 40  2  0
 40  6  1  0
 36 15  1  0
 25 18  1  0
 35 28  1  0
  1 41  1  0
  1 42  1  0
  1 43  1  0
  2 44  1  0
  2 45  1  0
  7 46  1  0
  8 47  1  0
 10 48  1  0
 13 49  1  0
 13 50  1  0
 19 51  1  0
 20 52  1  0
 23 53  1  0
 23 54  1  0
 23 55  1  0
 24 56  1  0
 25 57  1  0
 26 58  1  0
 29 59  1  0
 30 60  1  0
 33 61  1  0
 33 62  1  0
 33 63  1  0
 34 64  1  0
 35 65  1  0
 39 66  1  0
 40 67  1  0
M  END
>  <Binding energies>  (1) 
[-9.45]

>  <Ligand effiencies>  (1) 
[-0.23048780487804876]

>  <Interactions>  (1) 
["V-B:ARG:545:CD:9895, V-B:GLU:543:CB:9878, V-B:HIS:456:CE1:9040, V-B:GLU:543:CD:9880, V-B:ARG:545:CG:9894, V-B:ARG:545:CZ:9898, V-B:GLY:454:CA:9020, H-B:GLU:543:OE2:9882, V-B:ALA:541:CB:9864, H-A:TYR:484:OH:4348, V-A:HIS:456:CE1:4069, V-B:GLU:543:CG:9879, V-A:TYR:484:CE1:4345, V-B:PRO:540:N:9856, V-A:TYR:484:CZ:4347, V-B:TYR:539:CD2:9846, V-B:PRO:540:CA:9855, V-B:TYR:539:C:9839, V-B:TYR:539:CE2:9848, H-B:GLY:454:N:9021, H-B:TYR:484:OH:9319, H-A:HIS:456:NE2:4070, V-A:HIS:456:CD2:4068, H-B:LYS:547:NZ:9923, V-B:LEU:363:CD1:8160, V-B:ILE:538:CB:9834, V-B:ILE:538:CG2:9835, H-B:TYR:539:N:9842"]

$$$$
1b_Ghoteimi_2023
     RDKit          3D

 54 57  0  0  0  0  0  0  0  0999 V2000
  134.1590  124.2110   62.4510 C   0  0  0  0  0  0  0  0  0  0  0  0
  133.7730  124.1960   63.8210 O   0  0  0  0  0  0  0  0  0  0  0  0
  132.6020  124.8260   64.1970 C   0  0  0  0  0  0  0  0  0  0  0  0
  132.4580  125.1190   65.5520 C   0  0  0  0  0  0  0  0  0  0  0  0
  131.3110  125.7510   66.0240 C   0  0  0  0  0  0  0  0  0  0  0  0
  130.2730  126.1140   65.1520 C   0  0  0  0  0  0  0  0  0  0  0  0
  129.0350  126.7940   65.6660 C   0  0  0  0  0  0  0  0  0  0  0  0
  128.4200  127.8590   64.9990 C   0  0  0  0  0  0  0  0  0  0  0  0
  127.2650  128.4570   65.5190 C   0  0  0  0  0  0  0  0  0  0  0  0
  126.6650  129.5920   64.7560 C   0  0  0  0  0  0  0  0  0  0  0  0
  125.3820  129.4780   64.2130 C   0  0  0  0  0  0  0  0  0  0  0  0
  124.8220  130.5300   63.4940 C   0  0  0  0  0  0  0  0  0  0  0  0
  125.5330  131.7140   63.3000 C   0  0  0  0  0  0  0  0  0  0  0  0
  124.8990  132.7040   62.5740 O   0  0  0  0  0  0  0  0  0  0  0  0
  123.8290  132.3490   61.7040 C   0  0  0  0  0  0  0  0  0  0  0  0
  126.8250  131.8300   63.8370 C   0  0  0  0  0  0  0  0  0  0  0  0
  127.3820  130.7760   64.5540 C   0  0  0  0  0  0  0  0  0  0  0  0
  126.7280  127.9490   66.7270 C   0  0  0  0  0  0  0  0  0  0  0  0
  125.4680  128.4750   67.2610 C   0  0  0  0  0  0  0  0  0  0  0  0
  124.4740  128.8920   67.6820 N   0  0  0  0  0  0  0  0  0  0  0  0
  127.4100  126.8860   67.3600 C   0  0  0  0  0  0  0  0  0  0  0  0
  126.8870  126.1290   68.8850 S   0  0  0  0  0  0  0  0  0  0  0  0
  127.9240  126.7980   70.2290 C   0  0  0  0  0  0  0  0  0  0  0  0
  128.3820  125.7680   71.2710 C   0  0  0  0  0  0  0  0  0  0  0  0
  128.1770  125.9540   72.4730 O   0  0  0  0  0  0  0  0  0  0  0  0
  129.0060  124.6850   70.7570 N   0  0  0  0  0  0  0  0  0  0  0  0
  129.5220  123.6000   71.4560 C   0  0  0  0  0  0  0  0  0  0  0  0
  130.7720  123.6160   72.0720 C   0  0  0  0  0  0  0  0  0  0  0  0
  130.9040  122.3720   72.6460 C   0  0  0  0  0  0  0  0  0  0  0  0
  129.7890  121.6460   72.3910 O   0  0  0  0  0  0  0  0  0  0  0  0
  128.9200  122.4350   71.6370 N   0  0  0  0  0  0  0  0  0  0  0  0
  128.5180  126.3170   66.8280 N   0  0  0  0  0  0  0  0  0  0  0  0
  130.4280  125.8120   63.7900 C   0  0  0  0  0  0  0  0  0  0  0  0
  131.5720  125.1790   63.3150 C   0  0  0  0  0  0  0  0  0  0  0  0
  135.2558  124.2536   62.3795 H   0  0  0  0  0  0  0  0  0  0  0  0
  133.7946  123.2980   61.9574 H   0  0  0  0  0  0  0  0  0  0  0  0
  133.7248  125.0930   61.9574 H   0  0  0  0  0  0  0  0  0  0  0  0
  133.2589  124.8481   66.2556 H   0  0  0  0  0  0  0  0  0  0  0  0
  131.2167  125.9694   67.0980 H   0  0  0  0  0  0  0  0  0  0  0  0
  128.8480  128.2307   64.0563 H   0  0  0  0  0  0  0  0  0  0  0  0
  124.8102  128.5491   64.3551 H   0  0  0  0  0  0  0  0  0  0  0  0
  123.8101  130.4267   63.0752 H   0  0  0  0  0  0  0  0  0  0  0  0
  122.9521  132.0581   62.3010 H   0  0  0  0  0  0  0  0  0  0  0  0
  123.5714  133.2098   61.0695 H   0  0  0  0  0  0  0  0  0  0  0  0
  124.1370  131.5049   61.0695 H   0  0  0  0  0  0  0  0  0  0  0  0
  127.3986  132.7571   63.6904 H   0  0  0  0  0  0  0  0  0  0  0  0
  128.3970  130.8747   64.9665 H   0  0  0  0  0  0  0  0  0  0  0  0
  128.8205  127.2471   69.7766 H   0  0  0  0  0  0  0  0  0  0  0  0
  127.2966  127.5225   70.7689 H   0  0  0  0  0  0  0  0  0  0  0  0
  129.1050  124.6410   69.7530 H   0  0  0  0  0  0  0  0  0  0  0  0
  131.4963  124.4436   72.0946 H   0  0  0  0  0  0  0  0  0  0  0  0
  131.7752  122.0232   73.2198 H   0  0  0  0  0  0  0  0  0  0  0  0
  129.6286  126.0813   63.0840 H   0  0  0  0  0  0  0  0  0  0  0  0
  131.6685  124.9546   62.2425 H   0  0  0  0  0  0  0  0  0  0  0  0
  1  2  1  0
  2  3  1  0
  3  4  2  0
  4  5  1  0
  5  6  2  0
  6  7  1  0
  7  8  2  0
  8  9  1  0
  9 10  1  0
 10 11  2  0
 11 12  1  0
 12 13  2  0
 13 14  1  0
 14 15  1  0
 13 16  1  0
 16 17  2  0
  9 18  2  0
 18 19  1  0
 19 20  3  0
 18 21  1  0
 21 22  1  0
 22 23  1  0
 23 24  1  0
 24 25  2  0
 24 26  1  0
 26 27  1  0
 27 28  1  0
 28 29  2  0
 29 30  1  0
 30 31  1  0
 21 32  2  0
  6 33  1  0
 33 34  2  0
 34  3  1  0
 32  7  1  0
 17 10  1  0
 31 27  2  0
  1 35  1  0
  1 36  1  0
  1 37  1  0
  4 38  1  0
  5 39  1  0
  8 40  1  0
 11 41  1  0
 12 42  1  0
 15 43  1  0
 15 44  1  0
 15 45  1  0
 16 46  1  0
 17 47  1  0
 23 48  1  0
 23 49  1  0
 26 50  1  0
 28 51  1  0
 29 52  1  0
 33 53  1  0
 34 54  1  0
M  END
>  <Binding energies>  (1) 
[-9.96]

>  <Ligand effiencies>  (1) 
[-0.2845714285714286]

>  <Interactions>  (1) 
["V-B:ARG:545:CD:9895, V-B:GLU:543:C:9874, V-B:GLU:543:CB:9878, V-B:GLY:544:C:9884, V-B:HIS:456:CE1:9040, V-B:LEU:475:CD1:9229, V-B:ARG:545:CG:9894, V-A:GLU:543:CD:4908, V-B:ILE:369:CD1:8210, V-B:ARG:545:CZ:9898, V-A:HIS:456:CE1:4069, H-A:GLY:454:N:4050, H-B:TYR:484:OH:9319, V-A:HIS:456:CG:4066, V-A:HIS:456:CD2:4068, V-A:HIS:456:CB:4065, V-A:ASP:473:CB:4239, H-B:LYS:547:NZ:9923, V-A:TYR:484:CD2:4344, V-A:TYR:484:CD1:4343, V-A:TYR:484:CG:4342, V-A:TYR:484:CB:4341, V-A:GLY:453:C:4042, V-A:GLY:453:CA:4044, H-B:ARG:545:NE:9896, V-A:TYR:484:CE2:4346, H-B:GLU:543:O:9875, H-B:ARG:545:N:9892"]

$$$$
1b_Grossjean_2025
     RDKit          3D

 42 43  0  0  0  0  0  0  0  0999 V2000
  127.1030  126.7990   73.8190 C   0  0  0  0  0  0  0  0  0  0  0  0
  128.2770  126.0030   73.9190 O   0  0  0  0  0  0  0  0  0  0  0  0
  129.4160  126.3540   73.2690 C   0  0  0  0  0  0  0  0  0  0  0  0
  130.3800  126.8880   73.8260 O   0  0  0  0  0  0  0  0  0  0  0  0
  129.3900  126.0230   71.8040 C   0  0  0  0  0  0  0  0  0  0  0  0
  129.8980  124.8130   71.3080 C   0  0  0  0  0  0  0  0  0  0  0  0
  129.8600  124.5370   69.9440 C   0  0  0  0  0  0  0  0  0  0  0  0
  129.3150  125.4590   69.0500 C   0  0  0  0  0  0  0  0  0  0  0  0
  129.3310  125.0750   67.6950 N   0  0  0  0  0  0  0  0  0  0  0  0
  129.9710  125.6270   66.6420 C   0  0  0  0  0  0  0  0  0  0  0  0
  130.7010  126.6170   66.6860 O   0  0  0  0  0  0  0  0  0  0  0  0
  129.7530  124.9240   65.3010 C   0  0  0  0  0  0  0  0  0  0  0  0
  130.0870  123.1400   65.4000 S   0  0  0  0  0  0  0  0  0  0  0  0
  130.9060  122.6690   63.8910 C   0  0  0  0  0  0  0  0  0  0  0  0
  130.1780  121.8290   63.1140 N   0  0  0  0  0  0  0  0  0  0  0  0
  130.7060  121.4080   61.9400 C   0  0  0  0  0  0  0  0  0  0  0  0
  129.8300  120.4820   61.1170 C   0  0  0  0  0  0  0  0  0  0  0  0
  131.9710  121.7940   61.5030 C   0  0  0  0  0  0  0  0  0  0  0  0
  132.7380  122.6430   62.3090 C   0  0  0  0  0  0  0  0  0  0  0  0
  134.1290  123.0390   61.8170 C   0  0  0  0  0  0  0  0  0  0  0  0
  132.2080  123.0950   63.5380 C   0  0  0  0  0  0  0  0  0  0  0  0
  133.0100  123.9490   64.4180 C   0  0  0  0  0  0  0  0  0  0  0  0
  133.6460  124.6230   65.1110 N   0  0  0  0  0  0  0  0  0  0  0  0
  128.8050  126.6710   69.5380 C   0  0  0  0  0  0  0  0  0  0  0  0
  128.8430  126.9460   70.9020 C   0  0  0  0  0  0  0  0  0  0  0  0
  126.7399  127.0452   74.8277 H   0  0  0  0  0  0  0  0  0  0  0  0
  127.3345  127.7272   73.2760 H   0  0  0  0  0  0  0  0  0  0  0  0
  126.3264  126.2404   73.2760 H   0  0  0  0  0  0  0  0  0  0  0  0
  130.3296  124.0768   72.0021 H   0  0  0  0  0  0  0  0  0  0  0  0
  130.2627  123.5848   69.5683 H   0  0  0  0  0  0  0  0  0  0  0  0
  128.7600  124.2670   67.4920 H   0  0  0  0  0  0  0  0  0  0  0  0
  128.7087  125.0723   64.9887 H   0  0  0  0  0  0  0  0  0  0  0  0
  130.4536  125.3593   64.5732 H   0  0  0  0  0  0  0  0  0  0  0  0
  129.2317  119.8496   61.7894 H   0  0  0  0  0  0  0  0  0  0  0  0
  129.1591  121.0798   60.4825 H   0  0  0  0  0  0  0  0  0  0  0  0
  130.4641  119.8453   60.4825 H   0  0  0  0  0  0  0  0  0  0  0  0
  132.3614  121.4368   60.5386 H   0  0  0  0  0  0  0  0  0  0  0  0
  134.7841  123.2255   62.6807 H   0  0  0  0  0  0  0  0  0  0  0  0
  134.5482  122.2245   61.2080 H   0  0  0  0  0  0  0  0  0  0  0  0
  134.0563  123.9521   61.2080 H   0  0  0  0  0  0  0  0  0  0  0  0
  128.3742  127.4055   68.8416 H   0  0  0  0  0  0  0  0  0  0  0  0
  128.4392  127.8983   71.2762 H   0  0  0  0  0  0  0  0  0  0  0  0
  1  2  1  0
  2  3  1  0
  3  4  2  0
  3  5  1  0
  5  6  2  0
  6  7  1  0
  7  8  2  0
  8  9  1  0
  9 10  1  0
 10 11  2  0
 10 12  1  0
 12 13  1  0
 13 14  1  0
 14 15  2  0
 15 16  1  0
 16 17  1  0
 16 18  2  0
 18 19  1  0
 19 20  1  0
 19 21  2  0
 21 22  1  0
 22 23  3  0
  8 24  1  0
 24 25  2  0
 25  5  1  0
 21 14  1  0
  1 26  1  0
  1 27  1  0
  1 28  1  0
  6 29  1  0
  7 30  1  0
  9 31  1  0
 12 32  1  0
 12 33  1  0
 17 34  1  0
 17 35  1  0
 17 36  1  0
 18 37  1  0
 20 38  1  0
 20 39  1  0
 20 40  1  0
 24 41  1  0
 25 42  1  0
M  END
>  <Binding energies>  (1) 
[-7.87]

>  <Ligand effiencies>  (1) 
[-0.3026923076923077]

>  <Interactions>  (1) 
["V-B:GLU:543:C:9874, V-B:GLU:543:CB:9878, V-B:HIS:456:CE1:9040, V-B:ALA:541:CB:9864, H-A:TYR:484:OH:4348, V-A:HIS:456:CE1:4069, V-B:GLU:543:CG:9879, V-A:LEU:475:CD1:4258, V-A:TYR:484:CE1:4345, V-A:GLY:454:CA:4049, V-A:TYR:484:CZ:4347, H-A:GLY:454:N:4050, V-B:TYR:539:CD2:9846, V-A:ILE:369:CD1:3239, V-A:HIS:456:CG:4066, H-A:HIS:456:NE2:4070, V-A:HIS:456:CD2:4068, H-A:LYS:547:NZ:4951, H-B:LYS:547:NZ:9923, V-B:GLU:543:CA:9876, V-B:LYS:547:CD:9921, H-B:GLU:543:O:9875"]

$$$$
1c_Ghoteimi_2023
     RDKit          3D

 54 57  0  0  0  0  0  0  0  0999 V2000
  127.7000  126.6190   74.8710 C   0  0  0  0  0  0  0  0  0  0  0  0
  128.6110  125.8040   74.1430 O   0  0  0  0  0  0  0  0  0  0  0  0
  128.6400  125.8900   72.7640 C   0  0  0  0  0  0  0  0  0  0  0  0
  127.7510  126.7840   72.1740 C   0  0  0  0  0  0  0  0  0  0  0  0
  127.7110  126.9330   70.7900 C   0  0  0  0  0  0  0  0  0  0  0  0
  128.5590  126.1900   69.9550 C   0  0  0  0  0  0  0  0  0  0  0  0
  128.5150  126.3450   68.4620 C   0  0  0  0  0  0  0  0  0  0  0  0
  127.6800  127.2670   67.8210 C   0  0  0  0  0  0  0  0  0  0  0  0
  127.6940  127.3930   66.4270 C   0  0  0  0  0  0  0  0  0  0  0  0
  126.8270  128.4440   65.8150 C   0  0  0  0  0  0  0  0  0  0  0  0
  125.4840  128.5610   66.1850 C   0  0  0  0  0  0  0  0  0  0  0  0
  124.6720  129.5270   65.5980 C   0  0  0  0  0  0  0  0  0  0  0  0
  125.1840  130.3890   64.6290 C   0  0  0  0  0  0  0  0  0  0  0  0
  124.3050  131.3160   64.1010 O   0  0  0  0  0  0  0  0  0  0  0  0
  123.9270  131.2130   62.7320 C   0  0  0  0  0  0  0  0  0  0  0  0
  126.5300  130.2690   64.2500 C   0  0  0  0  0  0  0  0  0  0  0  0
  127.3400  129.3030   64.8380 C   0  0  0  0  0  0  0  0  0  0  0  0
  128.5490  126.5470   65.6820 C   0  0  0  0  0  0  0  0  0  0  0  0
  128.5850  126.6070   64.2170 C   0  0  0  0  0  0  0  0  0  0  0  0
  128.6120  126.6560   63.0610 N   0  0  0  0  0  0  0  0  0  0  0  0
  129.3760  125.6530   66.3920 C   0  0  0  0  0  0  0  0  0  0  0  0
  130.6170  124.6540   65.5990 S   0  0  0  0  0  0  0  0  0  0  0  0
  132.1690  125.5850   65.8090 C   0  0  0  0  0  0  0  0  0  0  0  0
  133.2390  125.1630   64.7960 C   0  0  0  0  0  0  0  0  0  0  0  0
  134.4020  125.0080   65.1680 O   0  0  0  0  0  0  0  0  0  0  0  0
  132.7880  124.9470   63.5400 N   0  0  0  0  0  0  0  0  0  0  0  0
  133.5080  124.4160   62.4820 C   0  0  0  0  0  0  0  0  0  0  0  0
  134.7560  124.0000   62.4820 N   0  0  0  0  0  0  0  0  0  0  0  0
  135.1040  123.5150   61.3060 C   0  0  0  0  0  0  0  0  0  0  0  0
  134.1230  123.5300   60.3190 C   0  0  0  0  0  0  0  0  0  0  0  0
  132.6700  124.2220   60.9760 S   0  0  0  0  0  0  0  0  0  0  0  0
  129.3640  125.5630   67.7440 N   0  0  0  0  0  0  0  0  0  0  0  0
  129.4550  125.2970   70.5600 C   0  0  0  0  0  0  0  0  0  0  0  0
  129.4980  125.1440   71.9430 C   0  0  0  0  0  0  0  0  0  0  0  0
  127.8607  126.4752   75.9497 H   0  0  0  0  0  0  0  0  0  0  0  0
  127.8663  127.6753   74.6131 H   0  0  0  0  0  0  0  0  0  0  0  0
  126.6686  126.3366   74.6131 H   0  0  0  0  0  0  0  0  0  0  0  0
  127.0744  127.3777   72.8063 H   0  0  0  0  0  0  0  0  0  0  0  0
  127.0020  127.6458   70.3436 H   0  0  0  0  0  0  0  0  0  0  0  0
  127.0062  127.8988   68.4183 H   0  0  0  0  0  0  0  0  0  0  0  0
  125.0661  127.8849   66.9454 H   0  0  0  0  0  0  0  0  0  0  0  0
  123.6179  129.6111   65.9009 H   0  0  0  0  0  0  0  0  0  0  0  0
  122.8677  130.9243   62.6648 H   0  0  0  0  0  0  0  0  0  0  0  0
  124.0745  132.1841   62.2368 H   0  0  0  0  0  0  0  0  0  0  0  0
  124.5468  130.4510   62.2368 H   0  0  0  0  0  0  0  0  0  0  0  0
  126.9460  130.9413   63.4852 H   0  0  0  0  0  0  0  0  0  0  0  0
  128.3928  129.2141   64.5319 H   0  0  0  0  0  0  0  0  0  0  0  0
  131.9597  126.6568   65.6773 H   0  0  0  0  0  0  0  0  0  0  0  0
  132.5559  125.3734   66.8167 H   0  0  0  0  0  0  0  0  0  0  0  0
  131.8100  125.1180   63.3620 H   0  0  0  0  0  0  0  0  0  0  0  0
  136.1132  123.1207   61.1159 H   0  0  0  0  0  0  0  0  0  0  0  0
  134.2470  123.1632   59.2894 H   0  0  0  0  0  0  0  0  0  0  0  0
  130.1365  124.7064   69.9301 H   0  0  0  0  0  0  0  0  0  0  0  0
  130.2080  124.4350   72.3938 H   0  0  0  0  0  0  0  0  0  0  0  0
  1  2  1  0
  2  3  1  0
  3  4  2  0
  4  5  1  0
  5  6  2  0
  6  7  1  0
  7  8  2  0
  8  9  1  0
  9 10  1  0
 10 11  2  0
 11 12  1  0
 12 13  2  0
 13 14  1  0
 14 15  1  0
 13 16  1  0
 16 17  2  0
  9 18  2  0
 18 19  1  0
 19 20  3  0
 18 21  1  0
 21 22  1  0
 22 23  1  0
 23 24  1  0
 24 25  2  0
 24 26  1  0
 26 27  1  0
 27 28  2  0
 28 29  1  0
 29 30  2  0
 30 31  1  0
 21 32  2  0
  6 33  1  0
 33 34  2  0
 34  3  1  0
 32  7  1  0
 17 10  1  0
 31 27  1  0
  1 35  1  0
  1 36  1  0
  1 37  1  0
  4 38  1  0
  5 39  1  0
  8 40  1  0
 11 41  1  0
 12 42  1  0
 15 43  1  0
 15 44  1  0
 15 45  1  0
 16 46  1  0
 17 47  1  0
 23 48  1  0
 23 49  1  0
 26 50  1  0
 29 51  1  0
 30 52  1  0
 33 53  1  0
 34 54  1  0
M  END
>  <Binding energies>  (1) 
[-9.17]

>  <Ligand effiencies>  (1) 
[-0.262]

>  <Interactions>  (1) 
["V-B:ARG:545:CD:9895, V-B:GLU:543:CB:9878, V-B:GLY:544:C:9884, H-A:GLU:543:OE2:4910, V-B:HIS:456:CE1:9040, V-A:ASP:366:CG:3213, V-B:GLU:543:CD:9880, V-B:ARG:545:CG:9894, V-A:ARG:545:CZ:4926, V-B:ARG:545:CZ:9898, V-B:GLY:454:CA:9020, H-A:TYR:484:OH:4348, V-A:HIS:456:CE1:4069, H-A:ARG:545:NE:4924, V-B:GLU:543:CG:9879, H-A:GLY:454:N:4050, V-A:ILE:369:CD1:3239, V-A:ILE:369:CG2:3237, H-B:GLY:454:N:9021, H-B:TYR:484:OH:9319, V-A:HIS:456:CD2:4068, H-B:LYS:547:NZ:9923, V-A:GLY:453:C:4042, V-B:LYS:547:CD:9921, V-A:ILE:369:CB:3236, V-A:ILE:369:CG1:3238"]

$$$$
1c_Grossjean_2025
     RDKit          3D

 40 41  0  0  0  0  0  0  0  0999 V2000
  127.2720  126.8730   73.4020 C   0  0  0  0  0  0  0  0  0  0  0  0
  128.2620  125.8910   73.1200 O   0  0  0  0  0  0  0  0  0  0  0  0
  128.6400  125.6720   71.8090 C   0  0  0  0  0  0  0  0  0  0  0  0
  129.4550  124.5650   71.5720 C   0  0  0  0  0  0  0  0  0  0  0  0
  129.8870  124.2610   70.2850 C   0  0  0  0  0  0  0  0  0  0  0  0
  129.4970  125.0680   69.2060 C   0  0  0  0  0  0  0  0  0  0  0  0
  129.8840  124.8590   67.8680 N   0  0  0  0  0  0  0  0  0  0  0  0
  129.3710  125.3840   66.7350 C   0  0  0  0  0  0  0  0  0  0  0  0
  128.4410  126.1890   66.6780 O   0  0  0  0  0  0  0  0  0  0  0  0
  130.0330  124.9170   65.4370 C   0  0  0  0  0  0  0  0  0  0  0  0
  130.0430  123.1060   65.2950 S   0  0  0  0  0  0  0  0  0  0  0  0
  130.9300  122.6630   63.8150 C   0  0  0  0  0  0  0  0  0  0  0  0
  130.2380  121.8260   63.0010 N   0  0  0  0  0  0  0  0  0  0  0  0
  130.8120  121.4190   61.8440 C   0  0  0  0  0  0  0  0  0  0  0  0
  129.9730  120.4940   60.9820 C   0  0  0  0  0  0  0  0  0  0  0  0
  132.0900  121.8160   61.4600 C   0  0  0  0  0  0  0  0  0  0  0  0
  132.8230  122.6580   62.3020 C   0  0  0  0  0  0  0  0  0  0  0  0
  134.2290  123.0650   61.8670 C   0  0  0  0  0  0  0  0  0  0  0  0
  132.2440  123.0940   63.5170 C   0  0  0  0  0  0  0  0  0  0  0  0
  133.0170  123.9320   64.4380 C   0  0  0  0  0  0  0  0  0  0  0  0
  133.6270  124.5940   65.1640 N   0  0  0  0  0  0  0  0  0  0  0  0
  128.6910  126.1830   69.4400 C   0  0  0  0  0  0  0  0  0  0  0  0
  128.2610  126.4840   70.7290 C   0  0  0  0  0  0  0  0  0  0  0  0
  127.1628  126.9813   74.4912 H   0  0  0  0  0  0  0  0  0  0  0  0
  127.5764  127.8361   72.9664 H   0  0  0  0  0  0  0  0  0  0  0  0
  126.3114  126.5608   72.9664 H   0  0  0  0  0  0  0  0  0  0  0  0
  129.7598  123.9247   72.4129 H   0  0  0  0  0  0  0  0  0  0  0  0
  130.5341  123.3882   70.1136 H   0  0  0  0  0  0  0  0  0  0  0  0
  130.6930  124.2650   67.7570 H   0  0  0  0  0  0  0  0  0  0  0  0
  129.4797  125.3375   64.5843 H   0  0  0  0  0  0  0  0  0  0  0  0
  131.0767  125.2642   65.4426 H   0  0  0  0  0  0  0  0  0  0  0  0
  129.3745  119.8341   61.6272 H   0  0  0  0  0  0  0  0  0  0  0  0
  129.3029  121.0921   60.3470 H   0  0  0  0  0  0  0  0  0  0  0  0
  130.6334  119.8853   60.3470 H   0  0  0  0  0  0  0  0  0  0  0  0
  132.5175  121.4718   60.5067 H   0  0  0  0  0  0  0  0  0  0  0  0
  134.8504  123.2449   62.7567 H   0  0  0  0  0  0  0  0  0  0  0  0
  134.6745  122.2589   61.2655 H   0  0  0  0  0  0  0  0  0  0  0  0
  134.1750  123.9844   61.2655 H   0  0  0  0  0  0  0  0  0  0  0  0
  128.3936  126.8282   68.6002 H   0  0  0  0  0  0  0  0  0  0  0  0
  127.6214  127.3621   70.9020 H   0  0  0  0  0  0  0  0  0  0  0  0
  1  2  1  0
  2  3  1  0
  3  4  2  0
  4  5  1  0
  5  6  2  0
  6  7  1  0
  7  8  1  0
  8  9  2  0
  8 10  1  0
 10 11  1  0
 11 12  1  0
 12 13  2  0
 13 14  1  0
 14 15  1  0
 14 16  2  0
 16 17  1  0
 17 18  1  0
 17 19  2  0
 19 20  1  0
 20 21  3  0
  6 22  1  0
 22 23  2  0
 23  3  1  0
 19 12  1  0
  1 24  1  0
  1 25  1  0
  1 26  1  0
  4 27  1  0
  5 28  1  0
  7 29  1  0
 10 30  1  0
 10 31  1  0
 15 32  1  0
 15 33  1  0
 15 34  1  0
 16 35  1  0
 18 36  1  0
 18 37  1  0
 18 38  1  0
 22 39  1  0
 23 40  1  0
M  END
>  <Binding energies>  (1) 
[-7.59]

>  <Ligand effiencies>  (1) 
[-0.31625]

>  <Interactions>  (1) 
["V-B:GLU:543:C:9874, V-B:GLU:543:CB:9878, V-B:HIS:456:CE1:9040, V-B:ALA:541:CB:9864, H-A:TYR:484:OH:4348, V-A:HIS:456:CE1:4069, V-A:LEU:475:CD1:4258, V-A:TYR:484:CE1:4345, V-A:GLY:454:CA:4049, V-A:TYR:484:CZ:4347, H-A:GLY:454:N:4050, V-B:TYR:539:CD2:9846, V-A:ILE:369:CD1:3239, V-A:HIS:456:CG:4066, V-A:HIS:456:CD2:4068, H-B:LYS:547:NZ:9923, V-A:TYR:484:CD1:4343, H-B:GLU:543:O:9875, H-A:HIS:456:ND1:4067"]

$$$$
1d_Ghoteimi_2023
     RDKit          3D

 50 52  0  0  0  0  0  0  0  0999 V2000
  133.3110  124.9830   63.0630 C   0  0  0  0  0  0  0  0  0  0  0  0
  133.6110  124.1940   64.2050 O   0  0  0  0  0  0  0  0  0  0  0  0
  133.6250  124.7470   65.4350 C   0  0  0  0  0  0  0  0  0  0  0  0
  134.4320  124.5050   66.3340 O   0  0  0  0  0  0  0  0  0  0  0  0
  132.4910  125.7510   65.6330 C   0  0  0  0  0  0  0  0  0  0  0  0
  130.9270  124.8260   65.5850 S   0  0  0  0  0  0  0  0  0  0  0  0
  129.6950  125.8470   66.3630 C   0  0  0  0  0  0  0  0  0  0  0  0
  129.6530  125.7200   67.7110 N   0  0  0  0  0  0  0  0  0  0  0  0
  128.7550  126.4400   68.4310 C   0  0  0  0  0  0  0  0  0  0  0  0
  128.7790  126.2460   69.9200 C   0  0  0  0  0  0  0  0  0  0  0  0
  128.0890  127.1160   70.7790 C   0  0  0  0  0  0  0  0  0  0  0  0
  128.1170  126.9380   72.1590 C   0  0  0  0  0  0  0  0  0  0  0  0
  128.8360  125.8880   72.7240 C   0  0  0  0  0  0  0  0  0  0  0  0
  128.8100  125.7910   74.1020 O   0  0  0  0  0  0  0  0  0  0  0  0
  128.0660  126.7460   74.8510 C   0  0  0  0  0  0  0  0  0  0  0  0
  129.5310  125.0110   71.8800 C   0  0  0  0  0  0  0  0  0  0  0  0
  129.4990  125.1910   70.5000 C   0  0  0  0  0  0  0  0  0  0  0  0
  127.8750  127.3230   67.7950 C   0  0  0  0  0  0  0  0  0  0  0  0
  127.8860  127.4620   66.4020 C   0  0  0  0  0  0  0  0  0  0  0  0
  126.9130  128.4170   65.7880 C   0  0  0  0  0  0  0  0  0  0  0  0
  125.6210  128.5370   66.3080 C   0  0  0  0  0  0  0  0  0  0  0  0
  124.7100  129.4250   65.7410 C   0  0  0  0  0  0  0  0  0  0  0  0
  125.0730  130.2120   64.6490 C   0  0  0  0  0  0  0  0  0  0  0  0
  124.1030  131.0580   64.1470 O   0  0  0  0  0  0  0  0  0  0  0  0
  123.8330  131.0560   62.7500 C   0  0  0  0  0  0  0  0  0  0  0  0
  126.3730  130.1040   64.1310 C   0  0  0  0  0  0  0  0  0  0  0  0
  127.2820  129.2160   64.7000 C   0  0  0  0  0  0  0  0  0  0  0  0
  128.8070  126.6880   65.6540 C   0  0  0  0  0  0  0  0  0  0  0  0
  128.7920  126.7160   64.1880 C   0  0  0  0  0  0  0  0  0  0  0  0
  128.7790  126.7390   63.0310 N   0  0  0  0  0  0  0  0  0  0  0  0
  132.9371  125.9663   63.3846 H   0  0  0  0  0  0  0  0  0  0  0  0
  134.2213  125.1162   62.4599 H   0  0  0  0  0  0  0  0  0  0  0  0
  132.5422  124.4777   62.4599 H   0  0  0  0  0  0  0  0  0  0  0  0
  132.6002  126.2538   66.6052 H   0  0  0  0  0  0  0  0  0  0  0  0
  132.5113  126.5185   64.8452 H   0  0  0  0  0  0  0  0  0  0  0  0
  127.5161  127.9532   70.3538 H   0  0  0  0  0  0  0  0  0  0  0  0
  127.5660  127.6333   72.8094 H   0  0  0  0  0  0  0  0  0  0  0  0
  128.2097  126.5615   75.9259 H   0  0  0  0  0  0  0  0  0  0  0  0
  128.4152  127.7592   74.6029 H   0  0  0  0  0  0  0  0  0  0  0  0
  126.9982  126.6552   74.6029 H   0  0  0  0  0  0  0  0  0  0  0  0
  130.1044  124.1766   72.3101 H   0  0  0  0  0  0  0  0  0  0  0  0
  130.0488  124.4926   69.8520 H   0  0  0  0  0  0  0  0  0  0  0  0
  127.1676  127.9137   68.3956 H   0  0  0  0  0  0  0  0  0  0  0  0
  125.3214  127.9253   67.1718 H   0  0  0  0  0  0  0  0  0  0  0  0
  123.6955  129.5060   66.1584 H   0  0  0  0  0  0  0  0  0  0  0  0
  122.7452  131.0479   62.5868 H   0  0  0  0  0  0  0  0  0  0  0  0
  124.2659  131.9574   62.2916 H   0  0  0  0  0  0  0  0  0  0  0  0
  124.2792  130.1611   62.2916 H   0  0  0  0  0  0  0  0  0  0  0  0
  126.6746  130.7227   63.2730 H   0  0  0  0  0  0  0  0  0  0  0  0
  128.3002  129.1418   64.2903 H   0  0  0  0  0  0  0  0  0  0  0  0
  1  2  1  0
  2  3  1  0
  3  4  2  0
  3  5  1  0
  5  6  1  0
  6  7  1  0
  7  8  2  0
  8  9  1  0
  9 10  1  0
 10 11  2  0
 11 12  1  0
 12 13  2  0
 13 14  1  0
 14 15  1  0
 13 16  1  0
 16 17  2  0
  9 18  2  0
 18 19  1  0
 19 20  1  0
 20 21  2  0
 21 22  1  0
 22 23  2  0
 23 24  1  0
 24 25  1  0
 23 26  1  0
 26 27  2  0
 19 28  2  0
 28 29  1  0
 29 30  3  0
 28  7  1  0
 17 10  1  0
 27 20  1  0
  1 31  1  0
  1 32  1  0
  1 33  1  0
  5 34  1  0
  5 35  1  0
 11 36  1  0
 12 37  1  0
 15 38  1  0
 15 39  1  0
 15 40  1  0
 16 41  1  0
 17 42  1  0
 18 43  1  0
 21 44  1  0
 22 45  1  0
 25 46  1  0
 25 47  1  0
 25 48  1  0
 26 49  1  0
 27 50  1  0
M  END
>  <Binding energies>  (1) 
[-8.69]

>  <Ligand effiencies>  (1) 
[-0.28966666666666663]

>  <Interactions>  (1) 
["V-B:ARG:545:CD:9895, V-B:GLU:543:CB:9878, V-B:HIS:456:CE1:9040, V-B:GLU:543:CD:9880, V-B:ARG:545:CG:9894, V-A:GLU:543:CD:4908, V-A:ARG:545:CZ:4926, V-B:ARG:545:CZ:9898, V-B:GLY:454:CA:9020, H-A:TYR:484:OH:4348, V-A:HIS:456:CE1:4069, V-B:GLU:543:CG:9879, H-A:GLY:454:N:4050, H-B:GLY:454:N:9021, H-B:TYR:484:OH:9319, H-A:HIS:456:NE2:4070, V-A:HIS:456:CD2:4068, H-B:LYS:547:NZ:9923, H-A:ILE:455:N:4055"]

$$$$
1d_Grossjean_2025
     RDKit          3D

 36 37  0  0  0  0  0  0  0  0999 V2000
  130.7420  125.2850   65.8500 C   0  0  0  0  0  0  0  0  0  0  0  0
  129.6780  125.7490   66.8250 C   0  0  0  0  0  0  0  0  0  0  0  0
  128.6200  126.5600   66.4210 C   0  0  0  0  0  0  0  0  0  0  0  0
  127.6620  126.9490   67.3630 C   0  0  0  0  0  0  0  0  0  0  0  0
  126.5030  127.8250   66.8910 C   0  0  0  0  0  0  0  0  0  0  0  0
  127.7950  126.5180   68.7030 C   0  0  0  0  0  0  0  0  0  0  0  0
  126.7790  126.8730   69.6960 C   0  0  0  0  0  0  0  0  0  0  0  0
  125.9740  127.1550   70.4780 N   0  0  0  0  0  0  0  0  0  0  0  0
  128.9150  125.7170   69.0300 C   0  0  0  0  0  0  0  0  0  0  0  0
  129.2390  125.0890   70.6620 S   0  0  0  0  0  0  0  0  0  0  0  0
  129.4710  126.5210   71.7590 C   0  0  0  0  0  0  0  0  0  0  0  0
  128.4620  126.5370   72.9070 C   0  0  0  0  0  0  0  0  0  0  0  0
  128.6550  125.8180   73.8880 O   0  0  0  0  0  0  0  0  0  0  0  0
  127.4220  127.3850   72.7510 N   0  0  0  0  0  0  0  0  0  0  0  0
  126.3230  127.6300   73.5950 C   0  0  0  0  0  0  0  0  0  0  0  0
  126.4840  128.6720   74.5120 C   0  0  0  0  0  0  0  0  0  0  0  0
  125.4560  129.0010   75.3900 C   0  0  0  0  0  0  0  0  0  0  0  0
  124.2580  128.2910   75.3480 C   0  0  0  0  0  0  0  0  0  0  0  0
  124.0810  127.2560   74.4330 C   0  0  0  0  0  0  0  0  0  0  0  0
  125.1080  126.9240   73.5540 C   0  0  0  0  0  0  0  0  0  0  0  0
  129.8270  125.3270   68.1030 N   0  0  0  0  0  0  0  0  0  0  0  0
  131.6108  124.9061   66.4083 H   0  0  0  0  0  0  0  0  0  0  0  0
  130.3346  124.4828   65.2171 H   0  0  0  0  0  0  0  0  0  0  0  0
  131.0527  126.1294   65.2171 H   0  0  0  0  0  0  0  0  0  0  0  0
  128.5390  126.8902   65.3749 H   0  0  0  0  0  0  0  0  0  0  0  0
  125.9692  128.2285   67.7640 H   0  0  0  0  0  0  0  0  0  0  0  0
  126.8942  128.6552   66.2845 H   0  0  0  0  0  0  0  0  0  0  0  0
  125.8111  127.2222   66.2845 H   0  0  0  0  0  0  0  0  0  0  0  0
  130.4865  126.4840   72.1802 H   0  0  0  0  0  0  0  0  0  0  0  0
  129.3186  127.4324   71.1622 H   0  0  0  0  0  0  0  0  0  0  0  0
  127.4280  127.9450   71.9110 H   0  0  0  0  0  0  0  0  0  0  0  0
  127.4285  129.2352   74.5399 H   0  0  0  0  0  0  0  0  0  0  0  0
  125.5886  129.8182   76.1143 H   0  0  0  0  0  0  0  0  0  0  0  0
  123.4456  128.5499   76.0429 H   0  0  0  0  0  0  0  0  0  0  0  0
  123.1312  126.7018   74.4050 H   0  0  0  0  0  0  0  0  0  0  0  0
  124.9690  126.1097   72.8277 H   0  0  0  0  0  0  0  0  0  0  0  0
  1  2  1  0
  2  3  2  0
  3  4  1  0
  4  5  1  0
  4  6  2  0
  6  7  1  0
  7  8  3  0
  6  9  1  0
  9 10  1  0
 10 11  1  0
 11 12  1  0
 12 13  2  0
 12 14  1  0
 14 15  1  0
 15 16  2  0
 16 17  1  0
 17 18  2  0
 18 19  1  0
 19 20  2  0
  9 21  2  0
 21  2  1  0
 20 15  1  0
  1 22  1  0
  1 23  1  0
  1 24  1  0
  3 25  1  0
  5 26  1  0
  5 27  1  0
  5 28  1  0
 11 29  1  0
 11 30  1  0
 14 31  1  0
 16 32  1  0
 17 33  1  0
 18 34  1  0
 19 35  1  0
 20 36  1  0
M  END
>  <Binding energies>  (1) 
[-6.33]

>  <Ligand effiencies>  (1) 
[-0.2877272727272727]

>  <Interactions>  (1) 
["V-B:GLU:543:C:9874, V-B:GLU:543:CB:9878, V-B:GLY:544:C:9884, V-B:HIS:456:CE1:9040, V-B:ARG:545:CG:9894, V-B:ARG:545:CA:9891, H-A:TYR:484:OH:4348, V-A:HIS:456:CE1:4069, H-A:HIS:456:NE2:4070, V-A:HIS:456:CD2:4068, H-B:LYS:547:NZ:9923, V-B:HIS:456:CD2:9039, V-B:VAL:457:CA:9046, V-B:HIS:456:CG:9037, V-B:VAL:457:C:9044, V-B:VAL:458:CG2:9058, V-B:HIS:456:CB:9036, V-B:HIS:456:C:9032, V-B:LYS:547:CD:9921, H-B:GLY:544:O:9885, H-B:HIS:456:ND1:9038, H-B:ARG:545:N:9892, V-B:ARG:545:C:9889"]

$$$$
1e_Grossjean_2025
     RDKit          3D

 38 39  0  0  0  0  0  0  0  0999 V2000
  130.6580  132.8700   53.9930 C   0  0  0  0  0  0  0  0  0  0  0  0
  130.9430  132.3990   55.4070 C   0  0  0  0  0  0  0  0  0  0  0  0
  132.0140  131.5480   55.6920 C   0  0  0  0  0  0  0  0  0  0  0  0
  132.2130  131.1540   57.0160 C   0  0  0  0  0  0  0  0  0  0  0  0
  131.3480  131.6130   58.0110 C   0  0  0  0  0  0  0  0  0  0  0  0
  130.2980  132.4690   57.6570 C   0  0  0  0  0  0  0  0  0  0  0  0
  129.4530  132.8880   58.7000 N   0  0  0  0  0  0  0  0  0  0  0  0
  128.1810  132.5120   58.9550 C   0  0  0  0  0  0  0  0  0  0  0  0
  127.5300  131.7150   58.2770 O   0  0  0  0  0  0  0  0  0  0  0  0
  127.5230  133.1690   60.1700 C   0  0  0  0  0  0  0  0  0  0  0  0
  128.2990  132.6470   61.7290 S   0  0  0  0  0  0  0  0  0  0  0  0
  129.5770  131.4610   61.3610 C   0  0  0  0  0  0  0  0  0  0  0  0
  130.8320  131.9480   61.5390 N   0  0  0  0  0  0  0  0  0  0  0  0
  131.8870  131.1390   61.2880 C   0  0  0  0  0  0  0  0  0  0  0  0
  133.2560  131.7490   61.5150 C   0  0  0  0  0  0  0  0  0  0  0  0
  131.7390  129.8270   60.8420 C   0  0  0  0  0  0  0  0  0  0  0  0
  130.4510  129.3230   60.6320 C   0  0  0  0  0  0  0  0  0  0  0  0
  130.3160  127.8880   60.1250 C   0  0  0  0  0  0  0  0  0  0  0  0
  129.3340  130.1510   60.8840 C   0  0  0  0  0  0  0  0  0  0  0  0
  127.9820  129.6580   60.6140 C   0  0  0  0  0  0  0  0  0  0  0  0
  126.9140  129.2650   60.3990 N   0  0  0  0  0  0  0  0  0  0  0  0
  130.0940  132.8550   56.3630 N   0  0  0  0  0  0  0  0  0  0  0  0
  130.0888  133.8107   54.0276 H   0  0  0  0  0  0  0  0  0  0  0  0
  131.6077  133.0354   53.4632 H   0  0  0  0  0  0  0  0  0  0  0  0
  130.0709  132.1054   53.4632 H   0  0  0  0  0  0  0  0  0  0  0  0
  132.6836  131.1974   54.8928 H   0  0  0  0  0  0  0  0  0  0  0  0
  133.0472  130.4851   57.2742 H   0  0  0  0  0  0  0  0  0  0  0  0
  131.4893  131.3066   59.0580 H   0  0  0  0  0  0  0  0  0  0  0  0
  129.8430  133.6020   59.2990 H   0  0  0  0  0  0  0  0  0  0  0  0
  127.6140  134.2612   60.0761 H   0  0  0  0  0  0  0  0  0  0  0  0
  126.4680  132.8587   60.1947 H   0  0  0  0  0  0  0  0  0  0  0  0
  133.4453  131.8333   62.5953 H   0  0  0  0  0  0  0  0  0  0  0  0
  134.0236  131.1078   61.0572 H   0  0  0  0  0  0  0  0  0  0  0  0
  133.2925  132.7485   61.0572 H   0  0  0  0  0  0  0  0  0  0  0  0
  132.6218  129.1971   60.6578 H   0  0  0  0  0  0  0  0  0  0  0  0
  130.2514  127.2010   60.9817 H   0  0  0  0  0  0  0  0  0  0  0  0
  129.4055  127.7991   59.5142 H   0  0  0  0  0  0  0  0  0  0  0  0
  131.1939  127.6308   59.5142 H   0  0  0  0  0  0  0  0  0  0  0  0
  1  2  1  0
  2  3  2  0
  3  4  1  0
  4  5  2  0
  5  6  1  0
  6  7  1  0
  7  8  1  0
  8  9  2  0
  8 10  1  0
 10 11  1  0
 11 12  1  0
 12 13  2  0
 13 14  1  0
 14 15  1  0
 14 16  2  0
 16 17  1  0
 17 18  1  0
 17 19  2  0
 19 20  1  0
 20 21  3  0
  6 22  2  0
 22  2  1  0
 19 12  1  0
  1 23  1  0
  1 24  1  0
  1 25  1  0
  3 26  1  0
  4 27  1  0
  5 28  1  0
  7 29  1  0
 10 30  1  0
 10 31  1  0
 15 32  1  0
 15 33  1  0
 15 34  1  0
 16 35  1  0
 18 36  1  0
 18 37  1  0
 18 38  1  0
M  END
>  <Binding energies>  (1) 
[-6.9]

>  <Ligand effiencies>  (1) 
[-0.3]

>  <Interactions>  (1) 
["V-A:PRO:540:CB:4885, V-A:ASN:362:CB:3176, V-A:PRO:540:CA:4883, V-A:TYR:539:CD2:4874, V-A:TYR:539:CE2:4876, V-A:ILE:538:CD1:4865, V-A:PRO:540:C:4881, V-A:TYR:539:C:4867, V-A:TYR:539:CZ:4877, V-A:TYR:531:CE2:4793, V-A:PRO:540:N:4884, V-A:ILE:538:CA:4860, V-A:PRO:540:CD:4887, H-A:TYR:539:N:4870, V-A:LEU:363:CD1:3189, V-A:ILE:538:C:4858, H-A:ALA:541:N:4891, H-A:TYR:539:OH:4878, V-A:ILE:538:CB:4862, H-A:TYR:539:O:4868, V-A:VAL:537:C:4850"]

$$$$
1f_Grossjean_2025
     RDKit          3D

 35 36  0  0  0  0  0  0  0  0999 V2000
  134.2630  124.1280   62.6070 C   0  0  0  0  0  0  0  0  0  0  0  0
  133.3660  122.9740   62.2030 C   0  0  0  0  0  0  0  0  0  0  0  0
  133.8610  121.8730   61.5100 C   0  0  0  0  0  0  0  0  0  0  0  0
  132.9830  120.8440   61.1530 C   0  0  0  0  0  0  0  0  0  0  0  0
  133.5450  119.6550   60.3760 C   0  0  0  0  0  0  0  0  0  0  0  0
  131.6190  120.9420   61.5130 C   0  0  0  0  0  0  0  0  0  0  0  0
  130.6740  119.9020   61.1000 C   0  0  0  0  0  0  0  0  0  0  0  0
  129.9290  119.0790   60.7740 N   0  0  0  0  0  0  0  0  0  0  0  0
  131.2090  122.0830   62.2420 C   0  0  0  0  0  0  0  0  0  0  0  0
  129.5370  122.3800   62.7810 S   0  0  0  0  0  0  0  0  0  0  0  0
  128.7460  123.5260   61.6010 C   0  0  0  0  0  0  0  0  0  0  0  0
  128.0420  122.8480   60.4160 C   0  0  0  0  0  0  0  0  0  0  0  0
  127.9990  121.6200   60.3330 O   0  0  0  0  0  0  0  0  0  0  0  0
  127.5240  123.7020   59.5070 N   0  0  0  0  0  0  0  0  0  0  0  0
  126.8170  123.4320   58.3210 C   0  0  0  0  0  0  0  0  0  0  0  0
  125.6040  124.0340   57.9340 C   0  0  0  0  0  0  0  0  0  0  0  0
  125.0090  123.6730   56.7220 C   0  0  0  0  0  0  0  0  0  0  0  0
  125.6430  122.7220   55.9230 C   0  0  0  0  0  0  0  0  0  0  0  0
  126.8140  122.1310   56.2700 N   0  0  0  0  0  0  0  0  0  0  0  0
  127.3800  122.4910   57.4510 C   0  0  0  0  0  0  0  0  0  0  0  0
  132.0650  123.0870   62.5610 N   0  0  0  0  0  0  0  0  0  0  0  0
  134.3103  124.1889   63.7043 H   0  0  0  0  0  0  0  0  0  0  0  0
  135.2738  123.9649   62.2049 H   0  0  0  0  0  0  0  0  0  0  0  0
  133.8556  125.0673   62.2049 H   0  0  0  0  0  0  0  0  0  0  0  0
  134.9274  121.8129   61.2468 H   0  0  0  0  0  0  0  0  0  0  0  0
  133.9053  118.8927   61.0824 H   0  0  0  0  0  0  0  0  0  0  0  0
  132.7552  119.2243   59.7430 H   0  0  0  0  0  0  0  0  0  0  0  0
  134.3792  119.9919   59.7430 H   0  0  0  0  0  0  0  0  0  0  0  0
  127.9988  124.1190   62.1488 H   0  0  0  0  0  0  0  0  0  0  0  0
  129.5553  124.1353   61.1722 H   0  0  0  0  0  0  0  0  0  0  0  0
  127.6730  124.6850   59.6860 H   0  0  0  0  0  0  0  0  0  0  0  0
  125.1275  124.7842   58.5821 H   0  0  0  0  0  0  0  0  0  0  0  0
  124.0599  124.1297   56.4048 H   0  0  0  0  0  0  0  0  0  0  0  0
  125.1731  122.4386   54.9696 H   0  0  0  0  0  0  0  0  0  0  0  0
  128.3306  122.0183   57.7389 H   0  0  0  0  0  0  0  0  0  0  0  0
  1  2  1  0
  2  3  2  0
  3  4  1  0
  4  5  1  0
  4  6  2  0
  6  7  1  0
  7  8  3  0
  6  9  1  0
  9 10  1  0
 10 11  1  0
 11 12  1  0
 12 13  2  0
 12 14  1  0
 14 15  1  0
 15 16  2  0
 16 17  1  0
 17 18  2  0
 18 19  1  0
 19 20  2  0
  9 21  2  0
 21  2  1  0
 20 15  1  0
  1 22  1  0
  1 23  1  0
  1 24  1  0
  3 25  1  0
  5 26  1  0
  5 27  1  0
  5 28  1  0
 11 29  1  0
 11 30  1  0
 14 31  1  0
 16 32  1  0
 17 33  1  0
 18 34  1  0
 20 35  1  0
M  END
>  <Binding energies>  (1) 
[-7.05]

>  <Ligand effiencies>  (1) 
[-0.32045454545454544]

>  <Interactions>  (1) 
["V-B:TYR:539:CZ:9849, V-A:LEU:475:CD1:4258, V-A:GLY:454:CA:4049, V-B:PRO:540:N:9856, V-B:TYR:539:CD2:9846, V-B:PRO:540:CA:9855, V-B:TYR:539:C:9839, V-B:TYR:539:CE2:9848, V-A:ILE:369:CD1:3239, V-A:ILE:369:CG2:3237, H-B:ALA:541:N:9863, V-B:PRO:540:CD:9859, V-B:LEU:363:CD1:8160, V-B:ILE:538:CB:9834, V-B:TYR:539:CG:9844, V-B:ILE:538:CA:9832, V-A:TRP:381:CH2:3372, V-B:ILE:538:CG2:9835, V-A:GLY:453:C:4042, V-A:GLY:453:CA:4044, H-B:TYR:539:N:9842"]

$$$$
1g_Grossjean_2025
     RDKit          3D

 39 40  0  0  0  0  0  0  0  0999 V2000
  128.4080  132.9460   59.6250 C   0  0  0  0  0  0  0  0  0  0  0  0
  128.4300  132.1350   58.3430 C   0  0  0  0  0  0  0  0  0  0  0  0
  127.7880  130.9020   58.2480 C   0  0  0  0  0  0  0  0  0  0  0  0
  127.8560  130.1910   57.0460 C   0  0  0  0  0  0  0  0  0  0  0  0
  127.1570  128.8340   56.9710 C   0  0  0  0  0  0  0  0  0  0  0  0
  128.5650  130.7430   55.9550 C   0  0  0  0  0  0  0  0  0  0  0  0
  128.6930  129.9930   54.7030 C   0  0  0  0  0  0  0  0  0  0  0  0
  128.7940  129.3980   53.7150 N   0  0  0  0  0  0  0  0  0  0  0  0
  129.1640  132.0120   56.1320 C   0  0  0  0  0  0  0  0  0  0  0  0
  130.0830  132.8560   54.8650 S   0  0  0  0  0  0  0  0  0  0  0  0
  131.5880  131.8850   54.5510 C   0  0  0  0  0  0  0  0  0  0  0  0
  132.4760  131.7880   55.7920 C   0  0  0  0  0  0  0  0  0  0  0  0
  132.8410  132.8120   56.3710 O   0  0  0  0  0  0  0  0  0  0  0  0
  132.8180  130.5480   56.1830 N   0  0  0  0  0  0  0  0  0  0  0  0
  133.6090  130.2210   57.3700 C   0  0  0  0  0  0  0  0  0  0  0  0
  132.9510  130.6130   58.6900 C   0  0  0  0  0  0  0  0  0  0  0  0
  131.5590  130.5630   58.8180 C   0  0  0  0  0  0  0  0  0  0  0  0
  130.9590  130.9200   60.0230 C   0  0  0  0  0  0  0  0  0  0  0  0
  131.7530  131.3210   61.0960 C   0  0  0  0  0  0  0  0  0  0  0  0
  133.1390  131.3680   60.9760 C   0  0  0  0  0  0  0  0  0  0  0  0
  133.7410  131.0130   59.7720 C   0  0  0  0  0  0  0  0  0  0  0  0
  129.1120  132.6840   57.3100 N   0  0  0  0  0  0  0  0  0  0  0  0
  128.4264  132.2660   60.4894 H   0  0  0  0  0  0  0  0  0  0  0  0
  129.2886  133.6044   59.6575 H   0  0  0  0  0  0  0  0  0  0  0  0
  127.4930  133.5557   59.6575 H   0  0  0  0  0  0  0  0  0  0  0  0
  127.2353  130.4936   59.1069 H   0  0  0  0  0  0  0  0  0  0  0  0
  126.9660  128.4632   57.9888 H   0  0  0  0  0  0  0  0  0  0  0  0
  126.2025  128.9423   56.4351 H   0  0  0  0  0  0  0  0  0  0  0  0
  127.7994  128.1198   56.4351 H   0  0  0  0  0  0  0  0  0  0  0  0
  131.2978  130.8701   54.2417 H   0  0  0  0  0  0  0  0  0  0  0  0
  132.1615  132.3927   53.7615 H   0  0  0  0  0  0  0  0  0  0  0  0
  132.4570  129.7630   55.6610 H   0  0  0  0  0  0  0  0  0  0  0  0
  133.7819  129.1347   57.3804 H   0  0  0  0  0  0  0  0  0  0  0  0
  134.5407  130.8012   57.2976 H   0  0  0  0  0  0  0  0  0  0  0  0
  130.9390  130.2421   57.9679 H   0  0  0  0  0  0  0  0  0  0  0  0
  129.8645  130.8857   60.1274 H   0  0  0  0  0  0  0  0  0  0  0  0
  131.2793  131.6033   62.0478 H   0  0  0  0  0  0  0  0  0  0  0  0
  133.7565  131.6845   61.8295 H   0  0  0  0  0  0  0  0  0  0  0  0
  134.8359  131.0471   59.6721 H   0  0  0  0  0  0  0  0  0  0  0  0
  1  2  1  0
  2  3  2  0
  3  4  1  0
  4  5  1  0
  4  6  2  0
  6  7  1  0
  7  8  3  0
  6  9  1  0
  9 10  1  0
 10 11  1  0
 11 12  1  0
 12 13  2  0
 12 14  1  0
 14 15  1  0
 15 16  1  0
 16 17  2  0
 17 18  1  0
 18 19  2  0
 19 20  1  0
 20 21  2  0
  9 22  2  0
 22  2  1  0
 21 16  1  0
  1 23  1  0
  1 24  1  0
  1 25  1  0
  3 26  1  0
  5 27  1  0
  5 28  1  0
  5 29  1  0
 11 30  1  0
 11 31  1  0
 14 32  1  0
 15 33  1  0
 15 34  1  0
 17 35  1  0
 18 36  1  0
 19 37  1  0
 20 38  1  0
 21 39  1  0
M  END
>  <Binding energies>  (1) 
[-7.1]

>  <Ligand effiencies>  (1) 
[-0.30869565217391304]

>  <Interactions>  (1) 
["V-A:PRO:540:CB:4885, V-A:ASN:362:CB:3176, V-A:LEU:363:CA:3185, V-A:ASN:362:C:3172, V-A:ASP:366:CG:3213, V-A:PRO:540:CA:4883, V-A:TYR:539:CD1:4873, V-A:TYR:539:CD2:4874, V-A:TYR:539:CE2:4876, V-A:ILE:538:CD1:4865, V-A:TYR:539:CE1:4875, V-A:TYR:539:C:4867, V-A:TYR:539:CZ:4877, V-A:ASP:366:CB:3212, V-A:TYR:531:CE2:4793, V-A:TYR:531:CZ:4794, H-A:TYR:539:N:4870, V-A:LEU:363:CD1:3189, H-A:TYR:531:OH:4795"]

$$$$
1h_Grossjean_2025
     RDKit          3D

 51 52  0  0  0  0  0  0  0  0999 V2000
  131.2530  123.1330   72.2290 C   0  0  0  0  0  0  0  0  0  0  0  0
  129.8740  123.4440   72.0630 O   0  0  0  0  0  0  0  0  0  0  0  0
  129.5140  124.6730   71.5390 C   0  0  0  0  0  0  0  0  0  0  0  0
  129.4990  124.9660   70.1670 C   0  0  0  0  0  0  0  0  0  0  0  0
  129.1380  126.2340   69.7100 C   0  0  0  0  0  0  0  0  0  0  0  0
  129.1040  126.5320   68.2140 C   0  0  0  0  0  0  0  0  0  0  0  0
  129.2260  125.3460   67.3680 N   0  0  0  0  0  0  0  0  0  0  0  0
  130.1480  125.1700   66.4040 C   0  0  0  0  0  0  0  0  0  0  0  0
  131.0240  125.9920   66.1390 O   0  0  0  0  0  0  0  0  0  0  0  0
  130.0650  123.8650   65.6120 C   0  0  0  0  0  0  0  0  0  0  0  0
  129.8490  124.1630   63.8310 S   0  0  0  0  0  0  0  0  0  0  0  0
  130.7860  122.9260   62.9460 C   0  0  0  0  0  0  0  0  0  0  0  0
  130.0540  122.0320   62.2300 N   0  0  0  0  0  0  0  0  0  0  0  0
  130.7010  121.0710   61.5320 C   0  0  0  0  0  0  0  0  0  0  0  0
  129.8170  120.1130   60.7550 C   0  0  0  0  0  0  0  0  0  0  0  0
  132.0900  120.9570   61.5170 C   0  0  0  0  0  0  0  0  0  0  0  0
  132.8540  121.8700   62.2510 C   0  0  0  0  0  0  0  0  0  0  0  0
  134.3740  121.7290   62.2200 C   0  0  0  0  0  0  0  0  0  0  0  0
  132.1990  122.8830   62.9880 C   0  0  0  0  0  0  0  0  0  0  0  0
  132.9740  123.8520   63.7680 C   0  0  0  0  0  0  0  0  0  0  0  0
  133.5860  124.6170   64.3840 N   0  0  0  0  0  0  0  0  0  0  0  0
  128.7510  127.2120   70.6280 C   0  0  0  0  0  0  0  0  0  0  0  0
  128.7510  126.9450   72.0060 C   0  0  0  0  0  0  0  0  0  0  0  0
  128.3820  127.8650   72.9700 O   0  0  0  0  0  0  0  0  0  0  0  0
  127.0710  127.8110   73.5240 C   0  0  0  0  0  0  0  0  0  0  0  0
  129.1450  125.6740   72.4500 C   0  0  0  0  0  0  0  0  0  0  0  0
  129.1440  125.3970   73.7950 O   0  0  0  0  0  0  0  0  0  0  0  0
  130.3560  125.7310   74.4560 C   0  0  0  0  0  0  0  0  0  0  0  0
  131.4902  123.0795   73.3018 H   0  0  0  0  0  0  0  0  0  0  0  0
  131.4696  122.1634   71.7568 H   0  0  0  0  0  0  0  0  0  0  0  0
  131.8648  123.9157   71.7568 H   0  0  0  0  0  0  0  0  0  0  0  0
  129.7754  124.1860   69.4422 H   0  0  0  0  0  0  0  0  0  0  0  0
  128.1490  127.0259   67.9814 H   0  0  0  0  0  0  0  0  0  0  0  0
  129.9744  127.1685   67.9967 H   0  0  0  0  0  0  0  0  0  0  0  0
  128.5340  124.6240   67.5110 H   0  0  0  0  0  0  0  0  0  0  0  0
  130.9933  123.2956   65.7670 H   0  0  0  0  0  0  0  0  0  0  0  0
  129.1899  123.3038   65.9716 H   0  0  0  0  0  0  0  0  0  0  0  0
  129.2433  119.4913   61.4581 H   0  0  0  0  0  0  0  0  0  0  0  0
  129.1234  120.6857   60.1218 H   0  0  0  0  0  0  0  0  0  0  0  0
  130.4435  119.4676   60.1218 H   0  0  0  0  0  0  0  0  0  0  0  0
  132.5783  120.1605   60.9363 H   0  0  0  0  0  0  0  0  0  0  0  0
  134.7600  121.6932   63.2494 H   0  0  0  0  0  0  0  0  0  0  0  0
  134.6456  120.8018   61.6941 H   0  0  0  0  0  0  0  0  0  0  0  0
  134.8115  122.5904   61.6941 H   0  0  0  0  0  0  0  0  0  0  0  0
  128.4422  128.2041   70.2669 H   0  0  0  0  0  0  0  0  0  0  0  0
  127.1366  127.8137   74.6220 H   0  0  0  0  0  0  0  0  0  0  0  0
  126.4950  128.6862   73.1889 H   0  0  0  0  0  0  0  0  0  0  0  0
  126.5689  126.8914   73.1889 H   0  0  0  0  0  0  0  0  0  0  0  0
  130.2036  125.6890   75.5446 H   0  0  0  0  0  0  0  0  0  0  0  0
  131.1401  125.0155   74.1677 H   0  0  0  0  0  0  0  0  0  0  0  0
  130.6629  126.7472   74.1677 H   0  0  0  0  0  0  0  0  0  0  0  0
  1  2  1  0
  2  3  1  0
  3  4  2  0
  4  5  1  0
  5  6  1  0
  6  7  1  0
  7  8  1  0
  8  9  2  0
  8 10  1  0
 10 11  1  0
 11 12  1  0
 12 13  2  0
 13 14  1  0
 14 15  1  0
 14 16  2  0
 16 17  1  0
 17 18  1  0
 17 19  2  0
 19 20  1  0
 20 21  3  0
  5 22  2  0
 22 23  1  0
 23 24  1  0
 24 25  1  0
 23 26  2  0
 26 27  1  0
 27 28  1  0
 26  3  1  0
 19 12  1  0
  1 29  1  0
  1 30  1  0
  1 31  1  0
  4 32  1  0
  6 33  1  0
  6 34  1  0
  7 35  1  0
 10 36  1  0
 10 37  1  0
 15 38  1  0
 15 39  1  0
 15 40  1  0
 16 41  1  0
 18 42  1  0
 18 43  1  0
 18 44  1  0
 22 45  1  0
 25 46  1  0
 25 47  1  0
 25 48  1  0
 28 49  1  0
 28 50  1  0
 28 51  1  0
M  END
>  <Binding energies>  (1) 
[-7.23]

>  <Ligand effiencies>  (1) 
[-0.2493103448275862]

>  <Interactions>  (1) 
["V-B:GLU:543:C:9874, V-B:GLU:543:CB:9878, V-B:HIS:456:CE1:9040, V-B:ALA:541:CB:9864, H-A:TYR:484:OH:4348, V-A:HIS:456:CE1:4069, V-B:GLU:543:CG:9879, V-A:LEU:475:CD1:4258, V-A:TYR:484:CE1:4345, V-A:GLY:454:CA:4049, V-A:TYR:484:CZ:4347, H-A:GLY:454:N:4050, V-B:TYR:539:CD2:9846, V-B:TYR:539:CE2:9848, V-A:ILE:369:CD1:3239, V-A:HIS:456:CG:4066, V-A:HIS:456:CD2:4068, V-A:HIS:456:CB:4065, H-B:LYS:547:NZ:9923, V-B:GLU:543:CA:9876, V-B:HIS:456:CD2:9039, V-B:HIS:456:CG:9037, V-B:HIS:456:CB:9036, V-A:TYR:484:CD2:4344, V-A:TYR:484:CG:4342, V-A:PRO:482:CG:4327, V-A:TYR:484:CE2:4346, H-B:GLU:543:O:9875"]

$$$$
1i_Grossjean_2025
     RDKit          3D

 32 33  0  0  0  0  0  0  0  0999 V2000
  124.1110  129.5280   66.8300 C   0  0  0  0  0  0  0  0  0  0  0  0
  125.4460  128.8120   66.7590 C   0  0  0  0  0  0  0  0  0  0  0  0
  126.3540  129.0610   65.7320 C   0  0  0  0  0  0  0  0  0  0  0  0
  127.5750  128.3780   65.7240 C   0  0  0  0  0  0  0  0  0  0  0  0
  128.5610  128.6800   64.5970 C   0  0  0  0  0  0  0  0  0  0  0  0
  127.8550  127.4480   66.7530 C   0  0  0  0  0  0  0  0  0  0  0  0
  129.1470  126.7600   66.7910 C   0  0  0  0  0  0  0  0  0  0  0  0
  130.1700  126.2180   66.8200 N   0  0  0  0  0  0  0  0  0  0  0  0
  126.8640  127.2410   67.7410 C   0  0  0  0  0  0  0  0  0  0  0  0
  127.0470  126.1120   69.1040 S   0  0  0  0  0  0  0  0  0  0  0  0
  128.0500  126.9410   70.3740 C   0  0  0  0  0  0  0  0  0  0  0  0
  128.6540  125.9470   71.3690 C   0  0  0  0  0  0  0  0  0  0  0  0
  128.8160  126.2900   72.5410 O   0  0  0  0  0  0  0  0  0  0  0  0
  128.9670  124.7340   70.8630 N   0  0  0  0  0  0  0  0  0  0  0  0
  129.5270  123.6600   71.5400 C   0  0  0  0  0  0  0  0  0  0  0  0
  130.7370  123.7410   72.2270 C   0  0  0  0  0  0  0  0  0  0  0  0
  130.9360  122.4840   72.7500 C   0  0  0  0  0  0  0  0  0  0  0  0
  129.9020  121.6870   72.3940 O   0  0  0  0  0  0  0  0  0  0  0  0
  129.0150  122.4430   71.6250 N   0  0  0  0  0  0  0  0  0  0  0  0
  125.6910  127.9240   67.7510 N   0  0  0  0  0  0  0  0  0  0  0  0
  123.8310  129.6782   67.8831 H   0  0  0  0  0  0  0  0  0  0  0  0
  124.1913  130.5041   66.3292 H   0  0  0  0  0  0  0  0  0  0  0  0
  123.3423  128.9211   66.3292 H   0  0  0  0  0  0  0  0  0  0  0  0
  126.1143  129.7843   64.9387 H   0  0  0  0  0  0  0  0  0  0  0  0
  129.5292  128.9766   65.0266 H   0  0  0  0  0  0  0  0  0  0  0  0
  128.6949  127.7817   63.9764 H   0  0  0  0  0  0  0  0  0  0  0  0
  128.1688  129.4992   63.9764 H   0  0  0  0  0  0  0  0  0  0  0  0
  128.8660  127.4888   69.8800 H   0  0  0  0  0  0  0  0  0  0  0  0
  127.3929  127.6234   70.9330 H   0  0  0  0  0  0  0  0  0  0  0  0
  128.8110  124.5900   69.8750 H   0  0  0  0  0  0  0  0  0  0  0  0
  131.3911  124.6195   72.3290 H   0  0  0  0  0  0  0  0  0  0  0  0
  131.7980  122.1761   73.3601 H   0  0  0  0  0  0  0  0  0  0  0  0
  1  2  1  0
  2  3  2  0
  3  4  1  0
  4  5  1  0
  4  6  2  0
  6  7  1  0
  7  8  3  0
  6  9  1  0
  9 10  1  0
 10 11  1  0
 11 12  1  0
 12 13  2  0
 12 14  1  0
 14 15  1  0
 15 16  1  0
 16 17  2  0
 17 18  1  0
 18 19  1  0
  9 20  2  0
 20  2  1  0
 19 15  2  0
  1 21  1  0
  1 22  1  0
  1 23  1  0
  3 24  1  0
  5 25  1  0
  5 26  1  0
  5 27  1  0
 11 28  1  0
 11 29  1  0
 14 30  1  0
 16 31  1  0
 17 32  1  0
M  END
>  <Binding energies>  (1) 
[-7.33]

>  <Ligand effiencies>  (1) 
[-0.34904761904761905]

>  <Interactions>  (1) 
["V-B:ARG:545:CD:9895, V-B:GLU:543:C:9874, V-B:GLU:543:CB:9878, V-B:HIS:456:CE1:9040, V-B:ARG:545:CG:9894, V-A:GLU:543:CD:4908, V-A:HIS:456:CG:4066, H-A:HIS:456:NE2:4070, V-A:HIS:456:CD2:4068, V-A:HIS:456:CB:4065, V-A:ASP:473:CB:4239, H-B:LYS:547:NZ:9923, V-A:TYR:484:CD2:4344, V-A:TYR:484:CG:4342, V-A:TYR:484:CB:4341, H-B:GLU:543:O:9875, H-B:ARG:545:N:9892, V-B:ILE:455:C:9023"]

$$$$
1j_Grossjean_2025
     RDKit          3D

 32 33  0  0  0  0  0  0  0  0999 V2000
  128.0160  130.5370   65.6610 C   0  0  0  0  0  0  0  0  0  0  0  0
  128.3960  129.1310   66.0880 C   0  0  0  0  0  0  0  0  0  0  0  0
  128.6200  128.1210   65.1550 C   0  0  0  0  0  0  0  0  0  0  0  0
  128.9800  126.8470   65.6060 C   0  0  0  0  0  0  0  0  0  0  0  0
  129.2380  125.7600   64.5630 C   0  0  0  0  0  0  0  0  0  0  0  0
  129.1000  126.6140   66.9950 C   0  0  0  0  0  0  0  0  0  0  0  0
  129.5280  125.3020   67.4870 C   0  0  0  0  0  0  0  0  0  0  0  0
  129.8670  124.2650   67.8730 N   0  0  0  0  0  0  0  0  0  0  0  0
  128.8280  127.6920   67.8710 C   0  0  0  0  0  0  0  0  0  0  0  0
  128.9270  127.5770   69.6440 S   0  0  0  0  0  0  0  0  0  0  0  0
  127.8550  126.2060   70.1690 C   0  0  0  0  0  0  0  0  0  0  0  0
  128.4750  125.3990   71.3120 C   0  0  0  0  0  0  0  0  0  0  0  0
  128.2930  125.7610   72.4750 O   0  0  0  0  0  0  0  0  0  0  0  0
  129.1930  124.3170   70.9390 N   0  0  0  0  0  0  0  0  0  0  0  0
  129.8550  123.4330   71.7790 C   0  0  0  0  0  0  0  0  0  0  0  0
  129.6060  122.1540   71.9630 N   0  0  0  0  0  0  0  0  0  0  0  0
  130.4370  121.6200   72.8360 C   0  0  0  0  0  0  0  0  0  0  0  0
  131.3900  122.4740   73.3810 C   0  0  0  0  0  0  0  0  0  0  0  0
  131.1790  124.0620   72.7050 S   0  0  0  0  0  0  0  0  0  0  0  0
  128.5000  128.9290   67.4220 N   0  0  0  0  0  0  0  0  0  0  0  0
  127.8481  131.1583   66.5530 H   0  0  0  0  0  0  0  0  0  0  0  0
  128.8293  130.9702   65.0602 H   0  0  0  0  0  0  0  0  0  0  0  0
  127.0952  130.5015   65.0602 H   0  0  0  0  0  0  0  0  0  0  0  0
  128.5152  128.3227   64.0787 H   0  0  0  0  0  0  0  0  0  0  0  0
  129.4633  124.8106   65.0709 H   0  0  0  0  0  0  0  0  0  0  0  0
  128.3443  125.6361   63.9337 H   0  0  0  0  0  0  0  0  0  0  0  0
  130.0920  126.0509   63.9337 H   0  0  0  0  0  0  0  0  0  0  0  0
  126.8920  126.6171   70.5061 H   0  0  0  0  0  0  0  0  0  0  0  0
  127.7209  125.5315   69.3105 H   0  0  0  0  0  0  0  0  0  0  0  0
  129.2900  124.1390   69.9500 H   0  0  0  0  0  0  0  0  0  0  0  0
  130.3799  120.5582   73.1177 H   0  0  0  0  0  0  0  0  0  0  0  0
  132.1537  122.1906   74.1202 H   0  0  0  0  0  0  0  0  0  0  0  0
  1  2  1  0
  2  3  2  0
  3  4  1  0
  4  5  1  0
  4  6  2  0
  6  7  1  0
  7  8  3  0
  6  9  1  0
  9 10  1  0
 10 11  1  0
 11 12  1  0
 12 13  2  0
 12 14  1  0
 14 15  1  0
 15 16  2  0
 16 17  1  0
 17 18  2  0
 18 19  1  0
  9 20  2  0
 20  2  1  0
 19 15  1  0
  1 21  1  0
  1 22  1  0
  1 23  1  0
  3 24  1  0
  5 25  1  0
  5 26  1  0
  5 27  1  0
 11 28  1  0
 11 29  1  0
 14 30  1  0
 17 31  1  0
 18 32  1  0
M  END
>  <Binding energies>  (1) 
[-6.41]

>  <Ligand effiencies>  (1) 
[-0.30523809523809525]

>  <Interactions>  (1) 
["V-B:GLU:543:C:9874, V-B:GLU:543:CB:9878, V-B:GLY:544:C:9884, V-B:HIS:456:CE1:9040, V-B:GLU:543:CD:9880, V-A:GLU:543:CD:4908, V-A:GLU:543:CG:4907, H-A:TYR:484:OH:4348, V-A:HIS:456:CE1:4069, V-B:GLU:543:CG:9879, V-A:TYR:484:CE1:4345, V-A:HIS:456:CG:4066, H-A:HIS:456:NE2:4070, V-A:HIS:456:CD2:4068, V-A:HIS:456:CB:4065, V-A:ASP:473:CB:4239, V-A:ASP:473:CG:4240, H-B:LYS:547:NZ:9923, H-B:HIS:456:NE2:9041, V-A:TYR:484:CD2:4344, V-A:GLU:543:CB:4906, V-A:TYR:484:CD1:4343, V-A:TYR:484:CG:4342, V-A:TYR:484:CB:4341, V-B:TYR:484:CZ:9318, V-B:TYR:484:CE1:9316, H-B:GLU:543:O:9875"]

$$$$
1k_Grossjean_2025
     RDKit          3D

 50 50  0  0  0  0  0  0  0  0999 V2000
  127.2350  122.6160   57.3140 C   0  0  0  0  0  0  0  0  0  0  0  0
  126.8610  122.2220   56.0040 O   0  0  0  0  0  0  0  0  0  0  0  0
  126.5990  123.3180   55.1370 C   0  0  0  0  0  0  0  0  0  0  0  0
  127.9030  123.7610   54.4610 C   0  0  0  0  0  0  0  0  0  0  0  0
  128.4560  124.8590   55.1750 O   0  0  0  0  0  0  0  0  0  0  0  0
  128.6330  126.0250   54.3810 C   0  0  0  0  0  0  0  0  0  0  0  0
  128.9860  127.2100   55.2890 C   0  0  0  0  0  0  0  0  0  0  0  0
  129.4930  128.2780   54.4990 O   0  0  0  0  0  0  0  0  0  0  0  0
  128.5210  129.2670   54.1830 C   0  0  0  0  0  0  0  0  0  0  0  0
  129.1340  130.6680   54.3580 C   0  0  0  0  0  0  0  0  0  0  0  0
  130.4900  130.6610   54.9080 N   0  0  0  0  0  0  0  0  0  0  0  0
  131.1310  131.7330   55.4060 C   0  0  0  0  0  0  0  0  0  0  0  0
  130.6260  132.8560   55.4540 O   0  0  0  0  0  0  0  0  0  0  0  0
  132.5580  131.4750   55.9150 C   0  0  0  0  0  0  0  0  0  0  0  0
  132.7450  131.3870   57.7300 S   0  0  0  0  0  0  0  0  0  0  0  0
  132.0690  129.8400   58.3160 C   0  0  0  0  0  0  0  0  0  0  0  0
  132.2410  128.7700   57.4970 N   0  0  0  0  0  0  0  0  0  0  0  0
  131.7450  127.5700   57.8760 C   0  0  0  0  0  0  0  0  0  0  0  0
  131.9710  126.4270   56.9060 C   0  0  0  0  0  0  0  0  0  0  0  0
  131.0690  127.3830   59.0800 C   0  0  0  0  0  0  0  0  0  0  0  0
  130.8900  128.4750   59.9350 C   0  0  0  0  0  0  0  0  0  0  0  0
  130.1460  128.2480   61.2490 C   0  0  0  0  0  0  0  0  0  0  0  0
  131.3970  129.7380   59.5560 C   0  0  0  0  0  0  0  0  0  0  0  0
  131.2220  130.9000   60.4310 C   0  0  0  0  0  0  0  0  0  0  0  0
  131.0830  131.8180   61.1230 N   0  0  0  0  0  0  0  0  0  0  0  0
  126.6722  122.0231   58.0500 H   0  0  0  0  0  0  0  0  0  0  0  0
  128.3129  122.4469   57.4541 H   0  0  0  0  0  0  0  0  0  0  0  0
  127.0101  123.6836   57.4541 H   0  0  0  0  0  0  0  0  0  0  0  0
  125.8737  123.0120   54.3687 H   0  0  0  0  0  0  0  0  0  0  0  0
  126.1864  124.1548   55.7196 H   0  0  0  0  0  0  0  0  0  0  0  0
  128.6185  122.9255   54.4610 H   0  0  0  0  0  0  0  0  0  0  0  0
  127.6947  124.0644   53.4244 H   0  0  0  0  0  0  0  0  0  0  0  0
  129.4478  125.8587   53.6610 H   0  0  0  0  0  0  0  0  0  0  0  0
  127.7028  126.2436   53.8361 H   0  0  0  0  0  0  0  0  0  0  0  0
  128.0841  127.5446   55.8224 H   0  0  0  0  0  0  0  0  0  0  0  0
  129.7489  126.8989   56.0179 H   0  0  0  0  0  0  0  0  0  0  0  0
  128.1933  129.1384   53.1409 H   0  0  0  0  0  0  0  0  0  0  0  0
  127.6579  129.1592   54.8564 H   0  0  0  0  0  0  0  0  0  0  0  0
  129.1627  131.1582   53.3737 H   0  0  0  0  0  0  0  0  0  0  0  0
  128.5008  131.2039   55.0804 H   0  0  0  0  0  0  0  0  0  0  0  0
  130.9700  129.7720   54.9000 H   0  0  0  0  0  0  0  0  0  0  0  0
  132.9001  130.5186   55.4928 H   0  0  0  0  0  0  0  0  0  0  0  0
  133.1536  132.3419   55.5929 H   0  0  0  0  0  0  0  0  0  0  0  0
  132.1544  125.4996   57.4684 H   0  0  0  0  0  0  0  0  0  0  0  0
  131.0802  126.3018   56.2729 H   0  0  0  0  0  0  0  0  0  0  0  0
  132.8424  126.6502   56.2729 H   0  0  0  0  0  0  0  0  0  0  0  0
  130.6817  126.3906   59.3540 H   0  0  0  0  0  0  0  0  0  0  0  0
  130.8209  128.4539   62.0928 H   0  0  0  0  0  0  0  0  0  0  0  0
  129.2784  128.9223   61.3004 H   0  0  0  0  0  0  0  0  0  0  0  0
  129.8027  127.2042   61.3004 H   0  0  0  0  0  0  0  0  0  0  0  0
  1  2  1  0
  2  3  1  0
  3  4  1  0
  4  5  1  0
  5  6  1  0
  6  7  1  0
  7  8  1  0
  8  9  1  0
  9 10  1  0
 10 11  1  0
 11 12  1  0
 12 13  2  0
 12 14  1  0
 14 15  1  0
 15 16  1  0
 16 17  2  0
 17 18  1  0
 18 19  1  0
 18 20  2  0
 20 21  1  0
 21 22  1  0
 21 23  2  0
 23 24  1  0
 24 25  3  0
 23 16  1  0
  1 26  1  0
  1 27  1  0
  1 28  1  0
  3 29  1  0
  3 30  1  0
  4 31  1  0
  4 32  1  0
  6 33  1  0
  6 34  1  0
  7 35  1  0
  7 36  1  0
  9 37  1  0
  9 38  1  0
 10 39  1  0
 10 40  1  0
 11 41  1  0
 14 42  1  0
 14 43  1  0
 19 44  1  0
 19 45  1  0
 19 46  1  0
 20 47  1  0
 22 48  1  0
 22 49  1  0
 22 50  1  0
M  END
>  <Binding energies>  (1) 
[-5.99]

>  <Ligand effiencies>  (1) 
[-0.23038461538461538]

>  <Interactions>  (1) 
["V-A:PRO:540:CB:4885, V-A:ASP:366:CG:3213, V-A:PRO:540:CA:4883, V-A:ASP:366:CB:3212, V-A:TYR:531:CE2:4793, V-A:TYR:531:CZ:4794, V-B:TYR:539:CZ:9849, V-A:MET:535:CE:4835, V-B:TYR:539:CE1:9847, V-B:PRO:540:N:9856, V-B:TYR:539:CD2:9846, V-B:PRO:540:CA:9855, V-B:TYR:539:C:9839, V-B:TYR:539:CE2:9848, H-A:TYR:539:N:4870, V-A:LEU:363:CD1:3189, V-B:ILE:538:CB:9834, V-B:ILE:538:CA:9832, V-B:ILE:538:CG2:9835, H-B:TYR:539:N:9842, H-A:TYR:531:OH:4795, H-B:TYR:539:OH:9850, H-A:ALA:541:N:4891"]

$$$$
1l_Grossjean_2025
     RDKit          3D

 30 30  0  0  0  0  0  0  0  0999 V2000
  130.5290  123.0460   71.9230 C   0  0  0  0  0  0  0  0  0  0  0  0
  129.1690  123.3370   71.6360 O   0  0  0  0  0  0  0  0  0  0  0  0
  129.0800  124.5200   70.9020 N   0  0  0  0  0  0  0  0  0  0  0  0
  128.5840  125.6220   71.4970 C   0  0  0  0  0  0  0  0  0  0  0  0
  128.4110  125.7220   72.7150 O   0  0  0  0  0  0  0  0  0  0  0  0
  128.2530  126.7820   70.5480 C   0  0  0  0  0  0  0  0  0  0  0  0
  126.8420  126.4850   69.4290 S   0  0  0  0  0  0  0  0  0  0  0  0
  127.3020  127.0360   67.7950 C   0  0  0  0  0  0  0  0  0  0  0  0
  126.5210  128.0090   67.2580 N   0  0  0  0  0  0  0  0  0  0  0  0
  126.8140  128.4720   66.0200 C   0  0  0  0  0  0  0  0  0  0  0  0
  125.8960  129.5580   65.4890 C   0  0  0  0  0  0  0  0  0  0  0  0
  127.8860  127.9930   65.2720 C   0  0  0  0  0  0  0  0  0  0  0  0
  128.6990  126.9920   65.8140 C   0  0  0  0  0  0  0  0  0  0  0  0
  129.8700  126.4820   64.9760 C   0  0  0  0  0  0  0  0  0  0  0  0
  128.4110  126.4940   67.1040 C   0  0  0  0  0  0  0  0  0  0  0  0
  129.2460  125.4440   67.6980 C   0  0  0  0  0  0  0  0  0  0  0  0
  129.9060  124.6170   68.1640 N   0  0  0  0  0  0  0  0  0  0  0  0
  130.6752  123.0147   73.0128 H   0  0  0  0  0  0  0  0  0  0  0  0
  130.7947  122.0707   71.4893 H   0  0  0  0  0  0  0  0  0  0  0  0
  131.1706  123.8272   71.4893 H   0  0  0  0  0  0  0  0  0  0  0  0
  129.0340  124.3490   69.9070 H   0  0  0  0  0  0  0  0  0  0  0  0
  128.0235  127.6676   71.1588 H   0  0  0  0  0  0  0  0  0  0  0  0
  129.1345  126.9125   69.9031 H   0  0  0  0  0  0  0  0  0  0  0  0
  125.4400  130.0974   66.3323 H   0  0  0  0  0  0  0  0  0  0  0  0
  126.4773  130.2616   64.8749 H   0  0  0  0  0  0  0  0  0  0  0  0
  125.1054  129.1020   64.8749 H   0  0  0  0  0  0  0  0  0  0  0  0
  128.0908  128.3959   64.2691 H   0  0  0  0  0  0  0  0  0  0  0  0
  130.6727  126.1324   65.6420 H   0  0  0  0  0  0  0  0  0  0  0  0
  129.5316  125.6497   64.3413 H   0  0  0  0  0  0  0  0  0  0  0  0
  130.2489  127.2966   64.3413 H   0  0  0  0  0  0  0  0  0  0  0  0
  1  2  1  0
  2  3  1  0
  3  4  1  0
  4  5  2  0
  4  6  1  0
  6  7  1  0
  7  8  1  0
  8  9  2  0
  9 10  1  0
 10 11  1  0
 10 12  2  0
 12 13  1  0
 13 14  1  0
 13 15  2  0
 15 16  1  0
 16 17  3  0
 15  8  1  0
  1 18  1  0
  1 19  1  0
  1 20  1  0
  3 21  1  0
  6 22  1  0
  6 23  1  0
 11 24  1  0
 11 25  1  0
 11 26  1  0
 12 27  1  0
 14 28  1  0
 14 29  1  0
 14 30  1  0
M  END
>  <Binding energies>  (1) 
[-5.81]

>  <Ligand effiencies>  (1) 
[-0.3227777777777778]

>  <Interactions>  (1) 
["V-B:GLU:543:C:9874, V-B:GLU:543:CB:9878, V-B:GLY:544:C:9884, V-B:HIS:456:CE1:9040, V-B:GLU:543:CD:9880, V-A:GLU:543:CD:4908, H-A:TYR:484:OH:4348, V-A:HIS:456:CE1:4069, V-A:HIS:456:CG:4066, H-A:HIS:456:NE2:4070, H-B:LYS:547:NZ:9923, V-A:TYR:484:CD2:4344, V-A:TYR:484:CD1:4343, V-A:TYR:484:CG:4342, V-A:TYR:484:CE2:4346, H-B:GLU:543:O:9875, H-B:ARG:545:N:9892"]

$$$$
1m_Grossjean_2025
     RDKit          3D

 35 35  0  0  0  0  0  0  0  0999 V2000
  127.5090  122.7360   55.4040 C   0  0  0  0  0  0  0  0  0  0  0  0
  127.1060  122.1450   56.6310 O   0  0  0  0  0  0  0  0  0  0  0  0
  126.2180  122.7670   57.4330 C   0  0  0  0  0  0  0  0  0  0  0  0
  125.0710  123.0960   57.1140 O   0  0  0  0  0  0  0  0  0  0  0  0
  126.8040  123.0210   58.8370 C   0  0  0  0  0  0  0  0  0  0  0  0
  127.9890  122.1970   59.1180 N   0  0  0  0  0  0  0  0  0  0  0  0
  128.4830  121.9210   60.3400 C   0  0  0  0  0  0  0  0  0  0  0  0
  127.9860  122.3580   61.3790 O   0  0  0  0  0  0  0  0  0  0  0  0
  129.7270  121.0230   60.3630 C   0  0  0  0  0  0  0  0  0  0  0  0
  130.2620  120.5050   62.0300 S   0  0  0  0  0  0  0  0  0  0  0  0
  130.8870  121.9410   62.8780 C   0  0  0  0  0  0  0  0  0  0  0  0
  130.0840  122.3670   63.8860 N   0  0  0  0  0  0  0  0  0  0  0  0
  130.4610  123.4490   64.6060 C   0  0  0  0  0  0  0  0  0  0  0  0
  129.5240  123.8540   65.7280 C   0  0  0  0  0  0  0  0  0  0  0  0
  131.6360  124.1520   64.3470 C   0  0  0  0  0  0  0  0  0  0  0  0
  132.4580  123.7370   63.2940 C   0  0  0  0  0  0  0  0  0  0  0  0
  133.7320  124.5330   63.0180 C   0  0  0  0  0  0  0  0  0  0  0  0
  132.0840  122.6100   62.5270 C   0  0  0  0  0  0  0  0  0  0  0  0
  132.9040  122.1900   61.3880 C   0  0  0  0  0  0  0  0  0  0  0  0
  133.5520  121.8570   60.4900 N   0  0  0  0  0  0  0  0  0  0  0  0
  128.1178  123.6288   55.6096 H   0  0  0  0  0  0  0  0  0  0  0  0
  128.1027  122.0125   54.8261 H   0  0  0  0  0  0  0  0  0  0  0  0
  126.6186  123.0245   54.8261 H   0  0  0  0  0  0  0  0  0  0  0  0
  127.0872  124.0812   58.9130 H   0  0  0  0  0  0  0  0  0  0  0  0
  126.0313  122.7511   59.5719 H   0  0  0  0  0  0  0  0  0  0  0  0
  128.4690  121.8230   58.3120 H   0  0  0  0  0  0  0  0  0  0  0  0
  129.5077  120.1184   59.7768 H   0  0  0  0  0  0  0  0  0  0  0  0
  130.5499  121.6207   59.9439 H   0  0  0  0  0  0  0  0  0  0  0  0
  130.0017  123.6475   66.6971 H   0  0  0  0  0  0  0  0  0  0  0  0
  129.3018  124.9285   65.6503 H   0  0  0  0  0  0  0  0  0  0  0  0
  128.5891  123.2796   65.6503 H   0  0  0  0  0  0  0  0  0  0  0  0
  131.9132  125.0210   64.9619 H   0  0  0  0  0  0  0  0  0  0  0  0
  134.1968  124.8234   63.9718 H   0  0  0  0  0  0  0  0  0  0  0  0
  134.4343  123.9127   62.4417 H   0  0  0  0  0  0  0  0  0  0  0  0
  133.4825  125.4361   62.4417 H   0  0  0  0  0  0  0  0  0  0  0  0
  1  2  1  0
  2  3  1  0
  3  4  2  0
  3  5  1  0
  5  6  1  0
  6  7  1  0
  7  8  2  0
  7  9  1  0
  9 10  1  0
 10 11  1  0
 11 12  2  0
 12 13  1  0
 13 14  1  0
 13 15  2  0
 15 16  1  0
 16 17  1  0
 16 18  2  0
 18 19  1  0
 19 20  3  0
 18 11  1  0
  1 21  1  0
  1 22  1  0
  1 23  1  0
  5 24  1  0
  5 25  1  0
  6 26  1  0
  9 27  1  0
  9 28  1  0
 14 29  1  0
 14 30  1  0
 14 31  1  0
 15 32  1  0
 17 33  1  0
 17 34  1  0
 17 35  1  0
M  END
>  <Binding energies>  (1) 
[-5.59]

>  <Ligand effiencies>  (1) 
[-0.2661904761904762]

>  <Interactions>  (1) 
["V-B:GLU:543:CB:9878, V-A:ARG:545:CZ:4926, V-B:TYR:539:CZ:9849, V-B:ALA:541:CB:9864, V-B:TYR:539:CE1:9847, V-B:GLU:543:CG:9879, V-A:LEU:475:CD1:4258, V-A:TYR:484:CE1:4345, V-B:PRO:540:N:9856, V-A:TYR:484:CZ:4347, V-B:TYR:539:CD2:9846, V-B:PRO:540:CA:9855, V-B:TYR:539:C:9839, V-B:TYR:539:CE2:9848, V-B:PRO:540:C:9853, H-B:ALA:541:N:9863, V-B:PRO:540:CD:9859, V-B:PRO:540:CB:9857, V-B:GLU:543:CA:9876, V-B:ILE:538:CB:9834, V-B:TYR:539:CG:9844, V-B:ILE:538:CA:9832, V-B:TYR:539:CD1:9845, H-B:TYR:539:N:9842, H-B:TYR:539:O:9840"]

$$$$
1n_Grossjean_2025
     RDKit          3D

 48 49  0  0  0  0  0  0  0  0999 V2000
  132.5140  132.0670   56.5740 C   0  0  0  0  0  0  0  0  0  0  0  0
  132.2350  132.4790   55.1250 C   0  0  0  0  0  0  0  0  0  0  0  0
  130.8840  132.9090   55.0070 O   0  0  0  0  0  0  0  0  0  0  0  0
  129.9060  132.3670   55.7770 C   0  0  0  0  0  0  0  0  0  0  0  0
  129.3470  132.9750   56.6940 O   0  0  0  0  0  0  0  0  0  0  0  0
  129.5640  130.9550   55.3940 C   0  0  0  0  0  0  0  0  0  0  0  0
  129.2190  129.9890   56.3520 C   0  0  0  0  0  0  0  0  0  0  0  0
  128.9100  128.6890   55.9630 C   0  0  0  0  0  0  0  0  0  0  0  0
  128.9450  128.3250   54.6170 C   0  0  0  0  0  0  0  0  0  0  0  0
  128.6200  126.9840   54.3360 N   0  0  0  0  0  0  0  0  0  0  0  0
  129.3980  125.8810   54.3710 C   0  0  0  0  0  0  0  0  0  0  0  0
  130.5900  125.8580   54.6780 O   0  0  0  0  0  0  0  0  0  0  0  0
  128.7020  124.5660   53.9940 C   0  0  0  0  0  0  0  0  0  0  0  0
  127.3280  124.3910   54.6760 C   0  0  0  0  0  0  0  0  0  0  0  0
  127.0450  122.7430   55.3880 S   0  0  0  0  0  0  0  0  0  0  0  0
  126.8180  122.9450   57.1420 C   0  0  0  0  0  0  0  0  0  0  0  0
  127.7390  122.2860   57.8890 N   0  0  0  0  0  0  0  0  0  0  0  0
  127.6730  122.3820   59.2370 C   0  0  0  0  0  0  0  0  0  0  0  0
  128.7410  121.6270   60.0050 C   0  0  0  0  0  0  0  0  0  0  0  0
  126.6940  123.1260   59.8910 C   0  0  0  0  0  0  0  0  0  0  0  0
  125.7270  123.7930   59.1310 C   0  0  0  0  0  0  0  0  0  0  0  0
  124.6550  124.5920   59.8700 C   0  0  0  0  0  0  0  0  0  0  0  0
  125.7730  123.7030   57.7210 C   0  0  0  0  0  0  0  0  0  0  0  0
  124.7410  124.3500   56.9080 C   0  0  0  0  0  0  0  0  0  0  0  0
  123.9250  124.8620   56.2670 N   0  0  0  0  0  0  0  0  0  0  0  0
  129.2780  129.2880   53.6530 C   0  0  0  0  0  0  0  0  0  0  0  0
  129.5840  130.5890   54.0430 C   0  0  0  0  0  0  0  0  0  0  0  0
  132.0308  132.7806   57.2576 H   0  0  0  0  0  0  0  0  0  0  0  0
  132.1121  131.0587   56.7524 H   0  0  0  0  0  0  0  0  0  0  0  0
  133.5994  132.0659   56.7524 H   0  0  0  0  0  0  0  0  0  0  0  0
  132.9079  133.3017   54.8415 H   0  0  0  0  0  0  0  0  0  0  0  0
  132.4063  131.6200   54.4596 H   0  0  0  0  0  0  0  0  0  0  0  0
  129.1927  130.2613   57.4174 H   0  0  0  0  0  0  0  0  0  0  0  0
  128.6360  127.9426   56.7231 H   0  0  0  0  0  0  0  0  0  0  0  0
  127.6460  126.8340   54.1140 H   0  0  0  0  0  0  0  0  0  0  0  0
  128.5567  124.5468   52.9038 H   0  0  0  0  0  0  0  0  0  0  0  0
  129.3462  123.7435   54.3381 H   0  0  0  0  0  0  0  0  0  0  0  0
  127.2486  125.1328   55.4843 H   0  0  0  0  0  0  0  0  0  0  0  0
  126.5694  124.5274   53.8912 H   0  0  0  0  0  0  0  0  0  0  0  0
  128.5704  121.7476   61.0850 H   0  0  0  0  0  0  0  0  0  0  0  0
  128.6951  120.5595   59.7435 H   0  0  0  0  0  0  0  0  0  0  0  0
  129.7320  122.0263   59.7435 H   0  0  0  0  0  0  0  0  0  0  0  0
  126.6812  123.1883   60.9892 H   0  0  0  0  0  0  0  0  0  0  0  0
  124.8000  124.4840   60.9550 H   0  0  0  0  0  0  0  0  0  0  0  0
  124.7333  125.6538   59.5935 H   0  0  0  0  0  0  0  0  0  0  0  0
  123.6598  124.2136   59.5935 H   0  0  0  0  0  0  0  0  0  0  0  0
  129.2974  129.0149   52.5876 H   0  0  0  0  0  0  0  0  0  0  0  0
  129.8445  131.3380   53.2807 H   0  0  0  0  0  0  0  0  0  0  0  0
  1  2  1  0
  2  3  1  0
  3  4  1  0
  4  5  2  0
  4  6  1  0
  6  7  2  0
  7  8  1  0
  8  9  2  0
  9 10  1  0
 10 11  1  0
 11 12  2  0
 11 13  1  0
 13 14  1  0
 14 15  1  0
 15 16  1  0
 16 17  2  0
 17 18  1  0
 18 19  1  0
 18 20  2  0
 20 21  1  0
 21 22  1  0
 21 23  2  0
 23 24  1  0
 24 25  3  0
  9 26  1  0
 26 27  2  0
 27  6  1  0
 23 16  1  0
  1 28  1  0
  1 29  1  0
  1 30  1  0
  2 31  1  0
  2 32  1  0
  7 33  1  0
  8 34  1  0
 10 35  1  0
 13 36  1  0
 13 37  1  0
 14 38  1  0
 14 39  1  0
 19 40  1  0
 19 41  1  0
 19 42  1  0
 20 43  1  0
 22 44  1  0
 22 45  1  0
 22 46  1  0
 26 47  1  0
 27 48  1  0
M  END
>  <Binding energies>  (1) 
[-8.75]

>  <Ligand effiencies>  (1) 
[-0.3125]

>  <Interactions>  (1) 
["V-A:PRO:540:CB:4885, V-A:PRO:540:CA:4883, V-A:TYR:539:CD1:4873, V-A:ILE:538:CD1:4865, V-A:TYR:539:CE1:4875, V-A:TYR:531:CE2:4793, V-A:PRO:540:N:4884, V-B:ASP:366:CG:8184, V-B:TYR:539:CZ:9849, V-A:MET:535:CE:4835, V-B:TYR:539:CE1:9847, V-B:PRO:540:N:9856, V-B:TYR:539:CD2:9846, V-B:PRO:540:CA:9855, V-B:TYR:539:C:9839, V-B:TYR:539:CE2:9848, V-A:ILE:538:CA:4860, V-A:PRO:540:CD:4887, H-A:TYR:539:N:4870, V-A:ILE:538:CG2:4863, V-A:LEU:363:CD1:3189, V-B:PRO:540:CB:9857, V-B:LEU:363:CD1:8160, H-B:TYR:539:N:9842, H-A:TYR:531:OH:4795, H-B:TYR:539:OH:9850, H-A:ASN:370:ND2:3248, V-A:PRO:540:CG:4886, H-B:TYR:531:OH:9767, V-A:MET:535:CG:4833, H-B:MET:535:SD:9806"]

$$$$
1o_Grossjean_2025
     RDKit          3D

 45 46  0  0  0  0  0  0  0  0999 V2000
  127.1240  126.8130   74.3980 C   0  0  0  0  0  0  0  0  0  0  0  0
  128.3050  126.0290   74.4890 O   0  0  0  0  0  0  0  0  0  0  0  0
  129.4330  126.3840   73.8230 C   0  0  0  0  0  0  0  0  0  0  0  0
  130.4220  126.8770   74.3740 O   0  0  0  0  0  0  0  0  0  0  0  0
  129.3620  126.1150   72.3470 C   0  0  0  0  0  0  0  0  0  0  0  0
  128.8040  127.0380   71.4510 C   0  0  0  0  0  0  0  0  0  0  0  0
  128.7560  126.7580   70.0870 C   0  0  0  0  0  0  0  0  0  0  0  0
  129.2550  125.5530   69.5940 C   0  0  0  0  0  0  0  0  0  0  0  0
  129.1640  125.3770   68.1990 N   0  0  0  0  0  0  0  0  0  0  0  0
  129.2730  126.2840   67.2030 C   0  0  0  0  0  0  0  0  0  0  0  0
  129.5290  127.4780   67.3560 O   0  0  0  0  0  0  0  0  0  0  0  0
  129.0850  125.7320   65.7820 C   0  0  0  0  0  0  0  0  0  0  0  0
  130.3160  124.9670   65.2560 C   0  0  0  0  0  0  0  0  0  0  0  0
  130.0850  123.1670   65.1690 S   0  0  0  0  0  0  0  0  0  0  0  0
  130.9660  122.5530   63.7480 C   0  0  0  0  0  0  0  0  0  0  0  0
  130.2650  121.6370   63.0320 N   0  0  0  0  0  0  0  0  0  0  0  0
  130.8310  121.1050   61.9240 C   0  0  0  0  0  0  0  0  0  0  0  0
  129.9820  120.0990   61.1680 C   0  0  0  0  0  0  0  0  0  0  0  0
  132.1100  121.4500   61.4930 C   0  0  0  0  0  0  0  0  0  0  0  0
  132.8510  122.3740   62.2370 C   0  0  0  0  0  0  0  0  0  0  0  0
  134.2560  122.7260   61.7530 C   0  0  0  0  0  0  0  0  0  0  0  0
  132.2830  122.9400   63.4010 C   0  0  0  0  0  0  0  0  0  0  0  0
  133.0660  123.8630   64.2250 C   0  0  0  0  0  0  0  0  0  0  0  0
  133.6860  124.5940   64.8740 N   0  0  0  0  0  0  0  0  0  0  0  0
  129.8190  124.6260   70.4840 C   0  0  0  0  0  0  0  0  0  0  0  0
  129.8680  124.9080   71.8470 C   0  0  0  0  0  0  0  0  0  0  0  0
  126.7638  127.0521   75.4095 H   0  0  0  0  0  0  0  0  0  0  0  0
  127.3436  127.7453   73.8570 H   0  0  0  0  0  0  0  0  0  0  0  0
  126.3501  126.2487   73.8570 H   0  0  0  0  0  0  0  0  0  0  0  0
  128.4013  127.9898   71.8276 H   0  0  0  0  0  0  0  0  0  0  0  0
  128.3212  127.4931   69.3938 H   0  0  0  0  0  0  0  0  0  0  0  0
  129.0160  124.4200   67.9120 H   0  0  0  0  0  0  0  0  0  0  0  0
  128.2238  125.0477   65.7846 H   0  0  0  0  0  0  0  0  0  0  0  0
  128.9285  126.5936   65.1163 H   0  0  0  0  0  0  0  0  0  0  0  0
  130.5466  125.3355   64.2455 H   0  0  0  0  0  0  0  0  0  0  0  0
  131.1330  125.1491   65.9697 H   0  0  0  0  0  0  0  0  0  0  0  0
  129.4438  119.4613   61.8847 H   0  0  0  0  0  0  0  0  0  0  0  0
  129.2571  120.6326   60.5357 H   0  0  0  0  0  0  0  0  0  0  0  0
  130.6299  119.4741   60.5357 H   0  0  0  0  0  0  0  0  0  0  0  0
  132.5311  121.0022   60.5808 H   0  0  0  0  0  0  0  0  0  0  0  0
  134.9122  122.8904   62.6204 H   0  0  0  0  0  0  0  0  0  0  0  0
  134.6522  121.8994   61.1450 H   0  0  0  0  0  0  0  0  0  0  0  0
  134.2157  123.6418   61.1450 H   0  0  0  0  0  0  0  0  0  0  0  0
  130.2228  123.6757   70.1047 H   0  0  0  0  0  0  0  0  0  0  0  0
  130.3089  124.1750   72.5386 H   0  0  0  0  0  0  0  0  0  0  0  0
  1  2  1  0
  2  3  1  0
  3  4  2  0
  3  5  1  0
  5  6  2  0
  6  7  1  0
  7  8  2  0
  8  9  1  0
  9 10  1  0
 10 11  2  0
 10 12  1  0
 12 13  1  0
 13 14  1  0
 14 15  1  0
 15 16  2  0
 16 17  1  0
 17 18  1  0
 17 19  2  0
 19 20  1  0
 20 21  1  0
 20 22  2  0
 22 23  1  0
 23 24  3  0
  8 25  1  0
 25 26  2  0
 26  5  1  0
 22 15  1  0
  1 27  1  0
  1 28  1  0
  1 29  1  0
  6 30  1  0
  7 31  1  0
  9 32  1  0
 12 33  1  0
 12 34  1  0
 13 35  1  0
 13 36  1  0
 18 37  1  0
 18 38  1  0
 18 39  1  0
 19 40  1  0
 21 41  1  0
 21 42  1  0
 21 43  1  0
 25 44  1  0
 26 45  1  0
M  END
>  <Binding energies>  (1) 
[-8.19]

>  <Ligand effiencies>  (1) 
[-0.3033333333333333]

>  <Interactions>  (1) 
["V-B:GLU:543:C:9874, V-B:GLU:543:CB:9878, V-B:HIS:456:CE1:9040, V-B:GLU:543:CD:9880, V-B:ALA:541:CB:9864, H-A:TYR:484:OH:4348, V-A:HIS:456:CE1:4069, V-B:GLU:543:CG:9879, V-A:LEU:475:CD1:4258, V-A:TYR:484:CE1:4345, V-A:GLY:454:CA:4049, V-A:TYR:484:CZ:4347, H-A:GLY:454:N:4050, V-B:TYR:539:CD2:9846, V-A:ILE:369:CD1:3239, V-A:HIS:456:CG:4066, V-A:HIS:456:CD2:4068, H-A:LYS:547:NZ:4951, H-B:LYS:547:NZ:9923, V-A:PRO:482:CG:4327, V-B:LYS:547:CD:9921, H-B:GLU:543:O:9875"]

$$$$
1p_Grossjean_2025
     RDKit          3D

 35 36  0  0  0  0  0  0  0  0999 V2000
  123.7630  129.8760   66.3520 C   0  0  0  0  0  0  0  0  0  0  0  0
  125.1130  129.1880   66.2910 C   0  0  0  0  0  0  0  0  0  0  0  0
  126.0400  129.4890   65.2940 C   0  0  0  0  0  0  0  0  0  0  0  0
  127.2650  128.8130   65.2800 C   0  0  0  0  0  0  0  0  0  0  0  0
  128.2590  129.1470   64.1690 C   0  0  0  0  0  0  0  0  0  0  0  0
  127.5360  127.8510   66.2790 C   0  0  0  0  0  0  0  0  0  0  0  0
  128.7900  127.0960   66.2570 C   0  0  0  0  0  0  0  0  0  0  0  0
  129.7820  126.5010   66.2390 N   0  0  0  0  0  0  0  0  0  0  0  0
  126.5460  127.6270   67.2650 C   0  0  0  0  0  0  0  0  0  0  0  0
  126.7280  126.4610   68.5960 S   0  0  0  0  0  0  0  0  0  0  0  0
  128.3340  126.8000   69.3750 C   0  0  0  0  0  0  0  0  0  0  0  0
  128.2440  127.0840   70.8860 C   0  0  0  0  0  0  0  0  0  0  0  0
  128.6170  125.8780   71.7610 C   0  0  0  0  0  0  0  0  0  0  0  0
  128.2900  125.8650   72.9490 O   0  0  0  0  0  0  0  0  0  0  0  0
  129.2860  124.8850   71.1330 N   0  0  0  0  0  0  0  0  0  0  0  0
  129.7360  123.6930   71.6870 C   0  0  0  0  0  0  0  0  0  0  0  0
  130.9530  123.5780   72.3600 C   0  0  0  0  0  0  0  0  0  0  0  0
  131.0240  122.2600   72.7480 C   0  0  0  0  0  0  0  0  0  0  0  0
  129.9100  121.6140   72.3300 O   0  0  0  0  0  0  0  0  0  0  0  0
  129.1020  122.5330   71.6570 N   0  0  0  0  0  0  0  0  0  0  0  0
  125.3520  128.2720   67.2580 N   0  0  0  0  0  0  0  0  0  0  0  0
  123.4737  130.0234   67.4030 H   0  0  0  0  0  0  0  0  0  0  0  0
  123.8258  130.8520   65.8486 H   0  0  0  0  0  0  0  0  0  0  0  0
  123.0102  129.2516   65.8486 H   0  0  0  0  0  0  0  0  0  0  0  0
  125.8117  130.2466   64.5298 H   0  0  0  0  0  0  0  0  0  0  0  0
  129.2125  129.4674   64.6142 H   0  0  0  0  0  0  0  0  0  0  0  0
  128.4262  128.2557   63.5464 H   0  0  0  0  0  0  0  0  0  0  0  0
  127.8540  129.9584   63.5464 H   0  0  0  0  0  0  0  0  0  0  0  0
  128.9840  125.9254   69.2246 H   0  0  0  0  0  0  0  0  0  0  0  0
  128.7345  127.7085   68.9014 H   0  0  0  0  0  0  0  0  0  0  0  0
  128.9272  127.9122   71.1256 H   0  0  0  0  0  0  0  0  0  0  0  0
  127.1948  127.3305   71.1062 H   0  0  0  0  0  0  0  0  0  0  0  0
  129.4950  125.0150   70.1540 H   0  0  0  0  0  0  0  0  0  0  0  0
  131.6949  124.3697   72.5411 H   0  0  0  0  0  0  0  0  0  0  0  0
  131.8534  121.8039   73.3084 H   0  0  0  0  0  0  0  0  0  0  0  0
  1  2  1  0
  2  3  2  0
  3  4  1  0
  4  5  1  0
  4  6  2  0
  6  7  1  0
  7  8  3  0
  6  9  1  0
  9 10  1  0
 10 11  1  0
 11 12  1  0
 12 13  1  0
 13 14  2  0
 13 15  1  0
 15 16  1  0
 16 17  1  0
 17 18  2  0
 18 19  1  0
 19 20  1  0
  9 21  2  0
 21  2  1  0
 20 16  2  0
  1 22  1  0
  1 23  1  0
  1 24  1  0
  3 25  1  0
  5 26  1  0
  5 27  1  0
  5 28  1  0
 11 29  1  0
 11 30  1  0
 12 31  1  0
 12 32  1  0
 15 33  1  0
 17 34  1  0
 18 35  1  0
M  END
>  <Binding energies>  (1) 
[-7.53]

>  <Ligand effiencies>  (1) 
[-0.3422727272727273]

>  <Interactions>  (1) 
["V-B:ARG:545:CD:9895, V-B:GLU:543:CB:9878, V-B:HIS:456:CE1:9040, V-B:ARG:545:CG:9894, V-A:GLU:543:CD:4908, V-B:ARG:545:CZ:9898, V-B:GLY:454:CA:9020, V-A:HIS:456:CG:4066, V-A:HIS:456:CD2:4068, V-A:HIS:456:CB:4065, V-A:ASP:473:CB:4239, H-B:LYS:547:NZ:9923, V-A:TYR:484:CD2:4344, V-A:TYR:484:CG:4342, V-A:TYR:484:CB:4341, H-B:ARG:545:NE:9896, V-A:TYR:484:CE2:4346, H-B:GLU:543:O:9875, H-B:ARG:545:N:9892"]

$$$$
1q_Grossjean_2025
     RDKit          3D

 38 38  0  0  0  0  0  0  0  0999 V2000
  127.6230  123.1530   54.7990 C   0  0  0  0  0  0  0  0  0  0  0  0
  127.4360  122.2960   55.9150 O   0  0  0  0  0  0  0  0  0  0  0  0
  126.2970  122.3570   56.6470 C   0  0  0  0  0  0  0  0  0  0  0  0
  125.1590  122.1580   56.2180 O   0  0  0  0  0  0  0  0  0  0  0  0
  126.5190  122.7440   58.1250 C   0  0  0  0  0  0  0  0  0  0  0  0
  127.9130  122.5730   58.5600 N   0  0  0  0  0  0  0  0  0  0  0  0
  128.3320  122.4390   59.8330 C   0  0  0  0  0  0  0  0  0  0  0  0
  127.5650  122.4440   60.7990 O   0  0  0  0  0  0  0  0  0  0  0  0
  129.8440  122.2590   60.0290 C   0  0  0  0  0  0  0  0  0  0  0  0
  130.2270  121.1260   61.0030 C   0  0  0  0  0  0  0  0  0  0  0  0
  130.1250  121.6060   62.7530 S   0  0  0  0  0  0  0  0  0  0  0  0
  131.4540  122.7370   63.1090 C   0  0  0  0  0  0  0  0  0  0  0  0
  132.4280  122.7400   62.1630 N   0  0  0  0  0  0  0  0  0  0  0  0
  133.4930  123.5580   62.3250 C   0  0  0  0  0  0  0  0  0  0  0  0
  134.5470  123.4920   61.2360 C   0  0  0  0  0  0  0  0  0  0  0  0
  133.6280  124.4090   63.4200 C   0  0  0  0  0  0  0  0  0  0  0  0
  132.6190  124.4340   64.3880 C   0  0  0  0  0  0  0  0  0  0  0  0
  132.7810  125.3890   65.5710 C   0  0  0  0  0  0  0  0  0  0  0  0
  131.4950  123.5900   64.2400 C   0  0  0  0  0  0  0  0  0  0  0  0
  130.4030  123.6440   65.2130 C   0  0  0  0  0  0  0  0  0  0  0  0
  129.5420  123.6900   65.9850 N   0  0  0  0  0  0  0  0  0  0  0  0
  127.8451  124.1710   55.1516 H   0  0  0  0  0  0  0  0  0  0  0  0
  128.4619  122.7846   54.1903 H   0  0  0  0  0  0  0  0  0  0  0  0
  126.7069  123.1675   54.1903 H   0  0  0  0  0  0  0  0  0  0  0  0
  126.2373  123.7991   58.2573 H   0  0  0  0  0  0  0  0  0  0  0  0
  125.8983  122.0736   58.7377 H   0  0  0  0  0  0  0  0  0  0  0  0
  128.6090  122.5830   57.8290 H   0  0  0  0  0  0  0  0  0  0  0  0
  130.2945  122.0387   59.0500 H   0  0  0  0  0  0  0  0  0  0  0  0
  130.2181  123.1943   60.4709 H   0  0  0  0  0  0  0  0  0  0  0  0
  129.5469  120.2779   60.8347 H   0  0  0  0  0  0  0  0  0  0  0  0
  131.2766  120.8670   60.8000 H   0  0  0  0  0  0  0  0  0  0  0  0
  135.5448  123.4295   61.6948 H   0  0  0  0  0  0  0  0  0  0  0  0
  134.3741  122.6029   60.6118 H   0  0  0  0  0  0  0  0  0  0  0  0
  134.4864  124.3957   60.6118 H   0  0  0  0  0  0  0  0  0  0  0  0
  134.5150  125.0516   63.5215 H   0  0  0  0  0  0  0  0  0  0  0  0
  132.6856  124.8269   66.5117 H   0  0  0  0  0  0  0  0  0  0  0  0
  133.7724  125.8634   65.5262 H   0  0  0  0  0  0  0  0  0  0  0  0
  132.0015  126.1638   65.5262 H   0  0  0  0  0  0  0  0  0  0  0  0
  1  2  1  0
  2  3  1  0
  3  4  2  0
  3  5  1  0
  5  6  1  0
  6  7  1  0
  7  8  2  0
  7  9  1  0
  9 10  1  0
 10 11  1  0
 11 12  1  0
 12 13  2  0
 13 14  1  0
 14 15  1  0
 14 16  2  0
 16 17  1  0
 17 18  1  0
 17 19  2  0
 19 20  1  0
 20 21  3  0
 19 12  1  0
  1 22  1  0
  1 23  1  0
  1 24  1  0
  5 25  1  0
  5 26  1  0
  6 27  1  0
  9 28  1  0
  9 29  1  0
 10 30  1  0
 10 31  1  0
 15 32  1  0
 15 33  1  0
 15 34  1  0
 16 35  1  0
 18 36  1  0
 18 37  1  0
 18 38  1  0
M  END
>  <Binding energies>  (1) 
[-6.1]

>  <Ligand effiencies>  (1) 
[-0.2772727272727273]

>  <Interactions>  (1) 
["V-A:ARG:545:CZ:4926, V-B:TYR:539:CZ:9849, V-B:ALA:541:CB:9864, H-A:TYR:484:OH:4348, V-A:HIS:456:CE1:4069, V-B:TYR:539:CE1:9847, V-A:LEU:475:CD1:4258, V-A:TYR:484:CE1:4345, V-B:PRO:540:N:9856, V-A:TYR:484:CZ:4347, V-B:TYR:539:CD2:9846, V-B:PRO:540:CA:9855, V-B:TYR:539:C:9839, V-B:TYR:539:CE2:9848, V-A:ILE:369:CD1:3239, H-B:ALA:541:N:9863, V-B:PRO:540:CD:9859, V-B:PRO:540:CB:9857, V-B:ILE:538:CB:9834, V-B:ILE:538:CA:9832, V-B:TYR:539:CD1:9845, V-B:ILE:538:CG2:9835, V-B:TYR:539:CA:9841, H-B:TYR:539:N:9842, H-B:TYR:539:OH:9850"]

$$$$
2a_Ghoteimi_2023
     RDKit          3D

 85 90  0  0  0  0  0  0  0  0999 V2000
  132.1130  132.1560   54.7630 C   0  0  0  0  0  0  0  0  0  0  0  0
  131.6970  132.8550   56.0610 C   0  0  0  0  0  0  0  0  0  0  0  0
  130.2780  132.9170   56.1290 O   0  0  0  0  0  0  0  0  0  0  0  0
  129.5360  131.7980   56.3290 C   0  0  0  0  0  0  0  0  0  0  0  0
  129.5920  130.8040   55.5970 O   0  0  0  0  0  0  0  0  0  0  0  0
  128.6430  131.8860   57.5340 C   0  0  0  0  0  0  0  0  0  0  0  0
  128.8310  132.8580   58.5270 C   0  0  0  0  0  0  0  0  0  0  0  0
  127.9850  132.9130   59.6310 C   0  0  0  0  0  0  0  0  0  0  0  0
  126.9330  132.0050   59.7630 C   0  0  0  0  0  0  0  0  0  0  0  0
  126.1430  132.1490   60.9200 N   0  0  0  0  0  0  0  0  0  0  0  0
  124.8650  132.5690   61.0480 C   0  0  0  0  0  0  0  0  0  0  0  0
  124.1530  132.9620   60.1240 O   0  0  0  0  0  0  0  0  0  0  0  0
  124.3220  132.5740   62.4830 C   0  0  0  0  0  0  0  0  0  0  0  0
  123.8890  130.9270   63.1310 S   0  0  0  0  0  0  0  0  0  0  0  0
  125.4210  130.2080   63.6780 C   0  0  0  0  0  0  0  0  0  0  0  0
  126.4230  130.3020   62.7740 N   0  0  0  0  0  0  0  0  0  0  0  0
  127.6410  129.7820   63.0720 C   0  0  0  0  0  0  0  0  0  0  0  0
  128.6970  129.9140   62.0220 C   0  0  0  0  0  0  0  0  0  0  0  0
  128.9290  128.8920   61.0930 C   0  0  0  0  0  0  0  0  0  0  0  0
  129.9220  129.0150   60.1260 C   0  0  0  0  0  0  0  0  0  0  0  0
  130.7150  130.1680   60.0440 C   0  0  0  0  0  0  0  0  0  0  0  0
  131.7290  130.2650   59.0850 N   0  0  0  0  0  0  0  0  0  0  0  0
  131.9900  129.1720   58.1270 C   0  0  0  0  0  0  0  0  0  0  0  0
  132.8770  129.5870   56.9340 C   0  0  0  0  0  0  0  0  0  0  0  0
  134.0900  130.1520   57.4040 O   0  0  0  0  0  0  0  0  0  0  0  0
  133.8540  131.3080   58.1900 C   0  0  0  0  0  0  0  0  0  0  0  0
  132.9960  130.9470   59.4220 C   0  0  0  0  0  0  0  0  0  0  0  0
  130.4870  131.1850   60.9850 C   0  0  0  0  0  0  0  0  0  0  0  0
  129.4930  131.0620   61.9510 C   0  0  0  0  0  0  0  0  0  0  0  0
  127.8810  129.1630   64.3010 C   0  0  0  0  0  0  0  0  0  0  0  0
  126.8580  129.0540   65.2530 C   0  0  0  0  0  0  0  0  0  0  0  0
  127.1810  128.3750   66.5440 C   0  0  0  0  0  0  0  0  0  0  0  0
  128.4230  128.5770   67.1520 C   0  0  0  0  0  0  0  0  0  0  0  0
  128.7410  127.9330   68.3440 C   0  0  0  0  0  0  0  0  0  0  0  0
  127.8270  127.0700   68.9660 C   0  0  0  0  0  0  0  0  0  0  0  0
  128.1340  126.4000   70.1540 N   0  0  0  0  0  0  0  0  0  0  0  0
  128.0130  127.1150   71.4400 C   0  0  0  0  0  0  0  0  0  0  0  0
  127.9970  126.1730   72.6620 C   0  0  0  0  0  0  0  0  0  0  0  0
  129.1490  125.3440   72.6530 O   0  0  0  0  0  0  0  0  0  0  0  0
  129.2100  124.5430   71.4830 C   0  0  0  0  0  0  0  0  0  0  0  0
  129.2530  125.4410   70.2290 C   0  0  0  0  0  0  0  0  0  0  0  0
  126.5870  126.8640   68.3430 C   0  0  0  0  0  0  0  0  0  0  0  0
  126.2690  127.5060   67.1500 C   0  0  0  0  0  0  0  0  0  0  0  0
  125.5870  129.5970   64.9400 C   0  0  0  0  0  0  0  0  0  0  0  0
  124.4940  129.5630   65.9170 C   0  0  0  0  0  0  0  0  0  0  0  0
  123.6320  129.5340   66.6890 N   0  0  0  0  0  0  0  0  0  0  0  0
  126.7440  131.0250   58.7780 C   0  0  0  0  0  0  0  0  0  0  0  0
  127.5900  130.9720   57.6730 C   0  0  0  0  0  0  0  0  0  0  0  0
  132.6620  131.2335   55.0030 H   0  0  0  0  0  0  0  0  0  0  0  0
  131.2161  131.9069   54.1769 H   0  0  0  0  0  0  0  0  0  0  0  0
  132.7597  132.8256   54.1769 H   0  0  0  0  0  0  0  0  0  0  0  0
  132.0815  132.2891   56.9223 H   0  0  0  0  0  0  0  0  0  0  0  0
  132.1111  133.8739   56.0791 H   0  0  0  0  0  0  0  0  0  0  0  0
  129.6533  133.5826   58.4328 H   0  0  0  0  0  0  0  0  0  0  0  0
  128.1466  133.6776   60.4051 H   0  0  0  0  0  0  0  0  0  0  0  0
  126.6250  131.9250   61.7780 H   0  0  0  0  0  0  0  0  0  0  0  0
  125.0890  133.0110   63.1393 H   0  0  0  0  0  0  0  0  0  0  0  0
  123.3901  133.1581   62.4635 H   0  0  0  0  0  0  0  0  0  0  0  0
  128.3172  127.9785   61.1283 H   0  0  0  0  0  0  0  0  0  0  0  0
  130.0875  128.1933   59.4137 H   0  0  0  0  0  0  0  0  0  0  0  0
  132.4915  128.3531   58.6635 H   0  0  0  0  0  0  0  0  0  0  0  0
  131.0167  128.8704   57.7126 H   0  0  0  0  0  0  0  0  0  0  0  0
  133.1011  128.7013   56.3214 H   0  0  0  0  0  0  0  0  0  0  0  0
  132.3418  130.3337   56.3290 H   0  0  0  0  0  0  0  0  0  0  0  0
  134.8162  131.7222   58.5257 H   0  0  0  0  0  0  0  0  0  0  0  0
  133.3170  132.0520   57.5833 H   0  0  0  0  0  0  0  0  0  0  0  0
  133.5848  130.2839   60.0729 H   0  0  0  0  0  0  0  0  0  0  0  0
  132.7300  131.8929   59.9165 H   0  0  0  0  0  0  0  0  0  0  0  0
  131.1049  132.0947   60.9581 H   0  0  0  0  0  0  0  0  0  0  0  0
  129.3309  131.8793   62.6691 H   0  0  0  0  0  0  0  0  0  0  0  0
  128.8795  128.7584   64.5232 H   0  0  0  0  0  0  0  0  0  0  0  0
  129.1557  129.2510   66.6842 H   0  0  0  0  0  0  0  0  0  0  0  0
  129.7248  128.1035   68.8056 H   0  0  0  0  0  0  0  0  0  0  0  0
  128.8665  127.8017   71.5395 H   0  0  0  0  0  0  0  0  0  0  0  0
  127.0513  127.6489   71.4271 H   0  0  0  0  0  0  0  0  0  0  0  0
  127.9875  126.7730   73.5839 H   0  0  0  0  0  0  0  0  0  0  0  0
  127.0978  125.5409   72.6180 H   0  0  0  0  0  0  0  0  0  0  0  0
  130.1156  123.9194   71.5155 H   0  0  0  0  0  0  0  0  0  0  0  0
  128.3168  123.9025   71.4375 H   0  0  0  0  0  0  0  0  0  0  0  0
  130.1964  126.0066   70.2378 H   0  0  0  0  0  0  0  0  0  0  0  0
  129.1718  124.7794   69.3539 H   0  0  0  0  0  0  0  0  0  0  0  0
  125.8551  126.1848   68.8045 H   0  0  0  0  0  0  0  0  0  0  0  0
  125.2908  127.3280   66.6794 H   0  0  0  0  0  0  0  0  0  0  0  0
  125.9258  130.2966   58.8783 H   0  0  0  0  0  0  0  0  0  0  0  0
  127.4299  130.2046   56.9013 H   0  0  0  0  0  0  0  0  0  0  0  0
  1  2  1  0
  2  3  1  0
  3  4  1  0
  4  5  2  0
  4  6  1  0
  6  7  2  0
  7  8  1  0
  8  9  2  0
  9 10  1  0
 10 11  1  0
 11 12  2  0
 11 13  1  0
 13 14  1  0
 14 15  1  0
 15 16  2  0
 16 17  1  0
 17 18  1  0
 18 19  2  0
 19 20  1  0
 20 21  2  0
 21 22  1  0
 22 23  1  0
 23 24  1  0
 24 25  1  0
 25 26  1  0
 26 27  1  0
 21 28  1  0
 28 29  2  0
 17 30  2  0
 30 31  1  0
 31 32  1  0
 32 33  2  0
 33 34  1  0
 34 35  2  0
 35 36  1  0
 36 37  1  0
 37 38  1  0
 38 39  1  0
 39 40  1  0
 40 41  1  0
 35 42  1  0
 42 43  2  0
 31 44  2  0
 44 45  1  0
 45 46  3  0
  9 47  1  0
 47 48  2  0
 48  6  1  0
 44 15  1  0
 29 18  1  0
 43 32  1  0
 27 22  1  0
 41 36  1  0
  1 49  1  0
  1 50  1  0
  1 51  1  0
  2 52  1  0
  2 53  1  0
  7 54  1  0
  8 55  1  0
 10 56  1  0
 13 57  1  0
 13 58  1  0
 19 59  1  0
 20 60  1  0
 23 61  1  0
 23 62  1  0
 24 63  1  0
 24 64  1  0
 26 65  1  0
 26 66  1  0
 27 67  1  0
 27 68  1  0
 28 69  1  0
 29 70  1  0
 30 71  1  0
 33 72  1  0
 34 73  1  0
 37 74  1  0
 37 75  1  0
 38 76  1  0
 38 77  1  0
 40 78  1  0
 40 79  1  0
 41 80  1  0
 41 81  1  0
 42 82  1  0
 43 83  1  0
 47 84  1  0
 48 85  1  0
M  END
>  <Binding energies>  (1) 
[-11.35]

>  <Ligand effiencies>  (1) 
[-0.2316326530612245]

>  <Interactions>  (1) 
["V-B:ARG:545:CD:9895, V-A:PRO:540:CB:4885, V-B:GLU:543:CB:9878, V-A:LEU:363:CA:3185, V-B:GLY:544:C:9884, V-B:HIS:456:CE1:9040, V-B:LEU:475:CD1:9229, V-A:ASP:366:CG:3213, V-A:PRO:540:CA:4883, V-A:LEU:363:CB:3187, V-B:ARG:545:CG:9894, V-A:GLU:543:CD:4908, V-B:ARG:545:CA:9891, V-A:TYR:539:CD1:4873, V-A:TYR:539:CD2:4874, V-A:TYR:539:CE2:4876, V-A:ILE:538:CD1:4865, V-A:TYR:539:CG:4872, V-A:TYR:539:CE1:4875, V-A:TYR:539:C:4867, V-A:TYR:539:CZ:4877, V-A:ASP:366:CB:3212, V-A:TYR:531:CE2:4793, V-A:PRO:540:N:4884, V-A:TYR:531:CZ:4794, V-B:ARG:545:CZ:9898, V-B:GLY:454:CA:9020, V-A:HIS:456:CE1:4069, V-A:ILE:538:CA:4860, V-A:PRO:540:CD:4887, H-A:TYR:539:N:4870, V-A:ILE:538:CG2:4863, V-A:LEU:363:CD1:3189, H-B:GLY:454:N:9021, H-B:TYR:484:OH:9319, V-A:HIS:456:CD2:4068, H-B:LYS:547:NZ:9923, V-B:HIS:456:CD2:9039, V-A:GLU:543:CB:4906, H-B:ARG:545:NE:9896, H-B:ILE:455:N:9026, V-A:PRO:540:CG:4886, V-A:LEU:363:CG:3188"]

$$$$
2a_Grossjean_2025
     RDKit          3D

 45 46  0  0  0  0  0  0  0  0999 V2000
  125.9140  127.0630   73.9060 C   0  0  0  0  0  0  0  0  0  0  0  0
  127.2180  127.0750   74.7110 C   0  0  0  0  0  0  0  0  0  0  0  0
  128.0880  126.0670   74.2110 O   0  0  0  0  0  0  0  0  0  0  0  0
  129.2730  126.3890   73.6310 C   0  0  0  0  0  0  0  0  0  0  0  0
  130.2190  126.8880   74.2470 O   0  0  0  0  0  0  0  0  0  0  0  0
  129.3240  126.0540   72.1670 C   0  0  0  0  0  0  0  0  0  0  0  0
  128.8890  126.9560   71.1850 C   0  0  0  0  0  0  0  0  0  0  0  0
  128.9480  126.6150   69.8370 C   0  0  0  0  0  0  0  0  0  0  0  0
  129.4350  125.3680   69.4430 C   0  0  0  0  0  0  0  0  0  0  0  0
  129.4360  125.1260   68.0570 N   0  0  0  0  0  0  0  0  0  0  0  0
  129.7910  125.9330   67.0350 C   0  0  0  0  0  0  0  0  0  0  0  0
  130.1730  127.0990   67.1440 O   0  0  0  0  0  0  0  0  0  0  0  0
  129.6920  125.3120   65.6370 C   0  0  0  0  0  0  0  0  0  0  0  0
  130.0380  123.5220   65.6170 S   0  0  0  0  0  0  0  0  0  0  0  0
  130.6710  123.0470   64.0120 C   0  0  0  0  0  0  0  0  0  0  0  0
  129.7910  122.4140   63.1960 N   0  0  0  0  0  0  0  0  0  0  0  0
  130.2040  122.0150   61.9720 C   0  0  0  0  0  0  0  0  0  0  0  0
  129.1720  121.2900   61.1290 C   0  0  0  0  0  0  0  0  0  0  0  0
  131.4980  122.2350   61.5080 C   0  0  0  0  0  0  0  0  0  0  0  0
  132.4230  122.8960   62.3320 C   0  0  0  0  0  0  0  0  0  0  0  0
  133.8500  123.1330   61.8030 C   0  0  0  0  0  0  0  0  0  0  0  0
  134.6680  122.1800   62.2510 F   0  0  0  0  0  0  0  0  0  0  0  0
  133.8510  123.1140   60.4690 F   0  0  0  0  0  0  0  0  0  0  0  0
  134.3540  124.3080   62.1880 F   0  0  0  0  0  0  0  0  0  0  0  0
  132.0020  123.3160   63.6190 C   0  0  0  0  0  0  0  0  0  0  0  0
  132.9280  124.0080   64.5220 C   0  0  0  0  0  0  0  0  0  0  0  0
  133.6590  124.5550   65.2350 N   0  0  0  0  0  0  0  0  0  0  0  0
  129.8800  124.4650   70.4190 C   0  0  0  0  0  0  0  0  0  0  0  0
  129.8240  124.8090   71.7670 C   0  0  0  0  0  0  0  0  0  0  0  0
  125.0573  127.0551   74.5959 H   0  0  0  0  0  0  0  0  0  0  0  0
  125.8661  127.9607   73.2722 H   0  0  0  0  0  0  0  0  0  0  0  0
  125.8826  126.1645   73.2722 H   0  0  0  0  0  0  0  0  0  0  0  0
  127.7009  128.0586   74.6138 H   0  0  0  0  0  0  0  0  0  0  0  0
  126.9986  126.8799   75.7711 H   0  0  0  0  0  0  0  0  0  0  0  0
  128.4983  127.9403   71.4825 H   0  0  0  0  0  0  0  0  0  0  0  0
  128.6083  127.3336   69.0766 H   0  0  0  0  0  0  0  0  0  0  0  0
  129.1700  124.1860   67.8040 H   0  0  0  0  0  0  0  0  0  0  0  0
  128.6739  125.4751   65.2538 H   0  0  0  0  0  0  0  0  0  0  0  0
  130.4538  125.7982   65.0098 H   0  0  0  0  0  0  0  0  0  0  0  0
  128.4510  120.7835   61.7875 H   0  0  0  0  0  0  0  0  0  0  0  0
  128.6421  122.0153   60.4941 H   0  0  0  0  0  0  0  0  0  0  0  0
  129.6746  120.5455   60.4941 H   0  0  0  0  0  0  0  0  0  0  0  0
  131.7932  121.8940   60.5047 H   0  0  0  0  0  0  0  0  0  0  0  0
  130.2742  123.4828   70.1191 H   0  0  0  0  0  0  0  0  0  0  0  0
  130.1764  124.0949   72.5259 H   0  0  0  0  0  0  0  0  0  0  0  0
  1  2  1  0
  2  3  1  0
  3  4  1  0
  4  5  2  0
  4  6  1  0
  6  7  2  0
  7  8  1  0
  8  9  2  0
  9 10  1  0
 10 11  1  0
 11 12  2  0
 11 13  1  0
 13 14  1  0
 14 15  1  0
 15 16  2  0
 16 17  1  0
 17 18  1  0
 17 19  2  0
 19 20  1  0
 20 21  1  0
 21 22  1  0
 21 23  1  0
 21 24  1  0
 20 25  2  0
 25 26  1  0
 26 27  3  0
  9 28  1  0
 28 29  2  0
 29  6  1  0
 25 15  1  0
  1 30  1  0
  1 31  1  0
  1 32  1  0
  2 33  1  0
  2 34  1  0
  7 35  1  0
  8 36  1  0
 10 37  1  0
 13 38  1  0
 13 39  1  0
 18 40  1  0
 18 41  1  0
 18 42  1  0
 19 43  1  0
 28 44  1  0
 29 45  1  0
M  END
>  <Binding energies>  (1) 
[-7.7]

>  <Ligand effiencies>  (1) 
[-0.25666666666666665]

>  <Interactions>  (1) 
["V-B:GLU:543:C:9874, V-B:GLU:543:CB:9878, V-B:HIS:456:CE1:9040, V-A:ASP:366:CG:3213, V-B:ALA:541:CB:9864, H-A:TYR:484:OH:4348, V-A:HIS:456:CE1:4069, V-B:GLU:543:CG:9879, V-A:LEU:475:CD1:4258, V-A:TYR:484:CE1:4345, V-A:GLY:454:CA:4049, V-A:TYR:484:CZ:4347, H-A:GLY:454:N:4050, V-A:ILE:369:CD1:3239, V-A:ILE:369:CG2:3237, V-B:ALA:541:CA:9862, V-A:HIS:456:CG:4066, H-A:HIS:456:NE2:4070, V-A:HIS:456:CD2:4068, H-A:LYS:547:NZ:4951, H-B:LYS:547:NZ:9923, V-A:GLY:453:C:4042, V-A:GLY:453:CA:4044, V-B:LYS:547:CD:9921, H-B:GLU:543:O:9875"]

$$$$
2aa_Ghoteimi_2023
     RDKit          3D

 85 90  0  0  0  0  0  0  0  0999 V2000
  131.2980  132.2930   54.3650 C   0  0  0  0  0  0  0  0  0  0  0  0
  130.1310  131.3540   54.6880 C   0  0  0  0  0  0  0  0  0  0  0  0
  129.1260  132.0770   55.3860 O   0  0  0  0  0  0  0  0  0  0  0  0
  129.3230  132.5000   56.6610 C   0  0  0  0  0  0  0  0  0  0  0  0
  130.2640  133.2250   57.0000 O   0  0  0  0  0  0  0  0  0  0  0  0
  128.2730  132.0120   57.6170 C   0  0  0  0  0  0  0  0  0  0  0  0
  128.1040  132.5820   58.8880 C   0  0  0  0  0  0  0  0  0  0  0  0
  127.1190  132.1110   59.7500 C   0  0  0  0  0  0  0  0  0  0  0  0
  126.2890  131.0560   59.3660 C   0  0  0  0  0  0  0  0  0  0  0  0
  125.3250  130.6610   60.3140 N   0  0  0  0  0  0  0  0  0  0  0  0
  124.4550  131.4090   61.0260 C   0  0  0  0  0  0  0  0  0  0  0  0
  124.3350  132.6320   60.9380 O   0  0  0  0  0  0  0  0  0  0  0  0
  123.5600  130.6090   61.9830 C   0  0  0  0  0  0  0  0  0  0  0  0
  124.0550  130.7330   63.3210 O   0  0  0  0  0  0  0  0  0  0  0  0
  125.3040  130.2240   63.6520 C   0  0  0  0  0  0  0  0  0  0  0  0
  126.3010  130.3220   62.7280 N   0  0  0  0  0  0  0  0  0  0  0  0
  127.5340  129.8380   63.0210 C   0  0  0  0  0  0  0  0  0  0  0  0
  128.5770  129.9770   61.9580 C   0  0  0  0  0  0  0  0  0  0  0  0
  128.7430  128.9850   60.9860 C   0  0  0  0  0  0  0  0  0  0  0  0
  129.7070  129.1120   59.9890 C   0  0  0  0  0  0  0  0  0  0  0  0
  130.5340  130.2450   59.9200 C   0  0  0  0  0  0  0  0  0  0  0  0
  131.5170  130.3820   58.9340 N   0  0  0  0  0  0  0  0  0  0  0  0
  132.8820  130.8400   59.2650 C   0  0  0  0  0  0  0  0  0  0  0  0
  133.7100  131.2700   58.0360 C   0  0  0  0  0  0  0  0  0  0  0  0
  133.7450  130.2210   57.0830 O   0  0  0  0  0  0  0  0  0  0  0  0
  132.4420  129.8860   56.6320 C   0  0  0  0  0  0  0  0  0  0  0  0
  131.5760  129.4140   57.8190 C   0  0  0  0  0  0  0  0  0  0  0  0
  130.3790  131.2260   60.9100 C   0  0  0  0  0  0  0  0  0  0  0  0
  129.4160  131.0970   61.9070 C   0  0  0  0  0  0  0  0  0  0  0  0
  127.7960  129.2250   64.2500 C   0  0  0  0  0  0  0  0  0  0  0  0
  126.7860  129.1000   65.2120 C   0  0  0  0  0  0  0  0  0  0  0  0
  127.1200  128.4120   66.4960 C   0  0  0  0  0  0  0  0  0  0  0  0
  128.3720  128.5910   67.0880 C   0  0  0  0  0  0  0  0  0  0  0  0
  128.6970  127.9370   68.2730 C   0  0  0  0  0  0  0  0  0  0  0  0
  127.7820  127.0730   68.8940 C   0  0  0  0  0  0  0  0  0  0  0  0
  128.0850  126.4080   70.0860 N   0  0  0  0  0  0  0  0  0  0  0  0
  128.0040  127.0940   71.3890 C   0  0  0  0  0  0  0  0  0  0  0  0
  128.0240  126.1280   72.5940 C   0  0  0  0  0  0  0  0  0  0  0  0
  129.1730  125.2970   72.5300 O   0  0  0  0  0  0  0  0  0  0  0  0
  129.1890  124.5190   71.3430 C   0  0  0  0  0  0  0  0  0  0  0  0
  129.2010  125.4420   70.1060 C   0  0  0  0  0  0  0  0  0  0  0  0
  126.5260  126.9040   68.2960 C   0  0  0  0  0  0  0  0  0  0  0  0
  126.2010  127.5580   67.1110 C   0  0  0  0  0  0  0  0  0  0  0  0
  125.5090  129.6280   64.9090 C   0  0  0  0  0  0  0  0  0  0  0  0
  124.4070  129.5880   65.8730 C   0  0  0  0  0  0  0  0  0  0  0  0
  123.5370  129.5560   66.6350 N   0  0  0  0  0  0  0  0  0  0  0  0
  126.4460  130.4850   58.0950 C   0  0  0  0  0  0  0  0  0  0  0  0
  127.4300  130.9610   57.2330 C   0  0  0  0  0  0  0  0  0  0  0  0
  131.7476  132.6547   55.3015 H   0  0  0  0  0  0  0  0  0  0  0  0
  132.0551  131.7494   53.7808 H   0  0  0  0  0  0  0  0  0  0  0  0
  130.9291  133.1489   53.7808 H   0  0  0  0  0  0  0  0  0  0  0  0
  129.7127  130.9526   53.7532 H   0  0  0  0  0  0  0  0  0  0  0  0
  130.4889  130.5230   55.3135 H   0  0  0  0  0  0  0  0  0  0  0  0
  128.7563  133.4088   59.2056 H   0  0  0  0  0  0  0  0  0  0  0  0
  126.9932  132.5727   60.7405 H   0  0  0  0  0  0  0  0  0  0  0  0
  125.2600  129.6610   60.4420 H   0  0  0  0  0  0  0  0  0  0  0  0
  122.5326  130.9990   61.9353 H   0  0  0  0  0  0  0  0  0  0  0  0
  123.5659  129.5492   61.6883 H   0  0  0  0  0  0  0  0  0  0  0  0
  128.1024  128.0911   61.0094 H   0  0  0  0  0  0  0  0  0  0  0  0
  129.8226  128.3117   59.2432 H   0  0  0  0  0  0  0  0  0  0  0  0
  132.8036  131.6987   59.9480 H   0  0  0  0  0  0  0  0  0  0  0  0
  133.4047  129.9860   59.7205 H   0  0  0  0  0  0  0  0  0  0  0  0
  133.2510  132.1601   57.5810 H   0  0  0  0  0  0  0  0  0  0  0  0
  134.7368  131.5014   58.3557 H   0  0  0  0  0  0  0  0  0  0  0  0
  131.9776  130.7705   56.1716 H   0  0  0  0  0  0  0  0  0  0  0  0
  132.5139  129.0743   55.8931 H   0  0  0  0  0  0  0  0  0  0  0  0
  130.5525  129.2411   57.4549 H   0  0  0  0  0  0  0  0  0  0  0  0
  132.0421  128.4987   58.2126 H   0  0  0  0  0  0  0  0  0  0  0  0
  131.0296  132.1129   60.8986 H   0  0  0  0  0  0  0  0  0  0  0  0
  129.3126  131.8865   62.6659 H   0  0  0  0  0  0  0  0  0  0  0  0
  128.8034  128.8379   64.4630 H   0  0  0  0  0  0  0  0  0  0  0  0
  129.1088  129.2555   66.6131 H   0  0  0  0  0  0  0  0  0  0  0  0
  129.6847  128.0997   68.7290 H   0  0  0  0  0  0  0  0  0  0  0  0
  128.8609  127.7782   71.4765 H   0  0  0  0  0  0  0  0  0  0  0  0
  127.0418  127.6264   71.4160 H   0  0  0  0  0  0  0  0  0  0  0  0
  128.0466  126.7099   73.5272 H   0  0  0  0  0  0  0  0  0  0  0  0
  127.1216  125.4996   72.5685 H   0  0  0  0  0  0  0  0  0  0  0  0
  130.0890  123.8866   71.3342 H   0  0  0  0  0  0  0  0  0  0  0  0
  128.2887  123.8877   71.3133 H   0  0  0  0  0  0  0  0  0  0  0  0
  130.1476  126.0022   70.0979 H   0  0  0  0  0  0  0  0  0  0  0  0
  129.0911  124.7997   69.2198 H   0  0  0  0  0  0  0  0  0  0  0  0
  125.7850  126.2439   68.7706 H   0  0  0  0  0  0  0  0  0  0  0  0
  125.2124  127.4012   66.6549 H   0  0  0  0  0  0  0  0  0  0  0  0
  125.7908  129.6599   57.7787 H   0  0  0  0  0  0  0  0  0  0  0  0
  127.5471  130.5064   56.2382 H   0  0  0  0  0  0  0  0  0  0  0  0
  1  2  1  0
  2  3  1  0
  3  4  1  0
  4  5  2  0
  4  6  1  0
  6  7  2  0
  7  8  1  0
  8  9  2  0
  9 10  1  0
 10 11  1  0
 11 12  2  0
 11 13  1  0
 13 14  1  0
 14 15  1  0
 15 16  2  0
 16 17  1  0
 17 18  1  0
 18 19  2  0
 19 20  1  0
 20 21  2  0
 21 22  1  0
 22 23  1  0
 23 24  1  0
 24 25  1  0
 25 26  1  0
 26 27  1  0
 21 28  1  0
 28 29  2  0
 17 30  2  0
 30 31  1  0
 31 32  1  0
 32 33  2  0
 33 34  1  0
 34 35  2  0
 35 36  1  0
 36 37  1  0
 37 38  1  0
 38 39  1  0
 39 40  1  0
 40 41  1  0
 35 42  1  0
 42 43  2  0
 31 44  2  0
 44 45  1  0
 45 46  3  0
  9 47  1  0
 47 48  2  0
 48  6  1  0
 44 15  1  0
 29 18  1  0
 43 32  1  0
 27 22  1  0
 41 36  1  0
  1 49  1  0
  1 50  1  0
  1 51  1  0
  2 52  1  0
  2 53  1  0
  7 54  1  0
  8 55  1  0
 10 56  1  0
 13 57  1  0
 13 58  1  0
 19 59  1  0
 20 60  1  0
 23 61  1  0
 23 62  1  0
 24 63  1  0
 24 64  1  0
 26 65  1  0
 26 66  1  0
 27 67  1  0
 27 68  1  0
 28 69  1  0
 29 70  1  0
 30 71  1  0
 33 72  1  0
 34 73  1  0
 37 74  1  0
 37 75  1  0
 38 76  1  0
 38 77  1  0
 40 78  1  0
 40 79  1  0
 41 80  1  0
 41 81  1  0
 42 82  1  0
 43 83  1  0
 47 84  1  0
 48 85  1  0
M  END
>  <Binding energies>  (1) 
[-10.88]

>  <Ligand effiencies>  (1) 
[-0.22204081632653064]

>  <Interactions>  (1) 
["V-B:ARG:545:CD:9895, V-A:PRO:540:CB:4885, V-B:GLU:543:CB:9878, V-A:LEU:363:CA:3185, V-B:GLY:544:C:9884, V-B:HIS:456:CE1:9040, V-A:PRO:540:CA:4883, V-A:LEU:363:CB:3187, V-B:ARG:545:CG:9894, V-B:ARG:545:CA:9891, V-A:TYR:539:CD1:4873, V-A:TYR:539:CD2:4874, V-A:TYR:539:CE2:4876, V-A:ILE:538:CD1:4865, V-A:TYR:539:CG:4872, V-A:TYR:539:CE1:4875, V-A:TYR:539:C:4867, V-A:TYR:539:CZ:4877, V-A:TYR:531:CE2:4793, V-A:PRO:540:N:4884, V-A:TYR:531:CZ:4794, H-B:ASP:366:OD1:8185, V-B:ILE:369:CD1:8210, V-B:ASP:366:CG:8184, V-B:ARG:545:CZ:9898, V-A:HIS:456:CE1:4069, V-A:ILE:538:CA:4860, H-A:TYR:539:N:4870, V-A:LEU:363:CD1:3189, H-B:GLY:454:N:9021, H-B:TYR:484:OH:9319, V-A:HIS:456:CD2:4068, H-B:LYS:547:NZ:9923, V-B:HIS:456:CD2:9039, V-A:GLU:543:CB:4906, H-B:ARG:545:NE:9896, H-B:ILE:455:N:9026, H-B:ARG:545:NH2:9900, H-A:TYR:531:OH:4795, V-A:PRO:540:CG:4886, H-B:ASP:366:OD2:8186"]

$$$$
2b_Ghoteimi_2023
     RDKit          3D

 72 77  0  0  0  0  0  0  0  0999 V2000
  130.0060  122.1530   64.4060 N   0  0  0  0  0  0  0  0  0  0  0  0
  130.0870  123.0650   63.6970 C   0  0  0  0  0  0  0  0  0  0  0  0
  130.1890  124.2230   62.8040 C   0  0  0  0  0  0  0  0  0  0  0  0
  130.0360  125.5380   63.3110 C   0  0  0  0  0  0  0  0  0  0  0  0
  129.7690  125.8490   64.7460 C   0  0  0  0  0  0  0  0  0  0  0  0
  128.8070  126.7990   65.0940 C   0  0  0  0  0  0  0  0  0  0  0  0
  128.5550  127.0940   66.4310 C   0  0  0  0  0  0  0  0  0  0  0  0
  129.2720  126.4590   67.4570 C   0  0  0  0  0  0  0  0  0  0  0  0
  129.0290  126.7280   68.8050 N   0  0  0  0  0  0  0  0  0  0  0  0
  129.4950  128.0060   69.3790 C   0  0  0  0  0  0  0  0  0  0  0  0
  129.5060  128.0160   70.9220 C   0  0  0  0  0  0  0  0  0  0  0  0
  128.2240  127.6690   71.4220 O   0  0  0  0  0  0  0  0  0  0  0  0
  127.8260  126.3760   70.9930 C   0  0  0  0  0  0  0  0  0  0  0  0
  127.7630  126.3300   69.4530 C   0  0  0  0  0  0  0  0  0  0  0  0
  130.2390  125.5090   67.0980 C   0  0  0  0  0  0  0  0  0  0  0  0
  130.4880  125.2120   65.7610 C   0  0  0  0  0  0  0  0  0  0  0  0
  130.1460  126.6120   62.4200 C   0  0  0  0  0  0  0  0  0  0  0  0
  130.4330  126.3860   61.0710 C   0  0  0  0  0  0  0  0  0  0  0  0
  130.5910  127.5000   60.0850 C   0  0  0  0  0  0  0  0  0  0  0  0
  130.5710  127.2440   58.7090 C   0  0  0  0  0  0  0  0  0  0  0  0
  130.7010  128.2780   57.7860 C   0  0  0  0  0  0  0  0  0  0  0  0
  130.8690  129.6070   58.2040 C   0  0  0  0  0  0  0  0  0  0  0  0
  130.9710  130.6600   57.2880 N   0  0  0  0  0  0  0  0  0  0  0  0
  129.8720  131.6410   57.1680 C   0  0  0  0  0  0  0  0  0  0  0  0
  129.9400  132.4900   55.8800 C   0  0  0  0  0  0  0  0  0  0  0  0
  131.2040  133.1290   55.7850 O   0  0  0  0  0  0  0  0  0  0  0  0
  132.2600  132.1840   55.7340 C   0  0  0  0  0  0  0  0  0  0  0  0
  132.2620  131.3220   57.0140 C   0  0  0  0  0  0  0  0  0  0  0  0
  130.8810  129.8600   59.5830 C   0  0  0  0  0  0  0  0  0  0  0  0
  130.7480  128.8260   60.5050 C   0  0  0  0  0  0  0  0  0  0  0  0
  130.5800  125.1260   60.5880 N   0  0  0  0  0  0  0  0  0  0  0  0
  130.4440  124.0690   61.4230 C   0  0  0  0  0  0  0  0  0  0  0  0
  130.6640  122.4950   60.6220 S   0  0  0  0  0  0  0  0  0  0  0  0
  129.1290  121.5470   60.8470 C   0  0  0  0  0  0  0  0  0  0  0  0
  127.9490  122.1780   60.1060 C   0  0  0  0  0  0  0  0  0  0  0  0
  127.0630  122.7420   60.7510 O   0  0  0  0  0  0  0  0  0  0  0  0
  127.9740  122.0550   58.7610 N   0  0  0  0  0  0  0  0  0  0  0  0
  127.0430  122.5400   57.8540 C   0  0  0  0  0  0  0  0  0  0  0  0
  126.2870  123.6890   58.0810 C   0  0  0  0  0  0  0  0  0  0  0  0
  125.4980  123.8250   56.9630 C   0  0  0  0  0  0  0  0  0  0  0  0
  125.7650  122.8110   56.1070 O   0  0  0  0  0  0  0  0  0  0  0  0
  126.7490  122.0020   56.6820 N   0  0  0  0  0  0  0  0  0  0  0  0
  128.2434  127.3188   64.3052 H   0  0  0  0  0  0  0  0  0  0  0  0
  127.7833  127.8350   66.6869 H   0  0  0  0  0  0  0  0  0  0  0  0
  130.5177  128.1966   69.0216 H   0  0  0  0  0  0  0  0  0  0  0  0
  128.7895  128.7848   69.0539 H   0  0  0  0  0  0  0  0  0  0  0  0
  130.2470  127.2886   71.2851 H   0  0  0  0  0  0  0  0  0  0  0  0
  129.7680  129.0250   71.2732 H   0  0  0  0  0  0  0  0  0  0  0  0
  128.5540  125.6330   71.3506 H   0  0  0  0  0  0  0  0  0  0  0  0
  126.8309  126.1489   71.4030 H   0  0  0  0  0  0  0  0  0  0  0  0
  127.5204  125.3026   69.1439 H   0  0  0  0  0  0  0  0  0  0  0  0
  126.9942  127.0502   69.1365 H   0  0  0  0  0  0  0  0  0  0  0  0
  130.8087  124.9913   67.8838 H   0  0  0  0  0  0  0  0  0  0  0  0
  131.2571  124.4697   65.5013 H   0  0  0  0  0  0  0  0  0  0  0  0
  130.0056  127.6405   62.7839 H   0  0  0  0  0  0  0  0  0  0  0  0
  130.4508  126.2106   58.3517 H   0  0  0  0  0  0  0  0  0  0  0  0
  130.6715  128.0493   56.7104 H   0  0  0  0  0  0  0  0  0  0  0  0
  128.9167  131.0958   57.1752 H   0  0  0  0  0  0  0  0  0  0  0  0
  129.9640  132.3344   58.0170 H   0  0  0  0  0  0  0  0  0  0  0  0
  129.7950  131.8380   55.0060 H   0  0  0  0  0  0  0  0  0  0  0  0
  129.1503  133.2552   55.9102 H   0  0  0  0  0  0  0  0  0  0  0  0
  132.1242  131.5335   54.8574 H   0  0  0  0  0  0  0  0  0  0  0  0
  133.2184  132.7186   55.6582 H   0  0  0  0  0  0  0  0  0  0  0  0
  133.0343  130.5459   56.9084 H   0  0  0  0  0  0  0  0  0  0  0  0
  132.4598  132.0003   57.8571 H   0  0  0  0  0  0  0  0  0  0  0  0
  130.9975  130.8931   59.9422 H   0  0  0  0  0  0  0  0  0  0  0  0
  130.7666  129.0544   61.5809 H   0  0  0  0  0  0  0  0  0  0  0  0
  129.2830  120.5269   60.4653 H   0  0  0  0  0  0  0  0  0  0  0  0
  128.8898  121.5396   61.9207 H   0  0  0  0  0  0  0  0  0  0  0  0
  128.7670  121.5810   58.3550 H   0  0  0  0  0  0  0  0  0  0  0  0
  126.3154  124.3450   58.9635 H   0  0  0  0  0  0  0  0  0  0  0  0
  124.7670  124.6290   56.7918 H   0  0  0  0  0  0  0  0  0  0  0  0
  1  2  3  0
  2  3  1  0
  3  4  2  0
  4  5  1  0
  5  6  2  0
  6  7  1  0
  7  8  2  0
  8  9  1  0
  9 10  1  0
 10 11  1  0
 11 12  1  0
 12 13  1  0
 13 14  1  0
  8 15  1  0
 15 16  2  0
  4 17  1  0
 17 18  2  0
 18 19  1  0
 19 20  2  0
 20 21  1  0
 21 22  2  0
 22 23  1  0
 23 24  1  0
 24 25  1  0
 25 26  1  0
 26 27  1  0
 27 28  1  0
 22 29  1  0
 29 30  2  0
 18 31  1  0
 31 32  2  0
 32 33  1  0
 33 34  1  0
 34 35  1  0
 35 36  2  0
 35 37  1  0
 37 38  1  0
 38 39  1  0
 39 40  2  0
 40 41  1  0
 41 42  1  0
 32  3  1  0
 42 38  2  0
 16  5  1  0
 30 19  1  0
 14  9  1  0
 28 23  1  0
  6 43  1  0
  7 44  1  0
 10 45  1  0
 10 46  1  0
 11 47  1  0
 11 48  1  0
 13 49  1  0
 13 50  1  0
 14 51  1  0
 14 52  1  0
 15 53  1  0
 16 54  1  0
 17 55  1  0
 20 56  1  0
 21 57  1  0
 24 58  1  0
 24 59  1  0
 25 60  1  0
 25 61  1  0
 27 62  1  0
 27 63  1  0
 28 64  1  0
 28 65  1  0
 29 66  1  0
 30 67  1  0
 34 68  1  0
 34 69  1  0
 37 70  1  0
 39 71  1  0
 40 72  1  0
M  END
>  <Binding energies>  (1) 
[-10.81]

>  <Ligand effiencies>  (1) 
[-0.2513953488372093]

>  <Interactions>  (1) 
["V-A:PRO:540:CB:4885, V-B:GLU:543:C:9874, V-B:GLU:543:CB:9878, V-B:GLY:544:C:9884, V-B:HIS:456:CE1:9040, V-B:GLU:543:CD:9880, V-A:GLU:543:CD:4908, V-A:TYR:539:CD1:4873, V-A:TYR:539:CE1:4875, V-B:ALA:541:CB:9864, V-A:HIS:456:CE1:4069, V-B:PRO:540:N:9856, V-A:TYR:484:CZ:4347, V-B:TYR:539:CD2:9846, V-B:PRO:540:CA:9855, V-B:TYR:539:C:9839, V-B:TYR:539:CE2:9848, V-B:PRO:540:C:9853, V-A:PRO:540:CD:4887, H-A:TYR:539:N:4870, V-A:LEU:363:CD1:3189, H-B:ALA:541:N:9863, V-B:PRO:540:CB:9857, V-A:HIS:456:CD2:4068, H-B:HIS:456:NE2:9041, V-B:HIS:456:CD2:9039, V-B:LEU:363:CD1:8160, V-B:TYR:539:CG:9844, H-B:TYR:539:N:9842, H-B:TYR:539:O:9840"]

$$$$
2b_Grossjean_2025
     RDKit          3D

 42 43  0  0  0  0  0  0  0  0999 V2000
  126.9620  126.8990   73.8900 C   0  0  0  0  0  0  0  0  0  0  0  0
  128.1130  126.1140   74.1670 O   0  0  0  0  0  0  0  0  0  0  0  0
  129.3070  126.3910   73.5830 C   0  0  0  0  0  0  0  0  0  0  0  0
  130.2650  126.8790   74.1910 O   0  0  0  0  0  0  0  0  0  0  0  0
  129.3450  126.0500   72.1220 C   0  0  0  0  0  0  0  0  0  0  0  0
  128.9050  126.9480   71.1380 C   0  0  0  0  0  0  0  0  0  0  0  0
  128.9520  126.5990   69.7910 C   0  0  0  0  0  0  0  0  0  0  0  0
  129.4440  125.3540   69.3990 C   0  0  0  0  0  0  0  0  0  0  0  0
  129.4410  125.1030   68.0140 N   0  0  0  0  0  0  0  0  0  0  0  0
  129.7650  125.9200   66.9890 C   0  0  0  0  0  0  0  0  0  0  0  0
  130.1120  127.0970   67.0980 O   0  0  0  0  0  0  0  0  0  0  0  0
  129.6600  125.2920   65.5950 C   0  0  0  0  0  0  0  0  0  0  0  0
  130.0060  123.5030   65.5870 S   0  0  0  0  0  0  0  0  0  0  0  0
  130.6490  123.0130   63.9920 C   0  0  0  0  0  0  0  0  0  0  0  0
  129.7740  122.3740   63.1750 N   0  0  0  0  0  0  0  0  0  0  0  0
  130.1940  121.9700   61.9560 C   0  0  0  0  0  0  0  0  0  0  0  0
  129.1600  121.2520   61.1090 C   0  0  0  0  0  0  0  0  0  0  0  0
  131.4890  122.1900   61.4960 C   0  0  0  0  0  0  0  0  0  0  0  0
  132.4090  122.8560   62.3210 C   0  0  0  0  0  0  0  0  0  0  0  0
  133.8370  123.0960   61.7950 C   0  0  0  0  0  0  0  0  0  0  0  0
  134.6560  122.1460   62.2500 F   0  0  0  0  0  0  0  0  0  0  0  0
  133.8450  123.0710   60.4610 F   0  0  0  0  0  0  0  0  0  0  0  0
  134.3370  124.2730   62.1770 F   0  0  0  0  0  0  0  0  0  0  0  0
  131.9840  123.2790   63.6060 C   0  0  0  0  0  0  0  0  0  0  0  0
  132.9050  123.9730   64.5110 C   0  0  0  0  0  0  0  0  0  0  0  0
  133.6310  124.5220   65.2260 N   0  0  0  0  0  0  0  0  0  0  0  0
  129.8790  124.4480   70.3770 C   0  0  0  0  0  0  0  0  0  0  0  0
  129.8300  124.7970   71.7230 C   0  0  0  0  0  0  0  0  0  0  0  0
  126.4978  127.2156   74.8357 H   0  0  0  0  0  0  0  0  0  0  0  0
  127.2545  127.7867   73.3099 H   0  0  0  0  0  0  0  0  0  0  0  0
  126.2424  126.3027   73.3099 H   0  0  0  0  0  0  0  0  0  0  0  0
  128.5200  127.9353   71.4329 H   0  0  0  0  0  0  0  0  0  0  0  0
  128.5985  127.3104   69.0301 H   0  0  0  0  0  0  0  0  0  0  0  0
  129.1000  124.1880   67.7600 H   0  0  0  0  0  0  0  0  0  0  0  0
  128.6404  125.4528   65.2148 H   0  0  0  0  0  0  0  0  0  0  0  0
  130.4179  125.7748   64.9606 H   0  0  0  0  0  0  0  0  0  0  0  0
  128.4346  120.7483   61.7648 H   0  0  0  0  0  0  0  0  0  0  0  0
  128.6356  121.9813   60.4741 H   0  0  0  0  0  0  0  0  0  0  0  0
  129.6602  120.5059   60.4741 H   0  0  0  0  0  0  0  0  0  0  0  0
  131.7888  121.8452   60.4954 H   0  0  0  0  0  0  0  0  0  0  0  0
  130.2596  123.4597   70.0795 H   0  0  0  0  0  0  0  0  0  0  0  0
  130.1760  124.0810   72.4830 H   0  0  0  0  0  0  0  0  0  0  0  0
  1  2  1  0
  2  3  1  0
  3  4  2  0
  3  5  1  0
  5  6  2  0
  6  7  1  0
  7  8  2  0
  8  9  1  0
  9 10  1  0
 10 11  2  0
 10 12  1  0
 12 13  1  0
 13 14  1  0
 14 15  2  0
 15 16  1  0
 16 17  1  0
 16 18  2  0
 18 19  1  0
 19 20  1  0
 20 21  1  0
 20 22  1  0
 20 23  1  0
 19 24  2  0
 24 25  1  0
 25 26  3  0
  8 27  1  0
 27 28  2  0
 28  5  1  0
 24 14  1  0
  1 29  1  0
  1 30  1  0
  1 31  1  0
  6 32  1  0
  7 33  1  0
  9 34  1  0
 12 35  1  0
 12 36  1  0
 17 37  1  0
 17 38  1  0
 17 39  1  0
 18 40  1  0
 27 41  1  0
 28 42  1  0
M  END
>  <Binding energies>  (1) 
[-7.6]

>  <Ligand effiencies>  (1) 
[-0.26206896551724135]

>  <Interactions>  (1) 
["V-B:GLU:543:C:9874, V-B:GLU:543:CB:9878, V-B:HIS:456:CE1:9040, V-A:ASP:366:CG:3213, V-B:ALA:541:CB:9864, H-A:TYR:484:OH:4348, V-A:HIS:456:CE1:4069, V-B:GLU:543:CG:9879, V-A:LEU:475:CD1:4258, V-A:TYR:484:CE1:4345, V-A:GLY:454:CA:4049, V-A:TYR:484:CZ:4347, H-A:GLY:454:N:4050, V-B:TYR:539:CD2:9846, V-A:ILE:369:CD1:3239, V-A:ILE:369:CG2:3237, V-B:ALA:541:CA:9862, V-A:HIS:456:CG:4066, H-A:HIS:456:NE2:4070, V-A:HIS:456:CD2:4068, H-A:LYS:547:NZ:4951, H-B:LYS:547:NZ:9923, V-A:GLY:453:C:4042, V-A:GLY:453:CA:4044, V-B:LYS:547:CD:9921, H-B:GLU:543:O:9875"]

$$$$
2c_Ghoteimi_2023
     RDKit          3D

 72 77  0  0  0  0  0  0  0  0999 V2000
  129.9950  121.8650   64.3120 N   0  0  0  0  0  0  0  0  0  0  0  0
  130.0670  122.8270   63.6740 C   0  0  0  0  0  0  0  0  0  0  0  0
  130.1600  124.0500   62.8700 C   0  0  0  0  0  0  0  0  0  0  0  0
  129.9880  125.3220   63.4700 C   0  0  0  0  0  0  0  0  0  0  0  0
  129.7040  125.5260   64.9220 C   0  0  0  0  0  0  0  0  0  0  0  0
  128.7230  126.4340   65.3260 C   0  0  0  0  0  0  0  0  0  0  0  0
  128.4490  126.6260   66.6770 C   0  0  0  0  0  0  0  0  0  0  0  0
  129.1590  125.9260   67.6650 C   0  0  0  0  0  0  0  0  0  0  0  0
  128.8870  126.0880   69.0250 N   0  0  0  0  0  0  0  0  0  0  0  0
  127.5240  126.4620   69.4500 C   0  0  0  0  0  0  0  0  0  0  0  0
  127.4580  126.9800   70.9020 C   0  0  0  0  0  0  0  0  0  0  0  0
  128.0190  126.0210   71.7860 O   0  0  0  0  0  0  0  0  0  0  0  0
  129.3780  125.7550   71.4780 C   0  0  0  0  0  0  0  0  0  0  0  0
  129.4950  125.2060   70.0410 C   0  0  0  0  0  0  0  0  0  0  0  0
  130.1450  125.0190   67.2490 C   0  0  0  0  0  0  0  0  0  0  0  0
  130.4170  124.8250   65.8980 C   0  0  0  0  0  0  0  0  0  0  0  0
  130.0890  126.4600   62.6590 C   0  0  0  0  0  0  0  0  0  0  0  0
  130.3790  126.3360   61.2970 C   0  0  0  0  0  0  0  0  0  0  0  0
  130.5150  127.5200   60.3940 C   0  0  0  0  0  0  0  0  0  0  0  0
  130.4730  127.3670   59.0050 C   0  0  0  0  0  0  0  0  0  0  0  0
  130.5930  128.4660   58.1580 C   0  0  0  0  0  0  0  0  0  0  0  0
  130.7710  129.7610   58.6710 C   0  0  0  0  0  0  0  0  0  0  0  0
  130.8680  130.8790   57.8360 N   0  0  0  0  0  0  0  0  0  0  0  0
  132.0340  131.0300   56.9410 C   0  0  0  0  0  0  0  0  0  0  0  0
  132.2030  132.4570   56.3800 C   0  0  0  0  0  0  0  0  0  0  0  0
  131.0120  132.8680   55.7290 O   0  0  0  0  0  0  0  0  0  0  0  0
  129.9100  132.8830   56.6230 C   0  0  0  0  0  0  0  0  0  0  0  0
  129.6740  131.4700   57.1970 C   0  0  0  0  0  0  0  0  0  0  0  0
  130.7990  129.9110   60.0650 C   0  0  0  0  0  0  0  0  0  0  0  0
  130.6780  128.8110   60.9110 C   0  0  0  0  0  0  0  0  0  0  0  0
  130.5460  125.1160   60.7260 N   0  0  0  0  0  0  0  0  0  0  0  0
  130.4220  124.0000   61.4820 C   0  0  0  0  0  0  0  0  0  0  0  0
  130.6600  122.4920   60.5700 S   0  0  0  0  0  0  0  0  0  0  0  0
  129.1630  121.4820   60.7850 C   0  0  0  0  0  0  0  0  0  0  0  0
  127.9450  122.1080   60.1050 C   0  0  0  0  0  0  0  0  0  0  0  0
  127.0480  122.5910   60.7970 O   0  0  0  0  0  0  0  0  0  0  0  0
  127.9520  122.0760   58.7550 N   0  0  0  0  0  0  0  0  0  0  0  0
  126.9790  122.5880   57.9080 C   0  0  0  0  0  0  0  0  0  0  0  0
  126.5760  122.1030   56.7540 N   0  0  0  0  0  0  0  0  0  0  0  0
  125.6270  122.8460   56.2210 C   0  0  0  0  0  0  0  0  0  0  0  0
  125.2410  123.9670   56.9490 C   0  0  0  0  0  0  0  0  0  0  0  0
  126.1770  124.0410   58.4120 S   0  0  0  0  0  0  0  0  0  0  0  0
  128.1618  127.0025   64.5698 H   0  0  0  0  0  0  0  0  0  0  0  0
  127.6643  127.3370   66.9749 H   0  0  0  0  0  0  0  0  0  0  0  0
  127.1539  127.2522   68.7802 H   0  0  0  0  0  0  0  0  0  0  0  0
  126.9062  125.5532   69.3999 H   0  0  0  0  0  0  0  0  0  0  0  0
  128.0229  127.9207   70.9791 H   0  0  0  0  0  0  0  0  0  0  0  0
  126.4068  127.1523   71.1763 H   0  0  0  0  0  0  0  0  0  0  0  0
  129.9593  126.6852   71.5612 H   0  0  0  0  0  0  0  0  0  0  0  0
  129.7687  125.0069   72.1835 H   0  0  0  0  0  0  0  0  0  0  0  0
  130.5613  125.0811   69.8012 H   0  0  0  0  0  0  0  0  0  0  0  0
  128.9479  124.2522   70.0123 H   0  0  0  0  0  0  0  0  0  0  0  0
  130.7120  124.4523   68.0023 H   0  0  0  0  0  0  0  0  0  0  0  0
  131.1999  124.1138   65.5960 H   0  0  0  0  0  0  0  0  0  0  0  0
  129.9391  127.4579   63.0969 H   0  0  0  0  0  0  0  0  0  0  0  0
  130.3432  126.3631   58.5745 H   0  0  0  0  0  0  0  0  0  0  0  0
  130.5476  128.3171   57.0691 H   0  0  0  0  0  0  0  0  0  0  0  0
  132.9414  130.7688   57.5053 H   0  0  0  0  0  0  0  0  0  0  0  0
  131.8686  130.3637   56.0815 H   0  0  0  0  0  0  0  0  0  0  0  0
  132.4237  133.1491   57.2060 H   0  0  0  0  0  0  0  0  0  0  0  0
  133.0306  132.4637   55.6554 H   0  0  0  0  0  0  0  0  0  0  0  0
  130.1197  133.5803   57.4475 H   0  0  0  0  0  0  0  0  0  0  0  0
  129.0098  133.2060   56.0797 H   0  0  0  0  0  0  0  0  0  0  0  0
  128.8726  131.5301   57.9481 H   0  0  0  0  0  0  0  0  0  0  0  0
  129.4091  130.8201   56.3499 H   0  0  0  0  0  0  0  0  0  0  0  0
  130.9186  130.9151   60.4981 H   0  0  0  0  0  0  0  0  0  0  0  0
  130.7110  128.9586   62.0005 H   0  0  0  0  0  0  0  0  0  0  0  0
  129.3404  120.4875   60.3496 H   0  0  0  0  0  0  0  0  0  0  0  0
  128.9520  121.4137   61.8624 H   0  0  0  0  0  0  0  0  0  0  0  0
  128.7520  121.6590   58.3010 H   0  0  0  0  0  0  0  0  0  0  0  0
  125.1659  122.5940   55.2546 H   0  0  0  0  0  0  0  0  0  0  0  0
  124.4684  124.6897   56.6476 H   0  0  0  0  0  0  0  0  0  0  0  0
  1  2  3  0
  2  3  1  0
  3  4  2  0
  4  5  1  0
  5  6  2  0
  6  7  1  0
  7  8  2  0
  8  9  1  0
  9 10  1  0
 10 11  1  0
 11 12  1  0
 12 13  1  0
 13 14  1  0
  8 15  1  0
 15 16  2  0
  4 17  1  0
 17 18  2  0
 18 19  1  0
 19 20  2  0
 20 21  1  0
 21 22  2  0
 22 23  1  0
 23 24  1  0
 24 25  1  0
 25 26  1  0
 26 27  1  0
 27 28  1  0
 22 29  1  0
 29 30  2  0
 18 31  1  0
 31 32  2  0
 32 33  1  0
 33 34  1  0
 34 35  1  0
 35 36  2  0
 35 37  1  0
 37 38  1  0
 38 39  2  0
 39 40  1  0
 40 41  2  0
 41 42  1  0
 32  3  1  0
 42 38  1  0
 16  5  1  0
 30 19  1  0
 14  9  1  0
 28 23  1  0
  6 43  1  0
  7 44  1  0
 10 45  1  0
 10 46  1  0
 11 47  1  0
 11 48  1  0
 13 49  1  0
 13 50  1  0
 14 51  1  0
 14 52  1  0
 15 53  1  0
 16 54  1  0
 17 55  1  0
 20 56  1  0
 21 57  1  0
 24 58  1  0
 24 59  1  0
 25 60  1  0
 25 61  1  0
 27 62  1  0
 27 63  1  0
 28 64  1  0
 28 65  1  0
 29 66  1  0
 30 67  1  0
 34 68  1  0
 34 69  1  0
 37 70  1  0
 40 71  1  0
 41 72  1  0
M  END
>  <Binding energies>  (1) 
[-10.75]

>  <Ligand effiencies>  (1) 
[-0.25]

>  <Interactions>  (1) 
["V-A:PRO:540:CB:4885, V-B:GLU:543:C:9874, V-B:GLU:543:CB:9878, V-B:GLY:544:C:9884, V-B:HIS:456:CE1:9040, V-A:PRO:540:CA:4883, V-B:GLU:543:CD:9880, V-A:TYR:539:CD1:4873, V-A:TYR:539:CG:4872, V-A:TYR:539:CE1:4875, V-A:TYR:539:C:4867, V-A:PRO:540:N:4884, V-B:ALA:541:CB:9864, V-A:HIS:456:CE1:4069, V-B:GLU:543:CG:9879, V-A:TYR:484:CE1:4345, V-B:PRO:540:N:9856, V-A:TYR:484:CZ:4347, V-B:TYR:539:CD2:9846, V-B:PRO:540:CA:9855, V-B:TYR:539:C:9839, V-B:TYR:539:CE2:9848, V-B:PRO:540:C:9853, V-A:PRO:540:CD:4887, H-A:TYR:539:N:4870, V-A:LEU:363:CD1:3189, H-B:ALA:541:N:9863, V-B:PRO:540:CD:9859, V-B:PRO:540:CB:9857, V-A:HIS:456:CD2:4068, V-B:HIS:456:CG:9037, V-A:TYR:539:CA:4869, V-B:LEU:363:CD1:8160, V-B:ILE:538:CB:9834, V-B:TYR:539:CG:9844, V-B:ILE:538:CG2:9835, H-B:TYR:539:N:9842, V-A:PRO:540:CG:4886, H-B:TYR:539:O:9840"]

$$$$
2c_Grossjean_2025
     RDKit          3D

 40 41  0  0  0  0  0  0  0  0999 V2000
  127.2960  126.9900   73.4020 C   0  0  0  0  0  0  0  0  0  0  0  0
  128.3860  126.0940   73.2130 O   0  0  0  0  0  0  0  0  0  0  0  0
  128.7850  125.7800   71.9280 C   0  0  0  0  0  0  0  0  0  0  0  0
  128.3710  126.6490   70.9180 C   0  0  0  0  0  0  0  0  0  0  0  0
  128.7230  126.4160   69.5910 C   0  0  0  0  0  0  0  0  0  0  0  0
  129.4920  125.2910   69.2580 C   0  0  0  0  0  0  0  0  0  0  0  0
  129.9110  124.9830   67.9510 N   0  0  0  0  0  0  0  0  0  0  0  0
  129.4500  125.4750   66.7810 C   0  0  0  0  0  0  0  0  0  0  0  0
  128.5110  126.2660   66.6740 O   0  0  0  0  0  0  0  0  0  0  0  0
  130.1640  124.9420   65.5290 C   0  0  0  0  0  0  0  0  0  0  0  0
  130.0520  123.1360   65.2700 S   0  0  0  0  0  0  0  0  0  0  0  0
  130.7610  122.7190   63.6820 C   0  0  0  0  0  0  0  0  0  0  0  0
  129.9390  122.0550   62.8280 N   0  0  0  0  0  0  0  0  0  0  0  0
  130.4110  121.6990   61.6140 C   0  0  0  0  0  0  0  0  0  0  0  0
  129.4390  120.9460   60.7260 C   0  0  0  0  0  0  0  0  0  0  0  0
  131.7060  121.9920   61.1950 C   0  0  0  0  0  0  0  0  0  0  0  0
  132.5690  122.6840   62.0570 C   0  0  0  0  0  0  0  0  0  0  0  0
  133.9990  123.0030   61.5780 C   0  0  0  0  0  0  0  0  0  0  0  0
  134.8740  122.2050   62.1910 F   0  0  0  0  0  0  0  0  0  0  0  0
  134.0930  122.8190   60.2610 F   0  0  0  0  0  0  0  0  0  0  0  0
  134.3580  124.2640   61.8340 F   0  0  0  0  0  0  0  0  0  0  0  0
  132.0900  123.0590   63.3370 C   0  0  0  0  0  0  0  0  0  0  0  0
  132.9490  123.7820   64.2810 C   0  0  0  0  0  0  0  0  0  0  0  0
  133.6280  124.3530   65.0240 N   0  0  0  0  0  0  0  0  0  0  0  0
  129.9220  124.4280   70.2670 C   0  0  0  0  0  0  0  0  0  0  0  0
  129.5690  124.6650   71.5920 C   0  0  0  0  0  0  0  0  0  0  0  0
  127.1216  127.1333   74.4786 H   0  0  0  0  0  0  0  0  0  0  0  0
  127.5324  127.9583   72.9367 H   0  0  0  0  0  0  0  0  0  0  0  0
  126.3917  126.5707   72.9367 H   0  0  0  0  0  0  0  0  0  0  0  0
  127.7600  127.5276   71.1727 H   0  0  0  0  0  0  0  0  0  0  0  0
  128.3984  127.1134   68.8047 H   0  0  0  0  0  0  0  0  0  0  0  0
  130.6060  124.2530   67.8920 H   0  0  0  0  0  0  0  0  0  0  0  0
  129.7249  125.4384   64.6510 H   0  0  0  0  0  0  0  0  0  0  0  0
  131.2322  125.1613   65.6735 H   0  0  0  0  0  0  0  0  0  0  0  0
  128.7240  120.3921   61.3521 H   0  0  0  0  0  0  0  0  0  0  0  0
  128.8940  121.6599   60.0909 H   0  0  0  0  0  0  0  0  0  0  0  0
  129.9941  120.2399   60.0909 H   0  0  0  0  0  0  0  0  0  0  0  0
  132.0492  121.6834   60.1965 H   0  0  0  0  0  0  0  0  0  0  0  0
  130.5430  123.5561   70.0136 H   0  0  0  0  0  0  0  0  0  0  0  0
  129.9059  123.9753   72.3799 H   0  0  0  0  0  0  0  0  0  0  0  0
  1  2  1  0
  2  3  1  0
  3  4  2  0
  4  5  1  0
  5  6  2  0
  6  7  1  0
  7  8  1  0
  8  9  2  0
  8 10  1  0
 10 11  1  0
 11 12  1  0
 12 13  2  0
 13 14  1  0
 14 15  1  0
 14 16  2  0
 16 17  1  0
 17 18  1  0
 18 19  1  0
 18 20  1  0
 18 21  1  0
 17 22  2  0
 22 23  1  0
 23 24  3  0
  6 25  1  0
 25 26  2  0
 26  3  1  0
 22 12  1  0
  1 27  1  0
  1 28  1  0
  1 29  1  0
  4 30  1  0
  5 31  1  0
  7 32  1  0
 10 33  1  0
 10 34  1  0
 15 35  1  0
 15 36  1  0
 15 37  1  0
 16 38  1  0
 25 39  1  0
 26 40  1  0
M  END
>  <Binding energies>  (1) 
[-7.13]

>  <Ligand effiencies>  (1) 
[-0.26407407407407407]

>  <Interactions>  (1) 
["V-B:GLU:543:C:9874, V-B:GLU:543:CB:9878, V-B:HIS:456:CE1:9040, V-A:ASP:366:CG:3213, V-B:ALA:541:CB:9864, H-A:TYR:484:OH:4348, V-A:HIS:456:CE1:4069, V-A:LEU:475:CD1:4258, V-A:TYR:484:CE1:4345, V-A:GLY:454:CA:4049, V-A:TYR:484:CZ:4347, H-A:GLY:454:N:4050, V-B:TYR:539:CD2:9846, V-B:TYR:539:CE2:9848, V-A:ILE:369:CD1:3239, V-A:ILE:369:CG2:3237, V-A:HIS:456:CG:4066, V-A:HIS:456:CD2:4068, H-B:LYS:547:NZ:9923, V-A:GLY:453:C:4042, V-A:ILE:369:CB:3236, H-B:GLU:543:O:9875, V-A:ILE:369:CG1:3238, H-A:HIS:456:ND1:4067"]

$$$$
2d_Ghoteimi_2023
     RDKit          3D

 68 72  0  0  0  0  0  0  0  0999 V2000
  124.6770  130.2940   63.3220 C   0  0  0  0  0  0  0  0  0  0  0  0
  123.8760  130.3470   64.4930 O   0  0  0  0  0  0  0  0  0  0  0  0
  124.3400  129.8610   65.6630 C   0  0  0  0  0  0  0  0  0  0  0  0
  123.9390  130.1870   66.7840 O   0  0  0  0  0  0  0  0  0  0  0  0
  125.4470  128.8210   65.4350 C   0  0  0  0  0  0  0  0  0  0  0  0
  127.0430  129.3970   66.1070 S   0  0  0  0  0  0  0  0  0  0  0  0
  128.0250  127.9700   66.5210 C   0  0  0  0  0  0  0  0  0  0  0  0
  128.1810  127.7980   67.8560 N   0  0  0  0  0  0  0  0  0  0  0  0
  128.9130  126.7520   68.3170 C   0  0  0  0  0  0  0  0  0  0  0  0
  129.0560  126.6370   69.8000 C   0  0  0  0  0  0  0  0  0  0  0  0
  129.1400  127.7820   70.5990 C   0  0  0  0  0  0  0  0  0  0  0  0
  129.2730  127.6820   71.9810 C   0  0  0  0  0  0  0  0  0  0  0  0
  129.3160  126.4320   72.6160 C   0  0  0  0  0  0  0  0  0  0  0  0
  129.4670  126.3130   74.0030 N   0  0  0  0  0  0  0  0  0  0  0  0
  130.7920  126.1050   74.6190 C   0  0  0  0  0  0  0  0  0  0  0  0
  130.7230  125.6300   76.0860 C   0  0  0  0  0  0  0  0  0  0  0  0
  129.9470  126.5370   76.8520 O   0  0  0  0  0  0  0  0  0  0  0  0
  128.6190  126.6290   76.3630 C   0  0  0  0  0  0  0  0  0  0  0  0
  128.6250  127.1270   74.9020 C   0  0  0  0  0  0  0  0  0  0  0  0
  129.2450  125.2860   71.8110 C   0  0  0  0  0  0  0  0  0  0  0  0
  129.1150  125.3860   70.4290 C   0  0  0  0  0  0  0  0  0  0  0  0
  129.5070  125.8450   67.4360 C   0  0  0  0  0  0  0  0  0  0  0  0
  129.3340  125.9810   66.0530 C   0  0  0  0  0  0  0  0  0  0  0  0
  129.9740  124.9580   65.1730 C   0  0  0  0  0  0  0  0  0  0  0  0
  129.5040  123.6440   65.1660 C   0  0  0  0  0  0  0  0  0  0  0  0
  130.0850  122.6860   64.3400 C   0  0  0  0  0  0  0  0  0  0  0  0
  131.1600  123.0160   63.4990 C   0  0  0  0  0  0  0  0  0  0  0  0
  131.7510  122.0740   62.6520 N   0  0  0  0  0  0  0  0  0  0  0  0
  133.1300  122.2450   62.1540 C   0  0  0  0  0  0  0  0  0  0  0  0
  133.7280  120.9590   61.5440 C   0  0  0  0  0  0  0  0  0  0  0  0
  132.8760  120.4650   60.5220 O   0  0  0  0  0  0  0  0  0  0  0  0
  131.5830  120.1580   61.0190 C   0  0  0  0  0  0  0  0  0  0  0  0
  130.9300  121.4250   61.6120 C   0  0  0  0  0  0  0  0  0  0  0  0
  131.6140  124.3420   63.4990 C   0  0  0  0  0  0  0  0  0  0  0  0
  131.0310  125.3000   64.3240 C   0  0  0  0  0  0  0  0  0  0  0  0
  128.5660  127.0710   65.5730 C   0  0  0  0  0  0  0  0  0  0  0  0
  128.3400  127.2460   64.1350 C   0  0  0  0  0  0  0  0  0  0  0  0
  128.1630  127.3800   62.9990 N   0  0  0  0  0  0  0  0  0  0  0  0
  125.7374  130.2238   63.6060 H   0  0  0  0  0  0  0  0  0  0  0  0
  124.3978  129.4124   62.7264 H   0  0  0  0  0  0  0  0  0  0  0  0
  124.5164  131.2047   62.7264 H   0  0  0  0  0  0  0  0  0  0  0  0
  125.1655  127.8821   65.9342 H   0  0  0  0  0  0  0  0  0  0  0  0
  125.5610  128.6657   64.3520 H   0  0  0  0  0  0  0  0  0  0  0  0
  129.1004  128.7755   70.1286 H   0  0  0  0  0  0  0  0  0  0  0  0
  129.3456  128.5984   72.5851 H   0  0  0  0  0  0  0  0  0  0  0  0
  131.3330  125.3473   74.0331 H   0  0  0  0  0  0  0  0  0  0  0  0
  131.3046  127.0782   74.6185 H   0  0  0  0  0  0  0  0  0  0  0  0
  130.2615  124.6323   76.1248 H   0  0  0  0  0  0  0  0  0  0  0  0
  131.7411  125.5856   76.5001 H   0  0  0  0  0  0  0  0  0  0  0  0
  128.1454  125.6371   76.4073 H   0  0  0  0  0  0  0  0  0  0  0  0
  128.0553  127.3410   76.9837 H   0  0  0  0  0  0  0  0  0  0  0  0
  127.5923  127.1071   74.5237 H   0  0  0  0  0  0  0  0  0  0  0  0
  129.0488  128.1421   74.9092 H   0  0  0  0  0  0  0  0  0  0  0  0
  129.2928  124.2919   72.2795 H   0  0  0  0  0  0  0  0  0  0  0  0
  129.0578  124.4705   69.8220 H   0  0  0  0  0  0  0  0  0  0  0  0
  130.1150  125.0180   67.8315 H   0  0  0  0  0  0  0  0  0  0  0  0
  128.6656  123.3624   65.8201 H   0  0  0  0  0  0  0  0  0  0  0  0
  129.6969  121.6568   64.3461 H   0  0  0  0  0  0  0  0  0  0  0  0
  133.1267  123.0280   61.3814 H   0  0  0  0  0  0  0  0  0  0  0  0
  133.7551  122.5144   63.0181 H   0  0  0  0  0  0  0  0  0  0  0  0
  134.7166  121.1838   61.1171 H   0  0  0  0  0  0  0  0  0  0  0  0
  133.8263  120.1975   62.3317 H   0  0  0  0  0  0  0  0  0  0  0  0
  130.9583  119.7767   60.1978 H   0  0  0  0  0  0  0  0  0  0  0  0
  131.6709  119.3951   61.8065 H   0  0  0  0  0  0  0  0  0  0  0  0
  130.7645  122.1459   60.7978 H   0  0  0  0  0  0  0  0  0  0  0  0
  129.9887  121.1133   62.0882 H   0  0  0  0  0  0  0  0  0  0  0  0
  132.4438  124.6302   62.8369 H   0  0  0  0  0  0  0  0  0  0  0  0
  131.4050  126.3344   64.3078 H   0  0  0  0  0  0  0  0  0  0  0  0
  1  2  1  0
  2  3  1  0
  3  4  2  0
  3  5  1  0
  5  6  1  0
  6  7  1  0
  7  8  2  0
  8  9  1  0
  9 10  1  0
 10 11  2  0
 11 12  1  0
 12 13  2  0
 13 14  1  0
 14 15  1  0
 15 16  1  0
 16 17  1  0
 17 18  1  0
 18 19  1  0
 13 20  1  0
 20 21  2  0
  9 22  2  0
 22 23  1  0
 23 24  1  0
 24 25  2  0
 25 26  1  0
 26 27  2  0
 27 28  1  0
 28 29  1  0
 29 30  1  0
 30 31  1  0
 31 32  1  0
 32 33  1  0
 27 34  1  0
 34 35  2  0
 23 36  2  0
 36 37  1  0
 37 38  3  0
 36  7  1  0
 21 10  1  0
 35 24  1  0
 19 14  1  0
 33 28  1  0
  1 39  1  0
  1 40  1  0
  1 41  1  0
  5 42  1  0
  5 43  1  0
 11 44  1  0
 12 45  1  0
 15 46  1  0
 15 47  1  0
 16 48  1  0
 16 49  1  0
 18 50  1  0
 18 51  1  0
 19 52  1  0
 19 53  1  0
 20 54  1  0
 21 55  1  0
 22 56  1  0
 25 57  1  0
 26 58  1  0
 29 59  1  0
 29 60  1  0
 30 61  1  0
 30 62  1  0
 32 63  1  0
 32 64  1  0
 33 65  1  0
 33 66  1  0
 34 67  1  0
 35 68  1  0
M  END
>  <Binding energies>  (1) 
[-9.05]

>  <Ligand effiencies>  (1) 
[-0.23815789473684212]

>  <Interactions>  (1) 
["V-B:ARG:545:CD:9895, V-B:GLU:543:CB:9878, V-B:HIS:456:CE1:9040, V-B:GLU:543:CD:9880, V-B:ARG:545:CZ:9898, V-B:ALA:541:CB:9864, V-A:HIS:456:CE1:4069, V-B:GLU:543:CG:9879, V-A:LEU:475:CD1:4258, V-A:TYR:484:CE1:4345, V-B:TYR:539:CD2:9846, V-A:ILE:369:CD1:3239, V-A:ILE:369:CG2:3237, H-B:GLY:454:N:9021, H-B:TYR:484:OH:9319, V-A:HIS:456:CD2:4068, H-A:LYS:547:NZ:4951, V-B:GLU:543:CA:9876, V-A:TRP:381:CH2:3372, H-B:ILE:455:N:9026, H-B:ARG:545:NH2:9900"]

$$$$
2d_Grossjean_2025
     RDKit          3D

 36 37  0  0  0  0  0  0  0  0999 V2000
  130.7070  127.5320   58.1060 C   0  0  0  0  0  0  0  0  0  0  0  0
  129.6480  128.2340   57.2770 C   0  0  0  0  0  0  0  0  0  0  0  0
  128.3630  128.4530   57.7680 C   0  0  0  0  0  0  0  0  0  0  0  0
  127.4210  129.1110   56.9640 C   0  0  0  0  0  0  0  0  0  0  0  0
  126.0080  129.3540   57.5280 C   0  0  0  0  0  0  0  0  0  0  0  0
  125.0900  128.9690   56.6400 F   0  0  0  0  0  0  0  0  0  0  0  0
  125.8390  128.6580   58.6540 F   0  0  0  0  0  0  0  0  0  0  0  0
  125.7780  130.6370   57.8120 F   0  0  0  0  0  0  0  0  0  0  0  0
  127.8100  129.5280   55.6650 C   0  0  0  0  0  0  0  0  0  0  0  0
  126.8780  130.2600   54.8040 C   0  0  0  0  0  0  0  0  0  0  0  0
  126.1410  130.8400   54.1260 N   0  0  0  0  0  0  0  0  0  0  0  0
  129.1300  129.2400   55.2420 C   0  0  0  0  0  0  0  0  0  0  0  0
  129.7740  129.6630   53.6340 S   0  0  0  0  0  0  0  0  0  0  0  0
  130.4330  131.3610   53.6950 C   0  0  0  0  0  0  0  0  0  0  0  0
  130.9230  131.7630   55.0900 C   0  0  0  0  0  0  0  0  0  0  0  0
  130.7850  132.9300   55.4590 O   0  0  0  0  0  0  0  0  0  0  0  0
  131.5090  130.7830   55.8080 N   0  0  0  0  0  0  0  0  0  0  0  0
  132.0500  130.8340   57.1070 C   0  0  0  0  0  0  0  0  0  0  0  0
  131.1470  131.1140   58.1360 C   0  0  0  0  0  0  0  0  0  0  0  0
  131.5880  131.1920   59.4540 C   0  0  0  0  0  0  0  0  0  0  0  0
  132.9370  130.9990   59.7430 C   0  0  0  0  0  0  0  0  0  0  0  0
  133.8480  130.7330   58.7240 C   0  0  0  0  0  0  0  0  0  0  0  0
  133.4110  130.6530   57.4060 C   0  0  0  0  0  0  0  0  0  0  0  0
  130.0340  128.6210   56.0400 N   0  0  0  0  0  0  0  0  0  0  0  0
  130.4906  127.6755   59.1749 H   0  0  0  0  0  0  0  0  0  0  0  0
  130.7029  126.4572   57.8721 H   0  0  0  0  0  0  0  0  0  0  0  0
  131.6954  127.9544   57.8721 H   0  0  0  0  0  0  0  0  0  0  0  0
  128.0895  128.1128   58.7777 H   0  0  0  0  0  0  0  0  0  0  0  0
  131.2761  131.4353   52.9924 H   0  0  0  0  0  0  0  0  0  0  0  0
  129.6126  132.0423   53.4253 H   0  0  0  0  0  0  0  0  0  0  0  0
  131.6320  129.8970   55.3400 H   0  0  0  0  0  0  0  0  0  0  0  0
  130.0837  131.2734   57.9036 H   0  0  0  0  0  0  0  0  0  0  0  0
  130.8745  131.4051   60.2636 H   0  0  0  0  0  0  0  0  0  0  0  0
  133.2854  131.0572   60.7847 H   0  0  0  0  0  0  0  0  0  0  0  0
  134.9121  130.5863   58.9612 H   0  0  0  0  0  0  0  0  0  0  0  0
  134.1298  130.4483   56.5989 H   0  0  0  0  0  0  0  0  0  0  0  0
  1  2  1  0
  2  3  2  0
  3  4  1  0
  4  5  1  0
  5  6  1  0
  5  7  1  0
  5  8  1  0
  4  9  2  0
  9 10  1  0
 10 11  3  0
  9 12  1  0
 12 13  1  0
 13 14  1  0
 14 15  1  0
 15 16  2  0
 15 17  1  0
 17 18  1  0
 18 19  2  0
 19 20  1  0
 20 21  2  0
 21 22  1  0
 22 23  2  0
 12 24  2  0
 24  2  1  0
 23 18  1  0
  1 25  1  0
  1 26  1  0
  1 27  1  0
  3 28  1  0
 14 29  1  0
 14 30  1  0
 17 31  1  0
 19 32  1  0
 20 33  1  0
 21 34  1  0
 22 35  1  0
 23 36  1  0
M  END
>  <Binding energies>  (1) 
[-6.0]

>  <Ligand effiencies>  (1) 
[-0.24]

>  <Interactions>  (1) 
["V-A:PRO:540:CB:4885, V-A:LEU:363:CA:3185, V-A:ASN:362:C:3172, V-A:ASP:366:CG:3213, V-A:PRO:540:CA:4883, V-A:LEU:363:CB:3187, V-A:TYR:539:CE2:4876, V-A:TYR:539:CE1:4875, V-A:TYR:539:CZ:4877, V-A:ASP:366:CB:3212, V-A:TYR:531:CE2:4793, V-A:TYR:531:CZ:4794, V-B:ASP:366:CG:8184, H-A:TYR:539:N:4870, V-A:LEU:363:CD1:3189, V-B:TYR:531:CZ:9766, H-A:TYR:531:OH:4795, H-B:TYR:531:OH:9767, V-B:ASP:366:CB:8183, H-A:TYR:539:OH:4878, V-B:TYR:531:CE1:9764, V-A:MET:535:CB:4832"]

$$$$
2e_Grossjean_2025
     RDKit          3D

 38 39  0  0  0  0  0  0  0  0999 V2000
  127.6160  122.7380   54.6140 C   0  0  0  0  0  0  0  0  0  0  0  0
  126.9270  122.9930   55.9410 C   0  0  0  0  0  0  0  0  0  0  0  0
  125.5440  122.8540   56.0860 C   0  0  0  0  0  0  0  0  0  0  0  0
  124.9810  123.0940   57.3410 C   0  0  0  0  0  0  0  0  0  0  0  0
  125.8030  123.4630   58.4080 C   0  0  0  0  0  0  0  0  0  0  0  0
  127.1800  123.5920   58.1910 C   0  0  0  0  0  0  0  0  0  0  0  0
  127.9660  123.9230   59.3080 N   0  0  0  0  0  0  0  0  0  0  0  0
  127.9480  123.3580   60.5360 C   0  0  0  0  0  0  0  0  0  0  0  0
  127.2660  122.3840   60.8560 O   0  0  0  0  0  0  0  0  0  0  0  0
  128.8230  124.0380   61.5940 C   0  0  0  0  0  0  0  0  0  0  0  0
  129.4130  122.8600   62.8520 S   0  0  0  0  0  0  0  0  0  0  0  0
  131.0700  122.4330   62.3640 C   0  0  0  0  0  0  0  0  0  0  0  0
  132.0010  123.3790   62.6410 N   0  0  0  0  0  0  0  0  0  0  0  0
  133.2800  123.1550   62.2630 C   0  0  0  0  0  0  0  0  0  0  0  0
  134.2700  124.2520   62.6030 C   0  0  0  0  0  0  0  0  0  0  0  0
  133.6760  121.9960   61.5960 C   0  0  0  0  0  0  0  0  0  0  0  0
  132.7230  121.0130   61.2950 C   0  0  0  0  0  0  0  0  0  0  0  0
  133.1720  119.7480   60.5390 C   0  0  0  0  0  0  0  0  0  0  0  0
  132.6180  119.7180   59.3260 F   0  0  0  0  0  0  0  0  0  0  0  0
  134.4990  119.7420   60.4090 F   0  0  0  0  0  0  0  0  0  0  0  0
  132.8240  118.6220   61.1670 F   0  0  0  0  0  0  0  0  0  0  0  0
  131.3790  121.2300   61.6890 C   0  0  0  0  0  0  0  0  0  0  0  0
  130.3300  120.2540   61.3770 C   0  0  0  0  0  0  0  0  0  0  0  0
  129.5020  119.4840   61.1300 N   0  0  0  0  0  0  0  0  0  0  0  0
  127.7390  123.3520   56.9690 N   0  0  0  0  0  0  0  0  0  0  0  0
  128.6335  122.3614   54.7955 H   0  0  0  0  0  0  0  0  0  0  0  0
  127.0454  121.9915   54.0421 H   0  0  0  0  0  0  0  0  0  0  0  0
  127.6688  123.6761   54.0421 H   0  0  0  0  0  0  0  0  0  0  0  0
  124.9144  122.5627   55.2324 H   0  0  0  0  0  0  0  0  0  0  0  0
  123.8956  122.9930   57.4885 H   0  0  0  0  0  0  0  0  0  0  0  0
  125.3749  123.6495   59.4040 H   0  0  0  0  0  0  0  0  0  0  0  0
  128.6490  124.6480   59.1490 H   0  0  0  0  0  0  0  0  0  0  0  0
  129.6930  124.4920   61.0969 H   0  0  0  0  0  0  0  0  0  0  0  0
  128.2124  124.7993   62.1015 H   0  0  0  0  0  0  0  0  0  0  0  0
  134.3536  124.3446   63.6959 H   0  0  0  0  0  0  0  0  0  0  0  0
  135.2541  124.0019   62.1799 H   0  0  0  0  0  0  0  0  0  0  0  0
  133.9205  125.2053   62.1799 H   0  0  0  0  0  0  0  0  0  0  0  0
  134.7282  121.8543   61.3083 H   0  0  0  0  0  0  0  0  0  0  0  0
  1  2  1  0
  2  3  2  0
  3  4  1  0
  4  5  2  0
  5  6  1  0
  6  7  1  0
  7  8  1  0
  8  9  2  0
  8 10  1  0
 10 11  1  0
 11 12  1  0
 12 13  2  0
 13 14  1  0
 14 15  1  0
 14 16  2  0
 16 17  1  0
 17 18  1  0
 18 19  1  0
 18 20  1  0
 18 21  1  0
 17 22  2  0
 22 23  1  0
 23 24  3  0
  6 25  2  0
 25  2  1  0
 22 12  1  0
  1 26  1  0
  1 27  1  0
  1 28  1  0
  3 29  1  0
  4 30  1  0
  5 31  1  0
  7 32  1  0
 10 33  1  0
 10 34  1  0
 15 35  1  0
 15 36  1  0
 15 37  1  0
 16 38  1  0
M  END
>  <Binding energies>  (1) 
[-6.61]

>  <Ligand effiencies>  (1) 
[-0.25423076923076926]

>  <Interactions>  (1) 
["V-A:ARG:545:CZ:4926, V-B:TYR:539:CZ:9849, V-B:ALA:541:CB:9864, V-B:TYR:539:CE1:9847, V-A:LEU:475:CD1:4258, V-B:PRO:540:N:9856, V-B:TYR:539:CD2:9846, V-B:PRO:540:CA:9855, V-B:TYR:539:CE2:9848, V-A:ILE:369:CD1:3239, V-A:ILE:369:CG2:3237, H-B:ALA:541:N:9863, V-B:PRO:540:CD:9859, V-B:PRO:540:CB:9857, V-B:LEU:363:CD1:8160, V-B:ILE:538:CB:9834, V-B:ILE:538:C:9830, V-A:TRP:381:CZ2:3370, V-B:ILE:538:CA:9832, V-B:TYR:539:CD1:9845, V-A:TRP:381:CH2:3372, V-B:ILE:538:CG2:9835, V-A:GLY:453:C:4042, V-A:GLY:453:CA:4044, V-A:ILE:369:CB:3236, V-A:TRP:381:CZ3:3371, V-A:SER:385:C:3405, V-A:SER:385:CA:3407, V-A:ILE:369:CG1:3238"]

$$$$
2f_Grossjean_2025
     RDKit          3D

 35 36  0  0  0  0  0  0  0  0999 V2000
  127.8580  130.5360   64.7040 C   0  0  0  0  0  0  0  0  0  0  0  0
  128.3340  129.2040   65.2530 C   0  0  0  0  0  0  0  0  0  0  0  0
  128.5780  128.1160   64.4190 C   0  0  0  0  0  0  0  0  0  0  0  0
  129.0100  126.9020   64.9770 C   0  0  0  0  0  0  0  0  0  0  0  0
  129.2630  125.7070   64.0390 C   0  0  0  0  0  0  0  0  0  0  0  0
  128.7730  124.5880   64.5780 F   0  0  0  0  0  0  0  0  0  0  0  0
  128.6680  125.9160   62.8640 F   0  0  0  0  0  0  0  0  0  0  0  0
  130.5600  125.5010   63.8020 F   0  0  0  0  0  0  0  0  0  0  0  0
  129.1900  126.8270   66.3820 C   0  0  0  0  0  0  0  0  0  0  0  0
  129.5830  125.5670   67.0170 C   0  0  0  0  0  0  0  0  0  0  0  0
  129.8950  124.5710   67.5180 N   0  0  0  0  0  0  0  0  0  0  0  0
  128.9420  127.9910   67.1480 C   0  0  0  0  0  0  0  0  0  0  0  0
  129.1270  128.0810   68.9170 S   0  0  0  0  0  0  0  0  0  0  0  0
  127.9590  126.8980   69.6700 C   0  0  0  0  0  0  0  0  0  0  0  0
  128.5180  126.0940   70.8520 C   0  0  0  0  0  0  0  0  0  0  0  0
  128.4620  126.5420   71.9980 O   0  0  0  0  0  0  0  0  0  0  0  0
  129.0680  124.9080   70.5140 N   0  0  0  0  0  0  0  0  0  0  0  0
  129.6560  123.9280   71.3350 C   0  0  0  0  0  0  0  0  0  0  0  0
  130.7570  124.1300   72.1870 C   0  0  0  0  0  0  0  0  0  0  0  0
  131.2410  123.0690   72.9550 C   0  0  0  0  0  0  0  0  0  0  0  0
  130.6080  121.8290   72.8550 C   0  0  0  0  0  0  0  0  0  0  0  0
  129.5400  121.6100   72.0470 N   0  0  0  0  0  0  0  0  0  0  0  0
  129.0810  122.6520   71.3070 C   0  0  0  0  0  0  0  0  0  0  0  0
  128.5040  129.1480   66.5940 N   0  0  0  0  0  0  0  0  0  0  0  0
  127.6167  131.2112   65.5382 H   0  0  0  0  0  0  0  0  0  0  0  0
  128.6519  130.9834   64.0879 H   0  0  0  0  0  0  0  0  0  0  0  0
  126.9603  130.3790   64.0879 H   0  0  0  0  0  0  0  0  0  0  0  0
  128.4336  128.2067   63.3323 H   0  0  0  0  0  0  0  0  0  0  0  0
  127.0840  127.4622   70.0251 H   0  0  0  0  0  0  0  0  0  0  0  0
  127.7186  126.1641   68.8867 H   0  0  0  0  0  0  0  0  0  0  0  0
  129.0970  124.6950   69.5270 H   0  0  0  0  0  0  0  0  0  0  0  0
  131.2344  125.1191   72.2479 H   0  0  0  0  0  0  0  0  0  0  0  0
  132.1027  123.2074   73.6245 H   0  0  0  0  0  0  0  0  0  0  0  0
  130.9917  120.9926   73.4576 H   0  0  0  0  0  0  0  0  0  0  0  0
  128.2131  122.4849   70.6522 H   0  0  0  0  0  0  0  0  0  0  0  0
  1  2  1  0
  2  3  2  0
  3  4  1  0
  4  5  1  0
  5  6  1  0
  5  7  1  0
  5  8  1  0
  4  9  2  0
  9 10  1  0
 10 11  3  0
  9 12  1  0
 12 13  1  0
 13 14  1  0
 14 15  1  0
 15 16  2  0
 15 17  1  0
 17 18  1  0
 18 19  2  0
 19 20  1  0
 20 21  2  0
 21 22  1  0
 22 23  2  0
 12 24  2  0
 24  2  1  0
 23 18  1  0
  1 25  1  0
  1 26  1  0
  1 27  1  0
  3 28  1  0
 14 29  1  0
 14 30  1  0
 17 31  1  0
 19 32  1  0
 20 33  1  0
 21 34  1  0
 23 35  1  0
M  END
>  <Binding energies>  (1) 
[-5.93]

>  <Ligand effiencies>  (1) 
[-0.2372]

>  <Interactions>  (1) 
["V-B:GLU:543:C:9874, V-B:GLU:543:CB:9878, V-B:HIS:456:CE1:9040, V-B:GLU:543:CD:9880, V-A:GLU:543:CD:4908, H-A:TYR:484:OH:4348, V-A:HIS:456:CE1:4069, V-B:GLU:543:CG:9879, V-A:TYR:484:CE1:4345, V-A:HIS:456:CG:4066, H-A:HIS:456:NE2:4070, V-A:HIS:456:CD2:4068, V-A:HIS:456:CB:4065, V-A:ASP:473:CB:4239, H-B:LYS:547:NZ:9923, H-B:HIS:456:NE2:9041, V-B:GLU:543:CA:9876, V-A:TYR:484:CD2:4344, V-A:GLU:543:CB:4906, V-A:TYR:484:CD1:4343, V-A:TYR:484:CG:4342, V-A:TYR:484:CB:4341, V-B:LYS:547:CE:9922, V-B:GLY:544:CA:9886, H-B:GLU:543:O:9875"]

$$$$
2g_Grossjean_2025
     RDKit          3D

 39 40  0  0  0  0  0  0  0  0999 V2000
  133.9850  124.3070   62.7920 C   0  0  0  0  0  0  0  0  0  0  0  0
  133.0340  123.1840   62.4270 C   0  0  0  0  0  0  0  0  0  0  0  0
  133.4780  122.0320   61.7810 C   0  0  0  0  0  0  0  0  0  0  0  0
  132.5570  121.0240   61.4580 C   0  0  0  0  0  0  0  0  0  0  0  0
  133.0650  119.7610   60.7350 C   0  0  0  0  0  0  0  0  0  0  0  0
  132.5980  119.7240   59.4860 F   0  0  0  0  0  0  0  0  0  0  0  0
  134.3980  119.7680   60.6980 F   0  0  0  0  0  0  0  0  0  0  0  0
  132.6840  118.6330   61.3370 F   0  0  0  0  0  0  0  0  0  0  0  0
  131.1950  121.2100   61.8100 C   0  0  0  0  0  0  0  0  0  0  0  0
  130.1840  120.2150   61.4450 C   0  0  0  0  0  0  0  0  0  0  0  0
  129.3860  119.4280   61.1560 N   0  0  0  0  0  0  0  0  0  0  0  0
  130.8410  122.4000   62.4920 C   0  0  0  0  0  0  0  0  0  0  0  0
  129.1880  122.7820   63.0280 S   0  0  0  0  0  0  0  0  0  0  0  0
  128.4460  123.8820   61.7750 C   0  0  0  0  0  0  0  0  0  0  0  0
  127.4740  123.1910   60.8090 C   0  0  0  0  0  0  0  0  0  0  0  0
  127.6540  122.0290   60.4390 O   0  0  0  0  0  0  0  0  0  0  0  0
  126.4330  123.9400   60.4020 N   0  0  0  0  0  0  0  0  0  0  0  0
  125.3740  123.5000   59.4920 C   0  0  0  0  0  0  0  0  0  0  0  0
  125.8110  123.3630   58.0380 C   0  0  0  0  0  0  0  0  0  0  0  0
  125.0100  123.8850   57.0180 C   0  0  0  0  0  0  0  0  0  0  0  0
  125.4260  123.7940   55.6920 C   0  0  0  0  0  0  0  0  0  0  0  0
  126.6440  123.1910   55.3910 C   0  0  0  0  0  0  0  0  0  0  0  0
  127.4530  122.6800   56.4040 C   0  0  0  0  0  0  0  0  0  0  0  0
  127.0390  122.7710   57.7300 C   0  0  0  0  0  0  0  0  0  0  0  0
  131.7410  123.3740   62.7760 N   0  0  0  0  0  0  0  0  0  0  0  0
  134.0536  124.3881   63.8869 H   0  0  0  0  0  0  0  0  0  0  0  0
  134.9811  124.0934   62.3770 H   0  0  0  0  0  0  0  0  0  0  0  0
  133.6103  125.2543   62.3770 H   0  0  0  0  0  0  0  0  0  0  0  0
  134.5416  121.9138   61.5264 H   0  0  0  0  0  0  0  0  0  0  0  0
  127.8987  124.6789   62.2998 H   0  0  0  0  0  0  0  0  0  0  0  0
  129.2776  124.2592   61.1616 H   0  0  0  0  0  0  0  0  0  0  0  0
  126.3410  124.8760   60.7700 H   0  0  0  0  0  0  0  0  0  0  0  0
  125.0098  122.5206   59.8357 H   0  0  0  0  0  0  0  0  0  0  0  0
  124.5968  124.2781   59.5146 H   0  0  0  0  0  0  0  0  0  0  0  0
  124.0520  124.3672   57.2625 H   0  0  0  0  0  0  0  0  0  0  0  0
  124.7949  124.1968   54.8861 H   0  0  0  0  0  0  0  0  0  0  0  0
  126.9710  123.1172   54.3433 H   0  0  0  0  0  0  0  0  0  0  0  0
  128.4147  122.2067   56.1569 H   0  0  0  0  0  0  0  0  0  0  0  0
  127.6777  122.3774   58.5345 H   0  0  0  0  0  0  0  0  0  0  0  0
  1  2  1  0
  2  3  2  0
  3  4  1  0
  4  5  1  0
  5  6  1  0
  5  7  1  0
  5  8  1  0
  4  9  2  0
  9 10  1  0
 10 11  3  0
  9 12  1  0
 12 13  1  0
 13 14  1  0
 14 15  1  0
 15 16  2  0
 15 17  1  0
 17 18  1  0
 18 19  1  0
 19 20  2  0
 20 21  1  0
 21 22  2  0
 22 23  1  0
 23 24  2  0
 12 25  2  0
 25  2  1  0
 24 19  1  0
  1 26  1  0
  1 27  1  0
  1 28  1  0
  3 29  1  0
 14 30  1  0
 14 31  1  0
 17 32  1  0
 18 33  1  0
 18 34  1  0
 20 35  1  0
 21 36  1  0
 22 37  1  0
 23 38  1  0
 24 39  1  0
M  END
>  <Binding energies>  (1) 
[-6.98]

>  <Ligand effiencies>  (1) 
[-0.2684615384615385]

>  <Interactions>  (1) 
["V-B:GLU:543:CD:9880, V-A:ARG:545:CZ:4926, H-B:GLU:543:OE2:9882, V-B:TYR:539:CZ:9849, V-B:ALA:541:CB:9864, V-B:TYR:539:CE1:9847, V-B:GLU:543:CG:9879, V-A:LEU:475:CD1:4258, V-B:PRO:540:N:9856, V-B:TYR:539:CD2:9846, V-B:PRO:540:CA:9855, V-B:TYR:539:C:9839, V-B:TYR:539:CE2:9848, V-A:ILE:369:CD1:3239, V-A:ILE:369:CG2:3237, H-B:ALA:541:N:9863, V-B:PRO:540:CB:9857, V-B:LEU:363:CD1:8160, V-B:ILE:538:CB:9834, V-B:TYR:539:CG:9844, V-A:TRP:381:CZ2:3370, V-B:ILE:538:CA:9832, V-B:TYR:539:CD1:9845, V-A:TRP:381:CH2:3372, V-B:ILE:538:CG2:9835, V-A:GLY:453:C:4042, V-A:GLY:453:CA:4044, V-A:TRP:381:CZ3:3371, V-A:SER:385:C:3405, V-A:SER:385:CA:3407, V-A:ILE:369:CG1:3238"]

$$$$
2h_Grossjean_2025
     RDKit          3D

 51 52  0  0  0  0  0  0  0  0999 V2000
  132.7650  126.6310   74.2970 C   0  0  0  0  0  0  0  0  0  0  0  0
  131.3730  126.8580   74.4910 O   0  0  0  0  0  0  0  0  0  0  0  0
  130.5100  126.7400   73.4160 C   0  0  0  0  0  0  0  0  0  0  0  0
  130.0510  127.8280   72.6570 C   0  0  0  0  0  0  0  0  0  0  0  0
  129.1880  127.6310   71.5820 C   0  0  0  0  0  0  0  0  0  0  0  0
  128.7650  126.3450   71.2400 C   0  0  0  0  0  0  0  0  0  0  0  0
  127.8350  126.1510   70.0440 C   0  0  0  0  0  0  0  0  0  0  0  0
  128.5310  126.1160   68.7580 N   0  0  0  0  0  0  0  0  0  0  0  0
  129.3430  127.0840   68.2950 C   0  0  0  0  0  0  0  0  0  0  0  0
  129.5220  128.1530   68.8820 O   0  0  0  0  0  0  0  0  0  0  0  0
  130.0570  126.7720   66.9730 C   0  0  0  0  0  0  0  0  0  0  0  0
  130.3590  125.0010   66.6580 S   0  0  0  0  0  0  0  0  0  0  0  0
  130.6880  124.8370   64.9160 C   0  0  0  0  0  0  0  0  0  0  0  0
  129.5800  124.9310   64.1410 N   0  0  0  0  0  0  0  0  0  0  0  0
  129.7130  124.8020   62.8020 C   0  0  0  0  0  0  0  0  0  0  0  0
  128.4310  124.9100   61.9980 C   0  0  0  0  0  0  0  0  0  0  0  0
  130.9440  124.5820   62.1860 C   0  0  0  0  0  0  0  0  0  0  0  0
  132.1040  124.5030   62.9710 C   0  0  0  0  0  0  0  0  0  0  0  0
  133.4570  124.2690   62.2710 C   0  0  0  0  0  0  0  0  0  0  0  0
  134.3560  125.1490   62.7130 F   0  0  0  0  0  0  0  0  0  0  0  0
  133.9490  123.0480   62.4930 F   0  0  0  0  0  0  0  0  0  0  0  0
  133.3220  124.4140   60.9520 F   0  0  0  0  0  0  0  0  0  0  0  0
  131.9820  124.6440   64.3770 C   0  0  0  0  0  0  0  0  0  0  0  0
  133.1700  124.6280   65.2340 C   0  0  0  0  0  0  0  0  0  0  0  0
  134.1100  124.6190   65.9090 N   0  0  0  0  0  0  0  0  0  0  0  0
  129.1970  125.2500   72.0040 C   0  0  0  0  0  0  0  0  0  0  0  0
  128.7820  123.9810   71.6760 O   0  0  0  0  0  0  0  0  0  0  0  0
  129.7130  123.2440   70.8930 C   0  0  0  0  0  0  0  0  0  0  0  0
  130.0830  125.4500   73.0770 C   0  0  0  0  0  0  0  0  0  0  0  0
  130.5230  124.3780   73.8150 O   0  0  0  0  0  0  0  0  0  0  0  0
  131.6920  123.7570   73.2990 C   0  0  0  0  0  0  0  0  0  0  0  0
  133.2630  126.5498   75.2745 H   0  0  0  0  0  0  0  0  0  0  0  0
  132.9092  125.6975   73.7333 H   0  0  0  0  0  0  0  0  0  0  0  0
  133.1983  127.4703   73.7333 H   0  0  0  0  0  0  0  0  0  0  0  0
  130.3764  128.8468   72.9141 H   0  0  0  0  0  0  0  0  0  0  0  0
  128.8370  128.4946   70.9981 H   0  0  0  0  0  0  0  0  0  0  0  0
  127.2964  125.2007   70.1734 H   0  0  0  0  0  0  0  0  0  0  0  0
  127.1575  127.0173   70.0196 H   0  0  0  0  0  0  0  0  0  0  0  0
  128.4610  125.2540   68.2370 H   0  0  0  0  0  0  0  0  0  0  0  0
  129.4398  127.1642   66.1512 H   0  0  0  0  0  0  0  0  0  0  0  0
  131.0478  127.2452   67.0401 H   0  0  0  0  0  0  0  0  0  0  0  0
  127.5735  124.9822   62.6832 H   0  0  0  0  0  0  0  0  0  0  0  0
  128.4704  125.8080   61.3639 H   0  0  0  0  0  0  0  0  0  0  0  0
  128.3196  124.0181   61.3639 H   0  0  0  0  0  0  0  0  0  0  0  0
  131.0053  124.4712   61.0933 H   0  0  0  0  0  0  0  0  0  0  0  0
  130.4006  122.6996   71.5569 H   0  0  0  0  0  0  0  0  0  0  0  0
  129.1717  122.5270   70.2582 H   0  0  0  0  0  0  0  0  0  0  0  0
  130.2866  123.9354   70.2582 H   0  0  0  0  0  0  0  0  0  0  0  0
  132.3263  123.4200   74.1321 H   0  0  0  0  0  0  0  0  0  0  0  0
  131.4060  122.8919   72.6827 H   0  0  0  0  0  0  0  0  0  0  0  0
  132.2487  124.4783   72.6827 H   0  0  0  0  0  0  0  0  0  0  0  0
  1  2  1  0
  2  3  1  0
  3  4  2  0
  4  5  1  0
  5  6  2  0
  6  7  1  0
  7  8  1  0
  8  9  1  0
  9 10  2  0
  9 11  1  0
 11 12  1  0
 12 13  1  0
 13 14  2  0
 14 15  1  0
 15 16  1  0
 15 17  2  0
 17 18  1  0
 18 19  1  0
 19 20  1  0
 19 21  1  0
 19 22  1  0
 18 23  2  0
 23 24  1  0
 24 25  3  0
  6 26  1  0
 26 27  1  0
 27 28  1  0
 26 29  2  0
 29 30  1  0
 30 31  1  0
 29  3  1  0
 23 13  1  0
  1 32  1  0
  1 33  1  0
  1 34  1  0
  4 35  1  0
  5 36  1  0
  7 37  1  0
  7 38  1  0
  8 39  1  0
 11 40  1  0
 11 41  1  0
 16 42  1  0
 16 43  1  0
 16 44  1  0
 17 45  1  0
 28 46  1  0
 28 47  1  0
 28 48  1  0
 31 49  1  0
 31 50  1  0
 31 51  1  0
M  END
>  <Binding energies>  (1) 
[-6.74]

>  <Ligand effiencies>  (1) 
[-0.210625]

>  <Interactions>  (1) 
["V-B:GLU:543:C:9874, V-B:GLY:544:C:9884, V-B:HIS:456:CE1:9040, V-A:ASP:366:CG:3213, V-B:GLU:543:CD:9880, V-A:GLU:543:CD:4908, V-A:ARG:545:CZ:4926, H-A:TYR:484:OH:4348, V-A:HIS:456:CE1:4069, V-B:GLU:543:CG:9879, V-A:TYR:484:CE1:4345, V-A:GLY:454:CA:4049, V-A:TYR:484:CZ:4347, H-A:GLY:454:N:4050, V-A:ILE:369:CD1:3239, V-A:HIS:456:CG:4066, H-A:HIS:456:NE2:4070, V-A:HIS:456:CD2:4068, V-A:HIS:456:CB:4065, V-A:LYS:547:CD:4949, V-A:LYS:547:CE:4950, H-A:LYS:547:NZ:4951, H-B:LYS:547:NZ:9923, H-B:HIS:456:NE2:9041, V-A:TYR:484:CD2:4344, V-A:TYR:484:CD1:4343, V-A:TYR:484:CG:4342, V-A:GLY:453:C:4042, V-A:GLY:453:CA:4044, V-A:TYR:484:CE2:4346, H-B:GLU:543:O:9875"]

$$$$
2i_Grossjean_2025
     RDKit          3D

 32 33  0  0  0  0  0  0  0  0999 V2000
  128.6930  126.0680   65.6900 C   0  0  0  0  0  0  0  0  0  0  0  0
  129.8230  125.2410   65.1060 C   0  0  0  0  0  0  0  0  0  0  0  0
  131.1520  125.4740   65.4510 C   0  0  0  0  0  0  0  0  0  0  0  0
  132.1600  124.6800   64.8860 C   0  0  0  0  0  0  0  0  0  0  0  0
  133.6250  124.9520   65.2780 C   0  0  0  0  0  0  0  0  0  0  0  0
  133.7040  126.0720   65.9990 F   0  0  0  0  0  0  0  0  0  0  0  0
  134.1020  123.9380   66.0010 F   0  0  0  0  0  0  0  0  0  0  0  0
  134.4240  125.1000   64.2190 F   0  0  0  0  0  0  0  0  0  0  0  0
  131.7880  123.6580   63.9760 C   0  0  0  0  0  0  0  0  0  0  0  0
  132.8010  122.7980   63.3570 C   0  0  0  0  0  0  0  0  0  0  0  0
  133.6000  122.1180   62.8680 N   0  0  0  0  0  0  0  0  0  0  0  0
  130.4150  123.4920   63.6800 C   0  0  0  0  0  0  0  0  0  0  0  0
  129.8300  122.2460   62.5440 S   0  0  0  0  0  0  0  0  0  0  0  0
  129.7690  122.9800   60.8810 C   0  0  0  0  0  0  0  0  0  0  0  0
  128.4180  122.7580   60.1980 C   0  0  0  0  0  0  0  0  0  0  0  0
  127.4500  122.4180   60.8810 O   0  0  0  0  0  0  0  0  0  0  0  0
  128.4000  122.9330   58.8590 N   0  0  0  0  0  0  0  0  0  0  0  0
  127.3110  122.7760   58.0190 C   0  0  0  0  0  0  0  0  0  0  0  0
  126.0300  123.3430   58.0850 C   0  0  0  0  0  0  0  0  0  0  0  0
  125.3660  122.8360   56.9910 C   0  0  0  0  0  0  0  0  0  0  0  0
  126.2010  122.0190   56.3050 O   0  0  0  0  0  0  0  0  0  0  0  0
  127.4310  121.9970   56.9660 N   0  0  0  0  0  0  0  0  0  0  0  0
  129.4540  124.2710   64.2390 N   0  0  0  0  0  0  0  0  0  0  0  0
  128.7421  126.0321   66.7883 H   0  0  0  0  0  0  0  0  0  0  0  0
  128.7893  127.1105   65.3525 H   0  0  0  0  0  0  0  0  0  0  0  0
  127.7284  125.6610   65.3525 H   0  0  0  0  0  0  0  0  0  0  0  0
  131.4087  126.2742   66.1608 H   0  0  0  0  0  0  0  0  0  0  0  0
  129.9495  124.0618   60.9649 H   0  0  0  0  0  0  0  0  0  0  0  0
  130.5405  122.4905   60.2684 H   0  0  0  0  0  0  0  0  0  0  0  0
  129.2700  123.1730   58.4060 H   0  0  0  0  0  0  0  0  0  0  0  0
  125.6418  124.0389   58.8433 H   0  0  0  0  0  0  0  0  0  0  0  0
  124.3241  123.0586   56.7175 H   0  0  0  0  0  0  0  0  0  0  0  0
  1  2  1  0
  2  3  2  0
  3  4  1  0
  4  5  1  0
  5  6  1  0
  5  7  1  0
  5  8  1  0
  4  9  2  0
  9 10  1  0
 10 11  3  0
  9 12  1  0
 12 13  1  0
 13 14  1  0
 14 15  1  0
 15 16  2  0
 15 17  1  0
 17 18  1  0
 18 19  1  0
 19 20  2  0
 20 21  1  0
 21 22  1  0
 12 23  2  0
 23  2  1  0
 22 18  2  0
  1 24  1  0
  1 25  1  0
  1 26  1  0
  3 27  1  0
 14 28  1  0
 14 29  1  0
 17 30  1  0
 19 31  1  0
 20 32  1  0
M  END
>  <Binding energies>  (1) 
[-6.83]

>  <Ligand effiencies>  (1) 
[-0.28458333333333335]

>  <Interactions>  (1) 
["V-B:GLU:543:CB:9878, V-B:GLU:543:CD:9880, V-A:ARG:545:CZ:4926, V-A:ARG:545:CD:4923, V-A:HIS:456:CE1:4069, V-B:GLU:543:CG:9879, V-A:LEU:475:CD1:4258, V-A:GLY:454:CA:4049, V-B:PRO:540:N:9856, V-A:TYR:484:CZ:4347, H-A:GLY:454:N:4050, V-B:TYR:539:CD2:9846, V-B:PRO:540:CA:9855, V-B:TYR:539:C:9839, V-B:TYR:539:CE2:9848, H-B:ALA:541:N:9863, V-B:PRO:540:CD:9859, V-B:PRO:540:CB:9857, V-B:LEU:363:CD1:8160, V-A:GLY:453:C:4042, V-A:GLY:453:CA:4044, V-A:ARG:545:CG:4922, H-B:TYR:539:N:9842, H-B:TYR:539:OH:9850, V-A:GLY:454:C:4047"]

$$$$
2j_Grossjean_2025
     RDKit          3D

 32 33  0  0  0  0  0  0  0  0999 V2000
  130.8610  125.4050   66.0680 C   0  0  0  0  0  0  0  0  0  0  0  0
  129.5840  126.1980   66.2740 C   0  0  0  0  0  0  0  0  0  0  0  0
  129.1680  127.1610   65.3580 C   0  0  0  0  0  0  0  0  0  0  0  0
  127.9780  127.8660   65.5900 C   0  0  0  0  0  0  0  0  0  0  0  0
  127.5320  128.9270   64.5650 C   0  0  0  0  0  0  0  0  0  0  0  0
  126.2560  128.7300   64.2310 F   0  0  0  0  0  0  0  0  0  0  0  0
  127.6600  130.1480   65.0870 F   0  0  0  0  0  0  0  0  0  0  0  0
  128.2520  128.8940   63.4420 F   0  0  0  0  0  0  0  0  0  0  0  0
  127.2350  127.5720   66.7610 C   0  0  0  0  0  0  0  0  0  0  0  0
  125.9840  128.2790   67.0540 C   0  0  0  0  0  0  0  0  0  0  0  0
  124.9970  128.8360   67.2850 N   0  0  0  0  0  0  0  0  0  0  0  0
  127.7330  126.5790   67.6380 C   0  0  0  0  0  0  0  0  0  0  0  0
  126.8790  126.1260   69.1410 S   0  0  0  0  0  0  0  0  0  0  0  0
  127.8120  126.8000   70.5580 C   0  0  0  0  0  0  0  0  0  0  0  0
  128.3610  125.7450   71.5300 C   0  0  0  0  0  0  0  0  0  0  0  0
  128.2050  125.8680   72.7460 O   0  0  0  0  0  0  0  0  0  0  0  0
  129.0150  124.7190   70.9410 N   0  0  0  0  0  0  0  0  0  0  0  0
  129.6050  123.6360   71.5790 C   0  0  0  0  0  0  0  0  0  0  0  0
  129.1520  122.4040   71.6640 N   0  0  0  0  0  0  0  0  0  0  0  0
  129.9740  121.6300   72.3460 C   0  0  0  0  0  0  0  0  0  0  0  0
  131.1270  122.2360   72.8340 C   0  0  0  0  0  0  0  0  0  0  0  0
  131.1250  123.9110   72.3680 S   0  0  0  0  0  0  0  0  0  0  0  0
  128.8860  125.9060   67.3940 N   0  0  0  0  0  0  0  0  0  0  0  0
  131.2892  125.1391   67.0457 H   0  0  0  0  0  0  0  0  0  0  0  0
  130.6360  124.4875   65.5045 H   0  0  0  0  0  0  0  0  0  0  0  0
  131.5836  126.0135   65.5045 H   0  0  0  0  0  0  0  0  0  0  0  0
  129.7681  127.3671   64.4595 H   0  0  0  0  0  0  0  0  0  0  0  0
  128.6616  127.3774   70.1645 H   0  0  0  0  0  0  0  0  0  0  0  0
  127.1009  127.4105   71.1339 H   0  0  0  0  0  0  0  0  0  0  0  0
  129.0910  124.7300   69.9340 H   0  0  0  0  0  0  0  0  0  0  0  0
  129.7597  120.5651   72.5191 H   0  0  0  0  0  0  0  0  0  0  0  0
  131.9127  121.7365   73.4198 H   0  0  0  0  0  0  0  0  0  0  0  0
  1  2  1  0
  2  3  2  0
  3  4  1  0
  4  5  1  0
  5  6  1  0
  5  7  1  0
  5  8  1  0
  4  9  2  0
  9 10  1  0
 10 11  3  0
  9 12  1  0
 12 13  1  0
 13 14  1  0
 14 15  1  0
 15 16  2  0
 15 17  1  0
 17 18  1  0
 18 19  2  0
 19 20  1  0
 20 21  2  0
 21 22  1  0
 12 23  2  0
 23  2  1  0
 22 18  1  0
  1 24  1  0
  1 25  1  0
  1 26  1  0
  3 27  1  0
 14 28  1  0
 14 29  1  0
 17 30  1  0
 20 31  1  0
 21 32  1  0
M  END
>  <Binding energies>  (1) 
[-6.19]

>  <Ligand effiencies>  (1) 
[-0.2579166666666667]

>  <Interactions>  (1) 
["V-B:GLU:543:C:9874, V-B:GLU:543:CB:9878, V-B:GLY:544:C:9884, V-B:HIS:456:CE1:9040, V-B:GLU:543:CD:9880, V-B:ARG:545:CG:9894, V-A:GLU:543:CD:4908, V-B:ARG:545:CZ:9898, V-A:HIS:456:CE1:4069, H-B:TYR:484:OH:9319, V-A:HIS:456:CG:4066, V-A:HIS:456:CD2:4068, V-A:HIS:456:CB:4065, V-A:ASP:473:CB:4239, H-B:LYS:547:NZ:9923, V-A:TYR:484:CD2:4344, V-A:GLU:543:CB:4906, V-A:TYR:484:CD1:4343, V-A:TYR:484:CG:4342, V-A:TYR:484:CB:4341, H-B:ARG:545:NE:9896, V-A:TYR:484:CE2:4346, H-B:GLU:543:O:9875, H-B:ARG:545:N:9892"]

$$$$
2k_Grossjean_2025
     RDKit          3D

 50 50  0  0  0  0  0  0  0  0999 V2000
  127.2650  122.4320   57.5500 C   0  0  0  0  0  0  0  0  0  0  0  0
  126.8070  122.0310   56.2680 O   0  0  0  0  0  0  0  0  0  0  0  0
  126.4670  123.1220   55.4210 C   0  0  0  0  0  0  0  0  0  0  0  0
  127.6510  123.4530   54.5040 C   0  0  0  0  0  0  0  0  0  0  0  0
  128.0800  124.7820   54.7630 O   0  0  0  0  0  0  0  0  0  0  0  0
  129.0070  124.8980   55.8370 C   0  0  0  0  0  0  0  0  0  0  0  0
  129.8760  126.1380   55.5950 C   0  0  0  0  0  0  0  0  0  0  0  0
  131.2350  125.7500   55.7310 O   0  0  0  0  0  0  0  0  0  0  0  0
  131.8530  126.1340   56.9490 C   0  0  0  0  0  0  0  0  0  0  0  0
  131.4140  125.1620   58.0600 C   0  0  0  0  0  0  0  0  0  0  0  0
  132.5240  124.7290   58.9130 N   0  0  0  0  0  0  0  0  0  0  0  0
  133.5430  123.9360   58.5290 C   0  0  0  0  0  0  0  0  0  0  0  0
  133.6690  123.5020   57.3820 O   0  0  0  0  0  0  0  0  0  0  0  0
  134.5540  123.5720   59.6260 C   0  0  0  0  0  0  0  0  0  0  0  0
  133.8680  123.4570   61.3150 S   0  0  0  0  0  0  0  0  0  0  0  0
  132.1840  122.8640   61.2340 C   0  0  0  0  0  0  0  0  0  0  0  0
  131.2230  123.8220   61.1950 N   0  0  0  0  0  0  0  0  0  0  0  0
  129.9260  123.4450   61.1370 C   0  0  0  0  0  0  0  0  0  0  0  0
  128.9140  124.5730   61.1100 C   0  0  0  0  0  0  0  0  0  0  0  0
  129.5330  122.1100   61.1030 C   0  0  0  0  0  0  0  0  0  0  0  0
  130.5090  121.1030   61.1330 C   0  0  0  0  0  0  0  0  0  0  0  0
  130.0570  119.6300   61.0880 C   0  0  0  0  0  0  0  0  0  0  0  0
  130.4210  119.0110   59.9640 F   0  0  0  0  0  0  0  0  0  0  0  0
  130.5920  118.9570   62.1080 F   0  0  0  0  0  0  0  0  0  0  0  0
  128.7280  119.5590   61.1730 F   0  0  0  0  0  0  0  0  0  0  0  0
  131.8740  121.4830   61.2020 C   0  0  0  0  0  0  0  0  0  0  0  0
  132.9350  120.4730   61.2390 C   0  0  0  0  0  0  0  0  0  0  0  0
  133.7730  119.6740   61.2680 N   0  0  0  0  0  0  0  0  0  0  0  0
  126.6785  121.9185   58.3261 H   0  0  0  0  0  0  0  0  0  0  0  0
  128.3274  122.1684   57.6588 H   0  0  0  0  0  0  0  0  0  0  0  0
  127.1441  123.5199   57.6588 H   0  0  0  0  0  0  0  0  0  0  0  0
  125.5945  122.8511   54.8083 H   0  0  0  0  0  0  0  0  0  0  0  0
  126.2269  124.0008   56.0375 H   0  0  0  0  0  0  0  0  0  0  0  0
  128.4770  122.7539   54.7015 H   0  0  0  0  0  0  0  0  0  0  0  0
  127.3431  123.3606   53.4520 H   0  0  0  0  0  0  0  0  0  0  0  0
  128.4632  125.0052   56.7871 H   0  0  0  0  0  0  0  0  0  0  0  0
  129.6383  123.9987   55.8900 H   0  0  0  0  0  0  0  0  0  0  0  0
  129.6979  126.5276   54.5819 H   0  0  0  0  0  0  0  0  0  0  0  0
  129.6280  126.9278   56.3194 H   0  0  0  0  0  0  0  0  0  0  0  0
  132.9465  126.0960   56.8361 H   0  0  0  0  0  0  0  0  0  0  0  0
  131.5535  127.1594   57.2115 H   0  0  0  0  0  0  0  0  0  0  0  0
  130.6638  125.6640   58.6887 H   0  0  0  0  0  0  0  0  0  0  0  0
  131.0058  124.2654   57.5706 H   0  0  0  0  0  0  0  0  0  0  0  0
  132.5040  125.0540   59.8680 H   0  0  0  0  0  0  0  0  0  0  0  0
  134.9949  122.5969   59.3714 H   0  0  0  0  0  0  0  0  0  0  0  0
  135.2846  124.3940   59.6504 H   0  0  0  0  0  0  0  0  0  0  0  0
  128.6568  124.8596   62.1404 H   0  0  0  0  0  0  0  0  0  0  0  0
  129.3439  125.4388   60.5850 H   0  0  0  0  0  0  0  0  0  0  0  0
  128.0068  124.2392   60.5850 H   0  0  0  0  0  0  0  0  0  0  0  0
  128.4661  121.8470   61.0530 H   0  0  0  0  0  0  0  0  0  0  0  0
  1  2  1  0
  2  3  1  0
  3  4  1  0
  4  5  1  0
  5  6  1  0
  6  7  1  0
  7  8  1  0
  8  9  1  0
  9 10  1  0
 10 11  1  0
 11 12  1  0
 12 13  2  0
 12 14  1  0
 14 15  1  0
 15 16  1  0
 16 17  2  0
 17 18  1  0
 18 19  1  0
 18 20  2  0
 20 21  1  0
 21 22  1  0
 22 23  1  0
 22 24  1  0
 22 25  1  0
 21 26  2  0
 26 27  1  0
 27 28  3  0
 26 16  1  0
  1 29  1  0
  1 30  1  0
  1 31  1  0
  3 32  1  0
  3 33  1  0
  4 34  1  0
  4 35  1  0
  6 36  1  0
  6 37  1  0
  7 38  1  0
  7 39  1  0
  9 40  1  0
  9 41  1  0
 10 42  1  0
 10 43  1  0
 11 44  1  0
 14 45  1  0
 14 46  1  0
 19 47  1  0
 19 48  1  0
 19 49  1  0
 20 50  1  0
M  END
>  <Binding energies>  (1) 
[-5.67]

>  <Ligand effiencies>  (1) 
[-0.19551724137931034]

>  <Interactions>  (1) 
["V-A:ASP:366:CG:3213, V-A:ASP:366:CB:3212, V-B:TYR:539:CZ:9849, V-B:ALA:541:CB:9864, V-B:TYR:539:CE1:9847, V-A:LEU:475:CD1:4258, V-B:PRO:540:N:9856, V-B:TYR:539:CD2:9846, V-B:PRO:540:CA:9855, V-B:TYR:539:C:9839, V-B:TYR:539:CE2:9848, V-B:PRO:540:C:9853, V-A:ILE:369:CD1:3239, V-A:ILE:369:CG2:3237, V-B:ALA:541:CA:9862, V-A:PRO:482:CB:4326, V-A:PRO:482:CG:4327, V-B:ILE:538:CB:9834, V-B:TYR:539:CG:9844, V-A:TRP:381:CZ2:3370, V-B:ILE:538:CA:9832, V-A:TRP:381:CH2:3372, V-B:ILE:538:CG2:9835, H-B:TYR:539:N:9842, H-A:TYR:531:OH:4795, H-B:TYR:539:OH:9850, V-A:ILE:369:CB:3236, V-A:ASP:366:CA:3210, V-A:TRP:381:CZ3:3371, H-A:ASP:366:OD1:3214, V-A:ILE:369:CG1:3238, H-A:ASP:366:OD2:3215, V-B:TYR:539:CB:9843"]

$$$$
3aa_Grossjean_2025
     RDKit          3D

 52 54  0  0  0  0  0  0  0  0999 V2000
  125.9030  126.9510   73.8940 C   0  0  0  0  0  0  0  0  0  0  0  0
  127.0620  127.0430   74.8930 C   0  0  0  0  0  0  0  0  0  0  0  0
  128.0400  126.0600   74.5750 O   0  0  0  0  0  0  0  0  0  0  0  0
  129.2050  126.4050   73.9700 C   0  0  0  0  0  0  0  0  0  0  0  0
  130.1790  126.8610   74.5780 O   0  0  0  0  0  0  0  0  0  0  0  0
  129.1880  126.1930   72.4830 C   0  0  0  0  0  0  0  0  0  0  0  0
  129.5830  124.9790   71.9010 C   0  0  0  0  0  0  0  0  0  0  0  0
  129.5510  124.8140   70.5190 C   0  0  0  0  0  0  0  0  0  0  0  0
  129.1180  125.8530   69.6930 C   0  0  0  0  0  0  0  0  0  0  0  0
  129.1200  125.5810   68.3100 N   0  0  0  0  0  0  0  0  0  0  0  0
  129.3140  126.4190   67.2680 C   0  0  0  0  0  0  0  0  0  0  0  0
  129.5090  127.6320   67.3540 O   0  0  0  0  0  0  0  0  0  0  0  0
  129.2670  125.7720   65.8840 C   0  0  0  0  0  0  0  0  0  0  0  0
  130.1650  124.1910   65.8470 S   0  0  0  0  0  0  0  0  0  0  0  0
  130.7820  123.9810   64.1910 C   0  0  0  0  0  0  0  0  0  0  0  0
  129.8120  123.7450   63.2760 N   0  0  0  0  0  0  0  0  0  0  0  0
  130.1470  123.5640   61.9720 C   0  0  0  0  0  0  0  0  0  0  0  0
  129.0160  123.3220   61.0180 C   0  0  0  0  0  0  0  0  0  0  0  0
  129.2680  123.0690   59.6610 C   0  0  0  0  0  0  0  0  0  0  0  0
  128.2230  122.8420   58.7680 C   0  0  0  0  0  0  0  0  0  0  0  0
  126.9090  122.8660   59.2240 C   0  0  0  0  0  0  0  0  0  0  0  0
  126.6330  123.1120   60.5650 C   0  0  0  0  0  0  0  0  0  0  0  0
  127.6800  123.3360   61.4550 C   0  0  0  0  0  0  0  0  0  0  0  0
  131.4810  123.6250   61.5580 C   0  0  0  0  0  0  0  0  0  0  0  0
  132.5050  123.8510   62.4910 C   0  0  0  0  0  0  0  0  0  0  0  0
  133.9630  123.9000   61.9970 C   0  0  0  0  0  0  0  0  0  0  0  0
  134.6250  122.7630   62.2210 F   0  0  0  0  0  0  0  0  0  0  0  0
  133.9960  124.1270   60.6830 F   0  0  0  0  0  0  0  0  0  0  0  0
  134.6210  124.8780   62.6200 F   0  0  0  0  0  0  0  0  0  0  0  0
  132.1520  124.0230   63.8520 C   0  0  0  0  0  0  0  0  0  0  0  0
  133.1830  124.2040   64.8780 C   0  0  0  0  0  0  0  0  0  0  0  0
  133.9980  124.3470   65.6880 N   0  0  0  0  0  0  0  0  0  0  0  0
  128.7350  127.0740   70.2670 C   0  0  0  0  0  0  0  0  0  0  0  0
  128.7700  127.2370   71.6480 C   0  0  0  0  0  0  0  0  0  0  0  0
  124.9520  126.8755   74.4416 H   0  0  0  0  0  0  0  0  0  0  0  0
  125.8916  127.8511   73.2617 H   0  0  0  0  0  0  0  0  0  0  0  0
  126.0337  126.0604   73.2617 H   0  0  0  0  0  0  0  0  0  0  0  0
  127.5158  128.0435   74.8373 H   0  0  0  0  0  0  0  0  0  0  0  0
  126.6838  126.8687   75.9111 H   0  0  0  0  0  0  0  0  0  0  0  0
  129.9206  124.1511   72.5417 H   0  0  0  0  0  0  0  0  0  0  0  0
  129.8688  123.8591   70.0751 H   0  0  0  0  0  0  0  0  0  0  0  0
  128.8980  124.6240   68.0760 H   0  0  0  0  0  0  0  0  0  0  0  0
  128.2169  125.5915   65.6108 H   0  0  0  0  0  0  0  0  0  0  0  0
  129.7492  126.4560   65.1702 H   0  0  0  0  0  0  0  0  0  0  0  0
  130.3058  123.0496   59.2970 H   0  0  0  0  0  0  0  0  0  0  0  0
  128.4360  122.6447   57.7070 H   0  0  0  0  0  0  0  0  0  0  0  0
  126.0828  122.6893   58.5196 H   0  0  0  0  0  0  0  0  0  0  0  0
  125.5922  123.1295   60.9207 H   0  0  0  0  0  0  0  0  0  0  0  0
  127.4585  123.5267   62.5155 H   0  0  0  0  0  0  0  0  0  0  0  0
  131.7296  123.4951   60.4944 H   0  0  0  0  0  0  0  0  0  0  0  0
  128.4064  127.9040   69.6242 H   0  0  0  0  0  0  0  0  0  0  0  0
  128.4657  128.1974   72.0897 H   0  0  0  0  0  0  0  0  0  0  0  0
  1  2  1  0
  2  3  1  0
  3  4  1  0
  4  5  2  0
  4  6  1  0
  6  7  2  0
  7  8  1  0
  8  9  2  0
  9 10  1  0
 10 11  1  0
 11 12  2  0
 11 13  1  0
 13 14  1  0
 14 15  1  0
 15 16  2  0
 16 17  1  0
 17 18  1  0
 18 19  2  0
 19 20  1  0
 20 21  2  0
 21 22  1  0
 22 23  2  0
 17 24  2  0
 24 25  1  0
 25 26  1  0
 26 27  1  0
 26 28  1  0
 26 29  1  0
 25 30  2  0
 30 31  1  0
 31 32  3  0
  9 33  1  0
 33 34  2  0
 34  6  1  0
 30 15  1  0
 23 18  1  0
  1 35  1  0
  1 36  1  0
  1 37  1  0
  2 38  1  0
  2 39  1  0
  7 40  1  0
  8 41  1  0
 10 42  1  0
 13 43  1  0
 13 44  1  0
 19 45  1  0
 20 46  1  0
 21 47  1  0
 22 48  1  0
 23 49  1  0
 24 50  1  0
 33 51  1  0
 34 52  1  0
M  END
>  <Binding energies>  (1) 
[-8.45]

>  <Ligand effiencies>  (1) 
[-0.2414285714285714]

>  <Interactions>  (1) 
["V-B:GLU:543:C:9874, V-B:GLU:543:CB:9878, V-B:HIS:456:CE1:9040, V-A:ASP:366:CG:3213, V-B:GLU:543:CD:9880, V-A:ARG:545:CZ:4926, V-B:ALA:541:CB:9864, H-A:TYR:484:OH:4348, V-A:HIS:456:CE1:4069, V-B:GLU:543:CG:9879, V-A:GLY:454:CA:4049, V-B:PRO:540:N:9856, H-A:GLY:454:N:4050, V-B:TYR:539:CD2:9846, V-B:PRO:540:CA:9855, V-B:TYR:539:C:9839, V-B:TYR:539:CE2:9848, V-B:PRO:540:C:9853, V-A:ILE:369:CD1:3239, V-B:PRO:540:CB:9857, V-A:HIS:456:CD2:4068, H-A:LYS:547:NZ:4951, H-B:LYS:547:NZ:9923, V-A:GLY:453:C:4042, V-A:GLY:453:CA:4044, V-B:LYS:547:CD:9921, H-B:GLU:543:O:9875"]

$$$$
3ab_Grossjean_2025
     RDKit          3D

 49 51  0  0  0  0  0  0  0  0999 V2000
  126.9830  126.8350   74.2200 C   0  0  0  0  0  0  0  0  0  0  0  0
  128.1490  126.0390   74.3760 O   0  0  0  0  0  0  0  0  0  0  0  0
  129.3080  126.3680   73.7500 C   0  0  0  0  0  0  0  0  0  0  0  0
  130.2800  126.8600   74.3320 O   0  0  0  0  0  0  0  0  0  0  0  0
  129.2930  126.0720   72.2780 C   0  0  0  0  0  0  0  0  0  0  0  0
  129.8130  124.8770   71.7560 C   0  0  0  0  0  0  0  0  0  0  0  0
  129.7850  124.6290   70.3860 C   0  0  0  0  0  0  0  0  0  0  0  0
  129.2330  125.5770   69.5100 C   0  0  0  0  0  0  0  0  0  0  0  0
  129.1470  125.4280   68.1130 N   0  0  0  0  0  0  0  0  0  0  0  0
  129.4800  126.2890   67.1280 C   0  0  0  0  0  0  0  0  0  0  0  0
  129.9320  127.4230   67.2910 O   0  0  0  0  0  0  0  0  0  0  0  0
  129.2610  125.7730   65.7040 C   0  0  0  0  0  0  0  0  0  0  0  0
  129.8630  124.0700   65.4930 S   0  0  0  0  0  0  0  0  0  0  0  0
  130.4400  123.9120   63.8160 C   0  0  0  0  0  0  0  0  0  0  0  0
  129.4440  123.7490   62.9130 N   0  0  0  0  0  0  0  0  0  0  0  0
  129.7410  123.6200   61.5940 C   0  0  0  0  0  0  0  0  0  0  0  0
  128.5810  123.4460   60.6600 C   0  0  0  0  0  0  0  0  0  0  0  0
  128.7880  123.0970   59.3150 C   0  0  0  0  0  0  0  0  0  0  0  0
  127.7150  122.9320   58.4440 C   0  0  0  0  0  0  0  0  0  0  0  0
  126.4150  123.1170   58.9060 C   0  0  0  0  0  0  0  0  0  0  0  0
  126.1830  123.4670   60.2320 C   0  0  0  0  0  0  0  0  0  0  0  0
  127.2590  123.6300   61.0990 C   0  0  0  0  0  0  0  0  0  0  0  0
  131.0700  123.6340   61.1550 C   0  0  0  0  0  0  0  0  0  0  0  0
  132.1200  123.7820   62.0730 C   0  0  0  0  0  0  0  0  0  0  0  0
  133.5690  123.7860   61.5480 C   0  0  0  0  0  0  0  0  0  0  0  0
  134.3580  124.6330   62.2140 F   0  0  0  0  0  0  0  0  0  0  0  0
  134.1030  122.5700   61.6640 F   0  0  0  0  0  0  0  0  0  0  0  0
  133.5870  124.1450   60.2640 F   0  0  0  0  0  0  0  0  0  0  0  0
  131.8040  123.9180   63.4470 C   0  0  0  0  0  0  0  0  0  0  0  0
  132.8650  124.0200   64.4530 C   0  0  0  0  0  0  0  0  0  0  0  0
  133.7050  124.0990   65.2450 N   0  0  0  0  0  0  0  0  0  0  0  0
  128.7100  126.7620   70.0280 C   0  0  0  0  0  0  0  0  0  0  0  0
  128.7410  127.0090   71.3970 C   0  0  0  0  0  0  0  0  0  0  0  0
  126.5879  127.1047   75.2105 H   0  0  0  0  0  0  0  0  0  0  0  0
  127.2354  127.7501   73.6643 H   0  0  0  0  0  0  0  0  0  0  0  0
  126.2226  126.2666   73.6643 H   0  0  0  0  0  0  0  0  0  0  0  0
  130.2469  124.1291   72.4360 H   0  0  0  0  0  0  0  0  0  0  0  0
  130.1960  123.6888   69.9896 H   0  0  0  0  0  0  0  0  0  0  0  0
  128.7400  124.5520   67.8180 H   0  0  0  0  0  0  0  0  0  0  0  0
  128.1846  125.7991   65.4790 H   0  0  0  0  0  0  0  0  0  0  0  0
  129.8280  126.4200   65.0185 H   0  0  0  0  0  0  0  0  0  0  0  0
  129.8136  122.9520   58.9447 H   0  0  0  0  0  0  0  0  0  0  0  0
  127.8937  122.6564   57.3942 H   0  0  0  0  0  0  0  0  0  0  0  0
  125.5664  122.9857   58.2185 H   0  0  0  0  0  0  0  0  0  0  0  0
  125.1545  123.6141   60.5933 H   0  0  0  0  0  0  0  0  0  0  0  0
  127.0714  123.9078   62.1467 H   0  0  0  0  0  0  0  0  0  0  0  0
  131.2924  123.5282   60.0829 H   0  0  0  0  0  0  0  0  0  0  0  0
  128.2697  127.5069   69.3489 H   0  0  0  0  0  0  0  0  0  0  0  0
  128.3278  127.9494   71.7905 H   0  0  0  0  0  0  0  0  0  0  0  0
  1  2  1  0
  2  3  1  0
  3  4  2  0
  3  5  1  0
  5  6  2  0
  6  7  1  0
  7  8  2  0
  8  9  1  0
  9 10  1  0
 10 11  2  0
 10 12  1  0
 12 13  1  0
 13 14  1  0
 14 15  2  0
 15 16  1  0
 16 17  1  0
 17 18  2  0
 18 19  1  0
 19 20  2  0
 20 21  1  0
 21 22  2  0
 16 23  2  0
 23 24  1  0
 24 25  1  0
 25 26  1  0
 25 27  1  0
 25 28  1  0
 24 29  2  0
 29 30  1  0
 30 31  3  0
  8 32  1  0
 32 33  2  0
 33  5  1  0
 29 14  1  0
 22 17  1  0
  1 34  1  0
  1 35  1  0
  1 36  1  0
  6 37  1  0
  7 38  1  0
  9 39  1  0
 12 40  1  0
 12 41  1  0
 18 42  1  0
 19 43  1  0
 20 44  1  0
 21 45  1  0
 22 46  1  0
 23 47  1  0
 32 48  1  0
 33 49  1  0
M  END
>  <Binding energies>  (1) 
[-8.3]

>  <Ligand effiencies>  (1) 
[-0.24411764705882355]

>  <Interactions>  (1) 
["V-B:GLU:543:C:9874, V-B:GLU:543:CB:9878, V-B:HIS:456:CE1:9040, V-A:ASP:366:CG:3213, V-B:GLU:543:CD:9880, V-A:ASP:366:CB:3212, V-A:ARG:545:CZ:4926, H-A:TYR:484:OH:4348, V-A:HIS:456:CE1:4069, V-B:GLU:543:CG:9879, V-A:TYR:484:CE1:4345, V-A:GLY:454:CA:4049, V-B:PRO:540:N:9856, V-A:TYR:484:CZ:4347, H-A:GLY:454:N:4050, V-B:TYR:539:CD2:9846, V-B:PRO:540:CA:9855, V-B:TYR:539:C:9839, V-B:TYR:539:CE2:9848, V-A:ILE:369:CD1:3239, V-B:PRO:540:CB:9857, V-A:HIS:456:CG:4066, H-A:HIS:456:NE2:4070, V-A:HIS:456:CD2:4068, H-A:LYS:547:NZ:4951, H-B:LYS:547:NZ:9923, V-A:GLY:453:CA:4044, V-B:LYS:547:CD:9921, H-B:GLU:543:O:9875"]

$$$$
3ac_Grossjean_2025
     RDKit          3D

 47 49  0  0  0  0  0  0  0  0999 V2000
  130.1360  132.8780   54.4500 C   0  0  0  0  0  0  0  0  0  0  0  0
  130.7190  132.8910   55.7500 O   0  0  0  0  0  0  0  0  0  0  0  0
  131.1600  131.7040   56.3030 C   0  0  0  0  0  0  0  0  0  0  0  0
  130.2200  130.6780   56.4060 C   0  0  0  0  0  0  0  0  0  0  0  0
  130.5740  129.4460   56.9470 C   0  0  0  0  0  0  0  0  0  0  0  0
  131.8740  129.2230   57.4020 C   0  0  0  0  0  0  0  0  0  0  0  0
  132.1410  127.9400   57.9140 N   0  0  0  0  0  0  0  0  0  0  0  0
  131.8490  126.7330   57.3810 C   0  0  0  0  0  0  0  0  0  0  0  0
  131.3130  126.5490   56.2880 O   0  0  0  0  0  0  0  0  0  0  0  0
  132.2360  125.5250   58.2350 C   0  0  0  0  0  0  0  0  0  0  0  0
  131.3650  125.5040   59.8320 S   0  0  0  0  0  0  0  0  0  0  0  0
  130.4370  123.9870   59.9570 C   0  0  0  0  0  0  0  0  0  0  0  0
  129.3150  123.9840   59.1970 N   0  0  0  0  0  0  0  0  0  0  0  0
  128.5090  122.8920   59.1850 C   0  0  0  0  0  0  0  0  0  0  0  0
  127.2840  122.9730   58.3240 C   0  0  0  0  0  0  0  0  0  0  0  0
  126.1000  123.5520   58.8110 C   0  0  0  0  0  0  0  0  0  0  0  0
  124.9620  123.6350   58.0140 C   0  0  0  0  0  0  0  0  0  0  0  0
  124.9900  123.1370   56.7160 C   0  0  0  0  0  0  0  0  0  0  0  0
  126.1470  122.5540   56.2110 C   0  0  0  0  0  0  0  0  0  0  0  0
  127.2830  122.4720   57.0110 C   0  0  0  0  0  0  0  0  0  0  0  0
  128.8110  121.7700   59.9630 C   0  0  0  0  0  0  0  0  0  0  0  0
  129.9540  121.7550   60.7750 C   0  0  0  0  0  0  0  0  0  0  0  0
  130.2460  120.5000   61.6210 C   0  0  0  0  0  0  0  0  0  0  0  0
  130.2430  120.7470   62.9330 F   0  0  0  0  0  0  0  0  0  0  0  0
  129.3240  119.5640   61.3920 F   0  0  0  0  0  0  0  0  0  0  0  0
  131.4460  120.0110   61.3050 F   0  0  0  0  0  0  0  0  0  0  0  0
  130.7900  122.9000   60.7890 C   0  0  0  0  0  0  0  0  0  0  0  0
  131.9510  122.9620   61.6790 C   0  0  0  0  0  0  0  0  0  0  0  0
  132.8690  123.0100   62.3830 N   0  0  0  0  0  0  0  0  0  0  0  0
  132.8270  130.2480   57.2960 C   0  0  0  0  0  0  0  0  0  0  0  0
  132.4710  131.4800   56.7530 C   0  0  0  0  0  0  0  0  0  0  0  0
  129.0400  132.8536   54.5399 H   0  0  0  0  0  0  0  0  0  0  0  0
  130.4390  133.7831   53.9032 H   0  0  0  0  0  0  0  0  0  0  0  0
  130.4790  131.9873   53.9032 H   0  0  0  0  0  0  0  0  0  0  0  0
  129.1904  130.8446   56.0565 H   0  0  0  0  0  0  0  0  0  0  0  0
  129.8249  128.6435   57.0164 H   0  0  0  0  0  0  0  0  0  0  0  0
  132.6670  127.9340   58.7750 H   0  0  0  0  0  0  0  0  0  0  0  0
  131.9862  124.6067   57.6833 H   0  0  0  0  0  0  0  0  0  0  0  0
  133.3149  125.5884   58.4399 H   0  0  0  0  0  0  0  0  0  0  0  0
  126.0721  123.9457   59.8378 H   0  0  0  0  0  0  0  0  0  0  0  0
  124.0435  124.0930   58.4096 H   0  0  0  0  0  0  0  0  0  0  0  0
  124.0916  123.2046   56.0849 H   0  0  0  0  0  0  0  0  0  0  0  0
  126.1644  122.1596   55.1843 H   0  0  0  0  0  0  0  0  0  0  0  0
  128.1953  122.0073   56.6088 H   0  0  0  0  0  0  0  0  0  0  0  0
  128.1473  120.8931   59.9378 H   0  0  0  0  0  0  0  0  0  0  0  0
  133.8570  130.0778   57.6425 H   0  0  0  0  0  0  0  0  0  0  0  0
  133.2205  132.2815   56.6763 H   0  0  0  0  0  0  0  0  0  0  0  0
  1  2  1  0
  2  3  1  0
  3  4  2  0
  4  5  1  0
  5  6  2  0
  6  7  1  0
  7  8  1  0
  8  9  2  0
  8 10  1  0
 10 11  1  0
 11 12  1  0
 12 13  2  0
 13 14  1  0
 14 15  1  0
 15 16  2  0
 16 17  1  0
 17 18  2  0
 18 19  1  0
 19 20  2  0
 14 21  2  0
 21 22  1  0
 22 23  1  0
 23 24  1  0
 23 25  1  0
 23 26  1  0
 22 27  2  0
 27 28  1  0
 28 29  3  0
  6 30  1  0
 30 31  2  0
 31  3  1  0
 27 12  1  0
 20 15  1  0
  1 32  1  0
  1 33  1  0
  1 34  1  0
  4 35  1  0
  5 36  1  0
  7 37  1  0
 10 38  1  0
 10 39  1  0
 16 40  1  0
 17 41  1  0
 18 42  1  0
 19 43  1  0
 20 44  1  0
 21 45  1  0
 30 46  1  0
 31 47  1  0
M  END
>  <Binding energies>  (1) 
[-7.89]

>  <Ligand effiencies>  (1) 
[-0.2465625]

>  <Interactions>  (1) 
["V-A:PRO:540:CB:4885, V-A:ASP:366:CG:3213, V-A:TYR:539:CD1:4873, V-A:TYR:539:CE1:4875, V-A:ASP:366:CB:3212, V-B:TYR:539:CZ:9849, V-B:ALA:541:CB:9864, V-A:LEU:475:CD1:4258, V-B:PRO:540:N:9856, V-B:TYR:539:CD2:9846, V-B:PRO:540:CA:9855, V-B:TYR:539:C:9839, V-B:TYR:539:CE2:9848, V-B:PRO:540:C:9853, V-A:ILE:538:CA:4860, H-A:TYR:539:N:4870, V-A:LEU:363:CD1:3189, V-B:PRO:540:CD:9859, V-B:PRO:540:CB:9857, V-B:ALA:541:CA:9862, V-A:PRO:482:CB:4326, V-A:PRO:482:CG:4327, V-B:LEU:363:CD1:8160, V-B:ILE:538:CB:9834, V-B:TYR:539:CG:9844, V-B:ILE:538:CA:9832, V-A:TRP:381:CH2:3372, V-B:ILE:538:CG2:9835, V-B:TYR:539:CA:9841, H-A:TYR:531:OH:4795, H-B:TYR:539:OH:9850, V-A:ILE:538:C:4858, H-A:ASP:366:OD1:3214, H-A:ASP:366:OD2:3215"]

$$$$
3ad_Grossjean_2025
     RDKit          3D

 43 45  0  0  0  0  0  0  0  0999 V2000
  133.0840  124.5690   61.4780 N   0  0  0  0  0  0  0  0  0  0  0  0
  132.4310  124.8580   62.3890 C   0  0  0  0  0  0  0  0  0  0  0  0
  131.6070  125.2230   63.5460 C   0  0  0  0  0  0  0  0  0  0  0  0
  132.1110  125.0960   64.8630 C   0  0  0  0  0  0  0  0  0  0  0  0
  133.5450  124.6190   65.1630 C   0  0  0  0  0  0  0  0  0  0  0  0
  133.9900  125.0310   66.3510 F   0  0  0  0  0  0  0  0  0  0  0  0
  133.5910  123.2850   65.1560 F   0  0  0  0  0  0  0  0  0  0  0  0
  134.3860  125.0850   64.2390 F   0  0  0  0  0  0  0  0  0  0  0  0
  131.2660  125.4140   65.9370 C   0  0  0  0  0  0  0  0  0  0  0  0
  129.9550  125.8440   65.7030 C   0  0  0  0  0  0  0  0  0  0  0  0
  129.0050  126.1820   66.8130 C   0  0  0  0  0  0  0  0  0  0  0  0
  129.2910  125.8150   68.1380 C   0  0  0  0  0  0  0  0  0  0  0  0
  128.4150  126.1270   69.1730 C   0  0  0  0  0  0  0  0  0  0  0  0
  127.2360  126.8130   68.8970 C   0  0  0  0  0  0  0  0  0  0  0  0
  126.9310  127.1900   67.5940 C   0  0  0  0  0  0  0  0  0  0  0  0
  127.8110  126.8770   66.5610 C   0  0  0  0  0  0  0  0  0  0  0  0
  129.4750  125.9580   64.4390 N   0  0  0  0  0  0  0  0  0  0  0  0
  130.2780  125.6760   63.3860 C   0  0  0  0  0  0  0  0  0  0  0  0
  129.4880  125.8930   61.8070 S   0  0  0  0  0  0  0  0  0  0  0  0
  128.0500  124.7820   61.7660 C   0  0  0  0  0  0  0  0  0  0  0  0
  128.4580  123.3130   61.6290 C   0  0  0  0  0  0  0  0  0  0  0  0
  127.5910  122.4420   61.7000 O   0  0  0  0  0  0  0  0  0  0  0  0
  129.7760  123.0940   61.4360 N   0  0  0  0  0  0  0  0  0  0  0  0
  130.4720  121.8840   61.2600 C   0  0  0  0  0  0  0  0  0  0  0  0
  129.6760  120.7520   61.0580 C   0  0  0  0  0  0  0  0  0  0  0  0
  130.2640  119.5020   60.8770 C   0  0  0  0  0  0  0  0  0  0  0  0
  131.6500  119.3820   60.9020 C   0  0  0  0  0  0  0  0  0  0  0  0
  132.4540  120.4990   61.1090 C   0  0  0  0  0  0  0  0  0  0  0  0
  131.8710  121.7510   61.2910 C   0  0  0  0  0  0  0  0  0  0  0  0
  131.6362  125.3248   66.9690 H   0  0  0  0  0  0  0  0  0  0  0  0
  130.2217  125.2727   68.3610 H   0  0  0  0  0  0  0  0  0  0  0  0
  128.6535  125.8325   70.2057 H   0  0  0  0  0  0  0  0  0  0  0  0
  126.5417  127.0583   69.7142 H   0  0  0  0  0  0  0  0  0  0  0  0
  125.9987  127.7331   67.3799 H   0  0  0  0  0  0  0  0  0  0  0  0
  127.5671  127.1788   65.5317 H   0  0  0  0  0  0  0  0  0  0  0  0
  127.4800  124.9058   62.6986 H   0  0  0  0  0  0  0  0  0  0  0  0
  127.4432  125.0473   60.8877 H   0  0  0  0  0  0  0  0  0  0  0  0
  130.3690  123.9110   61.4540 H   0  0  0  0  0  0  0  0  0  0  0  0
  128.5804  120.8490   61.0419 H   0  0  0  0  0  0  0  0  0  0  0  0
  129.6354  118.6140   60.7151 H   0  0  0  0  0  0  0  0  0  0  0  0
  132.1144  118.3955   60.7569 H   0  0  0  0  0  0  0  0  0  0  0  0
  133.5487  120.3933   61.1289 H   0  0  0  0  0  0  0  0  0  0  0  0
  132.5046  122.6344   61.4588 H   0  0  0  0  0  0  0  0  0  0  0  0
  1  2  3  0
  2  3  1  0
  3  4  2  0
  4  5  1  0
  5  6  1  0
  5  7  1  0
  5  8  1  0
  4  9  1  0
  9 10  2  0
 10 11  1  0
 11 12  2  0
 12 13  1  0
 13 14  2  0
 14 15  1  0
 15 16  2  0
 10 17  1  0
 17 18  2  0
 18 19  1  0
 19 20  1  0
 20 21  1  0
 21 22  2  0
 21 23  1  0
 23 24  1  0
 24 25  2  0
 25 26  1  0
 26 27  2  0
 27 28  1  0
 28 29  2  0
 18  3  1  0
 29 24  1  0
 16 11  1  0
  9 30  1  0
 12 31  1  0
 13 32  1  0
 14 33  1  0
 15 34  1  0
 16 35  1  0
 20 36  1  0
 20 37  1  0
 23 38  1  0
 25 39  1  0
 26 40  1  0
 27 41  1  0
 28 42  1  0
 29 43  1  0
M  END
>  <Binding energies>  (1) 
[-7.22]

>  <Ligand effiencies>  (1) 
[-0.24066666666666667]

>  <Interactions>  (1) 
["V-B:GLU:543:C:9874, V-B:GLU:543:CB:9878, V-B:GLY:544:C:9884, V-B:HIS:456:CE1:9040, V-B:GLU:543:CD:9880, V-B:ARG:545:CG:9894, V-A:ARG:545:CZ:4926, V-B:ALA:541:CB:9864, V-A:ARG:545:CD:4923, V-A:HIS:456:CE1:4069, V-B:GLU:543:CG:9879, V-A:LEU:475:CD1:4258, V-A:GLY:454:CA:4049, V-A:TYR:484:CZ:4347, V-B:TYR:539:CD2:9846, H-B:ALA:541:N:9863, V-A:PRO:482:CB:4326, V-A:PRO:482:CG:4327, V-A:TRP:381:CZ2:3370, V-A:TRP:381:CH2:3372, V-A:GLY:453:C:4042, V-A:GLY:453:CA:4044, V-A:ARG:545:CG:4922, V-A:GLY:454:C:4047"]

$$$$
3af_Grossjean_2025
     RDKit          3D

 42 44  0  0  0  0  0  0  0  0999 V2000
  129.9800  124.5410   68.6240 N   0  0  0  0  0  0  0  0  0  0  0  0
  129.3770  125.3330   68.0330 C   0  0  0  0  0  0  0  0  0  0  0  0
  128.6140  126.3350   67.2850 C   0  0  0  0  0  0  0  0  0  0  0  0
  128.9870  126.6900   65.9660 C   0  0  0  0  0  0  0  0  0  0  0  0
  130.1650  126.0250   65.2260 C   0  0  0  0  0  0  0  0  0  0  0  0
  130.4050  126.5740   64.0330 F   0  0  0  0  0  0  0  0  0  0  0  0
  131.2790  126.1360   65.9520 F   0  0  0  0  0  0  0  0  0  0  0  0
  129.9080  124.7320   65.0240 F   0  0  0  0  0  0  0  0  0  0  0  0
  128.2600  127.6940   65.3090 C   0  0  0  0  0  0  0  0  0  0  0  0
  127.1910  128.3270   65.9530 C   0  0  0  0  0  0  0  0  0  0  0  0
  126.3920  129.4190   65.3050 C   0  0  0  0  0  0  0  0  0  0  0  0
  124.9970  129.4760   65.4600 C   0  0  0  0  0  0  0  0  0  0  0  0
  124.2500  130.4880   64.8640 C   0  0  0  0  0  0  0  0  0  0  0  0
  124.8900  131.4610   64.1030 C   0  0  0  0  0  0  0  0  0  0  0  0
  126.2710  131.4300   63.9370 C   0  0  0  0  0  0  0  0  0  0  0  0
  127.0140  130.4160   64.5350 C   0  0  0  0  0  0  0  0  0  0  0  0
  126.8380  127.9870   67.2180 N   0  0  0  0  0  0  0  0  0  0  0  0
  127.5120  127.0040   67.8640 C   0  0  0  0  0  0  0  0  0  0  0  0
  126.8960  126.6880   69.5050 S   0  0  0  0  0  0  0  0  0  0  0  0
  128.1530  127.2470   70.6950 C   0  0  0  0  0  0  0  0  0  0  0  0
  128.5120  126.1530   71.6990 C   0  0  0  0  0  0  0  0  0  0  0  0
  127.9750  126.1570   72.8070 O   0  0  0  0  0  0  0  0  0  0  0  0
  129.4230  125.2520   71.2720 N   0  0  0  0  0  0  0  0  0  0  0  0
  129.9690  124.1410   71.9430 C   0  0  0  0  0  0  0  0  0  0  0  0
  131.0060  124.1830   72.8940 C   0  0  0  0  0  0  0  0  0  0  0  0
  131.4540  122.9980   73.4820 C   0  0  0  0  0  0  0  0  0  0  0  0
  130.8540  121.7970   73.1030 C   0  0  0  0  0  0  0  0  0  0  0  0
  129.8540  121.7280   72.1900 N   0  0  0  0  0  0  0  0  0  0  0  0
  129.4300  122.8890   71.6280 C   0  0  0  0  0  0  0  0  0  0  0  0
  128.5314  127.9848   64.2834 H   0  0  0  0  0  0  0  0  0  0  0  0
  124.4872  128.7091   66.0616 H   0  0  0  0  0  0  0  0  0  0  0  0
  123.1581  130.5183   64.9942 H   0  0  0  0  0  0  0  0  0  0  0  0
  124.3004  132.2599   63.6295 H   0  0  0  0  0  0  0  0  0  0  0  0
  126.7731  132.2027   63.3364 H   0  0  0  0  0  0  0  0  0  0  0  0
  128.1058  130.3950   64.4025 H   0  0  0  0  0  0  0  0  0  0  0  0
  129.0603  127.5364   70.1445 H   0  0  0  0  0  0  0  0  0  0  0  0
  127.7393  128.0999   71.2530 H   0  0  0  0  0  0  0  0  0  0  0  0
  129.7660  125.3780   70.3320 H   0  0  0  0  0  0  0  0  0  0  0  0
  131.4614  125.1447   73.1728 H   0  0  0  0  0  0  0  0  0  0  0  0
  132.2625  123.0114   74.2278 H   0  0  0  0  0  0  0  0  0  0  0  0
  131.2081  120.8640   73.5657 H   0  0  0  0  0  0  0  0  0  0  0  0
  128.6196  122.8427   70.8856 H   0  0  0  0  0  0  0  0  0  0  0  0
  1  2  3  0
  2  3  1  0
  3  4  2  0
  4  5  1  0
  5  6  1  0
  5  7  1  0
  5  8  1  0
  4  9  1  0
  9 10  2  0
 10 11  1  0
 11 12  2  0
 12 13  1  0
 13 14  2  0
 14 15  1  0
 15 16  2  0
 10 17  1  0
 17 18  2  0
 18 19  1  0
 19 20  1  0
 20 21  1  0
 21 22  2  0
 21 23  1  0
 23 24  1  0
 24 25  2  0
 25 26  1  0
 26 27  2  0
 27 28  1  0
 28 29  2  0
 18  3  1  0
 29 24  1  0
 16 11  1  0
  9 30  1  0
 12 31  1  0
 13 32  1  0
 14 33  1  0
 15 34  1  0
 16 35  1  0
 20 36  1  0
 20 37  1  0
 23 38  1  0
 25 39  1  0
 26 40  1  0
 27 41  1  0
 29 42  1  0
M  END
>  <Binding energies>  (1) 
[-7.17]

>  <Ligand effiencies>  (1) 
[-0.239]

>  <Interactions>  (1) 
["V-B:ARG:545:CD:9895, V-B:GLU:543:C:9874, V-B:GLU:543:CB:9878, V-B:HIS:456:CE1:9040, V-B:LEU:475:CD1:9229, V-B:GLU:543:CD:9880, V-A:GLU:543:CD:4908, V-B:ARG:545:CZ:9898, V-B:GLY:454:CA:9020, H-A:TYR:484:OH:4348, V-A:HIS:456:CE1:4069, V-B:GLU:543:CG:9879, V-A:TYR:484:CE1:4345, V-A:HIS:456:CG:4066, H-A:HIS:456:NE2:4070, V-A:HIS:456:CD2:4068, V-A:HIS:456:CB:4065, V-A:ASP:473:CB:4239, V-A:ASP:473:CG:4240, H-B:LYS:547:NZ:9923, V-B:HIS:456:CD2:9039, V-A:TYR:484:CD2:4344, V-A:TYR:484:CD1:4343, V-A:TYR:484:CG:4342, V-A:TYR:484:CB:4341, V-B:LYS:547:CE:9922, H-B:GLU:543:O:9875, H-B:ARG:545:N:9892"]

$$$$
3ag_Grossjean_2025
     RDKit          3D

 46 48  0  0  0  0  0  0  0  0999 V2000
  132.9280  124.7980   61.4420 N   0  0  0  0  0  0  0  0  0  0  0  0
  132.2940  125.0590   62.3740 C   0  0  0  0  0  0  0  0  0  0  0  0
  131.4940  125.3890   63.5570 C   0  0  0  0  0  0  0  0  0  0  0  0
  132.0410  125.2700   64.8580 C   0  0  0  0  0  0  0  0  0  0  0  0
  133.5030  124.8510   65.1100 C   0  0  0  0  0  0  0  0  0  0  0  0
  133.9730  125.2930   66.2780 F   0  0  0  0  0  0  0  0  0  0  0  0
  133.5990  123.5210   65.1150 F   0  0  0  0  0  0  0  0  0  0  0  0
  134.2920  125.3390   64.1520 F   0  0  0  0  0  0  0  0  0  0  0  0
  131.2180  125.5460   65.9600 C   0  0  0  0  0  0  0  0  0  0  0  0
  129.8830  125.9180   65.7700 C   0  0  0  0  0  0  0  0  0  0  0  0
  128.9590  126.2220   66.9100 C   0  0  0  0  0  0  0  0  0  0  0  0
  129.2990  125.8620   68.2240 C   0  0  0  0  0  0  0  0  0  0  0  0
  128.4450  126.1410   69.2880 C   0  0  0  0  0  0  0  0  0  0  0  0
  127.2350  126.7850   69.0510 C   0  0  0  0  0  0  0  0  0  0  0  0
  126.8730  127.1500   67.7580 C   0  0  0  0  0  0  0  0  0  0  0  0
  127.7290  126.8680   66.6970 C   0  0  0  0  0  0  0  0  0  0  0  0
  129.3650  126.0440   64.5200 N   0  0  0  0  0  0  0  0  0  0  0  0
  130.1470  125.8010   63.4410 C   0  0  0  0  0  0  0  0  0  0  0  0
  129.3040  126.0180   61.8890 S   0  0  0  0  0  0  0  0  0  0  0  0
  127.9880  124.7660   61.8080 C   0  0  0  0  0  0  0  0  0  0  0  0
  128.5210  123.3520   62.0420 C   0  0  0  0  0  0  0  0  0  0  0  0
  128.2780  122.4610   61.2270 O   0  0  0  0  0  0  0  0  0  0  0  0
  129.2510  123.1650   63.1560 N   0  0  0  0  0  0  0  0  0  0  0  0
  129.8830  121.9080   63.5560 C   0  0  0  0  0  0  0  0  0  0  0  0
  130.6780  121.2310   62.4440 C   0  0  0  0  0  0  0  0  0  0  0  0
  131.9180  121.7490   62.0620 C   0  0  0  0  0  0  0  0  0  0  0  0
  132.6590  121.1160   61.0680 C   0  0  0  0  0  0  0  0  0  0  0  0
  132.1630  119.9610   60.4670 C   0  0  0  0  0  0  0  0  0  0  0  0
  130.9340  119.4310   60.8530 C   0  0  0  0  0  0  0  0  0  0  0  0
  130.1920  120.0630   61.8480 C   0  0  0  0  0  0  0  0  0  0  0  0
  131.6247  125.4695   66.9792 H   0  0  0  0  0  0  0  0  0  0  0  0
  130.2545  125.3518   68.4158 H   0  0  0  0  0  0  0  0  0  0  0  0
  128.7261  125.8533   70.3118 H   0  0  0  0  0  0  0  0  0  0  0  0
  126.5602  127.0071   69.8909 H   0  0  0  0  0  0  0  0  0  0  0  0
  125.9151  127.6589   67.5751 H   0  0  0  0  0  0  0  0  0  0  0  0
  127.4382  127.1553   65.6758 H   0  0  0  0  0  0  0  0  0  0  0  0
  127.2354  124.9928   62.5775 H   0  0  0  0  0  0  0  0  0  0  0  0
  127.5514  124.7997   60.7989 H   0  0  0  0  0  0  0  0  0  0  0  0
  129.4090  123.9540   63.7650 H   0  0  0  0  0  0  0  0  0  0  0  0
  130.5664  122.1155   64.3926 H   0  0  0  0  0  0  0  0  0  0  0  0
  129.0719  121.2182   63.8322 H   0  0  0  0  0  0  0  0  0  0  0  0
  132.3084  122.6562   62.5463 H   0  0  0  0  0  0  0  0  0  0  0  0
  133.6317  121.5258   60.7584 H   0  0  0  0  0  0  0  0  0  0  0  0
  132.7478  119.4627   59.6798 H   0  0  0  0  0  0  0  0  0  0  0  0
  130.5513  118.5176   60.3742 H   0  0  0  0  0  0  0  0  0  0  0  0
  129.2254  119.6441   62.1645 H   0  0  0  0  0  0  0  0  0  0  0  0
  1  2  3  0
  2  3  1  0
  3  4  2  0
  4  5  1  0
  5  6  1  0
  5  7  1  0
  5  8  1  0
  4  9  1  0
  9 10  2  0
 10 11  1  0
 11 12  2  0
 12 13  1  0
 13 14  2  0
 14 15  1  0
 15 16  2  0
 10 17  1  0
 17 18  2  0
 18 19  1  0
 19 20  1  0
 20 21  1  0
 21 22  2  0
 21 23  1  0
 23 24  1  0
 24 25  1  0
 25 26  2  0
 26 27  1  0
 27 28  2  0
 28 29  1  0
 29 30  2  0
 18  3  1  0
 30 25  1  0
 16 11  1  0
  9 31  1  0
 12 32  1  0
 13 33  1  0
 14 34  1  0
 15 35  1  0
 16 36  1  0
 20 37  1  0
 20 38  1  0
 23 39  1  0
 24 40  1  0
 24 41  1  0
 26 42  1  0
 27 43  1  0
 28 44  1  0
 29 45  1  0
 30 46  1  0
M  END
>  <Binding energies>  (1) 
[-6.77]

>  <Ligand effiencies>  (1) 
[-0.21838709677419355]

>  <Interactions>  (1) 
["V-B:GLU:543:C:9874, V-B:GLU:543:CB:9878, V-B:GLY:544:C:9884, V-B:HIS:456:CE1:9040, V-B:GLU:543:CD:9880, V-B:ARG:545:CG:9894, V-A:ARG:545:CZ:4926, V-B:ALA:541:CB:9864, V-A:ARG:545:CD:4923, V-A:HIS:456:CE1:4069, V-B:GLU:543:CG:9879, V-A:LEU:475:CD1:4258, V-A:GLY:454:CA:4049, V-A:TYR:484:CZ:4347, H-A:ARG:545:NH2:4928, V-B:TYR:539:CD2:9846, V-B:TYR:539:CE2:9848, H-B:ALA:541:N:9863, V-A:PRO:482:CB:4326, V-A:PRO:482:CG:4327, V-A:TRP:381:CZ2:3370, V-A:TRP:381:CH2:3372, V-A:GLY:453:C:4042, V-A:GLY:453:CA:4044, V-A:ARG:545:CG:4922, V-A:GLY:454:C:4047"]

$$$$
3ai_Grossjean_2025
     RDKit          3D

 39 41  0  0  0  0  0  0  0  0999 V2000
  125.3580  128.9570   67.1410 N   0  0  0  0  0  0  0  0  0  0  0  0
  126.3020  128.3780   66.8050 C   0  0  0  0  0  0  0  0  0  0  0  0
  127.4980  127.6460   66.3780 C   0  0  0  0  0  0  0  0  0  0  0  0
  128.1140  127.9250   65.1340 C   0  0  0  0  0  0  0  0  0  0  0  0
  127.6050  129.0270   64.1840 C   0  0  0  0  0  0  0  0  0  0  0  0
  126.3100  128.8980   63.8880 F   0  0  0  0  0  0  0  0  0  0  0  0
  127.7710  130.2250   64.7460 F   0  0  0  0  0  0  0  0  0  0  0  0
  128.2810  128.9910   63.0350 F   0  0  0  0  0  0  0  0  0  0  0  0
  129.2280  127.1640   64.7500 C   0  0  0  0  0  0  0  0  0  0  0  0
  129.7130  126.1500   65.5830 C   0  0  0  0  0  0  0  0  0  0  0  0
  130.8920  125.2990   65.2190 C   0  0  0  0  0  0  0  0  0  0  0  0
  132.1810  125.6340   65.6620 C   0  0  0  0  0  0  0  0  0  0  0  0
  133.2800  124.8460   65.3320 C   0  0  0  0  0  0  0  0  0  0  0  0
  133.1040  123.7070   64.5530 C   0  0  0  0  0  0  0  0  0  0  0  0
  131.8360  123.3520   64.1040 C   0  0  0  0  0  0  0  0  0  0  0  0
  130.7400  124.1420   64.4360 C   0  0  0  0  0  0  0  0  0  0  0  0
  129.1150  125.8800   66.7710 N   0  0  0  0  0  0  0  0  0  0  0  0
  128.0520  126.6180   67.1750 C   0  0  0  0  0  0  0  0  0  0  0  0
  127.4170  126.1340   68.7660 S   0  0  0  0  0  0  0  0  0  0  0  0
  128.4180  126.9660   70.0450 C   0  0  0  0  0  0  0  0  0  0  0  0
  129.0110  126.0340   71.1130 C   0  0  0  0  0  0  0  0  0  0  0  0
  129.3340  126.4690   72.2200 O   0  0  0  0  0  0  0  0  0  0  0  0
  129.1380  124.7440   70.7270 N   0  0  0  0  0  0  0  0  0  0  0  0
  129.6330  123.6860   71.4790 C   0  0  0  0  0  0  0  0  0  0  0  0
  130.8300  123.7520   72.1910 C   0  0  0  0  0  0  0  0  0  0  0  0
  130.9610  122.5190   72.7880 C   0  0  0  0  0  0  0  0  0  0  0  0
  129.8970  121.7500   72.4540 O   0  0  0  0  0  0  0  0  0  0  0  0
  129.0620  122.5020   71.6240 N   0  0  0  0  0  0  0  0  0  0  0  0
  129.7230  127.3656   63.7886 H   0  0  0  0  0  0  0  0  0  0  0  0
  132.3249  126.5330   66.2794 H   0  0  0  0  0  0  0  0  0  0  0  0
  134.2840  125.1230   65.6859 H   0  0  0  0  0  0  0  0  0  0  0  0
  133.9717  123.0839   64.2907 H   0  0  0  0  0  0  0  0  0  0  0  0
  131.7005  122.4502   63.4889 H   0  0  0  0  0  0  0  0  0  0  0  0
  129.7391  123.8566   64.0801 H   0  0  0  0  0  0  0  0  0  0  0  0
  129.2493  127.4840   69.5444 H   0  0  0  0  0  0  0  0  0  0  0  0
  127.7356  127.6466   70.5752 H   0  0  0  0  0  0  0  0  0  0  0  0
  128.8400  124.5080   69.7920 H   0  0  0  0  0  0  0  0  0  0  0  0
  131.5206  124.6054   72.2605 H   0  0  0  0  0  0  0  0  0  0  0  0
  131.7959  122.2078   73.4330 H   0  0  0  0  0  0  0  0  0  0  0  0
  1  2  3  0
  2  3  1  0
  3  4  2  0
  4  5  1  0
  5  6  1  0
  5  7  1  0
  5  8  1  0
  4  9  1  0
  9 10  2  0
 10 11  1  0
 11 12  2  0
 12 13  1  0
 13 14  2  0
 14 15  1  0
 15 16  2  0
 10 17  1  0
 17 18  2  0
 18 19  1  0
 19 20  1  0
 20 21  1  0
 21 22  2  0
 21 23  1  0
 23 24  1  0
 24 25  1  0
 25 26  2  0
 26 27  1  0
 27 28  1  0
 18  3  1  0
 28 24  2  0
 16 11  1  0
  9 29  1  0
 12 30  1  0
 13 31  1  0
 14 32  1  0
 15 33  1  0
 16 34  1  0
 20 35  1  0
 20 36  1  0
 23 37  1  0
 25 38  1  0
 26 39  1  0
M  END
>  <Binding energies>  (1) 
[-8.0]

>  <Ligand effiencies>  (1) 
[-0.27586206896551724]

>  <Interactions>  (1) 
["V-B:GLU:543:C:9874, V-B:GLU:543:CB:9878, V-B:HIS:456:CE1:9040, V-B:GLU:543:CD:9880, V-B:ARG:545:CG:9894, V-A:GLU:543:CD:4908, V-A:ARG:545:CZ:4926, V-A:HIS:456:CE1:4069, V-A:LEU:475:CD1:4258, V-A:GLY:454:CA:4049, H-B:TYR:484:OH:9319, V-A:HIS:456:CG:4066, V-A:HIS:456:CD2:4068, V-A:HIS:456:CB:4065, V-A:ASP:473:CB:4239, H-B:LYS:547:NZ:9923, V-A:TYR:484:CD2:4344, V-A:GLU:543:CB:4906, V-A:TYR:484:CD1:4343, V-A:TYR:484:CG:4342, V-A:TYR:484:CB:4341, H-B:GLU:543:O:9875"]

$$$$
3aj_Grossjean_2025
     RDKit          3D

 39 41  0  0  0  0  0  0  0  0999 V2000
  130.1760  124.4360   68.8920 N   0  0  0  0  0  0  0  0  0  0  0  0
  129.5470  125.2030   68.2970 C   0  0  0  0  0  0  0  0  0  0  0  0
  128.7520  126.1740   67.5400 C   0  0  0  0  0  0  0  0  0  0  0  0
  129.1180  126.5370   66.2200 C   0  0  0  0  0  0  0  0  0  0  0  0
  130.3250  125.9160   65.4910 C   0  0  0  0  0  0  0  0  0  0  0  0
  130.2000  124.5990   65.3140 F   0  0  0  0  0  0  0  0  0  0  0  0
  130.4660  126.4730   64.2880 F   0  0  0  0  0  0  0  0  0  0  0  0
  131.4380  126.1200   66.1950 F   0  0  0  0  0  0  0  0  0  0  0  0
  128.3510  127.5070   65.5560 C   0  0  0  0  0  0  0  0  0  0  0  0
  127.2550  128.1000   66.1910 C   0  0  0  0  0  0  0  0  0  0  0  0
  126.4100  129.1460   65.5310 C   0  0  0  0  0  0  0  0  0  0  0  0
  125.0420  129.2520   65.8260 C   0  0  0  0  0  0  0  0  0  0  0  0
  124.2510  130.2250   65.2190 C   0  0  0  0  0  0  0  0  0  0  0  0
  124.8210  131.1070   64.3060 C   0  0  0  0  0  0  0  0  0  0  0  0
  126.1750  131.0230   63.9980 C   0  0  0  0  0  0  0  0  0  0  0  0
  126.9610  130.0510   64.6080 C   0  0  0  0  0  0  0  0  0  0  0  0
  126.9130  127.7540   67.4580 N   0  0  0  0  0  0  0  0  0  0  0  0
  127.6230  126.8030   68.1120 C   0  0  0  0  0  0  0  0  0  0  0  0
  127.0160  126.4650   69.7510 S   0  0  0  0  0  0  0  0  0  0  0  0
  128.2490  127.0880   70.9430 C   0  0  0  0  0  0  0  0  0  0  0  0
  128.7410  126.0550   71.9680 C   0  0  0  0  0  0  0  0  0  0  0  0
  128.4000  126.1280   73.1510 O   0  0  0  0  0  0  0  0  0  0  0  0
  129.5490  125.0980   71.4610 N   0  0  0  0  0  0  0  0  0  0  0  0
  130.1250  124.0440   72.1580 C   0  0  0  0  0  0  0  0  0  0  0  0
  129.9140  122.7560   71.9950 N   0  0  0  0  0  0  0  0  0  0  0  0
  130.6370  122.0360   72.8300 C   0  0  0  0  0  0  0  0  0  0  0  0
  131.4610  122.7460   73.7010 C   0  0  0  0  0  0  0  0  0  0  0  0
  131.2680  124.4460   73.4000 S   0  0  0  0  0  0  0  0  0  0  0  0
  128.6136  127.8027   64.5296 H   0  0  0  0  0  0  0  0  0  0  0  0
  124.5877  128.5566   66.5471 H   0  0  0  0  0  0  0  0  0  0  0  0
  123.1802  130.2958   65.4605 H   0  0  0  0  0  0  0  0  0  0  0  0
  124.1974  131.8750   63.8251 H   0  0  0  0  0  0  0  0  0  0  0  0
  126.6219  131.7219   63.2756 H   0  0  0  0  0  0  0  0  0  0  0  0
  128.0318  129.9897   64.3638 H   0  0  0  0  0  0  0  0  0  0  0  0
  129.1203  127.4478   70.3760 H   0  0  0  0  0  0  0  0  0  0  0  0
  127.7466  127.8783   71.5200 H   0  0  0  0  0  0  0  0  0  0  0  0
  129.7540  125.1360   70.4730 H   0  0  0  0  0  0  0  0  0  0  0  0
  130.5923  120.9369   72.8386 H   0  0  0  0  0  0  0  0  0  0  0  0
  132.1258  122.3021   74.4566 H   0  0  0  0  0  0  0  0  0  0  0  0
  1  2  3  0
  2  3  1  0
  3  4  2  0
  4  5  1  0
  5  6  1  0
  5  7  1  0
  5  8  1  0
  4  9  1  0
  9 10  2  0
 10 11  1  0
 11 12  2  0
 12 13  1  0
 13 14  2  0
 14 15  1  0
 15 16  2  0
 10 17  1  0
 17 18  2  0
 18 19  1  0
 19 20  1  0
 20 21  1  0
 21 22  2  0
 21 23  1  0
 23 24  1  0
 24 25  2  0
 25 26  1  0
 26 27  2  0
 27 28  1  0
 18  3  1  0
 28 24  1  0
 16 11  1  0
  9 29  1  0
 12 30  1  0
 13 31  1  0
 14 32  1  0
 15 33  1  0
 16 34  1  0
 20 35  1  0
 20 36  1  0
 23 37  1  0
 26 38  1  0
 27 39  1  0
M  END
>  <Binding energies>  (1) 
[-7.14]

>  <Ligand effiencies>  (1) 
[-0.24620689655172412]

>  <Interactions>  (1) 
["V-B:ARG:545:CD:9895, V-B:GLU:543:C:9874, V-B:GLU:543:CB:9878, V-B:HIS:456:CE1:9040, V-B:GLU:543:CD:9880, V-B:ARG:545:CG:9894, V-A:GLU:543:CD:4908, V-B:ARG:545:CZ:9898, V-B:GLY:454:CA:9020, H-A:TYR:484:OH:4348, V-A:HIS:456:CE1:4069, V-A:TYR:484:CE1:4345, V-A:TYR:484:CZ:4347, V-A:HIS:456:CG:4066, H-A:HIS:456:NE2:4070, V-A:HIS:456:CD2:4068, V-A:HIS:456:CB:4065, V-A:ASP:473:CB:4239, V-A:ASP:473:CG:4240, H-B:LYS:547:NZ:9923, V-A:TYR:484:CD2:4344, V-A:TYR:484:CG:4342, V-A:TYR:484:CB:4341, H-B:GLU:543:O:9875, H-B:ARG:545:N:9892"]

$$$$
3ak_Grossjean_2025
     RDKit          3D

 57 58  0  0  0  0  0  0  0  0999 V2000
  125.0190  122.3900   56.3220 C   0  0  0  0  0  0  0  0  0  0  0  0
  126.3860  122.3800   55.9410 O   0  0  0  0  0  0  0  0  0  0  0  0
  126.8890  123.6650   55.6080 C   0  0  0  0  0  0  0  0  0  0  0  0
  128.0550  123.5060   54.6240 C   0  0  0  0  0  0  0  0  0  0  0  0
  128.3470  124.7730   54.0440 O   0  0  0  0  0  0  0  0  0  0  0  0
  129.5930  125.3510   54.4260 C   0  0  0  0  0  0  0  0  0  0  0  0
  129.5570  126.0530   55.7960 C   0  0  0  0  0  0  0  0  0  0  0  0
  129.4380  125.0750   56.8190 O   0  0  0  0  0  0  0  0  0  0  0  0
  130.0010  125.4700   58.0630 C   0  0  0  0  0  0  0  0  0  0  0  0
  131.5380  125.4570   57.9780 C   0  0  0  0  0  0  0  0  0  0  0  0
  132.1750  124.6550   59.0250 N   0  0  0  0  0  0  0  0  0  0  0  0
  133.1790  123.7750   58.8450 C   0  0  0  0  0  0  0  0  0  0  0  0
  133.6900  123.5620   57.7450 O   0  0  0  0  0  0  0  0  0  0  0  0
  133.7120  123.0010   60.0620 C   0  0  0  0  0  0  0  0  0  0  0  0
  133.8290  123.9300   61.6360 S   0  0  0  0  0  0  0  0  0  0  0  0
  132.1900  124.0920   62.3290 C   0  0  0  0  0  0  0  0  0  0  0  0
  131.1660  123.8540   61.4730 N   0  0  0  0  0  0  0  0  0  0  0  0
  129.8830  123.9580   61.9050 C   0  0  0  0  0  0  0  0  0  0  0  0
  128.8130  123.6760   60.8920 C   0  0  0  0  0  0  0  0  0  0  0  0
  128.9610  122.6350   59.9630 C   0  0  0  0  0  0  0  0  0  0  0  0
  127.9690  122.3660   59.0240 C   0  0  0  0  0  0  0  0  0  0  0  0
  126.8120  123.1370   59.0020 C   0  0  0  0  0  0  0  0  0  0  0  0
  126.6390  124.1730   59.9130 C   0  0  0  0  0  0  0  0  0  0  0  0
  127.6320  124.4390   60.8520 C   0  0  0  0  0  0  0  0  0  0  0  0
  129.5990  124.2940   63.2330 C   0  0  0  0  0  0  0  0  0  0  0  0
  130.6390  124.5440   64.1390 C   0  0  0  0  0  0  0  0  0  0  0  0
  130.2870  124.9140   65.5930 C   0  0  0  0  0  0  0  0  0  0  0  0
  129.1620  125.6290   65.6220 F   0  0  0  0  0  0  0  0  0  0  0  0
  130.1150  123.8080   66.3170 F   0  0  0  0  0  0  0  0  0  0  0  0
  131.2380  125.6380   66.1880 F   0  0  0  0  0  0  0  0  0  0  0  0
  131.9750  124.4440   63.6790 C   0  0  0  0  0  0  0  0  0  0  0  0
  133.1030  124.6940   64.5810 C   0  0  0  0  0  0  0  0  0  0  0  0
  133.9950  124.8930   65.2930 N   0  0  0  0  0  0  0  0  0  0  0  0
  124.9442  122.3905   57.4195 H   0  0  0  0  0  0  0  0  0  0  0  0
  124.5332  123.2917   55.9209 H   0  0  0  0  0  0  0  0  0  0  0  0
  124.5200  121.4955   55.9209 H   0  0  0  0  0  0  0  0  0  0  0  0
  126.0923  124.2634   55.1420 H   0  0  0  0  0  0  0  0  0  0  0  0
  127.2381  124.1745   56.5183 H   0  0  0  0  0  0  0  0  0  0  0  0
  128.9406  123.1321   55.1587 H   0  0  0  0  0  0  0  0  0  0  0  0
  127.7811  122.7900   53.8351 H   0  0  0  0  0  0  0  0  0  0  0  0
  130.3486  124.5525   54.4650 H   0  0  0  0  0  0  0  0  0  0  0  0
  129.8328  126.1204   53.6773 H   0  0  0  0  0  0  0  0  0  0  0  0
  130.4851  126.6255   55.9405 H   0  0  0  0  0  0  0  0  0  0  0  0
  128.6973  126.7379   55.8378 H   0  0  0  0  0  0  0  0  0  0  0  0
  129.6592  126.4858   58.3105 H   0  0  0  0  0  0  0  0  0  0  0  0
  129.6783  124.7651   58.8434 H   0  0  0  0  0  0  0  0  0  0  0  0
  131.8290  125.0467   56.9998 H   0  0  0  0  0  0  0  0  0  0  0  0
  131.8780  126.4943   58.1136 H   0  0  0  0  0  0  0  0  0  0  0  0
  131.8230  124.7890   59.9620 H   0  0  0  0  0  0  0  0  0  0  0  0
  133.0453  122.1423   60.2298 H   0  0  0  0  0  0  0  0  0  0  0  0
  134.7475  122.7330   59.8051 H   0  0  0  0  0  0  0  0  0  0  0  0
  129.8744  122.0223   59.9768 H   0  0  0  0  0  0  0  0  0  0  0  0
  128.1000  121.5465   58.3020 H   0  0  0  0  0  0  0  0  0  0  0  0
  126.0287  122.9259   58.2592 H   0  0  0  0  0  0  0  0  0  0  0  0
  125.7217  124.7798   59.8920 H   0  0  0  0  0  0  0  0  0  0  0  0
  127.4909  125.2577   61.5730 H   0  0  0  0  0  0  0  0  0  0  0  0
  128.5535  124.3624   63.5682 H   0  0  0  0  0  0  0  0  0  0  0  0
  1  2  1  0
  2  3  1  0
  3  4  1  0
  4  5  1  0
  5  6  1  0
  6  7  1  0
  7  8  1  0
  8  9  1  0
  9 10  1  0
 10 11  1  0
 11 12  1  0
 12 13  2  0
 12 14  1  0
 14 15  1  0
 15 16  1  0
 16 17  2  0
 17 18  1  0
 18 19  1  0
 19 20  2  0
 20 21  1  0
 21 22  2  0
 22 23  1  0
 23 24  2  0
 18 25  2  0
 25 26  1  0
 26 27  1  0
 27 28  1  0
 27 29  1  0
 27 30  1  0
 26 31  2  0
 31 32  1  0
 32 33  3  0
 31 16  1  0
 24 19  1  0
  1 34  1  0
  1 35  1  0
  1 36  1  0
  3 37  1  0
  3 38  1  0
  4 39  1  0
  4 40  1  0
  6 41  1  0
  6 42  1  0
  7 43  1  0
  7 44  1  0
  9 45  1  0
  9 46  1  0
 10 47  1  0
 10 48  1  0
 11 49  1  0
 14 50  1  0
 14 51  1  0
 20 52  1  0
 21 53  1  0
 22 54  1  0
 23 55  1  0
 24 56  1  0
 25 57  1  0
M  END
>  <Binding energies>  (1) 
[-6.24]

>  <Ligand effiencies>  (1) 
[-0.18352941176470589]

>  <Interactions>  (1) 
["V-B:GLU:543:CB:9878, V-A:ASP:366:CG:3213, V-B:GLU:543:CD:9880, V-A:ASP:366:CB:3212, V-A:ARG:545:CZ:4926, V-B:TYR:539:CZ:9849, V-A:MET:535:CE:4835, H-A:TYR:484:OH:4348, V-A:HIS:456:CE1:4069, H-A:ARG:545:NE:4924, V-B:TYR:539:CE1:9847, V-B:GLU:543:CG:9879, V-A:TYR:484:CE1:4345, V-B:PRO:540:N:9856, V-A:TYR:484:CZ:4347, H-A:GLY:454:N:4050, V-B:TYR:539:CD2:9846, V-B:PRO:540:CA:9855, V-B:TYR:539:C:9839, V-B:TYR:539:CE2:9848, V-A:ILE:369:CD1:3239, V-A:ILE:369:CG2:3237, V-B:PRO:540:CD:9859, V-B:PRO:540:CB:9857, V-B:GLU:543:CA:9876, V-B:LEU:363:CD1:8160, V-B:ILE:538:CB:9834, V-B:TYR:539:CD1:9845, V-B:ILE:538:CG2:9835, H-B:TYR:539:N:9842, H-B:TYR:539:OH:9850, V-A:ILE:369:CB:3236, V-B:PRO:540:CG:9858"]

$$$$
3bc_Grossjean_2025
     RDKit          3D

 47 49  0  0  0  0  0  0  0  0999 V2000
  131.6330  132.1160   54.7980 C   0  0  0  0  0  0  0  0  0  0  0  0
  130.2220  131.9850   54.9300 O   0  0  0  0  0  0  0  0  0  0  0  0
  129.6550  130.7250   54.8860 C   0  0  0  0  0  0  0  0  0  0  0  0
  128.8420  130.4470   53.7870 C   0  0  0  0  0  0  0  0  0  0  0  0
  128.2270  129.2040   53.6550 C   0  0  0  0  0  0  0  0  0  0  0  0
  128.4130  128.2220   54.6300 C   0  0  0  0  0  0  0  0  0  0  0  0
  127.7620  126.9950   54.4050 N   0  0  0  0  0  0  0  0  0  0  0  0
  128.2880  125.7540   54.3210 C   0  0  0  0  0  0  0  0  0  0  0  0
  129.4820  125.4870   54.4740 O   0  0  0  0  0  0  0  0  0  0  0  0
  127.2660  124.6400   54.0520 C   0  0  0  0  0  0  0  0  0  0  0  0
  127.6280  123.0440   54.8590 S   0  0  0  0  0  0  0  0  0  0  0  0
  127.0610  123.1450   56.5420 C   0  0  0  0  0  0  0  0  0  0  0  0
  128.0130  122.8420   57.4570 N   0  0  0  0  0  0  0  0  0  0  0  0
  127.7150  122.8810   58.7820 C   0  0  0  0  0  0  0  0  0  0  0  0
  128.8190  122.5120   59.7290 C   0  0  0  0  0  0  0  0  0  0  0  0
  129.9050  123.3750   59.9360 C   0  0  0  0  0  0  0  0  0  0  0  0
  130.9320  123.0390   60.8130 C   0  0  0  0  0  0  0  0  0  0  0  0
  130.8870  121.8290   61.4970 C   0  0  0  0  0  0  0  0  0  0  0  0
  129.8230  120.9530   61.3080 C   0  0  0  0  0  0  0  0  0  0  0  0
  128.7980  121.2930   60.4280 C   0  0  0  0  0  0  0  0  0  0  0  0
  126.4340  123.2300   59.2200 C   0  0  0  0  0  0  0  0  0  0  0  0
  125.4460  123.5680   58.2890 C   0  0  0  0  0  0  0  0  0  0  0  0
  124.0650  123.9610   58.8140 C   0  0  0  0  0  0  0  0  0  0  0  0
  125.7550  123.5390   56.9120 C   0  0  0  0  0  0  0  0  0  0  0  0
  124.7520  123.9360   55.9220 C   0  0  0  0  0  0  0  0  0  0  0  0
  123.9560  124.2500   55.1420 N   0  0  0  0  0  0  0  0  0  0  0  0
  129.2390  128.4890   55.7320 C   0  0  0  0  0  0  0  0  0  0  0  0
  129.8520  129.7330   55.8590 C   0  0  0  0  0  0  0  0  0  0  0  0
  132.0923  132.1586   55.7966 H   0  0  0  0  0  0  0  0  0  0  0  0
  132.0317  131.2510   54.2477 H   0  0  0  0  0  0  0  0  0  0  0  0
  131.8656  133.0396   54.2477 H   0  0  0  0  0  0  0  0  0  0  0  0
  128.6850  131.2168   53.0171 H   0  0  0  0  0  0  0  0  0  0  0  0
  127.5932  128.9956   52.7804 H   0  0  0  0  0  0  0  0  0  0  0  0
  126.7550  127.0580   54.3590 H   0  0  0  0  0  0  0  0  0  0  0  0
  126.2839  124.9859   54.4068 H   0  0  0  0  0  0  0  0  0  0  0  0
  127.2992  124.4496   52.9691 H   0  0  0  0  0  0  0  0  0  0  0  0
  129.9457  124.3328   59.3965 H   0  0  0  0  0  0  0  0  0  0  0  0
  131.7761  123.7279   60.9646 H   0  0  0  0  0  0  0  0  0  0  0  0
  131.6975  121.5630   62.1915 H   0  0  0  0  0  0  0  0  0  0  0  0
  129.7912  119.9967   61.8507 H   0  0  0  0  0  0  0  0  0  0  0  0
  127.9596  120.5969   60.2780 H   0  0  0  0  0  0  0  0  0  0  0  0
  126.2032  123.2388   60.2955 H   0  0  0  0  0  0  0  0  0  0  0  0
  124.0763  123.9578   59.9139 H   0  0  0  0  0  0  0  0  0  0  0  0
  123.8083  124.9678   58.4529 H   0  0  0  0  0  0  0  0  0  0  0  0
  123.3167  123.2402   58.4529 H   0  0  0  0  0  0  0  0  0  0  0  0
  129.4026  127.7151   56.4964 H   0  0  0  0  0  0  0  0  0  0  0  0
  130.4947  129.9394   56.7275 H   0  0  0  0  0  0  0  0  0  0  0  0
  1  2  1  0
  2  3  1  0
  3  4  2  0
  4  5  1  0
  5  6  2  0
  6  7  1  0
  7  8  1  0
  8  9  2  0
  8 10  1  0
 10 11  1  0
 11 12  1  0
 12 13  2  0
 13 14  1  0
 14 15  1  0
 15 16  2  0
 16 17  1  0
 17 18  2  0
 18 19  1  0
 19 20  2  0
 14 21  2  0
 21 22  1  0
 22 23  1  0
 22 24  2  0
 24 25  1  0
 25 26  3  0
  6 27  1  0
 27 28  2  0
 28  3  1  0
 24 12  1  0
 20 15  1  0
  1 29  1  0
  1 30  1  0
  1 31  1  0
  4 32  1  0
  5 33  1  0
  7 34  1  0
 10 35  1  0
 10 36  1  0
 16 37  1  0
 17 38  1  0
 18 39  1  0
 19 40  1  0
 20 41  1  0
 21 42  1  0
 23 43  1  0
 23 44  1  0
 23 45  1  0
 27 46  1  0
 28 47  1  0
M  END
>  <Binding energies>  (1) 
[-8.04]

>  <Ligand effiencies>  (1) 
[-0.2772413793103448]

>  <Interactions>  (1) 
["V-A:ILE:538:CD1:4865, V-A:TYR:531:CE2:4793, V-A:MET:535:CE:4835, V-B:ALA:541:CB:9864, V-B:PRO:540:N:9856, V-B:TYR:539:CD2:9846, V-B:PRO:540:CA:9855, V-B:TYR:539:C:9839, V-B:TYR:539:CE2:9848, V-B:PRO:540:C:9853, V-A:ILE:538:CA:4860, V-B:PRO:540:CB:9857, V-B:LEU:363:CD1:8160, V-B:TYR:531:CE2:9765, V-B:MET:535:CG:9805, V-B:ILE:538:CG2:9835, H-B:TYR:539:OH:9850, H-B:TYR:531:OH:9767, H-B:MET:535:SD:9806, V-B:MET:535:CE:9807"]

$$$$
3bd_Grossjean_2025
     RDKit          3D

 43 45  0  0  0  0  0  0  0  0999 V2000
  130.8580  118.9690   61.7110 C   0  0  0  0  0  0  0  0  0  0  0  0
  130.7560  120.3760   61.1250 C   0  0  0  0  0  0  0  0  0  0  0  0
  129.4910  120.8510   60.7590 C   0  0  0  0  0  0  0  0  0  0  0  0
  129.3560  122.1330   60.2150 C   0  0  0  0  0  0  0  0  0  0  0  0
  128.0310  122.7050   59.8060 C   0  0  0  0  0  0  0  0  0  0  0  0
  127.6500  122.7380   58.4560 C   0  0  0  0  0  0  0  0  0  0  0  0
  126.4210  123.2690   58.0700 C   0  0  0  0  0  0  0  0  0  0  0  0
  125.5550  123.7760   59.0330 C   0  0  0  0  0  0  0  0  0  0  0  0
  125.9110  123.7580   60.3770 C   0  0  0  0  0  0  0  0  0  0  0  0
  127.1390  123.2270   60.7590 C   0  0  0  0  0  0  0  0  0  0  0  0
  130.4400  122.9350   60.0470 N   0  0  0  0  0  0  0  0  0  0  0  0
  131.6750  122.4910   60.3950 C   0  0  0  0  0  0  0  0  0  0  0  0
  133.0160  123.6350   60.1140 S   0  0  0  0  0  0  0  0  0  0  0  0
  134.0200  123.7090   61.6280 C   0  0  0  0  0  0  0  0  0  0  0  0
  133.1930  124.1320   62.8430 C   0  0  0  0  0  0  0  0  0  0  0  0
  133.7500  124.2450   63.9360 O   0  0  0  0  0  0  0  0  0  0  0  0
  131.8780  124.3390   62.6140 N   0  0  0  0  0  0  0  0  0  0  0  0
  130.8770  124.7550   63.5120 C   0  0  0  0  0  0  0  0  0  0  0  0
  130.2090  125.9370   63.1820 C   0  0  0  0  0  0  0  0  0  0  0  0
  129.2090  126.4320   64.0150 C   0  0  0  0  0  0  0  0  0  0  0  0
  128.8830  125.7500   65.1840 C   0  0  0  0  0  0  0  0  0  0  0  0
  129.5520  124.5780   65.5300 C   0  0  0  0  0  0  0  0  0  0  0  0
  130.5510  124.0800   64.6990 C   0  0  0  0  0  0  0  0  0  0  0  0
  131.8830  121.2060   60.9410 C   0  0  0  0  0  0  0  0  0  0  0  0
  133.2210  120.7380   61.3150 C   0  0  0  0  0  0  0  0  0  0  0  0
  134.2770  120.3690   61.6120 N   0  0  0  0  0  0  0  0  0  0  0  0
  130.8537  119.0281   62.8094 H   0  0  0  0  0  0  0  0  0  0  0  0
  130.0011  118.3679   61.3728 H   0  0  0  0  0  0  0  0  0  0  0  0
  131.7927  118.4978   61.3728 H   0  0  0  0  0  0  0  0  0  0  0  0
  128.6034  120.2165   60.8991 H   0  0  0  0  0  0  0  0  0  0  0  0
  128.3319  122.3386   57.6908 H   0  0  0  0  0  0  0  0  0  0  0  0
  126.1367  123.2872   57.0075 H   0  0  0  0  0  0  0  0  0  0  0  0
  124.5835  124.1934   58.7298 H   0  0  0  0  0  0  0  0  0  0  0  0
  125.2243  124.1621   61.1354 H   0  0  0  0  0  0  0  0  0  0  0  0
  127.4163  123.2155   61.8234 H   0  0  0  0  0  0  0  0  0  0  0  0
  134.4487  122.7141   61.8190 H   0  0  0  0  0  0  0  0  0  0  0  0
  134.8096  124.4596   61.4761 H   0  0  0  0  0  0  0  0  0  0  0  0
  131.5450  124.1180   61.6870 H   0  0  0  0  0  0  0  0  0  0  0  0
  130.4738  126.4780   62.2616 H   0  0  0  0  0  0  0  0  0  0  0  0
  128.6785  127.3586   63.7503 H   0  0  0  0  0  0  0  0  0  0  0  0
  128.0906  126.1397   65.8399 H   0  0  0  0  0  0  0  0  0  0  0  0
  129.2912  124.0476   66.4577 H   0  0  0  0  0  0  0  0  0  0  0  0
  131.0850  123.1579   64.9721 H   0  0  0  0  0  0  0  0  0  0  0  0
  1  2  1  0
  2  3  2  0
  3  4  1  0
  4  5  1  0
  5  6  2  0
  6  7  1  0
  7  8  2  0
  8  9  1  0
  9 10  2  0
  4 11  2  0
 11 12  1  0
 12 13  1  0
 13 14  1  0
 14 15  1  0
 15 16  2  0
 15 17  1  0
 17 18  1  0
 18 19  2  0
 19 20  1  0
 20 21  2  0
 21 22  1  0
 22 23  2  0
 12 24  2  0
 24 25  1  0
 25 26  3  0
 24  2  1  0
 10  5  1  0
 23 18  1  0
  1 27  1  0
  1 28  1  0
  1 29  1  0
  3 30  1  0
  6 31  1  0
  7 32  1  0
  8 33  1  0
  9 34  1  0
 10 35  1  0
 14 36  1  0
 14 37  1  0
 17 38  1  0
 19 39  1  0
 20 40  1  0
 21 41  1  0
 22 42  1  0
 23 43  1  0
M  END
>  <Binding energies>  (1) 
[-7.11]

>  <Ligand effiencies>  (1) 
[-0.26333333333333336]

>  <Interactions>  (1) 
["V-B:GLU:543:CB:9878, V-B:GLU:543:CD:9880, V-B:ALA:541:CB:9864, V-B:GLU:543:CG:9879, V-A:LEU:475:CD1:4258, V-B:PRO:540:N:9856, H-A:GLY:454:N:4050, V-B:TYR:539:CD2:9846, V-B:PRO:540:CA:9855, V-B:TYR:539:C:9839, V-B:TYR:539:CE2:9848, V-A:ILE:369:CD1:3239, V-A:ILE:369:CG2:3237, V-B:PRO:540:CB:9857, V-B:GLU:543:CA:9876, V-A:PRO:482:CB:4326, V-A:PRO:482:CG:4327, V-A:TRP:381:CZ2:3370, V-A:TRP:381:CH2:3372"]

$$$$
3be_Grossjean_2025
     RDKit          3D

 45 47  0  0  0  0  0  0  0  0999 V2000
  134.1040  123.8720   58.8450 C   0  0  0  0  0  0  0  0  0  0  0  0
  132.7330  124.4430   59.1520 C   0  0  0  0  0  0  0  0  0  0  0  0
  132.4570  125.0690   60.3700 C   0  0  0  0  0  0  0  0  0  0  0  0
  131.1720  125.5690   60.5840 C   0  0  0  0  0  0  0  0  0  0  0  0
  130.2040  125.4320   59.5850 C   0  0  0  0  0  0  0  0  0  0  0  0
  130.5480  124.7980   58.3870 C   0  0  0  0  0  0  0  0  0  0  0  0
  129.5270  124.6830   57.4260 N   0  0  0  0  0  0  0  0  0  0  0  0
  129.5080  125.1360   56.1540 C   0  0  0  0  0  0  0  0  0  0  0  0
  130.4280  125.7570   55.6180 O   0  0  0  0  0  0  0  0  0  0  0  0
  128.2190  124.8200   55.3780 C   0  0  0  0  0  0  0  0  0  0  0  0
  127.4570  123.2070   55.7640 S   0  0  0  0  0  0  0  0  0  0  0  0
  126.8220  123.2790   57.4240 C   0  0  0  0  0  0  0  0  0  0  0  0
  127.7050  122.8560   58.3620 N   0  0  0  0  0  0  0  0  0  0  0  0
  127.3530  122.8610   59.6760 C   0  0  0  0  0  0  0  0  0  0  0  0
  128.3820  122.3650   60.6480 C   0  0  0  0  0  0  0  0  0  0  0  0
  128.6350  123.0600   61.8410 C   0  0  0  0  0  0  0  0  0  0  0  0
  129.5900  122.6060   62.7460 C   0  0  0  0  0  0  0  0  0  0  0  0
  130.3090  121.4490   62.4690 C   0  0  0  0  0  0  0  0  0  0  0  0
  130.0800  120.7430   61.2930 C   0  0  0  0  0  0  0  0  0  0  0  0
  129.1240  121.2000   60.3900 C   0  0  0  0  0  0  0  0  0  0  0  0
  126.0850  123.2950   60.0760 C   0  0  0  0  0  0  0  0  0  0  0  0
  125.1710  123.7570   59.1230 C   0  0  0  0  0  0  0  0  0  0  0  0
  123.8040  124.2370   59.6090 C   0  0  0  0  0  0  0  0  0  0  0  0
  125.5390  123.7660   57.7610 C   0  0  0  0  0  0  0  0  0  0  0  0
  124.6180  124.2960   56.7530 C   0  0  0  0  0  0  0  0  0  0  0  0
  123.8880  124.7150   55.9580 N   0  0  0  0  0  0  0  0  0  0  0  0
  131.8030  124.3040   58.1730 N   0  0  0  0  0  0  0  0  0  0  0  0
  134.6293  123.6532   59.7864 H   0  0  0  0  0  0  0  0  0  0  0  0
  133.9933  122.9452   58.2630 H   0  0  0  0  0  0  0  0  0  0  0  0
  134.6839  124.6034   58.2630 H   0  0  0  0  0  0  0  0  0  0  0  0
  133.2344  125.1655   61.1422 H   0  0  0  0  0  0  0  0  0  0  0  0
  130.9225  126.0675   61.5323 H   0  0  0  0  0  0  0  0  0  0  0  0
  129.1854  125.8177   59.7391 H   0  0  0  0  0  0  0  0  0  0  0  0
  128.6920  124.2190   57.7530 H   0  0  0  0  0  0  0  0  0  0  0  0
  127.4840  125.6066   55.6039 H   0  0  0  0  0  0  0  0  0  0  0  0
  128.5038  124.7775   54.3164 H   0  0  0  0  0  0  0  0  0  0  0  0
  128.0701  123.9771   62.0640 H   0  0  0  0  0  0  0  0  0  0  0  0
  129.7752  123.1610   63.6775 H   0  0  0  0  0  0  0  0  0  0  0  0
  131.0636  121.0898   63.1843 H   0  0  0  0  0  0  0  0  0  0  0  0
  130.6513  119.8281   61.0773 H   0  0  0  0  0  0  0  0  0  0  0  0
  128.9467  120.6402   59.4598 H   0  0  0  0  0  0  0  0  0  0  0  0
  125.8064  123.2731   61.1399 H   0  0  0  0  0  0  0  0  0  0  0  0
  123.7872  124.2429   60.7089 H   0  0  0  0  0  0  0  0  0  0  0  0
  123.6180  125.2542   59.2340 H   0  0  0  0  0  0  0  0  0  0  0  0
  123.0228  123.5594   59.2340 H   0  0  0  0  0  0  0  0  0  0  0  0
  1  2  1  0
  2  3  2  0
  3  4  1  0
  4  5  2  0
  5  6  1  0
  6  7  1  0
  7  8  1  0
  8  9  2  0
  8 10  1  0
 10 11  1  0
 11 12  1  0
 12 13  2  0
 13 14  1  0
 14 15  1  0
 15 16  2  0
 16 17  1  0
 17 18  2  0
 18 19  1  0
 19 20  2  0
 14 21  2  0
 21 22  1  0
 22 23  1  0
 22 24  2  0
 24 25  1  0
 25 26  3  0
  6 27  2  0
 27  2  1  0
 24 12  1  0
 20 15  1  0
  1 28  1  0
  1 29  1  0
  1 30  1  0
  3 31  1  0
  4 32  1  0
  5 33  1  0
  7 34  1  0
 10 35  1  0
 10 36  1  0
 16 37  1  0
 17 38  1  0
 18 39  1  0
 19 40  1  0
 20 41  1  0
 21 42  1  0
 23 43  1  0
 23 44  1  0
 23 45  1  0
M  END
>  <Binding energies>  (1) 
[-7.12]

>  <Ligand effiencies>  (1) 
[-0.2542857142857143]

>  <Interactions>  (1) 
["V-A:ASP:366:CG:3213, V-A:ASP:366:CB:3212, V-B:ASP:366:CG:8184, V-B:TYR:539:CZ:9849, V-B:ALA:541:CB:9864, V-B:GLU:543:CG:9879, V-A:LEU:475:CD1:4258, V-B:PRO:540:N:9856, V-B:TYR:539:CD2:9846, V-B:PRO:540:CA:9855, V-B:TYR:539:C:9839, V-B:TYR:539:CE2:9848, V-B:PRO:540:C:9853, V-A:ILE:369:CG2:3237, V-B:PRO:540:CB:9857, V-B:LEU:363:CD1:8160, V-B:LEU:363:CA:8156, H-A:TYR:531:OH:4795, H-B:TYR:539:OH:9850, V-A:ASP:366:C:3208, V-A:ILE:369:CB:3236, V-A:ASP:366:CA:3210, H-B:TYR:531:OH:9767"]

$$$$
3bf_Grossjean_2025
     RDKit          3D

 42 44  0  0  0  0  0  0  0  0999 V2000
  133.9840  125.0530   64.9760 C   0  0  0  0  0  0  0  0  0  0  0  0
  132.5030  124.6910   64.8860 C   0  0  0  0  0  0  0  0  0  0  0  0
  131.6070  125.3720   65.7160 C   0  0  0  0  0  0  0  0  0  0  0  0
  130.2390  125.0820   65.6560 C   0  0  0  0  0  0  0  0  0  0  0  0
  129.2250  125.7910   66.5020 C   0  0  0  0  0  0  0  0  0  0  0  0
  129.0960  125.4910   67.8670 C   0  0  0  0  0  0  0  0  0  0  0  0
  128.1560  126.1440   68.6590 C   0  0  0  0  0  0  0  0  0  0  0  0
  127.3290  127.1100   68.0940 C   0  0  0  0  0  0  0  0  0  0  0  0
  127.4360  127.4240   66.7440 C   0  0  0  0  0  0  0  0  0  0  0  0
  128.3770  126.7670   65.9550 C   0  0  0  0  0  0  0  0  0  0  0  0
  129.7630  124.1410   64.7970 N   0  0  0  0  0  0  0  0  0  0  0  0
  130.6230  123.4550   64.0040 C   0  0  0  0  0  0  0  0  0  0  0  0
  129.8240  122.2620   62.9520 S   0  0  0  0  0  0  0  0  0  0  0  0
  129.7380  122.9600   61.2680 C   0  0  0  0  0  0  0  0  0  0  0  0
  128.3970  122.7590   60.5460 C   0  0  0  0  0  0  0  0  0  0  0  0
  127.3980  122.3900   61.1660 O   0  0  0  0  0  0  0  0  0  0  0  0
  128.4200  123.0450   59.2260 N   0  0  0  0  0  0  0  0  0  0  0  0
  127.3770  122.9570   58.2860 C   0  0  0  0  0  0  0  0  0  0  0  0
  126.1470  123.5220   58.6400 C   0  0  0  0  0  0  0  0  0  0  0  0
  125.0760  123.4790   57.7450 C   0  0  0  0  0  0  0  0  0  0  0  0
  125.2700  122.8700   56.5040 C   0  0  0  0  0  0  0  0  0  0  0  0
  126.4540  122.3240   56.1290 N   0  0  0  0  0  0  0  0  0  0  0  0
  127.4860  122.3730   57.0110 C   0  0  0  0  0  0  0  0  0  0  0  0
  132.0120  123.7090   63.9990 C   0  0  0  0  0  0  0  0  0  0  0  0
  132.9270  123.0190   63.0850 C   0  0  0  0  0  0  0  0  0  0  0  0
  133.6520  122.4750   62.3650 N   0  0  0  0  0  0  0  0  0  0  0  0
  134.2802  125.1254   66.0329 H   0  0  0  0  0  0  0  0  0  0  0  0
  134.5825  124.2747   64.4800 H   0  0  0  0  0  0  0  0  0  0  0  0
  134.1560  126.0196   64.4800 H   0  0  0  0  0  0  0  0  0  0  0  0
  131.9772  126.1355   66.4160 H   0  0  0  0  0  0  0  0  0  0  0  0
  129.7478  124.7281   68.3178 H   0  0  0  0  0  0  0  0  0  0  0  0
  128.0672  125.8974   69.7273 H   0  0  0  0  0  0  0  0  0  0  0  0
  126.5866  127.6280   68.7189 H   0  0  0  0  0  0  0  0  0  0  0  0
  126.7803  128.1880   66.3009 H   0  0  0  0  0  0  0  0  0  0  0  0
  128.4570  127.0167   64.8867 H   0  0  0  0  0  0  0  0  0  0  0  0
  129.9288  124.0411   61.3373 H   0  0  0  0  0  0  0  0  0  0  0  0
  130.4894  122.4192   60.6739 H   0  0  0  0  0  0  0  0  0  0  0  0
  129.2840  123.4170   58.8600 H   0  0  0  0  0  0  0  0  0  0  0  0
  126.0237  123.9999   59.6230 H   0  0  0  0  0  0  0  0  0  0  0  0
  124.1019  123.9150   58.0117 H   0  0  0  0  0  0  0  0  0  0  0  0
  124.4261  122.8311   55.7995 H   0  0  0  0  0  0  0  0  0  0  0  0
  128.4510  121.9360   56.7146 H   0  0  0  0  0  0  0  0  0  0  0  0
  1  2  1  0
  2  3  2  0
  3  4  1  0
  4  5  1  0
  5  6  2  0
  6  7  1  0
  7  8  2  0
  8  9  1  0
  9 10  2  0
  4 11  2  0
 11 12  1  0
 12 13  1  0
 13 14  1  0
 14 15  1  0
 15 16  2  0
 15 17  1  0
 17 18  1  0
 18 19  2  0
 19 20  1  0
 20 21  2  0
 21 22  1  0
 22 23  2  0
 12 24  2  0
 24 25  1  0
 25 26  3  0
 24  2  1  0
 10  5  1  0
 23 18  1  0
  1 27  1  0
  1 28  1  0
  1 29  1  0
  3 30  1  0
  6 31  1  0
  7 32  1  0
  8 33  1  0
  9 34  1  0
 10 35  1  0
 14 36  1  0
 14 37  1  0
 17 38  1  0
 19 39  1  0
 20 40  1  0
 21 41  1  0
 23 42  1  0
M  END
>  <Binding energies>  (1) 
[-8.53]

>  <Ligand effiencies>  (1) 
[-0.3159259259259259]

>  <Interactions>  (1) 
["V-B:GLU:543:C:9874, V-B:GLU:543:CB:9878, V-B:HIS:456:CE1:9040, V-B:GLU:543:CD:9880, V-A:ARG:545:CZ:4926, V-B:TYR:539:CZ:9849, V-A:ARG:545:CD:4923, V-A:HIS:456:CE1:4069, V-B:TYR:539:CE1:9847, V-B:GLU:543:CG:9879, V-A:LEU:475:CD1:4258, V-A:GLY:454:CA:4049, V-B:PRO:540:N:9856, H-A:GLY:454:N:4050, V-B:TYR:539:CD2:9846, V-B:PRO:540:CA:9855, V-B:TYR:539:C:9839, V-B:TYR:539:CE2:9848, H-B:ALA:541:N:9863, V-B:PRO:540:CD:9859, V-B:PRO:540:CB:9857, V-B:LEU:363:CD1:8160, V-B:ILE:538:CB:9834, V-B:TYR:539:CG:9844, V-B:TYR:539:CD1:9845, V-B:ILE:538:CG2:9835, V-B:TYR:539:CA:9841, V-A:GLY:453:C:4042, V-A:GLY:453:CA:4044, H-B:TYR:539:N:9842"]

$$$$
3bg_Grossjean_2025
     RDKit          3D

 46 48  0  0  0  0  0  0  0  0999 V2000
  124.1960  124.2440   59.5890 C   0  0  0  0  0  0  0  0  0  0  0  0
  125.5270  123.6650   59.1130 C   0  0  0  0  0  0  0  0  0  0  0  0
  126.4320  123.2080   60.0760 C   0  0  0  0  0  0  0  0  0  0  0  0
  127.6610  122.6620   59.6820 C   0  0  0  0  0  0  0  0  0  0  0  0
  128.6730  122.1430   60.6650 C   0  0  0  0  0  0  0  0  0  0  0  0
  128.8980  122.7980   61.8880 C   0  0  0  0  0  0  0  0  0  0  0  0
  129.8210  122.3100   62.8080 C   0  0  0  0  0  0  0  0  0  0  0  0
  130.5400  121.1560   62.5190 C   0  0  0  0  0  0  0  0  0  0  0  0
  130.3480  120.4930   61.3130 C   0  0  0  0  0  0  0  0  0  0  0  0
  129.4250  120.9850   60.3940 C   0  0  0  0  0  0  0  0  0  0  0  0
  127.9770  122.5540   58.3640 N   0  0  0  0  0  0  0  0  0  0  0  0
  127.1090  122.9890   57.4160 C   0  0  0  0  0  0  0  0  0  0  0  0
  127.6310  122.7580   55.7230 S   0  0  0  0  0  0  0  0  0  0  0  0
  128.2440  124.3540   55.0920 C   0  0  0  0  0  0  0  0  0  0  0  0
  128.6840  125.2850   56.2260 C   0  0  0  0  0  0  0  0  0  0  0  0
  128.0670  126.3290   56.4380 O   0  0  0  0  0  0  0  0  0  0  0  0
  129.7660  124.9040   56.9270 N   0  0  0  0  0  0  0  0  0  0  0  0
  130.4640  125.7180   57.9230 C   0  0  0  0  0  0  0  0  0  0  0  0
  131.4950  124.9060   58.6960 C   0  0  0  0  0  0  0  0  0  0  0  0
  131.1910  124.4200   59.9720 C   0  0  0  0  0  0  0  0  0  0  0  0
  132.1360  123.6870   60.6830 C   0  0  0  0  0  0  0  0  0  0  0  0
  133.3810  123.4290   60.1110 C   0  0  0  0  0  0  0  0  0  0  0  0
  133.6840  123.8910   58.8320 C   0  0  0  0  0  0  0  0  0  0  0  0
  132.7380  124.6250   58.1220 C   0  0  0  0  0  0  0  0  0  0  0  0
  125.8640  123.5640   57.7460 C   0  0  0  0  0  0  0  0  0  0  0  0
  124.9330  124.0270   56.7140 C   0  0  0  0  0  0  0  0  0  0  0  0
  124.1970  124.3930   55.9000 N   0  0  0  0  0  0  0  0  0  0  0  0
  124.1729  124.2541   60.6887 H   0  0  0  0  0  0  0  0  0  0  0  0
  124.0866  125.2710   59.2105 H   0  0  0  0  0  0  0  0  0  0  0  0
  123.3701  123.6238   59.2105 H   0  0  0  0  0  0  0  0  0  0  0  0
  126.1789  123.2772   61.1442 H   0  0  0  0  0  0  0  0  0  0  0  0
  128.3342  123.7130   62.1222 H   0  0  0  0  0  0  0  0  0  0  0  0
  129.9811  122.8358   63.7609 H   0  0  0  0  0  0  0  0  0  0  0  0
  131.2647  120.7656   63.2487 H   0  0  0  0  0  0  0  0  0  0  0  0
  130.9228  119.5832   61.0853 H   0  0  0  0  0  0  0  0  0  0  0  0
  129.2811  120.4589   59.4388 H   0  0  0  0  0  0  0  0  0  0  0  0
  129.1030  124.1687   54.4304 H   0  0  0  0  0  0  0  0  0  0  0  0
  127.4230  124.8437   54.5478 H   0  0  0  0  0  0  0  0  0  0  0  0
  130.2120  124.0330   56.6790 H   0  0  0  0  0  0  0  0  0  0  0  0
  130.9748  126.5467   57.4108 H   0  0  0  0  0  0  0  0  0  0  0  0
  129.7190  126.0948   58.6392 H   0  0  0  0  0  0  0  0  0  0  0  0
  130.2033  124.6177   60.4140 H   0  0  0  0  0  0  0  0  0  0  0  0
  131.9021  123.3132   61.6907 H   0  0  0  0  0  0  0  0  0  0  0  0
  134.1312  122.8552   60.6749 H   0  0  0  0  0  0  0  0  0  0  0  0
  134.6661  123.6768   58.3853 H   0  0  0  0  0  0  0  0  0  0  0  0
  132.9689  124.9842   57.1083 H   0  0  0  0  0  0  0  0  0  0  0  0
  1  2  1  0
  2  3  2  0
  3  4  1  0
  4  5  1  0
  5  6  2  0
  6  7  1  0
  7  8  2  0
  8  9  1  0
  9 10  2  0
  4 11  2  0
 11 12  1  0
 12 13  1  0
 13 14  1  0
 14 15  1  0
 15 16  2  0
 15 17  1  0
 17 18  1  0
 18 19  1  0
 19 20  2  0
 20 21  1  0
 21 22  2  0
 22 23  1  0
 23 24  2  0
 12 25  2  0
 25 26  1  0
 26 27  3  0
 25  2  1  0
 10  5  1  0
 24 19  1  0
  1 28  1  0
  1 29  1  0
  1 30  1  0
  3 31  1  0
  6 32  1  0
  7 33  1  0
  8 34  1  0
  9 35  1  0
 10 36  1  0
 14 37  1  0
 14 38  1  0
 17 39  1  0
 18 40  1  0
 18 41  1  0
 20 42  1  0
 21 43  1  0
 22 44  1  0
 23 45  1  0
 24 46  1  0
M  END
>  <Binding energies>  (1) 
[-7.49]

>  <Ligand effiencies>  (1) 
[-0.2675]

>  <Interactions>  (1) 
["V-A:ASP:366:CG:3213, V-A:ASP:366:CB:3212, V-B:TYR:539:CZ:9849, V-B:ALA:541:CB:9864, V-B:TYR:539:CE1:9847, V-A:LEU:475:CD1:4258, V-B:PRO:540:N:9856, V-B:TYR:539:CD2:9846, V-B:PRO:540:CA:9855, V-B:TYR:539:C:9839, V-B:TYR:539:CE2:9848, V-B:PRO:540:C:9853, V-A:ILE:369:CG2:3237, V-B:PRO:540:CB:9857, V-B:LEU:363:CD1:8160, H-B:TYR:539:N:9842, H-B:TYR:539:OH:9850, V-A:ILE:369:CB:3236, V-A:ASP:366:CA:3210"]

$$$$
3bk_Grossjean_2025
     RDKit          3D

 57 58  0  0  0  0  0  0  0  0999 V2000
  129.8870  132.6430   54.3460 C   0  0  0  0  0  0  0  0  0  0  0  0
  130.9720  133.1990   55.0730 O   0  0  0  0  0  0  0  0  0  0  0  0
  132.1070  132.3470   55.1380 C   0  0  0  0  0  0  0  0  0  0  0  0
  132.4130  132.0060   56.6030 C   0  0  0  0  0  0  0  0  0  0  0  0
  131.2210  131.5770   57.2450 O   0  0  0  0  0  0  0  0  0  0  0  0
  131.1200  130.1660   57.3870 C   0  0  0  0  0  0  0  0  0  0  0  0
  130.2310  129.6060   56.2700 C   0  0  0  0  0  0  0  0  0  0  0  0
  129.2700  128.7210   56.8300 O   0  0  0  0  0  0  0  0  0  0  0  0
  129.1090  127.5110   56.1010 C   0  0  0  0  0  0  0  0  0  0  0  0
  128.1930  127.7600   54.8940 C   0  0  0  0  0  0  0  0  0  0  0  0
  127.5560  126.5310   54.4150 N   0  0  0  0  0  0  0  0  0  0  0  0
  128.1950  125.3910   54.1040 C   0  0  0  0  0  0  0  0  0  0  0  0
  129.4140  125.2410   54.2060 O   0  0  0  0  0  0  0  0  0  0  0  0
  127.3220  124.2290   53.6250 C   0  0  0  0  0  0  0  0  0  0  0  0
  127.5870  122.7240   54.6170 S   0  0  0  0  0  0  0  0  0  0  0  0
  127.0810  123.0400   56.2990 C   0  0  0  0  0  0  0  0  0  0  0  0
  127.9960  122.7520   57.2580 N   0  0  0  0  0  0  0  0  0  0  0  0
  127.6960  122.9570   58.5680 C   0  0  0  0  0  0  0  0  0  0  0  0
  128.7710  122.6320   59.5610 C   0  0  0  0  0  0  0  0  0  0  0  0
  129.7870  123.5570   59.8480 C   0  0  0  0  0  0  0  0  0  0  0  0
  130.7910  123.2580   60.7660 C   0  0  0  0  0  0  0  0  0  0  0  0
  130.7930  122.0260   61.4110 C   0  0  0  0  0  0  0  0  0  0  0  0
  129.7950  121.0920   61.1470 C   0  0  0  0  0  0  0  0  0  0  0  0
  128.7920  121.3960   60.2300 C   0  0  0  0  0  0  0  0  0  0  0  0
  126.4510  123.4720   58.9470 C   0  0  0  0  0  0  0  0  0  0  0  0
  125.4950  123.7740   57.9710 C   0  0  0  0  0  0  0  0  0  0  0  0
  124.1490  124.3330   58.4280 C   0  0  0  0  0  0  0  0  0  0  0  0
  125.8050  123.5580   56.6120 C   0  0  0  0  0  0  0  0  0  0  0  0
  124.8240  123.8670   55.5670 C   0  0  0  0  0  0  0  0  0  0  0  0
  124.0490  124.1110   54.7430 N   0  0  0  0  0  0  0  0  0  0  0  0
  129.1340  132.2571   55.0490 H   0  0  0  0  0  0  0  0  0  0  0  0
  129.4335  133.4198   53.7128 H   0  0  0  0  0  0  0  0  0  0  0  0
  130.2527  131.8212   53.7128 H   0  0  0  0  0  0  0  0  0  0  0  0
  131.9013  131.4205   54.5819 H   0  0  0  0  0  0  0  0  0  0  0  0
  132.9734  132.8590   54.6939 H   0  0  0  0  0  0  0  0  0  0  0  0
  133.1622  131.2016   56.6441 H   0  0  0  0  0  0  0  0  0  0  0  0
  132.8059  132.8973   57.1140 H   0  0  0  0  0  0  0  0  0  0  0  0
  132.1220  129.7173   57.3188 H   0  0  0  0  0  0  0  0  0  0  0  0
  130.6781  129.9250   58.3651 H   0  0  0  0  0  0  0  0  0  0  0  0
  129.7151  130.4340   55.7618 H   0  0  0  0  0  0  0  0  0  0  0  0
  130.8526  129.0615   55.5440 H   0  0  0  0  0  0  0  0  0  0  0  0
  130.0909  127.1606   55.7503 H   0  0  0  0  0  0  0  0  0  0  0  0
  128.6589  126.7472   56.7521 H   0  0  0  0  0  0  0  0  0  0  0  0
  127.4088  128.4737   55.1867 H   0  0  0  0  0  0  0  0  0  0  0  0
  128.8139  128.1569   54.0773 H   0  0  0  0  0  0  0  0  0  0  0  0
  126.5480  126.5500   54.3600 H   0  0  0  0  0  0  0  0  0  0  0  0
  126.2650  124.5236   53.7016 H   0  0  0  0  0  0  0  0  0  0  0  0
  127.5971  124.0033   52.5841 H   0  0  0  0  0  0  0  0  0  0  0  0
  129.7904  124.5328   59.3403 H   0  0  0  0  0  0  0  0  0  0  0  0
  131.5799  123.9941   60.9801 H   0  0  0  0  0  0  0  0  0  0  0  0
  131.5874  121.7882   62.1337 H   0  0  0  0  0  0  0  0  0  0  0  0
  129.7987  120.1190   61.6600 H   0  0  0  0  0  0  0  0  0  0  0  0
  128.0033  120.6568   60.0259 H   0  0  0  0  0  0  0  0  0  0  0  0
  126.2245  123.6391   60.0104 H   0  0  0  0  0  0  0  0  0  0  0  0
  124.1125  124.3482   59.5273 H   0  0  0  0  0  0  0  0  0  0  0  0
  124.0271  125.3562   58.0429 H   0  0  0  0  0  0  0  0  0  0  0  0
  123.3381  123.6972   58.0429 H   0  0  0  0  0  0  0  0  0  0  0  0
  1  2  1  0
  2  3  1  0
  3  4  1  0
  4  5  1  0
  5  6  1  0
  6  7  1  0
  7  8  1  0
  8  9  1  0
  9 10  1  0
 10 11  1  0
 11 12  1  0
 12 13  2  0
 12 14  1  0
 14 15  1  0
 15 16  1  0
 16 17  2  0
 17 18  1  0
 18 19  1  0
 19 20  2  0
 20 21  1  0
 21 22  2  0
 22 23  1  0
 23 24  2  0
 18 25  2  0
 25 26  1  0
 26 27  1  0
 26 28  2  0
 28 29  1  0
 29 30  3  0
 28 16  1  0
 24 19  1  0
  1 31  1  0
  1 32  1  0
  1 33  1  0
  3 34  1  0
  3 35  1  0
  4 36  1  0
  4 37  1  0
  6 38  1  0
  6 39  1  0
  7 40  1  0
  7 41  1  0
  9 42  1  0
  9 43  1  0
 10 44  1  0
 10 45  1  0
 11 46  1  0
 14 47  1  0
 14 48  1  0
 20 49  1  0
 21 50  1  0
 22 51  1  0
 23 52  1  0
 24 53  1  0
 25 54  1  0
 27 55  1  0
 27 56  1  0
 27 57  1  0
M  END
>  <Binding energies>  (1) 
[-7.11]

>  <Ligand effiencies>  (1) 
[-0.22935483870967743]

>  <Interactions>  (1) 
["V-A:PRO:540:CB:4885, V-A:PRO:540:CA:4883, V-A:TYR:539:CD1:4873, V-A:ILE:538:CD1:4865, V-A:TYR:539:CE1:4875, V-A:TYR:531:CE2:4793, V-A:PRO:540:N:4884, V-A:MET:535:CE:4835, V-B:ALA:541:CB:9864, V-B:PRO:540:N:9856, V-B:TYR:539:CD2:9846, V-B:PRO:540:CA:9855, V-B:TYR:539:C:9839, V-B:TYR:539:CE2:9848, V-B:PRO:540:C:9853, V-A:ILE:538:CA:4860, V-A:PRO:540:CD:4887, H-A:TYR:539:N:4870, V-A:ILE:538:CG2:4863, V-A:LEU:363:CD1:3189, V-B:PRO:540:CB:9857, V-B:LEU:363:CD1:8160, V-B:TYR:531:CE2:9765, V-B:ILE:538:CB:9834, V-B:MET:535:CG:9805, V-B:ILE:538:CG2:9835, H-B:TYR:539:N:9842, V-B:MET:535:CB:9804, H-B:TYR:539:OH:9850, V-A:PRO:540:CG:4886, H-B:TYR:531:OH:9767, H-B:MET:535:SD:9806"]

$$$$
3ca_Grossjean_2025
     RDKit          3D

 52 54  0  0  0  0  0  0  0  0999 V2000
  127.9090  122.5950   58.4490 C   0  0  0  0  0  0  0  0  0  0  0  0
  126.5080  123.1700   58.2150 C   0  0  0  0  0  0  0  0  0  0  0  0
  126.2030  123.1210   56.8260 O   0  0  0  0  0  0  0  0  0  0  0  0
  127.1870  123.0870   55.8920 C   0  0  0  0  0  0  0  0  0  0  0  0
  127.6300  122.0410   55.4080 O   0  0  0  0  0  0  0  0  0  0  0  0
  127.6810  124.4510   55.5010 C   0  0  0  0  0  0  0  0  0  0  0  0
  128.9890  124.5920   55.0210 C   0  0  0  0  0  0  0  0  0  0  0  0
  129.4760  125.8430   54.6500 C   0  0  0  0  0  0  0  0  0  0  0  0
  128.6700  126.9770   54.7580 C   0  0  0  0  0  0  0  0  0  0  0  0
  129.2600  128.1900   54.3550 N   0  0  0  0  0  0  0  0  0  0  0  0
  128.6780  129.3640   54.0270 C   0  0  0  0  0  0  0  0  0  0  0  0
  127.4680  129.5890   54.0440 O   0  0  0  0  0  0  0  0  0  0  0  0
  129.6450  130.4840   53.6280 C   0  0  0  0  0  0  0  0  0  0  0  0
  129.3240  132.0530   54.5000 S   0  0  0  0  0  0  0  0  0  0  0  0
  129.2520  131.7650   56.2630 C   0  0  0  0  0  0  0  0  0  0  0  0
  128.0080  131.6190   56.7840 N   0  0  0  0  0  0  0  0  0  0  0  0
  127.8790  131.3780   58.1070 C   0  0  0  0  0  0  0  0  0  0  0  0
  126.4590  131.2080   58.6100 C   0  0  0  0  0  0  0  0  0  0  0  0
  128.9740  131.2890   58.9630 C   0  0  0  0  0  0  0  0  0  0  0  0
  130.2680  131.4540   58.4520 C   0  0  0  0  0  0  0  0  0  0  0  0
  131.4110  131.3640   59.4100 C   0  0  0  0  0  0  0  0  0  0  0  0
  131.2110  131.6300   60.7700 C   0  0  0  0  0  0  0  0  0  0  0  0
  132.2720  131.5570   61.6690 C   0  0  0  0  0  0  0  0  0  0  0  0
  133.5430  131.2220   61.2080 C   0  0  0  0  0  0  0  0  0  0  0  0
  133.7600  130.9610   59.8570 C   0  0  0  0  0  0  0  0  0  0  0  0
  132.6960  131.0360   58.9620 C   0  0  0  0  0  0  0  0  0  0  0  0
  130.4180  131.6910   57.0620 C   0  0  0  0  0  0  0  0  0  0  0  0
  131.7500  131.8210   56.4620 C   0  0  0  0  0  0  0  0  0  0  0  0
  132.8020  131.9240   55.9890 N   0  0  0  0  0  0  0  0  0  0  0  0
  127.3550  126.8430   55.2300 C   0  0  0  0  0  0  0  0  0  0  0  0
  126.8690  125.5910   55.5990 C   0  0  0  0  0  0  0  0  0  0  0  0
  128.0977  122.5175   59.5299 H   0  0  0  0  0  0  0  0  0  0  0  0
  127.9765  121.5965   57.9925 H   0  0  0  0  0  0  0  0  0  0  0  0
  128.6585  123.2582   57.9925 H   0  0  0  0  0  0  0  0  0  0  0  0
  125.7696  122.5765   58.7740 H   0  0  0  0  0  0  0  0  0  0  0  0
  126.4765  124.2135   58.5615 H   0  0  0  0  0  0  0  0  0  0  0  0
  129.6372  123.7073   54.9363 H   0  0  0  0  0  0  0  0  0  0  0  0
  130.5036  125.9378   54.2690 H   0  0  0  0  0  0  0  0  0  0  0  0
  130.2690  128.1820   54.3640 H   0  0  0  0  0  0  0  0  0  0  0  0
  130.6705  130.1593   53.8582 H   0  0  0  0  0  0  0  0  0  0  0  0
  129.5030  130.6717   52.5535 H   0  0  0  0  0  0  0  0  0  0  0  0
  126.4572  131.2078   59.7100 H   0  0  0  0  0  0  0  0  0  0  0  0
  125.8380  132.0382   58.2425 H   0  0  0  0  0  0  0  0  0  0  0  0
  126.0515  130.2547   58.2425 H   0  0  0  0  0  0  0  0  0  0  0  0
  128.8237  131.0902   60.0344 H   0  0  0  0  0  0  0  0  0  0  0  0
  130.2074  131.8989   61.1314 H   0  0  0  0  0  0  0  0  0  0  0  0
  132.1073  131.7627   62.7370 H   0  0  0  0  0  0  0  0  0  0  0  0
  134.3823  131.1631   61.9166 H   0  0  0  0  0  0  0  0  0  0  0  0
  134.7662  130.6972   59.4993 H   0  0  0  0  0  0  0  0  0  0  0  0
  132.8666  130.8358   57.8939 H   0  0  0  0  0  0  0  0  0  0  0  0
  126.7070  127.7284   55.3086 H   0  0  0  0  0  0  0  0  0  0  0  0
  125.8383  125.4950   55.9710 H   0  0  0  0  0  0  0  0  0  0  0  0
  1  2  1  0
  2  3  1  0
  3  4  1  0
  4  5  2  0
  4  6  1  0
  6  7  2  0
  7  8  1  0
  8  9  2  0
  9 10  1  0
 10 11  1  0
 11 12  2  0
 11 13  1  0
 13 14  1  0
 14 15  1  0
 15 16  2  0
 16 17  1  0
 17 18  1  0
 17 19  2  0
 19 20  1  0
 20 21  1  0
 21 22  2  0
 22 23  1  0
 23 24  2  0
 24 25  1  0
 25 26  2  0
 20 27  2  0
 27 28  1  0
 28 29  3  0
  9 30  1  0
 30 31  2  0
 31  6  1  0
 27 15  1  0
 26 21  1  0
  1 32  1  0
  1 33  1  0
  1 34  1  0
  2 35  1  0
  2 36  1  0
  7 37  1  0
  8 38  1  0
 10 39  1  0
 13 40  1  0
 13 41  1  0
 18 42  1  0
 18 43  1  0
 18 44  1  0
 19 45  1  0
 22 46  1  0
 23 47  1  0
 24 48  1  0
 25 49  1  0
 26 50  1  0
 30 51  1  0
 31 52  1  0
M  END
>  <Binding energies>  (1) 
[-8.52]

>  <Ligand effiencies>  (1) 
[-0.26625]

>  <Interactions>  (1) 
["V-A:PRO:540:CB:4885, V-A:ASN:362:CB:3176, V-A:LEU:363:CA:3185, V-A:ASN:362:C:3172, V-A:ASP:366:CG:3213, V-A:PRO:540:CA:4883, V-A:GLU:543:CD:4908, V-A:TYR:539:CD1:4873, V-A:TYR:539:CE2:4876, V-A:TYR:539:CE1:4875, V-A:PRO:540:C:4881, V-A:TYR:539:CZ:4877, V-A:PRO:540:N:4884, V-B:TYR:539:CZ:9849, V-A:MET:535:CE:4835, V-B:TYR:539:CE1:9847, V-B:PRO:540:N:9856, V-B:TYR:539:CD2:9846, V-B:PRO:540:CA:9855, V-B:TYR:539:C:9839, V-B:TYR:539:CE2:9848, V-A:PRO:540:CD:4887, V-B:PRO:540:CB:9857, V-B:TYR:531:CZ:9766, H-B:TYR:539:N:9842, H-A:TYR:531:OH:4795, H-B:TYR:531:OH:9767, H-A:TYR:539:OH:4878, V-A:MET:535:CG:4833"]

$$$$
3cb_Grossjean_2025
     RDKit          3D

 49 51  0  0  0  0  0  0  0  0999 V2000
  132.0890  132.6360   55.5940 C   0  0  0  0  0  0  0  0  0  0  0  0
  131.0740  133.2090   56.4070 O   0  0  0  0  0  0  0  0  0  0  0  0
  129.9370  132.5240   56.6920 C   0  0  0  0  0  0  0  0  0  0  0  0
  129.1080  132.1970   55.8380 O   0  0  0  0  0  0  0  0  0  0  0  0
  129.7870  132.2060   58.1520 C   0  0  0  0  0  0  0  0  0  0  0  0
  128.7180  132.6990   58.9150 C   0  0  0  0  0  0  0  0  0  0  0  0
  128.6060  132.3830   60.2660 C   0  0  0  0  0  0  0  0  0  0  0  0
  129.5600  131.5730   60.8840 C   0  0  0  0  0  0  0  0  0  0  0  0
  129.3470  131.3140   62.2530 N   0  0  0  0  0  0  0  0  0  0  0  0
  128.2040  131.0400   62.9180 C   0  0  0  0  0  0  0  0  0  0  0  0
  127.0910  130.9480   62.3980 O   0  0  0  0  0  0  0  0  0  0  0  0
  128.3820  130.8210   64.4280 C   0  0  0  0  0  0  0  0  0  0  0  0
  127.2610  129.5810   65.1630 S   0  0  0  0  0  0  0  0  0  0  0  0
  128.2640  128.3520   65.9710 C   0  0  0  0  0  0  0  0  0  0  0  0
  128.3520  128.5250   67.3130 N   0  0  0  0  0  0  0  0  0  0  0  0
  129.0890  127.6490   68.0320 C   0  0  0  0  0  0  0  0  0  0  0  0
  129.1330  127.8970   69.5280 C   0  0  0  0  0  0  0  0  0  0  0  0
  129.7640  126.5810   67.4490 C   0  0  0  0  0  0  0  0  0  0  0  0
  129.7010  126.3920   66.0620 C   0  0  0  0  0  0  0  0  0  0  0  0
  130.4480  125.2340   65.4840 C   0  0  0  0  0  0  0  0  0  0  0  0
  129.8190  123.9900   65.3400 C   0  0  0  0  0  0  0  0  0  0  0  0
  130.5030  122.9080   64.7920 C   0  0  0  0  0  0  0  0  0  0  0  0
  131.8230  123.0670   64.3800 C   0  0  0  0  0  0  0  0  0  0  0  0
  132.4620  124.2970   64.5080 C   0  0  0  0  0  0  0  0  0  0  0  0
  131.7740  125.3770   65.0550 C   0  0  0  0  0  0  0  0  0  0  0  0
  128.9420  127.3100   65.2910 C   0  0  0  0  0  0  0  0  0  0  0  0
  128.9170  127.2160   63.8280 C   0  0  0  0  0  0  0  0  0  0  0  0
  128.8960  127.1410   62.6740 N   0  0  0  0  0  0  0  0  0  0  0  0
  130.6300  131.0720   60.1280 C   0  0  0  0  0  0  0  0  0  0  0  0
  130.7400  131.3890   58.7760 C   0  0  0  0  0  0  0  0  0  0  0  0
  132.8676  132.1965   56.2348 H   0  0  0  0  0  0  0  0  0  0  0  0
  131.6510  131.8519   54.9589 H   0  0  0  0  0  0  0  0  0  0  0  0
  132.5341  133.4161   54.9589 H   0  0  0  0  0  0  0  0  0  0  0  0
  127.9611  133.3414   58.4412 H   0  0  0  0  0  0  0  0  0  0  0  0
  127.7601  132.7742   60.8504 H   0  0  0  0  0  0  0  0  0  0  0  0
  130.1930  131.3110   62.8070 H   0  0  0  0  0  0  0  0  0  0  0  0
  129.4170  130.4939   64.6061 H   0  0  0  0  0  0  0  0  0  0  0  0
  128.1392  131.7798   64.9093 H   0  0  0  0  0  0  0  0  0  0  0  0
  128.9650  126.9500   70.0618 H   0  0  0  0  0  0  0  0  0  0  0  0
  130.1173  128.3035   69.8035 H   0  0  0  0  0  0  0  0  0  0  0  0
  128.3486  128.6173   69.8035 H   0  0  0  0  0  0  0  0  0  0  0  0
  130.3450  125.8875   68.0747 H   0  0  0  0  0  0  0  0  0  0  0  0
  128.7747  123.8671   65.6630 H   0  0  0  0  0  0  0  0  0  0  0  0
  130.0034  121.9338   64.6854 H   0  0  0  0  0  0  0  0  0  0  0  0
  132.3661  122.2129   63.9493 H   0  0  0  0  0  0  0  0  0  0  0  0
  133.5049  124.4152   64.1788 H   0  0  0  0  0  0  0  0  0  0  0  0
  132.2760  126.3510   65.1511 H   0  0  0  0  0  0  0  0  0  0  0  0
  131.3838  130.4274   60.6037 H   0  0  0  0  0  0  0  0  0  0  0  0
  131.5840  130.9939   58.1916 H   0  0  0  0  0  0  0  0  0  0  0  0
  1  2  1  0
  2  3  1  0
  3  4  2  0
  3  5  1  0
  5  6  2  0
  6  7  1  0
  7  8  2  0
  8  9  1  0
  9 10  1  0
 10 11  2  0
 10 12  1  0
 12 13  1  0
 13 14  1  0
 14 15  2  0
 15 16  1  0
 16 17  1  0
 16 18  2  0
 18 19  1  0
 19 20  1  0
 20 21  2  0
 21 22  1  0
 22 23  2  0
 23 24  1  0
 24 25  2  0
 19 26  2  0
 26 27  1  0
 27 28  3  0
  8 29  1  0
 29 30  2  0
 30  5  1  0
 26 14  1  0
 25 20  1  0
  1 31  1  0
  1 32  1  0
  1 33  1  0
  6 34  1  0
  7 35  1  0
  9 36  1  0
 12 37  1  0
 12 38  1  0
 17 39  1  0
 17 40  1  0
 17 41  1  0
 18 42  1  0
 21 43  1  0
 22 44  1  0
 23 45  1  0
 24 46  1  0
 25 47  1  0
 29 48  1  0
 30 49  1  0
M  END
>  <Binding energies>  (1) 
[-8.19]

>  <Ligand effiencies>  (1) 
[-0.26419354838709674]

>  <Interactions>  (1) 
["V-A:PRO:540:CB:4885, V-A:ALA:541:CB:4892, V-B:GLU:543:CB:9878, V-B:HIS:456:CE1:9040, H-A:GLU:543:OE1:4909, V-A:PRO:540:CA:4883, V-B:GLU:543:CD:9880, V-A:GLU:543:CD:4908, V-A:TYR:539:CD1:4873, V-A:TYR:539:CD2:4874, V-A:TYR:539:CE2:4876, V-A:ILE:538:CD1:4865, V-A:TYR:539:CG:4872, V-A:TYR:539:CE1:4875, V-A:TYR:539:C:4867, V-A:PRO:540:N:4884, V-A:HIS:456:CE1:4069, V-B:GLU:543:CG:9879, V-A:LEU:475:CD1:4258, V-A:TYR:484:CE1:4345, V-A:TYR:484:CZ:4347, V-A:ILE:538:CA:4860, V-A:PRO:540:CD:4887, H-A:TYR:539:N:4870, V-A:ILE:538:CG2:4863, V-A:LEU:363:CD1:3189, H-B:TYR:484:OH:9319, V-B:GLU:543:CA:9876, V-A:GLU:543:CB:4906"]

$$$$
3ce_Grossjean_2025
     RDKit          3D

 45 47  0  0  0  0  0  0  0  0999 V2000
  127.3340  120.0210   76.9180 C   0  0  0  0  0  0  0  0  0  0  0  0
  128.4930  119.7070   75.9920 C   0  0  0  0  0  0  0  0  0  0  0  0
  128.8690  118.3910   75.7100 C   0  0  0  0  0  0  0  0  0  0  0  0
  129.9390  118.1770   74.8410 C   0  0  0  0  0  0  0  0  0  0  0  0
  130.6020  119.2710   74.2800 C   0  0  0  0  0  0  0  0  0  0  0  0
  130.1810  120.5640   74.6130 C   0  0  0  0  0  0  0  0  0  0  0  0
  130.8720  121.6250   74.0040 N   0  0  0  0  0  0  0  0  0  0  0  0
  130.5760  122.2620   72.8500 C   0  0  0  0  0  0  0  0  0  0  0  0
  129.6120  122.0030   72.1270 O   0  0  0  0  0  0  0  0  0  0  0  0
  131.5290  123.3880   72.4500 C   0  0  0  0  0  0  0  0  0  0  0  0
  131.3160  124.8600   73.4940 S   0  0  0  0  0  0  0  0  0  0  0  0
  129.8520  125.6710   72.8930 C   0  0  0  0  0  0  0  0  0  0  0  0
  129.7540  125.6990   71.5410 N   0  0  0  0  0  0  0  0  0  0  0  0
  128.6660  126.2800   70.9840 C   0  0  0  0  0  0  0  0  0  0  0  0
  128.6130  126.2640   69.4680 C   0  0  0  0  0  0  0  0  0  0  0  0
  127.6540  126.8600   71.7440 C   0  0  0  0  0  0  0  0  0  0  0  0
  127.7510  126.8650   73.1420 C   0  0  0  0  0  0  0  0  0  0  0  0
  126.6530  127.5220   73.9120 C   0  0  0  0  0  0  0  0  0  0  0  0
  126.9290  128.6290   74.7240 C   0  0  0  0  0  0  0  0  0  0  0  0
  125.9120  129.2440   75.4500 C   0  0  0  0  0  0  0  0  0  0  0  0
  124.6140  128.7480   75.3740 C   0  0  0  0  0  0  0  0  0  0  0  0
  124.3240  127.6420   74.5790 C   0  0  0  0  0  0  0  0  0  0  0  0
  125.3430  127.0300   73.8530 C   0  0  0  0  0  0  0  0  0  0  0  0
  128.8790  126.2500   73.7410 C   0  0  0  0  0  0  0  0  0  0  0  0
  129.0270  126.2110   75.2000 C   0  0  0  0  0  0  0  0  0  0  0  0
  129.1430  126.1800   76.3500 N   0  0  0  0  0  0  0  0  0  0  0  0
  129.1290  120.7800   75.4570 N   0  0  0  0  0  0  0  0  0  0  0  0
  127.6650  119.9313   77.9632 H   0  0  0  0  0  0  0  0  0  0  0  0
  126.9830  121.0466   76.7313 H   0  0  0  0  0  0  0  0  0  0  0  0
  126.5132  119.3128   76.7313 H   0  0  0  0  0  0  0  0  0  0  0  0
  128.3336  117.5435   76.1628 H   0  0  0  0  0  0  0  0  0  0  0  0
  130.2588  117.1527   74.5989 H   0  0  0  0  0  0  0  0  0  0  0  0
  131.4425  119.1188   73.5868 H   0  0  0  0  0  0  0  0  0  0  0  0
  131.6310  122.0070   74.5500 H   0  0  0  0  0  0  0  0  0  0  0  0
  132.5642  123.0293   72.5482 H   0  0  0  0  0  0  0  0  0  0  0  0
  131.3041  123.6717   71.4113 H   0  0  0  0  0  0  0  0  0  0  0  0
  127.6080  125.9606   69.1394 H   0  0  0  0  0  0  0  0  0  0  0  0
  128.8367  127.2697   69.0827 H   0  0  0  0  0  0  0  0  0  0  0  0
  129.3558  125.5501   69.0827 H   0  0  0  0  0  0  0  0  0  0  0  0
  126.7819  127.3124   71.2492 H   0  0  0  0  0  0  0  0  0  0  0  0
  127.9567  129.0157   74.7889 H   0  0  0  0  0  0  0  0  0  0  0  0
  126.1337  130.1177   76.0805 H   0  0  0  0  0  0  0  0  0  0  0  0
  123.8102  129.2337   75.9468 H   0  0  0  0  0  0  0  0  0  0  0  0
  123.2961  127.2540   74.5247 H   0  0  0  0  0  0  0  0  0  0  0  0
  125.1171  126.1532   73.2283 H   0  0  0  0  0  0  0  0  0  0  0  0
  1  2  1  0
  2  3  2  0
  3  4  1  0
  4  5  2  0
  5  6  1  0
  6  7  1  0
  7  8  1  0
  8  9  2  0
  8 10  1  0
 10 11  1  0
 11 12  1  0
 12 13  2  0
 13 14  1  0
 14 15  1  0
 14 16  2  0
 16 17  1  0
 17 18  1  0
 18 19  2  0
 19 20  1  0
 20 21  2  0
 21 22  1  0
 22 23  2  0
 17 24  2  0
 24 25  1  0
 25 26  3  0
  6 27  2  0
 27  2  1  0
 24 12  1  0
 23 18  1  0
  1 28  1  0
  1 29  1  0
  1 30  1  0
  3 31  1  0
  4 32  1  0
  5 33  1  0
  7 34  1  0
 10 35  1  0
 10 36  1  0
 15 37  1  0
 15 38  1  0
 15 39  1  0
 16 40  1  0
 19 41  1  0
 20 42  1  0
 21 43  1  0
 22 44  1  0
 23 45  1  0
M  END
>  <Binding energies>  (1) 
[-7.75]

>  <Ligand effiencies>  (1) 
[-0.2767857142857143]

>  <Interactions>  (1) 
["V-B:GLY:544:C:9884, V-B:HIS:456:CE1:9040, V-A:HIS:456:CG:4066, H-A:HIS:456:NE2:4070, V-A:HIS:456:CD2:4068, V-A:HIS:456:CB:4065, V-A:ASP:473:CB:4239, V-A:ASP:473:CG:4240, H-B:LYS:547:NZ:9923, V-B:HIS:456:CD2:9039, V-B:HIS:456:CG:9037, V-B:VAL:457:C:9044, V-B:VAL:458:CG2:9058, V-B:HIS:456:CB:9036, V-B:HIS:456:C:9032, V-B:LYS:471:CE:9191, V-B:HIS:456:CA:9034, V-A:TYR:484:CD2:4344, V-A:TYR:484:CG:4342, V-A:TYR:484:CB:4341, V-A:TYR:484:C:4337, V-A:ASP:485:CA:4353, V-A:TYR:484:CE2:4346, V-B:LYS:547:CD:9921, H-A:ASP:473:OD1:4241, V-B:LYS:547:CE:9922"]

$$$$
3ch_Grossjean_2025
     RDKit          3D

 55 57  0  0  0  0  0  0  0  0999 V2000
  131.4130  122.8990   72.4540 C   0  0  0  0  0  0  0  0  0  0  0  0
  130.3170  123.7080   72.8670 O   0  0  0  0  0  0  0  0  0  0  0  0
  129.7400  124.5870   71.9670 C   0  0  0  0  0  0  0  0  0  0  0  0
  129.8650  124.4770   70.5730 C   0  0  0  0  0  0  0  0  0  0  0  0
  129.2430  125.4010   69.7210 C   0  0  0  0  0  0  0  0  0  0  0  0
  129.3070  125.3710   68.3140 N   0  0  0  0  0  0  0  0  0  0  0  0
  129.6360  126.3500   67.4440 C   0  0  0  0  0  0  0  0  0  0  0  0
  129.9670  127.4960   67.7500 O   0  0  0  0  0  0  0  0  0  0  0  0
  129.6240  125.9520   65.9690 C   0  0  0  0  0  0  0  0  0  0  0  0
  130.1000  124.2160   65.7220 S   0  0  0  0  0  0  0  0  0  0  0  0
  130.1590  123.9650   63.9610 C   0  0  0  0  0  0  0  0  0  0  0  0
  128.9530  123.6950   63.4040 N   0  0  0  0  0  0  0  0  0  0  0  0
  128.8910  123.4810   62.0700 C   0  0  0  0  0  0  0  0  0  0  0  0
  127.5140  123.1780   61.5130 C   0  0  0  0  0  0  0  0  0  0  0  0
  130.0160  123.5250   61.2490 C   0  0  0  0  0  0  0  0  0  0  0  0
  131.2710  123.8110   61.8060 C   0  0  0  0  0  0  0  0  0  0  0  0
  132.4500  123.8390   60.8880 C   0  0  0  0  0  0  0  0  0  0  0  0
  132.2910  124.2110   59.5480 C   0  0  0  0  0  0  0  0  0  0  0  0
  133.3840  124.2310   58.6860 C   0  0  0  0  0  0  0  0  0  0  0  0
  134.6430  123.8740   59.1610 C   0  0  0  0  0  0  0  0  0  0  0  0
  134.8180  123.4950   60.4890 C   0  0  0  0  0  0  0  0  0  0  0  0
  133.7220  123.4750   61.3490 C   0  0  0  0  0  0  0  0  0  0  0  0
  131.3490  124.0570   63.2010 C   0  0  0  0  0  0  0  0  0  0  0  0
  132.6170  124.4530   63.8200 C   0  0  0  0  0  0  0  0  0  0  0  0
  133.6180  124.7640   64.3100 N   0  0  0  0  0  0  0  0  0  0  0  0
  128.5100  126.4510   70.2760 C   0  0  0  0  0  0  0  0  0  0  0  0
  128.3720  126.5830   71.6660 C   0  0  0  0  0  0  0  0  0  0  0  0
  127.6530  127.5950   72.2790 O   0  0  0  0  0  0  0  0  0  0  0  0
  126.4930  127.2700   73.0380 C   0  0  0  0  0  0  0  0  0  0  0  0
  128.9940  125.6460   72.5010 C   0  0  0  0  0  0  0  0  0  0  0  0
  128.8530  125.7540   73.8640 O   0  0  0  0  0  0  0  0  0  0  0  0
  130.0320  126.1710   74.5380 C   0  0  0  0  0  0  0  0  0  0  0  0
  131.9374  122.5119   73.3401 H   0  0  0  0  0  0  0  0  0  0  0  0
  131.0409  122.0573   71.8514 H   0  0  0  0  0  0  0  0  0  0  0  0
  132.1077  123.5026   71.8514 H   0  0  0  0  0  0  0  0  0  0  0  0
  130.4581  123.6560   70.1438 H   0  0  0  0  0  0  0  0  0  0  0  0
  129.1130  124.4650   67.9110 H   0  0  0  0  0  0  0  0  0  0  0  0
  128.6098  126.1013   65.5701 H   0  0  0  0  0  0  0  0  0  0  0  0
  130.3577  126.5811   65.4437 H   0  0  0  0  0  0  0  0  0  0  0  0
  126.8088  123.0228   62.3428 H   0  0  0  0  0  0  0  0  0  0  0  0
  127.1740  124.0228   60.8960 H   0  0  0  0  0  0  0  0  0  0  0  0
  127.5600  122.2685   60.8960 H   0  0  0  0  0  0  0  0  0  0  0  0
  129.9203  123.3364   60.1695 H   0  0  0  0  0  0  0  0  0  0  0  0
  131.2950  124.4896   59.1733 H   0  0  0  0  0  0  0  0  0  0  0  0
  133.2535  124.5274   57.6348 H   0  0  0  0  0  0  0  0  0  0  0  0
  135.5073  123.8916   58.4808 H   0  0  0  0  0  0  0  0  0  0  0  0
  135.8155  123.2130   60.8571 H   0  0  0  0  0  0  0  0  0  0  0  0
  133.8564  123.1712   62.3976 H   0  0  0  0  0  0  0  0  0  0  0  0
  128.0326  127.1873   69.6127 H   0  0  0  0  0  0  0  0  0  0  0  0
  126.7266  127.3355   74.1109 H   0  0  0  0  0  0  0  0  0  0  0  0
  125.6858  127.9766   72.7947 H   0  0  0  0  0  0  0  0  0  0  0  0
  126.1704  126.2469   72.7947 H   0  0  0  0  0  0  0  0  0  0  0  0
  129.8724  126.1146   75.6249 H   0  0  0  0  0  0  0  0  0  0  0  0
  130.8677  125.5139   74.2555 H   0  0  0  0  0  0  0  0  0  0  0  0
  130.2688  127.2074   74.2555 H   0  0  0  0  0  0  0  0  0  0  0  0
  1  2  1  0
  2  3  1  0
  3  4  2  0
  4  5  1  0
  5  6  1  0
  6  7  1  0
  7  8  2  0
  7  9  1  0
  9 10  1  0
 10 11  1  0
 11 12  2  0
 12 13  1  0
 13 14  1  0
 13 15  2  0
 15 16  1  0
 16 17  1  0
 17 18  2  0
 18 19  1  0
 19 20  2  0
 20 21  1  0
 21 22  2  0
 16 23  2  0
 23 24  1  0
 24 25  3  0
  5 26  2  0
 26 27  1  0
 27 28  1  0
 28 29  1  0
 27 30  2  0
 30 31  1  0
 31 32  1  0
 30  3  1  0
 23 11  1  0
 22 17  1  0
  1 33  1  0
  1 34  1  0
  1 35  1  0
  4 36  1  0
  6 37  1  0
  9 38  1  0
  9 39  1  0
 14 40  1  0
 14 41  1  0
 14 42  1  0
 15 43  1  0
 18 44  1  0
 19 45  1  0
 20 46  1  0
 21 47  1  0
 22 48  1  0
 26 49  1  0
 29 50  1  0
 29 51  1  0
 29 52  1  0
 32 53  1  0
 32 54  1  0
 32 55  1  0
M  END
>  <Binding energies>  (1) 
[-7.96]

>  <Ligand effiencies>  (1) 
[-0.2412121212121212]

>  <Interactions>  (1) 
["V-B:GLU:543:C:9874, V-B:HIS:456:CE1:9040, V-A:ASP:366:CG:3213, V-B:GLU:543:CD:9880, V-A:ASP:366:CB:3212, V-B:ALA:541:CB:9864, H-A:TYR:484:OH:4348, V-A:HIS:456:CE1:4069, H-A:ARG:545:NE:4924, V-B:GLU:543:CG:9879, V-A:TYR:484:CE1:4345, V-A:TYR:484:CZ:4347, H-A:GLY:454:N:4050, H-A:ARG:545:NH2:4928, V-B:TYR:539:CE2:9848, V-A:ILE:369:CD1:3239, V-A:ILE:369:CG2:3237, V-A:HIS:456:CG:4066, H-A:HIS:456:NE2:4070, V-A:HIS:456:CD2:4068, V-A:HIS:456:CB:4065, V-A:ASP:473:CB:4239, H-B:LYS:547:NZ:9923, H-B:HIS:456:NE2:9041, V-B:HIS:456:CD2:9039, V-B:HIS:456:CG:9037, V-B:HIS:456:CB:9036, V-A:TYR:484:CD2:4344, V-A:TYR:484:CG:4342, V-A:TYR:484:CE2:4346, V-A:ASP:366:C:3208, V-A:ILE:369:CB:3236, V-A:ASP:366:CA:3210, H-B:GLU:543:O:9875, V-A:ILE:369:CG1:3238"]

$$$$
3ci_Grossjean_2025
     RDKit          3D

 39 41  0  0  0  0  0  0  0  0999 V2000
  130.8890  125.7030   65.9880 C   0  0  0  0  0  0  0  0  0  0  0  0
  129.5810  126.4330   66.2320 C   0  0  0  0  0  0  0  0  0  0  0  0
  129.1110  127.4050   65.3540 C   0  0  0  0  0  0  0  0  0  0  0  0
  127.8880  128.0400   65.6140 C   0  0  0  0  0  0  0  0  0  0  0  0
  127.4160  129.0650   64.6360 C   0  0  0  0  0  0  0  0  0  0  0  0
  127.8030  130.4060   64.7590 C   0  0  0  0  0  0  0  0  0  0  0  0
  127.3530  131.3590   63.8500 C   0  0  0  0  0  0  0  0  0  0  0  0
  126.5060  130.9760   62.8140 C   0  0  0  0  0  0  0  0  0  0  0  0
  126.1050  129.6500   62.6820 C   0  0  0  0  0  0  0  0  0  0  0  0
  126.5570  128.6990   63.5920 C   0  0  0  0  0  0  0  0  0  0  0  0
  127.1730  127.6720   66.7820 C   0  0  0  0  0  0  0  0  0  0  0  0
  125.9100  128.3330   67.1280 C   0  0  0  0  0  0  0  0  0  0  0  0
  124.9130  128.8550   67.4000 N   0  0  0  0  0  0  0  0  0  0  0  0
  127.7210  126.6700   67.6190 C   0  0  0  0  0  0  0  0  0  0  0  0
  126.8940  126.1150   69.1040 S   0  0  0  0  0  0  0  0  0  0  0  0
  127.7230  126.8250   70.5630 C   0  0  0  0  0  0  0  0  0  0  0  0
  128.2970  125.7670   71.5120 C   0  0  0  0  0  0  0  0  0  0  0  0
  128.1840  125.9250   72.7300 O   0  0  0  0  0  0  0  0  0  0  0  0
  128.9120  124.7200   70.9200 N   0  0  0  0  0  0  0  0  0  0  0  0
  129.4870  123.6200   71.5430 C   0  0  0  0  0  0  0  0  0  0  0  0
  130.7310  123.6660   72.1700 C   0  0  0  0  0  0  0  0  0  0  0  0
  130.9370  122.3920   72.6500 C   0  0  0  0  0  0  0  0  0  0  0  0
  129.8710  121.6210   72.3290 O   0  0  0  0  0  0  0  0  0  0  0  0
  128.9590  122.4100   71.6260 N   0  0  0  0  0  0  0  0  0  0  0  0
  128.9080  126.0700   67.3460 N   0  0  0  0  0  0  0  0  0  0  0  0
  131.3506  125.4454   66.9527 H   0  0  0  0  0  0  0  0  0  0  0  0
  130.6945  124.7830   65.4172 H   0  0  0  0  0  0  0  0  0  0  0  0
  131.5699  126.3515   65.4172 H   0  0  0  0  0  0  0  0  0  0  0  0
  129.6952  127.6736   64.4615 H   0  0  0  0  0  0  0  0  0  0  0  0
  128.4683  130.7082   65.5812 H   0  0  0  0  0  0  0  0  0  0  0  0
  127.6650  132.4091   63.9497 H   0  0  0  0  0  0  0  0  0  0  0  0
  126.1507  131.7276   62.0937 H   0  0  0  0  0  0  0  0  0  0  0  0
  125.4338  129.3548   61.8621 H   0  0  0  0  0  0  0  0  0  0  0  0
  126.2371  127.6515   63.4905 H   0  0  0  0  0  0  0  0  0  0  0  0
  128.5466  127.4674   70.2179 H   0  0  0  0  0  0  0  0  0  0  0  0
  126.9640  127.3883   71.1257 H   0  0  0  0  0  0  0  0  0  0  0  0
  128.9420  124.7120   69.9120 H   0  0  0  0  0  0  0  0  0  0  0  0
  131.4026  124.5323   72.2615 H   0  0  0  0  0  0  0  0  0  0  0  0
  131.8248  122.0547   73.2050 H   0  0  0  0  0  0  0  0  0  0  0  0
  1  2  1  0
  2  3  2  0
  3  4  1  0
  4  5  1  0
  5  6  2  0
  6  7  1  0
  7  8  2  0
  8  9  1  0
  9 10  2  0
  4 11  2  0
 11 12  1  0
 12 13  3  0
 11 14  1  0
 14 15  1  0
 15 16  1  0
 16 17  1  0
 17 18  2  0
 17 19  1  0
 19 20  1  0
 20 21  1  0
 21 22  2  0
 22 23  1  0
 23 24  1  0
 14 25  2  0
 25  2  1  0
 10  5  1  0
 24 20  2  0
  1 26  1  0
  1 27  1  0
  1 28  1  0
  3 29  1  0
  6 30  1  0
  7 31  1  0
  8 32  1  0
  9 33  1  0
 10 34  1  0
 16 35  1  0
 16 36  1  0
 19 37  1  0
 21 38  1  0
 22 39  1  0
M  END
>  <Binding energies>  (1) 
[-8.23]

>  <Ligand effiencies>  (1) 
[-0.31653846153846155]

>  <Interactions>  (1) 
["V-B:GLU:543:C:9874, V-B:GLU:543:CB:9878, V-B:GLY:544:C:9884, V-B:HIS:456:CE1:9040, V-B:GLU:543:CD:9880, V-B:ARG:545:CG:9894, V-A:GLU:543:CD:4908, V-A:HIS:456:CE1:4069, H-B:TYR:484:OH:9319, V-A:HIS:456:CG:4066, V-A:HIS:456:CD2:4068, V-A:HIS:456:CB:4065, V-A:ASP:473:CB:4239, H-B:LYS:547:NZ:9923, V-A:TYR:484:CD2:4344, V-A:GLU:543:CB:4906, V-A:TYR:484:CG:4342, V-A:TYR:484:CB:4341, H-B:ARG:545:NE:9896, V-A:TYR:484:CE2:4346, V-B:GLY:544:CA:9886, H-B:GLU:543:O:9875, H-B:ARG:545:N:9892"]

$$$$
3cj_Grossjean_2025
     RDKit          3D

 39 41  0  0  0  0  0  0  0  0999 V2000
  127.9580  133.0530   61.0050 C   0  0  0  0  0  0  0  0  0  0  0  0
  127.8870  132.3850   59.6450 C   0  0  0  0  0  0  0  0  0  0  0  0
  128.9060  132.5350   58.7060 C   0  0  0  0  0  0  0  0  0  0  0  0
  128.8090  131.8810   57.4700 C   0  0  0  0  0  0  0  0  0  0  0  0
  129.9530  132.0170   56.5210 C   0  0  0  0  0  0  0  0  0  0  0  0
  129.7440  132.4860   55.2190 C   0  0  0  0  0  0  0  0  0  0  0  0
  130.8100  132.6010   54.3300 C   0  0  0  0  0  0  0  0  0  0  0  0
  132.0900  132.2390   54.7400 C   0  0  0  0  0  0  0  0  0  0  0  0
  132.3120  131.7610   56.0290 C   0  0  0  0  0  0  0  0  0  0  0  0
  131.2440  131.6480   56.9160 C   0  0  0  0  0  0  0  0  0  0  0  0
  127.6510  131.1090   57.2040 C   0  0  0  0  0  0  0  0  0  0  0  0
  127.4790  130.4240   55.9190 C   0  0  0  0  0  0  0  0  0  0  0  0
  127.3450  129.8830   54.9040 N   0  0  0  0  0  0  0  0  0  0  0  0
  126.6700  131.0090   58.2160 C   0  0  0  0  0  0  0  0  0  0  0  0
  125.2350  129.9660   58.0640 S   0  0  0  0  0  0  0  0  0  0  0  0
  125.7470  128.3630   58.7590 C   0  0  0  0  0  0  0  0  0  0  0  0
  125.9640  127.3100   57.6670 C   0  0  0  0  0  0  0  0  0  0  0  0
  126.8310  127.4940   56.8100 O   0  0  0  0  0  0  0  0  0  0  0  0
  125.1830  126.2120   57.7580 N   0  0  0  0  0  0  0  0  0  0  0  0
  125.2720  125.0670   56.9840 C   0  0  0  0  0  0  0  0  0  0  0  0
  125.4090  124.9830   55.6780 N   0  0  0  0  0  0  0  0  0  0  0  0
  125.4910  123.7290   55.2810 C   0  0  0  0  0  0  0  0  0  0  0  0
  125.4180  122.7600   56.2780 C   0  0  0  0  0  0  0  0  0  0  0  0
  125.2310  123.5460   57.8170 S   0  0  0  0  0  0  0  0  0  0  0  0
  126.7920  131.6270   59.4170 N   0  0  0  0  0  0  0  0  0  0  0  0
  127.8769  132.2898   61.7930 H   0  0  0  0  0  0  0  0  0  0  0  0
  128.9174  133.5819   61.1041 H   0  0  0  0  0  0  0  0  0  0  0  0
  127.1312  133.7717   61.1041 H   0  0  0  0  0  0  0  0  0  0  0  0
  129.7805  133.1624   58.9333 H   0  0  0  0  0  0  0  0  0  0  0  0
  128.7306  132.7658   54.8955 H   0  0  0  0  0  0  0  0  0  0  0  0
  130.6413  132.9758   53.3097 H   0  0  0  0  0  0  0  0  0  0  0  0
  132.9334  132.3313   54.0398 H   0  0  0  0  0  0  0  0  0  0  0  0
  133.3258  131.4741   56.3451 H   0  0  0  0  0  0  0  0  0  0  0  0
  131.4163  131.2664   57.9332 H   0  0  0  0  0  0  0  0  0  0  0  0
  126.6873  128.4997   59.3132 H   0  0  0  0  0  0  0  0  0  0  0  0
  124.9445  128.0067   59.4216 H   0  0  0  0  0  0  0  0  0  0  0  0
  124.5200  126.1760   58.5200 H   0  0  0  0  0  0  0  0  0  0  0  0
  125.6105  123.4626   54.2204 H   0  0  0  0  0  0  0  0  0  0  0  0
  125.4702  121.6730   56.1177 H   0  0  0  0  0  0  0  0  0  0  0  0
  1  2  1  0
  2  3  2  0
  3  4  1  0
  4  5  1  0
  5  6  2  0
  6  7  1  0
  7  8  2  0
  8  9  1  0
  9 10  2  0
  4 11  2  0
 11 12  1  0
 12 13  3  0
 11 14  1  0
 14 15  1  0
 15 16  1  0
 16 17  1  0
 17 18  2  0
 17 19  1  0
 19 20  1  0
 20 21  2  0
 21 22  1  0
 22 23  2  0
 23 24  1  0
 14 25  2  0
 25  2  1  0
 10  5  1  0
 24 20  1  0
  1 26  1  0
  1 27  1  0
  1 28  1  0
  3 29  1  0
  6 30  1  0
  7 31  1  0
  8 32  1  0
  9 33  1  0
 10 34  1  0
 16 35  1  0
 16 36  1  0
 19 37  1  0
 22 38  1  0
 23 39  1  0
M  END
>  <Binding energies>  (1) 
[-7.51]

>  <Ligand effiencies>  (1) 
[-0.28884615384615386]

>  <Interactions>  (1) 
["V-A:ALA:541:CB:4892, V-A:PRO:540:CA:4883, V-A:TYR:539:CD1:4873, V-A:TYR:539:CD2:4874, V-A:TYR:539:CE2:4876, V-A:ILE:538:CD1:4865, V-A:TYR:539:CE1:4875, V-A:TYR:539:C:4867, V-A:TYR:539:CZ:4877, V-A:TYR:531:CE2:4793, V-A:PRO:540:N:4884, H-B:ASP:366:OD1:8185, V-B:ASP:366:CG:8184, V-B:PRO:540:N:9856, V-B:PRO:540:CA:9855, V-A:ILE:538:CA:4860, V-A:ILE:538:CG2:4863, V-A:LEU:363:CD1:3189, V-B:PRO:540:CD:9859, V-B:PRO:540:CB:9857, V-B:LEU:363:CD1:8160, V-B:ILE:538:CB:9834, V-B:ILE:538:CG2:9835, H-B:TYR:531:OH:9767, V-B:ASP:366:CB:8183, H-A:TYR:539:OH:4878"]

$$$$
3ck_Grossjean_2025
     RDKit          3D

 57 58  0  0  0  0  0  0  0  0999 V2000
  130.5780  132.5010   54.2050 C   0  0  0  0  0  0  0  0  0  0  0  0
  130.6020  133.2490   55.4100 O   0  0  0  0  0  0  0  0  0  0  0  0
  130.9630  132.4780   56.5480 C   0  0  0  0  0  0  0  0  0  0  0  0
  132.2960  131.7670   56.2840 C   0  0  0  0  0  0  0  0  0  0  0  0
  132.6270  130.9570   57.4050 O   0  0  0  0  0  0  0  0  0  0  0  0
  131.7240  129.8810   57.6260 C   0  0  0  0  0  0  0  0  0  0  0  0
  132.4550  128.5560   57.3780 C   0  0  0  0  0  0  0  0  0  0  0  0
  131.4830  127.5370   57.1950 O   0  0  0  0  0  0  0  0  0  0  0  0
  131.9950  126.2130   57.2280 C   0  0  0  0  0  0  0  0  0  0  0  0
  131.4170  125.4670   58.4450 C   0  0  0  0  0  0  0  0  0  0  0  0
  132.4390  124.9120   59.3370 N   0  0  0  0  0  0  0  0  0  0  0  0
  133.3620  123.9940   58.9970 C   0  0  0  0  0  0  0  0  0  0  0  0
  133.4660  123.5290   57.8600 O   0  0  0  0  0  0  0  0  0  0  0  0
  134.3060  123.5530   60.1280 C   0  0  0  0  0  0  0  0  0  0  0  0
  133.6930  122.1840   61.1690 S   0  0  0  0  0  0  0  0  0  0  0  0
  132.0270  122.5520   61.6990 C   0  0  0  0  0  0  0  0  0  0  0  0
  131.0390  122.0260   60.9330 N   0  0  0  0  0  0  0  0  0  0  0  0
  129.7530  122.2670   61.2730 C   0  0  0  0  0  0  0  0  0  0  0  0
  128.7050  121.6490   60.3690 C   0  0  0  0  0  0  0  0  0  0  0  0
  129.4010  123.0380   62.3790 C   0  0  0  0  0  0  0  0  0  0  0  0
  130.4050  123.5970   63.1810 C   0  0  0  0  0  0  0  0  0  0  0  0
  129.9810  124.4340   64.3420 C   0  0  0  0  0  0  0  0  0  0  0  0
  129.7060  125.7960   64.1640 C   0  0  0  0  0  0  0  0  0  0  0  0
  129.3200  126.5850   65.2460 C   0  0  0  0  0  0  0  0  0  0  0  0
  129.2140  126.0160   66.5110 C   0  0  0  0  0  0  0  0  0  0  0  0
  129.4930  124.6650   66.7060 C   0  0  0  0  0  0  0  0  0  0  0  0
  129.8780  123.8790   65.6240 C   0  0  0  0  0  0  0  0  0  0  0  0
  131.7590  123.3400   62.8420 C   0  0  0  0  0  0  0  0  0  0  0  0
  132.8510  123.8660   63.6700 C   0  0  0  0  0  0  0  0  0  0  0  0
  133.7120  124.2790   64.3230 N   0  0  0  0  0  0  0  0  0  0  0  0
  130.5435  131.4271   54.4407 H   0  0  0  0  0  0  0  0  0  0  0  0
  129.6882  132.7767   53.6199 H   0  0  0  0  0  0  0  0  0  0  0  0
  131.4836  132.7191   53.6199 H   0  0  0  0  0  0  0  0  0  0  0  0
  131.0672  133.1395   57.4207 H   0  0  0  0  0  0  0  0  0  0  0  0
  130.1817  131.7293   56.7456 H   0  0  0  0  0  0  0  0  0  0  0  0
  132.2042  131.1350   55.3884 H   0  0  0  0  0  0  0  0  0  0  0  0
  133.0868  132.5146   56.1234 H   0  0  0  0  0  0  0  0  0  0  0  0
  131.3597  129.9125   58.6635 H   0  0  0  0  0  0  0  0  0  0  0  0
  130.8685  129.9672   56.9399 H   0  0  0  0  0  0  0  0  0  0  0  0
  133.0804  128.6394   56.4769 H   0  0  0  0  0  0  0  0  0  0  0  0
  133.1008  128.3137   58.2349 H   0  0  0  0  0  0  0  0  0  0  0  0
  131.7086  125.6864   56.3057 H   0  0  0  0  0  0  0  0  0  0  0  0
  133.0917  126.2468   57.3067 H   0  0  0  0  0  0  0  0  0  0  0  0
  130.7981  126.1704   59.0214 H   0  0  0  0  0  0  0  0  0  0  0  0
  130.8361  124.6182   58.0550 H   0  0  0  0  0  0  0  0  0  0  0  0
  132.4330  125.2540   60.2870 H   0  0  0  0  0  0  0  0  0  0  0  0
  135.2556  123.2347   59.6730 H   0  0  0  0  0  0  0  0  0  0  0  0
  134.4057  124.4212   60.7961 H   0  0  0  0  0  0  0  0  0  0  0  0
  127.9187  121.1853   60.9828 H   0  0  0  0  0  0  0  0  0  0  0  0
  128.2617  122.4302   59.7341 H   0  0  0  0  0  0  0  0  0  0  0  0
  129.1741  120.8829   59.7341 H   0  0  0  0  0  0  0  0  0  0  0  0
  128.3413  123.2068   62.6211 H   0  0  0  0  0  0  0  0  0  0  0  0
  129.7953  126.2455   63.1640 H   0  0  0  0  0  0  0  0  0  0  0  0
  129.1001  127.6529   65.1004 H   0  0  0  0  0  0  0  0  0  0  0  0
  128.9072  126.6381   67.3647 H   0  0  0  0  0  0  0  0  0  0  0  0
  129.4094  124.2221   67.7094 H   0  0  0  0  0  0  0  0  0  0  0  0
  130.1033  122.8132   65.7767 H   0  0  0  0  0  0  0  0  0  0  0  0
  1  2  1  0
  2  3  1  0
  3  4  1  0
  4  5  1  0
  5  6  1  0
  6  7  1  0
  7  8  1  0
  8  9  1  0
  9 10  1  0
 10 11  1  0
 11 12  1  0
 12 13  2  0
 12 14  1  0
 14 15  1  0
 15 16  1  0
 16 17  2  0
 17 18  1  0
 18 19  1  0
 18 20  2  0
 20 21  1  0
 21 22  1  0
 22 23  2  0
 23 24  1  0
 24 25  2  0
 25 26  1  0
 26 27  2  0
 21 28  2  0
 28 29  1  0
 29 30  3  0
 28 16  1  0
 27 22  1  0
  1 31  1  0
  1 32  1  0
  1 33  1  0
  3 34  1  0
  3 35  1  0
  4 36  1  0
  4 37  1  0
  6 38  1  0
  6 39  1  0
  7 40  1  0
  7 41  1  0
  9 42  1  0
  9 43  1  0
 10 44  1  0
 10 45  1  0
 11 46  1  0
 14 47  1  0
 14 48  1  0
 19 49  1  0
 19 50  1  0
 19 51  1  0
 20 52  1  0
 23 53  1  0
 24 54  1  0
 25 55  1  0
 26 56  1  0
 27 57  1  0
M  END
>  <Binding energies>  (1) 
[-7.21]

>  <Ligand effiencies>  (1) 
[-0.23258064516129032]

>  <Interactions>  (1) 
["V-A:PRO:540:CB:4885, V-B:GLU:543:C:9874, V-B:GLU:543:CB:9878, V-A:ASP:366:CG:3213, V-A:PRO:540:CA:4883, V-A:GLU:543:CD:4908, V-A:ILE:538:CD1:4865, V-A:TYR:539:C:4867, V-A:ASP:366:CB:3212, V-A:PRO:540:N:4884, V-A:TYR:531:CZ:4794, V-B:ALA:541:CB:9864, H-A:TYR:484:OH:4348, V-B:GLU:543:CG:9879, V-A:TYR:484:CE1:4345, V-A:TYR:484:CZ:4347, H-A:GLY:454:N:4050, V-B:TYR:539:CD2:9846, V-B:PRO:540:CA:9855, V-B:TYR:539:C:9839, V-B:TYR:539:CE2:9848, V-B:PRO:540:C:9853, V-A:ILE:538:CA:4860, V-A:ILE:369:CD1:3239, V-A:PRO:540:CD:4887, H-A:TYR:539:N:4870, V-A:ILE:369:CG2:3237, V-A:LEU:363:CD1:3189, V-B:GLU:543:CA:9876, H-A:TYR:531:OH:4795, H-B:TYR:539:OH:9850, V-A:ILE:369:CB:3236, V-A:ASP:366:CA:3210, H-A:ASP:366:OD1:3214, H-A:ASP:366:OD2:3215"]

$$$$
4aa_Grossjean_2025
     RDKit          3D

 45 47  0  0  0  0  0  0  0  0999 V2000
  124.9960  126.9570   73.8350 C   0  0  0  0  0  0  0  0  0  0  0  0
  126.3330  126.6780   74.5290 C   0  0  0  0  0  0  0  0  0  0  0  0
  127.2470  126.1260   73.5910 O   0  0  0  0  0  0  0  0  0  0  0  0
  128.1350  126.9130   72.9300 C   0  0  0  0  0  0  0  0  0  0  0  0
  128.6260  127.9390   73.4130 O   0  0  0  0  0  0  0  0  0  0  0  0
  128.4580  126.4140   71.5520 C   0  0  0  0  0  0  0  0  0  0  0  0
  129.4360  125.4230   71.3940 C   0  0  0  0  0  0  0  0  0  0  0  0
  129.7620  124.9430   70.1280 C   0  0  0  0  0  0  0  0  0  0  0  0
  129.1120  125.4370   68.9960 C   0  0  0  0  0  0  0  0  0  0  0  0
  129.5250  124.8890   67.7670 N   0  0  0  0  0  0  0  0  0  0  0  0
  130.2410  125.4440   66.7590 C   0  0  0  0  0  0  0  0  0  0  0  0
  130.6320  126.6110   66.7500 O   0  0  0  0  0  0  0  0  0  0  0  0
  130.5170  124.5580   65.6270 C   0  0  0  0  0  0  0  0  0  0  0  0
  129.5060  123.1380   65.3400 S   0  0  0  0  0  0  0  0  0  0  0  0
  130.4730  122.6710   63.9590 C   0  0  0  0  0  0  0  0  0  0  0  0
  130.1970  121.5820   63.2410 N   0  0  0  0  0  0  0  0  0  0  0  0
  131.0270  121.3300   62.2000 C   0  0  0  0  0  0  0  0  0  0  0  0
  130.6990  120.0830   61.3990 C   0  0  0  0  0  0  0  0  0  0  0  0
  132.1120  122.1360   61.8600 C   0  0  0  0  0  0  0  0  0  0  0  0
  132.3970  123.2800   62.6150 C   0  0  0  0  0  0  0  0  0  0  0  0
  133.5910  124.1290   62.2050 C   0  0  0  0  0  0  0  0  0  0  0  0
  131.5520  123.5740   63.7180 C   0  0  0  0  0  0  0  0  0  0  0  0
  131.5560  124.6380   64.6870 C   0  0  0  0  0  0  0  0  0  0  0  0
  132.4990  125.6360   64.6730 N   0  0  0  0  0  0  0  0  0  0  0  0
  128.1360  126.4340   69.1430 C   0  0  0  0  0  0  0  0  0  0  0  0
  127.8140  126.9150   70.4100 C   0  0  0  0  0  0  0  0  0  0  0  0
  124.2161  127.1197   74.5935 H   0  0  0  0  0  0  0  0  0  0  0  0
  125.0894  127.8550   73.2066 H   0  0  0  0  0  0  0  0  0  0  0  0
  124.7225  126.0966   73.2066 H   0  0  0  0  0  0  0  0  0  0  0  0
  126.7413  127.6175   74.9297 H   0  0  0  0  0  0  0  0  0  0  0  0
  126.1773  125.9655   75.3525 H   0  0  0  0  0  0  0  0  0  0  0  0
  129.9512  125.0203   72.2785 H   0  0  0  0  0  0  0  0  0  0  0  0
  130.5367  124.1696   70.0195 H   0  0  0  0  0  0  0  0  0  0  0  0
  129.2220  123.9370   67.6180 H   0  0  0  0  0  0  0  0  0  0  0  0
  130.4806  119.2525   62.0865 H   0  0  0  0  0  0  0  0  0  0  0  0
  129.8208  120.2749   60.7650 H   0  0  0  0  0  0  0  0  0  0  0  0
  131.5580  119.8179   60.7650 H   0  0  0  0  0  0  0  0  0  0  0  0
  132.7441  121.8734   60.9989 H   0  0  0  0  0  0  0  0  0  0  0  0
  134.1065  124.4956   63.1049 H   0  0  0  0  0  0  0  0  0  0  0  0
  134.2854  123.5207   61.6068 H   0  0  0  0  0  0  0  0  0  0  0  0
  133.2444  124.9846   61.6068 H   0  0  0  0  0  0  0  0  0  0  0  0
  133.3380  125.5680   64.1150 H   0  0  0  0  0  0  0  0  0  0  0  0
  132.3850  126.4740   65.2250 H   0  0  0  0  0  0  0  0  0  0  0  0
  127.6242  126.8365   68.2564 H   0  0  0  0  0  0  0  0  0  0  0  0
  127.0467  127.6959   70.5167 H   0  0  0  0  0  0  0  0  0  0  0  0
  1  2  1  0
  2  3  1  0
  3  4  1  0
  4  5  2  0
  4  6  1  0
  6  7  2  0
  7  8  1  0
  8  9  2  0
  9 10  1  0
 10 11  1  0
 11 12  2  0
 11 13  1  0
 13 14  1  0
 14 15  1  0
 15 16  2  0
 16 17  1  0
 17 18  1  0
 17 19  2  0
 19 20  1  0
 20 21  1  0
 20 22  2  0
 22 23  1  0
 23 24  1  0
  9 25  1  0
 25 26  2  0
 26  6  1  0
 23 13  2  0
 22 15  1  0
  1 27  1  0
  1 28  1  0
  1 29  1  0
  2 30  1  0
  2 31  1  0
  7 32  1  0
  8 33  1  0
 10 34  1  0
 18 35  1  0
 18 36  1  0
 18 37  1  0
 19 38  1  0
 21 39  1  0
 21 40  1  0
 21 41  1  0
 24 42  1  0
 24 43  1  0
 25 44  1  0
 26 45  1  0
M  END
>  <Binding energies>  (1) 
[-7.39]

>  <Ligand effiencies>  (1) 
[-0.25482758620689655]

>  <Interactions>  (1) 
["V-B:GLU:543:C:9874, V-B:GLU:543:CB:9878, V-B:GLY:544:C:9884, H-A:GLU:543:OE2:4910, V-B:HIS:456:CE1:9040, V-A:GLU:543:CD:4908, V-A:ARG:545:CZ:4926, V-B:ALA:541:CB:9864, H-A:TYR:484:OH:4348, V-A:HIS:456:CE1:4069, V-B:GLU:543:CG:9879, V-A:LEU:475:CD1:4258, V-A:TYR:484:CE1:4345, V-A:TYR:484:CZ:4347, V-A:HIS:456:CG:4066, H-A:HIS:456:NE2:4070, V-A:HIS:456:CD2:4068, H-A:LYS:547:NZ:4951, H-B:LYS:547:NZ:9923, V-B:GLU:543:CA:9876, V-B:HIS:456:CB:9036, V-B:LYS:547:CD:9921, V-B:LYS:547:CE:9922, H-B:GLU:543:O:9875, V-B:ARG:545:C:9889"]

$$$$
4ab_Grossjean_2025
     RDKit          3D

 42 44  0  0  0  0  0  0  0  0999 V2000
  127.1590  126.8200   67.9180 C   0  0  0  0  0  0  0  0  0  0  0  0
  127.5510  127.9970   67.2270 O   0  0  0  0  0  0  0  0  0  0  0  0
  126.6650  128.6880   66.4640 C   0  0  0  0  0  0  0  0  0  0  0  0
  125.4760  128.8330   66.7660 O   0  0  0  0  0  0  0  0  0  0  0  0
  127.2740  129.2510   65.2130 C   0  0  0  0  0  0  0  0  0  0  0  0
  127.5810  128.3870   64.1530 C   0  0  0  0  0  0  0  0  0  0  0  0
  128.1480  128.8790   62.9800 C   0  0  0  0  0  0  0  0  0  0  0  0
  128.4100  130.2420   62.8390 C   0  0  0  0  0  0  0  0  0  0  0  0
  128.9900  130.6280   61.6150 N   0  0  0  0  0  0  0  0  0  0  0  0
  130.0220  131.4710   61.3650 C   0  0  0  0  0  0  0  0  0  0  0  0
  130.6260  132.1030   62.2320 O   0  0  0  0  0  0  0  0  0  0  0  0
  130.3800  131.6160   59.9530 C   0  0  0  0  0  0  0  0  0  0  0  0
  129.3620  132.5670   58.8690 S   0  0  0  0  0  0  0  0  0  0  0  0
  130.3960  132.2070   57.5050 C   0  0  0  0  0  0  0  0  0  0  0  0
  130.1420  132.6770   56.2830 N   0  0  0  0  0  0  0  0  0  0  0  0
  131.0200  132.3210   55.3140 C   0  0  0  0  0  0  0  0  0  0  0  0
  130.7100  132.8620   53.9300 C   0  0  0  0  0  0  0  0  0  0  0  0
  132.1360  131.5180   55.5360 C   0  0  0  0  0  0  0  0  0  0  0  0
  132.4000  131.0260   56.8200 C   0  0  0  0  0  0  0  0  0  0  0  0
  133.6300  130.1520   57.0110 C   0  0  0  0  0  0  0  0  0  0  0  0
  131.4990  131.3740   57.8620 C   0  0  0  0  0  0  0  0  0  0  0  0
  131.4620  131.0470   59.2620 C   0  0  0  0  0  0  0  0  0  0  0  0
  132.4110  130.2520   59.8520 N   0  0  0  0  0  0  0  0  0  0  0  0
  128.1110  131.1140   63.8960 C   0  0  0  0  0  0  0  0  0  0  0  0
  127.5460  130.6200   65.0690 C   0  0  0  0  0  0  0  0  0  0  0  0
  127.2172  126.9949   69.0024 H   0  0  0  0  0  0  0  0  0  0  0  0
  126.1259  126.5605   67.6434 H   0  0  0  0  0  0  0  0  0  0  0  0
  127.8302  125.9929   67.6434 H   0  0  0  0  0  0  0  0  0  0  0  0
  127.3723  127.3112   64.2484 H   0  0  0  0  0  0  0  0  0  0  0  0
  128.3909  128.1882   62.1591 H   0  0  0  0  0  0  0  0  0  0  0  0
  128.5530  130.2160   60.8050 H   0  0  0  0  0  0  0  0  0  0  0  0
  130.1650  133.8131   54.0217 H   0  0  0  0  0  0  0  0  0  0  0  0
  131.6494  133.0290   53.3827 H   0  0  0  0  0  0  0  0  0  0  0  0
  130.0909  132.1359   53.3827 H   0  0  0  0  0  0  0  0  0  0  0  0
  132.8100  131.2703   54.7027 H   0  0  0  0  0  0  0  0  0  0  0  0
  133.8204  130.0167   58.0859 H   0  0  0  0  0  0  0  0  0  0  0  0
  133.4594  129.1714   56.5426 H   0  0  0  0  0  0  0  0  0  0  0  0
  134.4998  130.6357   56.5426 H   0  0  0  0  0  0  0  0  0  0  0  0
  132.9360  129.5670   59.3270 H   0  0  0  0  0  0  0  0  0  0  0  0
  132.6130  130.3220   60.8410 H   0  0  0  0  0  0  0  0  0  0  0  0
  128.3230  132.1890   63.7984 H   0  0  0  0  0  0  0  0  0  0  0  0
  127.3103  131.3108   65.8920 H   0  0  0  0  0  0  0  0  0  0  0  0
  1  2  1  0
  2  3  1  0
  3  4  2  0
  3  5  1  0
  5  6  2  0
  6  7  1  0
  7  8  2  0
  8  9  1  0
  9 10  1  0
 10 11  2  0
 10 12  1  0
 12 13  1  0
 13 14  1  0
 14 15  2  0
 15 16  1  0
 16 17  1  0
 16 18  2  0
 18 19  1  0
 19 20  1  0
 19 21  2  0
 21 22  1  0
 22 23  1  0
  8 24  1  0
 24 25  2  0
 25  5  1  0
 22 12  2  0
 21 14  1  0
  1 26  1  0
  1 27  1  0
  1 28  1  0
  6 29  1  0
  7 30  1  0
  9 31  1  0
 17 32  1  0
 17 33  1  0
 17 34  1  0
 18 35  1  0
 20 36  1  0
 20 37  1  0
 20 38  1  0
 23 39  1  0
 23 40  1  0
 24 41  1  0
 25 42  1  0
M  END
>  <Binding energies>  (1) 
[-7.56]

>  <Ligand effiencies>  (1) 
[-0.26999999999999996]

>  <Interactions>  (1) 
["V-A:PRO:540:CB:4885, V-B:GLU:543:CB:9878, V-A:LEU:363:CA:3185, V-B:HIS:456:CE1:9040, H-A:GLU:543:OE1:4909, V-A:ASP:366:CG:3213, V-A:PRO:540:CA:4883, V-B:GLU:543:CD:9880, V-A:ILE:538:CD1:4865, V-A:TYR:539:C:4867, V-A:ASP:366:CB:3212, V-A:TYR:531:CE2:4793, V-A:PRO:540:N:4884, V-A:TYR:531:CZ:4794, V-A:ILE:538:CA:4860, H-A:TYR:539:N:4870, V-A:LEU:363:CD1:3189, H-B:TYR:484:OH:9319, V-A:GLU:543:CB:4906, H-B:ARG:545:NE:9896, V-B:TYR:484:CZ:9318, V-A:ILE:538:C:4858, H-A:ALA:541:N:4891, H-A:ASP:366:OD1:3214, V-A:ILE:538:CB:4862, V-A:VAL:537:C:4850"]

$$$$
4ac_Grossjean_2025
     RDKit          3D

 40 42  0  0  0  0  0  0  0  0999 V2000
  124.1900  129.5060   66.6210 C   0  0  0  0  0  0  0  0  0  0  0  0
  123.9410  130.2980   65.4630 O   0  0  0  0  0  0  0  0  0  0  0  0
  124.9450  130.4600   64.5290 C   0  0  0  0  0  0  0  0  0  0  0  0
  124.6070  131.1520   63.3660 C   0  0  0  0  0  0  0  0  0  0  0  0
  125.5540  131.3660   62.3680 C   0  0  0  0  0  0  0  0  0  0  0  0
  126.8580  130.8950   62.5250 C   0  0  0  0  0  0  0  0  0  0  0  0
  127.7420  131.1460   61.4580 N   0  0  0  0  0  0  0  0  0  0  0  0
  128.9930  131.6640   61.4860 C   0  0  0  0  0  0  0  0  0  0  0  0
  129.5590  132.0460   62.5120 O   0  0  0  0  0  0  0  0  0  0  0  0
  129.6620  131.7610   60.1860 C   0  0  0  0  0  0  0  0  0  0  0  0
  128.9020  132.6340   58.8540 S   0  0  0  0  0  0  0  0  0  0  0  0
  130.2450  132.2790   57.7920 C   0  0  0  0  0  0  0  0  0  0  0  0
  130.2770  132.7030   56.5280 N   0  0  0  0  0  0  0  0  0  0  0  0
  131.3750  132.3590   55.8120 C   0  0  0  0  0  0  0  0  0  0  0  0
  131.3920  132.8510   54.3770 C   0  0  0  0  0  0  0  0  0  0  0  0
  132.4300  131.6060   56.3250 C   0  0  0  0  0  0  0  0  0  0  0  0
  132.3930  131.1620   57.6520 C   0  0  0  0  0  0  0  0  0  0  0  0
  133.5690  130.3450   58.1650 C   0  0  0  0  0  0  0  0  0  0  0  0
  131.2580  131.5060   58.4340 C   0  0  0  0  0  0  0  0  0  0  0  0
  130.9010  131.2260   59.7990 C   0  0  0  0  0  0  0  0  0  0  0  0
  131.7120  130.4990   60.6330 N   0  0  0  0  0  0  0  0  0  0  0  0
  127.2030  130.1870   63.6850 C   0  0  0  0  0  0  0  0  0  0  0  0
  126.2540  129.9760   64.6820 C   0  0  0  0  0  0  0  0  0  0  0  0
  124.0013  130.1062   67.5233 H   0  0  0  0  0  0  0  0  0  0  0  0
  123.5237  128.6308   66.6169 H   0  0  0  0  0  0  0  0  0  0  0  0
  125.2373  129.1695   66.6169 H   0  0  0  0  0  0  0  0  0  0  0  0
  123.5830  131.5321   63.2361 H   0  0  0  0  0  0  0  0  0  0  0  0
  125.2733  131.9081   61.4529 H   0  0  0  0  0  0  0  0  0  0  0  0
  127.3670  130.9350   60.5440 H   0  0  0  0  0  0  0  0  0  0  0  0
  131.4300  133.9503   54.3667 H   0  0  0  0  0  0  0  0  0  0  0  0
  132.2768  132.4487   53.8619 H   0  0  0  0  0  0  0  0  0  0  0  0
  130.4816  132.5107   53.8619 H   0  0  0  0  0  0  0  0  0  0  0  0
  133.2918  131.3607   55.6869 H   0  0  0  0  0  0  0  0  0  0  0  0
  133.5652  130.3476   59.2650 H   0  0  0  0  0  0  0  0  0  0  0  0
  133.4837  129.3107   57.8005 H   0  0  0  0  0  0  0  0  0  0  0  0
  134.5086  130.7859   57.8005 H   0  0  0  0  0  0  0  0  0  0  0  0
  132.4720  129.9350   60.2800 H   0  0  0  0  0  0  0  0  0  0  0  0
  131.5760  130.5050   61.6340 H   0  0  0  0  0  0  0  0  0  0  0  0
  128.2245  129.7978   63.8076 H   0  0  0  0  0  0  0  0  0  0  0  0
  126.5314  129.4273   65.5941 H   0  0  0  0  0  0  0  0  0  0  0  0
  1  2  1  0
  2  3  1  0
  3  4  2  0
  4  5  1  0
  5  6  2  0
  6  7  1  0
  7  8  1  0
  8  9  2  0
  8 10  1  0
 10 11  1  0
 11 12  1  0
 12 13  2  0
 13 14  1  0
 14 15  1  0
 14 16  2  0
 16 17  1  0
 17 18  1  0
 17 19  2  0
 19 20  1  0
 20 21  1  0
  6 22  1  0
 22 23  2  0
 23  3  1  0
 20 10  2  0
 19 12  1  0
  1 24  1  0
  1 25  1  0
  1 26  1  0
  4 27  1  0
  5 28  1  0
  7 29  1  0
 15 30  1  0
 15 31  1  0
 15 32  1  0
 16 33  1  0
 18 34  1  0
 18 35  1  0
 18 36  1  0
 21 37  1  0
 21 38  1  0
 22 39  1  0
 23 40  1  0
M  END
>  <Binding energies>  (1) 
[-7.49]

>  <Ligand effiencies>  (1) 
[-0.28807692307692306]

>  <Interactions>  (1) 
["V-B:ARG:545:CD:9895, V-A:PRO:540:CB:4885, V-A:LEU:363:CA:3185, V-B:HIS:456:CE1:9040, H-A:GLU:543:OE1:4909, V-A:ASP:366:CG:3213, V-A:PRO:540:CA:4883, V-B:ARG:545:CG:9894, V-A:TYR:539:CD2:4874, V-A:TYR:539:CE2:4876, V-A:ILE:538:CD1:4865, V-A:TYR:539:C:4867, V-A:ASP:366:CB:3212, V-A:TYR:531:CE2:4793, V-A:PRO:540:N:4884, V-B:ARG:545:CZ:9898, V-B:GLY:454:CA:9020, V-A:ILE:538:CA:4860, V-A:PRO:540:CD:4887, H-A:TYR:539:N:4870, V-A:ILE:538:CG2:4863, V-A:LEU:363:CD1:3189, H-B:GLY:454:N:9021, H-B:TYR:484:OH:9319, H-B:ARG:545:NE:9896, V-A:ILE:538:C:4858, H-A:ALA:541:N:4891, H-A:ASP:366:OD1:3214, V-A:ILE:538:CB:4862, V-A:ILE:538:CG1:4864"]

$$$$
4ad_Grossjean_2025
     RDKit          3D

 36 38  0  0  0  0  0  0  0  0999 V2000
  130.6670  132.8770   53.8930 C   0  0  0  0  0  0  0  0  0  0  0  0
  131.0010  132.3270   55.2670 C   0  0  0  0  0  0  0  0  0  0  0  0
  132.1070  131.5010   55.4600 C   0  0  0  0  0  0  0  0  0  0  0  0
  132.3950  131.0040   56.7370 C   0  0  0  0  0  0  0  0  0  0  0  0
  133.6110  130.1050   56.8980 C   0  0  0  0  0  0  0  0  0  0  0  0
  131.5280  131.3700   57.8020 C   0  0  0  0  0  0  0  0  0  0  0  0
  131.5240  131.0490   59.2040 C   0  0  0  0  0  0  0  0  0  0  0  0
  132.4830  130.2490   59.7730 N   0  0  0  0  0  0  0  0  0  0  0  0
  130.4630  131.6260   59.9190 C   0  0  0  0  0  0  0  0  0  0  0  0
  130.1480  131.4980   61.3430 C   0  0  0  0  0  0  0  0  0  0  0  0
  130.8310  132.0730   62.1920 O   0  0  0  0  0  0  0  0  0  0  0  0
  129.0700  130.7270   61.6330 N   0  0  0  0  0  0  0  0  0  0  0  0
  128.5330  130.3720   62.8850 C   0  0  0  0  0  0  0  0  0  0  0  0
  128.5040  131.3860   63.8470 C   0  0  0  0  0  0  0  0  0  0  0  0
  127.9830  131.1370   65.1140 C   0  0  0  0  0  0  0  0  0  0  0  0
  127.4820  129.8740   65.4180 C   0  0  0  0  0  0  0  0  0  0  0  0
  127.4930  128.8590   64.4640 C   0  0  0  0  0  0  0  0  0  0  0  0
  128.0140  129.1050   63.1970 C   0  0  0  0  0  0  0  0  0  0  0  0
  129.4350  132.5940   58.8610 S   0  0  0  0  0  0  0  0  0  0  0  0
  130.4290  132.2200   57.4720 C   0  0  0  0  0  0  0  0  0  0  0  0
  130.1530  132.6960   56.2570 N   0  0  0  0  0  0  0  0  0  0  0  0
  130.0988  133.8127   54.0008 H   0  0  0  0  0  0  0  0  0  0  0  0
  131.5977  133.0747   53.3410 H   0  0  0  0  0  0  0  0  0  0  0  0
  130.0624  132.1423   53.3410 H   0  0  0  0  0  0  0  0  0  0  0  0
  132.7535  131.2396   54.6093 H   0  0  0  0  0  0  0  0  0  0  0  0
  133.8159  129.9535   57.9681 H   0  0  0  0  0  0  0  0  0  0  0  0
  133.4144  129.1334   56.4212 H   0  0  0  0  0  0  0  0  0  0  0  0
  134.4823  130.5778   56.4212 H   0  0  0  0  0  0  0  0  0  0  0  0
  132.4630  130.0030   60.7520 H   0  0  0  0  0  0  0  0  0  0  0  0
  133.2450  129.8710   59.2250 H   0  0  0  0  0  0  0  0  0  0  0  0
  128.5590  130.3630   60.8420 H   0  0  0  0  0  0  0  0  0  0  0  0
  128.8944  132.3848   63.6019 H   0  0  0  0  0  0  0  0  0  0  0  0
  127.9673  131.9346   65.8714 H   0  0  0  0  0  0  0  0  0  0  0  0
  127.0740  129.6760   66.4202 H   0  0  0  0  0  0  0  0  0  0  0  0
  127.0909  127.8655   64.7114 H   0  0  0  0  0  0  0  0  0  0  0  0
  128.0192  128.3069   62.4400 H   0  0  0  0  0  0  0  0  0  0  0  0
  1  2  1  0
  2  3  2  0
  3  4  1  0
  4  5  1  0
  4  6  2  0
  6  7  1  0
  7  8  1  0
  7  9  2  0
  9 10  1  0
 10 11  2  0
 10 12  1  0
 12 13  1  0
 13 14  2  0
 14 15  1  0
 15 16  2  0
 16 17  1  0
 17 18  2  0
  9 19  1  0
 19 20  1  0
 20 21  2  0
 21  2  1  0
 20  6  1  0
 18 13  1  0
  1 22  1  0
  1 23  1  0
  1 24  1  0
  3 25  1  0
  5 26  1  0
  5 27  1  0
  5 28  1  0
  8 29  1  0
  8 30  1  0
 12 31  1  0
 14 32  1  0
 15 33  1  0
 16 34  1  0
 17 35  1  0
 18 36  1  0
M  END
>  <Binding energies>  (1) 
[-7.23]

>  <Ligand effiencies>  (1) 
[-0.30125]

>  <Interactions>  (1) 
["V-A:PRO:540:CB:4885, V-A:ALA:541:CB:4892, V-A:LEU:363:CA:3185, H-A:GLU:543:OE1:4909, V-A:ASP:366:CG:3213, V-A:PRO:540:CA:4883, V-A:GLU:543:CD:4908, V-A:ILE:538:CD1:4865, V-A:TYR:539:C:4867, V-A:ASP:366:CB:3212, V-A:TYR:531:CE2:4793, V-A:PRO:540:N:4884, V-A:TYR:531:CZ:4794, V-A:ILE:538:CA:4860, H-A:TYR:539:N:4870, V-A:LEU:363:CD1:3189, V-A:GLU:543:CB:4906, V-B:TYR:484:CZ:9318, V-B:TYR:484:CE1:9316, V-A:ILE:538:C:4858, H-A:ALA:541:N:4891, H-A:ASP:366:OD1:3214, V-A:ILE:538:CB:4862, V-A:VAL:537:C:4850"]

$$$$
4ae_Grossjean_2025
     RDKit          3D

 38 40  0  0  0  0  0  0  0  0999 V2000
  127.9500  119.7890   72.8730 C   0  0  0  0  0  0  0  0  0  0  0  0
  128.9980  120.8770   72.7450 C   0  0  0  0  0  0  0  0  0  0  0  0
  130.1290  120.9030   73.5640 C   0  0  0  0  0  0  0  0  0  0  0  0
  131.0480  121.9390   73.3940 C   0  0  0  0  0  0  0  0  0  0  0  0
  130.8160  122.9140   72.4210 C   0  0  0  0  0  0  0  0  0  0  0  0
  129.6670  122.8230   71.6280 C   0  0  0  0  0  0  0  0  0  0  0  0
  129.4790  123.8440   70.6800 N   0  0  0  0  0  0  0  0  0  0  0  0
  129.5980  125.1850   70.8440 C   0  0  0  0  0  0  0  0  0  0  0  0
  129.8990  125.7220   71.9110 O   0  0  0  0  0  0  0  0  0  0  0  0
  129.3360  125.9880   69.6470 C   0  0  0  0  0  0  0  0  0  0  0  0
  128.7720  127.6530   69.7970 S   0  0  0  0  0  0  0  0  0  0  0  0
  128.6840  127.8310   68.0600 C   0  0  0  0  0  0  0  0  0  0  0  0
  128.2830  128.9650   67.4860 N   0  0  0  0  0  0  0  0  0  0  0  0
  128.2550  128.9700   66.1320 C   0  0  0  0  0  0  0  0  0  0  0  0
  127.7890  130.2690   65.4990 C   0  0  0  0  0  0  0  0  0  0  0  0
  128.6170  127.8780   65.3450 C   0  0  0  0  0  0  0  0  0  0  0  0
  129.0380  126.6880   65.9510 C   0  0  0  0  0  0  0  0  0  0  0  0
  129.4180  125.5230   65.0500 C   0  0  0  0  0  0  0  0  0  0  0  0
  129.0790  126.6450   67.3710 C   0  0  0  0  0  0  0  0  0  0  0  0
  129.4480  125.6100   68.2990 C   0  0  0  0  0  0  0  0  0  0  0  0
  129.8670  124.3700   67.8870 N   0  0  0  0  0  0  0  0  0  0  0  0
  128.7600  121.8160   71.7940 N   0  0  0  0  0  0  0  0  0  0  0  0
  127.7573  119.5889   73.9373 H   0  0  0  0  0  0  0  0  0  0  0  0
  127.0193  120.1174   72.3873 H   0  0  0  0  0  0  0  0  0  0  0  0
  128.3130  118.8712   72.3873 H   0  0  0  0  0  0  0  0  0  0  0  0
  130.2914  120.1253   74.3248 H   0  0  0  0  0  0  0  0  0  0  0  0
  131.9496  121.9877   74.0223 H   0  0  0  0  0  0  0  0  0  0  0  0
  131.5267  123.7417   72.2803 H   0  0  0  0  0  0  0  0  0  0  0  0
  129.1650  123.5270   69.7750 H   0  0  0  0  0  0  0  0  0  0  0  0
  127.5305  130.9897   66.2888 H   0  0  0  0  0  0  0  0  0  0  0  0
  128.5949  130.6825   64.8748 H   0  0  0  0  0  0  0  0  0  0  0  0
  126.9041  130.0759   64.8748 H   0  0  0  0  0  0  0  0  0  0  0  0
  128.5720  127.9511   64.2484 H   0  0  0  0  0  0  0  0  0  0  0  0
  129.7001  124.6581   65.6683 H   0  0  0  0  0  0  0  0  0  0  0  0
  128.5605  125.2557   64.4150 H   0  0  0  0  0  0  0  0  0  0  0  0
  130.2682  125.8127   64.4150 H   0  0  0  0  0  0  0  0  0  0  0  0
  129.2870  123.5490   67.9880 H   0  0  0  0  0  0  0  0  0  0  0  0
  130.7760  124.2380   67.4640 H   0  0  0  0  0  0  0  0  0  0  0  0
  1  2  1  0
  2  3  2  0
  3  4  1  0
  4  5  2  0
  5  6  1  0
  6  7  1  0
  7  8  1  0
  8  9  2  0
  8 10  1  0
 10 11  1  0
 11 12  1  0
 12 13  2  0
 13 14  1  0
 14 15  1  0
 14 16  2  0
 16 17  1  0
 17 18  1  0
 17 19  2  0
 19 20  1  0
 20 21  1  0
  6 22  2  0
 22  2  1  0
 20 10  2  0
 19 12  1  0
  1 23  1  0
  1 24  1  0
  1 25  1  0
  3 26  1  0
  4 27  1  0
  5 28  1  0
  7 29  1  0
 15 30  1  0
 15 31  1  0
 15 32  1  0
 16 33  1  0
 18 34  1  0
 18 35  1  0
 18 36  1  0
 21 37  1  0
 21 38  1  0
M  END
>  <Binding energies>  (1) 
[-7.34]

>  <Ligand effiencies>  (1) 
[-0.29359999999999997]

>  <Interactions>  (1) 
["V-B:GLU:543:C:9874, V-B:GLU:543:CB:9878, V-B:HIS:456:CE1:9040, V-B:GLU:543:CD:9880, V-A:GLU:543:CD:4908, H-A:TYR:484:OH:4348, V-A:HIS:456:CE1:4069, V-B:GLU:543:CG:9879, V-A:TYR:484:CE1:4345, V-A:TYR:484:CZ:4347, H-A:HIS:456:NE2:4070, V-A:HIS:456:CD2:4068, V-A:ASP:473:CB:4239, V-A:ASP:473:CG:4240, H-B:LYS:547:NZ:9923, H-B:HIS:456:NE2:9041, V-B:GLU:543:CA:9876, V-A:TYR:484:CD2:4344, V-A:GLU:543:CB:4906, V-A:TYR:484:CD1:4343, V-A:TYR:484:CG:4342, V-A:TYR:484:CB:4341, V-B:TYR:484:CZ:9318, V-A:TYR:484:CE2:4346, V-B:LYS:547:CE:9922, H-B:GLU:543:O:9875, H-A:HIS:456:ND1:4067"]

$$$$
4af_Grossjean_2025
     RDKit          3D

 35 37  0  0  0  0  0  0  0  0999 V2000
  130.6680  132.8640   53.9170 C   0  0  0  0  0  0  0  0  0  0  0  0
  130.9850  132.3190   55.2980 C   0  0  0  0  0  0  0  0  0  0  0  0
  132.0950  131.5040   55.5100 C   0  0  0  0  0  0  0  0  0  0  0  0
  132.3660  131.0100   56.7920 C   0  0  0  0  0  0  0  0  0  0  0  0
  133.5880  130.1240   56.9730 C   0  0  0  0  0  0  0  0  0  0  0  0
  131.4780  131.3680   57.8420 C   0  0  0  0  0  0  0  0  0  0  0  0
  131.4540  131.0450   59.2440 C   0  0  0  0  0  0  0  0  0  0  0  0
  132.4070  130.2500   59.8280 N   0  0  0  0  0  0  0  0  0  0  0  0
  130.3780  131.6150   59.9420 C   0  0  0  0  0  0  0  0  0  0  0  0
  130.0320  131.4730   61.3570 C   0  0  0  0  0  0  0  0  0  0  0  0
  130.6900  132.0500   62.2250 O   0  0  0  0  0  0  0  0  0  0  0  0
  128.9550  130.6920   61.6150 N   0  0  0  0  0  0  0  0  0  0  0  0
  128.3960  130.3170   62.8520 C   0  0  0  0  0  0  0  0  0  0  0  0
  127.8370  129.0600   63.1470 C   0  0  0  0  0  0  0  0  0  0  0  0
  127.2980  128.8240   64.4120 C   0  0  0  0  0  0  0  0  0  0  0  0
  127.3270  129.8530   65.3550 C   0  0  0  0  0  0  0  0  0  0  0  0
  127.8530  131.0760   65.0930 N   0  0  0  0  0  0  0  0  0  0  0  0
  128.3720  131.2910   63.8580 C   0  0  0  0  0  0  0  0  0  0  0  0
  129.3570  132.5740   58.8660 S   0  0  0  0  0  0  0  0  0  0  0  0
  130.3780  132.2080   57.4940 C   0  0  0  0  0  0  0  0  0  0  0  0
  130.1170  132.6810   56.2750 N   0  0  0  0  0  0  0  0  0  0  0  0
  130.1171  133.8111   54.0142 H   0  0  0  0  0  0  0  0  0  0  0  0
  131.6050  133.0395   53.3681 H   0  0  0  0  0  0  0  0  0  0  0  0
  130.0522  132.1363   53.3681 H   0  0  0  0  0  0  0  0  0  0  0  0
  132.7583  131.2487   54.6705 H   0  0  0  0  0  0  0  0  0  0  0  0
  133.7828  129.9828   58.0464 H   0  0  0  0  0  0  0  0  0  0  0  0
  133.4055  129.1469   56.5018 H   0  0  0  0  0  0  0  0  0  0  0  0
  134.4599  130.6012   56.5018 H   0  0  0  0  0  0  0  0  0  0  0  0
  132.3800  130.0180   60.8110 H   0  0  0  0  0  0  0  0  0  0  0  0
  133.1700  129.8640   59.2890 H   0  0  0  0  0  0  0  0  0  0  0  0
  128.4700  130.3240   60.8100 H   0  0  0  0  0  0  0  0  0  0  0  0
  127.8250  128.2675   62.3843 H   0  0  0  0  0  0  0  0  0  0  0  0
  126.8590  127.8467   64.6614 H   0  0  0  0  0  0  0  0  0  0  0  0
  126.9053  129.6642   66.3533 H   0  0  0  0  0  0  0  0  0  0  0  0
  128.7958  132.2814   63.6354 H   0  0  0  0  0  0  0  0  0  0  0  0
  1  2  1  0
  2  3  2  0
  3  4  1  0
  4  5  1  0
  4  6  2  0
  6  7  1  0
  7  8  1  0
  7  9  2  0
  9 10  1  0
 10 11  2  0
 10 12  1  0
 12 13  1  0
 13 14  2  0
 14 15  1  0
 15 16  2  0
 16 17  1  0
 17 18  2  0
  9 19  1  0
 19 20  1  0
 20 21  2  0
 21  2  1  0
 20  6  1  0
 18 13  1  0
  1 22  1  0
  1 23  1  0
  1 24  1  0
  3 25  1  0
  5 26  1  0
  5 27  1  0
  5 28  1  0
  8 29  1  0
  8 30  1  0
 12 31  1  0
 14 32  1  0
 15 33  1  0
 16 34  1  0
 18 35  1  0
M  END
>  <Binding energies>  (1) 
[-6.98]

>  <Ligand effiencies>  (1) 
[-0.29083333333333333]

>  <Interactions>  (1) 
["V-A:PRO:540:CB:4885, V-A:ALA:541:CB:4892, V-A:LEU:363:CA:3185, H-A:GLU:543:OE1:4909, V-A:ASP:366:CG:3213, V-A:PRO:540:CA:4883, V-A:GLU:543:CD:4908, V-A:ILE:538:CD1:4865, V-A:TYR:539:C:4867, V-A:ASP:366:CB:3212, V-A:TYR:531:CE2:4793, V-A:PRO:540:N:4884, V-A:TYR:531:CZ:4794, V-A:ILE:538:CA:4860, H-A:TYR:539:N:4870, V-A:LEU:363:CD1:3189, H-B:TYR:484:OH:9319, V-A:GLU:543:CB:4906, V-A:ILE:538:C:4858, H-A:ALA:541:N:4891, H-A:ASP:366:OD1:3214, V-A:ILE:538:CB:4862, V-A:VAL:537:C:4850"]

$$$$
4ag_Grossjean_2025
     RDKit          3D

 39 41  0  0  0  0  0  0  0  0999 V2000
  133.2690  125.8910   75.9900 C   0  0  0  0  0  0  0  0  0  0  0  0
  132.2870  125.5110   74.8970 C   0  0  0  0  0  0  0  0  0  0  0  0
  132.2660  124.2200   74.3700 C   0  0  0  0  0  0  0  0  0  0  0  0
  131.3520  123.8900   73.3630 C   0  0  0  0  0  0  0  0  0  0  0  0
  131.3660  122.4690   72.8210 C   0  0  0  0  0  0  0  0  0  0  0  0
  130.4670  124.9060   72.9120 C   0  0  0  0  0  0  0  0  0  0  0  0
  129.4280  124.9150   71.9180 C   0  0  0  0  0  0  0  0  0  0  0  0
  129.1100  123.8030   71.1790 N   0  0  0  0  0  0  0  0  0  0  0  0
  128.7840  126.1530   71.7790 C   0  0  0  0  0  0  0  0  0  0  0  0
  127.6870  126.5110   70.8800 C   0  0  0  0  0  0  0  0  0  0  0  0
  126.8140  127.3130   71.2190 O   0  0  0  0  0  0  0  0  0  0  0  0
  127.6820  125.9000   69.6760 N   0  0  0  0  0  0  0  0  0  0  0  0
  126.7010  126.1250   68.6160 C   0  0  0  0  0  0  0  0  0  0  0  0
  127.0300  127.3050   67.7080 C   0  0  0  0  0  0  0  0  0  0  0  0
  125.9970  128.0170   67.0910 C   0  0  0  0  0  0  0  0  0  0  0  0
  126.2940  129.1110   66.2820 C   0  0  0  0  0  0  0  0  0  0  0  0
  127.6210  129.4960   66.1000 C   0  0  0  0  0  0  0  0  0  0  0  0
  128.6530  128.8000   66.7240 C   0  0  0  0  0  0  0  0  0  0  0  0
  128.3570  127.7070   67.5340 C   0  0  0  0  0  0  0  0  0  0  0  0
  129.4470  127.3480   72.8940 S   0  0  0  0  0  0  0  0  0  0  0  0
  130.5890  126.1860   73.5320 C   0  0  0  0  0  0  0  0  0  0  0  0
  131.4580  126.5030   74.4930 N   0  0  0  0  0  0  0  0  0  0  0  0
  132.8097  125.7133   76.9736 H   0  0  0  0  0  0  0  0  0  0  0  0
  134.1787  125.2800   75.8943 H   0  0  0  0  0  0  0  0  0  0  0  0
  133.5304  126.9552   75.8943 H   0  0  0  0  0  0  0  0  0  0  0  0
  132.9679  123.4610   74.7459 H   0  0  0  0  0  0  0  0  0  0  0  0
  131.3730  121.7569   73.6593 H   0  0  0  0  0  0  0  0  0  0  0  0
  130.4695  122.3024   72.2058 H   0  0  0  0  0  0  0  0  0  0  0  0
  132.2657  122.3201   72.2058 H   0  0  0  0  0  0  0  0  0  0  0  0
  128.1810  123.6560   70.8110 H   0  0  0  0  0  0  0  0  0  0  0  0
  129.8000  123.0930   70.9740 H   0  0  0  0  0  0  0  0  0  0  0  0
  128.4590  125.2990   69.4430 H   0  0  0  0  0  0  0  0  0  0  0  0
  126.6456  125.2172   67.9973 H   0  0  0  0  0  0  0  0  0  0  0  0
  125.7464  126.3594   69.1098 H   0  0  0  0  0  0  0  0  0  0  0  0
  124.9509  127.7134   67.2444 H   0  0  0  0  0  0  0  0  0  0  0  0
  125.4845  129.6690   65.7887 H   0  0  0  0  0  0  0  0  0  0  0  0
  127.8553  130.3576   65.4575 H   0  0  0  0  0  0  0  0  0  0  0  0
  129.6975  129.1123   66.5776 H   0  0  0  0  0  0  0  0  0  0  0  0
  129.1678  127.1598   68.0371 H   0  0  0  0  0  0  0  0  0  0  0  0
  1  2  1  0
  2  3  2  0
  3  4  1  0
  4  5  1  0
  4  6  2  0
  6  7  1  0
  7  8  1  0
  7  9  2  0
  9 10  1  0
 10 11  2  0
 10 12  1  0
 12 13  1  0
 13 14  1  0
 14 15  2  0
 15 16  1  0
 16 17  2  0
 17 18  1  0
 18 19  2  0
  9 20  1  0
 20 21  1  0
 21 22  2  0
 22  2  1  0
 21  6  1  0
 19 14  1  0
  1 23  1  0
  1 24  1  0
  1 25  1  0
  3 26  1  0
  5 27  1  0
  5 28  1  0
  5 29  1  0
  8 30  1  0
  8 31  1  0
 12 32  1  0
 13 33  1  0
 13 34  1  0
 15 35  1  0
 16 36  1  0
 17 37  1  0
 18 38  1  0
 19 39  1  0
M  END
>  <Binding energies>  (1) 
[-7.28]

>  <Ligand effiencies>  (1) 
[-0.2912]

>  <Interactions>  (1) 
["V-B:GLU:543:C:9874, V-B:GLU:543:CB:9878, V-B:GLY:544:C:9884, V-B:HIS:456:CE1:9040, V-B:ARG:545:CG:9894, V-A:GLU:543:CD:4908, V-B:ARG:545:CA:9891, V-A:GLU:543:CG:4907, V-A:HIS:456:CG:4066, V-A:VAL:458:CG2:4087, V-A:HIS:456:CD2:4068, V-A:HIS:456:CB:4065, V-A:LYS:547:CD:4949, H-A:LYS:547:NZ:4951, V-A:ASP:473:CB:4239, H-B:HIS:456:NE2:9041, V-B:GLU:543:CA:9876, V-A:TYR:484:CD2:4344, V-A:GLU:543:CB:4906, V-A:TYR:484:CG:4342, V-A:TYR:484:CE2:4346, V-B:GLY:544:CA:9886, H-B:GLU:543:O:9875, H-B:GLY:544:O:9885"]

$$$$
4ah_Grossjean_2025
     RDKit          3D

 51 53  0  0  0  0  0  0  0  0999 V2000
  133.1470  126.8450   74.4400 C   0  0  0  0  0  0  0  0  0  0  0  0
  131.7500  126.6780   74.6510 O   0  0  0  0  0  0  0  0  0  0  0  0
  131.0000  125.9880   73.7150 C   0  0  0  0  0  0  0  0  0  0  0  0
  129.9410  126.5540   72.9880 C   0  0  0  0  0  0  0  0  0  0  0  0
  129.2260  125.7960   72.0590 C   0  0  0  0  0  0  0  0  0  0  0  0
  128.1100  126.4410   71.2450 C   0  0  0  0  0  0  0  0  0  0  0  0
  128.3050  126.3380   69.7990 N   0  0  0  0  0  0  0  0  0  0  0  0
  129.0040  127.2080   69.0410 C   0  0  0  0  0  0  0  0  0  0  0  0
  129.5260  128.2230   69.5050 O   0  0  0  0  0  0  0  0  0  0  0  0
  129.0720  126.9020   67.6120 C   0  0  0  0  0  0  0  0  0  0  0  0
  128.5550  128.0980   66.4230 S   0  0  0  0  0  0  0  0  0  0  0  0
  128.8930  126.9990   65.1050 C   0  0  0  0  0  0  0  0  0  0  0  0
  128.6970  127.3420   63.8320 N   0  0  0  0  0  0  0  0  0  0  0  0
  129.0010  126.4000   62.9070 C   0  0  0  0  0  0  0  0  0  0  0  0
  128.7680  126.8100   61.4650 C   0  0  0  0  0  0  0  0  0  0  0  0
  129.4910  125.1350   63.2220 C   0  0  0  0  0  0  0  0  0  0  0  0
  129.6940  124.7750   64.5600 C   0  0  0  0  0  0  0  0  0  0  0  0
  130.2310  123.3830   64.8540 C   0  0  0  0  0  0  0  0  0  0  0  0
  129.3850  125.7380   65.5590 C   0  0  0  0  0  0  0  0  0  0  0  0
  129.4660  125.7050   66.9950 C   0  0  0  0  0  0  0  0  0  0  0  0
  129.9000  124.6000   67.6810 N   0  0  0  0  0  0  0  0  0  0  0  0
  129.5870  124.4680   71.8310 C   0  0  0  0  0  0  0  0  0  0  0  0
  130.6380  123.8740   72.5470 C   0  0  0  0  0  0  0  0  0  0  0  0
  131.0380  122.5600   72.3830 O   0  0  0  0  0  0  0  0  0  0  0  0
  130.8130  121.6260   73.4340 C   0  0  0  0  0  0  0  0  0  0  0  0
  131.3320  124.6430   73.4910 C   0  0  0  0  0  0  0  0  0  0  0  0
  132.3760  124.0800   74.1870 O   0  0  0  0  0  0  0  0  0  0  0  0
  132.1260  123.9220   75.5770 C   0  0  0  0  0  0  0  0  0  0  0  0
  133.6598  126.9063   75.4112 H   0  0  0  0  0  0  0  0  0  0  0  0
  133.5373  125.9871   73.8728 H   0  0  0  0  0  0  0  0  0  0  0  0
  133.3241  127.7707   73.8728 H   0  0  0  0  0  0  0  0  0  0  0  0
  129.6712  127.6077   73.1523 H   0  0  0  0  0  0  0  0  0  0  0  0
  127.1613  125.9481   71.5039 H   0  0  0  0  0  0  0  0  0  0  0  0
  128.1067  127.5123   71.4945 H   0  0  0  0  0  0  0  0  0  0  0  0
  127.9750  125.4870   69.3670 H   0  0  0  0  0  0  0  0  0  0  0  0
  128.2247  127.7661   61.4389 H   0  0  0  0  0  0  0  0  0  0  0  0
  129.7361  126.9243   60.9553 H   0  0  0  0  0  0  0  0  0  0  0  0
  128.1743  126.0368   60.9553 H   0  0  0  0  0  0  0  0  0  0  0  0
  129.7187  124.4182   62.4193 H   0  0  0  0  0  0  0  0  0  0  0  0
  130.2883  123.2344   65.9424 H   0  0  0  0  0  0  0  0  0  0  0  0
  129.5586  122.6306   64.4161 H   0  0  0  0  0  0  0  0  0  0  0  0
  131.2345  123.2771   64.4161 H   0  0  0  0  0  0  0  0  0  0  0  0
  130.8470  124.2610   67.6030 H   0  0  0  0  0  0  0  0  0  0  0  0
  129.2780  124.0820   68.2870 H   0  0  0  0  0  0  0  0  0  0  0  0
  129.0407  123.8784   71.0800 H   0  0  0  0  0  0  0  0  0  0  0  0
  130.9343  122.1297   74.4044 H   0  0  0  0  0  0  0  0  0  0  0  0
  129.7923  121.2237   73.3548 H   0  0  0  0  0  0  0  0  0  0  0  0
  131.5386  120.8031   73.3548 H   0  0  0  0  0  0  0  0  0  0  0  0
  132.9190  124.4232   76.1515 H   0  0  0  0  0  0  0  0  0  0  0  0
  131.1529  124.3695   75.8277 H   0  0  0  0  0  0  0  0  0  0  0  0
  132.1126  122.8510   75.8277 H   0  0  0  0  0  0  0  0  0  0  0  0
  1  2  1  0
  2  3  1  0
  3  4  2  0
  4  5  1  0
  5  6  1  0
  6  7  1  0
  7  8  1  0
  8  9  2  0
  8 10  1  0
 10 11  1  0
 11 12  1  0
 12 13  2  0
 13 14  1  0
 14 15  1  0
 14 16  2  0
 16 17  1  0
 17 18  1  0
 17 19  2  0
 19 20  1  0
 20 21  1  0
  5 22  2  0
 22 23  1  0
 23 24  1  0
 24 25  1  0
 23 26  2  0
 26 27  1  0
 27 28  1  0
 26  3  1  0
 20 10  2  0
 19 12  1  0
  1 29  1  0
  1 30  1  0
  1 31  1  0
  4 32  1  0
  6 33  1  0
  6 34  1  0
  7 35  1  0
 15 36  1  0
 15 37  1  0
 15 38  1  0
 16 39  1  0
 18 40  1  0
 18 41  1  0
 18 42  1  0
 21 43  1  0
 21 44  1  0
 22 45  1  0
 25 46  1  0
 25 47  1  0
 25 48  1  0
 28 49  1  0
 28 50  1  0
 28 51  1  0
M  END
>  <Binding energies>  (1) 
[-6.91]

>  <Ligand effiencies>  (1) 
[-0.2229032258064516]

>  <Interactions>  (1) 
["V-B:GLU:543:C:9874, V-B:GLU:543:CB:9878, V-B:GLY:544:C:9884, V-B:HIS:456:CE1:9040, V-B:GLU:543:CD:9880, V-A:GLU:543:CD:4908, H-A:TYR:484:OH:4348, V-A:HIS:456:CE1:4069, V-B:GLU:543:CG:9879, V-A:TYR:484:CE1:4345, V-A:TYR:484:CZ:4347, V-A:HIS:456:CG:4066, H-A:HIS:456:NE2:4070, V-A:HIS:456:CD2:4068, V-A:HIS:456:CB:4065, V-A:LYS:547:CD:4949, V-A:LYS:547:CE:4950, H-A:LYS:547:NZ:4951, V-A:ASP:473:CB:4239, V-A:ASP:473:CG:4240, H-B:LYS:547:NZ:9923, H-B:HIS:456:NE2:9041, V-A:TYR:484:CD2:4344, V-A:TYR:484:CG:4342, V-A:TYR:484:CB:4341, H-B:GLU:543:O:9875, H-B:GLY:544:O:9885, H-A:HIS:456:ND1:4067"]

$$$$
4ai_Grossjean_2025
     RDKit          3D

 32 34  0  0  0  0  0  0  0  0999 V2000
  127.9730  130.3910   65.2460 C   0  0  0  0  0  0  0  0  0  0  0  0
  128.3690  129.0830   65.9050 C   0  0  0  0  0  0  0  0  0  0  0  0
  128.6930  127.9640   65.1400 C   0  0  0  0  0  0  0  0  0  0  0  0
  129.0620  126.7690   65.7680 C   0  0  0  0  0  0  0  0  0  0  0  0
  129.4090  125.5760   64.8900 C   0  0  0  0  0  0  0  0  0  0  0  0
  129.0910  126.7490   67.1890 C   0  0  0  0  0  0  0  0  0  0  0  0
  129.4160  125.7170   68.1370 C   0  0  0  0  0  0  0  0  0  0  0  0
  129.7830  124.4530   67.7470 N   0  0  0  0  0  0  0  0  0  0  0  0
  129.3290  126.1260   69.4770 C   0  0  0  0  0  0  0  0  0  0  0  0
  129.5780  125.3400   70.6880 C   0  0  0  0  0  0  0  0  0  0  0  0
  129.6940  125.8920   71.7830 O   0  0  0  0  0  0  0  0  0  0  0  0
  129.6500  123.9970   70.5040 N   0  0  0  0  0  0  0  0  0  0  0  0
  129.8640  123.0230   71.4700 C   0  0  0  0  0  0  0  0  0  0  0  0
  130.9910  123.0010   72.2930 C   0  0  0  0  0  0  0  0  0  0  0  0
  130.8270  121.8950   73.0940 C   0  0  0  0  0  0  0  0  0  0  0  0
  129.6630  121.2830   72.7730 O   0  0  0  0  0  0  0  0  0  0  0  0
  129.0600  122.0080   71.7440 N   0  0  0  0  0  0  0  0  0  0  0  0
  128.8120  127.8090   69.5970 S   0  0  0  0  0  0  0  0  0  0  0  0
  128.7370  127.9600   67.8560 C   0  0  0  0  0  0  0  0  0  0  0  0
  128.3840  129.1000   67.2600 N   0  0  0  0  0  0  0  0  0  0  0  0
  127.7468  131.1382   66.0209 H   0  0  0  0  0  0  0  0  0  0  0  0
  128.8022  130.7518   64.6197 H   0  0  0  0  0  0  0  0  0  0  0  0
  127.0829  130.2313   64.6197 H   0  0  0  0  0  0  0  0  0  0  0  0
  128.6587  128.0201   64.0420 H   0  0  0  0  0  0  0  0  0  0  0  0
  129.6598  124.7138   65.5253 H   0  0  0  0  0  0  0  0  0  0  0  0
  128.5466  125.3250   64.2549 H   0  0  0  0  0  0  0  0  0  0  0  0
  130.2715  125.8267   64.2549 H   0  0  0  0  0  0  0  0  0  0  0  0
  130.7120  124.2480   67.4130 H   0  0  0  0  0  0  0  0  0  0  0  0
  129.1280  123.6840   67.7780 H   0  0  0  0  0  0  0  0  0  0  0  0
  129.5260  123.6550   69.5630 H   0  0  0  0  0  0  0  0  0  0  0  0
  131.8288  123.7137   72.2996 H   0  0  0  0  0  0  0  0  0  0  0  0
  131.5297  121.5610   73.8716 H   0  0  0  0  0  0  0  0  0  0  0  0
  1  2  1  0
  2  3  2  0
  3  4  1  0
  4  5  1  0
  4  6  2  0
  6  7  1  0
  7  8  1  0
  7  9  2  0
  9 10  1  0
 10 11  2  0
 10 12  1  0
 12 13  1  0
 13 14  1  0
 14 15  2  0
 15 16  1  0
 16 17  1  0
  9 18  1  0
 18 19  1  0
 19 20  2  0
 20  2  1  0
 19  6  1  0
 17 13  2  0
  1 21  1  0
  1 22  1  0
  1 23  1  0
  3 24  1  0
  5 25  1  0
  5 26  1  0
  5 27  1  0
  8 28  1  0
  8 29  1  0
 12 30  1  0
 14 31  1  0
 15 32  1  0
M  END
>  <Binding energies>  (1) 
[-7.58]

>  <Ligand effiencies>  (1) 
[-0.32956521739130434]

>  <Interactions>  (1) 
["V-B:GLU:543:C:9874, V-B:GLU:543:CB:9878, V-B:HIS:456:CE1:9040, V-B:GLU:543:CD:9880, V-A:GLU:543:CD:4908, V-A:GLU:543:CG:4907, H-A:TYR:484:OH:4348, V-A:HIS:456:CE1:4069, V-B:GLU:543:CG:9879, V-A:TYR:484:CE1:4345, V-A:TYR:484:CZ:4347, V-A:HIS:456:CG:4066, H-A:HIS:456:NE2:4070, V-A:HIS:456:CD2:4068, V-A:HIS:456:CB:4065, V-A:ASP:473:CB:4239, H-B:LYS:547:NZ:9923, H-B:HIS:456:NE2:9041, V-B:GLU:543:CA:9876, V-A:TYR:484:CD2:4344, V-A:GLU:543:CB:4906, V-A:TYR:484:CD1:4343, V-A:TYR:484:CG:4342, V-A:TYR:484:CB:4341, V-A:TYR:484:CE2:4346, H-B:GLU:543:O:9875, H-A:HIS:456:ND1:4067"]

$$$$
4aj_Grossjean_2025
     RDKit          3D

 32 34  0  0  0  0  0  0  0  0999 V2000
  130.6770  132.8510   53.9310 C   0  0  0  0  0  0  0  0  0  0  0  0
  130.9900  132.3110   55.3150 C   0  0  0  0  0  0  0  0  0  0  0  0
  132.1090  131.5110   55.5360 C   0  0  0  0  0  0  0  0  0  0  0  0
  132.3760  131.0190   56.8190 C   0  0  0  0  0  0  0  0  0  0  0  0
  133.6090  130.1490   57.0080 C   0  0  0  0  0  0  0  0  0  0  0  0
  131.4770  131.3650   57.8620 C   0  0  0  0  0  0  0  0  0  0  0  0
  131.4460  131.0420   59.2630 C   0  0  0  0  0  0  0  0  0  0  0  0
  132.4010  130.2530   59.8530 N   0  0  0  0  0  0  0  0  0  0  0  0
  130.3650  131.6080   59.9550 C   0  0  0  0  0  0  0  0  0  0  0  0
  130.0230  131.4790   61.3740 C   0  0  0  0  0  0  0  0  0  0  0  0
  130.6390  132.1160   62.2310 O   0  0  0  0  0  0  0  0  0  0  0  0
  128.9960  130.6380   61.6510 N   0  0  0  0  0  0  0  0  0  0  0  0
  128.4700  130.3490   62.9020 C   0  0  0  0  0  0  0  0  0  0  0  0
  128.1330  129.1710   63.3840 N   0  0  0  0  0  0  0  0  0  0  0  0
  127.6680  129.2660   64.6150 C   0  0  0  0  0  0  0  0  0  0  0  0
  127.6200  130.5470   65.1580 C   0  0  0  0  0  0  0  0  0  0  0  0
  128.2190  131.6810   63.9830 S   0  0  0  0  0  0  0  0  0  0  0  0
  129.3390  132.5510   58.8730 S   0  0  0  0  0  0  0  0  0  0  0  0
  130.3700  132.1940   57.5060 C   0  0  0  0  0  0  0  0  0  0  0  0
  130.1120  132.6630   56.2850 N   0  0  0  0  0  0  0  0  0  0  0  0
  130.1273  133.7993   54.0231 H   0  0  0  0  0  0  0  0  0  0  0  0
  131.6155  133.0229   53.3836 H   0  0  0  0  0  0  0  0  0  0  0  0
  130.0614  132.1220   53.3836 H   0  0  0  0  0  0  0  0  0  0  0  0
  132.7830  131.2659   54.7019 H   0  0  0  0  0  0  0  0  0  0  0  0
  133.8010  130.0136   58.0826 H   0  0  0  0  0  0  0  0  0  0  0  0
  133.4411  129.1682   56.5390 H   0  0  0  0  0  0  0  0  0  0  0  0
  134.4767  130.6359   56.5390 H   0  0  0  0  0  0  0  0  0  0  0  0
  132.3750  130.0320   60.8380 H   0  0  0  0  0  0  0  0  0  0  0  0
  133.1660  129.8660   59.3190 H   0  0  0  0  0  0  0  0  0  0  0  0
  128.5570  130.1710   60.8710 H   0  0  0  0  0  0  0  0  0  0  0  0
  127.3368  128.3826   65.1806 H   0  0  0  0  0  0  0  0  0  0  0  0
  127.2614  130.8008   66.1665 H   0  0  0  0  0  0  0  0  0  0  0  0
  1  2  1  0
  2  3  2  0
  3  4  1  0
  4  5  1  0
  4  6  2  0
  6  7  1  0
  7  8  1  0
  7  9  2  0
  9 10  1  0
 10 11  2  0
 10 12  1  0
 12 13  1  0
 13 14  2  0
 14 15  1  0
 15 16  2  0
 16 17  1  0
  9 18  1  0
 18 19  1  0
 19 20  2  0
 20  2  1  0
 19  6  1  0
 17 13  1  0
  1 21  1  0
  1 22  1  0
  1 23  1  0
  3 24  1  0
  5 25  1  0
  5 26  1  0
  5 27  1  0
  8 28  1  0
  8 29  1  0
 12 30  1  0
 15 31  1  0
 16 32  1  0
M  END
>  <Binding energies>  (1) 
[-6.81]

>  <Ligand effiencies>  (1) 
[-0.2960869565217391]

>  <Interactions>  (1) 
["V-A:PRO:540:CB:4885, V-A:ALA:541:CB:4892, V-A:LEU:363:CA:3185, H-A:GLU:543:OE1:4909, V-A:ASP:366:CG:3213, V-A:PRO:540:CA:4883, V-A:GLU:543:CD:4908, V-A:ILE:538:CD1:4865, V-A:TYR:539:C:4867, V-A:ASP:366:CB:3212, V-A:TYR:531:CE2:4793, V-A:PRO:540:N:4884, V-A:TYR:531:CZ:4794, V-A:ILE:538:CA:4860, H-A:TYR:539:N:4870, V-A:LEU:363:CD1:3189, V-A:GLU:543:CB:4906, V-B:TYR:484:CZ:9318, V-A:ILE:538:C:4858, H-A:ALA:541:N:4891, H-A:ASP:366:OD1:3214, V-A:ILE:538:CB:4862, V-A:VAL:537:C:4850"]

$$$$
4ak_Grossjean_2025
     RDKit          3D

 50 51  0  0  0  0  0  0  0  0999 V2000
  135.1210  127.2540   73.8870 C   0  0  0  0  0  0  0  0  0  0  0  0
  133.7710  126.8780   74.1100 O   0  0  0  0  0  0  0  0  0  0  0  0
  133.6310  125.7550   74.9720 C   0  0  0  0  0  0  0  0  0  0  0  0
  132.4380  125.9760   75.9100 C   0  0  0  0  0  0  0  0  0  0  0  0
  131.4390  126.7260   75.2330 O   0  0  0  0  0  0  0  0  0  0  0  0
  130.2590  125.9850   74.9490 C   0  0  0  0  0  0  0  0  0  0  0  0
  129.5290  126.6280   73.7640 C   0  0  0  0  0  0  0  0  0  0  0  0
  128.4370  125.8030   73.3810 O   0  0  0  0  0  0  0  0  0  0  0  0
  128.4450  125.4400   72.0060 C   0  0  0  0  0  0  0  0  0  0  0  0
  127.9780  126.6390   71.1610 C   0  0  0  0  0  0  0  0  0  0  0  0
  128.2010  126.4660   69.7250 N   0  0  0  0  0  0  0  0  0  0  0  0
  128.9640  127.2650   68.9530 C   0  0  0  0  0  0  0  0  0  0  0  0
  129.5790  128.2320   69.4060 O   0  0  0  0  0  0  0  0  0  0  0  0
  129.0310  126.9150   67.5350 C   0  0  0  0  0  0  0  0  0  0  0  0
  128.5850  128.0970   66.3040 S   0  0  0  0  0  0  0  0  0  0  0  0
  128.9380  126.9620   65.0210 C   0  0  0  0  0  0  0  0  0  0  0  0
  128.7830  127.2800   63.7350 N   0  0  0  0  0  0  0  0  0  0  0  0
  129.0890  126.3080   62.8410 C   0  0  0  0  0  0  0  0  0  0  0  0
  128.9070  126.6900   61.3830 C   0  0  0  0  0  0  0  0  0  0  0  0
  129.5440  125.0410   63.1990 C   0  0  0  0  0  0  0  0  0  0  0  0
  129.7070  124.7100   64.5490 C   0  0  0  0  0  0  0  0  0  0  0  0
  130.2020  123.3130   64.8900 C   0  0  0  0  0  0  0  0  0  0  0  0
  129.3940  125.7030   65.5160 C   0  0  0  0  0  0  0  0  0  0  0  0
  129.4430  125.7060   66.9530 C   0  0  0  0  0  0  0  0  0  0  0  0
  129.8550  124.6140   67.6750 N   0  0  0  0  0  0  0  0  0  0  0  0
  135.6268  127.3949   74.8536 H   0  0  0  0  0  0  0  0  0  0  0  0
  135.6323  126.4641   73.3173 H   0  0  0  0  0  0  0  0  0  0  0  0
  135.1504  128.1945   73.3173 H   0  0  0  0  0  0  0  0  0  0  0  0
  133.4616  124.8498   74.3703 H   0  0  0  0  0  0  0  0  0  0  0  0
  134.5479  125.6333   75.5674 H   0  0  0  0  0  0  0  0  0  0  0  0
  132.0242  125.0030   76.2132 H   0  0  0  0  0  0  0  0  0  0  0  0
  132.7692  126.5264   76.8029 H   0  0  0  0  0  0  0  0  0  0  0  0
  130.5279  124.9487   74.6963 H   0  0  0  0  0  0  0  0  0  0  0  0
  129.6019  125.9867   75.8311 H   0  0  0  0  0  0  0  0  0  0  0  0
  129.1548  127.6199   74.0574 H   0  0  0  0  0  0  0  0  0  0  0  0
  130.2237  126.7358   72.9180 H   0  0  0  0  0  0  0  0  0  0  0  0
  129.4644  125.1546   71.7072 H   0  0  0  0  0  0  0  0  0  0  0  0
  127.7665  124.5892   71.8454 H   0  0  0  0  0  0  0  0  0  0  0  0
  126.9011  126.7855   71.3305 H   0  0  0  0  0  0  0  0  0  0  0  0
  128.5734  127.5081   71.4775 H   0  0  0  0  0  0  0  0  0  0  0  0
  127.7280  125.6860   69.2910 H   0  0  0  0  0  0  0  0  0  0  0  0
  128.4346  127.6814   61.3199 H   0  0  0  0  0  0  0  0  0  0  0  0
  129.8881  126.7190   60.8863 H   0  0  0  0  0  0  0  0  0  0  0  0
  128.2664  125.9464   60.8863 H   0  0  0  0  0  0  0  0  0  0  0  0
  129.7754  124.2999   62.4198 H   0  0  0  0  0  0  0  0  0  0  0  0
  130.2437  123.1954   65.9829 H   0  0  0  0  0  0  0  0  0  0  0  0
  129.5136  122.5666   64.4669 H   0  0  0  0  0  0  0  0  0  0  0  0
  131.2067  123.1666   64.4669 H   0  0  0  0  0  0  0  0  0  0  0  0
  129.2240  124.1030   68.2770 H   0  0  0  0  0  0  0  0  0  0  0  0
  130.8080  124.2820   67.6260 H   0  0  0  0  0  0  0  0  0  0  0  0
  1  2  1  0
  2  3  1  0
  3  4  1  0
  4  5  1  0
  5  6  1  0
  6  7  1  0
  7  8  1  0
  8  9  1  0
  9 10  1  0
 10 11  1  0
 11 12  1  0
 12 13  2  0
 12 14  1  0
 14 15  1  0
 15 16  1  0
 16 17  2  0
 17 18  1  0
 18 19  1  0
 18 20  2  0
 20 21  1  0
 21 22  1  0
 21 23  2  0
 23 24  1  0
 24 25  1  0
 24 14  2  0
 23 16  1  0
  1 26  1  0
  1 27  1  0
  1 28  1  0
  3 29  1  0
  3 30  1  0
  4 31  1  0
  4 32  1  0
  6 33  1  0
  6 34  1  0
  7 35  1  0
  7 36  1  0
  9 37  1  0
  9 38  1  0
 10 39  1  0
 10 40  1  0
 11 41  1  0
 19 42  1  0
 19 43  1  0
 19 44  1  0
 20 45  1  0
 22 46  1  0
 22 47  1  0
 22 48  1  0
 25 49  1  0
 25 50  1  0
M  END
>  <Binding energies>  (1) 
[-6.38]

>  <Ligand effiencies>  (1) 
[-0.22785714285714284]

>  <Interactions>  (1) 
["V-B:GLU:543:C:9874, V-B:GLU:543:CB:9878, V-B:GLY:544:C:9884, V-B:HIS:456:CE1:9040, V-B:GLU:543:CD:9880, V-A:GLU:543:CD:4908, H-A:TYR:484:OH:4348, V-A:HIS:456:CE1:4069, V-B:GLU:543:CG:9879, V-A:TYR:484:CE1:4345, V-A:TYR:484:CZ:4347, V-A:HIS:456:CG:4066, V-A:VAL:458:CG2:4087, H-A:HIS:456:NE2:4070, V-A:HIS:456:CD2:4068, V-A:VAL:457:C:4073, V-A:HIS:456:CB:4065, V-A:LYS:547:CD:4949, H-A:LYS:547:NZ:4951, V-A:HIS:456:C:4061, H-B:LYS:547:NZ:9923, V-A:HIS:456:CA:4063, H-B:HIS:456:NE2:9041, V-A:LYS:547:CG:4948, V-B:LYS:547:CE:9922, H-B:GLU:543:O:9875, H-B:GLY:544:O:9885, H-A:HIS:456:ND1:4067, V-A:ARG:545:C:4917, V-A:LYS:547:CB:4947"]

$$$$
4al_Grossjean_2025
     RDKit          3D

 28 29  0  0  0  0  0  0  0  0999 V2000
  132.4850  131.7580   62.1190 C   0  0  0  0  0  0  0  0  0  0  0  0
  131.1170  132.1150   61.9890 O   0  0  0  0  0  0  0  0  0  0  0  0
  130.2740  131.3760   61.2220 C   0  0  0  0  0  0  0  0  0  0  0  0
  129.3720  130.6680   61.6750 O   0  0  0  0  0  0  0  0  0  0  0  0
  130.5490  131.5060   59.7740 C   0  0  0  0  0  0  0  0  0  0  0  0
  129.5240  132.5360   58.7720 S   0  0  0  0  0  0  0  0  0  0  0  0
  130.4600  132.1500   57.3460 C   0  0  0  0  0  0  0  0  0  0  0  0
  130.1660  132.6600   56.1500 N   0  0  0  0  0  0  0  0  0  0  0  0
  130.9700  132.2810   55.1260 C   0  0  0  0  0  0  0  0  0  0  0  0
  130.6180  132.8740   53.7740 C   0  0  0  0  0  0  0  0  0  0  0  0
  132.0500  131.4120   55.2700 C   0  0  0  0  0  0  0  0  0  0  0  0
  132.3560  130.8780   56.5260 C   0  0  0  0  0  0  0  0  0  0  0  0
  133.5430  129.9350   56.6330 C   0  0  0  0  0  0  0  0  0  0  0  0
  131.5350  131.2530   57.6230 C   0  0  0  0  0  0  0  0  0  0  0  0
  131.5600  130.9030   59.0170 C   0  0  0  0  0  0  0  0  0  0  0  0
  132.4960  130.0540   59.5480 N   0  0  0  0  0  0  0  0  0  0  0  0
  132.7464  131.6898   63.1853 H   0  0  0  0  0  0  0  0  0  0  0  0
  132.6574  130.7848   61.6362 H   0  0  0  0  0  0  0  0  0  0  0  0
  133.1110  132.5229   61.6362 H   0  0  0  0  0  0  0  0  0  0  0  0
  130.0614  133.8117   53.9186 H   0  0  0  0  0  0  0  0  0  0  0  0
  131.5411  133.0785   53.2118 H   0  0  0  0  0  0  0  0  0  0  0  0
  129.9964  132.1616   53.2118 H   0  0  0  0  0  0  0  0  0  0  0  0
  132.6620  131.1460   54.3955 H   0  0  0  0  0  0  0  0  0  0  0  0
  133.7722  129.7529   57.6933 H   0  0  0  0  0  0  0  0  0  0  0  0
  133.2993  128.9815   56.1416 H   0  0  0  0  0  0  0  0  0  0  0  0
  134.4166  130.3880   56.1416 H   0  0  0  0  0  0  0  0  0  0  0  0
  133.3770  129.8740   59.0880 H   0  0  0  0  0  0  0  0  0  0  0  0
  132.3350  129.5750   60.4240 H   0  0  0  0  0  0  0  0  0  0  0  0
  1  2  1  0
  2  3  1  0
  3  4  2  0
  3  5  1  0
  5  6  1  0
  6  7  1  0
  7  8  2  0
  8  9  1  0
  9 10  1  0
  9 11  2  0
 11 12  1  0
 12 13  1  0
 12 14  2  0
 14 15  1  0
 15 16  1  0
 15  5  2  0
 14  7  1  0
  1 17  1  0
  1 18  1  0
  1 19  1  0
 10 20  1  0
 10 21  1  0
 10 22  1  0
 11 23  1  0
 13 24  1  0
 13 25  1  0
 13 26  1  0
 16 27  1  0
 16 28  1  0
M  END
>  <Binding energies>  (1) 
[-5.97]

>  <Ligand effiencies>  (1) 
[-0.33166666666666667]

>  <Interactions>  (1) 
["V-A:PRO:540:CB:4885, V-A:ASN:362:CB:3176, V-A:LEU:363:CA:3185, V-A:ASP:366:CG:3213, V-A:PRO:540:CA:4883, V-A:ALA:541:C:4888, V-A:GLU:543:CD:4908, V-A:ILE:538:CD1:4865, V-A:PRO:540:C:4881, V-A:TYR:539:C:4867, V-A:ASP:366:CB:3212, V-A:TYR:531:CE2:4793, V-A:PRO:540:N:4884, V-A:TYR:531:CZ:4794, V-A:ALA:541:CA:4890, V-A:ILE:538:CA:4860, H-A:TYR:539:N:4870, V-A:LEU:363:CD1:3189, V-A:ILE:538:C:4858, H-A:ALA:541:N:4891, H-A:ASP:366:OD1:3214, V-A:ILE:538:CB:4862, V-A:VAL:537:C:4850"]

$$$$
4ba_Grossjean_2025
     RDKit          3D

 44 46  0  0  0  0  0  0  0  0999 V2000
  128.0460  127.8520   67.6090 C   0  0  0  0  0  0  0  0  0  0  0  0
  126.6230  127.5860   67.0840 C   0  0  0  0  0  0  0  0  0  0  0  0
  125.9470  128.7870   66.3890 C   0  0  0  0  0  0  0  0  0  0  0  0
  124.9410  129.2920   66.8930 O   0  0  0  0  0  0  0  0  0  0  0  0
  126.5610  129.2920   65.1160 C   0  0  0  0  0  0  0  0  0  0  0  0
  127.7540  128.7210   64.6540 C   0  0  0  0  0  0  0  0  0  0  0  0
  128.3460  129.1720   63.4780 C   0  0  0  0  0  0  0  0  0  0  0  0
  127.7570  130.1980   62.7370 C   0  0  0  0  0  0  0  0  0  0  0  0
  128.4440  130.5810   61.5690 N   0  0  0  0  0  0  0  0  0  0  0  0
  129.4570  131.4670   61.4040 C   0  0  0  0  0  0  0  0  0  0  0  0
  129.9340  132.1480   62.3120 O   0  0  0  0  0  0  0  0  0  0  0  0
  129.9580  131.5950   60.0340 C   0  0  0  0  0  0  0  0  0  0  0  0
  129.1200  132.6280   58.8770 S   0  0  0  0  0  0  0  0  0  0  0  0
  130.2420  132.1960   57.6090 C   0  0  0  0  0  0  0  0  0  0  0  0
  130.1260  132.6960   56.3790 N   0  0  0  0  0  0  0  0  0  0  0  0
  131.0520  132.2880   55.4820 C   0  0  0  0  0  0  0  0  0  0  0  0
  130.8960  132.8630   54.0860 C   0  0  0  0  0  0  0  0  0  0  0  0
  132.0850  131.4040   55.7830 C   0  0  0  0  0  0  0  0  0  0  0  0
  132.2130  130.8740   57.0770 C   0  0  0  0  0  0  0  0  0  0  0  0
  133.3670  129.9070   57.3610 C   0  0  0  0  0  0  0  0  0  0  0  0
  134.1430  129.6930   56.2970 F   0  0  0  0  0  0  0  0  0  0  0  0
  134.1420  130.3980   58.3280 F   0  0  0  0  0  0  0  0  0  0  0  0
  132.8810  128.7260   57.7450 F   0  0  0  0  0  0  0  0  0  0  0  0
  131.2470  131.2800   58.0460 C   0  0  0  0  0  0  0  0  0  0  0  0
  131.0520  130.9480   59.4370 C   0  0  0  0  0  0  0  0  0  0  0  0
  131.8690  130.0760   60.1110 N   0  0  0  0  0  0  0  0  0  0  0  0
  126.5660  130.7790   63.1960 C   0  0  0  0  0  0  0  0  0  0  0  0
  125.9750  130.3280   64.3740 C   0  0  0  0  0  0  0  0  0  0  0  0
  128.0373  127.8504   68.7090 H   0  0  0  0  0  0  0  0  0  0  0  0
  128.7236  127.0650   67.2465 H   0  0  0  0  0  0  0  0  0  0  0  0
  128.3936  128.8307   67.2465 H   0  0  0  0  0  0  0  0  0  0  0  0
  126.6756  126.7589   66.3607 H   0  0  0  0  0  0  0  0  0  0  0  0
  126.0083  127.3569   67.9670 H   0  0  0  0  0  0  0  0  0  0  0  0
  128.2270  127.9090   65.2258 H   0  0  0  0  0  0  0  0  0  0  0  0
  129.2849  128.7167   63.1299 H   0  0  0  0  0  0  0  0  0  0  0  0
  128.1120  130.1290   60.7300 H   0  0  0  0  0  0  0  0  0  0  0  0
  130.6086  133.9225   54.1559 H   0  0  0  0  0  0  0  0  0  0  0  0
  131.8500  132.7768   53.5452 H   0  0  0  0  0  0  0  0  0  0  0  0
  130.1164  132.3064   53.5452 H   0  0  0  0  0  0  0  0  0  0  0  0
  132.8054  131.1191   55.0020 H   0  0  0  0  0  0  0  0  0  0  0  0
  131.6010  129.6660   60.9940 H   0  0  0  0  0  0  0  0  0  0  0  0
  132.7760  129.8190   59.7470 H   0  0  0  0  0  0  0  0  0  0  0  0
  126.0971  131.5933   62.6241 H   0  0  0  0  0  0  0  0  0  0  0  0
  125.0400  130.7886   64.7256 H   0  0  0  0  0  0  0  0  0  0  0  0
  1  2  1  0
  2  3  1  0
  3  4  2  0
  3  5  1  0
  5  6  2  0
  6  7  1  0
  7  8  2  0
  8  9  1  0
  9 10  1  0
 10 11  2  0
 10 12  1  0
 12 13  1  0
 13 14  1  0
 14 15  2  0
 15 16  1  0
 16 17  1  0
 16 18  2  0
 18 19  1  0
 19 20  1  0
 20 21  1  0
 20 22  1  0
 20 23  1  0
 19 24  2  0
 24 25  1  0
 25 26  1  0
  8 27  1  0
 27 28  2  0
 28  5  1  0
 25 12  2  0
 24 14  1  0
  1 29  1  0
  1 30  1  0
  1 31  1  0
  2 32  1  0
  2 33  1  0
  6 34  1  0
  7 35  1  0
  9 36  1  0
 17 37  1  0
 17 38  1  0
 17 39  1  0
 18 40  1  0
 26 41  1  0
 26 42  1  0
 27 43  1  0
 28 44  1  0
M  END
>  <Binding energies>  (1) 
[-7.69]

>  <Ligand effiencies>  (1) 
[-0.24806451612903227]

>  <Interactions>  (1) 
["V-A:PRO:540:CB:4885, V-B:GLU:543:CB:9878, V-A:LEU:363:CA:3185, V-B:HIS:456:CE1:9040, V-A:ASN:362:C:3172, H-A:GLU:543:OE1:4909, V-A:ASP:366:CG:3213, V-A:PRO:540:CA:4883, V-A:LEU:363:CB:3187, V-B:ARG:545:CG:9894, V-A:GLU:543:CD:4908, V-A:TYR:539:CD2:4874, V-A:ILE:538:CD1:4865, V-A:TYR:539:C:4867, V-A:ASP:366:CB:3212, V-A:TYR:531:CE2:4793, V-A:PRO:540:N:4884, V-A:TYR:531:CZ:4794, V-A:ILE:538:CA:4860, H-A:TYR:539:N:4870, V-A:LEU:363:CD1:3189, H-B:TYR:484:OH:9319, H-B:ARG:545:NE:9896, V-A:ILE:538:C:4858, H-A:ALA:541:N:4891, H-A:ASP:366:OD1:3214, V-A:ILE:538:CB:4862, V-A:VAL:537:C:4850, V-A:TYR:531:CD2:4791"]

$$$$
4bb_Grossjean_2025
     RDKit          3D

 41 43  0  0  0  0  0  0  0  0999 V2000
  125.1780  128.7890   66.8230 C   0  0  0  0  0  0  0  0  0  0  0  0
  124.6230  129.8620   65.8840 C   0  0  0  0  0  0  0  0  0  0  0  0
  123.5240  130.3530   66.1500 O   0  0  0  0  0  0  0  0  0  0  0  0
  125.4380  130.2510   64.6880 C   0  0  0  0  0  0  0  0  0  0  0  0
  126.4930  129.4260   64.2780 C   0  0  0  0  0  0  0  0  0  0  0  0
  127.2660  129.7640   63.1710 C   0  0  0  0  0  0  0  0  0  0  0  0
  126.9950  130.9270   62.4480 C   0  0  0  0  0  0  0  0  0  0  0  0
  127.8400  131.1750   61.3480 N   0  0  0  0  0  0  0  0  0  0  0  0
  129.0380  131.8070   61.2950 C   0  0  0  0  0  0  0  0  0  0  0  0
  129.5930  132.3200   62.2660 O   0  0  0  0  0  0  0  0  0  0  0  0
  129.6480  131.8770   59.9640 C   0  0  0  0  0  0  0  0  0  0  0  0
  128.8910  132.8300   58.6900 S   0  0  0  0  0  0  0  0  0  0  0  0
  130.1270  132.3670   57.5440 C   0  0  0  0  0  0  0  0  0  0  0  0
  130.1120  132.8090   56.2880 N   0  0  0  0  0  0  0  0  0  0  0  0
  131.1210  132.3810   55.4950 C   0  0  0  0  0  0  0  0  0  0  0  0
  131.0850  132.8980   54.0680 C   0  0  0  0  0  0  0  0  0  0  0  0
  132.1340  131.5290   55.9230 C   0  0  0  0  0  0  0  0  0  0  0  0
  132.1560  131.0600   57.2460 C   0  0  0  0  0  0  0  0  0  0  0  0
  133.2920  130.1230   57.6710 C   0  0  0  0  0  0  0  0  0  0  0  0
  134.1790  129.9020   56.6980 F   0  0  0  0  0  0  0  0  0  0  0  0
  133.9530  130.6560   58.7000 F   0  0  0  0  0  0  0  0  0  0  0  0
  132.7930  128.9420   58.0330 F   0  0  0  0  0  0  0  0  0  0  0  0
  131.1060  131.4920   58.1100 C   0  0  0  0  0  0  0  0  0  0  0  0
  130.8010  131.2270   59.4940 C   0  0  0  0  0  0  0  0  0  0  0  0
  131.5780  130.4150   60.2800 N   0  0  0  0  0  0  0  0  0  0  0  0
  125.9440  131.7620   62.8570 C   0  0  0  0  0  0  0  0  0  0  0  0
  125.1730  131.4230   63.9660 C   0  0  0  0  0  0  0  0  0  0  0  0
  125.0186  129.0972   67.8668 H   0  0  0  0  0  0  0  0  0  0  0  0
  124.6595  127.8366   66.6386 H   0  0  0  0  0  0  0  0  0  0  0  0
  126.2550  128.6618   66.6386 H   0  0  0  0  0  0  0  0  0  0  0  0
  126.7124  128.5034   64.8354 H   0  0  0  0  0  0  0  0  0  0  0  0
  128.0958  129.1105   62.8638 H   0  0  0  0  0  0  0  0  0  0  0  0
  127.4760  130.8430   60.4670 H   0  0  0  0  0  0  0  0  0  0  0  0
  131.0086  133.9953   54.0774 H   0  0  0  0  0  0  0  0  0  0  0  0
  132.0061  132.5990   53.5463 H   0  0  0  0  0  0  0  0  0  0  0  0
  130.2142  132.4743   53.5463 H   0  0  0  0  0  0  0  0  0  0  0  0
  132.9225  131.2210   55.2206 H   0  0  0  0  0  0  0  0  0  0  0  0
  131.4460  130.3530   61.2800 H   0  0  0  0  0  0  0  0  0  0  0  0
  132.3160  129.8480   59.8840 H   0  0  0  0  0  0  0  0  0  0  0  0
  125.7287  132.6861   62.3005 H   0  0  0  0  0  0  0  0  0  0  0  0
  124.3486  132.0809   64.2783 H   0  0  0  0  0  0  0  0  0  0  0  0
  1  2  1  0
  2  3  2  0
  2  4  1  0
  4  5  2  0
  5  6  1  0
  6  7  2  0
  7  8  1  0
  8  9  1  0
  9 10  2  0
  9 11  1  0
 11 12  1  0
 12 13  1  0
 13 14  2  0
 14 15  1  0
 15 16  1  0
 15 17  2  0
 17 18  1  0
 18 19  1  0
 19 20  1  0
 19 21  1  0
 19 22  1  0
 18 23  2  0
 23 24  1  0
 24 25  1  0
  7 26  1  0
 26 27  2  0
 27  4  1  0
 24 11  2  0
 23 13  1  0
  1 28  1  0
  1 29  1  0
  1 30  1  0
  5 31  1  0
  6 32  1  0
  8 33  1  0
 16 34  1  0
 16 35  1  0
 16 36  1  0
 17 37  1  0
 25 38  1  0
 25 39  1  0
 26 40  1  0
 27 41  1  0
M  END
>  <Binding energies>  (1) 
[-7.93]

>  <Ligand effiencies>  (1) 
[-0.2643333333333333]

>  <Interactions>  (1) 
["V-B:ARG:545:CD:9895, V-A:PRO:540:CB:4885, V-A:LEU:363:CA:3185, V-B:HIS:456:CE1:9040, V-A:ASN:362:C:3172, H-A:GLU:543:OE1:4909, V-B:LEU:475:CD1:9229, V-A:ASP:366:CG:3213, V-A:PRO:540:CA:4883, V-A:LEU:363:CB:3187, V-B:ARG:545:CG:9894, V-A:TYR:539:CD2:4874, V-A:TYR:539:CE2:4876, V-A:ILE:538:CD1:4865, V-A:TYR:539:CG:4872, V-A:TYR:539:C:4867, V-A:ASP:366:CB:3212, V-A:TYR:531:CE2:4793, V-A:PRO:540:N:4884, V-A:TYR:531:CZ:4794, V-B:ARG:545:CZ:9898, V-B:GLY:454:CA:9020, V-A:ILE:538:CA:4860, H-A:TYR:539:N:4870, V-A:ILE:538:CG2:4863, V-A:LEU:363:CD1:3189, H-B:GLY:454:N:9021, H-B:TYR:484:OH:9319, H-B:ILE:455:N:9026, V-B:TYR:484:CZ:9318, V-A:ILE:538:C:4858, H-A:ALA:541:N:4891, H-A:ASP:366:OD1:3214, V-A:ILE:538:CB:4862, V-A:VAL:537:C:4850, V-A:ILE:538:CG1:4864, V-A:LEU:363:CG:3188"]

$$$$
4bc_Grossjean_2025
     RDKit          3D

 40 42  0  0  0  0  0  0  0  0999 V2000
  124.0950  129.5470   66.3600 C   0  0  0  0  0  0  0  0  0  0  0  0
  123.9890  130.5790   65.3840 O   0  0  0  0  0  0  0  0  0  0  0  0
  124.9710  130.6970   64.4190 C   0  0  0  0  0  0  0  0  0  0  0  0
  124.6380  131.4270   63.2790 C   0  0  0  0  0  0  0  0  0  0  0  0
  125.5620  131.6000   62.2520 C   0  0  0  0  0  0  0  0  0  0  0  0
  126.8410  131.0490   62.3580 C   0  0  0  0  0  0  0  0  0  0  0  0
  127.7010  131.2630   61.2650 N   0  0  0  0  0  0  0  0  0  0  0  0
  128.9690  131.7430   61.2530 C   0  0  0  0  0  0  0  0  0  0  0  0
  129.5710  132.1170   62.2600 O   0  0  0  0  0  0  0  0  0  0  0  0
  129.6060  131.8050   59.9340 C   0  0  0  0  0  0  0  0  0  0  0  0
  128.8770  132.7530   58.6410 S   0  0  0  0  0  0  0  0  0  0  0  0
  130.1560  132.3130   57.5340 C   0  0  0  0  0  0  0  0  0  0  0  0
  130.1740  132.7600   56.2790 N   0  0  0  0  0  0  0  0  0  0  0  0
  131.2140  132.3490   55.5170 C   0  0  0  0  0  0  0  0  0  0  0  0
  131.2190  132.8730   54.0930 C   0  0  0  0  0  0  0  0  0  0  0  0
  132.2270  131.5110   55.9760 C   0  0  0  0  0  0  0  0  0  0  0  0
  132.2130  131.0370   57.2980 C   0  0  0  0  0  0  0  0  0  0  0  0
  133.3480  130.1140   57.7560 C   0  0  0  0  0  0  0  0  0  0  0  0
  134.2470  129.8790   56.7980 F   0  0  0  0  0  0  0  0  0  0  0  0
  133.9920  130.6690   58.7820 F   0  0  0  0  0  0  0  0  0  0  0  0
  132.8490  128.9370   58.1330 F   0  0  0  0  0  0  0  0  0  0  0  0
  131.1300  131.4530   58.1280 C   0  0  0  0  0  0  0  0  0  0  0  0
  130.7880  131.1830   59.5040 C   0  0  0  0  0  0  0  0  0  0  0  0
  131.5560  130.3860   60.3150 N   0  0  0  0  0  0  0  0  0  0  0  0
  127.1790  130.3020   63.4960 C   0  0  0  0  0  0  0  0  0  0  0  0
  126.2520  130.1310   64.5200 C   0  0  0  0  0  0  0  0  0  0  0  0
  124.0497  129.9883   67.3666 H   0  0  0  0  0  0  0  0  0  0  0  0
  123.2651  128.8361   66.2336 H   0  0  0  0  0  0  0  0  0  0  0  0
  125.0520  129.0197   66.2336 H   0  0  0  0  0  0  0  0  0  0  0  0
  123.6354  131.8707   63.1900 H   0  0  0  0  0  0  0  0  0  0  0  0
  125.2839  132.1722   61.3546 H   0  0  0  0  0  0  0  0  0  0  0  0
  127.2940  131.0530   60.3650 H   0  0  0  0  0  0  0  0  0  0  0  0
  131.2295  133.9729   54.1071 H   0  0  0  0  0  0  0  0  0  0  0  0
  132.1137  132.5044   53.5698 H   0  0  0  0  0  0  0  0  0  0  0  0
  130.3175  132.5216   53.5698 H   0  0  0  0  0  0  0  0  0  0  0  0
  133.0432  131.2185   55.2990 H   0  0  0  0  0  0  0  0  0  0  0  0
  132.3340  129.8500   59.9570 H   0  0  0  0  0  0  0  0  0  0  0  0
  131.3690  130.3110   61.3050 H   0  0  0  0  0  0  0  0  0  0  0  0
  128.1786  129.8505   63.5793 H   0  0  0  0  0  0  0  0  0  0  0  0
  126.5243  129.5494   65.4131 H   0  0  0  0  0  0  0  0  0  0  0  0
  1  2  1  0
  2  3  1  0
  3  4  2  0
  4  5  1  0
  5  6  2  0
  6  7  1  0
  7  8  1  0
  8  9  2  0
  8 10  1  0
 10 11  1  0
 11 12  1  0
 12 13  2  0
 13 14  1  0
 14 15  1  0
 14 16  2  0
 16 17  1  0
 17 18  1  0
 18 19  1  0
 18 20  1  0
 18 21  1  0
 17 22  2  0
 22 23  1  0
 23 24  1  0
  6 25  1  0
 25 26  2  0
 26  3  1  0
 23 10  2  0
 22 12  1  0
  1 27  1  0
  1 28  1  0
  1 29  1  0
  4 30  1  0
  5 31  1  0
  7 32  1  0
 15 33  1  0
 15 34  1  0
 15 35  1  0
 16 36  1  0
 24 37  1  0
 24 38  1  0
 25 39  1  0
 26 40  1  0
M  END
>  <Binding energies>  (1) 
[-7.08]

>  <Ligand effiencies>  (1) 
[-0.24413793103448275]

>  <Interactions>  (1) 
["V-B:ARG:545:CD:9895, V-A:PRO:540:CB:4885, V-A:LEU:363:CA:3185, V-A:ASN:362:C:3172, H-A:GLU:543:OE1:4909, V-A:ASP:366:CG:3213, V-A:PRO:540:CA:4883, V-A:LEU:363:CB:3187, V-B:ARG:545:CG:9894, V-A:TYR:539:CD2:4874, V-A:TYR:539:CE2:4876, V-A:ILE:538:CD1:4865, V-A:TYR:539:CG:4872, V-A:TYR:539:C:4867, V-A:ASP:366:CB:3212, V-A:TYR:531:CE2:4793, V-A:PRO:540:N:4884, V-A:TYR:531:CZ:4794, V-B:ARG:545:CZ:9898, V-B:GLY:454:CA:9020, V-A:ILE:538:CA:4860, H-A:TYR:539:N:4870, V-A:ILE:538:CG2:4863, V-A:LEU:363:CD1:3189, H-B:GLY:454:N:9021, H-B:TYR:484:OH:9319, V-A:ILE:538:C:4858, H-A:ALA:541:N:4891, H-A:ASP:366:OD1:3214, V-A:ILE:538:CB:4862, V-A:VAL:537:C:4850, V-A:ILE:538:CG1:4864, V-A:LEU:363:CG:3188, V-A:LEU:363:C:3183"]

$$$$
4bd_Grossjean_2025
     RDKit          3D

 36 38  0  0  0  0  0  0  0  0999 V2000
  130.9300  132.8720   54.0250 C   0  0  0  0  0  0  0  0  0  0  0  0
  131.0890  132.3060   55.4250 C   0  0  0  0  0  0  0  0  0  0  0  0
  132.1180  131.4200   55.7280 C   0  0  0  0  0  0  0  0  0  0  0  0
  132.2520  130.9020   57.0260 C   0  0  0  0  0  0  0  0  0  0  0  0
  133.3990  129.9260   57.3110 C   0  0  0  0  0  0  0  0  0  0  0  0
  134.1580  129.6850   56.2400 F   0  0  0  0  0  0  0  0  0  0  0  0
  134.1930  130.4260   58.2580 F   0  0  0  0  0  0  0  0  0  0  0  0
  132.9060  128.7580   57.7210 F   0  0  0  0  0  0  0  0  0  0  0  0
  131.2990  131.3260   57.9990 C   0  0  0  0  0  0  0  0  0  0  0  0
  131.1200  131.0180   59.3970 C   0  0  0  0  0  0  0  0  0  0  0  0
  131.9520  130.1700   60.0800 N   0  0  0  0  0  0  0  0  0  0  0  0
  130.0220  131.6630   59.9910 C   0  0  0  0  0  0  0  0  0  0  0  0
  129.5440  131.5660   61.3740 C   0  0  0  0  0  0  0  0  0  0  0  0
  130.1430  132.1340   62.2870 O   0  0  0  0  0  0  0  0  0  0  0  0
  128.4170  130.8320   61.5490 N   0  0  0  0  0  0  0  0  0  0  0  0
  127.7320  130.5120   62.7360 C   0  0  0  0  0  0  0  0  0  0  0  0
  126.4130  130.0770   62.5840 C   0  0  0  0  0  0  0  0  0  0  0  0
  125.6550  129.7280   63.6980 C   0  0  0  0  0  0  0  0  0  0  0  0
  126.2200  129.8050   64.9680 C   0  0  0  0  0  0  0  0  0  0  0  0
  127.5380  130.2230   65.1320 C   0  0  0  0  0  0  0  0  0  0  0  0
  128.2990  130.5740   64.0200 C   0  0  0  0  0  0  0  0  0  0  0  0
  129.1760  132.6820   58.8290 S   0  0  0  0  0  0  0  0  0  0  0  0
  130.2920  132.2380   57.5580 C   0  0  0  0  0  0  0  0  0  0  0  0
  130.1700  132.7260   56.3250 N   0  0  0  0  0  0  0  0  0  0  0  0
  130.6330  133.9292   54.0885 H   0  0  0  0  0  0  0  0  0  0  0  0
  131.8856  132.7913   53.4862 H   0  0  0  0  0  0  0  0  0  0  0  0
  130.1562  132.3055   53.4862 H   0  0  0  0  0  0  0  0  0  0  0  0
  132.8315  131.1233   54.9452 H   0  0  0  0  0  0  0  0  0  0  0  0
  132.8380  129.8660   59.6980 H   0  0  0  0  0  0  0  0  0  0  0  0
  131.7110  129.8210   60.9970 H   0  0  0  0  0  0  0  0  0  0  0  0
  127.9870  130.4700   60.7100 H   0  0  0  0  0  0  0  0  0  0  0  0
  125.9713  130.0100   61.5788 H   0  0  0  0  0  0  0  0  0  0  0  0
  124.6145  129.3929   63.5755 H   0  0  0  0  0  0  0  0  0  0  0  0
  125.6203  129.5334   65.8492 H   0  0  0  0  0  0  0  0  0  0  0  0
  127.9776  130.2759   66.1390 H   0  0  0  0  0  0  0  0  0  0  0  0
  129.3422  130.8992   64.1466 H   0  0  0  0  0  0  0  0  0  0  0  0
  1  2  1  0
  2  3  2  0
  3  4  1  0
  4  5  1  0
  5  6  1  0
  5  7  1  0
  5  8  1  0
  4  9  2  0
  9 10  1  0
 10 11  1  0
 10 12  2  0
 12 13  1  0
 13 14  2  0
 13 15  1  0
 15 16  1  0
 16 17  2  0
 17 18  1  0
 18 19  2  0
 19 20  1  0
 20 21  2  0
 12 22  1  0
 22 23  1  0
 23 24  2  0
 24  2  1  0
 23  9  1  0
 21 16  1  0
  1 25  1  0
  1 26  1  0
  1 27  1  0
  3 28  1  0
 11 29  1  0
 11 30  1  0
 15 31  1  0
 17 32  1  0
 18 33  1  0
 19 34  1  0
 20 35  1  0
 21 36  1  0
M  END
>  <Binding energies>  (1) 
[-6.74]

>  <Ligand effiencies>  (1) 
[-0.24962962962962965]

>  <Interactions>  (1) 
["V-A:PRO:540:CB:4885, V-A:LEU:363:CA:3185, V-A:ASN:362:C:3172, H-A:GLU:543:OE1:4909, V-A:ASP:366:CG:3213, V-A:PRO:540:CA:4883, V-A:LEU:363:CB:3187, V-A:GLU:543:CD:4908, V-A:TYR:539:CD2:4874, V-A:ILE:538:CD1:4865, V-A:TYR:539:C:4867, V-A:ASP:366:CB:3212, V-A:TYR:531:CE2:4793, V-A:PRO:540:N:4884, V-A:TYR:531:CZ:4794, V-A:ILE:538:CA:4860, H-A:TYR:539:N:4870, V-A:LEU:363:CD1:3189, V-A:GLU:543:CB:4906, V-A:ILE:538:C:4858, H-A:ALA:541:N:4891, H-A:ASP:366:OD1:3214, V-A:ILE:538:CB:4862, V-A:VAL:537:C:4850, V-A:TYR:531:CD2:4791, V-A:LEU:363:C:3183"]

$$$$
4be_Grossjean_2025
     RDKit          3D

 38 40  0  0  0  0  0  0  0  0999 V2000
  127.9140  119.7830   72.7980 C   0  0  0  0  0  0  0  0  0  0  0  0
  128.9650  120.8730   72.7070 C   0  0  0  0  0  0  0  0  0  0  0  0
  130.0770  120.8880   73.5530 C   0  0  0  0  0  0  0  0  0  0  0  0
  131.0030  121.9230   73.4150 C   0  0  0  0  0  0  0  0  0  0  0  0
  130.7970  122.9080   72.4460 C   0  0  0  0  0  0  0  0  0  0  0  0
  129.6650  122.8290   71.6270 C   0  0  0  0  0  0  0  0  0  0  0  0
  129.5120  123.8550   70.6760 N   0  0  0  0  0  0  0  0  0  0  0  0
  129.5740  125.1980   70.8550 C   0  0  0  0  0  0  0  0  0  0  0  0
  129.7920  125.7360   71.9420 O   0  0  0  0  0  0  0  0  0  0  0  0
  129.3390  126.0040   69.6530 C   0  0  0  0  0  0  0  0  0  0  0  0
  128.7690  127.6650   69.8000 S   0  0  0  0  0  0  0  0  0  0  0  0
  128.7260  127.8510   68.0620 C   0  0  0  0  0  0  0  0  0  0  0  0
  128.3450  128.9950   67.4950 N   0  0  0  0  0  0  0  0  0  0  0  0
  128.3550  129.0190   66.1420 C   0  0  0  0  0  0  0  0  0  0  0  0
  127.9150  130.3290   65.5150 C   0  0  0  0  0  0  0  0  0  0  0  0
  128.7350  127.9380   65.3520 C   0  0  0  0  0  0  0  0  0  0  0  0
  129.1390  126.7310   65.9430 C   0  0  0  0  0  0  0  0  0  0  0  0
  129.5520  125.5700   65.0320 C   0  0  0  0  0  0  0  0  0  0  0  0
  129.4140  125.8510   63.7340 F   0  0  0  0  0  0  0  0  0  0  0  0
  130.8340  125.2680   65.2390 F   0  0  0  0  0  0  0  0  0  0  0  0
  128.8000  124.5010   65.2920 F   0  0  0  0  0  0  0  0  0  0  0  0
  129.1360  126.6700   67.3690 C   0  0  0  0  0  0  0  0  0  0  0  0
  129.4700  125.6270   68.3080 C   0  0  0  0  0  0  0  0  0  0  0  0
  129.8850  124.3810   67.9140 N   0  0  0  0  0  0  0  0  0  0  0  0
  128.7530  121.8220   71.7600 N   0  0  0  0  0  0  0  0  0  0  0  0
  127.7031  119.5643   73.8552 H   0  0  0  0  0  0  0  0  0  0  0  0
  126.9918  120.1205   72.3024 H   0  0  0  0  0  0  0  0  0  0  0  0
  128.2849  118.8737   72.3024 H   0  0  0  0  0  0  0  0  0  0  0  0
  130.2192  120.1026   74.3099 H   0  0  0  0  0  0  0  0  0  0  0  0
  131.8894  121.9629   74.0651 H   0  0  0  0  0  0  0  0  0  0  0  0
  131.5142  123.7337   72.3285 H   0  0  0  0  0  0  0  0  0  0  0  0
  129.2870  123.5350   69.7460 H   0  0  0  0  0  0  0  0  0  0  0  0
  127.6723  131.0517   66.3079 H   0  0  0  0  0  0  0  0  0  0  0  0
  128.7283  130.7284   64.8913 H   0  0  0  0  0  0  0  0  0  0  0  0
  127.0255  130.1565   64.8913 H   0  0  0  0  0  0  0  0  0  0  0  0
  128.7185  128.0304   64.2560 H   0  0  0  0  0  0  0  0  0  0  0  0
  129.3000  123.5650   68.0150 H   0  0  0  0  0  0  0  0  0  0  0  0
  130.8010  124.2360   67.5120 H   0  0  0  0  0  0  0  0  0  0  0  0
  1  2  1  0
  2  3  2  0
  3  4  1  0
  4  5  2  0
  5  6  1  0
  6  7  1  0
  7  8  1  0
  8  9  2  0
  8 10  1  0
 10 11  1  0
 11 12  1  0
 12 13  2  0
 13 14  1  0
 14 15  1  0
 14 16  2  0
 16 17  1  0
 17 18  1  0
 18 19  1  0
 18 20  1  0
 18 21  1  0
 17 22  2  0
 22 23  1  0
 23 24  1  0
  6 25  2  0
 25  2  1  0
 23 10  2  0
 22 12  1  0
  1 26  1  0
  1 27  1  0
  1 28  1  0
  3 29  1  0
  4 30  1  0
  5 31  1  0
  7 32  1  0
 15 33  1  0
 15 34  1  0
 15 35  1  0
 16 36  1  0
 24 37  1  0
 24 38  1  0
M  END
>  <Binding energies>  (1) 
[-7.04]

>  <Ligand effiencies>  (1) 
[-0.25142857142857145]

>  <Interactions>  (1) 
["V-B:GLU:543:C:9874, V-B:GLU:543:CB:9878, V-B:HIS:456:CE1:9040, V-B:GLU:543:CD:9880, V-A:GLU:543:CD:4908, V-A:GLU:543:CG:4907, H-A:TYR:484:OH:4348, V-A:HIS:456:CE1:4069, V-B:GLU:543:CG:9879, V-A:TYR:484:CE1:4345, V-A:TYR:484:CZ:4347, H-A:HIS:456:NE2:4070, V-A:HIS:456:CD2:4068, V-A:ASP:473:CB:4239, V-A:ASP:473:CG:4240, H-B:LYS:547:NZ:9923, H-B:HIS:456:NE2:9041, V-B:GLU:543:CA:9876, V-A:TYR:484:CD2:4344, V-A:GLU:543:CB:4906, V-A:TYR:484:CD1:4343, V-A:TYR:484:CG:4342, V-A:TYR:484:CB:4341, V-B:TYR:484:CZ:9318, V-A:TYR:484:CE2:4346, V-B:LYS:547:CE:9922, H-B:GLU:543:O:9875, H-A:HIS:456:ND1:4067"]

$$$$
4bf_Grossjean_2025
     RDKit          3D

 35 37  0  0  0  0  0  0  0  0999 V2000
  127.9710  130.3290   64.7110 C   0  0  0  0  0  0  0  0  0  0  0  0
  128.3760  129.0560   65.4340 C   0  0  0  0  0  0  0  0  0  0  0  0
  128.7060  127.9040   64.7260 C   0  0  0  0  0  0  0  0  0  0  0  0
  129.0750  126.7330   65.4060 C   0  0  0  0  0  0  0  0  0  0  0  0
  129.4280  125.4890   64.5850 C   0  0  0  0  0  0  0  0  0  0  0  0
  130.7410  125.2490   64.5370 F   0  0  0  0  0  0  0  0  0  0  0  0
  128.8450  124.4150   65.1190 F   0  0  0  0  0  0  0  0  0  0  0  0
  129.0050  125.6410   63.3290 F   0  0  0  0  0  0  0  0  0  0  0  0
  129.0930  126.7850   66.8320 C   0  0  0  0  0  0  0  0  0  0  0  0
  129.4100  125.8100   67.8460 C   0  0  0  0  0  0  0  0  0  0  0  0
  129.7920  124.5270   67.5440 N   0  0  0  0  0  0  0  0  0  0  0  0
  129.2960  126.2890   69.1610 C   0  0  0  0  0  0  0  0  0  0  0  0
  129.5090  125.5670   70.4190 C   0  0  0  0  0  0  0  0  0  0  0  0
  129.4790  126.1620   71.4970 O   0  0  0  0  0  0  0  0  0  0  0  0
  129.7180  124.2330   70.2940 N   0  0  0  0  0  0  0  0  0  0  0  0
  129.9990  123.2740   71.2850 C   0  0  0  0  0  0  0  0  0  0  0  0
  131.1570  123.2410   72.0820 C   0  0  0  0  0  0  0  0  0  0  0  0
  131.3200  122.2200   73.0220 C   0  0  0  0  0  0  0  0  0  0  0  0
  130.3210  121.2530   73.1390 C   0  0  0  0  0  0  0  0  0  0  0  0
  129.1990  121.2590   72.3770 N   0  0  0  0  0  0  0  0  0  0  0  0
  129.0550  122.2570   71.4670 C   0  0  0  0  0  0  0  0  0  0  0  0
  128.7850  127.9760   69.1810 S   0  0  0  0  0  0  0  0  0  0  0  0
  128.7330  128.0300   67.4350 C   0  0  0  0  0  0  0  0  0  0  0  0
  128.3840  129.1390   66.7840 N   0  0  0  0  0  0  0  0  0  0  0  0
  127.7236  131.1067   65.4486 H   0  0  0  0  0  0  0  0  0  0  0  0
  128.8039  130.6734   64.0804 H   0  0  0  0  0  0  0  0  0  0  0  0
  127.0922  130.1288   64.0804 H   0  0  0  0  0  0  0  0  0  0  0  0
  128.6774  127.9114   63.6264 H   0  0  0  0  0  0  0  0  0  0  0  0
  129.1330  123.7620   67.5350 H   0  0  0  0  0  0  0  0  0  0  0  0
  130.7520  124.3050   67.3170 H   0  0  0  0  0  0  0  0  0  0  0  0
  129.6580  123.8600   69.3580 H   0  0  0  0  0  0  0  0  0  0  0  0
  131.9303  124.0147   71.9661 H   0  0  0  0  0  0  0  0  0  0  0  0
  132.2175  122.1795   73.6567 H   0  0  0  0  0  0  0  0  0  0  0  0
  130.4489  120.4513   73.8812 H   0  0  0  0  0  0  0  0  0  0  0  0
  128.1504  122.2664   70.8412 H   0  0  0  0  0  0  0  0  0  0  0  0
  1  2  1  0
  2  3  2  0
  3  4  1  0
  4  5  1  0
  5  6  1  0
  5  7  1  0
  5  8  1  0
  4  9  2  0
  9 10  1  0
 10 11  1  0
 10 12  2  0
 12 13  1  0
 13 14  2  0
 13 15  1  0
 15 16  1  0
 16 17  2  0
 17 18  1  0
 18 19  2  0
 19 20  1  0
 20 21  2  0
 12 22  1  0
 22 23  1  0
 23 24  2  0
 24  2  1  0
 23  9  1  0
 21 16  1  0
  1 25  1  0
  1 26  1  0
  1 27  1  0
  3 28  1  0
 11 29  1  0
 11 30  1  0
 15 31  1  0
 17 32  1  0
 18 33  1  0
 19 34  1  0
 21 35  1  0
M  END
>  <Binding energies>  (1) 
[-6.54]

>  <Ligand effiencies>  (1) 
[-0.24222222222222223]

>  <Interactions>  (1) 
["V-B:GLU:543:C:9874, V-B:GLU:543:CB:9878, V-B:HIS:456:CE1:9040, V-B:GLU:543:CD:9880, V-A:GLU:543:CD:4908, H-A:TYR:484:OH:4348, V-A:HIS:456:CE1:4069, V-B:GLU:543:CG:9879, V-A:TYR:484:CE1:4345, V-A:TYR:484:CZ:4347, V-A:HIS:456:CG:4066, H-A:HIS:456:NE2:4070, V-A:HIS:456:CD2:4068, V-A:HIS:456:CB:4065, V-A:ASP:473:CB:4239, V-A:ASP:473:CG:4240, H-B:LYS:547:NZ:9923, V-B:GLU:543:CA:9876, V-A:TYR:484:CD2:4344, V-A:GLU:543:CB:4906, V-A:TYR:484:CD1:4343, V-A:TYR:484:CG:4342, V-A:TYR:484:CB:4341, V-A:TYR:484:CE2:4346, V-B:LYS:547:CE:9922, V-B:GLY:544:CA:9886, H-B:GLU:543:O:9875, H-A:HIS:456:ND1:4067"]

$$$$
4bg_Grossjean_2025
     RDKit          3D

 39 41  0  0  0  0  0  0  0  0999 V2000
  130.8400  132.4360   53.6250 C   0  0  0  0  0  0  0  0  0  0  0  0
  131.0120  132.0600   55.0860 C   0  0  0  0  0  0  0  0  0  0  0  0
  132.0500  131.2280   55.4960 C   0  0  0  0  0  0  0  0  0  0  0  0
  132.1930  130.8840   56.8500 C   0  0  0  0  0  0  0  0  0  0  0  0
  133.3510  129.9650   57.2530 C   0  0  0  0  0  0  0  0  0  0  0  0
  134.1090  130.4770   58.2250 F   0  0  0  0  0  0  0  0  0  0  0  0
  132.8700  128.8020   57.6940 F   0  0  0  0  0  0  0  0  0  0  0  0
  134.1410  129.7460   56.2030 F   0  0  0  0  0  0  0  0  0  0  0  0
  131.2390  131.4230   57.7640 C   0  0  0  0  0  0  0  0  0  0  0  0
  131.0640  131.2930   59.1900 C   0  0  0  0  0  0  0  0  0  0  0  0
  131.8880  130.5240   59.9720 N   0  0  0  0  0  0  0  0  0  0  0  0
  129.9840  132.0280   59.7020 C   0  0  0  0  0  0  0  0  0  0  0  0
  129.5040  132.1010   61.0820 C   0  0  0  0  0  0  0  0  0  0  0  0
  130.2270  131.7980   62.0320 O   0  0  0  0  0  0  0  0  0  0  0  0
  128.2430  132.5550   61.2450 N   0  0  0  0  0  0  0  0  0  0  0  0
  127.5510  132.6970   62.5260 C   0  0  0  0  0  0  0  0  0  0  0  0
  126.1620  132.0720   62.5410 C   0  0  0  0  0  0  0  0  0  0  0  0
  125.8530  131.0720   63.4680 C   0  0  0  0  0  0  0  0  0  0  0  0
  124.5720  130.5300   63.5050 C   0  0  0  0  0  0  0  0  0  0  0  0
  123.5980  130.9990   62.6260 C   0  0  0  0  0  0  0  0  0  0  0  0
  123.8940  132.0080   61.7120 C   0  0  0  0  0  0  0  0  0  0  0  0
  125.1760  132.5490   61.6730 C   0  0  0  0  0  0  0  0  0  0  0  0
  129.1220  132.8790   58.4230 S   0  0  0  0  0  0  0  0  0  0  0  0
  130.2280  132.2700   57.2140 C   0  0  0  0  0  0  0  0  0  0  0  0
  130.0950  132.5910   55.9270 N   0  0  0  0  0  0  0  0  0  0  0  0
  130.3834  133.4343   53.5546 H   0  0  0  0  0  0  0  0  0  0  0  0
  131.8228  132.4467   53.1310 H   0  0  0  0  0  0  0  0  0  0  0  0
  130.1893  131.6995   53.1310 H   0  0  0  0  0  0  0  0  0  0  0  0
  132.7627  130.8375   54.7547 H   0  0  0  0  0  0  0  0  0  0  0  0
  132.5600  129.8850   59.5740 H   0  0  0  0  0  0  0  0  0  0  0  0
  131.8420  130.5660   60.9820 H   0  0  0  0  0  0  0  0  0  0  0  0
  127.6820  132.7080   60.4190 H   0  0  0  0  0  0  0  0  0  0  0  0
  128.1585  132.2132   63.3050 H   0  0  0  0  0  0  0  0  0  0  0  0
  127.4219  133.7746   62.7053 H   0  0  0  0  0  0  0  0  0  0  0  0
  126.6224  130.7138   64.1679 H   0  0  0  0  0  0  0  0  0  0  0  0
  124.3293  129.7347   64.2251 H   0  0  0  0  0  0  0  0  0  0  0  0
  122.5860  130.5687   62.6539 H   0  0  0  0  0  0  0  0  0  0  0  0
  123.1181  132.3755   61.0243 H   0  0  0  0  0  0  0  0  0  0  0  0
  125.4129  133.3517   60.9592 H   0  0  0  0  0  0  0  0  0  0  0  0
  1  2  1  0
  2  3  2  0
  3  4  1  0
  4  5  1  0
  5  6  1  0
  5  7  1  0
  5  8  1  0
  4  9  2  0
  9 10  1  0
 10 11  1  0
 10 12  2  0
 12 13  1  0
 13 14  2  0
 13 15  1  0
 15 16  1  0
 16 17  1  0
 17 18  2  0
 18 19  1  0
 19 20  2  0
 20 21  1  0
 21 22  2  0
 12 23  1  0
 23 24  1  0
 24 25  2  0
 25  2  1  0
 24  9  1  0
 22 17  1  0
  1 26  1  0
  1 27  1  0
  1 28  1  0
  3 29  1  0
 11 30  1  0
 11 31  1  0
 15 32  1  0
 16 33  1  0
 16 34  1  0
 18 35  1  0
 19 36  1  0
 20 37  1  0
 21 38  1  0
 22 39  1  0
M  END
>  <Binding energies>  (1) 
[-6.94]

>  <Ligand effiencies>  (1) 
[-0.24785714285714286]

>  <Interactions>  (1) 
["V-A:PRO:540:CB:4885, V-A:ALA:541:CB:4892, V-A:LEU:363:CA:3185, V-A:ASN:362:C:3172, H-A:GLU:543:OE1:4909, V-B:LEU:475:CD1:9229, V-A:ASP:366:CG:3213, V-A:PRO:540:CA:4883, V-A:LEU:363:CB:3187, V-A:TYR:539:CD2:4874, V-A:TYR:539:CE2:4876, V-A:ILE:538:CD1:4865, V-A:TYR:539:CG:4872, V-A:TYR:539:C:4867, V-A:ASP:366:CB:3212, V-A:TYR:531:CE2:4793, V-A:PRO:540:N:4884, V-A:TYR:531:CZ:4794, V-B:ILE:369:CD1:8210, V-B:ARG:545:CZ:9898, V-B:GLY:454:CA:9020, V-A:ILE:538:CA:4860, H-A:TYR:539:N:4870, V-A:LEU:363:CD1:3189, H-A:ALA:541:N:4891, H-A:ASP:366:OD1:3214, H-A:TYR:539:O:4868, V-A:VAL:537:C:4850, V-A:TYR:531:CD2:4791, V-A:LEU:363:CG:3188"]

$$$$
4bh_Grossjean_2025
     RDKit          3D

 51 53  0  0  0  0  0  0  0  0999 V2000
  130.7770  121.5700   73.4270 C   0  0  0  0  0  0  0  0  0  0  0  0
  131.0830  122.5120   72.4050 O   0  0  0  0  0  0  0  0  0  0  0  0
  130.6590  123.8220   72.5400 C   0  0  0  0  0  0  0  0  0  0  0  0
  129.5980  124.3810   71.8100 C   0  0  0  0  0  0  0  0  0  0  0  0
  129.2250  125.7130   71.9960 C   0  0  0  0  0  0  0  0  0  0  0  0
  128.0420  126.2890   71.2270 C   0  0  0  0  0  0  0  0  0  0  0  0
  128.2180  126.2600   69.7750 N   0  0  0  0  0  0  0  0  0  0  0  0
  128.9400  127.1440   69.0570 C   0  0  0  0  0  0  0  0  0  0  0  0
  129.5030  128.1130   69.5710 O   0  0  0  0  0  0  0  0  0  0  0  0
  128.9820  126.9170   67.6120 C   0  0  0  0  0  0  0  0  0  0  0  0
  128.4710  128.1860   66.5040 S   0  0  0  0  0  0  0  0  0  0  0  0
  128.7670  127.1580   65.1220 C   0  0  0  0  0  0  0  0  0  0  0  0
  128.5540  127.5870   63.8780 N   0  0  0  0  0  0  0  0  0  0  0  0
  128.8210  126.7010   62.8910 C   0  0  0  0  0  0  0  0  0  0  0  0
  128.5700  127.2100   61.4820 C   0  0  0  0  0  0  0  0  0  0  0  0
  129.2940  125.4110   63.1140 C   0  0  0  0  0  0  0  0  0  0  0  0
  129.5180  124.9530   64.4220 C   0  0  0  0  0  0  0  0  0  0  0  0
  130.0420  123.5260   64.6180 C   0  0  0  0  0  0  0  0  0  0  0  0
  129.3400  122.8300   65.5160 F   0  0  0  0  0  0  0  0  0  0  0  0
  129.9820  122.8610   63.4650 F   0  0  0  0  0  0  0  0  0  0  0  0
  131.3050  123.5630   65.0400 F   0  0  0  0  0  0  0  0  0  0  0  0
  129.2440  125.8610   65.4870 C   0  0  0  0  0  0  0  0  0  0  0  0
  129.3430  125.7490   66.9210 C   0  0  0  0  0  0  0  0  0  0  0  0
  129.7620  124.6050   67.5500 N   0  0  0  0  0  0  0  0  0  0  0  0
  129.8970  126.4900   72.9410 C   0  0  0  0  0  0  0  0  0  0  0  0
  130.9660  125.9600   73.6790 C   0  0  0  0  0  0  0  0  0  0  0  0
  131.6850  126.6750   74.6200 O   0  0  0  0  0  0  0  0  0  0  0  0
  133.0840  126.8630   74.4340 C   0  0  0  0  0  0  0  0  0  0  0  0
  131.3410  124.6250   73.4650 C   0  0  0  0  0  0  0  0  0  0  0  0
  132.3750  124.0870   74.1950 O   0  0  0  0  0  0  0  0  0  0  0  0
  132.0740  123.9000   75.5710 C   0  0  0  0  0  0  0  0  0  0  0  0
  130.9283  122.0356   74.4121 H   0  0  0  0  0  0  0  0  0  0  0  0
  129.7289  121.2506   73.3294 H   0  0  0  0  0  0  0  0  0  0  0  0
  131.4373  120.6957   73.3294 H   0  0  0  0  0  0  0  0  0  0  0  0
  129.0537  123.7613   71.0822 H   0  0  0  0  0  0  0  0  0  0  0  0
  127.1448  125.7051   71.4804 H   0  0  0  0  0  0  0  0  0  0  0  0
  127.9499  127.3453   71.5200 H   0  0  0  0  0  0  0  0  0  0  0  0
  127.8540  125.4450   69.3010 H   0  0  0  0  0  0  0  0  0  0  0  0
  128.0840  128.1957   61.5294 H   0  0  0  0  0  0  0  0  0  0  0  0
  129.5277  127.2987   60.9481 H   0  0  0  0  0  0  0  0  0  0  0  0
  127.9166  126.5042   60.9481 H   0  0  0  0  0  0  0  0  0  0  0  0
  129.4934  124.7466   62.2603 H   0  0  0  0  0  0  0  0  0  0  0  0
  130.7110  124.2650   67.4640 H   0  0  0  0  0  0  0  0  0  0  0  0
  129.1320  124.0560   68.1180 H   0  0  0  0  0  0  0  0  0  0  0  0
  129.5844  127.5312   73.1092 H   0  0  0  0  0  0  0  0  0  0  0  0
  133.5786  126.9295   75.4143 H   0  0  0  0  0  0  0  0  0  0  0  0
  133.4968  126.0123   73.8720 H   0  0  0  0  0  0  0  0  0  0  0  0
  133.2575  127.7925   73.8720 H   0  0  0  0  0  0  0  0  0  0  0  0
  132.8494  124.3817   76.1847 H   0  0  0  0  0  0  0  0  0  0  0  0
  131.0958  124.3497   75.7968 H   0  0  0  0  0  0  0  0  0  0  0  0
  132.0437  122.8238   75.7968 H   0  0  0  0  0  0  0  0  0  0  0  0
  1  2  1  0
  2  3  1  0
  3  4  2  0
  4  5  1  0
  5  6  1  0
  6  7  1  0
  7  8  1  0
  8  9  2  0
  8 10  1  0
 10 11  1  0
 11 12  1  0
 12 13  2  0
 13 14  1  0
 14 15  1  0
 14 16  2  0
 16 17  1  0
 17 18  1  0
 18 19  1  0
 18 20  1  0
 18 21  1  0
 17 22  2  0
 22 23  1  0
 23 24  1  0
  5 25  2  0
 25 26  1  0
 26 27  1  0
 27 28  1  0
 26 29  2  0
 29 30  1  0
 30 31  1  0
 29  3  1  0
 23 10  2  0
 22 12  1  0
  1 32  1  0
  1 33  1  0
  1 34  1  0
  4 35  1  0
  6 36  1  0
  6 37  1  0
  7 38  1  0
 15 39  1  0
 15 40  1  0
 15 41  1  0
 16 42  1  0
 24 43  1  0
 24 44  1  0
 25 45  1  0
 28 46  1  0
 28 47  1  0
 28 48  1  0
 31 49  1  0
 31 50  1  0
 31 51  1  0
M  END
>  <Binding energies>  (1) 
[-6.69]

>  <Ligand effiencies>  (1) 
[-0.19676470588235295]

>  <Interactions>  (1) 
["V-B:GLU:543:C:9874, V-B:GLU:543:CB:9878, V-B:GLY:544:C:9884, V-B:HIS:456:CE1:9040, V-B:GLU:543:CD:9880, V-A:GLU:543:CD:4908, V-B:ALA:541:CB:9864, H-A:TYR:484:OH:4348, V-A:HIS:456:CE1:4069, V-B:GLU:543:CG:9879, V-A:TYR:484:CE1:4345, V-A:TYR:484:CZ:4347, V-A:HIS:456:CG:4066, H-A:HIS:456:NE2:4070, V-A:HIS:456:CD2:4068, V-A:HIS:456:CB:4065, V-A:LYS:547:CD:4949, V-A:LYS:547:CE:4950, H-A:LYS:547:NZ:4951, V-A:ASP:473:CB:4239, V-A:ASP:473:CG:4240, H-B:LYS:547:NZ:9923, H-B:HIS:456:NE2:9041, V-B:GLU:543:CA:9876, V-A:TYR:484:CD2:4344, V-A:TYR:484:CG:4342, V-A:TYR:484:CB:4341, H-B:GLU:543:O:9875, H-B:GLY:544:O:9885, H-A:HIS:456:ND1:4067"]

$$$$
4bi_Grossjean_2025
     RDKit          3D

 32 34  0  0  0  0  0  0  0  0999 V2000
  127.9350  130.2860   65.2040 C   0  0  0  0  0  0  0  0  0  0  0  0
  128.3620  128.9870   65.8640 C   0  0  0  0  0  0  0  0  0  0  0  0
  128.7370  127.8840   65.1010 C   0  0  0  0  0  0  0  0  0  0  0  0
  129.1340  126.6900   65.7260 C   0  0  0  0  0  0  0  0  0  0  0  0
  129.5450  125.5060   64.8450 C   0  0  0  0  0  0  0  0  0  0  0  0
  129.0390  124.3430   65.2620 F   0  0  0  0  0  0  0  0  0  0  0  0
  129.1190  125.7010   63.5970 F   0  0  0  0  0  0  0  0  0  0  0  0
  130.8730  125.3850   64.8430 F   0  0  0  0  0  0  0  0  0  0  0  0
  129.1280  126.6660   67.1520 C   0  0  0  0  0  0  0  0  0  0  0  0
  129.4580  125.6470   68.1180 C   0  0  0  0  0  0  0  0  0  0  0  0
  129.8720  124.3900   67.7570 N   0  0  0  0  0  0  0  0  0  0  0  0
  129.3260  126.0580   69.4550 C   0  0  0  0  0  0  0  0  0  0  0  0
  129.5630  125.2840   70.6760 C   0  0  0  0  0  0  0  0  0  0  0  0
  129.6800  125.8480   71.7660 O   0  0  0  0  0  0  0  0  0  0  0  0
  129.6210  123.9390   70.5110 N   0  0  0  0  0  0  0  0  0  0  0  0
  129.8200  122.9740   71.4900 C   0  0  0  0  0  0  0  0  0  0  0  0
  130.9480  122.9430   72.3100 C   0  0  0  0  0  0  0  0  0  0  0  0
  130.7650  121.8520   73.1290 C   0  0  0  0  0  0  0  0  0  0  0  0
  129.5880  121.2580   72.8200 O   0  0  0  0  0  0  0  0  0  0  0  0
  128.9990  121.9790   71.7780 N   0  0  0  0  0  0  0  0  0  0  0  0
  128.7590  127.7240   69.5560 S   0  0  0  0  0  0  0  0  0  0  0  0
  128.7220  127.8650   67.8140 C   0  0  0  0  0  0  0  0  0  0  0  0
  128.3480  128.9970   67.2170 N   0  0  0  0  0  0  0  0  0  0  0  0
  127.6911  131.0280   65.9786 H   0  0  0  0  0  0  0  0  0  0  0  0
  128.7555  130.6660   64.5776 H   0  0  0  0  0  0  0  0  0  0  0  0
  127.0490  130.1051   64.5776 H   0  0  0  0  0  0  0  0  0  0  0  0
  128.7223  127.9480   64.0030 H   0  0  0  0  0  0  0  0  0  0  0  0
  129.3330  123.5660   67.9810 H   0  0  0  0  0  0  0  0  0  0  0  0
  130.7380  124.2450   67.2580 H   0  0  0  0  0  0  0  0  0  0  0  0
  129.4980  123.5850   69.5730 H   0  0  0  0  0  0  0  0  0  0  0  0
  131.7993  123.6395   72.3035 H   0  0  0  0  0  0  0  0  0  0  0  0
  131.4633  121.5163   73.9098 H   0  0  0  0  0  0  0  0  0  0  0  0
  1  2  1  0
  2  3  2  0
  3  4  1  0
  4  5  1  0
  5  6  1  0
  5  7  1  0
  5  8  1  0
  4  9  2  0
  9 10  1  0
 10 11  1  0
 10 12  2  0
 12 13  1  0
 13 14  2  0
 13 15  1  0
 15 16  1  0
 16 17  1  0
 17 18  2  0
 18 19  1  0
 19 20  1  0
 12 21  1  0
 21 22  1  0
 22 23  2  0
 23  2  1  0
 22  9  1  0
 20 16  2  0
  1 24  1  0
  1 25  1  0
  1 26  1  0
  3 27  1  0
 11 28  1  0
 11 29  1  0
 15 30  1  0
 17 31  1  0
 18 32  1  0
M  END
>  <Binding energies>  (1) 
[-7.27]

>  <Ligand effiencies>  (1) 
[-0.2796153846153846]

>  <Interactions>  (1) 
["V-B:GLU:543:C:9874, V-B:GLU:543:CB:9878, V-B:HIS:456:CE1:9040, V-B:GLU:543:CD:9880, V-A:GLU:543:CD:4908, V-A:GLU:543:CG:4907, H-A:TYR:484:OH:4348, V-A:HIS:456:CE1:4069, V-B:GLU:543:CG:9879, V-A:TYR:484:CE1:4345, V-A:TYR:484:CZ:4347, V-A:HIS:456:CG:4066, H-A:HIS:456:NE2:4070, V-A:HIS:456:CD2:4068, V-A:HIS:456:CB:4065, V-A:ASP:473:CB:4239, H-B:LYS:547:NZ:9923, V-B:GLU:543:CA:9876, V-A:TYR:484:CD2:4344, V-A:GLU:543:CB:4906, V-A:TYR:484:CD1:4343, V-A:TYR:484:CG:4342, V-A:TYR:484:CB:4341, V-A:TYR:484:CE2:4346, H-B:GLU:543:O:9875, H-A:HIS:456:ND1:4067"]

$$$$
4bj_Grossjean_2025
     RDKit          3D

 32 34  0  0  0  0  0  0  0  0999 V2000
  127.9720  130.3000   65.4330 C   0  0  0  0  0  0  0  0  0  0  0  0
  128.3970  128.9950   66.0820 C   0  0  0  0  0  0  0  0  0  0  0  0
  128.7780  127.9000   65.3100 C   0  0  0  0  0  0  0  0  0  0  0  0
  129.1620  126.6980   65.9230 C   0  0  0  0  0  0  0  0  0  0  0  0
  129.5700  125.5190   65.0310 C   0  0  0  0  0  0  0  0  0  0  0  0
  130.8920  125.3400   64.9760 F   0  0  0  0  0  0  0  0  0  0  0  0
  129.0330  124.3930   65.4980 F   0  0  0  0  0  0  0  0  0  0  0  0
  129.1430  125.7290   63.7860 F   0  0  0  0  0  0  0  0  0  0  0  0
  129.1460  126.6580   67.3490 C   0  0  0  0  0  0  0  0  0  0  0  0
  129.4630  125.6260   68.3060 C   0  0  0  0  0  0  0  0  0  0  0  0
  129.8740  124.3710   67.9340 N   0  0  0  0  0  0  0  0  0  0  0  0
  129.3190  126.0220   69.6450 C   0  0  0  0  0  0  0  0  0  0  0  0
  129.5430  125.2340   70.8590 C   0  0  0  0  0  0  0  0  0  0  0  0
  129.4420  125.7500   71.9750 O   0  0  0  0  0  0  0  0  0  0  0  0
  129.8470  123.9280   70.6580 N   0  0  0  0  0  0  0  0  0  0  0  0
  130.0930  122.9690   71.6320 C   0  0  0  0  0  0  0  0  0  0  0  0
  129.3440  121.9390   71.9590 N   0  0  0  0  0  0  0  0  0  0  0  0
  129.8900  121.2310   72.9280 C   0  0  0  0  0  0  0  0  0  0  0  0
  131.1130  121.6870   73.4100 C   0  0  0  0  0  0  0  0  0  0  0  0
  131.5630  123.1240   72.5410 S   0  0  0  0  0  0  0  0  0  0  0  0
  128.7610  127.6890   69.7620 S   0  0  0  0  0  0  0  0  0  0  0  0
  128.7390  127.8510   68.0210 C   0  0  0  0  0  0  0  0  0  0  0  0
  128.3720  128.9900   67.4350 N   0  0  0  0  0  0  0  0  0  0  0  0
  127.7321  131.0367   66.2138 H   0  0  0  0  0  0  0  0  0  0  0  0
  128.7920  130.6825   64.8075 H   0  0  0  0  0  0  0  0  0  0  0  0
  127.0840  130.1263   64.8075 H   0  0  0  0  0  0  0  0  0  0  0  0
  128.7778  127.9782   64.2128 H   0  0  0  0  0  0  0  0  0  0  0  0
  129.2340  123.5920   67.8780 H   0  0  0  0  0  0  0  0  0  0  0  0
  130.8410  124.1820   67.7060 H   0  0  0  0  0  0  0  0  0  0  0  0
  129.8960  123.6050   69.7030 H   0  0  0  0  0  0  0  0  0  0  0  0
  129.4057  120.3301   73.3328 H   0  0  0  0  0  0  0  0  0  0  0  0
  131.7002  121.2147   74.2113 H   0  0  0  0  0  0  0  0  0  0  0  0
  1  2  1  0
  2  3  2  0
  3  4  1  0
  4  5  1  0
  5  6  1  0
  5  7  1  0
  5  8  1  0
  4  9  2  0
  9 10  1  0
 10 11  1  0
 10 12  2  0
 12 13  1  0
 13 14  2  0
 13 15  1  0
 15 16  1  0
 16 17  2  0
 17 18  1  0
 18 19  2  0
 19 20  1  0
 12 21  1  0
 21 22  1  0
 22 23  2  0
 23  2  1  0
 22  9  1  0
 20 16  1  0
  1 24  1  0
  1 25  1  0
  1 26  1  0
  3 27  1  0
 11 28  1  0
 11 29  1  0
 15 30  1  0
 18 31  1  0
 19 32  1  0
M  END
>  <Binding energies>  (1) 
[-6.43]

>  <Ligand effiencies>  (1) 
[-0.24730769230769228]

>  <Interactions>  (1) 
["V-B:GLU:543:C:9874, V-B:GLU:543:CB:9878, V-B:HIS:456:CE1:9040, V-B:GLU:543:CD:9880, V-A:GLU:543:CD:4908, V-A:GLU:543:CG:4907, H-A:TYR:484:OH:4348, V-A:HIS:456:CE1:4069, V-B:GLU:543:CG:9879, V-A:TYR:484:CE1:4345, V-A:TYR:484:CZ:4347, V-A:HIS:456:CG:4066, H-A:HIS:456:NE2:4070, V-A:HIS:456:CD2:4068, V-A:HIS:456:CB:4065, V-A:ASP:473:CB:4239, V-A:ASP:473:CG:4240, H-B:LYS:547:NZ:9923, H-B:HIS:456:NE2:9041, V-B:GLU:543:CA:9876, V-A:TYR:484:CD2:4344, V-A:GLU:543:CB:4906, V-A:TYR:484:CD1:4343, V-A:TYR:484:CG:4342, V-A:TYR:484:CB:4341, V-A:TYR:484:CE2:4346, V-B:LYS:547:CE:9922, H-B:GLU:543:O:9875, H-A:HIS:456:ND1:4067"]

$$$$
4bk_Grossjean_2025
     RDKit          3D

 50 51  0  0  0  0  0  0  0  0999 V2000
  135.1350  127.2500   73.9440 C   0  0  0  0  0  0  0  0  0  0  0  0
  133.7830  126.8550   74.1170 O   0  0  0  0  0  0  0  0  0  0  0  0
  133.6260  125.7410   74.9860 C   0  0  0  0  0  0  0  0  0  0  0  0
  132.1340  125.4190   75.1420 C   0  0  0  0  0  0  0  0  0  0  0  0
  131.3780  126.6180   75.0290 O   0  0  0  0  0  0  0  0  0  0  0  0
  130.0300  126.4880   75.4590 C   0  0  0  0  0  0  0  0  0  0  0  0
  129.0950  126.6050   74.2470 C   0  0  0  0  0  0  0  0  0  0  0  0
  129.1320  125.3920   73.5070 O   0  0  0  0  0  0  0  0  0  0  0  0
  129.4500  125.5670   72.1320 C   0  0  0  0  0  0  0  0  0  0  0  0
  128.2420  126.1800   71.4030 C   0  0  0  0  0  0  0  0  0  0  0  0
  128.3620  126.1570   69.9450 N   0  0  0  0  0  0  0  0  0  0  0  0
  128.9730  127.1000   69.1980 C   0  0  0  0  0  0  0  0  0  0  0  0
  129.5190  128.0860   69.6970 O   0  0  0  0  0  0  0  0  0  0  0  0
  128.9610  126.8830   67.7500 C   0  0  0  0  0  0  0  0  0  0  0  0
  128.4550  128.1770   66.6670 S   0  0  0  0  0  0  0  0  0  0  0  0
  128.7450  127.1760   65.2650 C   0  0  0  0  0  0  0  0  0  0  0  0
  128.5270  127.6270   64.0300 N   0  0  0  0  0  0  0  0  0  0  0  0
  128.7900  126.7610   63.0250 C   0  0  0  0  0  0  0  0  0  0  0  0
  128.5360  127.2970   61.6280 C   0  0  0  0  0  0  0  0  0  0  0  0
  129.2610  125.4650   63.2230 C   0  0  0  0  0  0  0  0  0  0  0  0
  129.4910  124.9820   64.5210 C   0  0  0  0  0  0  0  0  0  0  0  0
  130.0050  123.5490   64.6880 C   0  0  0  0  0  0  0  0  0  0  0  0
  129.9980  122.8550   63.5480 F   0  0  0  0  0  0  0  0  0  0  0  0
  131.2600  123.5700   65.1360 F   0  0  0  0  0  0  0  0  0  0  0  0
  129.2390  122.8940   65.5590 F   0  0  0  0  0  0  0  0  0  0  0  0
  129.2250  125.8720   65.6040 C   0  0  0  0  0  0  0  0  0  0  0  0
  129.3420  125.7380   67.0350 C   0  0  0  0  0  0  0  0  0  0  0  0
  129.7840  124.5890   67.6390 N   0  0  0  0  0  0  0  0  0  0  0  0
  135.6057  127.3875   74.9287 H   0  0  0  0  0  0  0  0  0  0  0  0
  135.6755  126.4722   73.3846 H   0  0  0  0  0  0  0  0  0  0  0  0
  135.1718  128.1964   73.3846 H   0  0  0  0  0  0  0  0  0  0  0  0
  134.1467  124.8695   74.5624 H   0  0  0  0  0  0  0  0  0  0  0  0
  134.0537  125.9814   75.9705 H   0  0  0  0  0  0  0  0  0  0  0  0
  131.8261  124.7153   74.3546 H   0  0  0  0  0  0  0  0  0  0  0  0
  131.9572  124.9646   76.1280 H   0  0  0  0  0  0  0  0  0  0  0  0
  129.8902  125.5073   75.9371 H   0  0  0  0  0  0  0  0  0  0  0  0
  129.7963  127.2837   76.1817 H   0  0  0  0  0  0  0  0  0  0  0  0
  128.0678  126.7938   74.5921 H   0  0  0  0  0  0  0  0  0  0  0  0
  129.4231  127.4374   73.6072 H   0  0  0  0  0  0  0  0  0  0  0  0
  130.3155  126.2394   72.0380 H   0  0  0  0  0  0  0  0  0  0  0  0
  129.6941  124.5924   71.6841 H   0  0  0  0  0  0  0  0  0  0  0  0
  127.3418  125.6149   71.6864 H   0  0  0  0  0  0  0  0  0  0  0  0
  128.1863  127.2364   71.7046 H   0  0  0  0  0  0  0  0  0  0  0  0
  127.9330  125.3740   69.4750 H   0  0  0  0  0  0  0  0  0  0  0  0
  128.0658  128.2891   61.6958 H   0  0  0  0  0  0  0  0  0  0  0  0
  129.4907  127.3798   61.0878 H   0  0  0  0  0  0  0  0  0  0  0  0
  127.8674  126.6106   61.0878 H   0  0  0  0  0  0  0  0  0  0  0  0
  129.4540  124.8156   62.3564 H   0  0  0  0  0  0  0  0  0  0  0  0
  129.1800  124.0230   68.2190 H   0  0  0  0  0  0  0  0  0  0  0  0
  130.7340  124.2650   67.5200 H   0  0  0  0  0  0  0  0  0  0  0  0
  1  2  1  0
  2  3  1  0
  3  4  1  0
  4  5  1  0
  5  6  1  0
  6  7  1  0
  7  8  1  0
  8  9  1  0
  9 10  1  0
 10 11  1  0
 11 12  1  0
 12 13  2  0
 12 14  1  0
 14 15  1  0
 15 16  1  0
 16 17  2  0
 17 18  1  0
 18 19  1  0
 18 20  2  0
 20 21  1  0
 21 22  1  0
 22 23  1  0
 22 24  1  0
 22 25  1  0
 21 26  2  0
 26 27  1  0
 27 28  1  0
 27 14  2  0
 26 16  1  0
  1 29  1  0
  1 30  1  0
  1 31  1  0
  3 32  1  0
  3 33  1  0
  4 34  1  0
  4 35  1  0
  6 36  1  0
  6 37  1  0
  7 38  1  0
  7 39  1  0
  9 40  1  0
  9 41  1  0
 10 42  1  0
 10 43  1  0
 11 44  1  0
 19 45  1  0
 19 46  1  0
 19 47  1  0
 20 48  1  0
 28 49  1  0
 28 50  1  0
M  END
>  <Binding energies>  (1) 
[-6.13]

>  <Ligand effiencies>  (1) 
[-0.19774193548387095]

>  <Interactions>  (1) 
["V-B:GLU:543:C:9874, V-B:GLU:543:CB:9878, V-B:GLY:544:C:9884, V-B:HIS:456:CE1:9040, V-B:GLU:543:CD:9880, V-A:GLU:543:CD:4908, V-B:ALA:541:CB:9864, H-A:TYR:484:OH:4348, V-A:HIS:456:CE1:4069, V-B:GLU:543:CG:9879, V-A:TYR:484:CE1:4345, V-A:TYR:484:CZ:4347, V-A:VAL:458:CG2:4087, H-A:HIS:456:NE2:4070, V-A:HIS:456:CD2:4068, V-A:VAL:457:C:4073, V-A:HIS:456:CB:4065, V-A:LYS:547:CD:4949, H-A:LYS:547:NZ:4951, V-A:HIS:456:C:4061, H-B:LYS:547:NZ:9923, V-A:HIS:456:CA:4063, H-B:HIS:456:NE2:9041, V-B:GLU:543:CA:9876, V-A:LYS:547:CG:4948, H-B:GLU:543:O:9875, H-B:GLY:544:O:9885, H-A:HIS:456:ND1:4067, V-A:VAL:457:CA:4075, V-A:ARG:545:C:4917, V-A:LYS:547:CB:4947"]

$$$$
4ca_Grossjean_2025
     RDKit          3D

 52 55  0  0  0  0  0  0  0  0999 V2000
  128.1440  123.8340   53.7600 C   0  0  0  0  0  0  0  0  0  0  0  0
  128.0380  123.6700   55.2790 C   0  0  0  0  0  0  0  0  0  0  0  0
  127.3760  122.4470   55.5780 O   0  0  0  0  0  0  0  0  0  0  0  0
  126.3960  122.3900   56.5160 C   0  0  0  0  0  0  0  0  0  0  0  0
  125.2430  122.0210   56.2730 O   0  0  0  0  0  0  0  0  0  0  0  0
  126.8550  122.8180   57.8790 C   0  0  0  0  0  0  0  0  0  0  0  0
  126.1270  123.7940   58.5720 C   0  0  0  0  0  0  0  0  0  0  0  0
  126.5250  124.2080   59.8400 C   0  0  0  0  0  0  0  0  0  0  0  0
  127.6620  123.6620   60.4380 C   0  0  0  0  0  0  0  0  0  0  0  0
  127.9680  124.1470   61.7250 N   0  0  0  0  0  0  0  0  0  0  0  0
  129.1640  124.4800   62.2700 C   0  0  0  0  0  0  0  0  0  0  0  0
  130.2340  124.4500   61.6610 O   0  0  0  0  0  0  0  0  0  0  0  0
  129.1150  124.9110   63.6690 C   0  0  0  0  0  0  0  0  0  0  0  0
  129.5720  123.7980   64.9560 S   0  0  0  0  0  0  0  0  0  0  0  0
  129.2970  125.0210   66.1730 C   0  0  0  0  0  0  0  0  0  0  0  0
  129.4900  124.7700   67.4650 N   0  0  0  0  0  0  0  0  0  0  0  0
  129.2640  125.7870   68.3370 C   0  0  0  0  0  0  0  0  0  0  0  0
  129.5010  125.4750   69.7860 C   0  0  0  0  0  0  0  0  0  0  0  0
  129.1570  126.3980   70.7860 C   0  0  0  0  0  0  0  0  0  0  0  0
  129.3790  126.1170   72.1320 C   0  0  0  0  0  0  0  0  0  0  0  0
  129.9520  124.9040   72.4980 C   0  0  0  0  0  0  0  0  0  0  0  0
  130.3060  123.9720   71.5280 C   0  0  0  0  0  0  0  0  0  0  0  0
  130.0820  124.2570   70.1840 C   0  0  0  0  0  0  0  0  0  0  0  0
  128.8230  127.0430   67.9080 C   0  0  0  0  0  0  0  0  0  0  0  0
  128.6120  127.3170   66.5480 C   0  0  0  0  0  0  0  0  0  0  0  0
  128.1310  128.7170   66.1480 C   0  0  0  0  0  0  0  0  0  0  0  0
  128.7560  129.1970   65.0710 F   0  0  0  0  0  0  0  0  0  0  0  0
  126.8280  128.6850   65.8710 F   0  0  0  0  0  0  0  0  0  0  0  0
  128.3480  129.5710   67.1470 F   0  0  0  0  0  0  0  0  0  0  0  0
  128.8630  126.2630   65.6240 C   0  0  0  0  0  0  0  0  0  0  0  0
  128.7700  126.1710   64.1870 C   0  0  0  0  0  0  0  0  0  0  0  0
  128.3760  127.2240   63.4010 N   0  0  0  0  0  0  0  0  0  0  0  0
  128.3950  122.6810   59.7550 C   0  0  0  0  0  0  0  0  0  0  0  0
  127.9940  122.2660   58.4870 C   0  0  0  0  0  0  0  0  0  0  0  0
  128.7277  124.7372   53.5286 H   0  0  0  0  0  0  0  0  0  0  0  0
  128.6445  122.9538   53.3302 H   0  0  0  0  0  0  0  0  0  0  0  0
  127.1359  123.9289   53.3302 H   0  0  0  0  0  0  0  0  0  0  0  0
  129.0466  123.6580   55.7179 H   0  0  0  0  0  0  0  0  0  0  0  0
  127.4654  124.5097   55.6998 H   0  0  0  0  0  0  0  0  0  0  0  0
  125.2326  124.2372   58.1098 H   0  0  0  0  0  0  0  0  0  0  0  0
  125.9395  124.9706   60.3744 H   0  0  0  0  0  0  0  0  0  0  0  0
  127.1640  124.2720   62.3200 H   0  0  0  0  0  0  0  0  0  0  0  0
  128.7044  127.3595   70.5018 H   0  0  0  0  0  0  0  0  0  0  0  0
  129.1022  126.8517   72.9024 H   0  0  0  0  0  0  0  0  0  0  0  0
  130.1263  124.6802   73.5608 H   0  0  0  0  0  0  0  0  0  0  0  0
  130.7608  123.0144   71.8215 H   0  0  0  0  0  0  0  0  0  0  0  0
  130.3640  123.5174   69.4202 H   0  0  0  0  0  0  0  0  0  0  0  0
  128.6378  127.8320   68.6517 H   0  0  0  0  0  0  0  0  0  0  0  0
  127.4020  127.4580   63.2710 H   0  0  0  0  0  0  0  0  0  0  0  0
  129.0510  127.8070   62.9250 H   0  0  0  0  0  0  0  0  0  0  0  0
  129.2878  122.2385   60.2210 H   0  0  0  0  0  0  0  0  0  0  0  0
  128.5758  121.4978   57.9565 H   0  0  0  0  0  0  0  0  0  0  0  0
  1  2  1  0
  2  3  1  0
  3  4  1  0
  4  5  2  0
  4  6  1  0
  6  7  2  0
  7  8  1  0
  8  9  2  0
  9 10  1  0
 10 11  1  0
 11 12  2  0
 11 13  1  0
 13 14  1  0
 14 15  1  0
 15 16  2  0
 16 17  1  0
 17 18  1  0
 18 19  2  0
 19 20  1  0
 20 21  2  0
 21 22  1  0
 22 23  2  0
 17 24  2  0
 24 25  1  0
 25 26  1  0
 26 27  1  0
 26 28  1  0
 26 29  1  0
 25 30  2  0
 30 31  1  0
 31 32  1  0
  9 33  1  0
 33 34  2  0
 34  6  1  0
 31 13  2  0
 30 15  1  0
 23 18  1  0
  1 35  1  0
  1 36  1  0
  1 37  1  0
  2 38  1  0
  2 39  1  0
  7 40  1  0
  8 41  1  0
 10 42  1  0
 19 43  1  0
 20 44  1  0
 21 45  1  0
 22 46  1  0
 23 47  1  0
 24 48  1  0
 32 49  1  0
 32 50  1  0
 33 51  1  0
 34 52  1  0
M  END
>  <Binding energies>  (1) 
[-8.4]

>  <Ligand effiencies>  (1) 
[-0.22702702702702704]

>  <Interactions>  (1) 
["V-B:GLU:543:CB:9878, V-B:HIS:456:CE1:9040, H-A:GLU:543:OE1:4909, V-B:GLU:543:CD:9880, V-A:GLU:543:CD:4908, V-A:GLU:543:CG:4907, H-B:GLU:543:OE1:9881, H-B:GLU:543:OE2:9882, V-B:TYR:539:CZ:9849, H-A:TYR:484:OH:4348, V-A:HIS:456:CE1:4069, V-B:TYR:539:CE1:9847, V-B:GLU:543:CG:9879, V-A:TYR:484:CE1:4345, V-B:PRO:540:N:9856, V-A:TYR:484:CZ:4347, V-B:TYR:539:CD2:9846, V-B:PRO:540:CA:9855, V-B:TYR:539:C:9839, V-B:TYR:539:CE2:9848, V-B:PRO:540:CD:9859, V-B:PRO:540:CB:9857, V-A:HIS:456:CG:4066, V-A:HIS:456:CD2:4068, V-B:GLU:543:CA:9876, V-A:GLU:543:CB:4906, V-A:TYR:484:CD1:4343, V-B:ILE:538:CB:9834, V-B:TYR:539:CG:9844, V-B:TYR:539:CA:9841, H-B:TYR:539:N:9842, V-B:TYR:484:CZ:9318, V-B:TYR:484:CE1:9316, V-A:TYR:484:CE2:4346"]

$$$$
4cb_Grossjean_2025
     RDKit          3D

 49 52  0  0  0  0  0  0  0  0999 V2000
  127.4960  123.2150   54.5640 C   0  0  0  0  0  0  0  0  0  0  0  0
  127.5290  122.3720   55.7070 O   0  0  0  0  0  0  0  0  0  0  0  0
  126.5170  122.3820   56.6120 C   0  0  0  0  0  0  0  0  0  0  0  0
  125.3500  122.0870   56.3320 O   0  0  0  0  0  0  0  0  0  0  0  0
  126.9560  122.7860   57.9900 C   0  0  0  0  0  0  0  0  0  0  0  0
  126.3170  123.8590   58.6250 C   0  0  0  0  0  0  0  0  0  0  0  0
  126.6960  124.2520   59.9050 C   0  0  0  0  0  0  0  0  0  0  0  0
  127.7240  123.5870   60.5740 C   0  0  0  0  0  0  0  0  0  0  0  0
  128.0150  124.0590   61.8690 N   0  0  0  0  0  0  0  0  0  0  0  0
  129.1750  124.0260   62.5690 C   0  0  0  0  0  0  0  0  0  0  0  0
  130.2380  123.5880   62.1270 O   0  0  0  0  0  0  0  0  0  0  0  0
  129.1020  124.5780   63.9250 C   0  0  0  0  0  0  0  0  0  0  0  0
  129.5580  123.5880   65.3100 S   0  0  0  0  0  0  0  0  0  0  0  0
  129.2500  124.9090   66.4130 C   0  0  0  0  0  0  0  0  0  0  0  0
  129.4290  124.7750   67.7250 N   0  0  0  0  0  0  0  0  0  0  0  0
  129.1740  125.8600   68.5010 C   0  0  0  0  0  0  0  0  0  0  0  0
  129.3900  125.6800   69.9760 C   0  0  0  0  0  0  0  0  0  0  0  0
  129.1400  126.7320   70.8720 C   0  0  0  0  0  0  0  0  0  0  0  0
  129.3420  126.5740   72.2400 C   0  0  0  0  0  0  0  0  0  0  0  0
  129.7980  125.3560   72.7340 C   0  0  0  0  0  0  0  0  0  0  0  0
  130.0560  124.2970   71.8680 C   0  0  0  0  0  0  0  0  0  0  0  0
  129.8550  124.4620   70.5010 C   0  0  0  0  0  0  0  0  0  0  0  0
  128.7200  127.0670   67.9580 C   0  0  0  0  0  0  0  0  0  0  0  0
  128.5240  127.2170   66.5770 C   0  0  0  0  0  0  0  0  0  0  0  0
  128.0270  128.5680   66.0470 C   0  0  0  0  0  0  0  0  0  0  0  0
  126.7400  128.5480   65.6920 F   0  0  0  0  0  0  0  0  0  0  0  0
  128.1650  129.4990   66.9910 F   0  0  0  0  0  0  0  0  0  0  0  0
  128.7320  128.9200   64.9730 F   0  0  0  0  0  0  0  0  0  0  0  0
  128.8050  126.0900   65.7510 C   0  0  0  0  0  0  0  0  0  0  0  0
  128.7350  125.8730   64.3270 C   0  0  0  0  0  0  0  0  0  0  0  0
  128.3410  126.8480   63.4470 N   0  0  0  0  0  0  0  0  0  0  0  0
  128.3670  122.5100   59.9480 C   0  0  0  0  0  0  0  0  0  0  0  0
  127.9860  122.1170   58.6680 C   0  0  0  0  0  0  0  0  0  0  0  0
  127.4548  124.2664   54.8849 H   0  0  0  0  0  0  0  0  0  0  0  0
  128.4013  123.0508   53.9610 H   0  0  0  0  0  0  0  0  0  0  0  0
  126.6063  122.9806   53.9610 H   0  0  0  0  0  0  0  0  0  0  0  0
  125.5084  124.3956   58.1071 H   0  0  0  0  0  0  0  0  0  0  0  0
  126.1814  125.0930   60.3928 H   0  0  0  0  0  0  0  0  0  0  0  0
  127.2320  124.4950   62.3340 H   0  0  0  0  0  0  0  0  0  0  0  0
  128.7786  127.6967   70.4864 H   0  0  0  0  0  0  0  0  0  0  0  0
  129.1419  127.4088   72.9278 H   0  0  0  0  0  0  0  0  0  0  0  0
  129.9556  125.2290   73.8152 H   0  0  0  0  0  0  0  0  0  0  0  0
  130.4166  123.3354   72.2620 H   0  0  0  0  0  0  0  0  0  0  0  0
  130.0637  123.6244   69.8192 H   0  0  0  0  0  0  0  0  0  0  0  0
  128.5127  127.9150   68.6272 H   0  0  0  0  0  0  0  0  0  0  0  0
  127.3680  127.0730   63.2990 H   0  0  0  0  0  0  0  0  0  0  0  0
  129.0160  127.3820   62.9170 H   0  0  0  0  0  0  0  0  0  0  0  0
  129.1741  121.9744   60.4692 H   0  0  0  0  0  0  0  0  0  0  0  0
  128.4981  121.2729   58.1830 H   0  0  0  0  0  0  0  0  0  0  0  0
  1  2  1  0
  2  3  1  0
  3  4  2  0
  3  5  1  0
  5  6  2  0
  6  7  1  0
  7  8  2  0
  8  9  1  0
  9 10  1  0
 10 11  2  0
 10 12  1  0
 12 13  1  0
 13 14  1  0
 14 15  2  0
 15 16  1  0
 16 17  1  0
 17 18  2  0
 18 19  1  0
 19 20  2  0
 20 21  1  0
 21 22  2  0
 16 23  2  0
 23 24  1  0
 24 25  1  0
 25 26  1  0
 25 27  1  0
 25 28  1  0
 24 29  2  0
 29 30  1  0
 30 31  1  0
  8 32  1  0
 32 33  2  0
 33  5  1  0
 30 12  2  0
 29 14  1  0
 22 17  1  0
  1 34  1  0
  1 35  1  0
  1 36  1  0
  6 37  1  0
  7 38  1  0
  9 39  1  0
 18 40  1  0
 19 41  1  0
 20 42  1  0
 21 43  1  0
 22 44  1  0
 23 45  1  0
 31 46  1  0
 31 47  1  0
 32 48  1  0
 33 49  1  0
M  END
>  <Binding energies>  (1) 
[-8.11]

>  <Ligand effiencies>  (1) 
[-0.22527777777777777]

>  <Interactions>  (1) 
["V-B:GLU:543:C:9874, V-B:GLU:543:CB:9878, V-B:HIS:456:CE1:9040, H-A:GLU:543:OE1:4909, V-B:GLU:543:CD:9880, V-A:GLU:543:CD:4908, V-A:GLU:543:CG:4907, H-B:GLU:543:OE1:9881, H-B:GLU:543:OE2:9882, V-B:TYR:539:CZ:9849, H-A:TYR:484:OH:4348, V-A:HIS:456:CE1:4069, V-B:TYR:539:CE1:9847, V-B:GLU:543:CG:9879, V-A:TYR:484:CE1:4345, V-B:PRO:540:N:9856, V-A:TYR:484:CZ:4347, V-B:TYR:539:CD2:9846, V-B:PRO:540:CA:9855, V-B:TYR:539:C:9839, V-B:TYR:539:CE2:9848, V-B:PRO:540:CD:9859, V-A:HIS:456:CG:4066, V-A:HIS:456:CD2:4068, V-B:GLU:543:CA:9876, V-A:GLU:543:CB:4906, V-B:ILE:538:CB:9834, V-B:TYR:539:CG:9844, V-B:ILE:538:CA:9832, V-B:TYR:539:CD1:9845, V-B:ILE:538:CG2:9835, V-B:TYR:539:CA:9841, H-B:TYR:539:N:9842, V-B:TYR:484:CZ:9318, V-B:TYR:484:CE1:9316"]

$$$$
4cc_Grossjean_2025
     RDKit          3D

 47 50  0  0  0  0  0  0  0  0999 V2000
  127.1990  122.8280   55.4200 C   0  0  0  0  0  0  0  0  0  0  0  0
  126.9780  122.0690   56.6030 O   0  0  0  0  0  0  0  0  0  0  0  0
  127.1470  122.6730   57.8340 C   0  0  0  0  0  0  0  0  0  0  0  0
  127.9940  122.0260   58.7330 C   0  0  0  0  0  0  0  0  0  0  0  0
  128.2280  122.5600   59.9980 C   0  0  0  0  0  0  0  0  0  0  0  0
  127.6060  123.7490   60.3840 C   0  0  0  0  0  0  0  0  0  0  0  0
  127.9150  124.2200   61.6740 N   0  0  0  0  0  0  0  0  0  0  0  0
  129.1230  124.5120   62.2130 C   0  0  0  0  0  0  0  0  0  0  0  0
  130.1870  124.4370   61.5980 O   0  0  0  0  0  0  0  0  0  0  0  0
  129.1000  124.9390   63.6160 C   0  0  0  0  0  0  0  0  0  0  0  0
  129.5590  123.8160   64.8940 S   0  0  0  0  0  0  0  0  0  0  0  0
  129.2820  125.0290   66.1210 C   0  0  0  0  0  0  0  0  0  0  0  0
  129.4740  124.7670   67.4120 N   0  0  0  0  0  0  0  0  0  0  0  0
  129.2420  125.7760   68.2910 C   0  0  0  0  0  0  0  0  0  0  0  0
  129.4630  125.4510   69.7400 C   0  0  0  0  0  0  0  0  0  0  0  0
  130.0580  124.2360   70.1200 C   0  0  0  0  0  0  0  0  0  0  0  0
  130.2650  123.9270   71.4620 C   0  0  0  0  0  0  0  0  0  0  0  0
  129.8790  124.8310   72.4460 C   0  0  0  0  0  0  0  0  0  0  0  0
  129.2840  126.0390   72.0970 C   0  0  0  0  0  0  0  0  0  0  0  0
  129.0780  126.3440   70.7540 C   0  0  0  0  0  0  0  0  0  0  0  0
  128.8030  127.0350   67.8720 C   0  0  0  0  0  0  0  0  0  0  0  0
  128.5950  127.3210   66.5130 C   0  0  0  0  0  0  0  0  0  0  0  0
  128.1190  128.7250   66.1240 C   0  0  0  0  0  0  0  0  0  0  0  0
  128.7350  129.2070   65.0410 F   0  0  0  0  0  0  0  0  0  0  0  0
  126.8130  128.7020   65.8620 F   0  0  0  0  0  0  0  0  0  0  0  0
  128.3520  129.5740   67.1250 F   0  0  0  0  0  0  0  0  0  0  0  0
  128.8440  126.2740   65.5810 C   0  0  0  0  0  0  0  0  0  0  0  0
  128.7450  126.1910   64.1440 C   0  0  0  0  0  0  0  0  0  0  0  0
  128.3420  127.2470   63.3670 N   0  0  0  0  0  0  0  0  0  0  0  0
  126.7620  124.4120   59.4810 C   0  0  0  0  0  0  0  0  0  0  0  0
  126.5320  123.8750   58.2180 C   0  0  0  0  0  0  0  0  0  0  0  0
  127.4970  123.8515   55.6913 H   0  0  0  0  0  0  0  0  0  0  0  0
  127.9978  122.3586   54.8270 H   0  0  0  0  0  0  0  0  0  0  0  0
  126.2731  122.8607   54.8270 H   0  0  0  0  0  0  0  0  0  0  0  0
  128.4822  121.0847   58.4404 H   0  0  0  0  0  0  0  0  0  0  0  0
  128.9046  122.0436   60.6948 H   0  0  0  0  0  0  0  0  0  0  0  0
  127.1120  124.3870   62.2620 H   0  0  0  0  0  0  0  0  0  0  0  0
  130.3650  123.5178   69.3454 H   0  0  0  0  0  0  0  0  0  0  0  0
  130.7321  122.9715   71.7428 H   0  0  0  0  0  0  0  0  0  0  0  0
  130.0452  124.5894   73.5062 H   0  0  0  0  0  0  0  0  0  0  0  0
  128.9776  126.7501   72.8784 H   0  0  0  0  0  0  0  0  0  0  0  0
  128.6061  127.2998   70.4826 H   0  0  0  0  0  0  0  0  0  0  0  0
  128.6166  127.8178   68.6220 H   0  0  0  0  0  0  0  0  0  0  0  0
  129.0030  127.8950   62.9620 H   0  0  0  0  0  0  0  0  0  0  0  0
  127.3650  127.4150   63.1750 H   0  0  0  0  0  0  0  0  0  0  0  0
  126.2812  125.3577   59.7716 H   0  0  0  0  0  0  0  0  0  0  0  0
  125.8640  124.3957   57.5161 H   0  0  0  0  0  0  0  0  0  0  0  0
  1  2  1  0
  2  3  1  0
  3  4  2  0
  4  5  1  0
  5  6  2  0
  6  7  1  0
  7  8  1  0
  8  9  2  0
  8 10  1  0
 10 11  1  0
 11 12  1  0
 12 13  2  0
 13 14  1  0
 14 15  1  0
 15 16  2  0
 16 17  1  0
 17 18  2  0
 18 19  1  0
 19 20  2  0
 14 21  2  0
 21 22  1  0
 22 23  1  0
 23 24  1  0
 23 25  1  0
 23 26  1  0
 22 27  2  0
 27 28  1  0
 28 29  1  0
  6 30  1  0
 30 31  2  0
 31  3  1  0
 28 10  2  0
 27 12  1  0
 20 15  1  0
  1 32  1  0
  1 33  1  0
  1 34  1  0
  4 35  1  0
  5 36  1  0
  7 37  1  0
 16 38  1  0
 17 39  1  0
 18 40  1  0
 19 41  1  0
 20 42  1  0
 21 43  1  0
 29 44  1  0
 29 45  1  0
 30 46  1  0
 31 47  1  0
M  END
>  <Binding energies>  (1) 
[-7.38]

>  <Ligand effiencies>  (1) 
[-0.21705882352941175]

>  <Interactions>  (1) 
["V-B:GLU:543:CB:9878, V-B:HIS:456:CE1:9040, H-A:GLU:543:OE1:4909, V-B:GLU:543:CD:9880, V-A:GLU:543:CD:4908, V-A:GLU:543:CG:4907, H-B:GLU:543:OE1:9881, H-B:GLU:543:OE2:9882, V-B:TYR:539:CZ:9849, H-A:TYR:484:OH:4348, V-A:HIS:456:CE1:4069, V-B:TYR:539:CE1:9847, V-B:GLU:543:CG:9879, V-A:TYR:484:CE1:4345, V-B:PRO:540:N:9856, V-A:TYR:484:CZ:4347, V-B:TYR:539:CD2:9846, V-B:PRO:540:CA:9855, V-B:TYR:539:C:9839, V-B:TYR:539:CE2:9848, V-A:HIS:456:CG:4066, V-A:HIS:456:CD2:4068, V-B:GLU:543:CA:9876, V-A:GLU:543:CB:4906, V-A:TYR:484:CD1:4343, V-B:ILE:538:CB:9834, V-B:TYR:539:CG:9844, V-B:ILE:538:CA:9832, V-B:TYR:539:CD1:9845, V-B:ILE:538:CG2:9835, H-B:TYR:539:N:9842, V-B:TYR:484:CZ:9318, V-B:TYR:484:CE1:9316, V-A:TYR:484:CE2:4346"]

$$$$
4cd_Grossjean_2025
     RDKit          3D

 43 46  0  0  0  0  0  0  0  0999 V2000
  129.7500  124.2460   66.9560 N   0  0  0  0  0  0  0  0  0  0  0  0
  129.4960  124.9270   65.7930 C   0  0  0  0  0  0  0  0  0  0  0  0
  129.7800  124.4070   64.5200 C   0  0  0  0  0  0  0  0  0  0  0  0
  130.3870  123.1180   64.1740 C   0  0  0  0  0  0  0  0  0  0  0  0
  130.8230  122.3740   65.0520 O   0  0  0  0  0  0  0  0  0  0  0  0
  130.4170  122.8270   62.8500 N   0  0  0  0  0  0  0  0  0  0  0  0
  130.9670  121.7140   62.1890 C   0  0  0  0  0  0  0  0  0  0  0  0
  132.3210  121.8090   61.8530 C   0  0  0  0  0  0  0  0  0  0  0  0
  132.9600  120.7540   61.2090 C   0  0  0  0  0  0  0  0  0  0  0  0
  132.2480  119.5960   60.9060 C   0  0  0  0  0  0  0  0  0  0  0  0
  130.9030  119.4820   61.2480 C   0  0  0  0  0  0  0  0  0  0  0  0
  130.2590  120.5370   61.8920 C   0  0  0  0  0  0  0  0  0  0  0  0
  129.3170  125.5410   63.2520 S   0  0  0  0  0  0  0  0  0  0  0  0
  128.7570  126.7020   64.4330 C   0  0  0  0  0  0  0  0  0  0  0  0
  128.2500  127.8760   64.0660 N   0  0  0  0  0  0  0  0  0  0  0  0
  127.8540  128.7180   65.0560 C   0  0  0  0  0  0  0  0  0  0  0  0
  127.2880  130.0360   64.6110 C   0  0  0  0  0  0  0  0  0  0  0  0
  125.9400  130.1480   64.2330 C   0  0  0  0  0  0  0  0  0  0  0  0
  125.4090  131.3670   63.8210 C   0  0  0  0  0  0  0  0  0  0  0  0
  126.2210  132.4950   63.7810 C   0  0  0  0  0  0  0  0  0  0  0  0
  127.5580  132.4130   64.1530 C   0  0  0  0  0  0  0  0  0  0  0  0
  128.0850  131.1930   64.5670 C   0  0  0  0  0  0  0  0  0  0  0  0
  127.9510  128.3700   66.4060 C   0  0  0  0  0  0  0  0  0  0  0  0
  128.4820  127.1320   66.8040 C   0  0  0  0  0  0  0  0  0  0  0  0
  128.5630  126.8150   68.3020 C   0  0  0  0  0  0  0  0  0  0  0  0
  129.6320  126.0840   68.6250 F   0  0  0  0  0  0  0  0  0  0  0  0
  128.6300  127.9490   68.9990 F   0  0  0  0  0  0  0  0  0  0  0  0
  127.4830  126.1300   68.6770 F   0  0  0  0  0  0  0  0  0  0  0  0
  128.9110  126.2460   65.7750 C   0  0  0  0  0  0  0  0  0  0  0  0
  129.1210  124.2850   67.7460 H   0  0  0  0  0  0  0  0  0  0  0  0
  130.5780  123.6760   67.0620 H   0  0  0  0  0  0  0  0  0  0  0  0
  129.9690  123.4930   62.2380 H   0  0  0  0  0  0  0  0  0  0  0  0
  132.8835  122.7218   62.0989 H   0  0  0  0  0  0  0  0  0  0  0  0
  134.0236  120.8343   60.9402 H   0  0  0  0  0  0  0  0  0  0  0  0
  132.7524  118.7644   60.3922 H   0  0  0  0  0  0  0  0  0  0  0  0
  130.3500  118.5613   61.0104 H   0  0  0  0  0  0  0  0  0  0  0  0
  129.1977  120.4484   62.1675 H   0  0  0  0  0  0  0  0  0  0  0  0
  125.2937  129.2584   64.2630 H   0  0  0  0  0  0  0  0  0  0  0  0
  124.3510  131.4376   63.5282 H   0  0  0  0  0  0  0  0  0  0  0  0
  125.8029  133.4581   63.4530 H   0  0  0  0  0  0  0  0  0  0  0  0
  128.1965  133.3081   64.1203 H   0  0  0  0  0  0  0  0  0  0  0  0
  129.1423  131.1333   64.8646 H   0  0  0  0  0  0  0  0  0  0  0  0
  127.6047  129.0795   67.1720 H   0  0  0  0  0  0  0  0  0  0  0  0
  1  2  1  0
  2  3  2  0
  3  4  1  0
  4  5  2  0
  4  6  1  0
  6  7  1  0
  7  8  2  0
  8  9  1  0
  9 10  2  0
 10 11  1  0
 11 12  2  0
  3 13  1  0
 13 14  1  0
 14 15  2  0
 15 16  1  0
 16 17  1  0
 17 18  2  0
 18 19  1  0
 19 20  2  0
 20 21  1  0
 21 22  2  0
 16 23  2  0
 23 24  1  0
 24 25  1  0
 25 26  1  0
 25 27  1  0
 25 28  1  0
 24 29  2  0
 29  2  1  0
 12  7  1  0
 29 14  1  0
 22 17  1  0
  1 30  1  0
  1 31  1  0
  6 32  1  0
  8 33  1  0
  9 34  1  0
 10 35  1  0
 11 36  1  0
 12 37  1  0
 18 38  1  0
 19 39  1  0
 20 40  1  0
 21 41  1  0
 22 42  1  0
 23 43  1  0
M  END
>  <Binding energies>  (1) 
[-7.07]

>  <Ligand effiencies>  (1) 
[-0.2209375]

>  <Interactions>  (1) 
["V-B:GLU:543:C:9874, V-A:ALA:541:CB:4892, V-B:GLU:543:CB:9878, V-B:GLY:544:C:9884, V-B:HIS:456:CE1:9040, V-B:LEU:475:CD1:9229, V-B:GLU:543:CD:9880, V-A:GLU:543:CD:4908, V-B:ALA:541:CB:9864, H-A:TYR:484:OH:4348, V-A:HIS:456:CE1:4069, V-B:GLU:543:CG:9879, V-A:LEU:475:CD1:4258, V-A:TYR:484:CE1:4345, V-A:TYR:484:CZ:4347, V-B:TYR:539:CD2:9846, V-A:ILE:369:CD1:3239, V-A:HIS:456:CD2:4068, V-B:GLU:543:CA:9876, V-A:GLU:543:CB:4906, V-A:PRO:482:CB:4326, V-A:PRO:482:CG:4327, V-A:TRP:381:CZ2:3370, V-A:TRP:381:CH2:3372, H-B:GLU:543:O:9875"]

$$$$
4ce_Grossjean_2025
     RDKit          3D

 45 48  0  0  0  0  0  0  0  0999 V2000
  128.5290  120.0100   73.1600 C   0  0  0  0  0  0  0  0  0  0  0  0
  129.5010  121.1330   72.8540 C   0  0  0  0  0  0  0  0  0  0  0  0
  130.7190  121.2500   73.5300 C   0  0  0  0  0  0  0  0  0  0  0  0
  131.5680  122.3040   73.1910 C   0  0  0  0  0  0  0  0  0  0  0  0
  131.1850  123.2050   72.1950 C   0  0  0  0  0  0  0  0  0  0  0  0
  129.9490  123.0330   71.5610 C   0  0  0  0  0  0  0  0  0  0  0  0
  129.6310  123.9570   70.5500 N   0  0  0  0  0  0  0  0  0  0  0  0
  129.4830  125.3020   70.6460 C   0  0  0  0  0  0  0  0  0  0  0  0
  129.6340  125.9350   71.6920 O   0  0  0  0  0  0  0  0  0  0  0  0
  129.1260  125.9860   69.4010 C   0  0  0  0  0  0  0  0  0  0  0  0
  128.3810  127.5830   69.4490 S   0  0  0  0  0  0  0  0  0  0  0  0
  128.3390  127.6640   67.7040 C   0  0  0  0  0  0  0  0  0  0  0  0
  127.8480  128.7270   67.0710 N   0  0  0  0  0  0  0  0  0  0  0  0
  127.8710  128.7060   65.7120 C   0  0  0  0  0  0  0  0  0  0  0  0
  127.3160  129.9200   65.0290 C   0  0  0  0  0  0  0  0  0  0  0  0
  126.0000  129.9260   64.5360 C   0  0  0  0  0  0  0  0  0  0  0  0
  125.4800  131.0470   63.8950 C   0  0  0  0  0  0  0  0  0  0  0  0
  126.2690  132.1810   63.7390 C   0  0  0  0  0  0  0  0  0  0  0  0
  127.5750  132.2020   64.2170 C   0  0  0  0  0  0  0  0  0  0  0  0
  128.0930  131.0780   64.8560 C   0  0  0  0  0  0  0  0  0  0  0  0
  128.3680  127.6110   64.9970 C   0  0  0  0  0  0  0  0  0  0  0  0
  128.8840  126.4830   65.6560 C   0  0  0  0  0  0  0  0  0  0  0  0
  129.4130  125.3190   64.8110 C   0  0  0  0  0  0  0  0  0  0  0  0
  129.0870  124.1230   65.3050 F   0  0  0  0  0  0  0  0  0  0  0  0
  128.9120  125.3920   63.5780 F   0  0  0  0  0  0  0  0  0  0  0  0
  130.7430  125.3760   64.7490 F   0  0  0  0  0  0  0  0  0  0  0  0
  128.8780  126.5010   67.0800 C   0  0  0  0  0  0  0  0  0  0  0  0
  129.3190  125.5560   68.0770 C   0  0  0  0  0  0  0  0  0  0  0  0
  129.8790  124.3460   67.7560 N   0  0  0  0  0  0  0  0  0  0  0  0
  129.1150  122.0010   71.8840 N   0  0  0  0  0  0  0  0  0  0  0  0
  128.4309  119.8967   74.2497 H   0  0  0  0  0  0  0  0  0  0  0  0
  127.5464  120.2471   72.7261 H   0  0  0  0  0  0  0  0  0  0  0  0
  128.9046  119.0716   72.7261 H   0  0  0  0  0  0  0  0  0  0  0  0
  131.0013  120.5283   74.3106 H   0  0  0  0  0  0  0  0  0  0  0  0
  132.5330  122.4246   73.7050 H   0  0  0  0  0  0  0  0  0  0  0  0
  131.8454  124.0382   71.9127 H   0  0  0  0  0  0  0  0  0  0  0  0
  129.5400  123.5590   69.6270 H   0  0  0  0  0  0  0  0  0  0  0  0
  125.3715  129.0316   64.6584 H   0  0  0  0  0  0  0  0  0  0  0  0
  124.4484  131.0356   63.5133 H   0  0  0  0  0  0  0  0  0  0  0  0
  125.8577  133.0675   63.2342 H   0  0  0  0  0  0  0  0  0  0  0  0
  128.1955  133.1015   64.0911 H   0  0  0  0  0  0  0  0  0  0  0  0
  129.1268  131.0971   65.2312 H   0  0  0  0  0  0  0  0  0  0  0  0
  128.3544  127.6339   63.8973 H   0  0  0  0  0  0  0  0  0  0  0  0
  130.8220  124.2700   67.3990 H   0  0  0  0  0  0  0  0  0  0  0  0
  129.3640  123.4830   67.8640 H   0  0  0  0  0  0  0  0  0  0  0  0
  1  2  1  0
  2  3  2  0
  3  4  1  0
  4  5  2  0
  5  6  1  0
  6  7  1  0
  7  8  1  0
  8  9  2  0
  8 10  1  0
 10 11  1  0
 11 12  1  0
 12 13  2  0
 13 14  1  0
 14 15  1  0
 15 16  2  0
 16 17  1  0
 17 18  2  0
 18 19  1  0
 19 20  2  0
 14 21  2  0
 21 22  1  0
 22 23  1  0
 23 24  1  0
 23 25  1  0
 23 26  1  0
 22 27  2  0
 27 28  1  0
 28 29  1  0
  6 30  2  0
 30  2  1  0
 28 10  2  0
 27 12  1  0
 20 15  1  0
  1 31  1  0
  1 32  1  0
  1 33  1  0
  3 34  1  0
  4 35  1  0
  5 36  1  0
  7 37  1  0
 16 38  1  0
 17 39  1  0
 18 40  1  0
 19 41  1  0
 20 42  1  0
 21 43  1  0
 29 44  1  0
 29 45  1  0
M  END
>  <Binding energies>  (1) 
[-8.18]

>  <Ligand effiencies>  (1) 
[-0.24787878787878787]

>  <Interactions>  (1) 
["V-B:GLU:543:C:9874, V-A:ALA:541:CB:4892, V-B:GLU:543:CB:9878, V-B:HIS:456:CE1:9040, V-B:LEU:475:CD1:9229, V-B:GLU:543:CD:9880, V-A:GLU:543:CD:4908, H-A:TYR:484:OH:4348, V-A:HIS:456:CE1:4069, V-B:GLU:543:CG:9879, V-A:TYR:484:CE1:4345, V-A:TYR:484:CZ:4347, V-A:HIS:456:CG:4066, H-A:HIS:456:NE2:4070, V-A:HIS:456:CD2:4068, V-A:HIS:456:CB:4065, V-A:ASP:473:CB:4239, V-A:ASP:473:CG:4240, H-B:LYS:547:NZ:9923, V-B:GLU:543:CA:9876, V-A:TYR:484:CD2:4344, V-A:GLU:543:CB:4906, V-A:TYR:484:CD1:4343, V-A:TYR:484:CG:4342, V-A:TYR:484:CB:4341, V-A:TYR:484:CE2:4346, V-B:LYS:547:CE:9922, H-B:GLU:543:O:9875, H-A:HIS:456:ND1:4067"]

$$$$
4cf_Grossjean_2025
     RDKit          3D

 42 45  0  0  0  0  0  0  0  0999 V2000
  129.8140  124.4630   67.6520 N   0  0  0  0  0  0  0  0  0  0  0  0
  129.3940  125.7350   67.9440 C   0  0  0  0  0  0  0  0  0  0  0  0
  129.3010  126.2340   69.2540 C   0  0  0  0  0  0  0  0  0  0  0  0
  129.5750  125.5410   70.5170 C   0  0  0  0  0  0  0  0  0  0  0  0
  129.6670  126.1730   71.5700 O   0  0  0  0  0  0  0  0  0  0  0  0
  129.6990  124.1950   70.4260 N   0  0  0  0  0  0  0  0  0  0  0  0
  130.0070  123.2520   71.4240 C   0  0  0  0  0  0  0  0  0  0  0  0
  131.1700  123.2540   72.2190 C   0  0  0  0  0  0  0  0  0  0  0  0
  131.3590  122.2470   73.1680 C   0  0  0  0  0  0  0  0  0  0  0  0
  130.3820  121.2590   73.2990 C   0  0  0  0  0  0  0  0  0  0  0  0
  129.2570  121.2310   72.5410 N   0  0  0  0  0  0  0  0  0  0  0  0
  129.0870  122.2160   71.6220 C   0  0  0  0  0  0  0  0  0  0  0  0
  128.7360  127.9020   69.2610 S   0  0  0  0  0  0  0  0  0  0  0  0
  128.6210  127.9180   67.5170 C   0  0  0  0  0  0  0  0  0  0  0  0
  128.2060  128.9980   66.8580 N   0  0  0  0  0  0  0  0  0  0  0  0
  128.1340  128.9080   65.5030 C   0  0  0  0  0  0  0  0  0  0  0  0
  127.6560  130.1380   64.7880 C   0  0  0  0  0  0  0  0  0  0  0  0
  126.4850  130.1080   64.0140 C   0  0  0  0  0  0  0  0  0  0  0  0
  126.0340  131.2440   63.3470 C   0  0  0  0  0  0  0  0  0  0  0  0
  126.7490  132.4320   63.4490 C   0  0  0  0  0  0  0  0  0  0  0  0
  127.9110  132.4920   64.2120 C   0  0  0  0  0  0  0  0  0  0  0  0
  128.3580  131.3530   64.8760 C   0  0  0  0  0  0  0  0  0  0  0  0
  128.5030  127.7470   64.8180 C   0  0  0  0  0  0  0  0  0  0  0  0
  128.9470  126.6050   65.5040 C   0  0  0  0  0  0  0  0  0  0  0  0
  129.3300  125.3640   64.6910 C   0  0  0  0  0  0  0  0  0  0  0  0
  128.9100  124.2240   65.2440 F   0  0  0  0  0  0  0  0  0  0  0  0
  128.7920  125.4380   63.4740 F   0  0  0  0  0  0  0  0  0  0  0  0
  130.6570  125.2870   64.5810 F   0  0  0  0  0  0  0  0  0  0  0  0
  129.0080  126.6810   66.9260 C   0  0  0  0  0  0  0  0  0  0  0  0
  130.7770  124.2560   67.4280 H   0  0  0  0  0  0  0  0  0  0  0  0
  129.1690  123.6840   67.6530 H   0  0  0  0  0  0  0  0  0  0  0  0
  129.5470  123.7960   69.5110 H   0  0  0  0  0  0  0  0  0  0  0  0
  131.9249  124.0441   72.0930 H   0  0  0  0  0  0  0  0  0  0  0  0
  132.2596  122.2328   73.7994 H   0  0  0  0  0  0  0  0  0  0  0  0
  130.5305  120.4686   74.0495 H   0  0  0  0  0  0  0  0  0  0  0  0
  128.1792  122.1989   71.0010 H   0  0  0  0  0  0  0  0  0  0  0  0
  125.9142  129.1712   63.9332 H   0  0  0  0  0  0  0  0  0  0  0  0
  125.1162  131.2017   62.7421 H   0  0  0  0  0  0  0  0  0  0  0  0
  126.3937  133.3304   62.9230 H   0  0  0  0  0  0  0  0  0  0  0  0
  128.4733  133.4342   64.2901 H   0  0  0  0  0  0  0  0  0  0  0  0
  129.2760  131.4045   65.4798 H   0  0  0  0  0  0  0  0  0  0  0  0
  128.4445  127.7274   63.7197 H   0  0  0  0  0  0  0  0  0  0  0  0
  1  2  1  0
  2  3  2  0
  3  4  1  0
  4  5  2  0
  4  6  1  0
  6  7  1  0
  7  8  2  0
  8  9  1  0
  9 10  2  0
 10 11  1  0
 11 12  2  0
  3 13  1  0
 13 14  1  0
 14 15  2  0
 15 16  1  0
 16 17  1  0
 17 18  2  0
 18 19  1  0
 19 20  2  0
 20 21  1  0
 21 22  2  0
 16 23  2  0
 23 24  1  0
 24 25  1  0
 25 26  1  0
 25 27  1  0
 25 28  1  0
 24 29  2  0
 29  2  1  0
 12  7  1  0
 29 14  1  0
 22 17  1  0
  1 30  1  0
  1 31  1  0
  6 32  1  0
  8 33  1  0
  9 34  1  0
 10 35  1  0
 12 36  1  0
 18 37  1  0
 19 38  1  0
 20 39  1  0
 21 40  1  0
 22 41  1  0
 23 42  1  0
M  END
>  <Binding energies>  (1) 
[-7.59]

>  <Ligand effiencies>  (1) 
[-0.2371875]

>  <Interactions>  (1) 
["V-B:GLU:543:C:9874, V-A:ALA:541:CB:4892, V-B:GLU:543:CB:9878, V-B:HIS:456:CE1:9040, V-B:LEU:475:CD1:9229, V-B:GLU:543:CD:9880, V-A:GLU:543:CD:4908, H-A:TYR:484:OH:4348, V-A:HIS:456:CE1:4069, V-B:GLU:543:CG:9879, V-A:TYR:484:CE1:4345, V-A:TYR:484:CZ:4347, V-A:HIS:456:CG:4066, H-A:HIS:456:NE2:4070, V-A:HIS:456:CD2:4068, V-A:HIS:456:CB:4065, V-A:ASP:473:CB:4239, V-A:ASP:473:CG:4240, H-B:LYS:547:NZ:9923, V-B:GLU:543:CA:9876, V-A:TYR:484:CD2:4344, V-A:GLU:543:CB:4906, V-A:TYR:484:CD1:4343, V-A:TYR:484:CG:4342, V-A:TYR:484:CB:4341, V-B:TYR:484:CE1:9316, V-A:TYR:484:CE2:4346, V-B:LYS:547:CE:9922, V-B:GLY:544:CA:9886, H-B:GLU:543:O:9875, H-A:HIS:456:ND1:4067"]

$$$$
4cg_Grossjean_2025
     RDKit          3D

 46 49  0  0  0  0  0  0  0  0999 V2000
  125.5450  125.9810   58.8770 N   0  0  0  0  0  0  0  0  0  0  0  0
  126.5340  125.7320   59.7930 C   0  0  0  0  0  0  0  0  0  0  0  0
  126.9050  126.6450   60.7900 C   0  0  0  0  0  0  0  0  0  0  0  0
  126.3250  127.9550   61.0880 C   0  0  0  0  0  0  0  0  0  0  0  0
  126.0360  128.7490   60.1900 O   0  0  0  0  0  0  0  0  0  0  0  0
  126.1680  128.2480   62.3960 N   0  0  0  0  0  0  0  0  0  0  0  0
  125.5910  129.4840   62.9240 C   0  0  0  0  0  0  0  0  0  0  0  0
  125.2620  129.4130   64.4110 C   0  0  0  0  0  0  0  0  0  0  0  0
  124.0320  129.8900   64.8730 C   0  0  0  0  0  0  0  0  0  0  0  0
  123.7150  129.7980   66.2260 C   0  0  0  0  0  0  0  0  0  0  0  0
  124.6250  129.2210   67.1100 C   0  0  0  0  0  0  0  0  0  0  0  0
  125.8450  128.7290   66.6520 C   0  0  0  0  0  0  0  0  0  0  0  0
  126.1620  128.8190   65.3000 C   0  0  0  0  0  0  0  0  0  0  0  0
  128.1910  126.0010   61.8060 S   0  0  0  0  0  0  0  0  0  0  0  0
  128.2410  124.5220   60.8750 C   0  0  0  0  0  0  0  0  0  0  0  0
  129.0910  123.5430   61.1730 N   0  0  0  0  0  0  0  0  0  0  0  0
  129.0540  122.4290   60.3970 C   0  0  0  0  0  0  0  0  0  0  0  0
  130.0270  121.3430   60.7580 C   0  0  0  0  0  0  0  0  0  0  0  0
  129.5770  120.0650   61.1300 C   0  0  0  0  0  0  0  0  0  0  0  0
  130.4740  119.0560   61.4660 C   0  0  0  0  0  0  0  0  0  0  0  0
  131.8420  119.3100   61.4370 C   0  0  0  0  0  0  0  0  0  0  0  0
  132.3160  120.5670   61.0760 C   0  0  0  0  0  0  0  0  0  0  0  0
  131.4150  121.5730   60.7410 C   0  0  0  0  0  0  0  0  0  0  0  0
  128.1760  122.3130   59.3130 C   0  0  0  0  0  0  0  0  0  0  0  0
  127.2760  123.3400   58.9900 C   0  0  0  0  0  0  0  0  0  0  0  0
  126.3420  123.1470   57.7890 C   0  0  0  0  0  0  0  0  0  0  0  0
  126.5550  122.0020   57.1390 F   0  0  0  0  0  0  0  0  0  0  0  0
  125.0740  123.1430   58.2010 F   0  0  0  0  0  0  0  0  0  0  0  0
  126.5180  124.1390   56.9180 F   0  0  0  0  0  0  0  0  0  0  0  0
  127.2960  124.5070   59.8080 C   0  0  0  0  0  0  0  0  0  0  0  0
  125.2730  125.2970   58.1840 H   0  0  0  0  0  0  0  0  0  0  0  0
  125.0460  126.8590   58.8690 H   0  0  0  0  0  0  0  0  0  0  0  0
  126.3570  127.5230   63.0720 H   0  0  0  0  0  0  0  0  0  0  0  0
  126.3109  130.3004   62.7650 H   0  0  0  0  0  0  0  0  0  0  0  0
  124.6443  129.6538   62.3902 H   0  0  0  0  0  0  0  0  0  0  0  0
  123.3153  130.3375   64.1687 H   0  0  0  0  0  0  0  0  0  0  0  0
  122.7513  130.1788   66.5951 H   0  0  0  0  0  0  0  0  0  0  0  0
  124.3774  129.1535   68.1796 H   0  0  0  0  0  0  0  0  0  0  0  0
  126.5551  128.2711   67.3563 H   0  0  0  0  0  0  0  0  0  0  0  0
  127.1198  128.4231   64.9314 H   0  0  0  0  0  0  0  0  0  0  0  0
  128.4968  119.8587   61.1560 H   0  0  0  0  0  0  0  0  0  0  0  0
  130.1033  118.0611   61.7535 H   0  0  0  0  0  0  0  0  0  0  0  0
  132.5522  118.5126   61.7009 H   0  0  0  0  0  0  0  0  0  0  0  0
  133.3979  120.7647   61.0555 H   0  0  0  0  0  0  0  0  0  0  0  0
  131.7946  122.5658   60.4578 H   0  0  0  0  0  0  0  0  0  0  0  0
  128.1919  121.3984   58.7021 H   0  0  0  0  0  0  0  0  0  0  0  0
  1  2  1  0
  2  3  2  0
  3  4  1  0
  4  5  2  0
  4  6  1  0
  6  7  1  0
  7  8  1  0
  8  9  2  0
  9 10  1  0
 10 11  2  0
 11 12  1  0
 12 13  2  0
  3 14  1  0
 14 15  1  0
 15 16  2  0
 16 17  1  0
 17 18  1  0
 18 19  2  0
 19 20  1  0
 20 21  2  0
 21 22  1  0
 22 23  2  0
 17 24  2  0
 24 25  1  0
 25 26  1  0
 26 27  1  0
 26 28  1  0
 26 29  1  0
 25 30  2  0
 30  2  1  0
 13  8  1  0
 30 15  1  0
 23 18  1  0
  1 31  1  0
  1 32  1  0
  6 33  1  0
  7 34  1  0
  7 35  1  0
  9 36  1  0
 10 37  1  0
 11 38  1  0
 12 39  1  0
 13 40  1  0
 19 41  1  0
 20 42  1  0
 21 43  1  0
 22 44  1  0
 23 45  1  0
 24 46  1  0
M  END
>  <Binding energies>  (1) 
[-7.36]

>  <Ligand effiencies>  (1) 
[-0.22303030303030305]

>  <Interactions>  (1) 
["V-B:ARG:545:CD:9895, V-B:HIS:456:CE1:9040, V-B:GLU:543:CD:9880, V-B:ARG:545:CG:9894, H-B:GLU:543:OE1:9881, H-B:ASP:366:OD1:8185, V-B:ASP:366:CG:8184, V-B:ARG:545:CZ:9898, V-B:GLY:454:CA:9020, H-B:GLU:543:OE2:9882, V-B:ALA:541:CB:9864, V-A:LEU:475:CD1:4258, V-B:PRO:540:N:9856, V-B:TYR:539:CD2:9846, V-B:PRO:540:CA:9855, V-B:TYR:539:C:9839, V-B:TYR:539:CE2:9848, V-B:PRO:540:CD:9859, V-B:PRO:540:CB:9857, V-B:ALA:541:CA:9862, V-A:PRO:482:CB:4326, V-A:PRO:482:CG:4327, V-B:LEU:363:CD1:8160, V-A:TRP:381:CZ2:3370, V-A:TRP:381:CH2:3372, V-B:TYR:539:CA:9841, V-B:TYR:484:CZ:9318, V-B:PRO:540:CG:9858"]

$$$$
4ch_Grossjean_2025
     RDKit          3D

 58 61  0  0  0  0  0  0  0  0999 V2000
  132.3220  126.4680   74.2940 C   0  0  0  0  0  0  0  0  0  0  0  0
  130.9210  126.6510   74.1210 O   0  0  0  0  0  0  0  0  0  0  0  0
  130.2970  126.1020   73.0160 C   0  0  0  0  0  0  0  0  0  0  0  0
  129.7120  126.8600   71.9880 C   0  0  0  0  0  0  0  0  0  0  0  0
  129.1000  126.2370   70.8990 C   0  0  0  0  0  0  0  0  0  0  0  0
  128.4460  127.0760   69.8070 C   0  0  0  0  0  0  0  0  0  0  0  0
  128.5880  126.5230   68.4590 N   0  0  0  0  0  0  0  0  0  0  0  0
  128.9020  127.2270   67.3520 C   0  0  0  0  0  0  0  0  0  0  0  0
  129.1330  128.4380   67.3800 O   0  0  0  0  0  0  0  0  0  0  0  0
  128.9910  126.4610   66.1090 C   0  0  0  0  0  0  0  0  0  0  0  0
  128.6370  127.2360   64.5680 S   0  0  0  0  0  0  0  0  0  0  0  0
  128.9820  125.7610   63.6970 C   0  0  0  0  0  0  0  0  0  0  0  0
  128.8780  125.6950   62.3720 N   0  0  0  0  0  0  0  0  0  0  0  0
  129.1730  124.5070   61.7830 C   0  0  0  0  0  0  0  0  0  0  0  0
  129.0400  124.4650   60.2870 C   0  0  0  0  0  0  0  0  0  0  0  0
  129.8620  125.2580   59.4700 C   0  0  0  0  0  0  0  0  0  0  0  0
  129.7430  125.2240   58.0820 C   0  0  0  0  0  0  0  0  0  0  0  0
  128.7960  124.3950   57.4910 C   0  0  0  0  0  0  0  0  0  0  0  0
  127.9670  123.6020   58.2780 C   0  0  0  0  0  0  0  0  0  0  0  0
  128.0880  123.6400   59.6640 C   0  0  0  0  0  0  0  0  0  0  0  0
  129.5530  123.3870   62.5280 C   0  0  0  0  0  0  0  0  0  0  0  0
  129.6650  123.4440   63.9270 C   0  0  0  0  0  0  0  0  0  0  0  0
  130.0870  122.1790   64.6830 C   0  0  0  0  0  0  0  0  0  0  0  0
  130.1750  121.1040   63.8960 F   0  0  0  0  0  0  0  0  0  0  0  0
  131.2820  122.3640   65.2410 F   0  0  0  0  0  0  0  0  0  0  0  0
  129.1950  121.9030   65.6340 F   0  0  0  0  0  0  0  0  0  0  0  0
  129.3710  124.6890   64.5540 C   0  0  0  0  0  0  0  0  0  0  0  0
  129.3780  125.1240   65.9300 C   0  0  0  0  0  0  0  0  0  0  0  0
  129.7230  124.2980   66.9690 N   0  0  0  0  0  0  0  0  0  0  0  0
  129.0530  124.8440   70.8400 C   0  0  0  0  0  0  0  0  0  0  0  0
  129.6280  124.0610   71.8540 C   0  0  0  0  0  0  0  0  0  0  0  0
  129.6200  122.6780   71.8600 O   0  0  0  0  0  0  0  0  0  0  0  0
  128.5370  121.9830   71.2490 C   0  0  0  0  0  0  0  0  0  0  0  0
  130.2520  124.7030   72.9340 C   0  0  0  0  0  0  0  0  0  0  0  0
  130.8050  123.9490   73.9400 O   0  0  0  0  0  0  0  0  0  0  0  0
  131.9340  123.1850   73.5380 C   0  0  0  0  0  0  0  0  0  0  0  0
  132.5579  126.4372   75.3680 H   0  0  0  0  0  0  0  0  0  0  0  0
  132.6290  125.5221   73.8239 H   0  0  0  0  0  0  0  0  0  0  0  0
  132.8617  127.3033   73.8239 H   0  0  0  0  0  0  0  0  0  0  0  0
  129.7365  127.9584   72.0419 H   0  0  0  0  0  0  0  0  0  0  0  0
  127.3730  127.1612   70.0336 H   0  0  0  0  0  0  0  0  0  0  0  0
  128.9599  128.0486   69.8053 H   0  0  0  0  0  0  0  0  0  0  0  0
  128.3590  125.5450   68.3540 H   0  0  0  0  0  0  0  0  0  0  0  0
  130.6117  125.9164   59.9330 H   0  0  0  0  0  0  0  0  0  0  0  0
  130.3957  125.8505   57.4563 H   0  0  0  0  0  0  0  0  0  0  0  0
  128.7018  124.3660   56.3954 H   0  0  0  0  0  0  0  0  0  0  0  0
  127.2189  122.9476   57.8067 H   0  0  0  0  0  0  0  0  0  0  0  0
  127.4276  123.0140   60.2820 H   0  0  0  0  0  0  0  0  0  0  0  0
  129.7687  122.4419   62.0082 H   0  0  0  0  0  0  0  0  0  0  0  0
  130.6840  124.0480   67.1570 H   0  0  0  0  0  0  0  0  0  0  0  0
  129.0230  123.9130   67.5880 H   0  0  0  0  0  0  0  0  0  0  0  0
  128.5593  124.3528   69.9885 H   0  0  0  0  0  0  0  0  0  0  0  0
  127.8839  121.5639   72.0286 H   0  0  0  0  0  0  0  0  0  0  0  0
  127.9603  122.6801   70.6233 H   0  0  0  0  0  0  0  0  0  0  0  0
  128.9305  121.1683   70.6233 H   0  0  0  0  0  0  0  0  0  0  0  0
  132.4682  122.8235   74.4290 H   0  0  0  0  0  0  0  0  0  0  0  0
  131.6004  122.3263   72.9369 H   0  0  0  0  0  0  0  0  0  0  0  0
  132.6072  123.8139   72.9369 H   0  0  0  0  0  0  0  0  0  0  0  0
  1  2  1  0
  2  3  1  0
  3  4  2  0
  4  5  1  0
  5  6  1  0
  6  7  1  0
  7  8  1  0
  8  9  2  0
  8 10  1  0
 10 11  1  0
 11 12  1  0
 12 13  2  0
 13 14  1  0
 14 15  1  0
 15 16  2  0
 16 17  1  0
 17 18  2  0
 18 19  1  0
 19 20  2  0
 14 21  2  0
 21 22  1  0
 22 23  1  0
 23 24  1  0
 23 25  1  0
 23 26  1  0
 22 27  2  0
 27 28  1  0
 28 29  1  0
  5 30  2  0
 30 31  1  0
 31 32  1  0
 32 33  1  0
 31 34  2  0
 34 35  1  0
 35 36  1  0
 34  3  1  0
 28 10  2  0
 27 12  1  0
 20 15  1  0
  1 37  1  0
  1 38  1  0
  1 39  1  0
  4 40  1  0
  6 41  1  0
  6 42  1  0
  7 43  1  0
 16 44  1  0
 17 45  1  0
 18 46  1  0
 19 47  1  0
 20 48  1  0
 21 49  1  0
 29 50  1  0
 29 51  1  0
 30 52  1  0
 33 53  1  0
 33 54  1  0
 33 55  1  0
 36 56  1  0
 36 57  1  0
 36 58  1  0
M  END
>  <Binding energies>  (1) 
[-7.11]

>  <Ligand effiencies>  (1) 
[-0.1823076923076923]

>  <Interactions>  (1) 
["V-B:GLU:543:C:9874, V-B:GLU:543:CB:9878, V-B:HIS:456:CE1:9040, V-B:GLU:543:CD:9880, V-A:GLU:543:CD:4908, V-B:TYR:539:CZ:9849, V-B:ALA:541:CB:9864, H-A:TYR:484:OH:4348, V-A:HIS:456:CE1:4069, V-B:GLU:543:CG:9879, V-A:LEU:475:CD1:4258, V-A:TYR:484:CE1:4345, V-A:TYR:484:CZ:4347, V-B:TYR:539:CE2:9848, V-A:HIS:456:CG:4066, V-A:HIS:456:CD2:4068, V-A:HIS:456:CB:4065, V-A:LYS:547:CD:4949, V-A:LYS:547:CE:4950, H-A:LYS:547:NZ:4951, V-A:ASP:473:CB:4239, V-A:ASP:473:CG:4240, H-B:LYS:547:NZ:9923, V-B:GLU:543:CA:9876, V-A:TYR:484:CD1:4343, V-A:TYR:484:CG:4342, V-A:TYR:484:CB:4341, V-B:LYS:547:CE:9922, V-A:LEU:475:CD2:4259, V-B:GLY:544:CA:9886, H-B:GLU:543:O:9875, V-A:LEU:475:CG:4257"]

$$$$
4ci_Grossjean_2025
     RDKit          3D

 39 42  0  0  0  0  0  0  0  0999 V2000
  129.8960  124.3730   67.7470 N   0  0  0  0  0  0  0  0  0  0  0  0
  129.3370  125.5820   68.0720 C   0  0  0  0  0  0  0  0  0  0  0  0
  129.1330  126.0040   69.3960 C   0  0  0  0  0  0  0  0  0  0  0  0
  129.4620  125.3010   70.6400 C   0  0  0  0  0  0  0  0  0  0  0  0
  129.6110  125.9230   71.6940 O   0  0  0  0  0  0  0  0  0  0  0  0
  129.5960  123.9550   70.5310 N   0  0  0  0  0  0  0  0  0  0  0  0
  129.9040  123.0520   71.5400 C   0  0  0  0  0  0  0  0  0  0  0  0
  131.0660  123.1320   72.3070 C   0  0  0  0  0  0  0  0  0  0  0  0
  130.9940  122.0700   73.1780 C   0  0  0  0  0  0  0  0  0  0  0  0
  129.8480  121.3860   72.9490 O   0  0  0  0  0  0  0  0  0  0  0  0
  129.1660  122.0170   71.9080 N   0  0  0  0  0  0  0  0  0  0  0  0
  128.4060  127.6080   69.4490 S   0  0  0  0  0  0  0  0  0  0  0  0
  128.3710  127.6990   67.7040 C   0  0  0  0  0  0  0  0  0  0  0  0
  127.8890  128.7670   67.0720 N   0  0  0  0  0  0  0  0  0  0  0  0
  127.9060  128.7480   65.7140 C   0  0  0  0  0  0  0  0  0  0  0  0
  127.3510  129.9650   65.0310 C   0  0  0  0  0  0  0  0  0  0  0  0
  126.0440  129.9690   64.5170 C   0  0  0  0  0  0  0  0  0  0  0  0
  125.5240  131.0940   63.8830 C   0  0  0  0  0  0  0  0  0  0  0  0
  126.3070  132.2360   63.7520 C   0  0  0  0  0  0  0  0  0  0  0  0
  127.6060  132.2580   64.2470 C   0  0  0  0  0  0  0  0  0  0  0  0
  128.1230  131.1300   64.8790 C   0  0  0  0  0  0  0  0  0  0  0  0
  128.3920  127.6490   64.9980 C   0  0  0  0  0  0  0  0  0  0  0  0
  128.9030  126.5170   65.6540 C   0  0  0  0  0  0  0  0  0  0  0  0
  129.4190  125.3480   64.8060 C   0  0  0  0  0  0  0  0  0  0  0  0
  129.0900  124.1550   65.3030 F   0  0  0  0  0  0  0  0  0  0  0  0
  128.9070  125.4240   63.5780 F   0  0  0  0  0  0  0  0  0  0  0  0
  130.7500  125.3980   64.7320 F   0  0  0  0  0  0  0  0  0  0  0  0
  128.9010  126.5330   67.0780 C   0  0  0  0  0  0  0  0  0  0  0  0
  130.8340  124.2990   67.3780 H   0  0  0  0  0  0  0  0  0  0  0  0
  129.3860  123.5090   67.8710 H   0  0  0  0  0  0  0  0  0  0  0  0
  129.4600  123.5520   69.6160 H   0  0  0  0  0  0  0  0  0  0  0  0
  131.8669  123.8822   72.2317 H   0  0  0  0  0  0  0  0  0  0  0  0
  131.7469  121.8168   73.9389 H   0  0  0  0  0  0  0  0  0  0  0  0
  125.4208  129.0681   64.6171 H   0  0  0  0  0  0  0  0  0  0  0  0
  124.4978  131.0798   63.4872 H   0  0  0  0  0  0  0  0  0  0  0  0
  125.8962  133.1267   63.2540 H   0  0  0  0  0  0  0  0  0  0  0  0
  128.2227  133.1625   64.1399 H   0  0  0  0  0  0  0  0  0  0  0  0
  129.1526  131.1509   65.2657 H   0  0  0  0  0  0  0  0  0  0  0  0
  128.3736  127.6718   63.8984 H   0  0  0  0  0  0  0  0  0  0  0  0
  1  2  1  0
  2  3  2  0
  3  4  1  0
  4  5  2  0
  4  6  1  0
  6  7  1  0
  7  8  1  0
  8  9  2  0
  9 10  1  0
 10 11  1  0
  3 12  1  0
 12 13  1  0
 13 14  2  0
 14 15  1  0
 15 16  1  0
 16 17  2  0
 17 18  1  0
 18 19  2  0
 19 20  1  0
 20 21  2  0
 15 22  2  0
 22 23  1  0
 23 24  1  0
 24 25  1  0
 24 26  1  0
 24 27  1  0
 23 28  2  0
 28  2  1  0
 11  7  2  0
 28 13  1  0
 21 16  1  0
  1 29  1  0
  1 30  1  0
  6 31  1  0
  8 32  1  0
  9 33  1  0
 17 34  1  0
 18 35  1  0
 19 36  1  0
 20 37  1  0
 21 38  1  0
 22 39  1  0
M  END
>  <Binding energies>  (1) 
[-8.48]

>  <Ligand effiencies>  (1) 
[-0.2735483870967742]

>  <Interactions>  (1) 
["V-B:GLU:543:C:9874, V-A:ALA:541:CB:4892, V-B:GLU:543:CB:9878, V-B:HIS:456:CE1:9040, V-B:LEU:475:CD1:9229, V-B:GLU:543:CD:9880, V-A:GLU:543:CD:4908, H-A:TYR:484:OH:4348, V-A:HIS:456:CE1:4069, V-B:GLU:543:CG:9879, V-A:TYR:484:CE1:4345, V-A:TYR:484:CZ:4347, V-A:HIS:456:CG:4066, H-A:HIS:456:NE2:4070, V-A:HIS:456:CD2:4068, V-A:HIS:456:CB:4065, V-A:ASP:473:CB:4239, V-A:ASP:473:CG:4240, H-B:LYS:547:NZ:9923, V-B:GLU:543:CA:9876, V-A:TYR:484:CD2:4344, V-A:GLU:543:CB:4906, V-A:TYR:484:CD1:4343, V-A:TYR:484:CG:4342, V-A:TYR:484:CB:4341, V-A:TYR:484:CE2:4346, H-B:GLU:543:O:9875, H-A:HIS:456:ND1:4067"]

$$$$
4cj_Grossjean_2025
     RDKit          3D

 39 42  0  0  0  0  0  0  0  0999 V2000
  129.9210  124.3130   67.8030 N   0  0  0  0  0  0  0  0  0  0  0  0
  129.3410  125.5110   68.1320 C   0  0  0  0  0  0  0  0  0  0  0  0
  129.1290  125.9250   69.4580 C   0  0  0  0  0  0  0  0  0  0  0  0
  129.4630  125.2220   70.6990 C   0  0  0  0  0  0  0  0  0  0  0  0
  129.5890  125.8390   71.7590 O   0  0  0  0  0  0  0  0  0  0  0  0
  129.6260  123.8800   70.5820 N   0  0  0  0  0  0  0  0  0  0  0  0
  129.9430  122.9880   71.5980 C   0  0  0  0  0  0  0  0  0  0  0  0
  129.2910  121.9010   71.9490 N   0  0  0  0  0  0  0  0  0  0  0  0
  129.8790  121.2870   72.9570 C   0  0  0  0  0  0  0  0  0  0  0  0
  131.0400  121.8800   73.4460 C   0  0  0  0  0  0  0  0  0  0  0  0
  131.3700  123.3190   72.5270 S   0  0  0  0  0  0  0  0  0  0  0  0
  128.3770  127.5170   69.5150 S   0  0  0  0  0  0  0  0  0  0  0  0
  128.3500  127.6160   67.7700 C   0  0  0  0  0  0  0  0  0  0  0  0
  127.8600  128.6820   67.1430 N   0  0  0  0  0  0  0  0  0  0  0  0
  127.8880  128.6730   65.7860 C   0  0  0  0  0  0  0  0  0  0  0  0
  127.3400  129.8970   65.1100 C   0  0  0  0  0  0  0  0  0  0  0  0
  126.0050  129.9410   64.6760 C   0  0  0  0  0  0  0  0  0  0  0  0
  125.4920  131.0700   64.0430 C   0  0  0  0  0  0  0  0  0  0  0  0
  126.3100  132.1750   63.8320 C   0  0  0  0  0  0  0  0  0  0  0  0
  127.6360  132.1580   64.2500 C   0  0  0  0  0  0  0  0  0  0  0  0
  128.1440  131.0270   64.8840 C   0  0  0  0  0  0  0  0  0  0  0  0
  128.3860  127.5830   65.0650 C   0  0  0  0  0  0  0  0  0  0  0  0
  128.9030  126.4520   65.7160 C   0  0  0  0  0  0  0  0  0  0  0  0
  129.4360  125.2940   64.8640 C   0  0  0  0  0  0  0  0  0  0  0  0
  129.1240  124.0940   65.3580 F   0  0  0  0  0  0  0  0  0  0  0  0
  128.9240  125.3660   63.6360 F   0  0  0  0  0  0  0  0  0  0  0  0
  130.7650  125.3620   64.7910 F   0  0  0  0  0  0  0  0  0  0  0  0
  128.8960  126.4600   67.1400 C   0  0  0  0  0  0  0  0  0  0  0  0
  130.8850  124.2480   67.5060 H   0  0  0  0  0  0  0  0  0  0  0  0
  129.4020  123.4470   67.8530 H   0  0  0  0  0  0  0  0  0  0  0  0
  129.5170  123.4780   69.6630 H   0  0  0  0  0  0  0  0  0  0  0  0
  129.4751  120.3587   73.3873 H   0  0  0  0  0  0  0  0  0  0  0  0
  131.6498  121.4998   74.2788 H   0  0  0  0  0  0  0  0  0  0  0  0
  125.3541  129.0693   64.8388 H   0  0  0  0  0  0  0  0  0  0  0  0
  124.4435  131.0880   63.7109 H   0  0  0  0  0  0  0  0  0  0  0  0
  125.9056  133.0673   63.3317 H   0  0  0  0  0  0  0  0  0  0  0  0
  128.2803  133.0333   64.0808 H   0  0  0  0  0  0  0  0  0  0  0  0
  129.1934  131.0181   65.2138 H   0  0  0  0  0  0  0  0  0  0  0  0
  128.3723  127.6126   63.9655 H   0  0  0  0  0  0  0  0  0  0  0  0
  1  2  1  0
  2  3  2  0
  3  4  1  0
  4  5  2  0
  4  6  1  0
  6  7  1  0
  7  8  2  0
  8  9  1  0
  9 10  2  0
 10 11  1  0
  3 12  1  0
 12 13  1  0
 13 14  2  0
 14 15  1  0
 15 16  1  0
 16 17  2  0
 17 18  1  0
 18 19  2  0
 19 20  1  0
 20 21  2  0
 15 22  2  0
 22 23  1  0
 23 24  1  0
 24 25  1  0
 24 26  1  0
 24 27  1  0
 23 28  2  0
 28  2  1  0
 11  7  1  0
 28 13  1  0
 21 16  1  0
  1 29  1  0
  1 30  1  0
  6 31  1  0
  9 32  1  0
 10 33  1  0
 17 34  1  0
 18 35  1  0
 19 36  1  0
 20 37  1  0
 21 38  1  0
 22 39  1  0
M  END
>  <Binding energies>  (1) 
[-7.71]

>  <Ligand effiencies>  (1) 
[-0.24870967741935485]

>  <Interactions>  (1) 
["V-B:GLU:543:C:9874, V-A:ALA:541:CB:4892, V-B:GLU:543:CB:9878, V-B:HIS:456:CE1:9040, V-B:LEU:475:CD1:9229, V-B:GLU:543:CD:9880, V-A:GLU:543:CD:4908, H-A:TYR:484:OH:4348, V-A:HIS:456:CE1:4069, V-B:GLU:543:CG:9879, V-A:TYR:484:CE1:4345, V-A:TYR:484:CZ:4347, V-A:HIS:456:CG:4066, H-A:HIS:456:NE2:4070, V-A:HIS:456:CD2:4068, V-A:HIS:456:CB:4065, V-A:ASP:473:CB:4239, V-A:ASP:473:CG:4240, H-B:LYS:547:NZ:9923, V-B:GLU:543:CA:9876, V-A:TYR:484:CD2:4344, V-A:GLU:543:CB:4906, V-A:TYR:484:CD1:4343, V-A:TYR:484:CG:4342, V-A:TYR:484:CB:4341, V-A:TYR:484:CE2:4346, V-B:LYS:547:CE:9922, H-B:GLU:543:O:9875, H-A:HIS:456:ND1:4067"]

$$$$
4ck_Grossjean_2025
     RDKit          3D

 57 59  0  0  0  0  0  0  0  0999 V2000
  127.2430  122.7610   54.7610 C   0  0  0  0  0  0  0  0  0  0  0  0
  126.6110  122.0830   55.8350 O   0  0  0  0  0  0  0  0  0  0  0  0
  126.5640  122.8430   57.0340 C   0  0  0  0  0  0  0  0  0  0  0  0
  127.8820  123.6110   57.1920 C   0  0  0  0  0  0  0  0  0  0  0  0
  128.4410  123.3180   58.4650 O   0  0  0  0  0  0  0  0  0  0  0  0
  127.4850  122.8570   59.4110 C   0  0  0  0  0  0  0  0  0  0  0  0
  128.1680  122.6910   60.7750 C   0  0  0  0  0  0  0  0  0  0  0  0
  128.5000  121.3210   60.9570 O   0  0  0  0  0  0  0  0  0  0  0  0
  129.8920  121.0840   61.1190 C   0  0  0  0  0  0  0  0  0  0  0  0
  130.2700  121.2290   62.6010 C   0  0  0  0  0  0  0  0  0  0  0  0
  129.9040  122.5400   63.1370 N   0  0  0  0  0  0  0  0  0  0  0  0
  130.1750  122.9900   64.3800 C   0  0  0  0  0  0  0  0  0  0  0  0
  130.8040  122.3260   65.2050 O   0  0  0  0  0  0  0  0  0  0  0  0
  129.6840  124.3320   64.6950 C   0  0  0  0  0  0  0  0  0  0  0  0
  129.2040  125.4240   63.3990 S   0  0  0  0  0  0  0  0  0  0  0  0
  128.7360  126.6530   64.5510 C   0  0  0  0  0  0  0  0  0  0  0  0
  128.2470  127.8260   64.1560 N   0  0  0  0  0  0  0  0  0  0  0  0
  127.9130  128.7190   65.1240 C   0  0  0  0  0  0  0  0  0  0  0  0
  127.3470  130.0250   64.6450 C   0  0  0  0  0  0  0  0  0  0  0  0
  128.1460  131.1780   64.5900 C   0  0  0  0  0  0  0  0  0  0  0  0
  127.6270  132.3940   64.1500 C   0  0  0  0  0  0  0  0  0  0  0  0
  126.2950  132.4720   63.7560 C   0  0  0  0  0  0  0  0  0  0  0  0
  125.4830  131.3440   63.7950 C   0  0  0  0  0  0  0  0  0  0  0  0
  126.0060  130.1310   64.2350 C   0  0  0  0  0  0  0  0  0  0  0  0
  128.0630  128.4270   66.4830 C   0  0  0  0  0  0  0  0  0  0  0  0
  128.5790  127.1930   66.9110 C   0  0  0  0  0  0  0  0  0  0  0  0
  128.7210  126.9400   68.4170 C   0  0  0  0  0  0  0  0  0  0  0  0
  128.7760  128.0640   69.1340 F   0  0  0  0  0  0  0  0  0  0  0  0
  127.6770  126.2370   68.8560 F   0  0  0  0  0  0  0  0  0  0  0  0
  129.8420  126.2590   68.6550 F   0  0  0  0  0  0  0  0  0  0  0  0
  128.9350  126.2500   65.9050 C   0  0  0  0  0  0  0  0  0  0  0  0
  129.4720  124.9120   65.9560 C   0  0  0  0  0  0  0  0  0  0  0  0
  129.7540  124.2690   67.1340 N   0  0  0  0  0  0  0  0  0  0  0  0
  127.9417  123.5105   55.1610 H   0  0  0  0  0  0  0  0  0  0  0  0
  127.7957  122.0367   54.1446 H   0  0  0  0  0  0  0  0  0  0  0  0
  126.4817  123.2615   54.1446 H   0  0  0  0  0  0  0  0  0  0  0  0
  125.7263  123.5544   56.9868 H   0  0  0  0  0  0  0  0  0  0  0  0
  126.4204  122.1717   57.8935 H   0  0  0  0  0  0  0  0  0  0  0  0
  128.5837  123.3048   56.4022 H   0  0  0  0  0  0  0  0  0  0  0  0
  127.6934  124.6916   57.1098 H   0  0  0  0  0  0  0  0  0  0  0  0
  126.6676  123.5883   59.4949 H   0  0  0  0  0  0  0  0  0  0  0  0
  127.0744  121.8909   59.0822 H   0  0  0  0  0  0  0  0  0  0  0  0
  129.0831  123.3006   60.8069 H   0  0  0  0  0  0  0  0  0  0  0  0
  127.4894  123.0208   61.5755 H   0  0  0  0  0  0  0  0  0  0  0  0
  130.1323  120.0663   60.7777 H   0  0  0  0  0  0  0  0  0  0  0  0
  130.4589  121.8152   60.5240 H   0  0  0  0  0  0  0  0  0  0  0  0
  129.7476  120.4516   63.1779 H   0  0  0  0  0  0  0  0  0  0  0  0
  131.3616  121.1221   62.6840 H   0  0  0  0  0  0  0  0  0  0  0  0
  129.4620  123.1750   62.4880 H   0  0  0  0  0  0  0  0  0  0  0  0
  129.2000  131.1205   64.8996 H   0  0  0  0  0  0  0  0  0  0  0  0
  128.2672  133.2878   64.1144 H   0  0  0  0  0  0  0  0  0  0  0  0
  125.8819  133.4316   63.4117 H   0  0  0  0  0  0  0  0  0  0  0  0
  124.4313  131.4097   63.4794 H   0  0  0  0  0  0  0  0  0  0  0  0
  125.3598  129.2412   64.2624 H   0  0  0  0  0  0  0  0  0  0  0  0
  127.7712  129.1784   67.2315 H   0  0  0  0  0  0  0  0  0  0  0  0
  129.1260  124.2990   67.9250 H   0  0  0  0  0  0  0  0  0  0  0  0
  130.6040  123.7330   67.2500 H   0  0  0  0  0  0  0  0  0  0  0  0
  1  2  1  0
  2  3  1  0
  3  4  1  0
  4  5  1  0
  5  6  1  0
  6  7  1  0
  7  8  1  0
  8  9  1  0
  9 10  1  0
 10 11  1  0
 11 12  1  0
 12 13  2  0
 12 14  1  0
 14 15  1  0
 15 16  1  0
 16 17  2  0
 17 18  1  0
 18 19  1  0
 19 20  2  0
 20 21  1  0
 21 22  2  0
 22 23  1  0
 23 24  2  0
 18 25  2  0
 25 26  1  0
 26 27  1  0
 27 28  1  0
 27 29  1  0
 27 30  1  0
 26 31  2  0
 31 32  1  0
 32 33  1  0
 32 14  2  0
 31 16  1  0
 24 19  1  0
  1 34  1  0
  1 35  1  0
  1 36  1  0
  3 37  1  0
  3 38  1  0
  4 39  1  0
  4 40  1  0
  6 41  1  0
  6 42  1  0
  7 43  1  0
  7 44  1  0
  9 45  1  0
  9 46  1  0
 10 47  1  0
 10 48  1  0
 11 49  1  0
 20 50  1  0
 21 51  1  0
 22 52  1  0
 23 53  1  0
 24 54  1  0
 25 55  1  0
 33 56  1  0
 33 57  1  0
M  END
>  <Binding energies>  (1) 
[-6.82]

>  <Ligand effiencies>  (1) 
[-0.18944444444444444]

>  <Interactions>  (1) 
["V-B:GLU:543:C:9874, V-A:ALA:541:CB:4892, V-B:GLU:543:CB:9878, V-B:GLY:544:C:9884, V-B:HIS:456:CE1:9040, V-B:LEU:475:CD1:9229, V-B:GLU:543:CD:9880, V-A:GLU:543:CD:4908, V-B:TYR:539:CZ:9849, V-B:ALA:541:CB:9864, H-A:TYR:484:OH:4348, V-A:HIS:456:CE1:4069, V-B:TYR:539:CE1:9847, V-B:GLU:543:CG:9879, V-A:LEU:475:CD1:4258, V-A:TYR:484:CE1:4345, V-B:PRO:540:N:9856, V-A:TYR:484:CZ:4347, V-B:TYR:539:CD2:9846, V-B:PRO:540:CA:9855, V-B:TYR:539:C:9839, V-B:TYR:539:CE2:9848, H-B:ALA:541:N:9863, V-A:HIS:456:CD2:4068, V-B:GLU:543:CA:9876, V-A:GLU:543:CB:4906, V-B:ILE:538:CB:9834, V-B:ILE:538:C:9830, V-B:ILE:538:CA:9832, V-B:TYR:539:CD1:9845, V-B:ILE:538:CG2:9835, H-B:TYR:539:N:9842, H-B:GLU:543:O:9875"]

$$$$
4dd_Grossjean_2025
     RDKit          3D

 43 46  0  0  0  0  0  0  0  0999 V2000
  129.8520  120.2990   61.4440 C   0  0  0  0  0  0  0  0  0  0  0  0
  129.1260  121.5940   61.1120 C   0  0  0  0  0  0  0  0  0  0  0  0
  128.4420  121.6740   59.8930 C   0  0  0  0  0  0  0  0  0  0  0  0
  127.7540  122.8380   59.5290 C   0  0  0  0  0  0  0  0  0  0  0  0
  127.0190  122.9540   58.2270 C   0  0  0  0  0  0  0  0  0  0  0  0
  125.6950  123.4200   58.1870 C   0  0  0  0  0  0  0  0  0  0  0  0
  125.0070  123.5330   56.9820 C   0  0  0  0  0  0  0  0  0  0  0  0
  125.6360  123.1780   55.7940 C   0  0  0  0  0  0  0  0  0  0  0  0
  126.9470  122.7150   55.8030 C   0  0  0  0  0  0  0  0  0  0  0  0
  127.6320  122.6060   57.0110 C   0  0  0  0  0  0  0  0  0  0  0  0
  127.7280  123.9380   60.3310 N   0  0  0  0  0  0  0  0  0  0  0  0
  128.3720  123.8600   61.4940 C   0  0  0  0  0  0  0  0  0  0  0  0
  128.4040  125.1920   62.6280 S   0  0  0  0  0  0  0  0  0  0  0  0
  129.3870  124.2640   63.7630 C   0  0  0  0  0  0  0  0  0  0  0  0
  129.7900  124.8480   65.0440 C   0  0  0  0  0  0  0  0  0  0  0  0
  130.8360  124.4970   65.5920 O   0  0  0  0  0  0  0  0  0  0  0  0
  128.9450  125.7790   65.5490 N   0  0  0  0  0  0  0  0  0  0  0  0
  129.0090  126.4820   66.7660 C   0  0  0  0  0  0  0  0  0  0  0  0
  128.7250  125.7400   67.9160 C   0  0  0  0  0  0  0  0  0  0  0  0
  128.7760  126.3420   69.1710 C   0  0  0  0  0  0  0  0  0  0  0  0
  129.1200  127.6870   69.2770 C   0  0  0  0  0  0  0  0  0  0  0  0
  129.4180  128.4350   68.1410 C   0  0  0  0  0  0  0  0  0  0  0  0
  129.3670  127.8360   66.8850 C   0  0  0  0  0  0  0  0  0  0  0  0
  129.6680  122.9840   63.2590 C   0  0  0  0  0  0  0  0  0  0  0  0
  130.4170  122.0480   63.9280 N   0  0  0  0  0  0  0  0  0  0  0  0
  129.0960  122.7280   61.9640 C   0  0  0  0  0  0  0  0  0  0  0  0
  129.9163  120.1843   62.5361 H   0  0  0  0  0  0  0  0  0  0  0  0
  129.2989  119.4490   61.0180 H   0  0  0  0  0  0  0  0  0  0  0  0
  130.8658  120.3274   61.0180 H   0  0  0  0  0  0  0  0  0  0  0  0
  128.4451  120.8104   59.2117 H   0  0  0  0  0  0  0  0  0  0  0  0
  125.1925  123.7007   59.1244 H   0  0  0  0  0  0  0  0  0  0  0  0
  123.9706  123.9014   56.9699 H   0  0  0  0  0  0  0  0  0  0  0  0
  125.0931  123.2640   54.8411 H   0  0  0  0  0  0  0  0  0  0  0  0
  127.4410  122.4361   54.8606 H   0  0  0  0  0  0  0  0  0  0  0  0
  128.6699  122.2415   57.0133 H   0  0  0  0  0  0  0  0  0  0  0  0
  128.1550  126.0220   64.9700 H   0  0  0  0  0  0  0  0  0  0  0  0
  128.4600  124.6759   67.8295 H   0  0  0  0  0  0  0  0  0  0  0  0
  128.5456  125.7576   70.0740 H   0  0  0  0  0  0  0  0  0  0  0  0
  129.1567  128.1633   70.2678 H   0  0  0  0  0  0  0  0  0  0  0  0
  129.6929  129.4959   68.2355 H   0  0  0  0  0  0  0  0  0  0  0  0
  129.6069  128.4225   65.9859 H   0  0  0  0  0  0  0  0  0  0  0  0
  130.4800  121.0900   63.6120 H   0  0  0  0  0  0  0  0  0  0  0  0
  130.9360  122.2890   64.7600 H   0  0  0  0  0  0  0  0  0  0  0  0
  1  2  1  0
  2  3  2  0
  3  4  1  0
  4  5  1  0
  5  6  2  0
  6  7  1  0
  7  8  2  0
  8  9  1  0
  9 10  2  0
  4 11  2  0
 11 12  1  0
 12 13  1  0
 13 14  1  0
 14 15  1  0
 15 16  2  0
 15 17  1  0
 17 18  1  0
 18 19  2  0
 19 20  1  0
 20 21  2  0
 21 22  1  0
 22 23  2  0
 14 24  2  0
 24 25  1  0
 24 26  1  0
 26  2  1  0
 10  5  1  0
 26 12  2  0
 23 18  1  0
  1 27  1  0
  1 28  1  0
  1 29  1  0
  3 30  1  0
  6 31  1  0
  7 32  1  0
  8 33  1  0
  9 34  1  0
 10 35  1  0
 17 36  1  0
 19 37  1  0
 20 38  1  0
 21 39  1  0
 22 40  1  0
 23 41  1  0
 25 42  1  0
 25 43  1  0
M  END
>  <Binding energies>  (1) 
[-7.24]

>  <Ligand effiencies>  (1) 
[-0.24965517241379312]

>  <Interactions>  (1) 
["V-B:GLU:543:C:9874, V-B:GLU:543:CB:9878, V-B:HIS:456:CE1:9040, V-B:GLU:543:CD:9880, V-A:GLU:543:CD:4908, V-A:GLU:543:CG:4907, H-B:GLU:543:OE1:9881, H-B:GLU:543:OE2:9882, V-B:TYR:539:CZ:9849, V-B:ALA:541:CB:9864, H-A:TYR:484:OH:4348, V-A:HIS:456:CE1:4069, V-B:TYR:539:CE1:9847, V-B:GLU:543:CG:9879, V-A:LEU:475:CD1:4258, V-B:PRO:540:N:9856, V-B:TYR:539:CD2:9846, V-B:PRO:540:CA:9855, V-B:TYR:539:C:9839, V-B:TYR:539:CE2:9848, V-B:PRO:540:C:9853, V-B:PRO:540:CB:9857, V-A:GLU:543:CB:4906, V-B:LEU:363:CD1:8160, V-B:ILE:538:CB:9834, V-B:TYR:539:CG:9844, V-B:ILE:538:CA:9832, V-B:TYR:539:CD1:9845, V-B:ILE:538:CG2:9835, V-A:GLU:543:C:4902"]

$$$$
4dg_Grossjean_2025
     RDKit          3D

 46 49  0  0  0  0  0  0  0  0999 V2000
  126.1230  127.2520   67.6030 C   0  0  0  0  0  0  0  0  0  0  0  0
  127.4160  126.5350   67.9610 C   0  0  0  0  0  0  0  0  0  0  0  0
  128.2340  126.0870   66.9170 C   0  0  0  0  0  0  0  0  0  0  0  0
  129.4370  125.4210   67.1800 C   0  0  0  0  0  0  0  0  0  0  0  0
  130.3360  124.9300   66.0800 C   0  0  0  0  0  0  0  0  0  0  0  0
  131.5490  125.5790   65.7970 C   0  0  0  0  0  0  0  0  0  0  0  0
  132.3830  125.1300   64.7760 C   0  0  0  0  0  0  0  0  0  0  0  0
  132.0160  124.0220   64.0210 C   0  0  0  0  0  0  0  0  0  0  0  0
  130.8190  123.3620   64.2780 C   0  0  0  0  0  0  0  0  0  0  0  0
  129.9870  123.8140   65.2980 C   0  0  0  0  0  0  0  0  0  0  0  0
  129.8710  125.1970   68.4500 N   0  0  0  0  0  0  0  0  0  0  0  0
  129.0930  125.6220   69.4460 C   0  0  0  0  0  0  0  0  0  0  0  0
  129.5290  125.3930   71.1230 S   0  0  0  0  0  0  0  0  0  0  0  0
  128.0560  126.1990   71.6610 C   0  0  0  0  0  0  0  0  0  0  0  0
  127.7610  126.3170   73.0880 C   0  0  0  0  0  0  0  0  0  0  0  0
  128.6230  126.0980   73.9410 O   0  0  0  0  0  0  0  0  0  0  0  0
  126.4890  126.6390   73.4030 N   0  0  0  0  0  0  0  0  0  0  0  0
  125.9750  126.8310   74.7580 C   0  0  0  0  0  0  0  0  0  0  0  0
  125.6370  128.2830   75.0770 C   0  0  0  0  0  0  0  0  0  0  0  0
  124.3220  128.6350   75.3980 C   0  0  0  0  0  0  0  0  0  0  0  0
  124.0150  129.9540   75.7200 C   0  0  0  0  0  0  0  0  0  0  0  0
  125.0240  130.9140   75.7320 C   0  0  0  0  0  0  0  0  0  0  0  0
  126.3390  130.5680   75.4290 C   0  0  0  0  0  0  0  0  0  0  0  0
  126.6470  129.2480   75.1080 C   0  0  0  0  0  0  0  0  0  0  0  0
  127.2700  126.6050   70.5710 C   0  0  0  0  0  0  0  0  0  0  0  0
  126.0630  127.2440   70.6970 N   0  0  0  0  0  0  0  0  0  0  0  0
  127.8490  126.2960   69.2910 C   0  0  0  0  0  0  0  0  0  0  0  0
  125.5979  127.5432   68.5247 H   0  0  0  0  0  0  0  0  0  0  0  0
  126.3536  128.1511   67.0127 H   0  0  0  0  0  0  0  0  0  0  0  0
  125.4825  126.5802   67.0127 H   0  0  0  0  0  0  0  0  0  0  0  0
  127.9271  126.2608   65.8751 H   0  0  0  0  0  0  0  0  0  0  0  0
  131.8450  126.4560   66.3913 H   0  0  0  0  0  0  0  0  0  0  0  0
  133.3293  125.6506   64.5676 H   0  0  0  0  0  0  0  0  0  0  0  0
  132.6756  123.6654   63.2162 H   0  0  0  0  0  0  0  0  0  0  0  0
  130.5311  122.4864   63.6776 H   0  0  0  0  0  0  0  0  0  0  0  0
  129.0405  123.2897   65.4960 H   0  0  0  0  0  0  0  0  0  0  0  0
  125.8590  126.8800   72.6520 H   0  0  0  0  0  0  0  0  0  0  0  0
  125.0629  126.2271   74.8738 H   0  0  0  0  0  0  0  0  0  0  0  0
  126.7692  126.5220   75.4535 H   0  0  0  0  0  0  0  0  0  0  0  0
  123.5312  127.8704   75.3960 H   0  0  0  0  0  0  0  0  0  0  0  0
  122.9803  130.2368   75.9638 H   0  0  0  0  0  0  0  0  0  0  0  0
  124.7799  131.9567   75.9834 H   0  0  0  0  0  0  0  0  0  0  0  0
  127.1295  131.3328   75.4432 H   0  0  0  0  0  0  0  0  0  0  0  0
  127.6851  128.9654   74.8790 H   0  0  0  0  0  0  0  0  0  0  0  0
  125.7840  127.9860   70.0730 H   0  0  0  0  0  0  0  0  0  0  0  0
  125.4060  126.9860   71.4210 H   0  0  0  0  0  0  0  0  0  0  0  0
  1  2  1  0
  2  3  2  0
  3  4  1  0
  4  5  1  0
  5  6  2  0
  6  7  1  0
  7  8  2  0
  8  9  1  0
  9 10  2  0
  4 11  2  0
 11 12  1  0
 12 13  1  0
 13 14  1  0
 14 15  1  0
 15 16  2  0
 15 17  1  0
 17 18  1  0
 18 19  1  0
 19 20  2  0
 20 21  1  0
 21 22  2  0
 22 23  1  0
 23 24  2  0
 14 25  2  0
 25 26  1  0
 25 27  1  0
 27  2  1  0
 10  5  1  0
 27 12  2  0
 24 19  1  0
  1 28  1  0
  1 29  1  0
  1 30  1  0
  3 31  1  0
  6 32  1  0
  7 33  1  0
  8 34  1  0
  9 35  1  0
 10 36  1  0
 17 37  1  0
 18 38  1  0
 18 39  1  0
 20 40  1  0
 21 41  1  0
 22 42  1  0
 23 43  1  0
 24 44  1  0
 26 45  1  0
 26 46  1  0
M  END
>  <Binding energies>  (1) 
[-8.38]

>  <Ligand effiencies>  (1) 
[-0.2793333333333334]

>  <Interactions>  (1) 
["V-B:GLU:543:C:9874, V-B:GLU:543:CB:9878, V-B:GLY:544:C:9884, V-B:HIS:456:CE1:9040, V-B:GLU:543:CD:9880, V-B:ARG:545:CG:9894, V-B:ARG:545:CA:9891, H-A:TYR:484:OH:4348, V-A:HIS:456:CE1:4069, V-B:GLU:543:CG:9879, V-A:TYR:484:CE1:4345, V-A:TYR:484:CZ:4347, H-A:HIS:456:NE2:4070, V-A:HIS:456:CD2:4068, H-B:LYS:547:NZ:9923, V-B:GLU:543:CA:9876, V-B:HIS:456:CD2:9039, V-B:LYS:471:CG:9189, V-B:ASP:473:CG:9211, V-B:VAL:457:CA:9046, V-B:HIS:456:CG:9037, V-B:VAL:457:C:9044, V-B:VAL:458:CG2:9058, V-B:HIS:456:CB:9036, V-B:HIS:456:C:9032, V-B:LYS:471:CE:9191, V-B:HIS:456:CA:9034, V-B:LYS:547:CD:9921, V-B:LYS:547:CE:9922, H-B:GLY:544:O:9885, H-B:HIS:456:ND1:9038, H-B:ARG:545:O:9890"]

$$$$
4dj_Grossjean_2025
     RDKit          3D

 39 42  0  0  0  0  0  0  0  0999 V2000
  129.3950  125.2880   64.9040 C   0  0  0  0  0  0  0  0  0  0  0  0
  128.8710  126.4460   65.7410 C   0  0  0  0  0  0  0  0  0  0  0  0
  128.3540  127.5610   65.0730 C   0  0  0  0  0  0  0  0  0  0  0  0
  127.8580  128.6600   65.7850 C   0  0  0  0  0  0  0  0  0  0  0  0
  127.2920  129.8690   65.0950 C   0  0  0  0  0  0  0  0  0  0  0  0
  125.9500  129.8990   64.6800 C   0  0  0  0  0  0  0  0  0  0  0  0
  125.4190  131.0150   64.0400 C   0  0  0  0  0  0  0  0  0  0  0  0
  126.2270  132.1230   63.8020 C   0  0  0  0  0  0  0  0  0  0  0  0
  127.5590  132.1200   64.1990 C   0  0  0  0  0  0  0  0  0  0  0  0
  128.0860  131.0020   64.8390 C   0  0  0  0  0  0  0  0  0  0  0  0
  127.8420  128.6870   67.1450 N   0  0  0  0  0  0  0  0  0  0  0  0
  128.3350  127.6260   67.7830 C   0  0  0  0  0  0  0  0  0  0  0  0
  128.3820  127.5310   69.5290 S   0  0  0  0  0  0  0  0  0  0  0  0
  129.1220  125.9290   69.4680 C   0  0  0  0  0  0  0  0  0  0  0  0
  129.4610  125.2240   70.7050 C   0  0  0  0  0  0  0  0  0  0  0  0
  129.5970  125.8400   71.7650 O   0  0  0  0  0  0  0  0  0  0  0  0
  129.6150  123.8820   70.5880 N   0  0  0  0  0  0  0  0  0  0  0  0
  129.9370  122.9880   71.5990 C   0  0  0  0  0  0  0  0  0  0  0  0
  129.2830  121.9030   71.9570 N   0  0  0  0  0  0  0  0  0  0  0  0
  129.8770  121.2880   72.9610 C   0  0  0  0  0  0  0  0  0  0  0  0
  131.0440  121.8750   73.4390 C   0  0  0  0  0  0  0  0  0  0  0  0
  131.3720  123.3120   72.5170 S   0  0  0  0  0  0  0  0  0  0  0  0
  129.3150  125.5120   68.1430 C   0  0  0  0  0  0  0  0  0  0  0  0
  129.8750  124.3070   67.7960 N   0  0  0  0  0  0  0  0  0  0  0  0
  128.8720  126.4630   67.1600 C   0  0  0  0  0  0  0  0  0  0  0  0
  129.7564  124.4894   65.5685 H   0  0  0  0  0  0  0  0  0  0  0  0
  128.5854  124.8986   64.2693 H   0  0  0  0  0  0  0  0  0  0  0  0
  130.2219  125.6391   64.2693 H   0  0  0  0  0  0  0  0  0  0  0  0
  128.3368  127.5747   63.9732 H   0  0  0  0  0  0  0  0  0  0  0  0
  125.3078  129.0251   64.8642 H   0  0  0  0  0  0  0  0  0  0  0  0
  124.3655  131.0213   63.7237 H   0  0  0  0  0  0  0  0  0  0  0  0
  125.8090  133.0062   63.2968 H   0  0  0  0  0  0  0  0  0  0  0  0
  128.1941  132.9976   64.0082 H   0  0  0  0  0  0  0  0  0  0  0  0
  129.1411  131.0043   65.1499 H   0  0  0  0  0  0  0  0  0  0  0  0
  129.4890  123.4790   69.6710 H   0  0  0  0  0  0  0  0  0  0  0  0
  129.4722  120.3624   73.3962 H   0  0  0  0  0  0  0  0  0  0  0  0
  131.6596  121.4920   74.2663 H   0  0  0  0  0  0  0  0  0  0  0  0
  129.3590  123.4420   67.8550 H   0  0  0  0  0  0  0  0  0  0  0  0
  130.8290  124.2480   67.4680 H   0  0  0  0  0  0  0  0  0  0  0  0
  1  2  1  0
  2  3  2  0
  3  4  1  0
  4  5  1  0
  5  6  2  0
  6  7  1  0
  7  8  2  0
  8  9  1  0
  9 10  2  0
  4 11  2  0
 11 12  1  0
 12 13  1  0
 13 14  1  0
 14 15  1  0
 15 16  2  0
 15 17  1  0
 17 18  1  0
 18 19  2  0
 19 20  1  0
 20 21  2  0
 21 22  1  0
 14 23  2  0
 23 24  1  0
 23 25  1  0
 25  2  1  0
 10  5  1  0
 25 12  2  0
 22 18  1  0
  1 26  1  0
  1 27  1  0
  1 28  1  0
  3 29  1  0
  6 30  1  0
  7 31  1  0
  8 32  1  0
  9 33  1  0
 10 34  1  0
 17 35  1  0
 20 36  1  0
 21 37  1  0
 24 38  1  0
 24 39  1  0
M  END
>  <Binding energies>  (1) 
[-8.04]

>  <Ligand effiencies>  (1) 
[-0.2871428571428571]

>  <Interactions>  (1) 
["V-B:GLU:543:C:9874, V-A:ALA:541:CB:4892, V-B:GLU:543:CB:9878, V-B:HIS:456:CE1:9040, V-B:LEU:475:CD1:9229, V-B:GLU:543:CD:9880, V-A:GLU:543:CD:4908, H-A:TYR:484:OH:4348, V-A:HIS:456:CE1:4069, V-B:GLU:543:CG:9879, V-A:TYR:484:CE1:4345, V-A:TYR:484:CZ:4347, V-A:HIS:456:CG:4066, H-A:HIS:456:NE2:4070, V-A:HIS:456:CD2:4068, V-A:HIS:456:CB:4065, V-A:ASP:473:CB:4239, V-A:ASP:473:CG:4240, H-B:LYS:547:NZ:9923, V-B:GLU:543:CA:9876, V-A:TYR:484:CD2:4344, V-A:GLU:543:CB:4906, V-A:TYR:484:CD1:4343, V-A:TYR:484:CG:4342, V-A:TYR:484:CB:4341, V-A:TYR:484:CE2:4346, V-B:LYS:547:CE:9922, H-B:GLU:543:O:9875, H-A:HIS:456:ND1:4067"]

$$$$
4ea_Grossjean_2025
     RDKit          3D

 52 55  0  0  0  0  0  0  0  0999 V2000
  131.4320  131.7490   54.3920 C   0  0  0  0  0  0  0  0  0  0  0  0
  132.3430  132.5070   55.3610 C   0  0  0  0  0  0  0  0  0  0  0  0
  131.9110  132.2750   56.6950 O   0  0  0  0  0  0  0  0  0  0  0  0
  130.6330  132.5330   57.0750 C   0  0  0  0  0  0  0  0  0  0  0  0
  129.8610  133.2430   56.4230 O   0  0  0  0  0  0  0  0  0  0  0  0
  130.2520  131.8700   58.3670 C   0  0  0  0  0  0  0  0  0  0  0  0
  131.0050  130.7790   58.8220 C   0  0  0  0  0  0  0  0  0  0  0  0
  130.6780  130.1420   60.0160 C   0  0  0  0  0  0  0  0  0  0  0  0
  129.5940  130.5800   60.7780 C   0  0  0  0  0  0  0  0  0  0  0  0
  129.3580  129.8610   61.9650 N   0  0  0  0  0  0  0  0  0  0  0  0
  128.2010  129.3820   62.4870 C   0  0  0  0  0  0  0  0  0  0  0  0
  127.0960  129.5150   61.9610 O   0  0  0  0  0  0  0  0  0  0  0  0
  128.3390  128.6710   63.7610 C   0  0  0  0  0  0  0  0  0  0  0  0
  127.3110  129.0900   65.1340 S   0  0  0  0  0  0  0  0  0  0  0  0
  128.0700  127.8740   66.1350 C   0  0  0  0  0  0  0  0  0  0  0  0
  127.7030  127.6740   67.4020 N   0  0  0  0  0  0  0  0  0  0  0  0
  128.3700  126.7010   68.0700 C   0  0  0  0  0  0  0  0  0  0  0  0
  127.9360  126.4910   69.5090 C   0  0  0  0  0  0  0  0  0  0  0  0
  129.3840  125.9310   67.5060 C   0  0  0  0  0  0  0  0  0  0  0  0
  129.7660  126.1430   66.1770 C   0  0  0  0  0  0  0  0  0  0  0  0
  130.8460  125.3160   65.5930 C   0  0  0  0  0  0  0  0  0  0  0  0
  132.1780  125.7360   65.6780 C   0  0  0  0  0  0  0  0  0  0  0  0
  133.1940  124.9580   65.1310 C   0  0  0  0  0  0  0  0  0  0  0  0
  132.8780  123.7610   64.4940 C   0  0  0  0  0  0  0  0  0  0  0  0
  131.5550  123.3350   64.3990 C   0  0  0  0  0  0  0  0  0  0  0  0
  130.5400  124.1140   64.9470 C   0  0  0  0  0  0  0  0  0  0  0  0
  129.0910  127.1560   65.4420 C   0  0  0  0  0  0  0  0  0  0  0  0
  129.2230  127.6310   64.0890 C   0  0  0  0  0  0  0  0  0  0  0  0
  130.1370  127.1020   63.2140 N   0  0  0  0  0  0  0  0  0  0  0  0
  128.8350  131.6720   60.3290 C   0  0  0  0  0  0  0  0  0  0  0  0
  129.1630  132.3080   59.1360 C   0  0  0  0  0  0  0  0  0  0  0  0
  130.7092  131.1476   54.9628 H   0  0  0  0  0  0  0  0  0  0  0  0
  130.8917  132.4678   53.7585 H   0  0  0  0  0  0  0  0  0  0  0  0
  132.0406  131.0870   53.7585 H   0  0  0  0  0  0  0  0  0  0  0  0
  133.3781  132.1537   55.2438 H   0  0  0  0  0  0  0  0  0  0  0  0
  132.2969  133.5840   55.1421 H   0  0  0  0  0  0  0  0  0  0  0  0
  131.8616  130.4230   58.2308 H   0  0  0  0  0  0  0  0  0  0  0  0
  131.2784  129.2874   60.3612 H   0  0  0  0  0  0  0  0  0  0  0  0
  130.1910  129.6780   62.5060 H   0  0  0  0  0  0  0  0  0  0  0  0
  128.7163  126.8686   70.1861 H   0  0  0  0  0  0  0  0  0  0  0  0
  126.9974  127.0346   69.6919 H   0  0  0  0  0  0  0  0  0  0  0  0
  127.7797  125.4176   69.6919 H   0  0  0  0  0  0  0  0  0  0  0  0
  129.8845  125.1562   68.1053 H   0  0  0  0  0  0  0  0  0  0  0  0
  132.4229  126.6843   66.1788 H   0  0  0  0  0  0  0  0  0  0  0  0
  134.2413  125.2871   65.2016 H   0  0  0  0  0  0  0  0  0  0  0  0
  133.6807  123.1457   64.0615 H   0  0  0  0  0  0  0  0  0  0  0  0
  131.3138  122.3882   63.8937 H   0  0  0  0  0  0  0  0  0  0  0  0
  129.4937  123.7831   64.8717 H   0  0  0  0  0  0  0  0  0  0  0  0
  129.8550  126.5470   62.4180 H   0  0  0  0  0  0  0  0  0  0  0  0
  131.1300  127.2500   63.3370 H   0  0  0  0  0  0  0  0  0  0  0  0
  127.9787  132.0258   60.9219 H   0  0  0  0  0  0  0  0  0  0  0  0
  128.5625  133.1630   58.7920 H   0  0  0  0  0  0  0  0  0  0  0  0
  1  2  1  0
  2  3  1  0
  3  4  1  0
  4  5  2  0
  4  6  1  0
  6  7  2  0
  7  8  1  0
  8  9  2  0
  9 10  1  0
 10 11  1  0
 11 12  2  0
 11 13  1  0
 13 14  1  0
 14 15  1  0
 15 16  2  0
 16 17  1  0
 17 18  1  0
 17 19  2  0
 19 20  1  0
 20 21  1  0
 21 22  2  0
 22 23  1  0
 23 24  2  0
 24 25  1  0
 25 26  2  0
 20 27  2  0
 27 28  1  0
 28 29  1  0
  9 30  1  0
 30 31  2  0
 31  6  1  0
 28 13  2  0
 27 15  1  0
 26 21  1  0
  1 32  1  0
  1 33  1  0
  1 34  1  0
  2 35  1  0
  2 36  1  0
  7 37  1  0
  8 38  1  0
 10 39  1  0
 18 40  1  0
 18 41  1  0
 18 42  1  0
 19 43  1  0
 22 44  1  0
 23 45  1  0
 24 46  1  0
 25 47  1  0
 26 48  1  0
 29 49  1  0
 29 50  1  0
 30 51  1  0
 31 52  1  0
M  END
>  <Binding energies>  (1) 
[-8.52]

>  <Ligand effiencies>  (1) 
[-0.2505882352941176]

>  <Interactions>  (1) 
["V-A:PRO:540:CB:4885, V-B:GLU:543:CB:9878, V-B:GLY:544:C:9884, H-A:GLU:543:OE2:4910, V-B:HIS:456:CE1:9040, H-A:GLU:543:OE1:4909, V-A:PRO:540:CA:4883, V-A:GLU:543:CD:4908, V-A:ILE:538:CD1:4865, V-A:TYR:539:C:4867, V-A:TYR:531:CE2:4793, V-A:ARG:545:CZ:4926, V-A:PRO:540:N:4884, V-A:HIS:456:CE1:4069, V-A:LEU:475:CD1:4258, V-A:GLY:454:CA:4049, V-A:ILE:538:CA:4860, V-A:PRO:540:CD:4887, H-A:TYR:539:N:4870, V-A:ILE:538:CG2:4863, V-A:LEU:363:CD1:3189"]

$$$$
4eb_Grossjean_2025
     RDKit          3D

 49 52  0  0  0  0  0  0  0  0999 V2000
  129.9450  132.4700   54.9120 C   0  0  0  0  0  0  0  0  0  0  0  0
  130.1820  132.9130   56.2400 O   0  0  0  0  0  0  0  0  0  0  0  0
  131.1800  132.3760   56.9890 C   0  0  0  0  0  0  0  0  0  0  0  0
  132.3690  132.4050   56.6580 O   0  0  0  0  0  0  0  0  0  0  0  0
  130.6930  131.7420   58.2600 C   0  0  0  0  0  0  0  0  0  0  0  0
  131.3900  130.6470   58.7880 C   0  0  0  0  0  0  0  0  0  0  0  0
  130.9640  130.0380   59.9640 C   0  0  0  0  0  0  0  0  0  0  0  0
  129.8340  130.5070   60.6360 C   0  0  0  0  0  0  0  0  0  0  0  0
  129.4960  129.8140   61.8150 N   0  0  0  0  0  0  0  0  0  0  0  0
  128.2830  129.4840   62.3220 C   0  0  0  0  0  0  0  0  0  0  0  0
  127.2090  129.7630   61.7890 O   0  0  0  0  0  0  0  0  0  0  0  0
  128.3150  128.7500   63.5900 C   0  0  0  0  0  0  0  0  0  0  0  0
  127.2110  129.1800   64.8980 S   0  0  0  0  0  0  0  0  0  0  0  0
  127.8650  127.9260   65.9270 C   0  0  0  0  0  0  0  0  0  0  0  0
  127.4080  127.7190   67.1630 N   0  0  0  0  0  0  0  0  0  0  0  0
  127.9990  126.7170   67.8570 C   0  0  0  0  0  0  0  0  0  0  0  0
  127.4640  126.4990   69.2610 C   0  0  0  0  0  0  0  0  0  0  0  0
  129.0270  125.9240   67.3500 C   0  0  0  0  0  0  0  0  0  0  0  0
  129.5030  126.1450   66.0530 C   0  0  0  0  0  0  0  0  0  0  0  0
  130.5950  125.2940   65.5270 C   0  0  0  0  0  0  0  0  0  0  0  0
  130.3020  124.0670   64.9240 C   0  0  0  0  0  0  0  0  0  0  0  0
  131.3290  123.2670   64.4280 C   0  0  0  0  0  0  0  0  0  0  0  0
  132.6500  123.6940   64.5390 C   0  0  0  0  0  0  0  0  0  0  0  0
  132.9530  124.9140   65.1410 C   0  0  0  0  0  0  0  0  0  0  0  0
  131.9250  125.7120   65.6360 C   0  0  0  0  0  0  0  0  0  0  0  0
  128.9080  127.1880   65.2920 C   0  0  0  0  0  0  0  0  0  0  0  0
  129.1440  127.6790   63.9590 C   0  0  0  0  0  0  0  0  0  0  0  0
  130.0990  127.1360   63.1370 N   0  0  0  0  0  0  0  0  0  0  0  0
  129.1300  131.6030   60.1140 C   0  0  0  0  0  0  0  0  0  0  0  0
  129.5580  132.2110   58.9380 C   0  0  0  0  0  0  0  0  0  0  0  0
  129.4262  131.5003   54.9360 H   0  0  0  0  0  0  0  0  0  0  0  0
  129.3206  133.2069   54.3856 H   0  0  0  0  0  0  0  0  0  0  0  0
  130.9045  132.3596   54.3856 H   0  0  0  0  0  0  0  0  0  0  0  0
  132.2814  130.2658   58.2683 H   0  0  0  0  0  0  0  0  0  0  0  0
  131.5220  129.1802   60.3675 H   0  0  0  0  0  0  0  0  0  0  0  0
  130.2930  129.5200   62.3590 H   0  0  0  0  0  0  0  0  0  0  0  0
  128.2230  126.8083   69.9947 H   0  0  0  0  0  0  0  0  0  0  0  0
  126.5518  127.0971   69.4028 H   0  0  0  0  0  0  0  0  0  0  0  0
  127.2296  125.4337   69.4028 H   0  0  0  0  0  0  0  0  0  0  0  0
  129.4633  125.1258   67.9685 H   0  0  0  0  0  0  0  0  0  0  0  0
  129.2574  123.7324   64.8410 H   0  0  0  0  0  0  0  0  0  0  0  0
  131.0978  122.3031   63.9512 H   0  0  0  0  0  0  0  0  0  0  0  0
  133.4615  123.0627   64.1480 H   0  0  0  0  0  0  0  0  0  0  0  0
  133.9988  125.2447   65.2246 H   0  0  0  0  0  0  0  0  0  0  0  0
  132.1598  126.6743   66.1143 H   0  0  0  0  0  0  0  0  0  0  0  0
  131.0850  127.2480   63.3240 H   0  0  0  0  0  0  0  0  0  0  0  0
  129.8470  126.6040   62.3160 H   0  0  0  0  0  0  0  0  0  0  0  0
  128.2386  131.9819   60.6353 H   0  0  0  0  0  0  0  0  0  0  0  0
  129.0000  133.0692   58.5353 H   0  0  0  0  0  0  0  0  0  0  0  0
  1  2  1  0
  2  3  1  0
  3  4  2  0
  3  5  1  0
  5  6  2  0
  6  7  1  0
  7  8  2  0
  8  9  1  0
  9 10  1  0
 10 11  2  0
 10 12  1  0
 12 13  1  0
 13 14  1  0
 14 15  2  0
 15 16  1  0
 16 17  1  0
 16 18  2  0
 18 19  1  0
 19 20  1  0
 20 21  2  0
 21 22  1  0
 22 23  2  0
 23 24  1  0
 24 25  2  0
 19 26  2  0
 26 27  1  0
 27 28  1  0
  8 29  1  0
 29 30  2  0
 30  5  1  0
 27 12  2  0
 26 14  1  0
 25 20  1  0
  1 31  1  0
  1 32  1  0
  1 33  1  0
  6 34  1  0
  7 35  1  0
  9 36  1  0
 17 37  1  0
 17 38  1  0
 17 39  1  0
 18 40  1  0
 21 41  1  0
 22 42  1  0
 23 43  1  0
 24 44  1  0
 25 45  1  0
 28 46  1  0
 28 47  1  0
 29 48  1  0
 30 49  1  0
M  END
>  <Binding energies>  (1) 
[-8.26]

>  <Ligand effiencies>  (1) 
[-0.2503030303030303]

>  <Interactions>  (1) 
["V-A:PRO:540:CB:4885, V-B:GLU:543:C:9874, V-B:GLU:543:CB:9878, V-B:GLY:544:C:9884, H-A:GLU:543:OE2:4910, V-B:HIS:456:CE1:9040, H-A:GLU:543:OE1:4909, V-A:PRO:540:CA:4883, V-A:GLU:543:CD:4908, V-A:TYR:539:CD1:4873, V-A:TYR:539:CE1:4875, V-A:TYR:539:C:4867, V-A:ARG:545:CZ:4926, V-A:PRO:540:N:4884, V-A:HIS:456:CE1:4069, V-A:LEU:475:CD1:4258, V-A:GLY:454:CA:4049, V-A:PRO:540:CD:4887, H-A:TYR:539:N:4870"]

$$$$
8a_Ghoteimi_2023
     RDKit          3D

 67 71  0  0  0  0  0  0  0  0999 V2000
  131.3570  131.7640   54.3880 C   0  0  0  0  0  0  0  0  0  0  0  0
  132.1030  132.7780   55.2600 C   0  0  0  0  0  0  0  0  0  0  0  0
  131.7040  132.6180   56.6160 O   0  0  0  0  0  0  0  0  0  0  0  0
  130.3930  132.6650   56.9710 C   0  0  0  0  0  0  0  0  0  0  0  0
  129.5260  133.2280   56.2970 O   0  0  0  0  0  0  0  0  0  0  0  0
  130.1060  131.9680   58.2700 C   0  0  0  0  0  0  0  0  0  0  0  0
  130.9360  130.9170   58.6800 C   0  0  0  0  0  0  0  0  0  0  0  0
  130.6950  130.2500   59.8780 C   0  0  0  0  0  0  0  0  0  0  0  0
  129.6210  130.6180   60.6900 C   0  0  0  0  0  0  0  0  0  0  0  0
  129.4720  129.8700   61.8750 N   0  0  0  0  0  0  0  0  0  0  0  0
  128.3510  129.4890   62.5360 C   0  0  0  0  0  0  0  0  0  0  0  0
  127.2060  129.7620   62.1760 O   0  0  0  0  0  0  0  0  0  0  0  0
  128.5800  128.6980   63.7490 C   0  0  0  0  0  0  0  0  0  0  0  0
  127.7390  129.0980   65.2460 S   0  0  0  0  0  0  0  0  0  0  0  0
  128.5330  127.7930   66.0970 C   0  0  0  0  0  0  0  0  0  0  0  0
  128.3140  127.5650   67.3910 N   0  0  0  0  0  0  0  0  0  0  0  0
  128.9870  126.5280   67.9570 C   0  0  0  0  0  0  0  0  0  0  0  0
  128.7410  126.3040   69.4150 C   0  0  0  0  0  0  0  0  0  0  0  0
  127.8130  127.0820   70.1210 C   0  0  0  0  0  0  0  0  0  0  0  0
  127.5980  126.8760   71.4810 C   0  0  0  0  0  0  0  0  0  0  0  0
  128.3000  125.8870   72.1670 C   0  0  0  0  0  0  0  0  0  0  0  0
  128.0230  125.7560   73.5150 O   0  0  0  0  0  0  0  0  0  0  0  0
  126.9900  126.5490   74.0910 C   0  0  0  0  0  0  0  0  0  0  0  0
  129.2260  125.0990   71.4690 C   0  0  0  0  0  0  0  0  0  0  0  0
  129.4420  125.3100   70.1100 C   0  0  0  0  0  0  0  0  0  0  0  0
  129.8650  125.7230   67.2300 C   0  0  0  0  0  0  0  0  0  0  0  0
  130.0860  125.9480   65.8670 C   0  0  0  0  0  0  0  0  0  0  0  0
  131.0060  125.0420   65.1330 C   0  0  0  0  0  0  0  0  0  0  0  0
  132.3720  125.3240   65.0750 C   0  0  0  0  0  0  0  0  0  0  0  0
  133.2410  124.4660   64.4060 C   0  0  0  0  0  0  0  0  0  0  0  0
  132.7610  123.3110   63.7890 C   0  0  0  0  0  0  0  0  0  0  0  0
  133.6960  122.5190   63.1500 O   0  0  0  0  0  0  0  0  0  0  0  0
  134.2600  122.9660   61.9220 C   0  0  0  0  0  0  0  0  0  0  0  0
  131.3890  123.0210   63.8530 C   0  0  0  0  0  0  0  0  0  0  0  0
  130.5230  123.8800   64.5250 C   0  0  0  0  0  0  0  0  0  0  0  0
  129.4090  127.0420   65.2580 C   0  0  0  0  0  0  0  0  0  0  0  0
  129.4300  127.5940   63.9260 C   0  0  0  0  0  0  0  0  0  0  0  0
  130.2280  127.0870   62.9300 N   0  0  0  0  0  0  0  0  0  0  0  0
  128.7870  131.6720   60.2890 C   0  0  0  0  0  0  0  0  0  0  0  0
  129.0290  132.3380   59.0910 C   0  0  0  0  0  0  0  0  0  0  0  0
  130.8284  131.0455   55.0317 H   0  0  0  0  0  0  0  0  0  0  0  0
  130.6299  132.2913   53.7529 H   0  0  0  0  0  0  0  0  0  0  0  0
  132.0768  131.2268   53.7529 H   0  0  0  0  0  0  0  0  0  0  0  0
  133.1866  132.6094   55.1738 H   0  0  0  0  0  0  0  0  0  0  0  0
  131.8640  133.7979   54.9243 H   0  0  0  0  0  0  0  0  0  0  0  0
  131.7858  130.6159   58.0498 H   0  0  0  0  0  0  0  0  0  0  0  0
  131.3559  129.4268   60.1870 H   0  0  0  0  0  0  0  0  0  0  0  0
  130.3440  129.5660   62.2810 H   0  0  0  0  0  0  0  0  0  0  0  0
  127.2478  127.8648   69.5941 H   0  0  0  0  0  0  0  0  0  0  0  0
  126.8680  127.4991   72.0184 H   0  0  0  0  0  0  0  0  0  0  0  0
  127.0568  126.4977   75.1878 H   0  0  0  0  0  0  0  0  0  0  0  0
  127.1045  127.5933   73.7651 H   0  0  0  0  0  0  0  0  0  0  0  0
  126.0107  126.1685   73.7651 H   0  0  0  0  0  0  0  0  0  0  0  0
  129.7837  124.3114   71.9969 H   0  0  0  0  0  0  0  0  0  0  0  0
  130.1736  124.6873   69.5742 H   0  0  0  0  0  0  0  0  0  0  0  0
  130.3908  124.8998   67.7358 H   0  0  0  0  0  0  0  0  0  0  0  0
  132.7643  126.2296   65.5608 H   0  0  0  0  0  0  0  0  0  0  0  0
  134.3148  124.7011   64.3638 H   0  0  0  0  0  0  0  0  0  0  0  0
  135.1065  123.6369   62.1300 H   0  0  0  0  0  0  0  0  0  0  0  0
  134.6125  122.0994   61.3435 H   0  0  0  0  0  0  0  0  0  0  0  0
  133.4968  123.5072   61.3435 H   0  0  0  0  0  0  0  0  0  0  0  0
  130.9970  122.1131   63.3712 H   0  0  0  0  0  0  0  0  0  0  0  0
  129.4503  123.6420   64.5777 H   0  0  0  0  0  0  0  0  0  0  0  0
  129.8340  126.5950   62.1400 H   0  0  0  0  0  0  0  0  0  0  0  0
  131.2320  127.1910   62.9500 H   0  0  0  0  0  0  0  0  0  0  0  0
  127.9398  131.9730   60.9227 H   0  0  0  0  0  0  0  0  0  0  0  0
  128.3693  133.1631   58.7842 H   0  0  0  0  0  0  0  0  0  0  0  0
  1  2  1  0
  2  3  1  0
  3  4  1  0
  4  5  2  0
  4  6  1  0
  6  7  2  0
  7  8  1  0
  8  9  2  0
  9 10  1  0
 10 11  1  0
 11 12  2  0
 11 13  1  0
 13 14  1  0
 14 15  1  0
 15 16  2  0
 16 17  1  0
 17 18  1  0
 18 19  2  0
 19 20  1  0
 20 21  2  0
 21 22  1  0
 22 23  1  0
 21 24  1  0
 24 25  2  0
 17 26  2  0
 26 27  1  0
 27 28  1  0
 28 29  2  0
 29 30  1  0
 30 31  2  0
 31 32  1  0
 32 33  1  0
 31 34  1  0
 34 35  2  0
 27 36  2  0
 36 37  1  0
 37 38  1  0
  9 39  1  0
 39 40  2  0
 40  6  1  0
 37 13  2  0
 36 15  1  0
 25 18  1  0
 35 28  1  0
  1 41  1  0
  1 42  1  0
  1 43  1  0
  2 44  1  0
  2 45  1  0
  7 46  1  0
  8 47  1  0
 10 48  1  0
 19 49  1  0
 20 50  1  0
 23 51  1  0
 23 52  1  0
 23 53  1  0
 24 54  1  0
 25 55  1  0
 26 56  1  0
 29 57  1  0
 30 58  1  0
 33 59  1  0
 33 60  1  0
 33 61  1  0
 34 62  1  0
 35 63  1  0
 38 64  1  0
 38 65  1  0
 39 66  1  0
 40 67  1  0
M  END
>  <Binding energies>  (1) 
[-10.3]

>  <Ligand effiencies>  (1) 
[-0.23953488372093024]

>  <Interactions>  (1) 
["V-A:PRO:540:CB:4885, V-B:GLY:544:C:9884, H-A:GLU:543:OE2:4910, V-B:HIS:456:CE1:9040, H-A:GLU:543:OE1:4909, V-A:PRO:540:CA:4883, V-A:GLU:543:CD:4908, V-A:ILE:538:CD1:4865, V-A:TYR:539:C:4867, V-A:TYR:531:CE2:4793, V-A:PRO:540:N:4884, V-A:HIS:456:CE1:4069, V-A:LEU:475:CD1:4258, V-A:GLY:454:CA:4049, H-A:GLY:454:N:4050, V-A:ILE:538:CA:4860, V-A:ILE:369:CD1:3239, V-A:PRO:540:CD:4887, H-A:TYR:539:N:4870, V-A:ILE:538:CG2:4863, V-A:LEU:363:CD1:3189, V-A:HIS:456:CD2:4068, H-B:LYS:547:NZ:9923, V-A:TYR:539:CA:4869, V-B:LYS:547:CD:9921, V-B:LYS:547:CE:9922, V-A:ILE:538:CB:4862"]

$$$$
8b_Ghoteimi_2023
     RDKit          3D

 54 58  0  0  0  0  0  0  0  0999 V2000
  123.5380  131.7360   62.0140 C   0  0  0  0  0  0  0  0  0  0  0  0
  123.8810  131.9390   63.3810 O   0  0  0  0  0  0  0  0  0  0  0  0
  124.7250  131.0410   64.0050 C   0  0  0  0  0  0  0  0  0  0  0  0
  124.1690  130.2650   65.0200 C   0  0  0  0  0  0  0  0  0  0  0  0
  124.9430  129.3340   65.7050 C   0  0  0  0  0  0  0  0  0  0  0  0
  126.2990  129.1540   65.3910 C   0  0  0  0  0  0  0  0  0  0  0  0
  127.1370  128.1560   66.1250 C   0  0  0  0  0  0  0  0  0  0  0  0
  128.1320  127.4130   65.4800 C   0  0  0  0  0  0  0  0  0  0  0  0
  128.9020  126.4870   66.1890 C   0  0  0  0  0  0  0  0  0  0  0  0
  129.9410  125.7100   65.4750 C   0  0  0  0  0  0  0  0  0  0  0  0
  131.2760  125.7890   65.8730 C   0  0  0  0  0  0  0  0  0  0  0  0
  132.2500  125.0500   65.2070 C   0  0  0  0  0  0  0  0  0  0  0  0
  131.9060  124.2260   64.1340 C   0  0  0  0  0  0  0  0  0  0  0  0
  132.9380  123.5290   63.5350 O   0  0  0  0  0  0  0  0  0  0  0  0
  133.8290  124.2200   62.6660 C   0  0  0  0  0  0  0  0  0  0  0  0
  130.5630  124.1520   63.7330 C   0  0  0  0  0  0  0  0  0  0  0  0
  129.5900  124.8900   64.4010 C   0  0  0  0  0  0  0  0  0  0  0  0
  128.6490  126.3310   67.5790 C   0  0  0  0  0  0  0  0  0  0  0  0
  129.2400  125.4950   68.5910 C   0  0  0  0  0  0  0  0  0  0  0  0
  130.2620  124.6220   68.3170 N   0  0  0  0  0  0  0  0  0  0  0  0
  128.6760  125.6610   69.8650 C   0  0  0  0  0  0  0  0  0  0  0  0
  129.0320  124.9840   71.1140 C   0  0  0  0  0  0  0  0  0  0  0  0
  128.7940  125.5100   72.2050 O   0  0  0  0  0  0  0  0  0  0  0  0
  129.6270  123.7730   70.9710 N   0  0  0  0  0  0  0  0  0  0  0  0
  130.0610  122.9200   71.9760 C   0  0  0  0  0  0  0  0  0  0  0  0
  131.1770  123.1830   72.7690 C   0  0  0  0  0  0  0  0  0  0  0  0
  131.2690  122.1100   73.6260 C   0  0  0  0  0  0  0  0  0  0  0  0
  130.2590  121.2470   73.3660 O   0  0  0  0  0  0  0  0  0  0  0  0
  129.4980  121.7720   72.3190 N   0  0  0  0  0  0  0  0  0  0  0  0
  127.3910  126.8700   69.8410 S   0  0  0  0  0  0  0  0  0  0  0  0
  127.6160  127.1430   68.1290 C   0  0  0  0  0  0  0  0  0  0  0  0
  126.8790  128.0240   67.4540 N   0  0  0  0  0  0  0  0  0  0  0  0
  126.8510  129.9350   64.3670 C   0  0  0  0  0  0  0  0  0  0  0  0
  126.0790  130.8690   63.6800 C   0  0  0  0  0  0  0  0  0  0  0  0
  122.5929  131.1766   61.9523 H   0  0  0  0  0  0  0  0  0  0  0  0
  123.4206  132.7102   61.5168 H   0  0  0  0  0  0  0  0  0  0  0  0
  124.3355  131.1644   61.5168 H   0  0  0  0  0  0  0  0  0  0  0  0
  123.1080  130.3898   65.2821 H   0  0  0  0  0  0  0  0  0  0  0  0
  124.4862  128.7308   66.5034 H   0  0  0  0  0  0  0  0  0  0  0  0
  128.3098  127.5592   64.4044 H   0  0  0  0  0  0  0  0  0  0  0  0
  131.5597  126.4370   66.7154 H   0  0  0  0  0  0  0  0  0  0  0  0
  133.2997  125.1160   65.5291 H   0  0  0  0  0  0  0  0  0  0  0  0
  134.5588  124.7860   63.2636 H   0  0  0  0  0  0  0  0  0  0  0  0
  134.3588  123.4943   62.0315 H   0  0  0  0  0  0  0  0  0  0  0  0
  133.2579  124.9137   62.0315 H   0  0  0  0  0  0  0  0  0  0  0  0
  130.2783  123.5084   62.8876 H   0  0  0  0  0  0  0  0  0  0  0  0
  128.5394  124.8268   64.0811 H   0  0  0  0  0  0  0  0  0  0  0  0
  130.9180  124.3400   69.0320 H   0  0  0  0  0  0  0  0  0  0  0  0
  130.3960  124.2330   67.3940 H   0  0  0  0  0  0  0  0  0  0  0  0
  129.7720  123.4430   70.0290 H   0  0  0  0  0  0  0  0  0  0  0  0
  131.8407  124.0589   72.7203 H   0  0  0  0  0  0  0  0  0  0  0  0
  132.0401  121.9752   74.3988 H   0  0  0  0  0  0  0  0  0  0  0  0
  127.9109  129.8085   64.1014 H   0  0  0  0  0  0  0  0  0  0  0  0
  126.5322  131.4734   62.8804 H   0  0  0  0  0  0  0  0  0  0  0  0
  1  2  1  0
  2  3  1  0
  3  4  2  0
  4  5  1  0
  5  6  2  0
  6  7  1  0
  7  8  2  0
  8  9  1  0
  9 10  1  0
 10 11  2  0
 11 12  1  0
 12 13  2  0
 13 14  1  0
 14 15  1  0
 13 16  1  0
 16 17  2  0
  9 18  2  0
 18 19  1  0
 19 20  1  0
 19 21  2  0
 21 22  1  0
 22 23  2  0
 22 24  1  0
 24 25  1  0
 25 26  1  0
 26 27  2  0
 27 28  1  0
 28 29  1  0
 21 30  1  0
 30 31  1  0
 31 32  2  0
  6 33  1  0
 33 34  2  0
 34  3  1  0
 32  7  1  0
 17 10  1  0
 31 18  1  0
 29 25  2  0
  1 35  1  0
  1 36  1  0
  1 37  1  0
  4 38  1  0
  5 39  1  0
  8 40  1  0
 11 41  1  0
 12 42  1  0
 15 43  1  0
 15 44  1  0
 15 45  1  0
 16 46  1  0
 17 47  1  0
 20 48  1  0
 20 49  1  0
 24 50  1  0
 26 51  1  0
 27 52  1  0
 33 53  1  0
 34 54  1  0
M  END
>  <Binding energies>  (1) 
[-9.54]

>  <Ligand effiencies>  (1) 
[-0.2578378378378378]

>  <Interactions>  (1) 
["V-B:ARG:545:CD:9895, V-B:GLU:543:C:9874, V-B:GLU:543:CB:9878, V-B:GLY:544:C:9884, V-B:HIS:456:CE1:9040, V-B:GLU:543:CD:9880, V-A:GLU:543:CD:4908, V-B:ILE:369:CD1:8210, V-B:ARG:545:CZ:9898, V-B:GLY:454:CA:9020, H-A:TYR:484:OH:4348, V-A:HIS:456:CE1:4069, V-B:GLU:543:CG:9879, V-A:TYR:484:CE1:4345, V-A:TYR:484:CZ:4347, H-A:GLY:454:N:4050, H-B:GLY:454:N:9021, V-A:HIS:456:CG:4066, V-A:HIS:456:CD2:4068, V-A:HIS:456:CB:4065, V-A:ASP:473:CB:4239, V-A:ASP:473:CG:4240, H-B:LYS:547:NZ:9923, V-A:TYR:484:CD2:4344, V-A:TYR:484:CD1:4343, V-A:TYR:484:CG:4342, H-B:GLU:543:O:9875, H-A:HIS:456:ND1:4067"]

$$$$
8c_Ghoteimi_2023
     RDKit          3D

 54 58  0  0  0  0  0  0  0  0999 V2000
  123.5830  131.6360   62.0070 C   0  0  0  0  0  0  0  0  0  0  0  0
  123.8680  131.8950   63.3770 O   0  0  0  0  0  0  0  0  0  0  0  0
  124.5900  130.9660   64.1030 C   0  0  0  0  0  0  0  0  0  0  0  0
  125.9070  130.7500   63.7020 C   0  0  0  0  0  0  0  0  0  0  0  0
  126.7080  129.8310   64.3730 C   0  0  0  0  0  0  0  0  0  0  0  0
  126.2110  129.1020   65.4640 C   0  0  0  0  0  0  0  0  0  0  0  0
  127.0660  128.1100   66.1860 C   0  0  0  0  0  0  0  0  0  0  0  0
  128.0740  127.3930   65.5350 C   0  0  0  0  0  0  0  0  0  0  0  0
  128.8610  126.4720   66.2350 C   0  0  0  0  0  0  0  0  0  0  0  0
  129.9150  125.7220   65.5140 C   0  0  0  0  0  0  0  0  0  0  0  0
  131.2480  125.8120   65.9230 C   0  0  0  0  0  0  0  0  0  0  0  0
  132.2350  125.0990   65.2500 C   0  0  0  0  0  0  0  0  0  0  0  0
  131.9090  124.2910   64.1600 C   0  0  0  0  0  0  0  0  0  0  0  0
  132.9530  123.6180   63.5550 O   0  0  0  0  0  0  0  0  0  0  0  0
  133.6630  124.2470   62.4940 C   0  0  0  0  0  0  0  0  0  0  0  0
  130.5690  124.2050   63.7480 C   0  0  0  0  0  0  0  0  0  0  0  0
  129.5820  124.9180   64.4220 C   0  0  0  0  0  0  0  0  0  0  0  0
  128.6090  126.2950   67.6220 C   0  0  0  0  0  0  0  0  0  0  0  0
  129.2120  125.4570   68.6240 C   0  0  0  0  0  0  0  0  0  0  0  0
  130.2490  124.6040   68.3420 N   0  0  0  0  0  0  0  0  0  0  0  0
  128.6440  125.5980   69.9000 C   0  0  0  0  0  0  0  0  0  0  0  0
  129.0080  124.9120   71.1420 C   0  0  0  0  0  0  0  0  0  0  0  0
  128.9000  125.4790   72.2310 O   0  0  0  0  0  0  0  0  0  0  0  0
  129.4620  123.6420   70.9930 N   0  0  0  0  0  0  0  0  0  0  0  0
  129.8680  122.7780   71.9990 C   0  0  0  0  0  0  0  0  0  0  0  0
  129.3600  121.6050   72.3100 N   0  0  0  0  0  0  0  0  0  0  0  0
  129.9980  121.0540   73.3240 C   0  0  0  0  0  0  0  0  0  0  0  0
  131.0510  121.7870   73.8600 C   0  0  0  0  0  0  0  0  0  0  0  0
  131.2060  123.2800   72.9820 S   0  0  0  0  0  0  0  0  0  0  0  0
  127.3390  126.7860   69.8890 S   0  0  0  0  0  0  0  0  0  0  0  0
  127.5610  127.0830   68.1810 C   0  0  0  0  0  0  0  0  0  0  0  0
  126.8090  127.9590   67.5140 N   0  0  0  0  0  0  0  0  0  0  0  0
  124.8870  129.3270   65.8620 C   0  0  0  0  0  0  0  0  0  0  0  0
  124.0830  130.2450   65.1930 C   0  0  0  0  0  0  0  0  0  0  0  0
  122.7707  130.8978   61.9347 H   0  0  0  0  0  0  0  0  0  0  0  0
  123.2750  132.5697   61.5137 H   0  0  0  0  0  0  0  0  0  0  0  0
  124.4830  131.2403   61.5137 H   0  0  0  0  0  0  0  0  0  0  0  0
  126.3165  131.3102   62.8485 H   0  0  0  0  0  0  0  0  0  0  0  0
  127.7456  129.6738   64.0434 H   0  0  0  0  0  0  0  0  0  0  0  0
  128.2503  127.5545   64.4613 H   0  0  0  0  0  0  0  0  0  0  0  0
  131.5176  126.4480   66.7790 H   0  0  0  0  0  0  0  0  0  0  0  0
  133.2817  125.1728   65.5800 H   0  0  0  0  0  0  0  0  0  0  0  0
  134.4246  124.9218   62.9119 H   0  0  0  0  0  0  0  0  0  0  0  0
  134.1521  123.4804   61.8750 H   0  0  0  0  0  0  0  0  0  0  0  0
  132.9610  124.8250   61.8750 H   0  0  0  0  0  0  0  0  0  0  0  0
  130.2988  123.5721   62.8899 H   0  0  0  0  0  0  0  0  0  0  0  0
  128.5347  124.8479   64.0930 H   0  0  0  0  0  0  0  0  0  0  0  0
  130.8940  124.3030   69.0600 H   0  0  0  0  0  0  0  0  0  0  0  0
  130.4050  124.2480   67.4100 H   0  0  0  0  0  0  0  0  0  0  0  0
  129.5080  123.2750   70.0530 H   0  0  0  0  0  0  0  0  0  0  0  0
  129.7131  120.0695   73.7235 H   0  0  0  0  0  0  0  0  0  0  0  0
  131.6838  121.4731   74.7032 H   0  0  0  0  0  0  0  0  0  0  0  0
  124.4764  128.7694   66.7167 H   0  0  0  0  0  0  0  0  0  0  0  0
  123.0453  130.4055   65.5209 H   0  0  0  0  0  0  0  0  0  0  0  0
  1  2  1  0
  2  3  1  0
  3  4  2  0
  4  5  1  0
  5  6  2  0
  6  7  1  0
  7  8  2  0
  8  9  1  0
  9 10  1  0
 10 11  2  0
 11 12  1  0
 12 13  2  0
 13 14  1  0
 14 15  1  0
 13 16  1  0
 16 17  2  0
  9 18  2  0
 18 19  1  0
 19 20  1  0
 19 21  2  0
 21 22  1  0
 22 23  2  0
 22 24  1  0
 24 25  1  0
 25 26  2  0
 26 27  1  0
 27 28  2  0
 28 29  1  0
 21 30  1  0
 30 31  1  0
 31 32  2  0
  6 33  1  0
 33 34  2  0
 34  3  1  0
 32  7  1  0
 17 10  1  0
 31 18  1  0
 29 25  1  0
  1 35  1  0
  1 36  1  0
  1 37  1  0
  4 38  1  0
  5 39  1  0
  8 40  1  0
 11 41  1  0
 12 42  1  0
 15 43  1  0
 15 44  1  0
 15 45  1  0
 16 46  1  0
 17 47  1  0
 20 48  1  0
 20 49  1  0
 24 50  1  0
 27 51  1  0
 28 52  1  0
 33 53  1  0
 34 54  1  0
M  END
>  <Binding energies>  (1) 
[-9.25]

>  <Ligand effiencies>  (1) 
[-0.25]

>  <Interactions>  (1) 
["V-B:ARG:545:CD:9895, V-B:GLU:543:C:9874, V-B:GLU:543:CB:9878, V-B:GLY:544:C:9884, V-B:HIS:456:CE1:9040, V-B:GLU:543:CD:9880, V-B:ARG:545:CG:9894, V-A:GLU:543:CD:4908, V-B:ILE:369:CD1:8210, V-B:ARG:545:CZ:9898, V-B:GLY:454:CA:9020, H-A:TYR:484:OH:4348, V-A:HIS:456:CE1:4069, V-B:GLU:543:CG:9879, V-A:TYR:484:CE1:4345, V-A:TYR:484:CZ:4347, H-A:GLY:454:N:4050, H-B:GLY:454:N:9021, V-A:HIS:456:CG:4066, V-A:HIS:456:CB:4065, V-A:ASP:473:CB:4239, V-A:ASP:473:CG:4240, H-B:LYS:547:NZ:9923, V-A:TYR:484:CD2:4344, V-A:TYR:484:CD1:4343, V-A:TYR:484:CG:4342, V-A:TYR:484:CB:4341, V-A:TYR:484:CE2:4346, V-B:LYS:547:CE:9922, H-B:GLU:543:O:9875, H-A:HIS:456:ND1:4067"]

$$$$
8d_Ghoteimi_2023
     RDKit          3D

 50 53  0  0  0  0  0  0  0  0999 V2000
  130.8170  123.4910   72.0910 C   0  0  0  0  0  0  0  0  0  0  0  0
  129.4960  123.7510   71.6340 O   0  0  0  0  0  0  0  0  0  0  0  0
  128.9490  124.9890   71.7550 C   0  0  0  0  0  0  0  0  0  0  0  0
  128.7600  125.5570   72.8330 O   0  0  0  0  0  0  0  0  0  0  0  0
  128.5990  125.5930   70.4510 C   0  0  0  0  0  0  0  0  0  0  0  0
  127.2640  126.7420   70.3430 S   0  0  0  0  0  0  0  0  0  0  0  0
  127.5160  126.9340   68.6240 C   0  0  0  0  0  0  0  0  0  0  0  0
  126.7570  127.7460   67.8880 N   0  0  0  0  0  0  0  0  0  0  0  0
  127.0400  127.8230   66.5600 C   0  0  0  0  0  0  0  0  0  0  0  0
  126.1700  128.7370   65.7560 C   0  0  0  0  0  0  0  0  0  0  0  0
  126.5660  129.1840   64.4870 C   0  0  0  0  0  0  0  0  0  0  0  0
  125.7530  130.0350   63.7440 C   0  0  0  0  0  0  0  0  0  0  0  0
  124.5250  130.4620   64.2480 C   0  0  0  0  0  0  0  0  0  0  0  0
  123.7860  131.3040   63.4420 O   0  0  0  0  0  0  0  0  0  0  0  0
  123.7660  131.0800   62.0360 C   0  0  0  0  0  0  0  0  0  0  0  0
  124.1190  130.0200   65.5150 C   0  0  0  0  0  0  0  0  0  0  0  0
  124.9350  129.1680   66.2550 C   0  0  0  0  0  0  0  0  0  0  0  0
  128.0720  127.0860   65.9730 C   0  0  0  0  0  0  0  0  0  0  0  0
  128.8710  126.2370   66.7460 C   0  0  0  0  0  0  0  0  0  0  0  0
  129.9630  125.4750   66.0960 C   0  0  0  0  0  0  0  0  0  0  0  0
  131.2640  125.9820   66.0880 C   0  0  0  0  0  0  0  0  0  0  0  0
  132.2890  125.2710   65.4700 C   0  0  0  0  0  0  0  0  0  0  0  0
  132.0310  124.0440   64.8560 C   0  0  0  0  0  0  0  0  0  0  0  0
  133.1070  123.4110   64.2680 O   0  0  0  0  0  0  0  0  0  0  0  0
  133.4430  123.7200   62.9200 C   0  0  0  0  0  0  0  0  0  0  0  0
  130.7210  123.5350   64.8690 C   0  0  0  0  0  0  0  0  0  0  0  0
  129.6980  124.2480   65.4870 C   0  0  0  0  0  0  0  0  0  0  0  0
  128.5950  126.1430   68.1350 C   0  0  0  0  0  0  0  0  0  0  0  0
  129.1940  125.3870   69.2010 C   0  0  0  0  0  0  0  0  0  0  0  0
  130.2520  124.5380   69.0000 N   0  0  0  0  0  0  0  0  0  0  0  0
  130.8306  123.4883   73.1909 H   0  0  0  0  0  0  0  0  0  0  0  0
  131.1478  122.5105   71.7178 H   0  0  0  0  0  0  0  0  0  0  0  0
  131.4947  124.2730   71.7178 H   0  0  0  0  0  0  0  0  0  0  0  0
  127.5317  128.8578   64.0735 H   0  0  0  0  0  0  0  0  0  0  0  0
  126.0821  130.3737   62.7505 H   0  0  0  0  0  0  0  0  0  0  0  0
  123.6698  130.0023   61.8377 H   0  0  0  0  0  0  0  0  0  0  0  0
  122.9118  131.6122   61.5920 H   0  0  0  0  0  0  0  0  0  0  0  0
  124.7010  131.4525   61.5920 H   0  0  0  0  0  0  0  0  0  0  0  0
  123.1526  130.3473   65.9260 H   0  0  0  0  0  0  0  0  0  0  0  0
  124.6039  128.8282   67.2474 H   0  0  0  0  0  0  0  0  0  0  0  0
  128.2579  127.1744   64.8924 H   0  0  0  0  0  0  0  0  0  0  0  0
  131.4797  126.9462   66.5715 H   0  0  0  0  0  0  0  0  0  0  0  0
  133.3104  125.6793   65.4654 H   0  0  0  0  0  0  0  0  0  0  0  0
  134.2526  124.4645   62.9054 H   0  0  0  0  0  0  0  0  0  0  0  0
  133.7760  122.8061   62.4064 H   0  0  0  0  0  0  0  0  0  0  0  0
  132.5601  124.1282   62.4064 H   0  0  0  0  0  0  0  0  0  0  0  0
  130.5035  122.5695   64.3889 H   0  0  0  0  0  0  0  0  0  0  0  0
  128.6756  123.8422   65.4954 H   0  0  0  0  0  0  0  0  0  0  0  0
  130.8240  124.5940   68.1680 H   0  0  0  0  0  0  0  0  0  0  0  0
  130.5010  123.8300   69.6760 H   0  0  0  0  0  0  0  0  0  0  0  0
  1  2  1  0
  2  3  1  0
  3  4  2  0
  3  5  1  0
  5  6  1  0
  6  7  1  0
  7  8  2  0
  8  9  1  0
  9 10  1  0
 10 11  2  0
 11 12  1  0
 12 13  2  0
 13 14  1  0
 14 15  1  0
 13 16  1  0
 16 17  2  0
  9 18  2  0
 18 19  1  0
 19 20  1  0
 20 21  2  0
 21 22  1  0
 22 23  2  0
 23 24  1  0
 24 25  1  0
 23 26  1  0
 26 27  2  0
 19 28  2  0
 28 29  1  0
 29 30  1  0
 29  5  2  0
 28  7  1  0
 17 10  1  0
 27 20  1  0
  1 31  1  0
  1 32  1  0
  1 33  1  0
 11 34  1  0
 12 35  1  0
 15 36  1  0
 15 37  1  0
 15 38  1  0
 16 39  1  0
 17 40  1  0
 18 41  1  0
 21 42  1  0
 22 43  1  0
 25 44  1  0
 25 45  1  0
 25 46  1  0
 26 47  1  0
 27 48  1  0
 30 49  1  0
 30 50  1  0
M  END
>  <Binding energies>  (1) 
[-7.99]

>  <Ligand effiencies>  (1) 
[-0.2496875]

>  <Interactions>  (1) 
["V-B:ARG:545:CD:9895, V-B:GLU:543:C:9874, V-B:GLU:543:CB:9878, V-B:GLY:544:C:9884, V-B:HIS:456:CE1:9040, V-B:GLU:543:CD:9880, V-B:ARG:545:CG:9894, V-A:GLU:543:CD:4908, V-B:ILE:369:CD1:8210, V-B:ARG:545:CZ:9898, V-B:GLY:454:CA:9020, H-A:TYR:484:OH:4348, V-A:HIS:456:CE1:4069, V-B:GLU:543:CG:9879, V-A:TYR:484:CE1:4345, V-A:GLY:454:CA:4049, V-A:TYR:484:CZ:4347, H-A:GLY:454:N:4050, H-B:GLY:454:N:9021, V-A:HIS:456:CG:4066, V-A:HIS:456:CD2:4068, V-A:HIS:456:CB:4065, H-B:LYS:547:NZ:9923, V-B:GLU:543:CA:9876, V-A:TYR:484:CD2:4344, V-A:TYR:484:CD1:4343, V-A:TYR:484:CG:4342, V-A:TYR:484:CE2:4346, H-B:GLU:543:O:9875, H-A:HIS:456:ND1:4067"]

$$$$
9a_Ghoteimi_2023
     RDKit          3D

 85 91  0  0  0  0  0  0  0  0999 V2000
  130.7440  131.5570   53.9850 C   0  0  0  0  0  0  0  0  0  0  0  0
  129.8470  132.7670   54.2660 C   0  0  0  0  0  0  0  0  0  0  0  0
  129.6700  132.9090   55.6710 O   0  0  0  0  0  0  0  0  0  0  0  0
  130.7240  132.8180   56.5220 C   0  0  0  0  0  0  0  0  0  0  0  0
  131.8540  133.2380   56.2540 O   0  0  0  0  0  0  0  0  0  0  0  0
  130.3810  132.1490   57.8220 C   0  0  0  0  0  0  0  0  0  0  0  0
  131.2060  131.1240   58.3040 C   0  0  0  0  0  0  0  0  0  0  0  0
  130.9140  130.4840   59.5040 C   0  0  0  0  0  0  0  0  0  0  0  0
  129.7940  130.8530   60.2490 C   0  0  0  0  0  0  0  0  0  0  0  0
  129.5980  130.1360   61.4460 N   0  0  0  0  0  0  0  0  0  0  0  0
  128.4530  129.8130   62.0980 C   0  0  0  0  0  0  0  0  0  0  0  0
  127.3260  130.1200   61.7110 O   0  0  0  0  0  0  0  0  0  0  0  0
  128.6330  129.0430   63.3330 C   0  0  0  0  0  0  0  0  0  0  0  0
  128.3110  129.7850   64.9000 S   0  0  0  0  0  0  0  0  0  0  0  0
  128.7240  128.3060   65.7360 C   0  0  0  0  0  0  0  0  0  0  0  0
  128.6540  128.2110   67.0630 N   0  0  0  0  0  0  0  0  0  0  0  0
  128.9850  127.0130   67.6140 C   0  0  0  0  0  0  0  0  0  0  0  0
  128.8890  126.9260   69.1030 C   0  0  0  0  0  0  0  0  0  0  0  0
  128.4100  125.7640   69.7180 C   0  0  0  0  0  0  0  0  0  0  0  0
  128.3190  125.6740   71.1040 C   0  0  0  0  0  0  0  0  0  0  0  0
  128.7160  126.7390   71.9290 C   0  0  0  0  0  0  0  0  0  0  0  0
  128.6110  126.6700   73.3220 N   0  0  0  0  0  0  0  0  0  0  0  0
  129.7990  126.4680   74.1760 C   0  0  0  0  0  0  0  0  0  0  0  0
  129.4620  126.0590   75.6250 C   0  0  0  0  0  0  0  0  0  0  0  0
  128.5750  127.0020   76.2030 O   0  0  0  0  0  0  0  0  0  0  0  0
  127.3570  127.0820   75.4780 C   0  0  0  0  0  0  0  0  0  0  0  0
  127.6360  127.5270   74.0280 C   0  0  0  0  0  0  0  0  0  0  0  0
  129.1810  127.9060   71.3060 C   0  0  0  0  0  0  0  0  0  0  0  0
  129.2700  127.9970   69.9210 C   0  0  0  0  0  0  0  0  0  0  0  0
  129.4100  125.9290   66.8420 C   0  0  0  0  0  0  0  0  0  0  0  0
  129.5030  126.0320   65.4500 C   0  0  0  0  0  0  0  0  0  0  0  0
  129.9950  124.8600   64.6800 C   0  0  0  0  0  0  0  0  0  0  0  0
  131.3020  124.3950   64.8490 C   0  0  0  0  0  0  0  0  0  0  0  0
  131.7560  123.2890   64.1370 C   0  0  0  0  0  0  0  0  0  0  0  0
  130.9090  122.6060   63.2490 C   0  0  0  0  0  0  0  0  0  0  0  0
  131.3460  121.5000   62.5160 N   0  0  0  0  0  0  0  0  0  0  0  0
  132.5370  121.6340   61.6520 C   0  0  0  0  0  0  0  0  0  0  0  0
  133.1260  120.2780   61.2100 C   0  0  0  0  0  0  0  0  0  0  0  0
  132.1260  119.4970   60.5760 O   0  0  0  0  0  0  0  0  0  0  0  0
  131.0350  119.2360   61.4440 C   0  0  0  0  0  0  0  0  0  0  0  0
  130.3890  120.5650   61.8930 C   0  0  0  0  0  0  0  0  0  0  0  0
  129.5990  123.0800   63.0900 C   0  0  0  0  0  0  0  0  0  0  0  0
  129.1460  124.1880   63.7980 C   0  0  0  0  0  0  0  0  0  0  0  0
  129.1270  127.2660   64.8480 C   0  0  0  0  0  0  0  0  0  0  0  0
  129.0420  127.7080   63.4780 C   0  0  0  0  0  0  0  0  0  0  0  0
  129.3240  126.8840   62.4180 N   0  0  0  0  0  0  0  0  0  0  0  0
  128.9630  131.8810   59.7770 C   0  0  0  0  0  0  0  0  0  0  0  0
  129.2560  132.5200   58.5750 C   0  0  0  0  0  0  0  0  0  0  0  0
  131.0719  131.1147   54.9373 H   0  0  0  0  0  0  0  0  0  0  0  0
  130.1805  130.8090   53.4080 H   0  0  0  0  0  0  0  0  0  0  0  0
  131.6235  131.8787   53.4080 H   0  0  0  0  0  0  0  0  0  0  0  0
  130.3186  133.6750   53.8620 H   0  0  0  0  0  0  0  0  0  0  0  0
  128.8686  132.6180   53.7859 H   0  0  0  0  0  0  0  0  0  0  0  0
  132.0932  130.8225   57.7278 H   0  0  0  0  0  0  0  0  0  0  0  0
  131.5714  129.6807   59.8682 H   0  0  0  0  0  0  0  0  0  0  0  0
  130.4520  129.8150   61.8760 H   0  0  0  0  0  0  0  0  0  0  0  0
  128.1011  124.9098   69.0976 H   0  0  0  0  0  0  0  0  0  0  0  0
  127.9293  124.7525   71.5612 H   0  0  0  0  0  0  0  0  0  0  0  0
  130.4181  125.6771   73.7275 H   0  0  0  0  0  0  0  0  0  0  0  0
  130.3232  127.4336   74.2293 H   0  0  0  0  0  0  0  0  0  0  0  0
  128.9870  125.0669   75.6220 H   0  0  0  0  0  0  0  0  0  0  0  0
  130.3895  126.0278   76.2155 H   0  0  0  0  0  0  0  0  0  0  0  0
  126.8724  126.0945   75.4694 H   0  0  0  0  0  0  0  0  0  0  0  0
  126.6963  127.8169   75.9610 H   0  0  0  0  0  0  0  0  0  0  0  0
  126.6882  127.5075   73.4701 H   0  0  0  0  0  0  0  0  0  0  0  0
  128.0716  128.5358   74.0790 H   0  0  0  0  0  0  0  0  0  0  0  0
  129.4809  128.7652   71.9240 H   0  0  0  0  0  0  0  0  0  0  0  0
  129.6450  128.9234   69.4615 H   0  0  0  0  0  0  0  0  0  0  0  0
  129.6750  124.9821   67.3351 H   0  0  0  0  0  0  0  0  0  0  0  0
  131.9771  124.9073   65.5503 H   0  0  0  0  0  0  0  0  0  0  0  0
  132.7922  122.9450   64.2715 H   0  0  0  0  0  0  0  0  0  0  0  0
  132.2542  122.2015   60.7531 H   0  0  0  0  0  0  0  0  0  0  0  0
  133.3105  122.1488   62.2409 H   0  0  0  0  0  0  0  0  0  0  0  0
  133.9527  120.4524   60.5057 H   0  0  0  0  0  0  0  0  0  0  0  0
  133.4964  119.7401   62.0951 H   0  0  0  0  0  0  0  0  0  0  0  0
  130.2865  118.6271   60.9157 H   0  0  0  0  0  0  0  0  0  0  0  0
  131.3989  118.6937   62.3291 H   0  0  0  0  0  0  0  0  0  0  0  0
  129.9475  121.0534   61.0118 H   0  0  0  0  0  0  0  0  0  0  0  0
  129.6334  120.3185   62.6535 H   0  0  0  0  0  0  0  0  0  0  0  0
  128.9187  122.5673   62.3941 H   0  0  0  0  0  0  0  0  0  0  0  0
  128.1118  124.5375   63.6623 H   0  0  0  0  0  0  0  0  0  0  0  0
  128.6550  126.2090   62.0760 H   0  0  0  0  0  0  0  0  0  0  0  0
  130.2150  126.9250   61.9430 H   0  0  0  0  0  0  0  0  0  0  0  0
  128.0787  132.1824   60.3577 H   0  0  0  0  0  0  0  0  0  0  0  0
  128.5990  133.3240   58.2118 H   0  0  0  0  0  0  0  0  0  0  0  0
  1  2  1  0
  2  3  1  0
  3  4  1  0
  4  5  2  0
  4  6  1  0
  6  7  2  0
  7  8  1  0
  8  9  2  0
  9 10  1  0
 10 11  1  0
 11 12  2  0
 11 13  1  0
 13 14  1  0
 14 15  1  0
 15 16  2  0
 16 17  1  0
 17 18  1  0
 18 19  2  0
 19 20  1  0
 20 21  2  0
 21 22  1  0
 22 23  1  0
 23 24  1  0
 24 25  1  0
 25 26  1  0
 26 27  1  0
 21 28  1  0
 28 29  2  0
 17 30  2  0
 30 31  1  0
 31 32  1  0
 32 33  2  0
 33 34  1  0
 34 35  2  0
 35 36  1  0
 36 37  1  0
 37 38  1  0
 38 39  1  0
 39 40  1  0
 40 41  1  0
 35 42  1  0
 42 43  2  0
 31 44  2  0
 44 45  1  0
 45 46  1  0
  9 47  1  0
 47 48  2  0
 48  6  1  0
 45 13  2  0
 44 15  1  0
 29 18  1  0
 43 32  1  0
 27 22  1  0
 41 36  1  0
  1 49  1  0
  1 50  1  0
  1 51  1  0
  2 52  1  0
  2 53  1  0
  7 54  1  0
  8 55  1  0
 10 56  1  0
 19 57  1  0
 20 58  1  0
 23 59  1  0
 23 60  1  0
 24 61  1  0
 24 62  1  0
 26 63  1  0
 26 64  1  0
 27 65  1  0
 27 66  1  0
 28 67  1  0
 29 68  1  0
 30 69  1  0
 33 70  1  0
 34 71  1  0
 37 72  1  0
 37 73  1  0
 38 74  1  0
 38 75  1  0
 40 76  1  0
 40 77  1  0
 41 78  1  0
 41 79  1  0
 42 80  1  0
 43 81  1  0
 46 82  1  0
 46 83  1  0
 47 84  1  0
 48 85  1  0
M  END
>  <Binding energies>  (1) 
[-10.79]

>  <Ligand effiencies>  (1) 
[-0.21156862745098037]

>  <Interactions>  (1) 
["V-A:PRO:540:CB:4885, V-B:GLU:543:C:9874, V-B:GLU:543:CB:9878, V-B:GLY:544:C:9884, V-B:HIS:456:CE1:9040, H-A:GLU:543:OE1:4909, V-A:PRO:540:CA:4883, V-B:GLU:543:CD:9880, V-A:GLU:543:CD:4908, V-A:TYR:539:CD1:4873, V-A:TYR:539:CD2:4874, V-A:ILE:538:CD1:4865, V-A:TYR:539:CE1:4875, V-A:TYR:539:C:4867, V-A:GLU:543:CG:4907, V-A:TYR:531:CE2:4793, V-A:PRO:540:N:4884, H-B:GLU:543:OE2:9882, V-B:ALA:541:CB:9864, V-A:HIS:456:CE1:4069, V-B:GLU:543:CG:9879, V-A:LEU:475:CD1:4258, V-A:ILE:538:CA:4860, V-A:ILE:369:CD1:3239, V-A:PRO:540:CD:4887, H-A:TYR:539:N:4870, V-A:HIS:456:CD2:4068, H-A:LYS:547:NZ:4951, V-B:HIS:456:CD2:9039, V-A:GLU:543:CB:4906, V-A:TYR:539:CA:4869, V-A:PRO:482:CB:4326, V-A:PRO:482:CG:4327, V-A:TRP:381:CZ2:3370, V-A:TRP:381:CH2:3372"]

$$$$
9b_Ghoteimi_2023
     RDKit          3D

 72 78  0  0  0  0  0  0  0  0999 V2000
  129.3480  127.1210   63.2880 N   0  0  0  0  0  0  0  0  0  0  0  0
  128.9160  127.7460   64.4300 C   0  0  0  0  0  0  0  0  0  0  0  0
  128.3260  129.0200   64.4380 C   0  0  0  0  0  0  0  0  0  0  0  0
  128.0350  129.8990   63.3030 C   0  0  0  0  0  0  0  0  0  0  0  0
  127.0590  129.6890   62.5800 O   0  0  0  0  0  0  0  0  0  0  0  0
  128.9050  130.9240   63.1220 N   0  0  0  0  0  0  0  0  0  0  0  0
  128.8750  131.8940   62.1270 C   0  0  0  0  0  0  0  0  0  0  0  0
  127.7380  132.6400   61.8260 C   0  0  0  0  0  0  0  0  0  0  0  0
  128.1200  133.4770   60.8020 C   0  0  0  0  0  0  0  0  0  0  0  0
  129.4210  133.2450   60.5040 O   0  0  0  0  0  0  0  0  0  0  0  0
  129.8880  132.2400   61.3500 N   0  0  0  0  0  0  0  0  0  0  0  0
  127.9240  129.5250   66.0790 S   0  0  0  0  0  0  0  0  0  0  0  0
  128.5630  128.0400   66.7420 C   0  0  0  0  0  0  0  0  0  0  0  0
  128.5740  127.8090   68.0540 N   0  0  0  0  0  0  0  0  0  0  0  0
  129.1100  126.6310   68.4680 C   0  0  0  0  0  0  0  0  0  0  0  0
  129.1290  126.4050   69.9450 C   0  0  0  0  0  0  0  0  0  0  0  0
  128.8250  127.4390   70.8390 C   0  0  0  0  0  0  0  0  0  0  0  0
  128.8590  127.2280   72.2140 C   0  0  0  0  0  0  0  0  0  0  0  0
  129.2120  125.9780   72.7460 C   0  0  0  0  0  0  0  0  0  0  0  0
  129.2470  125.7490   74.1270 N   0  0  0  0  0  0  0  0  0  0  0  0
  128.4410  126.5600   75.0610 C   0  0  0  0  0  0  0  0  0  0  0  0
  128.3340  125.9560   76.4770 C   0  0  0  0  0  0  0  0  0  0  0  0
  129.6290  125.7160   77.0010 O   0  0  0  0  0  0  0  0  0  0  0  0
  130.3550  124.8010   76.1970 C   0  0  0  0  0  0  0  0  0  0  0  0
  130.5220  125.3650   74.7690 C   0  0  0  0  0  0  0  0  0  0  0  0
  129.4950  124.9410   71.8460 C   0  0  0  0  0  0  0  0  0  0  0  0
  129.4570  125.1520   70.4710 C   0  0  0  0  0  0  0  0  0  0  0  0
  129.6050  125.6800   67.5720 C   0  0  0  0  0  0  0  0  0  0  0  0
  129.5770  125.9100   66.1910 C   0  0  0  0  0  0  0  0  0  0  0  0
  130.0880  124.8550   65.2790 C   0  0  0  0  0  0  0  0  0  0  0  0
  129.4540  123.6140   65.2120 C   0  0  0  0  0  0  0  0  0  0  0  0
  129.9190  122.6310   64.3450 C   0  0  0  0  0  0  0  0  0  0  0  0
  131.0320  122.8610   63.5210 C   0  0  0  0  0  0  0  0  0  0  0  0
  131.5060  121.8930   62.6320 N   0  0  0  0  0  0  0  0  0  0  0  0
  130.5470  121.1660   61.7780 C   0  0  0  0  0  0  0  0  0  0  0  0
  131.1390  119.8810   61.1580 C   0  0  0  0  0  0  0  0  0  0  0  0
  132.3200  120.1910   60.4340 O   0  0  0  0  0  0  0  0  0  0  0  0
  133.3100  120.7730   61.2690 C   0  0  0  0  0  0  0  0  0  0  0  0
  132.7740  122.0770   61.8970 C   0  0  0  0  0  0  0  0  0  0  0  0
  131.6500  124.1190   63.5840 C   0  0  0  0  0  0  0  0  0  0  0  0
  131.1840  125.1030   64.4520 C   0  0  0  0  0  0  0  0  0  0  0  0
  129.0520  127.1530   65.7370 C   0  0  0  0  0  0  0  0  0  0  0  0
  130.2960  127.2210   62.9510 H   0  0  0  0  0  0  0  0  0  0  0  0
  128.7310  126.5360   62.7420 H   0  0  0  0  0  0  0  0  0  0  0  0
  129.6640  131.0040   63.7820 H   0  0  0  0  0  0  0  0  0  0  0  0
  126.7490  132.5745   62.3031 H   0  0  0  0  0  0  0  0  0  0  0  0
  127.4730  134.2153   60.3057 H   0  0  0  0  0  0  0  0  0  0  0  0
  128.5556  128.4316   70.4490 H   0  0  0  0  0  0  0  0  0  0  0  0
  128.6052  128.0539   72.8948 H   0  0  0  0  0  0  0  0  0  0  0  0
  128.9017  127.5555   75.1424 H   0  0  0  0  0  0  0  0  0  0  0  0
  127.4207  126.6007   74.6519 H   0  0  0  0  0  0  0  0  0  0  0  0
  127.8000  126.6588   77.1334 H   0  0  0  0  0  0  0  0  0  0  0  0
  127.7844  125.0047   76.4231 H   0  0  0  0  0  0  0  0  0  0  0  0
  131.3477  124.6349   76.6409 H   0  0  0  0  0  0  0  0  0  0  0  0
  129.8036  123.8505   76.1463 H   0  0  0  0  0  0  0  0  0  0  0  0
  131.1663  126.2551   74.8207 H   0  0  0  0  0  0  0  0  0  0  0  0
  130.9606  124.5632   74.1568 H   0  0  0  0  0  0  0  0  0  0  0  0
  129.7514  123.9438   72.2332 H   0  0  0  0  0  0  0  0  0  0  0  0
  129.6883  124.3211   69.7883 H   0  0  0  0  0  0  0  0  0  0  0  0
  130.0224  124.7378   67.9567 H   0  0  0  0  0  0  0  0  0  0  0  0
  128.5805  123.4117   65.8492 H   0  0  0  0  0  0  0  0  0  0  0  0
  129.4068  121.6584   64.3043 H   0  0  0  0  0  0  0  0  0  0  0  0
  129.6744  120.8901   62.3883 H   0  0  0  0  0  0  0  0  0  0  0  0
  130.2751  121.8348   60.9481 H   0  0  0  0  0  0  0  0  0  0  0  0
  131.3799  119.1673   61.9596 H   0  0  0  0  0  0  0  0  0  0  0  0
  130.4014  119.4375   60.4730 H   0  0  0  0  0  0  0  0  0  0  0  0
  133.5732  120.0653   62.0689 H   0  0  0  0  0  0  0  0  0  0  0  0
  134.2002  121.0034   60.6653 H   0  0  0  0  0  0  0  0  0  0  0  0
  133.5298  122.4643   62.5961 H   0  0  0  0  0  0  0  0  0  0  0  0
  132.5743  122.7776   61.0728 H   0  0  0  0  0  0  0  0  0  0  0  0
  132.5150  124.3310   62.9384 H   0  0  0  0  0  0  0  0  0  0  0  0
  131.6834  126.0825   64.4859 H   0  0  0  0  0  0  0  0  0  0  0  0
  1  2  1  0
  2  3  2  0
  3  4  1  0
  4  5  2  0
  4  6  1  0
  6  7  1  0
  7  8  1  0
  8  9  2  0
  9 10  1  0
 10 11  1  0
  3 12  1  0
 12 13  1  0
 13 14  2  0
 14 15  1  0
 15 16  1  0
 16 17  2  0
 17 18  1  0
 18 19  2  0
 19 20  1  0
 20 21  1  0
 21 22  1  0
 22 23  1  0
 23 24  1  0
 24 25  1  0
 19 26  1  0
 26 27  2  0
 15 28  2  0
 28 29  1  0
 29 30  1  0
 30 31  2  0
 31 32  1  0
 32 33  2  0
 33 34  1  0
 34 35  1  0
 35 36  1  0
 36 37  1  0
 37 38  1  0
 38 39  1  0
 33 40  1  0
 40 41  2  0
 29 42  2  0
 42  2  1  0
 11  7  2  0
 42 13  1  0
 27 16  1  0
 41 30  1  0
 25 20  1  0
 39 34  1  0
  1 43  1  0
  1 44  1  0
  6 45  1  0
  8 46  1  0
  9 47  1  0
 17 48  1  0
 18 49  1  0
 21 50  1  0
 21 51  1  0
 22 52  1  0
 22 53  1  0
 24 54  1  0
 24 55  1  0
 25 56  1  0
 25 57  1  0
 26 58  1  0
 27 59  1  0
 28 60  1  0
 31 61  1  0
 32 62  1  0
 35 63  1  0
 35 64  1  0
 36 65  1  0
 36 66  1  0
 38 67  1  0
 38 68  1  0
 39 69  1  0
 39 70  1  0
 40 71  1  0
 41 72  1  0
M  END
>  <Binding energies>  (1) 
[-9.71]

>  <Ligand effiencies>  (1) 
[-0.2157777777777778]

>  <Interactions>  (1) 
["V-A:ALA:541:CB:4892, V-B:GLU:543:CB:9878, H-A:GLU:543:OE2:4910, V-B:HIS:456:CE1:9040, H-A:GLU:543:OE1:4909, V-A:GLU:543:CD:4908, H-B:GLU:543:OE1:9881, V-B:ALA:541:CB:9864, V-A:HIS:456:CE1:4069, V-B:GLU:543:CG:9879, V-A:LEU:475:CD1:4258, V-A:TYR:484:CE1:4345, V-B:TYR:539:CD2:9846, V-A:ILE:369:CD1:3239, V-A:ILE:369:CG2:3237, V-A:HIS:456:CD2:4068, V-B:GLU:543:CA:9876, V-A:GLU:543:CB:4906, V-A:TRP:381:CH2:3372, V-B:LYS:547:CD:9921, H-A:ALA:541:N:4891"]

$$$$
9c_Ghoteimi_2023
     RDKit          3D

 72 78  0  0  0  0  0  0  0  0999 V2000
  129.1630  127.0890   63.3580 N   0  0  0  0  0  0  0  0  0  0  0  0
  128.7820  127.6940   64.5290 C   0  0  0  0  0  0  0  0  0  0  0  0
  128.1800  128.9600   64.5840 C   0  0  0  0  0  0  0  0  0  0  0  0
  127.8280  129.8540   63.4770 C   0  0  0  0  0  0  0  0  0  0  0  0
  126.8340  129.6360   62.7820 O   0  0  0  0  0  0  0  0  0  0  0  0
  128.6670  130.9020   63.2860 N   0  0  0  0  0  0  0  0  0  0  0  0
  128.5710  131.8800   62.3070 C   0  0  0  0  0  0  0  0  0  0  0  0
  129.5120  132.3000   61.4890 N   0  0  0  0  0  0  0  0  0  0  0  0
  129.0680  133.2500   60.6870 C   0  0  0  0  0  0  0  0  0  0  0  0
  127.7360  133.6200   60.8490 C   0  0  0  0  0  0  0  0  0  0  0  0
  127.0350  132.6660   62.1210 S   0  0  0  0  0  0  0  0  0  0  0  0
  127.8520  129.4380   66.2500 S   0  0  0  0  0  0  0  0  0  0  0  0
  128.5380  127.9510   66.8590 C   0  0  0  0  0  0  0  0  0  0  0  0
  128.6130  127.7000   68.1660 N   0  0  0  0  0  0  0  0  0  0  0  0
  129.1790  126.5220   68.5360 C   0  0  0  0  0  0  0  0  0  0  0  0
  129.2710  126.2770   70.0070 C   0  0  0  0  0  0  0  0  0  0  0  0
  129.5060  124.9940   70.5150 C   0  0  0  0  0  0  0  0  0  0  0  0
  129.5810  124.7690   71.8850 C   0  0  0  0  0  0  0  0  0  0  0  0
  129.4100  125.8190   72.8020 C   0  0  0  0  0  0  0  0  0  0  0  0
  129.4900  125.6100   74.1840 N   0  0  0  0  0  0  0  0  0  0  0  0
  128.7700  126.4810   75.1360 C   0  0  0  0  0  0  0  0  0  0  0  0
  128.6840  125.9050   76.5650 C   0  0  0  0  0  0  0  0  0  0  0  0
  129.9850  125.5990   77.0420 O   0  0  0  0  0  0  0  0  0  0  0  0
  130.6220  124.6310   76.2250 C   0  0  0  0  0  0  0  0  0  0  0  0
  130.7650  125.1640   74.7820 C   0  0  0  0  0  0  0  0  0  0  0  0
  129.1940  127.1050   72.2880 C   0  0  0  0  0  0  0  0  0  0  0  0
  129.1230  127.3300   70.9160 C   0  0  0  0  0  0  0  0  0  0  0  0
  129.6400  125.5900   67.6030 C   0  0  0  0  0  0  0  0  0  0  0  0
  129.5430  125.8390   66.2300 C   0  0  0  0  0  0  0  0  0  0  0  0
  130.0180  124.8040   65.2790 C   0  0  0  0  0  0  0  0  0  0  0  0
  131.0840  125.0730   64.4180 C   0  0  0  0  0  0  0  0  0  0  0  0
  131.5440  124.0990   63.5370 C   0  0  0  0  0  0  0  0  0  0  0  0
  130.9480  122.8290   63.4910 C   0  0  0  0  0  0  0  0  0  0  0  0
  131.4000  121.8320   62.6210 N   0  0  0  0  0  0  0  0  0  0  0  0
  130.4160  121.0570   61.8390 C   0  0  0  0  0  0  0  0  0  0  0  0
  131.0000  119.7600   61.2390 C   0  0  0  0  0  0  0  0  0  0  0  0
  132.1420  120.0610   60.4510 O   0  0  0  0  0  0  0  0  0  0  0  0
  133.1590  120.6870   61.2190 C   0  0  0  0  0  0  0  0  0  0  0  0
  132.6300  122.0050   61.8240 C   0  0  0  0  0  0  0  0  0  0  0  0
  129.8910  122.5630   64.3740 C   0  0  0  0  0  0  0  0  0  0  0  0
  129.4310  123.5370   65.2560 C   0  0  0  0  0  0  0  0  0  0  0  0
  128.9850  127.0840   65.8190 C   0  0  0  0  0  0  0  0  0  0  0  0
  130.1090  127.1520   63.0080 H   0  0  0  0  0  0  0  0  0  0  0  0
  128.5070  126.5580   62.8020 H   0  0  0  0  0  0  0  0  0  0  0  0
  129.4480  130.9930   63.9200 H   0  0  0  0  0  0  0  0  0  0  0  0
  129.7145  133.7227   59.9330 H   0  0  0  0  0  0  0  0  0  0  0  0
  127.2118  134.3916   60.2660 H   0  0  0  0  0  0  0  0  0  0  0  0
  129.6333  124.1511   69.8198 H   0  0  0  0  0  0  0  0  0  0  0  0
  129.7774  123.7525   72.2566 H   0  0  0  0  0  0  0  0  0  0  0  0
  129.2910  127.4486   75.1829 H   0  0  0  0  0  0  0  0  0  0  0  0
  127.7383  126.5757   74.7662 H   0  0  0  0  0  0  0  0  0  0  0  0
  128.2170  126.6468   77.2296 H   0  0  0  0  0  0  0  0  0  0  0  0
  128.0790  124.9865   76.5492 H   0  0  0  0  0  0  0  0  0  0  0  0
  131.6200  124.4115   76.6322 H   0  0  0  0  0  0  0  0  0  0  0  0
  130.0130  123.7150   76.2114 H   0  0  0  0  0  0  0  0  0  0  0  0
  131.4598  126.0167   74.7941 H   0  0  0  0  0  0  0  0  0  0  0  0
  131.1340  124.3302   74.1667 H   0  0  0  0  0  0  0  0  0  0  0  0
  129.0785  127.9514   72.9810 H   0  0  0  0  0  0  0  0  0  0  0  0
  128.9482  128.3495   70.5417 H   0  0  0  0  0  0  0  0  0  0  0  0
  130.0855  124.6471   67.9530 H   0  0  0  0  0  0  0  0  0  0  0  0
  131.5639  126.0626   64.4363 H   0  0  0  0  0  0  0  0  0  0  0  0
  132.3863  124.3275   62.8674 H   0  0  0  0  0  0  0  0  0  0  0  0
  129.5775  120.7900   62.4990 H   0  0  0  0  0  0  0  0  0  0  0  0
  130.0956  121.6901   60.9984 H   0  0  0  0  0  0  0  0  0  0  0  0
  131.2886  119.0795   62.0536 H   0  0  0  0  0  0  0  0  0  0  0  0
  130.2395  119.2811   60.6047 H   0  0  0  0  0  0  0  0  0  0  0  0
  133.4693  120.0126   62.0307 H   0  0  0  0  0  0  0  0  0  0  0  0
  134.0177  120.9083   60.5680 H   0  0  0  0  0  0  0  0  0  0  0  0
  133.4100  122.4281   62.4740 H   0  0  0  0  0  0  0  0  0  0  0  0
  132.3819  122.6711   60.9845 H   0  0  0  0  0  0  0  0  0  0  0  0
  129.4184  121.5697   64.3695 H   0  0  0  0  0  0  0  0  0  0  0  0
  128.6000  123.3072   65.9391 H   0  0  0  0  0  0  0  0  0  0  0  0
  1  2  1  0
  2  3  2  0
  3  4  1  0
  4  5  2  0
  4  6  1  0
  6  7  1  0
  7  8  2  0
  8  9  1  0
  9 10  2  0
 10 11  1  0
  3 12  1  0
 12 13  1  0
 13 14  2  0
 14 15  1  0
 15 16  1  0
 16 17  2  0
 17 18  1  0
 18 19  2  0
 19 20  1  0
 20 21  1  0
 21 22  1  0
 22 23  1  0
 23 24  1  0
 24 25  1  0
 19 26  1  0
 26 27  2  0
 15 28  2  0
 28 29  1  0
 29 30  1  0
 30 31  2  0
 31 32  1  0
 32 33  2  0
 33 34  1  0
 34 35  1  0
 35 36  1  0
 36 37  1  0
 37 38  1  0
 38 39  1  0
 33 40  1  0
 40 41  2  0
 29 42  2  0
 42  2  1  0
 11  7  1  0
 42 13  1  0
 27 16  1  0
 41 30  1  0
 25 20  1  0
 39 34  1  0
  1 43  1  0
  1 44  1  0
  6 45  1  0
  9 46  1  0
 10 47  1  0
 17 48  1  0
 18 49  1  0
 21 50  1  0
 21 51  1  0
 22 52  1  0
 22 53  1  0
 24 54  1  0
 24 55  1  0
 25 56  1  0
 25 57  1  0
 26 58  1  0
 27 59  1  0
 28 60  1  0
 31 61  1  0
 32 62  1  0
 35 63  1  0
 35 64  1  0
 36 65  1  0
 36 66  1  0
 38 67  1  0
 38 68  1  0
 39 69  1  0
 39 70  1  0
 40 71  1  0
 41 72  1  0
M  END
>  <Binding energies>  (1) 
[-9.57]

>  <Ligand effiencies>  (1) 
[-0.21266666666666667]

>  <Interactions>  (1) 
["V-A:ALA:541:CB:4892, V-B:GLU:543:CB:9878, H-A:GLU:543:OE2:4910, V-B:HIS:456:CE1:9040, H-A:GLU:543:OE1:4909, V-B:LEU:475:CD1:9229, V-A:PRO:540:CA:4883, V-A:GLU:543:CD:4908, V-A:TYR:539:CD2:4874, V-A:PRO:540:C:4881, V-A:TYR:539:C:4867, V-A:PRO:540:N:4884, H-B:GLU:543:OE1:9881, H-B:GLU:543:OE2:9882, V-B:ALA:541:CB:9864, V-A:HIS:456:CE1:4069, V-B:GLU:543:CG:9879, V-A:LEU:475:CD1:4258, V-A:TYR:484:CE1:4345, V-B:TYR:539:CD2:9846, V-A:ILE:369:CD1:3239, V-A:ILE:369:CG2:3237, V-A:HIS:456:CD2:4068, V-B:GLU:543:CA:9876, V-A:GLU:543:CB:4906, V-A:TRP:381:CH2:3372, H-A:ALA:541:N:4891"]

$$$$
9d_Ghoteimi_2023
     RDKit          3D

 68 73  0  0  0  0  0  0  0  0999 V2000
  129.1470  132.4590   58.2050 C   0  0  0  0  0  0  0  0  0  0  0  0
  129.2060  132.7780   59.5880 O   0  0  0  0  0  0  0  0  0  0  0  0
  128.0900  132.7360   60.3610 C   0  0  0  0  0  0  0  0  0  0  0  0
  127.1550  133.5360   60.2660 O   0  0  0  0  0  0  0  0  0  0  0  0
  128.1080  131.6270   61.3400 C   0  0  0  0  0  0  0  0  0  0  0  0
  128.4550  131.9600   63.0360 S   0  0  0  0  0  0  0  0  0  0  0  0
  128.2600  130.2730   63.4480 C   0  0  0  0  0  0  0  0  0  0  0  0
  128.3760  129.8430   64.7040 N   0  0  0  0  0  0  0  0  0  0  0  0
  128.1890  128.5150   64.9220 C   0  0  0  0  0  0  0  0  0  0  0  0
  128.2980  128.0600   66.3420 C   0  0  0  0  0  0  0  0  0  0  0  0
  127.2740  127.3090   66.9270 C   0  0  0  0  0  0  0  0  0  0  0  0
  127.3640  126.8830   68.2490 C   0  0  0  0  0  0  0  0  0  0  0  0
  128.4910  127.1820   69.0320 C   0  0  0  0  0  0  0  0  0  0  0  0
  128.5890  126.7750   70.3670 N   0  0  0  0  0  0  0  0  0  0  0  0
  127.5790  127.1740   71.3680 C   0  0  0  0  0  0  0  0  0  0  0  0
  128.0190  126.9380   72.8280 C   0  0  0  0  0  0  0  0  0  0  0  0
  128.4050  125.5860   73.0060 O   0  0  0  0  0  0  0  0  0  0  0  0
  129.4940  125.2410   72.1660 C   0  0  0  0  0  0  0  0  0  0  0  0
  129.1020  125.4250   70.6840 C   0  0  0  0  0  0  0  0  0  0  0  0
  129.5090  127.9480   68.4440 C   0  0  0  0  0  0  0  0  0  0  0  0
  129.4160  128.3760   67.1230 C   0  0  0  0  0  0  0  0  0  0  0  0
  127.9220  127.6190   63.8830 C   0  0  0  0  0  0  0  0  0  0  0  0
  127.8190  128.0630   62.5600 C   0  0  0  0  0  0  0  0  0  0  0  0
  127.5610  127.0630   61.4890 C   0  0  0  0  0  0  0  0  0  0  0  0
  126.3690  127.0890   60.7620 C   0  0  0  0  0  0  0  0  0  0  0  0
  126.1400  126.1630   59.7480 C   0  0  0  0  0  0  0  0  0  0  0  0
  127.1050  125.1960   59.4240 C   0  0  0  0  0  0  0  0  0  0  0  0
  126.8950  124.2500   58.4180 N   0  0  0  0  0  0  0  0  0  0  0  0
  125.5140  123.8540   58.0820 C   0  0  0  0  0  0  0  0  0  0  0  0
  125.4020  123.1240   56.7270 C   0  0  0  0  0  0  0  0  0  0  0  0
  126.2700  122.0010   56.7060 O   0  0  0  0  0  0  0  0  0  0  0  0
  127.6260  122.3830   56.8900 C   0  0  0  0  0  0  0  0  0  0  0  0
  127.7920  123.0900   58.2520 C   0  0  0  0  0  0  0  0  0  0  0  0
  128.2970  125.1790   60.1620 C   0  0  0  0  0  0  0  0  0  0  0  0
  128.5250  126.1040   61.1760 C   0  0  0  0  0  0  0  0  0  0  0  0
  127.9700  129.4560   62.3150 C   0  0  0  0  0  0  0  0  0  0  0  0
  127.8700  130.2640   61.1270 C   0  0  0  0  0  0  0  0  0  0  0  0
  127.5470  129.7460   59.8990 N   0  0  0  0  0  0  0  0  0  0  0  0
  128.9481  131.3838   58.0849 H   0  0  0  0  0  0  0  0  0  0  0  0
  128.3404  133.0364   57.7296 H   0  0  0  0  0  0  0  0  0  0  0  0
  130.1068  132.7097   57.7296 H   0  0  0  0  0  0  0  0  0  0  0  0
  126.3843  127.0511   66.3338 H   0  0  0  0  0  0  0  0  0  0  0  0
  126.5390  126.3026   68.6877 H   0  0  0  0  0  0  0  0  0  0  0  0
  127.3678  128.2458   71.2388 H   0  0  0  0  0  0  0  0  0  0  0  0
  126.6929  126.5454   71.1958 H   0  0  0  0  0  0  0  0  0  0  0  0
  128.8706  127.5937   73.0622 H   0  0  0  0  0  0  0  0  0  0  0  0
  127.1777  127.1644   73.4995 H   0  0  0  0  0  0  0  0  0  0  0  0
  130.3519  125.8891   72.3983 H   0  0  0  0  0  0  0  0  0  0  0  0
  129.7617  124.1882   72.3389 H   0  0  0  0  0  0  0  0  0  0  0  0
  129.9909  125.2371   70.0640 H   0  0  0  0  0  0  0  0  0  0  0  0
  128.2875  124.7153   70.4769 H   0  0  0  0  0  0  0  0  0  0  0  0
  130.3959  128.2148   69.0374 H   0  0  0  0  0  0  0  0  0  0  0  0
  130.2321  128.9707   66.6866 H   0  0  0  0  0  0  0  0  0  0  0  0
  127.7911  126.5503   64.1084 H   0  0  0  0  0  0  0  0  0  0  0  0
  125.6055  127.8466   60.9922 H   0  0  0  0  0  0  0  0  0  0  0  0
  125.1905  126.1893   59.1933 H   0  0  0  0  0  0  0  0  0  0  0  0
  125.1406  123.1849   58.8712 H   0  0  0  0  0  0  0  0  0  0  0  0
  124.9195  124.7764   58.0058 H   0  0  0  0  0  0  0  0  0  0  0  0
  124.3656  122.7858   56.5802 H   0  0  0  0  0  0  0  0  0  0  0  0
  125.6873  123.8153   55.9204 H   0  0  0  0  0  0  0  0  0  0  0  0
  128.2641  121.4874   56.8637 H   0  0  0  0  0  0  0  0  0  0  0  0
  127.9205  123.0729   56.0854 H   0  0  0  0  0  0  0  0  0  0  0  0
  127.5772  122.3649   59.0508 H   0  0  0  0  0  0  0  0  0  0  0  0
  128.8247  123.4656   58.3016 H   0  0  0  0  0  0  0  0  0  0  0  0
  129.0634  124.4230   59.9359 H   0  0  0  0  0  0  0  0  0  0  0  0
  129.4721  126.0791   61.7350 H   0  0  0  0  0  0  0  0  0  0  0  0
  128.2200  129.7010   59.1470 H   0  0  0  0  0  0  0  0  0  0  0  0
  126.6230  129.3860   59.7050 H   0  0  0  0  0  0  0  0  0  0  0  0
  1  2  1  0
  2  3  1  0
  3  4  2  0
  3  5  1  0
  5  6  1  0
  6  7  1  0
  7  8  2  0
  8  9  1  0
  9 10  1  0
 10 11  2  0
 11 12  1  0
 12 13  2  0
 13 14  1  0
 14 15  1  0
 15 16  1  0
 16 17  1  0
 17 18  1  0
 18 19  1  0
 13 20  1  0
 20 21  2  0
  9 22  2  0
 22 23  1  0
 23 24  1  0
 24 25  2  0
 25 26  1  0
 26 27  2  0
 27 28  1  0
 28 29  1  0
 29 30  1  0
 30 31  1  0
 31 32  1  0
 32 33  1  0
 27 34  1  0
 34 35  2  0
 23 36  2  0
 36 37  1  0
 37 38  1  0
 37  5  2  0
 36  7  1  0
 21 10  1  0
 35 24  1  0
 19 14  1  0
 33 28  1  0
  1 39  1  0
  1 40  1  0
  1 41  1  0
 11 42  1  0
 12 43  1  0
 15 44  1  0
 15 45  1  0
 16 46  1  0
 16 47  1  0
 18 48  1  0
 18 49  1  0
 19 50  1  0
 19 51  1  0
 20 52  1  0
 21 53  1  0
 22 54  1  0
 25 55  1  0
 26 56  1  0
 29 57  1  0
 29 58  1  0
 30 59  1  0
 30 60  1  0
 32 61  1  0
 32 62  1  0
 33 63  1  0
 33 64  1  0
 34 65  1  0
 35 66  1  0
 38 67  1  0
 38 68  1  0
M  END
>  <Binding energies>  (1) 
[-8.24]

>  <Ligand effiencies>  (1) 
[-0.20600000000000002]

>  <Interactions>  (1) 
["V-A:ALA:541:CB:4892, V-B:GLU:543:CB:9878, V-B:GLY:544:C:9884, V-B:HIS:456:CE1:9040, V-A:PRO:540:CA:4883, V-B:GLU:543:CD:9880, V-A:GLU:543:CD:4908, V-A:TYR:539:CD2:4874, V-A:TYR:539:CE2:4876, V-A:TYR:539:C:4867, V-A:GLU:543:CG:4907, V-A:PRO:540:N:4884, V-B:TYR:539:CZ:9849, V-A:HIS:456:CE1:4069, V-B:TYR:539:CE1:9847, V-B:PRO:540:N:9856, V-B:TYR:539:CD2:9846, V-B:PRO:540:CA:9855, V-B:TYR:539:C:9839, V-B:TYR:539:CE2:9848, V-B:PRO:540:CD:9859, V-B:PRO:540:CB:9857, V-A:HIS:456:CD2:4068, H-B:LYS:547:NZ:9923, V-B:HIS:456:CD2:9039, V-B:HIS:456:CG:9037, V-A:GLU:543:CB:4906, V-B:LEU:363:CD1:8160, V-B:TYR:539:CG:9844, V-B:TYR:539:CD1:9845, V-B:TYR:539:CA:9841, H-B:TYR:539:N:9842"]

$$$$
RR10_Rahimova_2017
     RDKit          3D

 66 70  0  0  0  0  0  0  0  0999 V2000
  129.5230  123.9800   65.8900 C   0  0  0  0  0  0  0  0  0  0  0  0
  130.3280  123.6800   64.6140 C   0  0  1  0  0  0  0  0  0  0  0  0
  129.8740  122.3630   63.9420 C   0  0  0  0  0  0  0  0  0  0  0  0
  130.7190  122.0640   62.6830 C   0  0  0  0  0  0  0  0  0  0  0  0
  130.6500  123.2140   61.6450 C   0  0  1  0  0  0  0  0  0  0  0  0
  129.3050  123.3080   61.0610 N   0  0  0  0  0  0  0  0  0  0  0  0
  128.6720  122.3220   60.3990 C   0  0  0  0  0  0  0  0  0  0  0  0
  129.1630  121.2020   60.2310 O   0  0  0  0  0  0  0  0  0  0  0  0
  127.2770  122.6530   59.8290 C   0  0  1  0  0  0  0  0  0  0  0  0
  126.6810  123.8610   60.5970 C   0  0  0  0  0  0  0  0  0  0  0  0
  125.3230  124.2540   59.9680 C   0  0  0  0  0  0  0  0  0  0  0  0
  125.4170  124.4660   58.4390 C   0  0  0  0  0  0  0  0  0  0  0  0
  126.0570  123.2920   57.7850 N   0  0  0  0  0  0  0  0  0  0  0  0
  125.9500  123.2890   56.0170 S   0  0  0  0  0  0  0  0  0  0  0  0
  124.5970  123.7170   55.6410 O   0  0  0  0  0  0  0  0  0  0  0  0
  126.4800  122.0070   55.5350 O   0  0  0  0  0  0  0  0  0  0  0  0
  127.0670  124.5840   55.4800 C   0  0  0  0  0  0  0  0  0  0  0  0
  128.1540  124.2560   54.6630 C   0  0  0  0  0  0  0  0  0  0  0  0
  129.0630  125.2180   54.2130 C   0  0  0  0  0  0  0  0  0  0  0  0
  128.8300  126.5340   54.6180 C   0  0  0  0  0  0  0  0  0  0  0  0
  129.4770  127.7270   54.3980 N   0  0  0  0  0  0  0  0  0  0  0  0
  128.7820  128.7160   55.0620 C   0  0  0  0  0  0  0  0  0  0  0  0
  129.1910  130.1610   55.0640 C   0  0  0  0  0  0  0  0  0  0  0  0
  129.6610  130.7670   53.8910 C   0  0  0  0  0  0  0  0  0  0  0  0
  130.0380  132.1080   53.8900 C   0  0  0  0  0  0  0  0  0  0  0  0
  129.9470  132.8500   55.0650 C   0  0  0  0  0  0  0  0  0  0  0  0
  129.4820  132.2630   56.2380 C   0  0  0  0  0  0  0  0  0  0  0  0
  129.1060  130.9220   56.2380 C   0  0  0  0  0  0  0  0  0  0  0  0
  127.7280  128.2410   55.6890 N   0  0  0  0  0  0  0  0  0  0  0  0
  127.7330  126.8950   55.4360 C   0  0  0  0  0  0  0  0  0  0  0  0
  126.8360  125.9080   55.8700 C   0  0  0  0  0  0  0  0  0  0  0  0
  127.4060  122.9790   58.3210 C   0  0  0  0  0  0  0  0  0  0  0  0
  131.0910  124.5320   62.3380 C   0  0  0  0  0  0  0  0  0  0  0  0
  130.2430  124.8390   63.5930 C   0  0  0  0  0  0  0  0  0  0  0  0
  130.1372  123.7511   66.7734 H   0  0  0  0  0  0  0  0  0  0  0  0
  129.2417  125.0433   65.9046 H   0  0  0  0  0  0  0  0  0  0  0  0
  128.6144  123.3601   65.9046 H   0  0  0  0  0  0  0  0  0  0  0  0
  131.3750  123.5686   64.9323 H   0  0  0  0  0  0  0  0  0  0  0  0
  129.9894  121.5356   64.6576 H   0  0  0  0  0  0  0  0  0  0  0  0
  128.8212  122.4679   63.6408 H   0  0  0  0  0  0  0  0  0  0  0  0
  131.7671  121.9219   62.9852 H   0  0  0  0  0  0  0  0  0  0  0  0
  130.3124  121.1576   62.2106 H   0  0  0  0  0  0  0  0  0  0  0  0
  131.3346  123.0145   60.8074 H   0  0  0  0  0  0  0  0  0  0  0  0
  128.8850  124.2250   61.0650 H   0  0  0  0  0  0  0  0  0  0  0  0
  126.6056  121.7902   59.9507 H   0  0  0  0  0  0  0  0  0  0  0  0
  126.5308  123.5869   61.6516 H   0  0  0  0  0  0  0  0  0  0  0  0
  127.3740  124.7130   60.5343 H   0  0  0  0  0  0  0  0  0  0  0  0
  124.5963  123.4530   60.1689 H   0  0  0  0  0  0  0  0  0  0  0  0
  125.0096  125.2073   60.4187 H   0  0  0  0  0  0  0  0  0  0  0  0
  124.4048  124.6003   58.0299 H   0  0  0  0  0  0  0  0  0  0  0  0
  126.0289  125.3586   58.2420 H   0  0  0  0  0  0  0  0  0  0  0  0
  128.2982  123.2070   54.3649 H   0  0  0  0  0  0  0  0  0  0  0  0
  129.9174  124.9522   53.5732 H   0  0  0  0  0  0  0  0  0  0  0  0
  130.3150  127.9010   53.8610 H   0  0  0  0  0  0  0  0  0  0  0  0
  129.7327  130.1792   52.9640 H   0  0  0  0  0  0  0  0  0  0  0  0
  130.4056  132.5783   52.9661 H   0  0  0  0  0  0  0  0  0  0  0  0
  130.2451  133.9088   55.0659 H   0  0  0  0  0  0  0  0  0  0  0  0
  129.4117  132.8560   57.1618 H   0  0  0  0  0  0  0  0  0  0  0  0
  128.7400  130.4571   57.1653 H   0  0  0  0  0  0  0  0  0  0  0  0
  125.9731  126.1679   56.5007 H   0  0  0  0  0  0  0  0  0  0  0  0
  127.8236  122.1115   57.7891 H   0  0  0  0  0  0  0  0  0  0  0  0
  128.0750  123.8407   58.1795 H   0  0  0  0  0  0  0  0  0  0  0  0
  132.1459  124.4406   62.6360 H   0  0  0  0  0  0  0  0  0  0  0  0
  130.9491  125.3555   61.6227 H   0  0  0  0  0  0  0  0  0  0  0  0
  130.6160  125.7610   64.0629 H   0  0  0  0  0  0  0  0  0  0  0  0
  129.1936  124.9611   63.2867 H   0  0  0  0  0  0  0  0  0  0  0  0
  1  2  1  0
  2  3  1  0
  3  4  1  0
  4  5  1  0
  5  6  1  0
  6  7  1  0
  7  8  2  0
  7  9  1  0
  9 10  1  0
 10 11  1  0
 11 12  1  0
 12 13  1  0
 13 14  1  0
 14 15  2  0
 14 16  2  0
 14 17  1  0
 17 18  2  0
 18 19  1  0
 19 20  2  0
 20 21  1  0
 21 22  1  0
 22 23  1  0
 23 24  2  0
 24 25  1  0
 25 26  2  0
 26 27  1  0
 27 28  2  0
 22 29  2  0
 29 30  1  0
 30 31  2  0
 13 32  1  0
  5 33  1  0
 33 34  1  0
 34  2  1  0
 32  9  1  0
 31 17  1  0
 30 20  1  0
 28 23  1  0
  1 35  1  0
  1 36  1  0
  1 37  1  0
  2 38  1  1
  3 39  1  0
  3 40  1  0
  4 41  1  0
  4 42  1  0
  5 43  1  6
  6 44  1  0
  9 45  1  6
 10 46  1  0
 10 47  1  0
 11 48  1  0
 11 49  1  0
 12 50  1  0
 12 51  1  0
 18 52  1  0
 19 53  1  0
 21 54  1  0
 24 55  1  0
 25 56  1  0
 26 57  1  0
 27 58  1  0
 28 59  1  0
 31 60  1  0
 32 61  1  0
 32 62  1  0
 33 63  1  0
 33 64  1  0
 34 65  1  0
 34 66  1  0
M  END
>  <Binding energies>  (1) 
[-10.6]

>  <Ligand effiencies>  (1) 
[-0.29444444444444445]

>  <Interactions>  (1) 
["V-B:GLU:543:CB:9878, V-B:GLU:543:CD:9880, V-A:TYR:539:CD1:4873, V-A:TYR:539:CG:4872, V-A:TYR:539:CE1:4875, V-A:TYR:539:CZ:4877, V-A:TYR:531:CZ:4794, V-B:TYR:539:CZ:9849, V-A:MET:535:CE:4835, V-B:ALA:541:CB:9864, V-B:TYR:539:CE1:9847, V-B:GLU:543:CG:9879, V-A:LEU:475:CD1:4258, V-A:TYR:484:CE1:4345, V-B:PRO:540:N:9856, V-A:TYR:484:CZ:4347, V-B:TYR:539:CD2:9846, V-B:PRO:540:CA:9855, V-B:TYR:539:C:9839, V-B:TYR:539:CE2:9848, V-B:PRO:540:C:9853, V-A:ILE:538:CA:4860, H-B:ALA:541:N:9863, V-B:PRO:540:CB:9857, V-B:GLU:543:CA:9876, V-B:ILE:538:CB:9834, V-B:ILE:538:CG2:9835, H-B:TYR:539:N:9842, H-A:TYR:531:OH:4795, V-A:ILE:538:C:4858, H-B:TYR:531:OH:9767, H-A:MET:535:SD:4834"]

$$$$
RR11_Rahimova_2017
     RDKit          3D

 55 60  0  0  0  0  0  0  0  0999 V2000
  132.4770  132.1090   54.6310 N   0  0  0  0  0  0  0  0  0  0  0  0
  131.5950  132.1120   55.7090 C   0  0  0  0  0  0  0  0  0  0  0  0
  130.2720  132.5080   55.5220 C   0  0  0  0  0  0  0  0  0  0  0  0
  129.3910  132.5080   56.6000 C   0  0  0  0  0  0  0  0  0  0  0  0
  129.8220  132.1120   57.8730 C   0  0  0  0  0  0  0  0  0  0  0  0
  128.8700  132.1070   59.0310 C   0  0  0  0  0  0  0  0  0  0  0  0
  127.8200  131.3210   59.1270 N   0  0  0  0  0  0  0  0  0  0  0  0
  127.2440  131.6310   60.3310 C   0  0  0  0  0  0  0  0  0  0  0  0
  126.1020  131.0850   60.9330 C   0  0  0  0  0  0  0  0  0  0  0  0
  125.7210  131.5630   62.1920 C   0  0  0  0  0  0  0  0  0  0  0  0
  124.4810  130.9940   62.8690 C   0  0  0  0  0  0  0  0  0  0  0  0
  124.8010  130.2210   64.1410 C   0  0  0  0  0  0  0  0  0  0  0  0
  123.8940  130.2450   65.2070 C   0  0  0  0  0  0  0  0  0  0  0  0
  124.1390  129.5460   66.3910 C   0  0  0  0  0  0  0  0  0  0  0  0
  125.3230  128.8040   66.4870 C   0  0  0  0  0  0  0  0  0  0  0  0
  125.7920  128.0480   67.5300 N   0  0  0  0  0  0  0  0  0  0  0  0
  126.9450  127.5660   67.1180 C   0  0  0  0  0  0  0  0  0  0  0  0
  127.8390  126.6830   67.9420 C   0  0  0  0  0  0  0  0  0  0  0  0
  127.6780  126.6080   69.3310 C   0  0  0  0  0  0  0  0  0  0  0  0
  128.5140  125.7980   70.0960 C   0  0  0  0  0  0  0  0  0  0  0  0
  129.5160  125.0560   69.4760 C   0  0  0  0  0  0  0  0  0  0  0  0
  130.3560  124.2480   70.2420 N   0  0  0  0  0  0  0  0  0  0  0  0
  129.6850  125.1180   68.0950 C   0  0  0  0  0  0  0  0  0  0  0  0
  128.8490  125.9280   67.3310 C   0  0  0  0  0  0  0  0  0  0  0  0
  127.2470  127.9740   65.8360 N   0  0  0  0  0  0  0  0  0  0  0  0
  126.2240  128.7790   65.3960 C   0  0  0  0  0  0  0  0  0  0  0  0
  125.9830  129.4720   64.2070 C   0  0  0  0  0  0  0  0  0  0  0  0
  126.4490  132.5800   62.8200 C   0  0  0  0  0  0  0  0  0  0  0  0
  127.5890  133.1480   62.2440 C   0  0  0  0  0  0  0  0  0  0  0  0
  127.9680  132.6500   60.9950 C   0  0  0  0  0  0  0  0  0  0  0  0
  129.0000  132.9310   60.1310 N   0  0  0  0  0  0  0  0  0  0  0  0
  131.1560  131.7180   58.0470 C   0  0  0  0  0  0  0  0  0  0  0  0
  132.0390  131.7170   56.9700 C   0  0  0  0  0  0  0  0  0  0  0  0
  132.3990  131.3890   53.9260 H   0  0  0  0  0  0  0  0  0  0  0  0
  133.1570  132.8500   54.5440 H   0  0  0  0  0  0  0  0  0  0  0  0
  129.9249  132.8196   54.5258 H   0  0  0  0  0  0  0  0  0  0  0  0
  128.3473  132.8217   56.4510 H   0  0  0  0  0  0  0  0  0  0  0  0
  125.5196  130.3001   60.4283 H   0  0  0  0  0  0  0  0  0  0  0  0
  123.8077  131.8257   63.1240 H   0  0  0  0  0  0  0  0  0  0  0  0
  124.0144  130.2901   62.1642 H   0  0  0  0  0  0  0  0  0  0  0  0
  122.9664  130.8282   65.1098 H   0  0  0  0  0  0  0  0  0  0  0  0
  123.4222  129.5773   67.2248 H   0  0  0  0  0  0  0  0  0  0  0  0
  126.8858  127.1928   69.8214 H   0  0  0  0  0  0  0  0  0  0  0  0
  128.3830  125.7446   71.1869 H   0  0  0  0  0  0  0  0  0  0  0  0
  129.9670  123.4660   70.7500 H   0  0  0  0  0  0  0  0  0  0  0  0
  131.3490  124.4330   70.2520 H   0  0  0  0  0  0  0  0  0  0  0  0
  130.4767  124.5287   67.6092 H   0  0  0  0  0  0  0  0  0  0  0  0
  128.9823  125.9756   66.2401 H   0  0  0  0  0  0  0  0  0  0  0  0
  128.0920  127.7050   65.3530 H   0  0  0  0  0  0  0  0  0  0  0  0
  126.6876  129.4314   63.3632 H   0  0  0  0  0  0  0  0  0  0  0  0
  126.1122  132.9452   63.8014 H   0  0  0  0  0  0  0  0  0  0  0  0
  128.1571  133.9443   62.7471 H   0  0  0  0  0  0  0  0  0  0  0  0
  129.7440  133.6040   60.2350 H   0  0  0  0  0  0  0  0  0  0  0  0
  131.5080  131.4073   59.0417 H   0  0  0  0  0  0  0  0  0  0  0  0
  133.0840  131.4053   57.1140 H   0  0  0  0  0  0  0  0  0  0  0  0
  1  2  1  0
  2  3  2  0
  3  4  1  0
  4  5  2  0
  5  6  1  0
  6  7  2  0
  7  8  1  0
  8  9  2  0
  9 10  1  0
 10 11  1  0
 11 12  1  0
 12 13  2  0
 13 14  1  0
 14 15  2  0
 15 16  1  0
 16 17  2  0
 17 18  1  0
 18 19  2  0
 19 20  1  0
 20 21  2  0
 21 22  1  0
 21 23  1  0
 23 24  2  0
 17 25  1  0
 25 26  1  0
 26 27  2  0
 10 28  2  0
 28 29  1  0
 29 30  2  0
 30 31  1  0
  5 32  1  0
 32 33  2  0
 33  2  1  0
 31  6  1  0
 30  8  1  0
 27 12  1  0
 26 15  1  0
 24 18  1  0
  1 34  1  0
  1 35  1  0
  3 36  1  0
  4 37  1  0
  9 38  1  0
 11 39  1  0
 11 40  1  0
 13 41  1  0
 14 42  1  0
 19 43  1  0
 20 44  1  0
 22 45  1  0
 22 46  1  0
 23 47  1  0
 24 48  1  0
 25 49  1  0
 27 50  1  0
 28 51  1  0
 29 52  1  0
 31 53  1  0
 32 54  1  0
 33 55  1  0
M  END
>  <Binding energies>  (1) 
[-8.65]

>  <Ligand effiencies>  (1) 
[-0.2217948717948718]

>  <Interactions>  (1) 
["V-B:ARG:545:CD:9895, V-A:PRO:540:CB:4885, V-B:GLU:543:C:9874, V-A:ALA:541:CB:4892, V-B:GLU:543:CB:9878, V-B:GLY:544:C:9884, V-B:HIS:456:CE1:9040, V-B:LEU:475:CD1:9229, V-A:PRO:540:CA:4883, V-B:GLU:543:CD:9880, V-B:ARG:545:CG:9894, V-A:TYR:539:CD1:4873, V-A:ILE:538:CD1:4865, V-A:TYR:539:CG:4872, V-A:TYR:539:CE1:4875, V-A:PRO:540:C:4881, V-A:TYR:539:C:4867, V-A:TYR:539:CZ:4877, V-A:TYR:531:CE2:4793, V-A:PRO:540:N:4884, H-B:GLU:543:OE1:9881, V-B:ARG:545:CZ:9898, V-B:GLY:454:CA:9020, H-A:TYR:484:OH:4348, V-A:HIS:456:CE1:4069, V-A:TYR:484:CE1:4345, V-A:TYR:484:CZ:4347, V-A:PRO:540:CD:4887, V-A:ILE:538:CG2:4863, V-A:LEU:363:CD1:3189, V-A:HIS:456:CG:4066, V-A:HIS:456:CD2:4068, V-A:TYR:484:CD1:4343, V-A:TYR:484:CE2:4346, H-A:TYR:531:OH:4795, V-B:GLY:453:C:9013, H-B:GLU:543:O:9875, H-A:TYR:539:O:4868, H-A:HIS:456:ND1:4067"]

$$$$
RR11_Rahimova_2017-again1
     RDKit          3D

 56 61  0  0  0  0  0  0  0  0999 V2000
  128.0130  125.4230   70.2550 N   0  0  0  0  0  0  0  0  0  0  0  0
  127.7950  126.3150   69.2060 C   0  0  0  0  0  0  0  0  0  0  0  0
  126.5310  126.4160   68.6310 C   0  0  0  0  0  0  0  0  0  0  0  0
  126.3160  127.3060   67.5810 C   0  0  0  0  0  0  0  0  0  0  0  0
  127.3640  128.1010   67.0980 C   0  0  0  0  0  0  0  0  0  0  0  0
  127.1330  129.0530   65.9610 C   0  0  0  0  0  0  0  0  0  0  0  0
  127.9250  130.0600   65.6640 N   0  0  0  0  0  0  0  0  0  0  0  0
  127.3420  130.6740   64.5860 C   0  0  0  0  0  0  0  0  0  0  0  0
  127.7650  131.8030   63.8720 C   0  0  0  0  0  0  0  0  0  0  0  0
  126.9750  132.2430   62.8090 C   0  0  0  0  0  0  0  0  0  0  0  0
  125.7890  131.5880   62.4560 C   0  0  0  0  0  0  0  0  0  0  0  0
  124.9630  132.1140   61.2910 C   0  0  0  0  0  0  0  0  0  0  0  0
  124.8710  131.1200   60.1420 C   0  0  0  0  0  0  0  0  0  0  0  0
  124.0050  131.3770   59.0720 C   0  0  0  0  0  0  0  0  0  0  0  0
  123.8760  130.5020   57.9920 C   0  0  0  0  0  0  0  0  0  0  0  0
  124.6630  129.3470   58.0240 C   0  0  0  0  0  0  0  0  0  0  0  0
  124.7770  128.2790   57.1440 N   0  0  0  0  0  0  0  0  0  0  0  0
  125.6920  127.3690   57.6220 C   0  0  0  0  0  0  0  0  0  0  0  0
  126.0900  126.0770   56.9840 C   0  0  0  0  0  0  0  0  0  0  0  0
  127.1590  126.0410   56.0810 C   0  0  0  0  0  0  0  0  0  0  0  0
  127.5410  124.8380   55.4910 C   0  0  0  0  0  0  0  0  0  0  0  0
  126.8530  123.6660   55.8010 C   0  0  0  0  0  0  0  0  0  0  0  0
  127.2390  122.4630   55.2130 N   0  0  0  0  0  0  0  0  0  0  0  0
  125.7870  123.6920   56.6980 C   0  0  0  0  0  0  0  0  0  0  0  0
  125.4060  124.8940   57.2880 C   0  0  0  0  0  0  0  0  0  0  0  0
  126.1610  127.8780   58.8100 N   0  0  0  0  0  0  0  0  0  0  0  0
  125.5450  129.0900   59.0870 C   0  0  0  0  0  0  0  0  0  0  0  0
  125.6740  129.9720   60.1630 C   0  0  0  0  0  0  0  0  0  0  0  0
  125.3580  130.4440   63.1400 C   0  0  0  0  0  0  0  0  0  0  0  0
  126.1490  130.0130   64.2080 C   0  0  0  0  0  0  0  0  0  0  0  0
  126.0530  128.9770   65.1070 N   0  0  0  0  0  0  0  0  0  0  0  0
  128.6300  127.9900   67.6870 C   0  0  0  0  0  0  0  0  0  0  0  0
  128.8460  127.1010   68.7370 C   0  0  0  0  0  0  0  0  0  0  0  0
  128.6230  124.6310   70.1140 H   0  0  0  0  0  0  0  0  0  0  0  0
  127.5250  125.5560   71.1290 H   0  0  0  0  0  0  0  0  0  0  0  0
  125.7040  125.7945   69.0049 H   0  0  0  0  0  0  0  0  0  0  0  0
  125.3167  127.3852   67.1280 H   0  0  0  0  0  0  0  0  0  0  0  0
  128.6934  132.3276   64.1417 H   0  0  0  0  0  0  0  0  0  0  0  0
  127.2918  133.1259   62.2345 H   0  0  0  0  0  0  0  0  0  0  0  0
  123.9464  132.3322   61.6502 H   0  0  0  0  0  0  0  0  0  0  0  0
  125.4618  133.0175   60.9104 H   0  0  0  0  0  0  0  0  0  0  0  0
  123.4061  132.2996   59.0829 H   0  0  0  0  0  0  0  0  0  0  0  0
  123.1898  130.7107   57.1580 H   0  0  0  0  0  0  0  0  0  0  0  0
  124.2800  128.1430   56.2760 H   0  0  0  0  0  0  0  0  0  0  0  0
  127.7000  126.9669   55.8360 H   0  0  0  0  0  0  0  0  0  0  0  0
  128.3825  124.8132   54.7831 H   0  0  0  0  0  0  0  0  0  0  0  0
  127.1020  122.3270   54.2210 H   0  0  0  0  0  0  0  0  0  0  0  0
  127.6250  121.7290   55.7880 H   0  0  0  0  0  0  0  0  0  0  0  0
  125.2474  122.7643   56.9395 H   0  0  0  0  0  0  0  0  0  0  0  0
  124.5642  124.9143   57.9958 H   0  0  0  0  0  0  0  0  0  0  0  0
  126.8500  127.3960   59.3680 H   0  0  0  0  0  0  0  0  0  0  0  0
  126.3737  129.7742   60.9884 H   0  0  0  0  0  0  0  0  0  0  0  0
  124.4407  129.9106   62.8501 H   0  0  0  0  0  0  0  0  0  0  0  0
  125.3370  128.2690   65.1800 H   0  0  0  0  0  0  0  0  0  0  0  0
  129.4601  128.6099   67.3173 H   0  0  0  0  0  0  0  0  0  0  0  0
  129.8429  127.0194   69.1947 H   0  0  0  0  0  0  0  0  0  0  0  0
  1  2  1  0
  2  3  2  0
  3  4  1  0
  4  5  2  0
  5  6  1  0
  6  7  2  0
  7  8  1  0
  8  9  2  0
  9 10  1  0
 10 11  2  0
 11 12  1  0
 12 13  1  0
 13 14  2  0
 14 15  1  0
 15 16  2  0
 16 17  1  0
 17 18  1  0
 18 19  1  0
 19 20  2  0
 20 21  1  0
 21 22  2  0
 22 23  1  0
 22 24  1  0
 24 25  2  0
 18 26  2  0
 26 27  1  0
 27 28  2  0
 11 29  1  0
 29 30  2  0
 30 31  1  0
  5 32  1  0
 32 33  2  0
 33  2  1  0
 31  6  1  0
 30  8  1  0
 28 13  1  0
 27 16  1  0
 25 19  1  0
  1 34  1  0
  1 35  1  0
  3 36  1  0
  4 37  1  0
  9 38  1  0
 10 39  1  0
 12 40  1  0
 12 41  1  0
 14 42  1  0
 15 43  1  0
 17 44  1  0
 20 45  1  0
 21 46  1  0
 23 47  1  0
 23 48  1  0
 24 49  1  0
 25 50  1  0
 26 51  1  0
 28 52  1  0
 29 53  1  0
 31 54  1  0
 32 55  1  0
 33 56  1  0
M  CHG  1  26   1
M  END
>  <Binding energies>  (1) 
[-9.27]

>  <Ligand effiencies>  (1) 
[-0.23174999999999998]

>  <Interactions>  (1) 
["V-B:GLU:543:C:9874, V-A:ALA:541:CB:4892, V-B:GLU:543:CB:9878, V-B:GLY:544:C:9884, V-B:HIS:456:CE1:9040, V-B:LEU:475:CD1:9229, V-B:ARG:545:CG:9894, V-B:ARG:545:CA:9891, V-A:TYR:539:CE2:4876, V-A:TYR:539:CZ:4877, H-B:GLU:543:OE1:9881, H-B:ASP:366:OD1:8185, V-B:ASP:366:CG:8184, V-B:TYR:539:CZ:9849, V-B:TYR:539:CE1:9847, V-B:TYR:531:CZ:9766, H-B:TYR:484:OH:9319, V-B:ILE:538:CB:9834, V-B:ILE:538:C:9830, V-B:TYR:539:CG:9844, V-B:ILE:538:CA:9832, V-B:TYR:539:CD1:9845, V-B:ILE:538:CG2:9835, V-B:GLY:544:CA:9886, H-B:TYR:531:OH:9767, V-B:ASP:366:CB:8183, H-B:GLU:543:O:9875, H-B:GLY:544:O:9885, V-B:ILE:369:CG2:8208, V-B:ASP:366:C:8179, V-B:ASP:366:CA:8181, H-B:VAL:537:O:9823"]

$$$$
RR11_Rahimova_2017-again2
     RDKit          3D

 57 62  0  0  0  0  0  0  0  0999 V2000
  127.3690  122.8230   54.7630 N   0  0  0  0  0  0  0  0  0  0  0  0
  126.9480  123.9750   55.4240 C   0  0  0  0  0  0  0  0  0  0  0  0
  127.6390  125.1710   55.2430 C   0  0  0  0  0  0  0  0  0  0  0  0
  127.2220  126.3210   55.9090 C   0  0  0  0  0  0  0  0  0  0  0  0
  126.1110  126.2810   56.7600 C   0  0  0  0  0  0  0  0  0  0  0  0
  125.6690  127.5110   57.4820 C   0  0  0  0  0  0  0  0  0  0  0  0
  126.0950  127.9370   58.7200 N   0  0  0  0  0  0  0  0  0  0  0  0
  125.4750  129.1350   59.0510 C   0  0  0  0  0  0  0  0  0  0  0  0
  125.5810  129.9570   60.1770 C   0  0  0  0  0  0  0  0  0  0  0  0
  124.8150  131.1290   60.1810 C   0  0  0  0  0  0  0  0  0  0  0  0
  124.8920  132.0670   61.3780 C   0  0  0  0  0  0  0  0  0  0  0  0
  125.8570  131.5770   62.4490 C   0  0  0  0  0  0  0  0  0  0  0  0
  126.8320  132.4490   62.9510 C   0  0  0  0  0  0  0  0  0  0  0  0
  127.7440  132.0570   63.9330 C   0  0  0  0  0  0  0  0  0  0  0  0
  127.6370  130.7450   64.4010 C   0  0  0  0  0  0  0  0  0  0  0  0
  128.3690  130.0370   65.3440 N   0  0  0  0  0  0  0  0  0  0  0  0
  127.8800  128.7560   65.4590 C   0  0  0  0  0  0  0  0  0  0  0  0
  128.3990  127.6740   66.3490 C   0  0  0  0  0  0  0  0  0  0  0  0
  128.7090  126.4150   65.8240 C   0  0  0  0  0  0  0  0  0  0  0  0
  129.2020  125.4100   66.6510 C   0  0  0  0  0  0  0  0  0  0  0  0
  129.3880  125.6590   68.0090 C   0  0  0  0  0  0  0  0  0  0  0  0
  129.8880  124.6550   68.8380 N   0  0  0  0  0  0  0  0  0  0  0  0
  129.0790  126.9090   68.5450 C   0  0  0  0  0  0  0  0  0  0  0  0
  128.5870  127.9140   67.7160 C   0  0  0  0  0  0  0  0  0  0  0  0
  126.8240  128.6650   64.5820 N   0  0  0  0  0  0  0  0  0  0  0  0
  126.6520  129.8700   63.9130 C   0  0  0  0  0  0  0  0  0  0  0  0
  125.7380  130.2690   62.9350 C   0  0  0  0  0  0  0  0  0  0  0  0
  123.9610  131.4410   59.1160 C   0  0  0  0  0  0  0  0  0  0  0  0
  123.8460  130.6200   57.9910 C   0  0  0  0  0  0  0  0  0  0  0  0
  124.6270  129.4610   57.9800 C   0  0  0  0  0  0  0  0  0  0  0  0
  124.7660  128.4490   57.0380 N   0  0  0  0  0  0  0  0  0  0  0  0
  125.4210  125.0740   56.9310 C   0  0  0  0  0  0  0  0  0  0  0  0
  125.8380  123.9250   56.2660 C   0  0  0  0  0  0  0  0  0  0  0  0
  127.4010  122.8130   53.7540 H   0  0  0  0  0  0  0  0  0  0  0  0
  127.5730  121.9890   55.2950 H   0  0  0  0  0  0  0  0  0  0  0  0
  128.5124  125.2071   54.5753 H   0  0  0  0  0  0  0  0  0  0  0  0
  127.7681  127.2650   55.7657 H   0  0  0  0  0  0  0  0  0  0  0  0
  126.7680  127.4210   59.2670 H   0  0  0  0  0  0  0  0  0  0  0  0
  126.2361  129.6950   61.0209 H   0  0  0  0  0  0  0  0  0  0  0  0
  125.2259  133.0554   61.0293 H   0  0  0  0  0  0  0  0  0  0  0  0
  123.8900  132.1114   61.8296 H   0  0  0  0  0  0  0  0  0  0  0  0
  126.8806  133.4756   62.5589 H   0  0  0  0  0  0  0  0  0  0  0  0
  128.5088  132.7470   64.3190 H   0  0  0  0  0  0  0  0  0  0  0  0
  129.1550  130.3660   65.8870 H   0  0  0  0  0  0  0  0  0  0  0  0
  128.5623  126.2182   64.7517 H   0  0  0  0  0  0  0  0  0  0  0  0
  129.4442  124.4216   66.2334 H   0  0  0  0  0  0  0  0  0  0  0  0
  130.8310  124.3220   68.7040 H   0  0  0  0  0  0  0  0  0  0  0  0
  129.2790  124.2260   69.5190 H   0  0  0  0  0  0  0  0  0  0  0  0
  129.2234  127.1003   69.6186 H   0  0  0  0  0  0  0  0  0  0  0  0
  128.3449  128.9011   68.1368 H   0  0  0  0  0  0  0  0  0  0  0  0
  126.2850  127.8180   64.4710 H   0  0  0  0  0  0  0  0  0  0  0  0
  124.9596  129.5864   62.5632 H   0  0  0  0  0  0  0  0  0  0  0  0
  123.3614  132.3619   59.1666 H   0  0  0  0  0  0  0  0  0  0  0  0
  123.1751  130.8730   57.1568 H   0  0  0  0  0  0  0  0  0  0  0  0
  124.3020  128.3720   56.1460 H   0  0  0  0  0  0  0  0  0  0  0  0
  124.5447  125.0342   57.5947 H   0  0  0  0  0  0  0  0  0  0  0  0
  125.2931  122.9795   56.4043 H   0  0  0  0  0  0  0  0  0  0  0  0
  1  2  1  0
  2  3  2  0
  3  4  1  0
  4  5  2  0
  5  6  1  0
  6  7  1  0
  7  8  1  0
  8  9  2  0
  9 10  1  0
 10 11  1  0
 11 12  1  0
 12 13  2  0
 13 14  1  0
 14 15  2  0
 15 16  1  0
 16 17  1  0
 17 18  1  0
 18 19  2  0
 19 20  1  0
 20 21  2  0
 21 22  1  0
 21 23  1  0
 23 24  2  0
 17 25  2  0
 25 26  1  0
 26 27  2  0
 10 28  2  0
 28 29  1  0
 29 30  2  0
 30 31  1  0
  5 32  1  0
 32 33  2  0
 33  2  1  0
 31  6  2  0
 30  8  1  0
 27 12  1  0
 26 15  1  0
 24 18  1  0
  1 34  1  0
  1 35  1  0
  3 36  1  0
  4 37  1  0
  7 38  1  0
  9 39  1  0
 11 40  1  0
 11 41  1  0
 13 42  1  0
 14 43  1  0
 16 44  1  0
 19 45  1  0
 20 46  1  0
 22 47  1  0
 22 48  1  0
 23 49  1  0
 24 50  1  0
 25 51  1  0
 27 52  1  0
 28 53  1  0
 29 54  1  0
 31 55  1  0
 32 56  1  0
 33 57  1  0
M  CHG  2  25   1  31   1
M  END
>  <Binding energies>  (1) 
[-9.93]

>  <Ligand effiencies>  (1) 
[-0.2421951219512195]

>  <Interactions>  (1) 
["V-B:GLU:543:C:9874, V-A:ALA:541:CB:4892, V-B:GLU:543:CB:9878, H-A:GLU:543:OE2:4910, V-B:HIS:456:CE1:9040, H-A:GLU:543:OE1:4909, V-B:LEU:475:CD1:9229, V-B:GLU:543:CD:9880, V-A:GLU:543:CD:4908, V-A:TYR:539:CE2:4876, V-A:GLU:543:CG:4907, V-A:TYR:539:CZ:4877, H-B:GLU:543:OE1:9881, H-B:ASP:366:OD1:8185, V-B:ASP:366:CG:8184, H-B:GLU:543:OE2:9882, V-B:TYR:539:CZ:9849, H-A:TYR:484:OH:4348, V-A:HIS:456:CE1:4069, V-B:TYR:539:CE1:9847, V-B:GLU:543:CG:9879, V-A:TYR:484:CE1:4345, V-A:TYR:484:CZ:4347, V-B:TYR:531:CZ:9766, V-B:GLU:543:CA:9876, V-A:GLU:543:CB:4906, V-B:ILE:538:CB:9834, V-B:ILE:538:CA:9832, V-B:TYR:539:CD1:9845, V-B:ILE:538:CG2:9835, H-B:TYR:531:OH:9767, V-B:ASP:366:CB:8183, H-B:GLU:543:O:9875, V-B:ILE:369:CG2:8208, V-B:ASP:366:C:8179, V-B:ASP:366:CA:8181, H-A:HIS:456:ND1:4067, H-B:VAL:537:O:9823"]

$$$$
RR12_Rahimova_2017
     RDKit          3D

 51 53  0  0  0  0  0  0  0  0999 V2000
  129.3350  125.3830   65.4790 C   0  0  0  0  0  0  0  0  0  0  0  0
  130.1210  125.9750   66.6560 C   0  0  0  0  0  0  0  0  0  0  0  0
  129.7330  127.4350   66.9520 C   0  0  0  0  0  0  0  0  0  0  0  0
  128.2970  127.5510   67.1900 N   0  0  0  0  0  0  0  0  0  0  0  0
  127.5690  127.0150   68.2420 C   0  0  0  0  0  0  0  0  0  0  0  0
  128.1720  126.1460   69.3320 C   0  0  0  0  0  0  0  0  0  0  0  0
  129.0340  126.9560   70.3180 C   0  0  0  0  0  0  0  0  0  0  0  0
  128.3730  127.1060   71.7020 C   0  0  0  0  0  0  0  0  0  0  0  0
  129.2700  126.8160   72.8200 N   0  0  0  0  0  0  0  0  0  0  0  0
  128.8820  126.3500   74.0210 C   0  0  0  0  0  0  0  0  0  0  0  0
  127.7050  126.1210   74.3080 O   0  0  0  0  0  0  0  0  0  0  0  0
  130.0070  126.1110   75.0350 C   0  0  0  0  0  0  0  0  0  0  0  0
  131.2030  126.7460   74.5800 O   0  0  0  0  0  0  0  0  0  0  0  0
  132.4180  126.1150   74.7690 C   0  0  0  0  0  0  0  0  0  0  0  0
  133.5580  126.8600   74.4600 C   0  0  0  0  0  0  0  0  0  0  0  0
  134.8270  126.3110   74.6210 C   0  0  0  0  0  0  0  0  0  0  0  0
  134.9590  125.0080   75.0940 C   0  0  0  0  0  0  0  0  0  0  0  0
  133.8330  124.2500   75.4040 C   0  0  0  0  0  0  0  0  0  0  0  0
  132.5640  124.8000   75.2420 C   0  0  0  0  0  0  0  0  0  0  0  0
  126.2950  127.3150   68.1980 N   0  0  0  0  0  0  0  0  0  0  0  0
  126.1580  128.1050   67.0900 C   0  0  0  0  0  0  0  0  0  0  0  0
  125.0030  128.7160   66.5790 C   0  0  0  0  0  0  0  0  0  0  0  0
  125.1250  129.4890   65.4250 C   0  0  0  0  0  0  0  0  0  0  0  0
  126.3560  129.6550   64.7900 C   0  0  0  0  0  0  0  0  0  0  0  0
  127.5230  129.0590   65.2730 C   0  0  0  0  0  0  0  0  0  0  0  0
  127.4000  128.2820   66.4320 C   0  0  0  0  0  0  0  0  0  0  0  0
  128.5116  124.7628   65.8629 H   0  0  0  0  0  0  0  0  0  0  0  0
  128.9246  126.1983   64.8651 H   0  0  0  0  0  0  0  0  0  0  0  0
  130.0053  124.7634   64.8651 H   0  0  0  0  0  0  0  0  0  0  0  0
  129.9228  125.3691   67.5524 H   0  0  0  0  0  0  0  0  0  0  0  0
  131.1870  125.9618   66.3851 H   0  0  0  0  0  0  0  0  0  0  0  0
  130.2756  127.7786   67.8450 H   0  0  0  0  0  0  0  0  0  0  0  0
  129.9977  128.0539   66.0820 H   0  0  0  0  0  0  0  0  0  0  0  0
  127.3566  125.6626   69.8901 H   0  0  0  0  0  0  0  0  0  0  0  0
  128.8237  125.4040   68.8476 H   0  0  0  0  0  0  0  0  0  0  0  0
  130.0000  126.4448   70.4430 H   0  0  0  0  0  0  0  0  0  0  0  0
  129.1589  127.9652   69.8985 H   0  0  0  0  0  0  0  0  0  0  0  0
  128.0145  128.1409   71.8046 H   0  0  0  0  0  0  0  0  0  0  0  0
  127.5563  126.3705   71.7479 H   0  0  0  0  0  0  0  0  0  0  0  0
  130.2540  126.9770   72.6570 H   0  0  0  0  0  0  0  0  0  0  0  0
  129.7172  126.5309   76.0095 H   0  0  0  0  0  0  0  0  0  0  0  0
  130.1830  125.0301   75.1384 H   0  0  0  0  0  0  0  0  0  0  0  0
  133.4523  127.8892   74.0863 H   0  0  0  0  0  0  0  0  0  0  0  0
  135.7209  126.9034   74.3759 H   0  0  0  0  0  0  0  0  0  0  0  0
  135.9613  124.5739   75.2238 H   0  0  0  0  0  0  0  0  0  0  0  0
  133.9454  123.2207   75.7754 H   0  0  0  0  0  0  0  0  0  0  0  0
  131.6727  124.2029   75.4852 H   0  0  0  0  0  0  0  0  0  0  0  0
  124.0292  128.5889   67.0745 H   0  0  0  0  0  0  0  0  0  0  0  0
  124.2327  129.9778   65.0069 H   0  0  0  0  0  0  0  0  0  0  0  0
  126.4090  130.2736   63.8820 H   0  0  0  0  0  0  0  0  0  0  0  0
  128.4911  129.1931   64.7682 H   0  0  0  0  0  0  0  0  0  0  0  0
  1  2  1  0
  2  3  1  0
  3  4  1  0
  4  5  1  0
  5  6  1  0
  6  7  1  0
  7  8  1  0
  8  9  1  0
  9 10  1  0
 10 11  2  0
 10 12  1  0
 12 13  1  0
 13 14  1  0
 14 15  2  0
 15 16  1  0
 16 17  2  0
 17 18  1  0
 18 19  2  0
  5 20  2  0
 20 21  1  0
 21 22  2  0
 22 23  1  0
 23 24  2  0
 24 25  1  0
 25 26  2  0
 26  4  1  0
 19 14  1  0
 26 21  1  0
  1 27  1  0
  1 28  1  0
  1 29  1  0
  2 30  1  0
  2 31  1  0
  3 32  1  0
  3 33  1  0
  6 34  1  0
  6 35  1  0
  7 36  1  0
  7 37  1  0
  8 38  1  0
  8 39  1  0
  9 40  1  0
 12 41  1  0
 12 42  1  0
 15 43  1  0
 16 44  1  0
 17 45  1  0
 18 46  1  0
 19 47  1  0
 22 48  1  0
 23 49  1  0
 24 50  1  0
 25 51  1  0
M  END
>  <Binding energies>  (1) 
[-6.93]

>  <Ligand effiencies>  (1) 
[-0.25666666666666665]

>  <Interactions>  (1) 
["V-B:ARG:545:CD:9895, V-B:GLU:543:C:9874, V-B:GLU:543:CB:9878, V-B:HIS:456:CE1:9040, V-B:GLU:543:CD:9880, V-B:ARG:545:CG:9894, V-A:GLU:543:CD:4908, V-A:GLU:543:CG:4907, V-B:ARG:545:CZ:9898, V-A:HIS:456:CE1:4069, V-B:GLU:543:CG:9879, V-A:HIS:456:CG:4066, V-A:VAL:458:CG2:4087, V-A:HIS:456:CD2:4068, V-A:VAL:457:C:4073, V-A:HIS:456:CB:4065, V-A:LYS:547:CD:4949, V-A:LYS:547:CE:4950, H-A:LYS:547:NZ:4951, V-A:HIS:456:C:4061, H-B:LYS:547:NZ:9923, V-A:HIS:456:CA:4063, V-A:LYS:547:CG:4948, V-A:VAL:457:CA:4075"]

$$$$
RR13_Rahimova_2017
     RDKit          3D

 84 90  0  0  0  0  0  0  0  0999 V2000
  128.2290  132.9440   59.5480 Cl  0  0  0  0  0  0  0  0  0  0  0  0
  128.0880  132.2580   61.1310 C   0  0  0  0  0  0  0  0  0  0  0  0
  127.1360  132.8050   61.9960 C   0  0  0  0  0  0  0  0  0  0  0  0
  126.9890  132.3110   63.2890 C   0  0  0  0  0  0  0  0  0  0  0  0
  127.7960  131.2660   63.7290 C   0  0  0  0  0  0  0  0  0  0  0  0
  128.7470  130.7140   62.8730 C   0  0  0  0  0  0  0  0  0  0  0  0
  128.9030  131.1900   61.5610 C   0  0  0  0  0  0  0  0  0  0  0  0
  129.9820  130.5790   60.6400 C   0  0  1  0  0  0  0  0  0  0  0  0
  131.3790  131.1020   61.0040 C   0  0  0  0  0  0  0  0  0  0  0  0
  131.7090  131.7750   62.0840 N   0  0  0  0  0  0  0  0  0  0  0  0
  133.0670  132.0520   61.9610 N   0  0  0  0  0  0  0  0  0  0  0  0
  133.5480  131.5460   60.7700 N   0  0  0  0  0  0  0  0  0  0  0  0
  132.4830  130.9870   60.1860 N   0  0  0  0  0  0  0  0  0  0  0  0
  132.6170  130.3050   58.9040 C   0  0  0  0  0  0  0  0  0  0  0  0
  133.1130  131.2880   57.8270 C   0  0  0  0  0  0  0  0  0  0  0  0
  131.9950  131.7370   56.8990 C   0  0  0  0  0  0  0  0  0  0  0  0
  130.6780  131.7780   57.3630 C   0  0  0  0  0  0  0  0  0  0  0  0
  129.6530  132.1820   56.5110 C   0  0  0  0  0  0  0  0  0  0  0  0
  129.9500  132.5420   55.1970 C   0  0  0  0  0  0  0  0  0  0  0  0
  131.2610  132.5020   54.7290 C   0  0  0  0  0  0  0  0  0  0  0  0
  132.2860  132.0990   55.5810 C   0  0  0  0  0  0  0  0  0  0  0  0
  129.9320  129.0980   60.5750 N   0  0  0  0  0  0  0  0  0  0  0  0
  131.1440  128.5130   61.1770 C   0  0  0  0  0  0  0  0  0  0  0  0
  131.0400  126.9710   61.2340 C   0  0  0  0  0  0  0  0  0  0  0  0
  130.9090  126.4100   59.8790 N   0  0  0  0  0  0  0  0  0  0  0  0
  130.8890  124.9290   59.8790 C   0  0  1  0  0  0  0  0  0  0  0  0
  129.6020  124.2810   59.3220 C   0  0  0  0  0  0  0  0  0  0  0  0
  129.4120  124.3270   57.9340 C   0  0  0  0  0  0  0  0  0  0  0  0
  128.2880  123.7530   57.3410 C   0  0  0  0  0  0  0  0  0  0  0  0
  127.3300  123.1260   58.1330 C   0  0  0  0  0  0  0  0  0  0  0  0
  127.4920  123.0830   59.5140 C   0  0  0  0  0  0  0  0  0  0  0  0
  128.6130  123.6590   60.1190 C   0  0  0  0  0  0  0  0  0  0  0  0
  128.6880  123.6140   61.8480 Cl  0  0  0  0  0  0  0  0  0  0  0  0
  132.1200  124.3100   59.2130 C   0  0  0  0  0  0  0  0  0  0  0  0
  132.4760  124.4820   57.9610 N   0  0  0  0  0  0  0  0  0  0  0  0
  133.6520  123.7580   57.7950 N   0  0  0  0  0  0  0  0  0  0  0  0
  134.0080  123.1550   58.9840 N   0  0  0  0  0  0  0  0  0  0  0  0
  133.0590  123.5270   59.8510 N   0  0  0  0  0  0  0  0  0  0  0  0
  133.1010  123.0500   61.2290 C   0  0  0  0  0  0  0  0  0  0  0  0
  133.8650  124.0470   62.1190 C   0  0  0  0  0  0  0  0  0  0  0  0
  133.0380  124.5040   63.3110 C   0  0  0  0  0  0  0  0  0  0  0  0
  133.6730  124.9980   64.4530 C   0  0  0  0  0  0  0  0  0  0  0  0
  132.9140  125.4240   65.5410 C   0  0  0  0  0  0  0  0  0  0  0  0
  131.5230  125.3520   65.4830 C   0  0  0  0  0  0  0  0  0  0  0  0
  130.8850  124.8610   64.3450 C   0  0  0  0  0  0  0  0  0  0  0  0
  131.6420  124.4370   63.2570 C   0  0  0  0  0  0  0  0  0  0  0  0
  129.6940  126.9930   59.2830 C   0  0  0  0  0  0  0  0  0  0  0  0
  129.8080  128.5340   59.2200 C   0  0  0  0  0  0  0  0  0  0  0  0
  126.4979  133.6324   61.6522 H   0  0  0  0  0  0  0  0  0  0  0  0
  126.2358  132.7461   63.9623 H   0  0  0  0  0  0  0  0  0  0  0  0
  127.6833  130.8762   64.7514 H   0  0  0  0  0  0  0  0  0  0  0  0
  129.3854  129.8927   63.2305 H   0  0  0  0  0  0  0  0  0  0  0  0
  129.7524  130.9182   59.6191 H   0  0  0  0  0  0  0  0  0  0  0  0
  133.3393  129.4815   59.0044 H   0  0  0  0  0  0  0  0  0  0  0  0
  131.6354  129.9096   58.6038 H   0  0  0  0  0  0  0  0  0  0  0  0
  133.5376  132.1728   58.3238 H   0  0  0  0  0  0  0  0  0  0  0  0
  133.8682  130.7688   57.2186 H   0  0  0  0  0  0  0  0  0  0  0  0
  130.4507  131.4914   58.4004 H   0  0  0  0  0  0  0  0  0  0  0  0
  128.6148  132.2169   56.8727 H   0  0  0  0  0  0  0  0  0  0  0  0
  129.1408  132.8607   54.5235 H   0  0  0  0  0  0  0  0  0  0  0  0
  131.4858  132.7875   53.6908 H   0  0  0  0  0  0  0  0  0  0  0  0
  133.3235  132.0656   55.2170 H   0  0  0  0  0  0  0  0  0  0  0  0
  132.0186  128.7932   60.5715 H   0  0  0  0  0  0  0  0  0  0  0  0
  131.2488  128.8973   62.2024 H   0  0  0  0  0  0  0  0  0  0  0  0
  131.9460  126.5648   61.7074 H   0  0  0  0  0  0  0  0  0  0  0  0
  130.1496  126.6970   61.8189 H   0  0  0  0  0  0  0  0  0  0  0  0
  130.9095  124.6915   60.9529 H   0  0  0  0  0  0  0  0  0  0  0  0
  130.1623  124.8243   57.3018 H   0  0  0  0  0  0  0  0  0  0  0  0
  128.1585  123.7955   56.2495 H   0  0  0  0  0  0  0  0  0  0  0  0
  126.4463  122.6653   57.6675 H   0  0  0  0  0  0  0  0  0  0  0  0
  126.7302  122.5907   60.1364 H   0  0  0  0  0  0  0  0  0  0  0  0
  132.0735  122.9410   61.6063 H   0  0  0  0  0  0  0  0  0  0  0  0
  133.6182  122.0795   61.2550 H   0  0  0  0  0  0  0  0  0  0  0  0
  134.7809  123.5625   62.4882 H   0  0  0  0  0  0  0  0  0  0  0  0
  134.0982  124.9330   61.5103 H   0  0  0  0  0  0  0  0  0  0  0  0
  134.7710  125.0506   64.4932 H   0  0  0  0  0  0  0  0  0  0  0  0
  133.4100  125.8153   66.4415 H   0  0  0  0  0  0  0  0  0  0  0  0
  130.9236  125.6856   66.3429 H   0  0  0  0  0  0  0  0  0  0  0  0
  129.7869  124.8089   64.3071 H   0  0  0  0  0  0  0  0  0  0  0  0
  131.1434  124.0499   62.3562 H   0  0  0  0  0  0  0  0  0  0  0  0
  129.5646  126.5976   58.2647 H   0  0  0  0  0  0  0  0  0  0  0  0
  128.8281  126.7253   59.9063 H   0  0  0  0  0  0  0  0  0  0  0  0
  130.6961  128.8075   58.6314 H   0  0  0  0  0  0  0  0  0  0  0  0
  128.9007  128.9388   58.7479 H   0  0  0  0  0  0  0  0  0  0  0  0
  1  2  1  0
  2  3  2  0
  3  4  1  0
  4  5  2  0
  5  6  1  0
  6  7  2  0
  7  8  1  0
  8  9  1  0
  9 10  2  0
 10 11  1  0
 11 12  2  0
 12 13  1  0
 13 14  1  0
 14 15  1  0
 15 16  1  0
 16 17  2  0
 17 18  1  0
 18 19  2  0
 19 20  1  0
 20 21  2  0
  8 22  1  0
 22 23  1  0
 23 24  1  0
 24 25  1  0
 25 26  1  0
 26 27  1  0
 27 28  2  0
 28 29  1  0
 29 30  2  0
 30 31  1  0
 31 32  2  0
 32 33  1  0
 26 34  1  0
 34 35  2  0
 35 36  1  0
 36 37  2  0
 37 38  1  0
 38 39  1  0
 39 40  1  0
 40 41  1  0
 41 42  2  0
 42 43  1  0
 43 44  2  0
 44 45  1  0
 45 46  2  0
 25 47  1  0
 47 48  1  0
  7  2  1  0
 13  9  1  0
 21 16  1  0
 48 22  1  0
 32 27  1  0
 38 34  1  0
 46 41  1  0
  3 49  1  0
  4 50  1  0
  5 51  1  0
  6 52  1  0
  8 53  1  6
 14 54  1  0
 14 55  1  0
 15 56  1  0
 15 57  1  0
 17 58  1  0
 18 59  1  0
 19 60  1  0
 20 61  1  0
 21 62  1  0
 23 63  1  0
 23 64  1  0
 24 65  1  0
 24 66  1  0
 26 67  1  1
 28 68  1  0
 29 69  1  0
 30 70  1  0
 31 71  1  0
 39 72  1  0
 39 73  1  0
 40 74  1  0
 40 75  1  0
 42 76  1  0
 43 77  1  0
 44 78  1  0
 45 79  1  0
 46 80  1  0
 47 81  1  0
 47 82  1  0
 48 83  1  0
 48 84  1  0
M  END
>  <Binding energies>  (1) 
[-12.86]

>  <Ligand effiencies>  (1) 
[-0.26791666666666664]

>  <Interactions>  (1) 
["V-A:PRO:540:CB:4885, V-A:ALA:541:CB:4892, V-A:LEU:363:CA:3185, V-B:LEU:475:CD1:9229, V-A:ASP:366:CG:3213, V-A:PRO:540:CA:4883, V-B:GLU:543:CD:9880, V-A:GLU:543:CD:4908, V-A:TYR:539:CD1:4873, V-A:TYR:539:CD2:4874, V-A:TYR:539:CE2:4876, V-A:ILE:538:CD1:4865, V-A:TYR:539:CE1:4875, V-A:TYR:539:C:4867, V-A:TYR:531:CE2:4793, V-A:ARG:545:CZ:4926, V-A:PRO:540:N:4884, V-B:TYR:539:CZ:9849, V-A:HIS:456:CE1:4069, V-B:GLU:543:CG:9879, V-B:PRO:540:N:9856, V-B:TYR:539:CD2:9846, V-B:PRO:540:CA:9855, V-B:TYR:539:CE2:9848, V-A:ILE:538:CA:4860, V-A:PRO:540:CD:4887, V-A:LEU:363:CD1:3189, V-A:GLY:453:CA:4044, H-B:TYR:539:OH:9850, H-A:ASN:362:ND2:3179, H-A:ALA:541:N:4891"]

$$$$
RR14_Rahimova_2017
     RDKit          3D

 76 80  0  0  0  0  0  0  0  0999 V2000
  133.3760  125.2590   65.6060 C   0  0  0  0  0  0  0  0  0  0  0  0
  134.0120  124.7940   64.4200 O   0  0  0  0  0  0  0  0  0  0  0  0
  133.2540  124.1610   63.4530 C   0  0  0  0  0  0  0  0  0  0  0  0
  131.9580  123.7950   63.8190 C   0  0  0  0  0  0  0  0  0  0  0  0
  131.1290  123.1320   62.9200 C   0  0  0  0  0  0  0  0  0  0  0  0
  131.5940  122.8210   61.6400 C   0  0  0  0  0  0  0  0  0  0  0  0
  130.7120  122.0370   60.6760 C   0  0  0  0  0  0  0  0  0  0  0  0
  129.3550  122.5700   60.5690 N   0  0  0  0  0  0  0  0  0  0  0  0
  128.3420  121.9750   61.2090 N   0  0  0  0  0  0  0  0  0  0  0  0
  127.2260  122.7140   60.8650 N   0  0  0  0  0  0  0  0  0  0  0  0
  127.5850  123.7490   60.0080 N   0  0  0  0  0  0  0  0  0  0  0  0
  128.8810  123.6380   59.8370 C   0  0  0  0  0  0  0  0  0  0  0  0
  129.7300  124.5410   58.9520 C   0  0  0  0  0  0  0  0  0  0  0  0
  128.9380  125.2120   57.9090 N   0  0  0  0  0  0  0  0  0  0  0  0
  128.1470  126.3250   58.4500 C   0  0  0  0  0  0  0  0  0  0  0  0
  126.6630  126.2860   58.0270 C   0  0  0  0  0  0  0  0  0  0  0  0
  126.4560  126.2050   56.4990 C   0  0  0  0  0  0  0  0  0  0  0  0
  126.2680  124.8350   56.0110 N   0  0  0  0  0  0  0  0  0  0  0  0
  125.9430  123.9360   57.1260 C   0  0  0  0  0  0  0  0  0  0  0  0
  125.7900  122.4740   56.6530 C   0  0  0  0  0  0  0  0  0  0  0  0
  126.9570  122.0630   55.9490 O   0  0  0  0  0  0  0  0  0  0  0  0
  127.2070  122.8670   54.8020 C   0  0  0  0  0  0  0  0  0  0  0  0
  127.4050  124.3400   55.2200 C   0  0  0  0  0  0  0  0  0  0  0  0
  129.8180  125.6830   56.8300 C   0  0  0  0  0  0  0  0  0  0  0  0
  130.4200  127.0740   57.0150 C   0  0  0  0  0  0  0  0  0  0  0  0
  129.8950  128.1530   56.3850 C   0  0  0  0  0  0  0  0  0  0  0  0
  130.4820  129.5030   56.5150 C   0  0  0  0  0  0  0  0  0  0  0  0
  129.9520  130.6460   55.8930 C   0  0  0  0  0  0  0  0  0  0  0  0
  128.7060  130.5740   55.0210 C   0  0  0  0  0  0  0  0  0  0  0  0
  130.5840  131.8770   56.0830 C   0  0  0  0  0  0  0  0  0  0  0  0
  131.7240  131.9770   56.8780 C   0  0  0  0  0  0  0  0  0  0  0  0
  132.2580  130.8460   57.5030 C   0  0  0  0  0  0  0  0  0  0  0  0
  133.5040  130.9890   58.3670 C   0  0  0  0  0  0  0  0  0  0  0  0
  131.6320  129.6040   57.3190 C   0  0  0  0  0  0  0  0  0  0  0  0
  132.1360  128.4350   57.9270 N   0  0  0  0  0  0  0  0  0  0  0  0
  131.6310  127.1790   57.8360 C   0  0  0  0  0  0  0  0  0  0  0  0
  132.1840  126.2420   58.4100 O   0  0  0  0  0  0  0  0  0  0  0  0
  132.8780  123.2090   61.2550 C   0  0  0  0  0  0  0  0  0  0  0  0
  133.7070  123.8720   62.1560 C   0  0  0  0  0  0  0  0  0  0  0  0
  133.9096  124.8689   66.4853 H   0  0  0  0  0  0  0  0  0  0  0  0
  133.3936  126.3587   65.6245 H   0  0  0  0  0  0  0  0  0  0  0  0
  132.3335  124.9086   65.6245 H   0  0  0  0  0  0  0  0  0  0  0  0
  131.5887  124.0329   64.8275 H   0  0  0  0  0  0  0  0  0  0  0  0
  130.1074  122.8526   63.2170 H   0  0  0  0  0  0  0  0  0  0  0  0
  131.1764  122.0620   59.6791 H   0  0  0  0  0  0  0  0  0  0  0  0
  130.6295  121.0132   61.0697 H   0  0  0  0  0  0  0  0  0  0  0  0
  130.2051  125.3073   59.5822 H   0  0  0  0  0  0  0  0  0  0  0  0
  130.4783  123.9101   58.4501 H   0  0  0  0  0  0  0  0  0  0  0  0
  128.1975  126.2870   59.5482 H   0  0  0  0  0  0  0  0  0  0  0  0
  128.5753  127.2540   58.0455 H   0  0  0  0  0  0  0  0  0  0  0  0
  126.1932  125.4049   58.4885 H   0  0  0  0  0  0  0  0  0  0  0  0
  126.2074  127.2288   58.3640 H   0  0  0  0  0  0  0  0  0  0  0  0
  125.5656  126.7948   56.2355 H   0  0  0  0  0  0  0  0  0  0  0  0
  127.3680  126.5973   56.0254 H   0  0  0  0  0  0  0  0  0  0  0  0
  126.7496  123.9870   57.8721 H   0  0  0  0  0  0  0  0  0  0  0  0
  124.9850  124.2588   57.5596 H   0  0  0  0  0  0  0  0  0  0  0  0
  125.6439  121.8222   57.5270 H   0  0  0  0  0  0  0  0  0  0  0  0
  124.9209  122.4015   55.9826 H   0  0  0  0  0  0  0  0  0  0  0  0
  128.1151  122.5071   54.2962 H   0  0  0  0  0  0  0  0  0  0  0  0
  126.3468  122.7987   54.1198 H   0  0  0  0  0  0  0  0  0  0  0  0
  128.3214  124.4200   55.8231 H   0  0  0  0  0  0  0  0  0  0  0  0
  127.4813  124.9497   54.3076 H   0  0  0  0  0  0  0  0  0  0  0  0
  130.6479  124.9671   56.7361 H   0  0  0  0  0  0  0  0  0  0  0  0
  129.1799  125.7529   55.9367 H   0  0  0  0  0  0  0  0  0  0  0  0
  129.0024  128.0195   55.7561 H   0  0  0  0  0  0  0  0  0  0  0  0
  127.8129  130.5224   55.6611 H   0  0  0  0  0  0  0  0  0  0  0  0
  128.6506  131.4704   54.3859 H   0  0  0  0  0  0  0  0  0  0  0  0
  128.7542  129.6771   54.3859 H   0  0  0  0  0  0  0  0  0  0  0  0
  130.1773  132.7775   55.5997 H   0  0  0  0  0  0  0  0  0  0  0  0
  132.2084  132.9550   57.0152 H   0  0  0  0  0  0  0  0  0  0  0  0
  133.2195  130.9563   59.4291 H   0  0  0  0  0  0  0  0  0  0  0  0
  134.1986  130.1647   58.1480 H   0  0  0  0  0  0  0  0  0  0  0  0
  133.9938  131.9493   58.1480 H   0  0  0  0  0  0  0  0  0  0  0  0
  132.9660  128.5130   58.4940 H   0  0  0  0  0  0  0  0  0  0  0  0
  133.2358  122.9907   60.2380 H   0  0  0  0  0  0  0  0  0  0  0  0
  134.7207  124.1705   61.8504 H   0  0  0  0  0  0  0  0  0  0  0  0
  1  2  1  0
  2  3  1  0
  3  4  2  0
  4  5  1  0
  5  6  2  0
  6  7  1  0
  7  8  1  0
  8  9  1  0
  9 10  2  0
 10 11  1  0
 11 12  2  0
 12 13  1  0
 13 14  1  0
 14 15  1  0
 15 16  1  0
 16 17  1  0
 17 18  1  0
 18 19  1  0
 19 20  1  0
 20 21  1  0
 21 22  1  0
 22 23  1  0
 14 24  1  0
 24 25  1  0
 25 26  2  0
 26 27  1  0
 27 28  2  0
 28 29  1  0
 28 30  1  0
 30 31  2  0
 31 32  1  0
 32 33  1  0
 32 34  2  0
 34 35  1  0
 35 36  1  0
 36 37  2  0
  6 38  1  0
 38 39  2  0
 39  3  1  0
 12  8  1  0
 23 18  1  0
 36 25  1  0
 34 27  1  0
  1 40  1  0
  1 41  1  0
  1 42  1  0
  4 43  1  0
  5 44  1  0
  7 45  1  0
  7 46  1  0
 13 47  1  0
 13 48  1  0
 15 49  1  0
 15 50  1  0
 16 51  1  0
 16 52  1  0
 17 53  1  0
 17 54  1  0
 19 55  1  0
 19 56  1  0
 20 57  1  0
 20 58  1  0
 22 59  1  0
 22 60  1  0
 23 61  1  0
 23 62  1  0
 24 63  1  0
 24 64  1  0
 26 65  1  0
 29 66  1  0
 29 67  1  0
 29 68  1  0
 30 69  1  0
 31 70  1  0
 33 71  1  0
 33 72  1  0
 33 73  1  0
 35 74  1  0
 38 75  1  0
 39 76  1  0
M  END
>  <Binding energies>  (1) 
[-10.02]

>  <Ligand effiencies>  (1) 
[-0.2505]

>  <Interactions>  (1) 
["V-A:PRO:540:CB:4885, V-A:LEU:363:CA:3185, V-A:ASP:366:CG:3213, V-A:PRO:540:CA:4883, V-A:LEU:363:CB:3187, V-A:TYR:539:CE1:4875, V-A:ASP:366:CB:3212, V-A:ARG:545:CZ:4926, V-A:PRO:540:N:4884, V-B:TYR:539:CZ:9849, V-A:ARG:545:CD:4923, V-A:HIS:456:CE1:4069, H-A:ARG:545:NE:4924, V-B:TYR:539:CE1:9847, V-B:PRO:540:N:9856, H-A:GLY:454:N:4050, H-A:ARG:545:NH2:4928, V-B:TYR:539:CD2:9846, V-B:PRO:540:CA:9855, V-B:TYR:539:C:9839, V-B:TYR:539:CE2:9848, V-A:PRO:540:CD:4887, V-A:LEU:363:CD1:3189, H-B:ALA:541:N:9863, V-B:PRO:540:CD:9859, V-B:PRO:540:CB:9857, V-B:ILE:538:CB:9834, V-B:ILE:538:CA:9832, V-B:TYR:539:CD1:9845, V-B:ILE:538:CG2:9835, H-B:TYR:539:N:9842, H-B:TYR:531:OH:9767, H-A:ASP:366:OD1:3214"]

$$$$
RR15_Rahimova_2017
     RDKit          3D

 85 89  0  0  0  0  0  0  0  0999 V2000
  127.2970  126.7780   73.5520 C   0  0  0  0  0  0  0  0  0  0  0  0
  128.1790  125.8410   72.9430 O   0  0  0  0  0  0  0  0  0  0  0  0
  128.4460  125.9380   71.5880 C   0  0  0  0  0  0  0  0  0  0  0  0
  127.9760  126.9820   70.7760 C   0  0  0  0  0  0  0  0  0  0  0  0
  128.2800  127.0180   69.4170 C   0  0  0  0  0  0  0  0  0  0  0  0
  129.0590  126.0160   68.8310 C   0  0  0  0  0  0  0  0  0  0  0  0
  129.3820  126.0520   67.3620 C   0  0  0  0  0  0  0  0  0  0  0  0
  130.3310  125.3050   66.8140 N   0  0  0  0  0  0  0  0  0  0  0  0
  130.3350  125.6180   65.4710 N   0  0  0  0  0  0  0  0  0  0  0  0
  129.3450  126.5030   65.3510 N   0  0  0  0  0  0  0  0  0  0  0  0
  129.1010  127.2280   64.1060 C   0  0  0  0  0  0  0  0  0  0  0  0
  129.6740  126.5500   62.8360 C   0  0  0  0  0  0  0  0  0  0  0  0
  130.8840  126.6460   62.6210 O   0  0  0  0  0  0  0  0  0  0  0  0
  128.8420  125.8440   62.0110 N   0  0  0  0  0  0  0  0  0  0  0  0
  127.5540  126.4050   61.5560 C   0  0  0  0  0  0  0  0  0  0  0  0
  127.1880  126.0180   60.1070 C   0  0  0  0  0  0  0  0  0  0  0  0
  126.5710  124.6080   59.9480 C   0  0  0  0  0  0  0  0  0  0  0  0
  126.6610  124.0740   58.5860 N   0  0  0  0  0  0  0  0  0  0  0  0
  127.6320  122.9780   58.4470 C   0  0  0  0  0  0  0  0  0  0  0  0
  127.6270  122.3960   57.0180 C   0  0  0  0  0  0  0  0  0  0  0  0
  126.3090  121.9970   56.6550 O   0  0  0  0  0  0  0  0  0  0  0  0
  125.3860  123.0810   56.6880 C   0  0  0  0  0  0  0  0  0  0  0  0
  125.3280  123.6800   58.1100 C   0  0  0  0  0  0  0  0  0  0  0  0
  129.2330  124.5600   61.3520 C   0  0  2  0  0  0  0  0  0  0  0  0
  129.5350  123.3990   62.3500 C   0  0  0  0  0  0  0  0  0  0  0  0
  129.1270  122.2560   62.1380 O   0  0  0  0  0  0  0  0  0  0  0  0
  130.2920  123.7260   63.4120 N   0  0  0  0  0  0  0  0  0  0  0  0
  130.7850  122.7920   64.4180 C   0  0  0  0  0  0  0  0  0  0  0  0
  132.3240  122.7720   64.4520 C   0  0  2  0  0  0  0  0  0  0  0  0
  132.9940  124.1080   64.8170 C   0  0  0  0  0  0  0  0  0  0  0  0
  133.4530  124.6760   63.4960 C   0  0  0  0  0  0  0  0  0  0  0  0
  133.8020  123.4100   62.7320 C   0  0  0  0  0  0  0  0  0  0  0  0
  132.7500  122.5270   63.1040 O   0  0  0  0  0  0  0  0  0  0  0  0
  130.2460  124.8120   60.2410 C   0  0  0  0  0  0  0  0  0  0  0  0
  130.1680  126.0210   59.5400 C   0  0  0  0  0  0  0  0  0  0  0  0
  131.0660  126.3050   58.5150 C   0  0  0  0  0  0  0  0  0  0  0  0
  132.0520  125.3800   58.1850 C   0  0  0  0  0  0  0  0  0  0  0  0
  132.9250  125.6560   57.1900 F   0  0  0  0  0  0  0  0  0  0  0  0
  132.1460  124.1730   58.8720 C   0  0  0  0  0  0  0  0  0  0  0  0
  131.2460  123.8890   59.8960 C   0  0  0  0  0  0  0  0  0  0  0  0
  128.7520  126.8330   66.5050 N   0  0  0  0  0  0  0  0  0  0  0  0
  129.5290  124.9770   69.6450 C   0  0  0  0  0  0  0  0  0  0  0  0
  129.2340  124.9270   71.0180 C   0  0  0  0  0  0  0  0  0  0  0  0
  129.6770  123.9250   71.8620 O   0  0  0  0  0  0  0  0  0  0  0  0
  131.0030  123.4240   71.7250 C   0  0  0  0  0  0  0  0  0  0  0  0
  127.3739  126.6963   74.6463 H   0  0  0  0  0  0  0  0  0  0  0  0
  127.5718  127.7964   73.2401 H   0  0  0  0  0  0  0  0  0  0  0  0
  126.2638  126.5652   73.2401 H   0  0  0  0  0  0  0  0  0  0  0  0
  127.3611  127.7802   71.2174 H   0  0  0  0  0  0  0  0  0  0  0  0
  127.9025  127.8449   68.7975 H   0  0  0  0  0  0  0  0  0  0  0  0
  128.0134  127.3312   63.9777 H   0  0  0  0  0  0  0  0  0  0  0  0
  129.6202  128.1929   64.2028 H   0  0  0  0  0  0  0  0  0  0  0  0
  126.7603  126.0399   62.2244 H   0  0  0  0  0  0  0  0  0  0  0  0
  127.6523  127.5003   61.5820 H   0  0  0  0  0  0  0  0  0  0  0  0
  126.4625  126.7535   59.7292 H   0  0  0  0  0  0  0  0  0  0  0  0
  128.1314  126.0087   59.5413 H   0  0  0  0  0  0  0  0  0  0  0  0
  127.0978  123.9203   60.6258 H   0  0  0  0  0  0  0  0  0  0  0  0
  125.5011  124.6972   60.1875 H   0  0  0  0  0  0  0  0  0  0  0  0
  128.6380  123.3609   58.6735 H   0  0  0  0  0  0  0  0  0  0  0  0
  127.3511  122.1772   59.1468 H   0  0  0  0  0  0  0  0  0  0  0  0
  127.9824  123.1615   56.3125 H   0  0  0  0  0  0  0  0  0  0  0  0
  128.2899  121.5188   56.9850 H   0  0  0  0  0  0  0  0  0  0  0  0
  125.7094  123.8569   55.9785 H   0  0  0  0  0  0  0  0  0  0  0  0
  124.3872  122.7143   56.4089 H   0  0  0  0  0  0  0  0  0  0  0  0
  124.6770  124.5666   58.0976 H   0  0  0  0  0  0  0  0  0  0  0  0
  124.9328  122.9118   58.7909 H   0  0  0  0  0  0  0  0  0  0  0  0
  128.3544  124.1476   60.8343 H   0  0  0  0  0  0  0  0  0  0  0  0
  130.6100  124.6810   63.5000 H   0  0  0  0  0  0  0  0  0  0  0  0
  130.4082  123.0964   65.4056 H   0  0  0  0  0  0  0  0  0  0  0  0
  130.4290  121.7834   64.1612 H   0  0  0  0  0  0  0  0  0  0  0  0
  132.6042  122.0271   65.2113 H   0  0  0  0  0  0  0  0  0  0  0  0
  132.2741  124.7841   65.3015 H   0  0  0  0  0  0  0  0  0  0  0  0
  133.8242  123.9786   65.5269 H   0  0  0  0  0  0  0  0  0  0  0  0
  132.6489  125.2379   62.9982 H   0  0  0  0  0  0  0  0  0  0  0  0
  134.2815  125.3949   63.5785 H   0  0  0  0  0  0  0  0  0  0  0  0
  133.8060  123.5888   61.6466 H   0  0  0  0  0  0  0  0  0  0  0  0
  134.8044  123.0203   62.9629 H   0  0  0  0  0  0  0  0  0  0  0  0
  129.3900  126.7534   59.8015 H   0  0  0  0  0  0  0  0  0  0  0  0
  130.9965  127.2568   57.9680 H   0  0  0  0  0  0  0  0  0  0  0  0
  132.9282  123.4463   58.6071 H   0  0  0  0  0  0  0  0  0  0  0  0
  131.3191  122.9348   60.4383 H   0  0  0  0  0  0  0  0  0  0  0  0
  130.1436  124.1814   69.1986 H   0  0  0  0  0  0  0  0  0  0  0  0
  131.4377  123.2597   72.7220 H   0  0  0  0  0  0  0  0  0  0  0  0
  130.9803  122.4725   71.1736 H   0  0  0  0  0  0  0  0  0  0  0  0
  131.6152  124.1528   71.1736 H   0  0  0  0  0  0  0  0  0  0  0  0
  1  2  1  0
  2  3  1  0
  3  4  2  0
  4  5  1  0
  5  6  2  0
  6  7  1  0
  7  8  1  0
  8  9  2  0
  9 10  1  0
 10 11  1  0
 11 12  1  0
 12 13  2  0
 12 14  1  0
 14 15  1  0
 15 16  1  0
 16 17  1  0
 17 18  1  0
 18 19  1  0
 19 20  1  0
 20 21  1  0
 21 22  1  0
 22 23  1  0
 14 24  1  0
 24 25  1  0
 25 26  2  0
 25 27  1  0
 27 28  1  0
 28 29  1  0
 29 30  1  0
 30 31  1  0
 31 32  1  0
 32 33  1  0
 24 34  1  0
 34 35  2  0
 35 36  1  0
 36 37  2  0
 37 38  1  0
 37 39  1  0
 39 40  2  0
 10 41  1  0
  6 42  1  0
 42 43  2  0
 43 44  1  0
 44 45  1  0
 43  3  1  0
 41  7  2  0
 23 18  1  0
 33 29  1  0
 40 34  1  0
  1 46  1  0
  1 47  1  0
  1 48  1  0
  4 49  1  0
  5 50  1  0
 11 51  1  0
 11 52  1  0
 15 53  1  0
 15 54  1  0
 16 55  1  0
 16 56  1  0
 17 57  1  0
 17 58  1  0
 19 59  1  0
 19 60  1  0
 20 61  1  0
 20 62  1  0
 22 63  1  0
 22 64  1  0
 23 65  1  0
 23 66  1  0
 24 67  1  6
 27 68  1  0
 28 69  1  0
 28 70  1  0
 29 71  1  1
 30 72  1  0
 30 73  1  0
 31 74  1  0
 31 75  1  0
 32 76  1  0
 32 77  1  0
 35 78  1  0
 36 79  1  0
 39 80  1  0
 40 81  1  0
 42 82  1  0
 45 83  1  0
 45 84  1  0
 45 85  1  0
M  END
>  <Binding energies>  (1) 
[-8.5]

>  <Ligand effiencies>  (1) 
[-0.18478260869565216]

>  <Interactions>  (1) 
["V-B:GLU:543:C:9874, V-B:GLY:544:C:9884, V-B:HIS:456:CE1:9040, V-A:ASP:366:CG:3213, V-B:GLU:543:CD:9880, V-A:GLU:543:CD:4908, V-A:ASP:366:CB:3212, V-A:ARG:545:CZ:4926, V-B:TYR:539:CZ:9849, H-A:TYR:484:OH:4348, V-A:HIS:456:CE1:4069, V-B:TYR:539:CE1:9847, V-A:LEU:475:CD1:4258, V-A:TYR:484:CE1:4345, V-A:GLY:454:CA:4049, V-B:PRO:540:N:9856, V-A:TYR:484:CZ:4347, H-A:ARG:545:NH2:4928, V-B:TYR:539:CD2:9846, V-B:PRO:540:CA:9855, V-B:TYR:539:C:9839, V-B:TYR:539:CE2:9848, V-B:PRO:540:CD:9859, V-B:PRO:540:CB:9857, V-A:HIS:456:CG:4066, V-A:HIS:456:CD2:4068, V-A:HIS:456:CB:4065, H-B:LYS:547:NZ:9923, V-A:TYR:484:CD2:4344, V-A:TYR:484:CG:4342, V-B:LEU:363:CD1:8160, V-B:TYR:539:CG:9844, V-B:TYR:539:CD1:9845, V-B:TYR:539:CA:9841, H-B:TYR:539:N:9842, V-A:TYR:484:CE2:4346, V-A:ASP:366:C:3208, V-A:ASP:366:CA:3210"]

$$$$
RR16_Rahimova_2017
     RDKit          3D

 80 85  0  0  0  0  0  0  0  0999 V2000
  130.4150  124.5210   73.0150 O   0  0  0  0  0  0  0  0  0  0  0  0
  130.0820  125.9470   73.1020 S   0  0  0  0  0  0  0  0  0  0  0  0
  131.1270  126.9520   73.3270 O   0  0  0  0  0  0  0  0  0  0  0  0
  128.8620  126.1320   74.3640 N   0  0  0  0  0  0  0  0  0  0  0  0
  127.6840  127.0080   74.1620 C   0  0  0  0  0  0  0  0  0  0  0  0
  126.4730  126.4180   74.9310 C   0  0  0  0  0  0  0  0  0  0  0  0
  125.0690  126.8930   74.5110 C   0  0  0  0  0  0  0  0  0  0  0  0
  124.6560  128.2420   75.1260 C   0  0  0  0  0  0  0  0  0  0  0  0
  125.6660  129.3960   74.9560 C   0  0  0  0  0  0  0  0  0  0  0  0
  127.0940  129.1650   75.4890 C   0  0  0  0  0  0  0  0  0  0  0  0
  128.0780  128.4550   74.5390 C   0  0  0  0  0  0  0  0  0  0  0  0
  129.2260  126.3730   71.5900 C   0  0  0  0  0  0  0  0  0  0  0  0
  128.3270  125.4730   71.0110 C   0  0  0  0  0  0  0  0  0  0  0  0
  127.7620  125.7650   69.7730 C   0  0  0  0  0  0  0  0  0  0  0  0
  128.0960  126.9530   69.1200 C   0  0  0  0  0  0  0  0  0  0  0  0
  127.4820  127.2660   67.4670 S   0  0  0  0  0  0  0  0  0  0  0  0
  127.5710  128.7130   67.2310 O   0  0  0  0  0  0  0  0  0  0  0  0
  126.1950  126.5710   67.3370 O   0  0  0  0  0  0  0  0  0  0  0  0
  128.6540  126.4570   66.4080 N   0  0  0  0  0  0  0  0  0  0  0  0
  128.9640  127.1950   65.1560 C   0  0  0  0  0  0  0  0  0  0  0  0
  129.7320  126.2890   64.1720 C   0  0  0  0  0  0  0  0  0  0  0  0
  130.9850  125.6590   64.8290 C   0  0  0  0  0  0  0  0  0  0  0  0
  131.7360  124.7190   63.8820 C   0  0  0  0  0  0  0  0  0  0  0  0
  133.1030  124.9180   63.6430 C   0  0  0  0  0  0  0  0  0  0  0  0
  133.8280  124.0810   62.7940 C   0  0  0  0  0  0  0  0  0  0  0  0
  135.1660  124.2900   62.5750 O   0  0  0  0  0  0  0  0  0  0  0  0
  133.1520  123.0180   62.1760 C   0  0  0  0  0  0  0  0  0  0  0  0
  133.5970  122.0460   61.3270 N   0  0  0  0  0  0  0  0  0  0  0  0
  132.5270  121.2270   61.0380 N   0  0  0  0  0  0  0  0  0  0  0  0
  131.4370  121.7140   61.6630 N   0  0  0  0  0  0  0  0  0  0  0  0
  130.1730  120.9920   61.6020 C   0  0  0  0  0  0  0  0  0  0  0  0
  129.0540  121.8190   60.9840 C   0  0  0  0  0  0  0  0  0  0  0  0
  128.3040  122.6910   61.7800 C   0  0  0  0  0  0  0  0  0  0  0  0
  127.2920  123.4660   61.2120 C   0  0  0  0  0  0  0  0  0  0  0  0
  127.0270  123.3760   59.8450 C   0  0  0  0  0  0  0  0  0  0  0  0
  127.7730  122.5100   59.0450 C   0  0  0  0  0  0  0  0  0  0  0  0
  127.4540  122.4030   57.3530 Cl  0  0  0  0  0  0  0  0  0  0  0  0
  128.7830  121.7300   59.6150 C   0  0  0  0  0  0  0  0  0  0  0  0
  131.7710  122.8280   62.4160 C   0  0  0  0  0  0  0  0  0  0  0  0
  131.0420  123.6690   63.2630 C   0  0  0  0  0  0  0  0  0  0  0  0
  130.6650  125.0020   66.1980 C   0  0  0  0  0  0  0  0  0  0  0  0
  129.8580  125.9450   67.1130 C   0  0  0  0  0  0  0  0  0  0  0  0
  128.9620  127.8710   69.7200 C   0  0  0  0  0  0  0  0  0  0  0  0
  129.5300  127.5780   70.9550 C   0  0  0  0  0  0  0  0  0  0  0  0
  128.7460  125.3530   75.0170 H   0  0  0  0  0  0  0  0  0  0  0  0
  127.3613  127.0509   73.1113 H   0  0  0  0  0  0  0  0  0  0  0  0
  126.5031  125.3255   74.8064 H   0  0  0  0  0  0  0  0  0  0  0  0
  126.5941  126.7749   75.9644 H   0  0  0  0  0  0  0  0  0  0  0  0
  125.0503  126.9918   73.4156 H   0  0  0  0  0  0  0  0  0  0  0  0
  124.3548  126.1423   74.8802 H   0  0  0  0  0  0  0  0  0  0  0  0
  123.7095  128.5504   74.6579 H   0  0  0  0  0  0  0  0  0  0  0  0
  124.5836  128.0662   76.2094 H   0  0  0  0  0  0  0  0  0  0  0  0
  125.7449  129.6113   73.8802 H   0  0  0  0  0  0  0  0  0  0  0  0
  125.2641  130.2176   75.5671 H   0  0  0  0  0  0  0  0  0  0  0  0
  127.5206  130.1479   75.7378 H   0  0  0  0  0  0  0  0  0  0  0  0
  126.9775  128.4861   76.3466 H   0  0  0  0  0  0  0  0  0  0  0  0
  128.1447  129.0441   73.6125 H   0  0  0  0  0  0  0  0  0  0  0  0
  129.0342  128.3855   75.0783 H   0  0  0  0  0  0  0  0  0  0  0  0
  128.0674  124.5390   71.5309 H   0  0  0  0  0  0  0  0  0  0  0  0
  127.0541  125.0616   69.3102 H   0  0  0  0  0  0  0  0  0  0  0  0
  128.0247  127.5241   64.6876 H   0  0  0  0  0  0  0  0  0  0  0  0
  129.5901  128.0655   65.4014 H   0  0  0  0  0  0  0  0  0  0  0  0
  129.0638  125.4832   63.8342 H   0  0  0  0  0  0  0  0  0  0  0  0
  130.0643  126.9078   63.3254 H   0  0  0  0  0  0  0  0  0  0  0  0
  131.6756  126.4887   65.0403 H   0  0  0  0  0  0  0  0  0  0  0  0
  133.6172  125.7554   64.1374 H   0  0  0  0  0  0  0  0  0  0  0  0
  135.3410  124.9740   61.9250 H   0  0  0  0  0  0  0  0  0  0  0  0
  130.3150  120.0841   60.9973 H   0  0  0  0  0  0  0  0  0  0  0  0
  129.8775  120.7510   62.6338 H   0  0  0  0  0  0  0  0  0  0  0  0
  128.5126  122.7661   62.8574 H   0  0  0  0  0  0  0  0  0  0  0  0
  126.7028  124.1483   61.8423 H   0  0  0  0  0  0  0  0  0  0  0  0
  126.2297  123.9880   59.3980 H   0  0  0  0  0  0  0  0  0  0  0  0
  129.3670  121.0435   58.9844 H   0  0  0  0  0  0  0  0  0  0  0  0
  129.9671  123.5132   63.4368 H   0  0  0  0  0  0  0  0  0  0  0  0
  130.0795  124.0869   66.0252 H   0  0  0  0  0  0  0  0  0  0  0  0
  131.6179  124.7742   66.6982 H   0  0  0  0  0  0  0  0  0  0  0  0
  129.5434  125.3943   68.0117 H   0  0  0  0  0  0  0  0  0  0  0  0
  130.4944  126.7979   67.3916 H   0  0  0  0  0  0  0  0  0  0  0  0
  129.1935  128.8217   69.2174 H   0  0  0  0  0  0  0  0  0  0  0  0
  130.2169  128.2939   71.4300 H   0  0  0  0  0  0  0  0  0  0  0  0
  1  2  2  0
  2  3  2  0
  2  4  1  0
  4  5  1  0
  5  6  1  0
  6  7  1  0
  7  8  1  0
  8  9  1  0
  9 10  1  0
 10 11  1  0
  2 12  1  0
 12 13  2  0
 13 14  1  0
 14 15  2  0
 15 16  1  0
 16 17  2  0
 16 18  2  0
 16 19  1  0
 19 20  1  0
 20 21  1  0
 21 22  1  0
 22 23  1  0
 23 24  2  0
 24 25  1  0
 25 26  1  0
 25 27  2  0
 27 28  1  0
 28 29  2  0
 29 30  1  0
 30 31  1  0
 31 32  1  0
 32 33  2  0
 33 34  1  0
 34 35  2  0
 35 36  1  0
 36 37  1  0
 36 38  2  0
 30 39  1  0
 39 40  2  0
 22 41  1  0
 41 42  1  0
 15 43  1  0
 43 44  2  0
 11  5  1  0
 44 12  1  0
 42 19  1  0
 40 23  1  0
 39 27  1  0
 38 32  1  0
  4 45  1  0
  5 46  1  0
  6 47  1  0
  6 48  1  0
  7 49  1  0
  7 50  1  0
  8 51  1  0
  8 52  1  0
  9 53  1  0
  9 54  1  0
 10 55  1  0
 10 56  1  0
 11 57  1  0
 11 58  1  0
 13 59  1  0
 14 60  1  0
 20 61  1  0
 20 62  1  0
 21 63  1  0
 21 64  1  0
 22 65  1  0
 24 66  1  0
 26 67  1  0
 31 68  1  0
 31 69  1  0
 33 70  1  0
 34 71  1  0
 35 72  1  0
 38 73  1  0
 40 74  1  0
 41 75  1  0
 41 76  1  0
 42 77  1  0
 42 78  1  0
 43 79  1  0
 44 80  1  0
M  END
>  <Binding energies>  (1) 
[-9.88]

>  <Ligand effiencies>  (1) 
[-0.20583333333333334]

>  <Interactions>  (1) 
["V-B:GLU:543:C:9874, V-B:GLU:543:CB:9878, V-B:GLY:544:C:9884, V-B:HIS:456:CE1:9040, V-B:GLU:543:CD:9880, V-A:GLU:543:CD:4908, V-A:ARG:545:CZ:4926, V-B:TYR:539:CZ:9849, V-B:ALA:541:CB:9864, V-A:HIS:456:CE1:4069, H-A:ARG:545:NH1:4927, V-B:GLU:543:CG:9879, V-A:LEU:475:CD1:4258, V-A:TYR:484:CE1:4345, V-B:PRO:540:N:9856, V-A:TYR:484:CZ:4347, H-A:GLY:454:N:4050, V-B:TYR:539:CD2:9846, V-B:PRO:540:CA:9855, V-B:TYR:539:C:9839, V-B:TYR:539:CE2:9848, H-A:HIS:456:NE2:4070, V-A:HIS:456:CD2:4068, H-A:LYS:547:NZ:4951, H-B:LYS:547:NZ:9923, V-B:HIS:456:CD2:9039, V-B:HIS:456:CG:9037, V-B:VAL:457:C:9044, V-B:VAL:458:CG2:9058, V-B:HIS:456:CB:9036, V-B:HIS:456:C:9032, V-B:LYS:471:CE:9191, V-B:TYR:539:CG:9844, V-B:TYR:539:CA:9841, V-B:LYS:547:CD:9921, V-B:LYS:547:CE:9922, V-B:GLY:544:CA:9886, H-A:ASP:366:OD2:3215"]

$$$$
RR17_Rahimova_2017
     RDKit          3D

 63 66  0  0  0  0  0  0  0  0999 V2000
  131.0230  132.4950   55.2890 C   0  0  0  0  0  0  0  0  0  0  0  0
  129.6690  132.1720   54.6500 C   0  0  0  0  0  0  0  0  0  0  0  0
  128.9090  131.3830   55.5610 O   0  0  0  0  0  0  0  0  0  0  0  0
  128.8430  130.0140   55.3800 C   0  0  0  0  0  0  0  0  0  0  0  0
  129.6780  129.2380   56.1830 C   0  0  0  0  0  0  0  0  0  0  0  0
  129.6820  127.8520   56.0710 C   0  0  0  0  0  0  0  0  0  0  0  0
  128.8470  127.2080   55.1470 C   0  0  0  0  0  0  0  0  0  0  0  0
  128.8720  125.7110   55.0490 C   0  0  0  0  0  0  0  0  0  0  0  0
  129.4150  125.0010   55.9010 O   0  0  0  0  0  0  0  0  0  0  0  0
  128.1940  125.0770   53.8130 C   0  0  0  0  0  0  0  0  0  0  0  0
  126.4500  124.6320   54.1360 S   0  0  0  0  0  0  0  0  0  0  0  0
  126.6490  123.6640   55.6050 C   0  0  0  0  0  0  0  0  0  0  0  0
  126.8870  122.3740   55.6390 N   0  0  0  0  0  0  0  0  0  0  0  0
  126.9840  121.9940   56.9720 N   0  0  0  0  0  0  0  0  0  0  0  0
  126.8050  123.0710   57.6940 C   0  0  0  0  0  0  0  0  0  0  0  0
  126.8430  123.1080   59.2150 C   0  0  0  0  0  0  0  0  0  0  0  0
  127.6710  122.0620   59.8100 N   0  0  0  0  0  0  0  0  0  0  0  0
  128.4610  122.2490   60.9580 C   0  0  0  0  0  0  0  0  0  0  0  0
  129.4810  121.3270   61.1940 C   0  0  0  0  0  0  0  0  0  0  0  0
  130.2960  121.4510   62.3150 C   0  0  0  0  0  0  0  0  0  0  0  0
  130.1030  122.5030   63.2140 C   0  0  0  0  0  0  0  0  0  0  0  0
  131.0040  122.6210   64.4430 C   0  0  0  0  0  0  0  0  0  0  0  0
  130.8030  123.7600   65.1100 F   0  0  0  0  0  0  0  0  0  0  0  0
  130.7800  121.6090   65.2830 F   0  0  0  0  0  0  0  0  0  0  0  0
  132.2790  122.5820   64.0560 F   0  0  0  0  0  0  0  0  0  0  0  0
  129.0860  123.4340   62.9750 C   0  0  0  0  0  0  0  0  0  0  0  0
  128.2720  123.3100   61.8540 C   0  0  0  0  0  0  0  0  0  0  0  0
  126.5750  124.1670   56.8880 N   0  0  0  0  0  0  0  0  0  0  0  0
  126.3500  125.4940   57.2850 C   0  0  0  0  0  0  0  0  0  0  0  0
  125.1340  126.1060   56.9820 C   0  0  0  0  0  0  0  0  0  0  0  0
  124.9130  127.4240   57.3720 C   0  0  0  0  0  0  0  0  0  0  0  0
  125.9070  128.1330   58.0660 C   0  0  0  0  0  0  0  0  0  0  0  0
  125.7760  129.4410   58.4920 O   0  0  0  0  0  0  0  0  0  0  0  0
  124.6490  130.2000   58.0670 C   0  0  0  0  0  0  0  0  0  0  0  0
  127.1190  127.5050   58.3580 C   0  0  0  0  0  0  0  0  0  0  0  0
  127.3470  126.1870   57.9720 C   0  0  0  0  0  0  0  0  0  0  0  0
  128.0060  127.9890   54.3390 C   0  0  0  0  0  0  0  0  0  0  0  0
  128.0030  129.3770   54.4540 C   0  0  0  0  0  0  0  0  0  0  0  0
  130.9263  132.4719   56.3845 H   0  0  0  0  0  0  0  0  0  0  0  0
  131.7660  131.7489   54.9707 H   0  0  0  0  0  0  0  0  0  0  0  0
  131.3492  133.4962   54.9707 H   0  0  0  0  0  0  0  0  0  0  0  0
  129.1308  133.1062   54.4316 H   0  0  0  0  0  0  0  0  0  0  0  0
  129.8206  131.6183   53.7117 H   0  0  0  0  0  0  0  0  0  0  0  0
  130.3403  129.7272   56.9125 H   0  0  0  0  0  0  0  0  0  0  0  0
  130.3464  127.2553   56.7133 H   0  0  0  0  0  0  0  0  0  0  0  0
  128.2281  125.7967   52.9818 H   0  0  0  0  0  0  0  0  0  0  0  0
  128.7383  124.1538   53.5650 H   0  0  0  0  0  0  0  0  0  0  0  0
  127.2402  124.0848   59.5283 H   0  0  0  0  0  0  0  0  0  0  0  0
  125.8139  122.9398   59.5652 H   0  0  0  0  0  0  0  0  0  0  0  0
  127.8410  121.2350   59.2560 H   0  0  0  0  0  0  0  0  0  0  0  0
  129.6419  120.4973   60.4899 H   0  0  0  0  0  0  0  0  0  0  0  0
  131.0959  120.7175   62.4942 H   0  0  0  0  0  0  0  0  0  0  0  0
  128.9297  124.2670   63.6762 H   0  0  0  0  0  0  0  0  0  0  0  0
  127.4769  124.0475   61.6700 H   0  0  0  0  0  0  0  0  0  0  0  0
  124.3550  125.5512   56.4386 H   0  0  0  0  0  0  0  0  0  0  0  0
  123.9560  127.9121   57.1356 H   0  0  0  0  0  0  0  0  0  0  0  0
  124.1020  130.5684   58.9473 H   0  0  0  0  0  0  0  0  0  0  0  0
  124.9888  131.0540   57.4626 H   0  0  0  0  0  0  0  0  0  0  0  0
  123.9854  129.5641   57.4626 H   0  0  0  0  0  0  0  0  0  0  0  0
  127.9019  128.0571   58.8986 H   0  0  0  0  0  0  0  0  0  0  0  0
  128.3036  125.6970   58.2063 H   0  0  0  0  0  0  0  0  0  0  0  0
  127.3438  127.5008   53.6089 H   0  0  0  0  0  0  0  0  0  0  0  0
  127.3384  129.9773   53.8153 H   0  0  0  0  0  0  0  0  0  0  0  0
  1  2  1  0
  2  3  1  0
  3  4  1  0
  4  5  2  0
  5  6  1  0
  6  7  2  0
  7  8  1  0
  8  9  2  0
  8 10  1  0
 10 11  1  0
 11 12  1  0
 12 13  2  0
 13 14  1  0
 14 15  2  0
 15 16  1  0
 16 17  1  0
 17 18  1  0
 18 19  2  0
 19 20  1  0
 20 21  2  0
 21 22  1  0
 22 23  1  0
 22 24  1  0
 22 25  1  0
 21 26  1  0
 26 27  2  0
 15 28  1  0
 28 29  1  0
 29 30  2  0
 30 31  1  0
 31 32  2  0
 32 33  1  0
 33 34  1  0
 32 35  1  0
 35 36  2  0
  7 37  1  0
 37 38  2  0
 38  4  1  0
 28 12  1  0
 36 29  1  0
 27 18  1  0
  1 39  1  0
  1 40  1  0
  1 41  1  0
  2 42  1  0
  2 43  1  0
  5 44  1  0
  6 45  1  0
 10 46  1  0
 10 47  1  0
 16 48  1  0
 16 49  1  0
 17 50  1  0
 19 51  1  0
 20 52  1  0
 26 53  1  0
 27 54  1  0
 30 55  1  0
 31 56  1  0
 34 57  1  0
 34 58  1  0
 34 59  1  0
 35 60  1  0
 36 61  1  0
 37 62  1  0
 38 63  1  0
M  END
>  <Binding energies>  (1) 
[-7.57]

>  <Ligand effiencies>  (1) 
[-0.1941025641025641]

>  <Interactions>  (1) 
["V-B:GLU:543:CD:9880, V-A:TYR:539:CD1:4873, V-A:TYR:539:CE1:4875, V-A:TYR:539:CZ:4877, V-B:ASP:366:CG:8184, V-A:MET:535:CE:4835, V-B:ALA:541:CB:9864, V-B:GLU:543:CG:9879, V-A:LEU:475:CD1:4258, V-A:TYR:484:CE1:4345, V-A:GLY:454:CA:4049, V-B:PRO:540:N:9856, V-A:TYR:484:CZ:4347, V-B:TYR:539:CD2:9846, V-B:PRO:540:CA:9855, V-B:TYR:539:C:9839, V-B:PRO:540:C:9853, V-A:ILE:538:CA:4860, V-B:PRO:540:CB:9857, V-B:TYR:531:CZ:9766, V-A:TYR:484:CD1:4343, V-B:TYR:531:CE2:9765, V-B:ILE:538:CG2:9835, H-B:TYR:539:N:9842, H-B:TYR:539:OH:9850, V-A:LEU:475:CD2:4259, H-B:TYR:531:OH:9767, V-B:ASP:366:CB:8183, H-B:TYR:539:O:9840, V-A:LEU:475:CG:4257"]

$$$$
RR18_Rahimova_2017
     RDKit          3D

 56 61  0  0  0  0  0  0  0  0999 V2000
  128.3310  127.6250   57.9620 C   0  0  0  0  0  0  0  0  0  0  0  0
  128.5500  127.8410   59.4380 C   0  0  0  0  0  0  0  0  0  0  0  0
  128.8510  127.0060   60.5020 C   0  0  0  0  0  0  0  0  0  0  0  0
  128.9270  127.8110   61.6380 C   0  0  0  0  0  0  0  0  0  0  0  0
  128.6690  129.1090   61.2270 C   0  0  0  0  0  0  0  0  0  0  0  0
  128.6040  130.4530   61.9480 C   0  0  1  0  0  0  0  0  0  0  0  0
  128.4930  131.6370   60.9410 C   0  0  0  0  0  0  0  0  0  0  0  0
  129.5880  131.9290   60.0210 C   0  0  0  0  0  0  0  0  0  0  0  0
  130.6140  132.5020   60.3930 O   0  0  0  0  0  0  0  0  0  0  0  0
  129.3770  131.5030   58.7540 N   0  0  0  0  0  0  0  0  0  0  0  0
  130.1870  131.6220   57.6040 C   0  0  0  0  0  0  0  0  0  0  0  0
  129.8490  132.4220   56.4970 C   0  0  0  0  0  0  0  0  0  0  0  0
  130.6900  132.4910   55.3880 C   0  0  0  0  0  0  0  0  0  0  0  0
  131.8740  131.7600   55.3630 C   0  0  0  0  0  0  0  0  0  0  0  0
  132.2160  130.9550   56.4470 C   0  0  0  0  0  0  0  0  0  0  0  0
  131.3830  130.8770   57.5680 C   0  0  0  0  0  0  0  0  0  0  0  0
  131.8010  129.9760   58.7270 C   0  0  0  0  0  0  0  0  0  0  0  0
  127.3200  132.3190   60.8700 C   0  0  0  0  0  0  0  0  0  0  0  0
  126.2580  132.1260   61.7000 N   0  0  0  0  0  0  0  0  0  0  0  0
  126.3640  131.3050   62.6800 C   0  0  0  0  0  0  0  0  0  0  0  0
  125.1460  131.0660   63.9100 S   0  0  0  0  0  0  0  0  0  0  0  0
  126.1670  129.8660   64.7620 C   0  0  0  0  0  0  0  0  0  0  0  0
  125.8590  129.1810   65.9180 C   0  0  0  0  0  0  0  0  0  0  0  0
  124.6080  129.4630   66.6360 C   0  0  0  0  0  0  0  0  0  0  0  0
  123.6970  130.2440   66.3630 O   0  0  0  0  0  0  0  0  0  0  0  0
  124.5990  128.7020   67.7350 N   0  0  0  0  0  0  0  0  0  0  0  0
  125.6950  127.9000   67.8350 C   0  0  0  0  0  0  0  0  0  0  0  0
  125.9920  126.9800   68.8400 C   0  0  0  0  0  0  0  0  0  0  0  0
  127.1590  126.2280   68.7390 C   0  0  0  0  0  0  0  0  0  0  0  0
  127.9980  126.4000   67.6390 C   0  0  0  0  0  0  0  0  0  0  0  0
  127.6780  127.3290   66.6450 C   0  0  0  0  0  0  0  0  0  0  0  0
  126.5150  128.1160   66.7410 C   0  0  0  0  0  0  0  0  0  0  0  0
  127.4220  129.7340   64.0220 C   0  0  0  0  0  0  0  0  0  0  0  0
  128.3850  129.0410   64.3350 O   0  0  0  0  0  0  0  0  0  0  0  0
  127.4400  130.5080   62.9020 N   0  0  0  0  0  0  0  0  0  0  0  0
  128.4400  129.1180   59.8870 O   0  0  0  0  0  0  0  0  0  0  0  0
  127.5549  126.8595   57.8146 H   0  0  0  0  0  0  0  0  0  0  0  0
  128.0085  128.5684   57.4973 H   0  0  0  0  0  0  0  0  0  0  0  0
  129.2699  127.2895   57.4973 H   0  0  0  0  0  0  0  0  0  0  0  0
  129.0012  125.9172   60.4588 H   0  0  0  0  0  0  0  0  0  0  0  0
  129.1490  127.4795   62.6631 H   0  0  0  0  0  0  0  0  0  0  0  0
  129.5413  130.5513   62.5152 H   0  0  0  0  0  0  0  0  0  0  0  0
  128.5320  130.9730   58.6040 H   0  0  0  0  0  0  0  0  0  0  0  0
  128.9121  132.9984   56.5070 H   0  0  0  0  0  0  0  0  0  0  0  0
  130.4176  133.1243   54.5309 H   0  0  0  0  0  0  0  0  0  0  0  0
  132.5387  131.8179   54.4885 H   0  0  0  0  0  0  0  0  0  0  0  0
  133.1503  130.3749   56.4213 H   0  0  0  0  0  0  0  0  0  0  0  0
  131.5700  130.4739   59.6803 H   0  0  0  0  0  0  0  0  0  0  0  0
  131.2524  129.0244   58.6680 H   0  0  0  0  0  0  0  0  0  0  0  0
  132.8819  129.7804   58.6680 H   0  0  0  0  0  0  0  0  0  0  0  0
  127.2211  133.0828   60.0846 H   0  0  0  0  0  0  0  0  0  0  0  0
  123.8440  128.7110   68.4060 H   0  0  0  0  0  0  0  0  0  0  0  0
  125.3157  126.8508   69.6978 H   0  0  0  0  0  0  0  0  0  0  0  0
  127.4180  125.5015   69.5233 H   0  0  0  0  0  0  0  0  0  0  0  0
  128.9168  125.8013   67.5529 H   0  0  0  0  0  0  0  0  0  0  0  0
  128.3433  127.4466   65.7769 H   0  0  0  0  0  0  0  0  0  0  0  0
  1  2  1  0
  2  3  2  0
  3  4  1  0
  4  5  2  0
  5  6  1  0
  6  7  1  0
  7  8  1  0
  8  9  2  0
  8 10  1  0
 10 11  1  0
 11 12  2  0
 12 13  1  0
 13 14  2  0
 14 15  1  0
 15 16  2  0
 16 17  1  0
  7 18  2  0
 18 19  1  0
 19 20  2  0
 20 21  1  0
 21 22  1  0
 22 23  2  0
 23 24  1  0
 24 25  2  0
 24 26  1  0
 26 27  1  0
 27 28  2  0
 28 29  1  0
 29 30  2  0
 30 31  1  0
 31 32  2  0
 22 33  1  0
 33 34  2  0
 33 35  1  0
  5 36  1  0
 36  2  1  0
 35  6  1  0
 16 11  1  0
 35 20  1  0
 32 23  1  0
 32 27  1  0
  1 37  1  0
  1 38  1  0
  1 39  1  0
  3 40  1  0
  4 41  1  0
  6 42  1  1
 10 43  1  0
 12 44  1  0
 13 45  1  0
 14 46  1  0
 15 47  1  0
 17 48  1  0
 17 49  1  0
 17 50  1  0
 18 51  1  0
 26 52  1  0
 28 53  1  0
 29 54  1  0
 30 55  1  0
 31 56  1  0
M  END
>  <Binding energies>  (1) 
[-8.88]

>  <Ligand effiencies>  (1) 
[-0.2336842105263158]

>  <Interactions>  (1) 
["V-B:ARG:545:CD:9895, V-B:GLU:543:C:9874, V-B:GLU:543:CB:9878, V-B:GLY:544:C:9884, V-B:HIS:456:CE1:9040, V-A:PRO:540:CA:4883, V-B:GLU:543:CD:9880, V-B:ARG:545:CG:9894, V-B:ARG:545:CA:9891, V-A:TYR:539:CD1:4873, V-A:ILE:538:CD1:4865, V-A:TYR:539:CE1:4875, V-A:TYR:539:C:4867, V-A:TYR:531:CE2:4793, V-A:PRO:540:N:4884, V-A:ILE:538:CA:4860, V-A:LEU:363:CD1:3189, H-B:GLY:454:N:9021, H-B:TYR:484:OH:9319, H-B:ILE:455:N:9026, V-B:TYR:484:CZ:9318, H-A:ALA:541:N:4891, H-B:HIS:456:ND1:9038, V-B:ARG:545:CB:9893, H-B:ILE:455:O:9024"]

$$$$
RR19_Rahimova_2017
     RDKit          3D

 72 77  0  0  0  0  0  0  0  0999 V2000
  133.4810  123.8540   64.0990 O   0  0  0  0  0  0  0  0  0  0  0  0
  132.3600  124.0040   63.6050 C   0  0  0  0  0  0  0  0  0  0  0  0
  132.0930  124.2910   62.3050 N   0  0  0  0  0  0  0  0  0  0  0  0
  132.8640  124.2840   61.1690 C   0  0  0  0  0  0  0  0  0  0  0  0
  134.4250  123.6430   61.0400 S   0  0  0  0  0  0  0  0  0  0  0  0
  132.1570  124.8830   60.1560 N   0  0  0  0  0  0  0  0  0  0  0  0
  132.3810  125.0130   58.8240 C   0  0  0  0  0  0  0  0  0  0  0  0
  133.2460  124.4290   58.1670 O   0  0  0  0  0  0  0  0  0  0  0  0
  131.4390  126.0240   58.1230 C   0  0  2  0  0  0  0  0  0  0  0  0
  131.0550  127.2630   58.9840 C   0  0  0  0  0  0  0  0  0  0  0  0
  131.6610  128.5800   58.5290 C   0  0  0  0  0  0  0  0  0  0  0  0
  131.5060  129.7530   59.2990 C   0  0  0  0  0  0  0  0  0  0  0  0
  132.1330  130.9290   58.9090 C   0  0  0  0  0  0  0  0  0  0  0  0
  132.9300  130.9530   57.7700 C   0  0  0  0  0  0  0  0  0  0  0  0
  133.1160  129.8000   57.0190 C   0  0  0  0  0  0  0  0  0  0  0  0
  132.5000  128.6130   57.3940 C   0  0  0  0  0  0  0  0  0  0  0  0
  130.2330  125.3470   57.5720 N   0  0  0  0  0  0  0  0  0  0  0  0
  129.3300  124.7320   58.3870 C   0  0  0  0  0  0  0  0  0  0  0  0
  129.3830  124.6250   59.6130 O   0  0  0  0  0  0  0  0  0  0  0  0
  128.2650  124.2240   57.4870 C   0  0  0  0  0  0  0  0  0  0  0  0
  127.0960  123.5140   57.7630 C   0  0  0  0  0  0  0  0  0  0  0  0
  126.2570  123.1650   56.6990 C   0  0  0  0  0  0  0  0  0  0  0  0
  126.5920  123.5290   55.3870 C   0  0  0  0  0  0  0  0  0  0  0  0
  127.7680  124.2420   55.1320 C   0  0  0  0  0  0  0  0  0  0  0  0
  128.5920  124.5790   56.2070 C   0  0  0  0  0  0  0  0  0  0  0  0
  129.8740  125.3240   56.2530 C   0  0  0  0  0  0  0  0  0  0  0  0
  130.4780  125.8240   55.3020 O   0  0  0  0  0  0  0  0  0  0  0  0
  131.1030  123.8790   64.5070 C   0  0  2  0  0  0  0  0  0  0  0  0
  130.2540  122.6050   64.2310 C   0  0  0  0  0  0  0  0  0  0  0  0
  129.9520  122.3710   62.7620 C   0  0  0  0  0  0  0  0  0  0  0  0
  130.8540  121.6370   61.9630 C   0  0  0  0  0  0  0  0  0  0  0  0
  130.5280  121.3370   60.6450 C   0  0  0  0  0  0  0  0  0  0  0  0
  129.3060  121.7330   60.1190 C   0  0  0  0  0  0  0  0  0  0  0  0
  128.3920  122.4230   60.9060 C   0  0  0  0  0  0  0  0  0  0  0  0
  128.6990  122.7330   62.2250 C   0  0  0  0  0  0  0  0  0  0  0  0
  130.2580  125.1070   64.5170 N   0  0  0  0  0  0  0  0  0  0  0  0
  129.9980  125.7890   65.6680 C   0  0  0  0  0  0  0  0  0  0  0  0
  130.3780  125.5070   66.8040 O   0  0  0  0  0  0  0  0  0  0  0  0
  129.1590  126.9440   65.2590 C   0  0  0  0  0  0  0  0  0  0  0  0
  128.5920  127.9730   66.0120 C   0  0  0  0  0  0  0  0  0  0  0  0
  127.8370  128.9480   65.3510 C   0  0  0  0  0  0  0  0  0  0  0  0
  127.6620  128.8850   63.9620 C   0  0  0  0  0  0  0  0  0  0  0  0
  128.2400  127.8460   63.2250 C   0  0  0  0  0  0  0  0  0  0  0  0
  128.9880  126.8820   63.9040 C   0  0  0  0  0  0  0  0  0  0  0  0
  129.7120  125.6870   63.4070 C   0  0  0  0  0  0  0  0  0  0  0  0
  129.8020  125.2990   62.2410 O   0  0  0  0  0  0  0  0  0  0  0  0
  131.1130  124.4480   62.1250 H   0  0  0  0  0  0  0  0  0  0  0  0
  131.3590  125.4110   60.4780 H   0  0  0  0  0  0  0  0  0  0  0  0
  132.0282  126.4328   57.2889 H   0  0  0  0  0  0  0  0  0  0  0  0
  129.9601  127.3666   58.9619 H   0  0  0  0  0  0  0  0  0  0  0  0
  131.4582  127.0727   59.9896 H   0  0  0  0  0  0  0  0  0  0  0  0
  130.8880  129.7354   60.2088 H   0  0  0  0  0  0  0  0  0  0  0  0
  131.9987  131.8448   59.5033 H   0  0  0  0  0  0  0  0  0  0  0  0
  133.4159  131.8906   57.4621 H   0  0  0  0  0  0  0  0  0  0  0  0
  133.7539  129.8268   56.1233 H   0  0  0  0  0  0  0  0  0  0  0  0
  132.6659  127.6981   56.8063 H   0  0  0  0  0  0  0  0  0  0  0  0
  126.8393  123.2345   58.7955 H   0  0  0  0  0  0  0  0  0  0  0  0
  125.3314  122.6031   56.8925 H   0  0  0  0  0  0  0  0  0  0  0  0
  125.9274  123.2528   54.5551 H   0  0  0  0  0  0  0  0  0  0  0  0
  128.0379  124.5311   54.1056 H   0  0  0  0  0  0  0  0  0  0  0  0
  131.5117  123.7638   65.5217 H   0  0  0  0  0  0  0  0  0  0  0  0
  130.8041  121.7329   64.6143 H   0  0  0  0  0  0  0  0  0  0  0  0
  129.2874  122.7511   64.7354 H   0  0  0  0  0  0  0  0  0  0  0  0
  131.8143  121.3024   62.3824 H   0  0  0  0  0  0  0  0  0  0  0  0
  131.2414  120.7836   60.0166 H   0  0  0  0  0  0  0  0  0  0  0  0
  129.0596  121.4992   59.0728 H   0  0  0  0  0  0  0  0  0  0  0  0
  127.4223  122.7247   60.4833 H   0  0  0  0  0  0  0  0  0  0  0  0
  127.9645  123.2610   62.8509 H   0  0  0  0  0  0  0  0  0  0  0  0
  128.7355  128.0166   67.1017 H   0  0  0  0  0  0  0  0  0  0  0  0
  127.3788  129.7675   65.9241 H   0  0  0  0  0  0  0  0  0  0  0  0
  127.0677  129.6557   63.4492 H   0  0  0  0  0  0  0  0  0  0  0  0
  128.1082  127.7896   62.1344 H   0  0  0  0  0  0  0  0  0  0  0  0
  1  2  2  0
  2  3  1  0
  3  4  1  0
  4  5  2  0
  4  6  1  0
  6  7  1  0
  7  8  2  0
  7  9  1  0
  9 10  1  0
 10 11  1  0
 11 12  2  0
 12 13  1  0
 13 14  2  0
 14 15  1  0
 15 16  2  0
  9 17  1  0
 17 18  1  0
 18 19  2  0
 18 20  1  0
 20 21  2  0
 21 22  1  0
 22 23  2  0
 23 24  1  0
 24 25  2  0
 25 26  1  0
 26 27  2  0
  2 28  1  0
 28 29  1  0
 29 30  1  0
 30 31  2  0
 31 32  1  0
 32 33  2  0
 33 34  1  0
 34 35  2  0
 28 36  1  0
 36 37  1  0
 37 38  2  0
 37 39  1  0
 39 40  2  0
 40 41  1  0
 41 42  2  0
 42 43  1  0
 43 44  2  0
 44 45  1  0
 45 46  2  0
 16 11  1  0
 26 17  1  0
 35 30  1  0
 45 36  1  0
 25 20  1  0
 44 39  1  0
  3 47  1  0
  6 48  1  0
  9 49  1  6
 10 50  1  0
 10 51  1  0
 12 52  1  0
 13 53  1  0
 14 54  1  0
 15 55  1  0
 16 56  1  0
 21 57  1  0
 22 58  1  0
 23 59  1  0
 24 60  1  0
 28 61  1  1
 29 62  1  0
 29 63  1  0
 31 64  1  0
 32 65  1  0
 33 66  1  0
 34 67  1  0
 35 68  1  0
 40 69  1  0
 41 70  1  0
 42 71  1  0
 43 72  1  0
M  END
>  <Binding energies>  (1) 
[-10.92]

>  <Ligand effiencies>  (1) 
[-0.2275]

>  <Interactions>  (1) 
["V-A:PRO:540:CB:4885, V-A:ASP:366:CG:3213, V-A:PRO:540:CA:4883, V-B:GLU:543:CD:9880, V-A:GLU:543:CD:4908, V-A:ASP:366:CB:3212, V-A:TYR:531:CE2:4793, V-A:TYR:531:CZ:4794, V-B:TYR:539:CZ:9849, V-B:ALA:541:CB:9864, H-A:TYR:484:OH:4348, V-B:TYR:539:CE1:9847, V-B:GLU:543:CG:9879, V-A:LEU:475:CD1:4258, V-B:PRO:540:N:9856, H-A:GLY:454:N:4050, V-B:TYR:539:CD2:9846, V-B:TYR:539:CE2:9848, V-A:ILE:369:CD1:3239, V-A:LEU:363:CD1:3189, V-B:ILE:538:CB:9834, V-B:ILE:538:CG2:9835, H-A:TYR:531:OH:4795, H-B:TYR:539:OH:9850"]

$$$$
RR19_Rahimova_2017-again1
     RDKit          3D

 71 76  0  0  0  0  0  0  0  0999 V2000
  133.4550  124.7110   57.8240 O   0  0  0  0  0  0  0  0  0  0  0  0
  132.4640  125.0300   58.4850 C   0  0  0  0  0  0  0  0  0  0  0  0
  132.1850  124.6160   59.7440 N   0  0  0  0  0  0  0  0  0  0  0  0
  132.9000  123.9080   60.6680 C   0  0  0  0  0  0  0  0  0  0  0  0
  134.4020  123.1640   60.5410 S   0  0  0  0  0  0  0  0  0  0  0  0
  132.1820  123.9610   61.8500 N   0  0  0  0  0  0  0  0  0  0  0  0
  132.6130  124.0850   63.0630 C   0  0  0  0  0  0  0  0  0  0  0  0
  133.7670  124.2730   63.4960 O   0  0  0  0  0  0  0  0  0  0  0  0
  131.5200  123.9660   64.1790 C   0  0  2  0  0  0  0  0  0  0  0  0
  130.7950  122.5800   64.1220 C   0  0  0  0  0  0  0  0  0  0  0  0
  130.0690  122.2980   62.8090 C   0  0  0  0  0  0  0  0  0  0  0  0
  130.5620  121.3250   61.9360 C   0  0  0  0  0  0  0  0  0  0  0  0
  129.8920  121.0560   60.7450 C   0  0  0  0  0  0  0  0  0  0  0  0
  128.7320  121.7630   60.4310 C   0  0  0  0  0  0  0  0  0  0  0  0
  128.2380  122.7380   61.2960 C   0  0  0  0  0  0  0  0  0  0  0  0
  128.9090  123.0070   62.4850 C   0  0  0  0  0  0  0  0  0  0  0  0
  130.6010  125.1490   64.2470 N   0  0  0  0  0  0  0  0  0  0  0  0
  130.1070  125.6020   65.4350 C   0  0  0  0  0  0  0  0  0  0  0  0
  130.3120  125.1370   66.5560 O   0  0  0  0  0  0  0  0  0  0  0  0
  129.2650  126.7770   65.0890 C   0  0  0  0  0  0  0  0  0  0  0  0
  128.5120  127.6310   65.8960 C   0  0  0  0  0  0  0  0  0  0  0  0
  127.8050  128.6730   65.2880 C   0  0  0  0  0  0  0  0  0  0  0  0
  127.8590  128.8500   63.9000 C   0  0  0  0  0  0  0  0  0  0  0  0
  128.6200  127.9830   63.1080 C   0  0  0  0  0  0  0  0  0  0  0  0
  129.3170  126.9480   63.7330 C   0  0  0  0  0  0  0  0  0  0  0  0
  130.1930  125.8910   63.1720 C   0  0  0  0  0  0  0  0  0  0  0  0
  130.4870  125.7220   61.9900 O   0  0  0  0  0  0  0  0  0  0  0  0
  131.4020  125.9880   57.8680 C   0  0  2  0  0  0  0  0  0  0  0  0
  130.9650  127.1360   58.8230 C   0  0  0  0  0  0  0  0  0  0  0  0
  131.5800  128.4840   58.4900 C   0  0  0  0  0  0  0  0  0  0  0  0
  131.4290  129.5690   59.3780 C   0  0  0  0  0  0  0  0  0  0  0  0
  132.0740  130.7730   59.1220 C   0  0  0  0  0  0  0  0  0  0  0  0
  132.8900  130.9050   58.0050 C   0  0  0  0  0  0  0  0  0  0  0  0
  133.0780  129.8330   57.1420 C   0  0  0  0  0  0  0  0  0  0  0  0
  132.4420  128.6220   57.3810 C   0  0  0  0  0  0  0  0  0  0  0  0
  130.2310  125.2890   57.2600 N   0  0  0  0  0  0  0  0  0  0  0  0
  129.3650  124.5550   58.0150 C   0  0  0  0  0  0  0  0  0  0  0  0
  129.4510  124.3030   59.2170 O   0  0  0  0  0  0  0  0  0  0  0  0
  128.2890  124.1330   57.0850 C   0  0  0  0  0  0  0  0  0  0  0  0
  127.1350  123.3770   57.3040 C   0  0  0  0  0  0  0  0  0  0  0  0
  126.2720  123.1470   56.2270 C   0  0  0  0  0  0  0  0  0  0  0  0
  126.5690  123.6670   54.9600 C   0  0  0  0  0  0  0  0  0  0  0  0
  127.7310  124.4190   54.7600 C   0  0  0  0  0  0  0  0  0  0  0  0
  128.5780  124.6400   55.8470 C   0  0  0  0  0  0  0  0  0  0  0  0
  129.8430  125.4070   55.9540 C   0  0  0  0  0  0  0  0  0  0  0  0
  130.4150  126.0280   55.0580 O   0  0  0  0  0  0  0  0  0  0  0  0
  131.3120  124.9700   60.1050 H   0  0  0  0  0  0  0  0  0  0  0  0
  132.0409  123.9944   65.1474 H   0  0  0  0  0  0  0  0  0  0  0  0
  131.5475  121.7923   64.2744 H   0  0  0  0  0  0  0  0  0  0  0  0
  130.0250  122.5976   64.9073 H   0  0  0  0  0  0  0  0  0  0  0  0
  131.4785  120.7719   62.1891 H   0  0  0  0  0  0  0  0  0  0  0  0
  130.2760  120.2897   60.0556 H   0  0  0  0  0  0  0  0  0  0  0  0
  128.2015  121.5492   59.4914 H   0  0  0  0  0  0  0  0  0  0  0  0
  127.3227  123.2918   61.0401 H   0  0  0  0  0  0  0  0  0  0  0  0
  128.5263  123.7779   63.1701 H   0  0  0  0  0  0  0  0  0  0  0  0
  128.4755  127.4876   66.9860 H   0  0  0  0  0  0  0  0  0  0  0  0
  127.2030  129.3576   65.9036 H   0  0  0  0  0  0  0  0  0  0  0  0
  127.3011  129.6736   63.4305 H   0  0  0  0  0  0  0  0  0  0  0  0
  128.6678  128.1143   62.0169 H   0  0  0  0  0  0  0  0  0  0  0  0
  131.9335  126.4668   57.0324 H   0  0  0  0  0  0  0  0  0  0  0  0
  129.8705  127.2325   58.7698 H   0  0  0  0  0  0  0  0  0  0  0  0
  131.3178  126.8649   59.8290 H   0  0  0  0  0  0  0  0  0  0  0  0
  130.8001  129.4622   60.2741 H   0  0  0  0  0  0  0  0  0  0  0  0
  131.9382  131.6240   59.8056 H   0  0  0  0  0  0  0  0  0  0  0  0
  133.3899  131.8638   57.8031 H   0  0  0  0  0  0  0  0  0  0  0  0
  133.7334  129.9438   56.2656 H   0  0  0  0  0  0  0  0  0  0  0  0
  132.6100  127.7700   56.7058 H   0  0  0  0  0  0  0  0  0  0  0  0
  126.9097  122.9714   58.3013 H   0  0  0  0  0  0  0  0  0  0  0  0
  125.3565  122.5555   56.3754 H   0  0  0  0  0  0  0  0  0  0  0  0
  125.8848  123.4828   54.1187 H   0  0  0  0  0  0  0  0  0  0  0  0
  127.9722  124.8274   53.7675 H   0  0  0  0  0  0  0  0  0  0  0  0
  1  2  2  0
  2  3  1  0
  3  4  1  0
  4  5  2  0
  4  6  1  0
  6  7  2  0
  7  8  1  0
  7  9  1  0
  9 10  1  0
 10 11  1  0
 11 12  2  0
 12 13  1  0
 13 14  2  0
 14 15  1  0
 15 16  2  0
  9 17  1  0
 17 18  1  0
 18 19  2  0
 18 20  1  0
 20 21  2  0
 21 22  1  0
 22 23  2  0
 23 24  1  0
 24 25  2  0
 25 26  1  0
 26 27  2  0
  2 28  1  0
 28 29  1  0
 29 30  1  0
 30 31  2  0
 31 32  1  0
 32 33  2  0
 33 34  1  0
 34 35  2  0
 28 36  1  0
 36 37  1  0
 37 38  2  0
 37 39  1  0
 39 40  2  0
 40 41  1  0
 41 42  2  0
 42 43  1  0
 43 44  2  0
 44 45  1  0
 45 46  2  0
 16 11  1  0
 26 17  1  0
 35 30  1  0
 45 36  1  0
 25 20  1  0
 44 39  1  0
  3 47  1  0
  9 48  1  1
 10 49  1  0
 10 50  1  0
 12 51  1  0
 13 52  1  0
 14 53  1  0
 15 54  1  0
 16 55  1  0
 21 56  1  0
 22 57  1  0
 23 58  1  0
 24 59  1  0
 28 60  1  6
 29 61  1  0
 29 62  1  0
 31 63  1  0
 32 64  1  0
 33 65  1  0
 34 66  1  0
 35 67  1  0
 40 68  1  0
 41 69  1  0
 42 70  1  0
 43 71  1  0
M  CHG  1   8  -1
M  END
>  <Binding energies>  (1) 
[-10.09]

>  <Ligand effiencies>  (1) 
[-0.21468085106382978]

>  <Interactions>  (1) 
["V-A:PRO:540:CB:4885, V-A:ASP:366:CG:3213, V-A:PRO:540:CA:4883, V-A:GLU:543:CD:4908, V-A:ASP:366:CB:3212, V-A:TYR:531:CE2:4793, V-A:TYR:531:CZ:4794, V-B:TYR:539:CZ:9849, V-B:ALA:541:CB:9864, H-A:TYR:484:OH:4348, V-B:TYR:539:CE1:9847, V-B:GLU:543:CG:9879, V-A:LEU:475:CD1:4258, H-A:GLY:454:N:4050, V-B:TYR:539:CD2:9846, V-B:PRO:540:CA:9855, V-B:TYR:539:CE2:9848, V-A:ILE:369:CD1:3239, V-A:ILE:369:CG2:3237, V-A:LEU:363:CD1:3189, V-B:ILE:538:CB:9834, V-B:ILE:538:CG2:9835, H-A:TYR:531:OH:4795, H-B:TYR:539:OH:9850, V-A:ILE:369:CB:3236, V-A:ILE:369:CG1:3238"]

$$$$
RR1_Rahimova_2017
     RDKit          3D

 68 71  0  0  0  0  0  0  0  0999 V2000
  131.8870  132.4590   55.5080 C   0  0  0  0  0  0  0  0  0  0  0  0
  130.9900  132.8660   56.5360 O   0  0  0  0  0  0  0  0  0  0  0  0
  130.8200  132.0570   57.6420 C   0  0  0  0  0  0  0  0  0  0  0  0
  129.7030  132.1010   58.4910 C   0  0  0  0  0  0  0  0  0  0  0  0
  129.6210  131.2500   59.5890 C   0  0  0  0  0  0  0  0  0  0  0  0
  130.6450  130.3390   59.8540 C   0  0  0  0  0  0  0  0  0  0  0  0
  130.4920  129.5540   61.0130 N   0  0  0  0  0  0  0  0  0  0  0  0
  130.2060  128.2390   61.1230 C   0  0  0  0  0  0  0  0  0  0  0  0
  129.9530  127.4940   60.1760 O   0  0  0  0  0  0  0  0  0  0  0  0
  130.2070  127.7030   62.5640 C   0  0  0  0  0  0  0  0  0  0  0  0
  128.6290  126.9790   63.1320 S   0  0  0  0  0  0  0  0  0  0  0  0
  129.1610  126.4670   64.7310 C   0  0  0  0  0  0  0  0  0  0  0  0
  128.8650  127.0950   65.8410 N   0  0  0  0  0  0  0  0  0  0  0  0
  129.4520  126.3670   66.7850 C   0  0  0  0  0  0  0  0  0  0  0  0
  129.3630  126.7170   68.2430 C   0  0  0  0  0  0  0  0  0  0  0  0
  129.0660  125.7470   69.2140 C   0  0  0  0  0  0  0  0  0  0  0  0
  128.9860  126.1030   70.5620 C   0  0  0  0  0  0  0  0  0  0  0  0
  129.2070  127.4340   70.9120 C   0  0  0  0  0  0  0  0  0  0  0  0
  129.4950  128.3970   70.0000 N   0  0  0  0  0  0  0  0  0  0  0  0
  129.5700  128.0300   68.6950 C   0  0  0  0  0  0  0  0  0  0  0  0
  130.1170  125.3110   66.3540 N   0  0  0  0  0  0  0  0  0  0  0  0
  129.9320  125.3740   65.0320 N   0  0  0  0  0  0  0  0  0  0  0  0
  130.4970  124.3500   64.1520 C   0  0  0  0  0  0  0  0  0  0  0  0
  130.2920  124.6000   62.6480 C   0  0  0  0  0  0  0  0  0  0  0  0
  131.2160  125.0230   61.9450 O   0  0  0  0  0  0  0  0  0  0  0  0
  129.0550  124.3270   62.1900 N   0  0  0  0  0  0  0  0  0  0  0  0
  128.8360  124.3870   60.8210 N   0  0  0  0  0  0  0  0  0  0  0  0
  128.1760  123.3610   60.2420 C   0  0  0  0  0  0  0  0  0  0  0  0
  127.6660  122.4250   60.8670 O   0  0  0  0  0  0  0  0  0  0  0  0
  128.0600  123.4240   58.7330 C   0  0  0  0  0  0  0  0  0  0  0  0
  128.8910  124.2810   58.0030 C   0  0  0  0  0  0  0  0  0  0  0  0
  128.7930  124.3640   56.6180 C   0  0  0  0  0  0  0  0  0  0  0  0
  127.8510  123.5930   55.9180 C   0  0  0  0  0  0  0  0  0  0  0  0
  127.6930  123.6380   54.5440 O   0  0  0  0  0  0  0  0  0  0  0  0
  126.7950  124.5820   53.9720 C   0  0  0  0  0  0  0  0  0  0  0  0
  127.0040  122.7340   56.6310 C   0  0  0  0  0  0  0  0  0  0  0  0
  126.0800  122.0120   55.8950 O   0  0  0  0  0  0  0  0  0  0  0  0
  124.7170  122.4230   55.8790 C   0  0  0  0  0  0  0  0  0  0  0  0
  127.1180  122.6550   58.0300 C   0  0  0  0  0  0  0  0  0  0  0  0
  131.7630  130.2910   59.0070 C   0  0  0  0  0  0  0  0  0  0  0  0
  131.8400  131.1430   57.9100 C   0  0  0  0  0  0  0  0  0  0  0  0
  132.7999  132.0448   55.9608 H   0  0  0  0  0  0  0  0  0  0  0  0
  131.4060  131.6910   54.8845 H   0  0  0  0  0  0  0  0  0  0  0  0
  132.1482  133.3268   54.8845 H   0  0  0  0  0  0  0  0  0  0  0  0
  128.8885  132.8117   58.2874 H   0  0  0  0  0  0  0  0  0  0  0  0
  128.7443  131.2954   60.2519 H   0  0  0  0  0  0  0  0  0  0  0  0
  130.5790  130.0670   61.8780 H   0  0  0  0  0  0  0  0  0  0  0  0
  130.9824  126.9261   62.6365 H   0  0  0  0  0  0  0  0  0  0  0  0
  130.3913  128.5734   63.2109 H   0  0  0  0  0  0  0  0  0  0  0  0
  128.8958  124.7031   68.9118 H   0  0  0  0  0  0  0  0  0  0  0  0
  128.7539  125.3504   71.3299 H   0  0  0  0  0  0  0  0  0  0  0  0
  129.1453  127.7161   71.9734 H   0  0  0  0  0  0  0  0  0  0  0  0
  129.8061  128.8045   67.9504 H   0  0  0  0  0  0  0  0  0  0  0  0
  131.5786  124.2939   64.3443 H   0  0  0  0  0  0  0  0  0  0  0  0
  129.9631  123.4167   64.3840 H   0  0  0  0  0  0  0  0  0  0  0  0
  128.3580  123.7920   62.6910 H   0  0  0  0  0  0  0  0  0  0  0  0
  129.5930  124.8580   60.3470 H   0  0  0  0  0  0  0  0  0  0  0  0
  129.6324  124.8979   58.5320 H   0  0  0  0  0  0  0  0  0  0  0  0
  129.4607  125.0410   56.0650 H   0  0  0  0  0  0  0  0  0  0  0  0
  126.2763  125.1273   54.7742 H   0  0  0  0  0  0  0  0  0  0  0  0
  127.3580  125.2933   53.3498 H   0  0  0  0  0  0  0  0  0  0  0  0
  126.0565  124.0552   53.3498 H   0  0  0  0  0  0  0  0  0  0  0  0
  124.3548  122.5322   56.9119 H   0  0  0  0  0  0  0  0  0  0  0  0
  124.6308  123.3871   55.3564 H   0  0  0  0  0  0  0  0  0  0  0  0
  124.1123  121.6673   55.3564 H   0  0  0  0  0  0  0  0  0  0  0  0
  126.4550  121.9761   58.5863 H   0  0  0  0  0  0  0  0  0  0  0  0
  132.5776  129.5803   59.2104 H   0  0  0  0  0  0  0  0  0  0  0  0
  132.7155  131.0957   57.2457 H   0  0  0  0  0  0  0  0  0  0  0  0
  1  2  1  0
  2  3  1  0
  3  4  2  0
  4  5  1  0
  5  6  2  0
  6  7  1  0
  7  8  1  0
  8  9  2  0
  8 10  1  0
 10 11  1  0
 11 12  1  0
 12 13  2  0
 13 14  1  0
 14 15  1  0
 15 16  2  0
 16 17  1  0
 17 18  2  0
 18 19  1  0
 19 20  2  0
 14 21  2  0
 21 22  1  0
 22 23  1  0
 23 24  1  0
 24 25  2  0
 24 26  1  0
 26 27  1  0
 27 28  1  0
 28 29  2  0
 28 30  1  0
 30 31  2  0
 31 32  1  0
 32 33  2  0
 33 34  1  0
 34 35  1  0
 33 36  1  0
 36 37  1  0
 37 38  1  0
 36 39  2  0
  6 40  1  0
 40 41  2  0
 41  3  1  0
 22 12  1  0
 39 30  1  0
 20 15  1  0
  1 42  1  0
  1 43  1  0
  1 44  1  0
  4 45  1  0
  5 46  1  0
  7 47  1  0
 10 48  1  0
 10 49  1  0
 16 50  1  0
 17 51  1  0
 18 52  1  0
 20 53  1  0
 23 54  1  0
 23 55  1  0
 26 56  1  0
 27 57  1  0
 31 58  1  0
 32 59  1  0
 35 60  1  0
 35 61  1  0
 35 62  1  0
 38 63  1  0
 38 64  1  0
 38 65  1  0
 39 66  1  0
 40 67  1  0
 41 68  1  0
M  END
>  <Binding energies>  (1) 
[-8.83]

>  <Ligand effiencies>  (1) 
[-0.20068181818181818]

>  <Interactions>  (1) 
["V-A:PRO:540:CB:4885, V-B:GLU:543:C:9874, V-B:HIS:456:CE1:9040, H-A:GLU:543:OE1:4909, V-A:PRO:540:CA:4883, V-B:GLU:543:CD:9880, V-A:GLU:543:CD:4908, V-A:ILE:538:CD1:4865, V-A:TYR:539:C:4867, V-A:PRO:540:N:4884, H-B:GLU:543:OE2:9882, V-B:TYR:539:CZ:9849, H-A:TYR:484:OH:4348, V-A:HIS:456:CE1:4069, V-B:TYR:539:CE1:9847, V-B:GLU:543:CG:9879, V-B:PRO:540:N:9856, V-B:TYR:539:CD2:9846, V-B:PRO:540:CA:9855, V-B:TYR:539:C:9839, V-B:TYR:539:CE2:9848, V-A:PRO:540:CD:4887, H-A:TYR:539:N:4870, V-A:ILE:538:CG2:4863, V-A:LEU:363:CD1:3189, H-B:ALA:541:N:9863, V-B:PRO:540:CD:9859, V-B:PRO:540:CB:9857, H-A:HIS:456:NE2:4070, V-A:HIS:456:CD2:4068, H-B:HIS:456:NE2:9041, V-B:LEU:363:CD1:8160, V-B:ILE:538:CB:9834, V-B:MET:535:CG:9805, V-B:ILE:538:CA:9832, V-B:ILE:538:CG2:9835, H-B:TYR:539:N:9842, V-B:MET:535:CB:9804"]

$$$$
RR20_Rahimova_2017
     RDKit          3D

 68 73  0  0  0  0  0  0  0  0999 V2000
  133.9460  118.6270   61.1170 C   0  0  0  0  0  0  0  0  0  0  0  0
  132.7210  119.5190   61.0290 C   0  0  0  0  0  0  0  0  0  0  0  0
  131.4810  119.0410   61.4560 C   0  0  0  0  0  0  0  0  0  0  0  0
  130.3580  119.8600   61.3840 C   0  0  0  0  0  0  0  0  0  0  0  0
  130.4620  121.1590   60.8720 C   0  0  0  0  0  0  0  0  0  0  0  0
  129.2330  122.0400   60.8220 C   0  0  0  0  0  0  0  0  0  0  0  0
  128.1920  121.5440   60.3840 O   0  0  0  0  0  0  0  0  0  0  0  0
  129.3140  123.3270   61.2680 N   0  0  0  0  0  0  0  0  0  0  0  0
  128.9820  124.4680   60.3990 C   0  0  0  0  0  0  0  0  0  0  0  0
  129.0400  125.7070   61.2770 C   0  0  0  0  0  0  0  0  0  0  0  0
  129.0320  125.1350   62.6620 C   0  0  0  0  0  0  0  0  0  0  0  0
  128.9850  125.8000   63.8880 C   0  0  0  0  0  0  0  0  0  0  0  0
  129.1520  125.0970   65.0880 C   0  0  0  0  0  0  0  0  0  0  0  0
  129.0940  125.8120   66.4090 C   0  0  0  0  0  0  0  0  0  0  0  0
  129.1890  125.0940   67.5170 N   0  0  0  0  0  0  0  0  0  0  0  0
  129.1460  125.8200   68.6050 C   0  0  0  0  0  0  0  0  0  0  0  0
  129.2240  125.3910   69.9210 N   0  0  0  0  0  0  0  0  0  0  0  0
  129.4790  126.1530   71.0130 C   0  0  0  0  0  0  0  0  0  0  0  0
  129.6590  127.3720   70.9750 O   0  0  0  0  0  0  0  0  0  0  0  0
  129.5200  125.4550   72.3930 C   0  0  0  0  0  0  0  0  0  0  0  0
  128.6210  126.0810   73.3810 N   0  0  0  0  0  0  0  0  0  0  0  0
  129.2470  127.2220   74.0660 C   0  0  0  0  0  0  0  0  0  0  0  0
  128.3770  127.6670   75.2630 C   0  0  0  0  0  0  0  0  0  0  0  0
  126.8910  127.7700   74.9170 C   0  0  0  0  0  0  0  0  0  0  0  0
  125.9920  128.4070   75.7790 C   0  0  0  0  0  0  0  0  0  0  0  0
  124.6330  128.4680   75.4820 C   0  0  0  0  0  0  0  0  0  0  0  0
  124.1550  127.8900   74.3100 C   0  0  0  0  0  0  0  0  0  0  0  0
  125.0400  127.2600   73.4380 C   0  0  0  0  0  0  0  0  0  0  0  0
  126.4080  127.1910   73.7250 C   0  0  0  0  0  0  0  0  0  0  0  0
  127.3870  126.5520   72.7410 C   0  0  0  0  0  0  0  0  0  0  0  0
  128.9650  127.5080   68.3280 S   0  0  0  0  0  0  0  0  0  0  0  0
  128.9380  127.2000   66.6080 C   0  0  0  0  0  0  0  0  0  0  0  0
  128.7440  128.3380   65.6290 C   0  0  0  0  0  0  0  0  0  0  0  0
  129.4220  123.7210   65.0260 C   0  0  0  0  0  0  0  0  0  0  0  0
  129.4880  123.0570   63.8010 C   0  0  0  0  0  0  0  0  0  0  0  0
  129.2350  123.7560   62.6130 C   0  0  0  0  0  0  0  0  0  0  0  0
  131.7140  121.6420   60.4730 C   0  0  0  0  0  0  0  0  0  0  0  0
  132.8390  120.8230   60.5460 C   0  0  0  0  0  0  0  0  0  0  0  0
  134.1933  118.4469   62.1736 H   0  0  0  0  0  0  0  0  0  0  0  0
  133.7375  117.6678   60.6206 H   0  0  0  0  0  0  0  0  0  0  0  0
  134.7949  119.1199   60.6206 H   0  0  0  0  0  0  0  0  0  0  0  0
  131.3914  118.0176   61.8492 H   0  0  0  0  0  0  0  0  0  0  0  0
  129.3839  119.4849   61.7311 H   0  0  0  0  0  0  0  0  0  0  0  0
  129.7120  124.5475   59.5800 H   0  0  0  0  0  0  0  0  0  0  0  0
  127.9875  124.3473   59.9448 H   0  0  0  0  0  0  0  0  0  0  0  0
  129.9596  126.2813   61.0911 H   0  0  0  0  0  0  0  0  0  0  0  0
  128.2145  126.4101   61.0921 H   0  0  0  0  0  0  0  0  0  0  0  0
  128.8152  126.8865   63.9122 H   0  0  0  0  0  0  0  0  0  0  0  0
  129.0820  124.4020   70.0750 H   0  0  0  0  0  0  0  0  0  0  0  0
  129.2217  124.4042   72.2636 H   0  0  0  0  0  0  0  0  0  0  0  0
  130.5466  125.5453   72.7777 H   0  0  0  0  0  0  0  0  0  0  0  0
  130.2421  126.9263   74.4298 H   0  0  0  0  0  0  0  0  0  0  0  0
  129.3400  128.0591   73.3584 H   0  0  0  0  0  0  0  0  0  0  0  0
  128.4977  126.9350   76.0752 H   0  0  0  0  0  0  0  0  0  0  0  0
  128.7156  128.6705   75.5603 H   0  0  0  0  0  0  0  0  0  0  0  0
  126.3646  128.8670   76.7061 H   0  0  0  0  0  0  0  0  0  0  0  0
  123.9395  128.9715   76.1716 H   0  0  0  0  0  0  0  0  0  0  0  0
  123.0816  127.9304   74.0728 H   0  0  0  0  0  0  0  0  0  0  0  0
  124.6578  126.8100   72.5099 H   0  0  0  0  0  0  0  0  0  0  0  0
  126.8920  125.6947   72.2615 H   0  0  0  0  0  0  0  0  0  0  0  0
  127.6702  127.3248   72.0113 H   0  0  0  0  0  0  0  0  0  0  0  0
  128.5843  129.2749   66.1828 H   0  0  0  0  0  0  0  0  0  0  0  0
  129.6387  128.4340   64.9964 H   0  0  0  0  0  0  0  0  0  0  0  0
  127.8680  128.1321   64.9964 H   0  0  0  0  0  0  0  0  0  0  0  0
  129.5839  123.1580   65.9570 H   0  0  0  0  0  0  0  0  0  0  0  0
  129.7382  121.9864   63.7676 H   0  0  0  0  0  0  0  0  0  0  0  0
  131.8100  122.6725   60.1003 H   0  0  0  0  0  0  0  0  0  0  0  0
  133.8192  121.2039   60.2232 H   0  0  0  0  0  0  0  0  0  0  0  0
  1  2  1  0
  2  3  2  0
  3  4  1  0
  4  5  2  0
  5  6  1  0
  6  7  2  0
  6  8  1  0
  8  9  1  0
  9 10  1  0
 10 11  1  0
 11 12  2  0
 12 13  1  0
 13 14  1  0
 14 15  1  0
 15 16  2  0
 16 17  1  0
 17 18  1  0
 18 19  2  0
 18 20  1  0
 20 21  1  0
 21 22  1  0
 22 23  1  0
 23 24  1  0
 24 25  2  0
 25 26  1  0
 26 27  2  0
 27 28  1  0
 28 29  2  0
 29 30  1  0
 16 31  1  0
 31 32  1  0
 32 33  1  0
 13 34  2  0
 34 35  1  0
 35 36  2  0
  5 37  1  0
 37 38  2  0
 38  2  1  0
 36  8  1  0
 36 11  1  0
 32 14  2  0
 30 21  1  0
 29 24  1  0
  1 39  1  0
  1 40  1  0
  1 41  1  0
  3 42  1  0
  4 43  1  0
  9 44  1  0
  9 45  1  0
 10 46  1  0
 10 47  1  0
 12 48  1  0
 17 49  1  0
 20 50  1  0
 20 51  1  0
 22 52  1  0
 22 53  1  0
 23 54  1  0
 23 55  1  0
 25 56  1  0
 26 57  1  0
 27 58  1  0
 28 59  1  0
 30 60  1  0
 30 61  1  0
 33 62  1  0
 33 63  1  0
 33 64  1  0
 34 65  1  0
 35 66  1  0
 37 67  1  0
 38 68  1  0
M  END
>  <Binding energies>  (1) 
[-10.9]

>  <Ligand effiencies>  (1) 
[-0.2794871794871795]

>  <Interactions>  (1) 
["V-B:GLU:543:C:9874, V-B:GLU:543:CB:9878, V-B:GLY:544:C:9884, V-B:HIS:456:CE1:9040, V-B:GLU:543:CD:9880, V-A:GLU:543:CD:4908, V-B:ARG:545:CA:9891, V-A:GLU:543:CG:4907, V-B:ALA:541:CB:9864, V-A:HIS:456:CE1:4069, V-B:GLU:543:CG:9879, V-A:LEU:475:CD1:4258, V-A:TYR:484:CE1:4345, V-B:TYR:539:CD2:9846, V-B:TYR:539:CE2:9848, V-A:ILE:369:CD1:3239, V-A:ILE:369:CG2:3237, H-B:ALA:541:N:9863, H-A:HIS:456:NE2:4070, V-A:HIS:456:CD2:4068, H-B:LYS:547:NZ:9923, V-B:GLU:543:CA:9876, V-B:VAL:457:CA:9046, V-B:HIS:456:CG:9037, V-B:VAL:457:C:9044, V-B:VAL:458:CG2:9058, V-B:HIS:456:CB:9036, V-B:HIS:456:C:9032, V-B:HIS:456:CA:9034, V-A:GLU:543:CB:4906, V-A:PRO:482:CB:4326, V-A:PRO:482:CG:4327, V-A:TRP:381:CZ2:3370, V-A:TRP:381:CH2:3372, V-A:SER:385:CB:3409, V-A:SER:385:C:3405, V-A:SER:385:CA:3407, H-B:GLU:543:O:9875, V-B:ARG:545:C:9889"]

$$$$
RR20_Rahimova_2017-again1
     RDKit          3D

 68 73  0  0  0  0  0  0  0  0999 V2000
  123.6780  130.2150   76.4130 C   0  0  0  0  0  0  0  0  0  0  0  0
  124.6450  129.3730   75.6010 C   0  0  0  0  0  0  0  0  0  0  0  0
  124.2090  128.1840   75.0140 C   0  0  0  0  0  0  0  0  0  0  0  0
  125.0940  127.4150   74.2630 C   0  0  0  0  0  0  0  0  0  0  0  0
  126.4240  127.8210   74.1030 C   0  0  0  0  0  0  0  0  0  0  0  0
  127.3650  126.9810   73.2690 C   0  0  0  0  0  0  0  0  0  0  0  0
  127.3970  125.7680   73.4860 O   0  0  0  0  0  0  0  0  0  0  0  0
  128.1160  127.5830   72.3000 N   0  0  0  0  0  0  0  0  0  0  0  0
  129.3370  128.3360   72.6310 C   0  0  0  0  0  0  0  0  0  0  0  0
  129.9740  128.7250   71.3070 C   0  0  0  0  0  0  0  0  0  0  0  0
  129.2640  127.8400   70.3250 C   0  0  0  0  0  0  0  0  0  0  0  0
  129.4860  127.6950   68.9560 C   0  0  0  0  0  0  0  0  0  0  0  0
  128.6060  126.9390   68.1660 C   0  0  0  0  0  0  0  0  0  0  0  0
  128.8400  126.7860   66.6900 C   0  0  0  0  0  0  0  0  0  0  0  0
  128.6630  127.8450   65.9150 N   0  0  0  0  0  0  0  0  0  0  0  0
  128.8800  127.6200   64.6430 C   0  0  0  0  0  0  0  0  0  0  0  0
  128.7470  128.4750   63.5800 N   0  0  0  0  0  0  0  0  0  0  0  0
  128.6030  128.1100   62.3510 C   0  0  0  0  0  0  0  0  0  0  0  0
  128.4730  126.9850   61.8320 O   0  0  0  0  0  0  0  0  0  0  0  0
  128.5740  129.2840   61.3500 C   0  0  0  0  0  0  0  0  0  0  0  0
  129.6270  130.3550   61.7580 N   0  0  2  0  0  0  0  0  0  0  0  0
  129.0670  131.7910   61.6960 C   0  0  0  0  0  0  0  0  0  0  0  0
  128.7350  132.1630   60.2400 C   0  0  0  0  0  0  0  0  0  0  0  0
  129.8690  131.8560   59.2670 C   0  0  0  0  0  0  0  0  0  0  0  0
  129.9080  132.4930   58.0210 C   0  0  0  0  0  0  0  0  0  0  0  0
  130.9010  132.2020   57.0900 C   0  0  0  0  0  0  0  0  0  0  0  0
  131.8770  131.2620   57.3970 C   0  0  0  0  0  0  0  0  0  0  0  0
  131.8600  130.6290   58.6370 C   0  0  0  0  0  0  0  0  0  0  0  0
  130.8750  130.9140   59.5890 C   0  0  0  0  0  0  0  0  0  0  0  0
  130.9440  130.2210   60.9560 C   0  0  0  0  0  0  0  0  0  0  0  0
  129.3170  125.9860   64.3060 S   0  0  0  0  0  0  0  0  0  0  0  0
  129.2380  125.6170   66.0120 C   0  0  0  0  0  0  0  0  0  0  0  0
  129.5890  124.2320   66.5160 C   0  0  0  0  0  0  0  0  0  0  0  0
  127.4780  126.3760   68.7760 C   0  0  0  0  0  0  0  0  0  0  0  0
  127.2440  126.5350   70.1430 C   0  0  0  0  0  0  0  0  0  0  0  0
  128.1710  127.2250   70.9340 C   0  0  0  0  0  0  0  0  0  0  0  0
  126.8450  129.0310   74.6700 C   0  0  0  0  0  0  0  0  0  0  0  0
  125.9610  129.8000   75.4200 C   0  0  0  0  0  0  0  0  0  0  0  0
  123.8628  130.0541   77.4853 H   0  0  0  0  0  0  0  0  0  0  0  0
  123.8249  131.2780   76.1711 H   0  0  0  0  0  0  0  0  0  0  0  0
  122.6454  129.9233   76.1711 H   0  0  0  0  0  0  0  0  0  0  0  0
  123.1675  127.8550   75.1446 H   0  0  0  0  0  0  0  0  0  0  0  0
  124.7461  126.4834   73.7929 H   0  0  0  0  0  0  0  0  0  0  0  0
  129.0835  129.2362   73.2101 H   0  0  0  0  0  0  0  0  0  0  0  0
  130.0243  127.7323   73.2419 H   0  0  0  0  0  0  0  0  0  0  0  0
  129.8006  129.7874   71.0807 H   0  0  0  0  0  0  0  0  0  0  0  0
  131.0668  128.6000   71.2956 H   0  0  0  0  0  0  0  0  0  0  0  0
  130.3585  128.1774   68.4911 H   0  0  0  0  0  0  0  0  0  0  0  0
  128.8064  128.9096   60.3421 H   0  0  0  0  0  0  0  0  0  0  0  0
  127.5730  129.7400   61.3560 H   0  0  0  0  0  0  0  0  0  0  0  0
  129.8450  130.1740   62.7290 H   0  0  0  0  0  0  0  0  0  0  0  0
  128.1532  131.8525   62.3053 H   0  0  0  0  0  0  0  0  0  0  0  0
  129.8218  132.4905   62.0847 H   0  0  0  0  0  0  0  0  0  0  0  0
  127.8447  131.5967   59.9289 H   0  0  0  0  0  0  0  0  0  0  0  0
  128.5651  133.2494   60.2112 H   0  0  0  0  0  0  0  0  0  0  0  0
  129.1383  133.2386   57.7727 H   0  0  0  0  0  0  0  0  0  0  0  0
  130.9130  132.7136   56.1163 H   0  0  0  0  0  0  0  0  0  0  0  0
  132.6599  131.0189   56.6635 H   0  0  0  0  0  0  0  0  0  0  0  0
  132.6382  129.8884   58.8735 H   0  0  0  0  0  0  0  0  0  0  0  0
  131.1540  129.1527   60.7993 H   0  0  0  0  0  0  0  0  0  0  0  0
  131.7396  130.7096   61.5376 H   0  0  0  0  0  0  0  0  0  0  0  0
  129.5892  124.2312   67.6160 H   0  0  0  0  0  0  0  0  0  0  0  0
  128.8457  123.5090   66.1490 H   0  0  0  0  0  0  0  0  0  0  0  0
  130.5869  123.9502   66.1490 H   0  0  0  0  0  0  0  0  0  0  0  0
  126.7651  125.7994   68.1683 H   0  0  0  0  0  0  0  0  0  0  0  0
  126.3330  126.1190   70.5981 H   0  0  0  0  0  0  0  0  0  0  0  0
  127.8794  129.3746   74.5215 H   0  0  0  0  0  0  0  0  0  0  0  0
  126.2995  130.7448   75.8704 H   0  0  0  0  0  0  0  0  0  0  0  0
  1  2  1  0
  2  3  2  0
  3  4  1  0
  4  5  2  0
  5  6  1  0
  6  7  2  0
  6  8  1  0
  8  9  1  0
  9 10  1  0
 10 11  1  0
 11 12  2  0
 12 13  1  0
 13 14  1  0
 14 15  1  0
 15 16  2  0
 16 17  1  0
 17 18  2  0
 18 19  1  0
 18 20  1  0
 20 21  1  0
 21 22  1  0
 22 23  1  0
 23 24  1  0
 24 25  2  0
 25 26  1  0
 26 27  2  0
 27 28  1  0
 28 29  2  0
 29 30  1  0
 16 31  1  0
 31 32  1  0
 32 33  1  0
 13 34  2  0
 34 35  1  0
 35 36  2  0
  5 37  1  0
 37 38  2  0
 38  2  1  0
 36  8  1  0
 36 11  1  0
 32 14  2  0
 30 21  1  0
 29 24  1  0
  1 39  1  0
  1 40  1  0
  1 41  1  0
  3 42  1  0
  4 43  1  0
  9 44  1  0
  9 45  1  0
 10 46  1  0
 10 47  1  0
 12 48  1  0
 20 49  1  0
 20 50  1  0
 21 51  1  1
 22 52  1  0
 22 53  1  0
 23 54  1  0
 23 55  1  0
 25 56  1  0
 26 57  1  0
 27 58  1  0
 28 59  1  0
 30 60  1  0
 30 61  1  0
 33 62  1  0
 33 63  1  0
 33 64  1  0
 34 65  1  0
 35 66  1  0
 37 67  1  0
 38 68  1  0
M  CHG  2  19  -1  21   1
M  END
>  <Binding energies>  (1) 
[-10.57]

>  <Ligand effiencies>  (1) 
[-0.27102564102564103]

>  <Interactions>  (1) 
["V-A:PRO:540:CB:4885, V-B:GLU:543:C:9874, V-A:ALA:541:CB:4892, V-B:GLU:543:CB:9878, V-B:GLY:544:C:9884, V-B:HIS:456:CE1:9040, H-A:GLU:543:OE1:4909, V-A:PRO:540:CA:4883, V-B:GLU:543:CD:9880, V-A:GLU:543:CD:4908, V-A:TYR:539:C:4867, V-A:PRO:540:N:4884, V-A:HIS:456:CE1:4069, V-B:GLU:543:CG:9879, V-A:TYR:484:CE1:4345, V-A:TYR:484:CZ:4347, V-A:PRO:540:CD:4887, V-A:HIS:456:CD2:4068, H-B:LYS:547:NZ:9923, V-B:GLU:543:CA:9876, V-B:HIS:456:CD2:9039, V-B:LYS:471:CG:9189, V-B:VAL:457:CA:9046, V-B:HIS:456:CG:9037, V-B:VAL:457:C:9044, V-B:VAL:458:CG2:9058, V-B:HIS:456:CB:9036, V-B:HIS:456:C:9032, V-B:LYS:471:CE:9191, V-B:HIS:456:CA:9034, V-A:GLU:543:C:4902, V-B:LYS:471:C:9184, V-B:LYS:471:CD:9190, V-B:LYS:471:CB:9188"]

$$$$
RR21_Rahimova_2017
     RDKit          3D

 62 67  0  0  0  0  0  0  0  0999 V2000
  124.0000  130.6170   63.2170 C   0  0  0  0  0  0  0  0  0  0  0  0
  124.1340  130.6120   64.6350 O   0  0  0  0  0  0  0  0  0  0  0  0
  125.0810  129.7940   65.2210 C   0  0  0  0  0  0  0  0  0  0  0  0
  126.3620  129.5630   64.6920 C   0  0  0  0  0  0  0  0  0  0  0  0
  127.2610  128.7240   65.3490 C   0  0  0  0  0  0  0  0  0  0  0  0
  126.9070  128.0980   66.5500 C   0  0  0  0  0  0  0  0  0  0  0  0
  127.8770  127.2000   67.2560 C   0  0  0  0  0  0  0  0  0  0  0  0
  127.9250  127.1960   68.5740 N   0  0  0  0  0  0  0  0  0  0  0  0
  128.8700  126.3090   68.9210 N   0  0  0  0  0  0  0  0  0  0  0  0
  129.1690  126.0400   70.2820 C   0  0  0  0  0  0  0  0  0  0  0  0
  129.6630  124.7860   70.6740 C   0  0  0  0  0  0  0  0  0  0  0  0
  129.9580  124.5350   72.0120 C   0  0  0  0  0  0  0  0  0  0  0  0
  129.7590  125.5350   72.9610 C   0  0  0  0  0  0  0  0  0  0  0  0
  129.2670  126.7820   72.5860 C   0  0  0  0  0  0  0  0  0  0  0  0
  128.9710  127.0360   71.2490 C   0  0  0  0  0  0  0  0  0  0  0  0
  129.4140  125.7330   67.8010 C   0  0  0  0  0  0  0  0  0  0  0  0
  128.8040  126.2960   66.6900 C   0  0  0  0  0  0  0  0  0  0  0  0
  129.0170  125.9730   65.2880 C   0  0  0  0  0  0  0  0  0  0  0  0
  130.1560  125.5580   64.6870 C   0  0  0  0  0  0  0  0  0  0  0  0
  131.7480  125.2900   65.4310 S   0  0  0  0  0  0  0  0  0  0  0  0
  132.3770  124.7850   63.8700 C   0  0  0  0  0  0  0  0  0  0  0  0
  133.5780  124.3820   63.5890 N   0  0  0  0  0  0  0  0  0  0  0  0
  133.9570  123.9870   62.2760 C   0  0  0  0  0  0  0  0  0  0  0  0
  135.0640  123.5750   61.9330 O   0  0  0  0  0  0  0  0  0  0  0  0
  132.8500  124.1010   61.2640 C   0  0  0  0  0  0  0  0  0  0  0  0
  133.1470  123.7210   59.8080 C   0  0  0  0  0  0  0  0  0  0  0  0
  132.2860  124.4510   58.7790 C   0  0  0  0  0  0  0  0  0  0  0  0
  132.8910  125.2000   57.7660 C   0  0  0  0  0  0  0  0  0  0  0  0
  132.1060  125.8520   56.8180 C   0  0  0  0  0  0  0  0  0  0  0  0
  130.7150  125.7540   56.8790 C   0  0  0  0  0  0  0  0  0  0  0  0
  129.8640  126.4570   55.8360 C   0  0  0  0  0  0  0  0  0  0  0  0
  130.1080  124.9960   57.8830 C   0  0  0  0  0  0  0  0  0  0  0  0
  130.8930  124.3450   58.8310 C   0  0  0  0  0  0  0  0  0  0  0  0
  131.6590  124.5100   61.5580 N   0  0  0  0  0  0  0  0  0  0  0  0
  131.4190  124.8560   62.8930 N   0  0  0  0  0  0  0  0  0  0  0  0
  130.1820  125.2740   63.2590 C   0  0  0  0  0  0  0  0  0  0  0  0
  129.2210  125.3890   62.4890 O   0  0  0  0  0  0  0  0  0  0  0  0
  125.6300  128.3220   67.0740 C   0  0  0  0  0  0  0  0  0  0  0  0
  124.7280  129.1610   66.4180 C   0  0  0  0  0  0  0  0  0  0  0  0
  123.5010  129.3580   66.9520 F   0  0  0  0  0  0  0  0  0  0  0  0
  122.9337  130.6568   62.9496 H   0  0  0  0  0  0  0  0  0  0  0  0
  124.5149  131.4966   62.8031 H   0  0  0  0  0  0  0  0  0  0  0  0
  124.4479  129.7015   62.8031 H   0  0  0  0  0  0  0  0  0  0  0  0
  126.6584  130.0487   63.7506 H   0  0  0  0  0  0  0  0  0  0  0  0
  128.2588  128.5522   64.9192 H   0  0  0  0  0  0  0  0  0  0  0  0
  129.8178  123.9985   69.9217 H   0  0  0  0  0  0  0  0  0  0  0  0
  130.3461  123.5522   72.3176 H   0  0  0  0  0  0  0  0  0  0  0  0
  129.9930  125.3373   74.0175 H   0  0  0  0  0  0  0  0  0  0  0  0
  129.1124  127.5645   73.3435 H   0  0  0  0  0  0  0  0  0  0  0  0
  128.5809  128.0204   70.9508 H   0  0  0  0  0  0  0  0  0  0  0  0
  130.1967  124.9602   67.7867 H   0  0  0  0  0  0  0  0  0  0  0  0
  128.1401  126.0797   64.6325 H   0  0  0  0  0  0  0  0  0  0  0  0
  134.2022  123.9520   59.6002 H   0  0  0  0  0  0  0  0  0  0  0  0
  132.9159  122.6501   59.7088 H   0  0  0  0  0  0  0  0  0  0  0  0
  133.9874  125.2746   57.7174 H   0  0  0  0  0  0  0  0  0  0  0  0
  132.5818  126.4436   56.0220 H   0  0  0  0  0  0  0  0  0  0  0  0
  129.1094  127.0804   56.3380 H   0  0  0  0  0  0  0  0  0  0  0  0
  130.5051  127.0924   55.2073 H   0  0  0  0  0  0  0  0  0  0  0  0
  129.3611  125.7075   55.2073 H   0  0  0  0  0  0  0  0  0  0  0  0
  129.0119  124.9135   57.9247 H   0  0  0  0  0  0  0  0  0  0  0  0
  130.4166  123.7467   59.6216 H   0  0  0  0  0  0  0  0  0  0  0  0
  125.3333  127.8318   68.0130 H   0  0  0  0  0  0  0  0  0  0  0  0
  1  2  1  0
  2  3  1  0
  3  4  2  0
  4  5  1  0
  5  6  2  0
  6  7  1  0
  7  8  2  0
  8  9  1  0
  9 10  1  0
 10 11  2  0
 11 12  1  0
 12 13  2  0
 13 14  1  0
 14 15  2  0
  9 16  1  0
 16 17  2  0
 17 18  1  0
 18 19  2  0
 19 20  1  0
 20 21  1  0
 21 22  2  0
 22 23  1  0
 23 24  2  0
 23 25  1  0
 25 26  1  0
 26 27  1  0
 27 28  2  0
 28 29  1  0
 29 30  2  0
 30 31  1  0
 30 32  1  0
 32 33  2  0
 25 34  2  0
 34 35  1  0
 35 36  1  0
 36 37  2  0
  6 38  1  0
 38 39  2  0
 39 40  1  0
 39  3  1  0
 17  7  1  0
 36 19  1  0
 15 10  1  0
 35 21  1  0
 33 27  1  0
  1 41  1  0
  1 42  1  0
  1 43  1  0
  4 44  1  0
  5 45  1  0
 11 46  1  0
 12 47  1  0
 13 48  1  0
 14 49  1  0
 15 50  1  0
 16 51  1  0
 18 52  1  0
 26 53  1  0
 26 54  1  0
 28 55  1  0
 29 56  1  0
 31 57  1  0
 31 58  1  0
 31 59  1  0
 32 60  1  0
 33 61  1  0
 38 62  1  0
M  END
>  <Binding energies>  (1) 
[-10.31]

>  <Ligand effiencies>  (1) 
[-0.25775000000000003]

>  <Interactions>  (1) 
["V-B:ARG:545:CD:9895, V-B:GLU:543:CB:9878, V-B:HIS:456:CE1:9040, V-A:ASP:366:CG:3213, V-B:GLU:543:CD:9880, V-B:ARG:545:CG:9894, V-A:ASP:366:CB:3212, V-B:ARG:545:CZ:9898, V-B:TYR:539:CZ:9849, V-A:HIS:456:CE1:4069, V-B:GLU:543:CG:9879, H-A:GLY:454:N:4050, V-B:TYR:539:CE2:9848, H-B:GLY:454:N:9021, H-B:TYR:484:OH:9319, V-A:HIS:456:CG:4066, V-A:HIS:456:CD2:4068, V-A:ASP:366:C:3208, V-A:ASP:366:CA:3210, V-B:ARG:545:CB:9893, V-B:ILE:455:C:9023"]

$$$$
RR22_Rahimova_2017
     RDKit          3D

 49 54  0  0  0  0  0  0  0  0999 V2000
  129.8700  133.4010   54.3410 O   0  0  0  0  0  0  0  0  0  0  0  0
  129.9260  132.4830   55.1560 C   0  0  0  0  0  0  0  0  0  0  0  0
  130.5490  132.4890   56.3920 N   0  0  0  0  0  0  0  0  0  0  0  0
  130.4680  131.3490   57.2530 C   0  0  1  0  0  0  0  0  0  0  0  0
  131.8250  130.9960   57.5370 O   0  0  0  0  0  0  0  0  0  0  0  0
  132.2470  131.0020   58.8670 C   0  0  0  0  0  0  0  0  0  0  0  0
  133.6250  131.0210   59.0820 C   0  0  0  0  0  0  0  0  0  0  0  0
  134.1240  130.9870   60.3840 C   0  0  0  0  0  0  0  0  0  0  0  0
  133.2460  130.9260   61.4670 C   0  0  0  0  0  0  0  0  0  0  0  0
  131.8670  130.9060   61.2520 C   0  0  0  0  0  0  0  0  0  0  0  0
  131.3520  130.9650   59.9530 C   0  0  0  0  0  0  0  0  0  0  0  0
  129.8800  130.9050   59.6120 C   0  0  1  0  0  0  0  0  0  0  0  0
  128.8100  131.4740   60.5220 C   0  0  0  0  0  0  0  0  0  0  0  0
  127.7590  131.8640   59.4780 C   0  0  0  0  0  0  0  0  0  0  0  0
  126.3460  132.1160   59.8240 C   0  0  0  0  0  0  0  0  0  0  0  0
  126.0010  133.1550   60.7010 C   0  0  0  0  0  0  0  0  0  0  0  0
  124.6670  133.3890   61.0220 C   0  0  0  0  0  0  0  0  0  0  0  0
  123.6710  132.5880   60.4700 C   0  0  0  0  0  0  0  0  0  0  0  0
  123.9980  131.5530   59.5980 C   0  0  0  0  0  0  0  0  0  0  0  0
  125.3310  131.3180   59.2750 C   0  0  0  0  0  0  0  0  0  0  0  0
  128.2800  131.9590   58.3130 N   0  0  0  0  0  0  0  0  0  0  0  0
  129.6520  131.6810   58.4300 N   0  0  0  0  0  0  0  0  0  0  0  0
  129.8770  130.2180   56.4240 C   0  0  0  0  0  0  0  0  0  0  0  0
  129.9640  128.9160   56.7850 C   0  0  0  0  0  0  0  0  0  0  0  0
  129.4240  127.7310   56.0900 C   0  0  0  0  0  0  0  0  0  0  0  0
  130.0710  126.4870   56.0780 C   0  0  0  0  0  0  0  0  0  0  0  0
  129.4990  125.4100   55.3990 C   0  0  0  0  0  0  0  0  0  0  0  0
  128.2870  125.6080   54.7380 C   0  0  0  0  0  0  0  0  0  0  0  0
  127.6430  126.8020   54.7260 N   0  0  0  0  0  0  0  0  0  0  0  0
  128.2140  127.8370   55.3930 C   0  0  0  0  0  0  0  0  0  0  0  0
  129.1770  130.8420   54.9230 S   0  0  0  0  0  0  0  0  0  0  0  0
  131.1050  133.2760   56.6870 H   0  0  0  0  0  0  0  0  0  0  0  0
  134.3161  131.0627   58.2273 H   0  0  0  0  0  0  0  0  0  0  0  0
  135.2101  131.0083   60.5573 H   0  0  0  0  0  0  0  0  0  0  0  0
  133.6417  130.8936   62.4928 H   0  0  0  0  0  0  0  0  0  0  0  0
  131.1810  130.8434   62.1096 H   0  0  0  0  0  0  0  0  0  0  0  0
  129.7564  129.8120   59.6112 H   0  0  0  0  0  0  0  0  0  0  0  0
  128.4276  130.7195   61.2252 H   0  0  0  0  0  0  0  0  0  0  0  0
  129.1431  132.2940   61.1752 H   0  0  0  0  0  0  0  0  0  0  0  0
  126.7882  133.7876   61.1370 H   0  0  0  0  0  0  0  0  0  0  0  0
  124.4004  134.2047   61.7101 H   0  0  0  0  0  0  0  0  0  0  0  0
  122.6173  132.7743   60.7248 H   0  0  0  0  0  0  0  0  0  0  0  0
  123.2059  130.9236   59.1662 H   0  0  0  0  0  0  0  0  0  0  0  0
  125.5905  130.5016   58.5850 H   0  0  0  0  0  0  0  0  0  0  0  0
  130.5088  128.7148   57.7192 H   0  0  0  0  0  0  0  0  0  0  0  0
  131.0290  126.3600   56.6035 H   0  0  0  0  0  0  0  0  0  0  0  0
  129.9930  124.4272   55.3855 H   0  0  0  0  0  0  0  0  0  0  0  0
  127.8339  124.7599   54.2036 H   0  0  0  0  0  0  0  0  0  0  0  0
  127.6997  128.8094   55.3857 H   0  0  0  0  0  0  0  0  0  0  0  0
  1  2  2  0
  2  3  1  0
  3  4  1  0
  4  5  1  1
  5  6  1  0
  6  7  2  0
  7  8  1  0
  8  9  2  0
  9 10  1  0
 10 11  2  0
 11 12  1  0
 12 13  1  0
 13 14  1  0
 14 15  1  0
 15 16  2  0
 16 17  1  0
 17 18  2  0
 18 19  1  0
 19 20  2  0
 14 21  2  0
 21 22  1  0
  4 23  1  0
 23 24  2  0
 24 25  1  0
 25 26  2  0
 26 27  1  0
 27 28  2  0
 28 29  1  0
 29 30  2  0
 23 31  1  0
 31  2  1  0
 22  4  1  0
 30 25  1  0
 11  6  1  0
 22 12  1  0
 20 15  1  0
  3 32  1  0
  7 33  1  0
  8 34  1  0
  9 35  1  0
 10 36  1  0
 12 37  1  6
 13 38  1  0
 13 39  1  0
 16 40  1  0
 17 41  1  0
 18 42  1  0
 19 43  1  0
 20 44  1  0
 24 45  1  0
 26 46  1  0
 27 47  1  0
 28 48  1  0
 30 49  1  0
M  END
>  <Binding energies>  (1) 
[-8.67]

>  <Ligand effiencies>  (1) 
[-0.2709375]

>  <Interactions>  (1) 
["V-A:PRO:540:CB:4885, V-A:ASN:362:CB:3176, V-A:LEU:363:CA:3185, V-A:ASN:362:C:3172, V-B:LEU:475:CD1:9229, V-A:ASP:366:CG:3213, V-A:PRO:540:CA:4883, V-A:LEU:363:CB:3187, V-A:TYR:539:CD1:4873, V-A:TYR:539:CD2:4874, V-A:TYR:539:CE2:4876, V-A:TYR:539:CE1:4875, V-A:TYR:539:C:4867, V-A:TYR:539:CZ:4877, V-A:PRO:540:N:4884, V-B:ILE:369:CD1:8210, V-B:TYR:539:CZ:9849, V-A:PRO:540:CD:4887, H-A:TYR:539:N:4870, H-B:TYR:531:OH:9767, V-B:ILE:369:CG2:8208, H-A:TYR:539:O:4868, V-B:ILE:369:CB:8207, V-A:ASN:362:CA:3174"]

$$$$
RR23_Rahimova_2017
     RDKit          3D

 65 70  0  0  0  0  0  0  0  0999 V2000
  133.8300  119.0980   60.9020 C   0  0  0  0  0  0  0  0  0  0  0  0
  132.6040  119.9750   61.0780 C   0  0  0  0  0  0  0  0  0  0  0  0
  132.7350  121.3640   61.0970 C   0  0  0  0  0  0  0  0  0  0  0  0
  131.6080  122.1680   61.2500 C   0  0  0  0  0  0  0  0  0  0  0  0
  130.3430  121.5880   61.3970 C   0  0  0  0  0  0  0  0  0  0  0  0
  129.1290  122.4790   61.5410 C   0  0  0  0  0  0  0  0  0  0  0  0
  128.0190  121.9480   61.4660 O   0  0  0  0  0  0  0  0  0  0  0  0
  129.3010  123.8160   61.7610 N   0  0  0  0  0  0  0  0  0  0  0  0
  128.8510  124.8210   60.7850 C   0  0  0  0  0  0  0  0  0  0  0  0
  129.0740  126.1780   61.4330 C   0  0  0  0  0  0  0  0  0  0  0  0
  129.2850  125.8270   62.8750 C   0  0  0  0  0  0  0  0  0  0  0  0
  129.4510  126.6760   63.9700 C   0  0  0  0  0  0  0  0  0  0  0  0
  129.7980  126.1530   65.2250 C   0  0  0  0  0  0  0  0  0  0  0  0
  129.9900  127.0510   66.4570 C   0  0  2  0  0  0  0  0  0  0  0  0
  129.9060  126.3060   67.6950 N   0  0  0  0  0  0  0  0  0  0  0  0
  129.4200  127.0080   68.6380 C   0  0  0  0  0  0  0  0  0  0  0  0
  129.1730  126.6310   69.9220 N   0  0  0  0  0  0  0  0  0  0  0  0
  129.2510  125.3930   70.4660 C   0  0  0  0  0  0  0  0  0  0  0  0
  129.6110  124.3720   69.8750 O   0  0  0  0  0  0  0  0  0  0  0  0
  128.8430  125.2920   71.9450 C   0  0  0  0  0  0  0  0  0  0  0  0
  130.0550  125.3960   72.7900 N   0  0  0  0  0  0  0  0  0  0  0  0
  130.3460  126.6690   73.2610 N   0  0  0  0  0  0  0  0  0  0  0  0
  131.3790  126.8940   74.0090 N   0  0  0  0  0  0  0  0  0  0  0  0
  132.2260  125.8390   74.3580 C   0  0  0  0  0  0  0  0  0  0  0  0
  133.3320  126.1150   75.1650 C   0  0  0  0  0  0  0  0  0  0  0  0
  134.1970  125.0820   75.5300 C   0  0  0  0  0  0  0  0  0  0  0  0
  133.9590  123.7780   75.0910 C   0  0  0  0  0  0  0  0  0  0  0  0
  132.8540  123.5000   74.2840 C   0  0  0  0  0  0  0  0  0  0  0  0
  131.9850  124.5360   73.9190 C   0  0  0  0  0  0  0  0  0  0  0  0
  130.7860  124.2570   73.0440 C   0  0  0  0  0  0  0  0  0  0  0  0
  130.5050  123.1390   72.6010 O   0  0  0  0  0  0  0  0  0  0  0  0
  128.9860  128.6980   68.2510 S   0  0  0  0  0  0  0  0  0  0  0  0
  129.0570  128.2830   66.4990 C   0  0  2  0  0  0  0  0  0  0  0  0
  127.6200  128.0820   65.9720 C   0  0  0  0  0  0  0  0  0  0  0  0
  130.0210  124.7770   65.3460 C   0  0  0  0  0  0  0  0  0  0  0  0
  129.8750  123.9310   64.2460 C   0  0  0  0  0  0  0  0  0  0  0  0
  129.4500  124.4490   63.0160 C   0  0  0  0  0  0  0  0  0  0  0  0
  130.2150  120.1940   61.3490 C   0  0  0  0  0  0  0  0  0  0  0  0
  131.3410  119.3910   61.1950 C   0  0  0  0  0  0  0  0  0  0  0  0
  134.2240  118.8161   61.8896 H   0  0  0  0  0  0  0  0  0  0  0  0
  133.5548  118.1906   60.3444 H   0  0  0  0  0  0  0  0  0  0  0  0
  134.5998  119.6516   60.3444 H   0  0  0  0  0  0  0  0  0  0  0  0
  133.7285  121.8241   60.9911 H   0  0  0  0  0  0  0  0  0  0  0  0
  131.7127  123.2630   61.2553 H   0  0  0  0  0  0  0  0  0  0  0  0
  129.4380  124.7408   59.8582 H   0  0  0  0  0  0  0  0  0  0  0  0
  127.7935  124.6743   60.5201 H   0  0  0  0  0  0  0  0  0  0  0  0
  129.9598  126.6769   61.0130 H   0  0  0  0  0  0  0  0  0  0  0  0
  128.2416  126.8791   61.2728 H   0  0  0  0  0  0  0  0  0  0  0  0
  129.3092  127.7601   63.8488 H   0  0  0  0  0  0  0  0  0  0  0  0
  131.0121  127.4438   66.3520 H   0  0  0  0  0  0  0  0  0  0  0  0
  128.8450  127.3580   70.5400 H   0  0  0  0  0  0  0  0  0  0  0  0
  128.1500  126.1096   72.1926 H   0  0  0  0  0  0  0  0  0  0  0  0
  128.3456  124.3280   72.1273 H   0  0  0  0  0  0  0  0  0  0  0  0
  133.5206  127.1418   75.5114 H   0  0  0  0  0  0  0  0  0  0  0  0
  135.0690  125.2959   76.1655 H   0  0  0  0  0  0  0  0  0  0  0  0
  134.6438  122.9677   75.3817 H   0  0  0  0  0  0  0  0  0  0  0  0
  132.6670  122.4731   73.9368 H   0  0  0  0  0  0  0  0  0  0  0  0
  129.4636  129.0555   65.8297 H   0  0  0  0  0  0  0  0  0  0  0  0
  126.9281  127.9852   66.8216 H   0  0  0  0  0  0  0  0  0  0  0  0
  127.3296  128.9483   65.3594 H   0  0  0  0  0  0  0  0  0  0  0  0
  127.5784  127.1693   65.3594 H   0  0  0  0  0  0  0  0  0  0  0  0
  130.3148  124.3573   66.3194 H   0  0  0  0  0  0  0  0  0  0  0  0
  130.0936  122.8575   64.3448 H   0  0  0  0  0  0  0  0  0  0  0  0
  129.2203  119.7321   61.4334 H   0  0  0  0  0  0  0  0  0  0  0  0
  131.2362  118.2964   61.1654 H   0  0  0  0  0  0  0  0  0  0  0  0
  1  2  1  0
  2  3  2  0
  3  4  1  0
  4  5  2  0
  5  6  1  0
  6  7  2  0
  6  8  1  0
  8  9  1  0
  9 10  1  0
 10 11  1  0
 11 12  2  0
 12 13  1  0
 13 14  1  0
 14 15  1  0
 15 16  2  0
 16 17  1  0
 17 18  1  0
 18 19  2  0
 18 20  1  0
 20 21  1  0
 21 22  1  0
 22 23  2  0
 23 24  1  0
 24 25  2  0
 25 26  1  0
 26 27  2  0
 27 28  1  0
 28 29  2  0
 29 30  1  0
 30 31  2  0
 16 32  1  0
 32 33  1  0
 33 34  1  0
 13 35  2  0
 35 36  1  0
 36 37  2  0
  5 38  1  0
 38 39  2  0
 39  2  1  0
 37  8  1  0
 37 11  1  0
 33 14  1  0
 30 21  1  0
 29 24  1  0
  1 40  1  0
  1 41  1  0
  1 42  1  0
  3 43  1  0
  4 44  1  0
  9 45  1  0
  9 46  1  0
 10 47  1  0
 10 48  1  0
 12 49  1  0
 14 50  1  6
 17 51  1  0
 20 52  1  0
 20 53  1  0
 25 54  1  0
 26 55  1  0
 27 56  1  0
 28 57  1  0
 33 58  1  6
 34 59  1  0
 34 60  1  0
 34 61  1  0
 35 62  1  0
 36 63  1  0
 38 64  1  0
 39 65  1  0
M  END
>  <Binding energies>  (1) 
[-10.87]

>  <Ligand effiencies>  (1) 
[-0.27175]

>  <Interactions>  (1) 
["V-B:GLU:543:CD:9880, V-A:GLU:543:CD:4908, V-A:GLU:543:CG:4907, V-B:ALA:541:CB:9864, V-A:HIS:456:CE1:4069, V-B:GLU:543:CG:9879, V-A:LEU:475:CD1:4258, V-B:TYR:539:CD2:9846, V-A:ILE:369:CD1:3239, V-A:ILE:369:CG2:3237, H-B:ALA:541:N:9863, V-A:HIS:456:CG:4066, V-A:VAL:458:CG2:4087, H-A:HIS:456:NE2:4070, V-A:HIS:456:CD2:4068, V-A:HIS:456:CB:4065, V-A:LYS:547:CD:4949, H-A:LYS:547:NZ:4951, V-A:HIS:456:C:4061, V-A:ASP:473:CB:4239, V-A:ASP:473:CG:4240, H-B:LYS:547:NZ:9923, H-B:HIS:456:NE2:9041, V-A:GLU:543:CB:4906, V-A:PRO:482:CB:4326, V-A:TRP:381:CZ2:3370, V-A:TRP:381:CH2:3372, V-A:SER:385:C:3405, V-A:SER:385:CA:3407"]

$$$$
RR24_Rahimova_2017
     RDKit          3D

 65 71  0  0  0  0  0  0  0  0999 V2000
  128.2440  131.7990   60.4280 C   0  0  0  0  0  0  0  0  0  0  0  0
  129.4100  130.9030   59.9860 C   0  0  2  0  0  0  0  0  0  0  0  0
  130.5200  130.7620   61.0690 C   0  0  0  0  0  0  0  0  0  0  0  0
  130.8340  131.6980   61.8120 O   0  0  0  0  0  0  0  0  0  0  0  0
  131.0980  129.5250   61.0680 O   0  0  0  0  0  0  0  0  0  0  0  0
  130.3010  128.4030   61.0500 C   0  0  0  0  0  0  0  0  0  0  0  0
  130.5830  127.3770   60.1460 C   0  0  0  0  0  0  0  0  0  0  0  0
  129.7900  126.2330   60.1260 C   0  0  0  0  0  0  0  0  0  0  0  0
  128.7180  126.1060   61.0140 C   0  0  0  0  0  0  0  0  0  0  0  0
  127.8360  124.8530   60.9740 C   0  0  1  0  0  0  0  0  0  0  0  0
  127.1250  124.6900   59.6100 C   0  0  0  0  0  0  0  0  0  0  0  0
  127.1620  123.5460   58.9020 C   0  0  0  0  0  0  0  0  0  0  0  0
  127.8390  122.4350   59.3400 N   0  0  0  0  0  0  0  0  0  0  0  0
  128.5190  122.4380   60.5350 C   0  0  0  0  0  0  0  0  0  0  0  0
  129.1270  121.2590   60.8270 N   0  0  0  0  0  0  0  0  0  0  0  0
  129.9110  121.0980   61.9280 C   0  0  0  0  0  0  0  0  0  0  0  0
  130.6830  120.1380   61.9830 O   0  0  0  0  0  0  0  0  0  0  0  0
  129.8630  122.1600   62.8170 N   0  0  0  0  0  0  0  0  0  0  0  0
  130.6240  121.9980   64.0730 C   0  0  0  0  0  0  0  0  0  0  0  0
  129.2780  123.4000   62.6210 C   0  0  0  0  0  0  0  0  0  0  0  0
  129.3190  124.3230   63.4400 O   0  0  0  0  0  0  0  0  0  0  0  0
  128.5680  123.5280   61.3440 C   0  0  0  0  0  0  0  0  0  0  0  0
  126.4100  123.6790   57.6650 C   0  0  0  0  0  0  0  0  0  0  0  0
  126.1530  122.8040   56.6090 C   0  0  0  0  0  0  0  0  0  0  0  0
  125.3750  123.2420   55.5340 C   0  0  0  0  0  0  0  0  0  0  0  0
  124.8610  124.5420   55.5210 C   0  0  0  0  0  0  0  0  0  0  0  0
  125.1220  125.4140   56.5820 C   0  0  0  0  0  0  0  0  0  0  0  0
  125.9010  124.9710   57.6520 C   0  0  0  0  0  0  0  0  0  0  0  0
  126.3240  125.6690   58.8850 C   0  0  0  0  0  0  0  0  0  0  0  0
  126.0830  126.8150   59.2620 O   0  0  0  0  0  0  0  0  0  0  0  0
  128.4500  127.1280   61.9310 C   0  0  0  0  0  0  0  0  0  0  0  0
  129.2430  128.2710   61.9530 C   0  0  0  0  0  0  0  0  0  0  0  0
  129.9580  131.3100   58.6590 N   0  0  0  0  0  0  0  0  0  0  0  0
  129.1420  131.6950   57.6380 C   0  0  0  0  0  0  0  0  0  0  0  0
  127.9110  131.7550   57.6460 O   0  0  0  0  0  0  0  0  0  0  0  0
  130.0490  132.0270   56.5110 C   0  0  0  0  0  0  0  0  0  0  0  0
  129.7730  132.4740   55.2180 C   0  0  0  0  0  0  0  0  0  0  0  0
  130.8450  132.7140   54.3510 C   0  0  0  0  0  0  0  0  0  0  0  0
  132.1620  132.5100   54.7810 C   0  0  0  0  0  0  0  0  0  0  0  0
  132.4180  132.0620   56.0820 C   0  0  0  0  0  0  0  0  0  0  0  0
  131.3360  131.8260   56.9320 C   0  0  0  0  0  0  0  0  0  0  0  0
  131.2880  131.3600   58.3400 C   0  0  0  0  0  0  0  0  0  0  0  0
  132.2430  131.0820   59.0660 O   0  0  0  0  0  0  0  0  0  0  0  0
  128.2023  131.8311   61.5267 H   0  0  0  0  0  0  0  0  0  0  0  0
  128.3945  132.8161   60.0370 H   0  0  0  0  0  0  0  0  0  0  0  0
  127.3000  131.3917   60.0370 H   0  0  0  0  0  0  0  0  0  0  0  0
  128.9878  129.8948   59.8621 H   0  0  0  0  0  0  0  0  0  0  0  0
  131.4302  127.4724   59.4509 H   0  0  0  0  0  0  0  0  0  0  0  0
  130.0075  125.4271   59.4097 H   0  0  0  0  0  0  0  0  0  0  0  0
  127.0894  125.0292   61.7624 H   0  0  0  0  0  0  0  0  0  0  0  0
  127.8380  121.5950   58.7780 H   0  0  0  0  0  0  0  0  0  0  0  0
  129.0360  120.4640   60.2130 H   0  0  0  0  0  0  0  0  0  0  0  0
  129.9505  122.1414   64.9308 H   0  0  0  0  0  0  0  0  0  0  0  0
  131.0570  120.9876   64.1116 H   0  0  0  0  0  0  0  0  0  0  0  0
  131.4310  122.7445   64.1116 H   0  0  0  0  0  0  0  0  0  0  0  0
  126.5581  121.7814   56.6225 H   0  0  0  0  0  0  0  0  0  0  0  0
  125.1663  122.5616   54.6952 H   0  0  0  0  0  0  0  0  0  0  0  0
  124.2485  124.8802   54.6722 H   0  0  0  0  0  0  0  0  0  0  0  0
  124.7182  126.4372   56.5737 H   0  0  0  0  0  0  0  0  0  0  0  0
  127.6112  127.0278   62.6356 H   0  0  0  0  0  0  0  0  0  0  0  0
  129.0372  129.0699   62.6806 H   0  0  0  0  0  0  0  0  0  0  0  0
  128.7360  132.6341   54.8878 H   0  0  0  0  0  0  0  0  0  0  0  0
  130.6521  133.0647   53.3264 H   0  0  0  0  0  0  0  0  0  0  0  0
  132.9987  132.7026   54.0934 H   0  0  0  0  0  0  0  0  0  0  0  0
  133.4496  131.8993   56.4274 H   0  0  0  0  0  0  0  0  0  0  0  0
  1  2  1  0
  2  3  1  0
  3  4  2  0
  3  5  1  0
  5  6  1  0
  6  7  2  0
  7  8  1  0
  8  9  2  0
  9 10  1  0
 10 11  1  0
 11 12  2  0
 12 13  1  0
 13 14  1  0
 14 15  1  0
 15 16  1  0
 16 17  2  0
 16 18  1  0
 18 19  1  0
 18 20  1  0
 20 21  2  0
 20 22  1  0
 12 23  1  0
 23 24  2  0
 24 25  1  0
 25 26  2  0
 26 27  1  0
 27 28  2  0
 28 29  1  0
 29 30  2  0
  9 31  1  0
 31 32  2  0
  2 33  1  0
 33 34  1  0
 34 35  2  0
 34 36  1  0
 36 37  2  0
 37 38  1  0
 38 39  2  0
 39 40  1  0
 40 41  2  0
 41 42  1  0
 42 43  2  0
 32  6  1  0
 42 33  1  0
 22 10  1  0
 28 23  1  0
 41 36  1  0
 29 11  1  0
 22 14  2  0
  1 44  1  0
  1 45  1  0
  1 46  1  0
  2 47  1  6
  7 48  1  0
  8 49  1  0
 10 50  1  1
 13 51  1  0
 15 52  1  0
 19 53  1  0
 19 54  1  0
 19 55  1  0
 24 56  1  0
 25 57  1  0
 26 58  1  0
 27 59  1  0
 31 60  1  0
 32 61  1  0
 37 62  1  0
 38 63  1  0
 39 64  1  0
 40 65  1  0
M  END
>  <Binding energies>  (1) 
[-10.43]

>  <Ligand effiencies>  (1) 
[-0.23177777777777778]

>  <Interactions>  (1) 
["V-A:PRO:540:CB:4885, V-A:PRO:540:CA:4883, V-B:GLU:543:CD:9880, V-A:TYR:539:CD1:4873, V-A:ILE:538:CD1:4865, V-A:TYR:539:CE1:4875, V-A:TYR:531:CE2:4793, V-A:PRO:540:N:4884, V-B:ALA:541:CB:9864, V-B:GLU:543:CG:9879, V-A:LEU:475:CD1:4258, V-B:PRO:540:N:9856, H-A:ARG:545:NH2:4928, V-B:TYR:539:CD2:9846, V-B:PRO:540:CA:9855, V-B:TYR:539:C:9839, V-B:TYR:539:CE2:9848, V-A:ILE:538:CA:4860, V-A:PRO:540:CD:4887, V-A:ILE:538:CG2:4863, V-A:LEU:363:CD1:3189, V-B:PRO:540:CD:9859, V-B:TYR:531:CZ:9766, V-B:LEU:363:CD1:8160, V-B:TYR:531:CE2:9765, V-B:ILE:538:CB:9834, V-B:ILE:538:CG2:9835, V-A:ILE:538:C:4858, H-A:ALA:541:N:4891, H-A:TYR:539:OH:4878, H-B:TYR:539:O:9840, V-A:ILE:538:CB:4862"]

$$$$
RR24_Rahimova_2017-again1
     RDKit          3D

 63 69  0  0  0  0  0  0  0  0999 V2000
  128.7740  125.2490   66.7080 C   0  0  0  0  0  0  0  0  0  0  0  0
  129.0260  126.7500   66.9050 C   0  0  2  0  0  0  0  0  0  0  0  0
  129.5880  127.1020   68.3130 C   0  0  0  0  0  0  0  0  0  0  0  0
  130.1900  128.1600   68.5330 O   0  0  0  0  0  0  0  0  0  0  0  0
  129.3620  126.1170   69.2310 O   0  0  0  0  0  0  0  0  0  0  0  0
  129.2750  126.4380   70.5660 C   0  0  0  0  0  0  0  0  0  0  0  0
  129.8350  125.5830   71.5180 C   0  0  0  0  0  0  0  0  0  0  0  0
  129.7690  125.9110   72.8690 C   0  0  0  0  0  0  0  0  0  0  0  0
  129.1510  127.0980   73.2760 C   0  0  0  0  0  0  0  0  0  0  0  0
  129.0760  127.4630   74.7650 C   0  0  1  0  0  0  0  0  0  0  0  0
  127.9600  128.4990   75.0340 C   0  0  0  0  0  0  0  0  0  0  0  0
  127.7920  129.7790   74.6310 C   0  0  0  0  0  0  0  0  0  0  0  0
  128.6290  130.4420   73.9080 O   0  0  0  0  0  0  0  0  0  0  0  0
  126.5100  130.2960   75.1090 C   0  0  0  0  0  0  0  0  0  0  0  0
  125.8740  131.5350   74.9540 C   0  0  0  0  0  0  0  0  0  0  0  0
  124.6200  131.7420   75.5310 C   0  0  0  0  0  0  0  0  0  0  0  0
  124.0070  130.7210   76.2590 C   0  0  0  0  0  0  0  0  0  0  0  0
  124.6450  129.4890   76.4120 C   0  0  0  0  0  0  0  0  0  0  0  0
  125.8980  129.2810   75.8300 C   0  0  0  0  0  0  0  0  0  0  0  0
  126.7970  128.1410   75.8290 C   0  0  0  0  0  0  0  0  0  0  0  0
  126.6810  127.0010   76.4000 N   0  0  0  0  0  0  0  0  0  0  0  0
  127.6930  126.0880   76.3880 C   0  0  0  0  0  0  0  0  0  0  0  0
  127.4470  125.0060   77.1820 N   0  0  0  0  0  0  0  0  0  0  0  0
  128.3170  124.0610   77.2470 C   0  0  0  0  0  0  0  0  0  0  0  0
  127.9860  123.1260   77.9950 O   0  0  0  0  0  0  0  0  0  0  0  0
  129.5170  124.1020   76.5390 N   0  0  0  0  0  0  0  0  0  0  0  0
  130.5380  123.0290   76.5920 C   0  0  0  0  0  0  0  0  0  0  0  0
  129.8590  125.1650   75.7250 C   0  0  0  0  0  0  0  0  0  0  0  0
  130.9210  125.2520   75.1000 O   0  0  0  0  0  0  0  0  0  0  0  0
  128.8450  126.2220   75.6580 C   0  0  0  0  0  0  0  0  0  0  0  0
  128.6030  127.9570   72.3190 C   0  0  0  0  0  0  0  0  0  0  0  0
  128.6700  127.6320   70.9670 C   0  0  0  0  0  0  0  0  0  0  0  0
  127.8310  127.5700   66.5500 N   0  0  0  0  0  0  0  0  0  0  0  0
  126.7540  127.6570   67.3810 C   0  0  0  0  0  0  0  0  0  0  0  0
  126.6060  127.1100   68.4750 O   0  0  0  0  0  0  0  0  0  0  0  0
  125.7930  128.5530   66.6890 C   0  0  0  0  0  0  0  0  0  0  0  0
  124.5230  128.9950   67.0640 C   0  0  0  0  0  0  0  0  0  0  0  0
  123.8300  129.8490   66.1990 C   0  0  0  0  0  0  0  0  0  0  0  0
  124.4080  130.2480   64.9870 C   0  0  0  0  0  0  0  0  0  0  0  0
  125.6820  129.7950   64.6300 C   0  0  0  0  0  0  0  0  0  0  0  0
  126.3560  128.9420   65.5050 C   0  0  0  0  0  0  0  0  0  0  0  0
  127.6950  128.3080   65.4060 C   0  0  0  0  0  0  0  0  0  0  0  0
  128.5110  128.4260   64.4910 O   0  0  0  0  0  0  0  0  0  0  0  0
  128.6918  124.7591   67.6894 H   0  0  0  0  0  0  0  0  0  0  0  0
  127.8391  125.1047   66.1467 H   0  0  0  0  0  0  0  0  0  0  0  0
  129.6106  124.8073   66.1467 H   0  0  0  0  0  0  0  0  0  0  0  0
  129.8226  127.0168   66.1949 H   0  0  0  0  0  0  0  0  0  0  0  0
  130.3274  124.6520   71.2005 H   0  0  0  0  0  0  0  0  0  0  0  0
  130.2043  125.2345   73.6192 H   0  0  0  0  0  0  0  0  0  0  0  0
  130.0507  127.9021   75.0241 H   0  0  0  0  0  0  0  0  0  0  0  0
  126.3597  132.3390   74.3815 H   0  0  0  0  0  0  0  0  0  0  0  0
  124.1140  132.7114   75.4118 H   0  0  0  0  0  0  0  0  0  0  0  0
  123.0191  130.8876   76.7131 H   0  0  0  0  0  0  0  0  0  0  0  0
  124.1634  128.6853   76.9883 H   0  0  0  0  0  0  0  0  0  0  0  0
  130.7650  122.7904   77.6415 H   0  0  0  0  0  0  0  0  0  0  0  0
  130.1527  122.1310   76.0869 H   0  0  0  0  0  0  0  0  0  0  0  0
  131.4540  123.3692   76.0869 H   0  0  0  0  0  0  0  0  0  0  0  0
  128.1176  128.8921   72.6350 H   0  0  0  0  0  0  0  0  0  0  0  0
  128.2471  128.3145   70.2151 H   0  0  0  0  0  0  0  0  0  0  0  0
  124.0769  128.6789   68.0185 H   0  0  0  0  0  0  0  0  0  0  0  0
  122.8269  130.2086   66.4719 H   0  0  0  0  0  0  0  0  0  0  0  0
  123.8573  130.9207   64.3130 H   0  0  0  0  0  0  0  0  0  0  0  0
  126.1428  130.1043   63.6802 H   0  0  0  0  0  0  0  0  0  0  0  0
  1  2  1  0
  2  3  1  0
  3  4  2  0
  3  5  1  0
  5  6  1  0
  6  7  2  0
  7  8  1  0
  8  9  2  0
  9 10  1  0
 10 11  1  0
 11 12  2  0
 12 13  1  0
 12 14  1  0
 14 15  2  0
 15 16  1  0
 16 17  2  0
 17 18  1  0
 18 19  2  0
 19 20  1  0
 20 21  2  0
 21 22  1  0
 22 23  1  0
 23 24  2  0
 24 25  1  0
 24 26  1  0
 26 27  1  0
 26 28  1  0
 28 29  2  0
 28 30  1  0
  9 31  1  0
 31 32  2  0
  2 33  1  0
 33 34  1  0
 34 35  2  0
 34 36  1  0
 36 37  2  0
 37 38  1  0
 38 39  2  0
 39 40  1  0
 40 41  2  0
 41 42  1  0
 42 43  2  0
 32  6  1  0
 42 33  1  0
 30 10  1  0
 41 36  1  0
 20 11  1  0
 30 22  2  0
 19 14  1  0
  1 44  1  0
  1 45  1  0
  1 46  1  0
  2 47  1  6
  7 48  1  0
  8 49  1  0
 10 50  1  1
 15 51  1  0
 16 52  1  0
 17 53  1  0
 18 54  1  0
 27 55  1  0
 27 56  1  0
 27 57  1  0
 31 58  1  0
 32 59  1  0
 37 60  1  0
 38 61  1  0
 39 62  1  0
 40 63  1  0
M  CHG  2  13  -1  25  -1
M  END
>  <Binding energies>  (1) 
[-10.51]

>  <Ligand effiencies>  (1) 
[-0.24441860465116277]

>  <Interactions>  (1) 
["V-B:ARG:545:CD:9895, V-B:GLU:543:C:9874, V-B:GLU:543:CB:9878, V-B:HIS:456:CE1:9040, V-B:ARG:545:CG:9894, V-B:ARG:545:CZ:9898, V-B:GLY:454:CA:9020, V-A:HIS:456:CE1:4069, V-B:GLU:543:CG:9879, V-A:HIS:456:CG:4066, H-A:HIS:456:NE2:4070, V-A:HIS:456:CD2:4068, H-A:LYS:547:NZ:4951, H-B:LYS:547:NZ:9923, H-B:HIS:456:NE2:9041, V-B:GLU:543:CA:9876, V-B:HIS:456:CD2:9039, V-B:LYS:471:CG:9189, V-B:ASP:473:CG:9211, V-B:HIS:456:CG:9037, V-B:VAL:458:CG2:9058, V-B:HIS:456:CB:9036, V-B:HIS:456:C:9032, V-B:LYS:471:CE:9191, V-B:LYS:547:CD:9921, V-B:LYS:547:CE:9922, V-B:LYS:471:C:9184, V-B:LYS:471:CD:9190, V-B:ARG:545:CB:9893, V-B:ASP:473:CB:9210"]

$$$$
RR25_Rahimova_2017
     RDKit          3D

 63 68  0  0  0  0  0  0  0  0999 V2000
  123.6600  129.5340   66.9980 O   0  0  0  0  0  0  0  0  0  0  0  0
  124.7530  129.1580   66.5740 C   0  0  0  0  0  0  0  0  0  0  0  0
  125.5790  128.5470   67.4860 O   0  0  0  0  0  0  0  0  0  0  0  0
  126.7140  127.8650   67.0870 C   0  0  0  0  0  0  0  0  0  0  0  0
  127.1660  126.8520   67.9320 C   0  0  0  0  0  0  0  0  0  0  0  0
  128.3090  126.1290   67.5960 C   0  0  0  0  0  0  0  0  0  0  0  0
  129.0170  126.4100   66.4180 C   0  0  0  0  0  0  0  0  0  0  0  0
  130.2290  125.6340   66.0590 N   0  0  0  0  0  0  0  0  0  0  0  0
  131.3280  126.0800   66.3770 O   0  0  0  0  0  0  0  0  0  0  0  0
  130.0900  124.5740   65.4560 O   0  0  0  0  0  0  0  0  0  0  0  0
  128.5520  127.4430   65.5870 C   0  0  0  0  0  0  0  0  0  0  0  0
  127.4120  128.1820   65.9130 C   0  0  0  0  0  0  0  0  0  0  0  0
  126.8640  129.2990   65.0440 C   0  0  0  0  0  0  0  0  0  0  0  0
  125.3120  129.3160   65.1300 C   0  0  2  0  0  0  0  0  0  0  0  0
  124.7180  130.5110   64.3280 C   0  0  0  0  0  0  0  0  0  0  0  0
  124.1660  131.3900   64.9950 O   0  0  0  0  0  0  0  0  0  0  0  0
  124.9060  130.6490   62.9810 N   0  0  0  0  0  0  0  0  0  0  0  0
  125.2700  129.5160   62.1040 C   0  0  0  0  0  0  0  0  0  0  0  0
  126.2400  130.0170   61.0130 C   0  0  0  0  0  0  0  0  0  0  0  0
  125.6750  131.1500   60.2750 N   0  0  0  0  0  0  0  0  0  0  0  0
  126.5370  131.5430   59.1510 C   0  0  0  0  0  0  0  0  0  0  0  0
  127.6160  132.5830   59.5550 C   0  0  0  0  0  0  0  0  0  0  0  0
  129.0340  132.1310   59.4520 N   0  0  0  0  0  0  0  0  0  0  0  0
  129.4560  131.8010   58.1810 C   0  0  0  0  0  0  0  0  0  0  0  0
  128.7150  131.8360   57.1920 O   0  0  0  0  0  0  0  0  0  0  0  0
  130.9170  131.4070   58.0830 C   0  0  0  0  0  0  0  0  0  0  0  0
  131.4580  131.0770   56.8340 C   0  0  0  0  0  0  0  0  0  0  0  0
  132.7980  130.7170   56.7060 C   0  0  0  0  0  0  0  0  0  0  0  0
  133.6390  130.6800   57.8170 C   0  0  0  0  0  0  0  0  0  0  0  0
  133.1370  131.0050   59.1000 C   0  0  0  0  0  0  0  0  0  0  0  0
  133.9350  130.9880   60.2680 C   0  0  0  0  0  0  0  0  0  0  0  0
  133.3770  131.3230   61.5010 C   0  0  0  0  0  0  0  0  0  0  0  0
  132.0330  131.6770   61.6060 C   0  0  0  0  0  0  0  0  0  0  0  0
  131.2050  131.7070   60.4770 C   0  0  0  0  0  0  0  0  0  0  0  0
  131.7660  131.3680   59.2180 C   0  0  0  0  0  0  0  0  0  0  0  0
  129.7500  132.1050   60.6310 C   0  0  0  0  0  0  0  0  0  0  0  0
  129.2630  132.3960   61.7290 O   0  0  0  0  0  0  0  0  0  0  0  0
  125.4340  132.2680   61.1880 C   0  0  0  0  0  0  0  0  0  0  0  0
  124.4410  131.8840   62.3110 C   0  0  0  0  0  0  0  0  0  0  0  0
  126.6222  126.6244   68.8607 H   0  0  0  0  0  0  0  0  0  0  0  0
  128.6605  125.3279   68.2629 H   0  0  0  0  0  0  0  0  0  0  0  0
  129.0970  127.6749   64.6601 H   0  0  0  0  0  0  0  0  0  0  0  0
  127.2603  130.2633   65.3949 H   0  0  0  0  0  0  0  0  0  0  0  0
  127.1693  129.1320   64.0005 H   0  0  0  0  0  0  0  0  0  0  0  0
  124.9529  128.4032   64.6321 H   0  0  0  0  0  0  0  0  0  0  0  0
  125.7585  128.7307   62.6995 H   0  0  0  0  0  0  0  0  0  0  0  0
  124.3647  129.1028   61.6353 H   0  0  0  0  0  0  0  0  0  0  0  0
  127.1807  130.3324   61.4879 H   0  0  0  0  0  0  0  0  0  0  0  0
  126.4174  129.1954   60.3035 H   0  0  0  0  0  0  0  0  0  0  0  0
  127.0416  130.6452   58.7645 H   0  0  0  0  0  0  0  0  0  0  0  0
  125.8954  132.0104   58.3895 H   0  0  0  0  0  0  0  0  0  0  0  0
  127.4954  133.4622   58.9050 H   0  0  0  0  0  0  0  0  0  0  0  0
  127.4469  132.7847   60.6231 H   0  0  0  0  0  0  0  0  0  0  0  0
  130.8158  131.1024   55.9413 H   0  0  0  0  0  0  0  0  0  0  0  0
  133.1977  130.4584   55.7144 H   0  0  0  0  0  0  0  0  0  0  0  0
  134.6953  130.3976   57.6964 H   0  0  0  0  0  0  0  0  0  0  0  0
  134.9973  130.7101   60.2033 H   0  0  0  0  0  0  0  0  0  0  0  0
  134.0060  131.3077   62.4033 H   0  0  0  0  0  0  0  0  0  0  0  0
  131.6165  131.9367   62.5904 H   0  0  0  0  0  0  0  0  0  0  0  0
  126.3890  132.5688   61.6436 H   0  0  0  0  0  0  0  0  0  0  0  0
  124.9960  133.0952   60.6101 H   0  0  0  0  0  0  0  0  0  0  0  0
  124.3850  132.7007   63.0457 H   0  0  0  0  0  0  0  0  0  0  0  0
  123.4452  131.7122   61.8764 H   0  0  0  0  0  0  0  0  0  0  0  0
  1  2  2  0
  2  3  1  0
  3  4  1  0
  4  5  2  0
  5  6  1  0
  6  7  2  0
  7  8  1  0
  8  9  2  0
  8 10  1  0
  7 11  1  0
 11 12  2  0
 12 13  1  0
 13 14  1  0
 14 15  1  0
 15 16  2  0
 15 17  1  0
 17 18  1  0
 18 19  1  0
 19 20  1  0
 20 21  1  0
 21 22  1  0
 22 23  1  0
 23 24  1  0
 24 25  2  0
 24 26  1  0
 26 27  2  0
 27 28  1  0
 28 29  2  0
 29 30  1  0
 30 31  2  0
 31 32  1  0
 32 33  2  0
 33 34  1  0
 34 35  2  0
 34 36  1  0
 36 37  2  0
 20 38  1  0
 38 39  1  0
 14  2  1  0
 39 17  1  0
 12  4  1  0
 36 23  1  0
 35 26  1  0
 35 30  1  0
  5 40  1  0
  6 41  1  0
 11 42  1  0
 13 43  1  0
 13 44  1  0
 14 45  1  6
 18 46  1  0
 18 47  1  0
 19 48  1  0
 19 49  1  0
 21 50  1  0
 21 51  1  0
 22 52  1  0
 22 53  1  0
 27 54  1  0
 28 55  1  0
 29 56  1  0
 31 57  1  0
 32 58  1  0
 33 59  1  0
 38 60  1  0
 38 61  1  0
 39 62  1  0
 39 63  1  0
M  CHG  2   8   1  10  -1
M  END
>  <Binding energies>  (1) 
[-11.08]

>  <Ligand effiencies>  (1) 
[-0.2841025641025641]

>  <Interactions>  (1) 
["V-B:ARG:545:CD:9895, V-A:PRO:540:CB:4885, V-A:ASN:362:CB:3176, V-B:GLU:543:C:9874, V-B:GLU:543:CB:9878, V-A:LEU:363:CA:3185, V-B:HIS:456:CE1:9040, V-A:ASN:362:C:3172, V-A:ASP:366:CG:3213, V-A:PRO:540:CA:4883, V-A:LEU:363:CB:3187, V-B:ARG:545:CG:9894, V-A:GLU:543:CD:4908, V-A:TYR:539:CD2:4874, V-A:TYR:539:CE2:4876, V-A:PRO:540:C:4881, V-A:TYR:539:CZ:4877, V-A:ASP:366:CB:3212, V-A:TYR:531:CE2:4793, V-A:PRO:540:N:4884, V-B:ASP:366:CG:8184, V-B:ARG:545:CZ:9898, H-A:TYR:484:OH:4348, V-A:HIS:456:CE1:4069, V-A:LEU:363:CD1:3189, H-B:GLY:454:N:9021, H-B:TYR:484:OH:9319, H-A:HIS:456:NE2:4070, H-B:ARG:545:NE:9896, H-B:ILE:455:N:9026, H-A:ALA:541:N:4891, V-A:ASN:362:CA:3174"]

$$$$
RR26_Rahimova_2017
     RDKit          3D

 59 65  0  0  0  0  0  0  0  0999 V2000
  129.7130  120.8680   60.6190 C   0  0  0  0  0  0  0  0  0  0  0  0
  131.2140  120.6850   60.8030 C   0  0  0  0  0  0  0  0  0  0  0  0
  131.8720  119.7500   59.9970 C   0  0  0  0  0  0  0  0  0  0  0  0
  133.2500  119.5700   60.0950 C   0  0  0  0  0  0  0  0  0  0  0  0
  133.9860  120.3310   60.9980 C   0  0  0  0  0  0  0  0  0  0  0  0
  133.3430  121.2670   61.8050 C   0  0  0  0  0  0  0  0  0  0  0  0
  131.9550  121.4550   61.7270 C   0  0  0  0  0  0  0  0  0  0  0  0
  131.3390  122.4730   62.6440 C   0  0  0  0  0  0  0  0  0  0  0  0
  130.9760  122.1800   63.8900 N   0  0  0  0  0  0  0  0  0  0  0  0
  130.5150  123.3260   64.3130 C   0  0  0  0  0  0  0  0  0  0  0  0
  129.8260  123.9160   65.7800 S   0  0  0  0  0  0  0  0  0  0  0  0
  129.6670  125.5460   65.0230 C   0  0  0  0  0  0  0  0  0  0  0  0
  129.1600  126.6700   65.5760 C   0  0  0  0  0  0  0  0  0  0  0  0
  128.6240  126.8460   66.9170 C   0  0  0  0  0  0  0  0  0  0  0  0
  129.1330  126.3630   68.1130 C   0  0  0  0  0  0  0  0  0  0  0  0
  128.3240  126.8110   69.1270 N   0  0  0  0  0  0  0  0  0  0  0  0
  128.4520  126.5770   70.5200 C   0  0  0  0  0  0  0  0  0  0  0  0
  129.4080  125.6750   71.0120 C   0  0  0  0  0  0  0  0  0  0  0  0
  129.5210  125.4520   72.3810 C   0  0  0  0  0  0  0  0  0  0  0  0
  128.6830  126.1300   73.2630 C   0  0  0  0  0  0  0  0  0  0  0  0
  127.7320  127.0310   72.7880 C   0  0  0  0  0  0  0  0  0  0  0  0
  127.6150  127.2540   71.4190 C   0  0  0  0  0  0  0  0  0  0  0  0
  127.3410  127.5790   68.6330 N   0  0  0  0  0  0  0  0  0  0  0  0
  127.5030  127.6040   67.3240 C   0  0  0  0  0  0  0  0  0  0  0  0
  126.5480  128.3790   66.4690 C   0  0  0  0  0  0  0  0  0  0  0  0
  125.2890  128.7490   66.9660 C   0  0  0  0  0  0  0  0  0  0  0  0
  124.3910  129.4680   66.1760 C   0  0  0  0  0  0  0  0  0  0  0  0
  124.7470  129.8220   64.8760 C   0  0  0  0  0  0  0  0  0  0  0  0
  126.0100  129.4740   64.3740 C   0  0  0  0  0  0  0  0  0  0  0  0
  126.9020  128.7510   65.1640 C   0  0  0  0  0  0  0  0  0  0  0  0
  126.3880  129.7660   63.0780 O   0  0  0  0  0  0  0  0  0  0  0  0
  125.6120  130.7980   62.4600 C   0  0  0  0  0  0  0  0  0  0  0  0
  124.1040  130.5830   62.7370 C   0  0  0  0  0  0  0  0  0  0  0  0
  123.8480  130.5740   64.1460 O   0  0  0  0  0  0  0  0  0  0  0  0
  130.1530  125.5680   63.6470 C   0  0  0  0  0  0  0  0  0  0  0  0
  130.1860  126.5060   62.8490 O   0  0  0  0  0  0  0  0  0  0  0  0
  130.6050  124.2700   63.3590 N   0  0  0  0  0  0  0  0  0  0  0  0
  131.1460  123.7270   62.2660 N   0  0  0  0  0  0  0  0  0  0  0  0
  129.2273  120.9272   61.6042 H   0  0  0  0  0  0  0  0  0  0  0  0
  129.5226  121.7960   60.0600 H   0  0  0  0  0  0  0  0  0  0  0  0
  129.3052  120.0129   60.0600 H   0  0  0  0  0  0  0  0  0  0  0  0
  131.2950  119.1502   59.2778 H   0  0  0  0  0  0  0  0  0  0  0  0
  133.7553  118.8276   59.4597 H   0  0  0  0  0  0  0  0  0  0  0  0
  135.0747  120.1936   61.0746 H   0  0  0  0  0  0  0  0  0  0  0  0
  133.9323  121.8674   62.5137 H   0  0  0  0  0  0  0  0  0  0  0  0
  129.1515  127.5622   64.9326 H   0  0  0  0  0  0  0  0  0  0  0  0
  130.0269  125.7324   68.2285 H   0  0  0  0  0  0  0  0  0  0  0  0
  130.0701  125.1426   70.3133 H   0  0  0  0  0  0  0  0  0  0  0  0
  130.2692  124.7430   72.7650 H   0  0  0  0  0  0  0  0  0  0  0  0
  128.7727  125.9525   74.3449 H   0  0  0  0  0  0  0  0  0  0  0  0
  127.0762  127.5640   73.4922 H   0  0  0  0  0  0  0  0  0  0  0  0
  126.8639  127.9633   71.0411 H   0  0  0  0  0  0  0  0  0  0  0  0
  125.0063  128.4687   67.9914 H   0  0  0  0  0  0  0  0  0  0  0  0
  123.4075  129.7538   66.5773 H   0  0  0  0  0  0  0  0  0  0  0  0
  127.8871  128.4712   64.7625 H   0  0  0  0  0  0  0  0  0  0  0  0
  125.9189  131.7735   62.8653 H   0  0  0  0  0  0  0  0  0  0  0  0
  125.7817  130.7681   61.3736 H   0  0  0  0  0  0  0  0  0  0  0  0
  123.5307  131.3976   62.2703 H   0  0  0  0  0  0  0  0  0  0  0  0
  123.7998  129.6140   62.3145 H   0  0  0  0  0  0  0  0  0  0  0  0
  1  2  1  0
  2  3  2  0
  3  4  1  0
  4  5  2  0
  5  6  1  0
  6  7  2  0
  7  8  1  0
  8  9  1  0
  9 10  2  0
 10 11  1  0
 11 12  1  0
 12 13  2  0
 13 14  1  0
 14 15  2  0
 15 16  1  0
 16 17  1  0
 17 18  2  0
 18 19  1  0
 19 20  2  0
 20 21  1  0
 21 22  2  0
 16 23  1  0
 23 24  2  0
 24 25  1  0
 25 26  2  0
 26 27  1  0
 27 28  2  0
 28 29  1  0
 29 30  2  0
 29 31  1  0
 31 32  1  0
 32 33  1  0
 33 34  1  0
 12 35  1  0
 35 36  2  0
 35 37  1  0
 37 38  1  0
  7  2  1  0
 38  8  2  0
 37 10  1  0
 24 14  1  0
 30 25  1  0
 22 17  1  0
 34 28  1  0
  1 39  1  0
  1 40  1  0
  1 41  1  0
  3 42  1  0
  4 43  1  0
  5 44  1  0
  6 45  1  0
 13 46  1  0
 15 47  1  0
 18 48  1  0
 19 49  1  0
 20 50  1  0
 21 51  1  0
 22 52  1  0
 26 53  1  0
 27 54  1  0
 30 55  1  0
 32 56  1  0
 32 57  1  0
 33 58  1  0
 33 59  1  0
M  END
>  <Binding energies>  (1) 
[-9.91]

>  <Ligand effiencies>  (1) 
[-0.2607894736842105]

>  <Interactions>  (1) 
["V-B:ARG:545:CD:9895, V-B:GLU:543:CB:9878, V-B:HIS:456:CE1:9040, V-B:ARG:545:CG:9894, V-A:GLU:543:CD:4908, V-B:ARG:545:CZ:9898, V-B:ALA:541:CB:9864, V-A:HIS:456:CE1:4069, V-B:GLU:543:CG:9879, V-A:LEU:475:CD1:4258, V-A:TYR:484:CE1:4345, V-A:TYR:484:CZ:4347, V-B:TYR:539:CD2:9846, V-B:TYR:539:CE2:9848, V-A:ILE:369:CD1:3239, V-A:ILE:369:CG2:3237, H-B:GLY:454:N:9021, V-A:HIS:456:CD2:4068, H-B:HIS:456:NE2:9041, V-B:GLU:543:CA:9876, V-B:HIS:456:CD2:9039, V-B:HIS:456:CG:9037, V-A:TRP:381:CZ2:3370, V-A:TRP:381:CH2:3372, H-B:ARG:545:NH2:9900"]

$$$$
RR27_Rahimova_2017
     RDKit          3D

 66 71  0  0  0  0  0  0  0  0999 V2000
  127.5260  122.7380   60.7810 O   0  0  0  0  0  0  0  0  0  0  0  0
  128.7580  122.7760   60.8440 C   0  0  0  0  0  0  0  0  0  0  0  0
  129.4580  122.0870   62.0520 C   0  0  0  0  0  0  0  0  0  0  0  0
  129.5960  123.0100   63.2770 C   0  0  0  0  0  0  0  0  0  0  0  0
  129.8090  122.5000   64.5670 C   0  0  0  0  0  0  0  0  0  0  0  0
  129.9320  123.3630   65.6530 C   0  0  0  0  0  0  0  0  0  0  0  0
  129.8420  124.7380   65.4540 C   0  0  0  0  0  0  0  0  0  0  0  0
  129.6280  125.2580   64.1810 C   0  0  0  0  0  0  0  0  0  0  0  0
  129.5050  124.3950   63.0960 C   0  0  0  0  0  0  0  0  0  0  0  0
  130.7550  121.3710   61.6290 C   0  0  0  0  0  0  0  0  0  0  0  0
  130.7410  120.2770   60.7530 C   0  0  0  0  0  0  0  0  0  0  0  0
  131.9310  119.6460   60.4000 C   0  0  0  0  0  0  0  0  0  0  0  0
  133.1370  120.1020   60.9250 C   0  0  0  0  0  0  0  0  0  0  0  0
  133.1650  121.1810   61.8040 C   0  0  0  0  0  0  0  0  0  0  0  0
  131.9750  121.8100   62.1570 C   0  0  0  0  0  0  0  0  0  0  0  0
  129.5110  123.2680   59.8190 N   0  0  0  0  0  0  0  0  0  0  0  0
  130.9450  123.5700   59.9390 C   0  0  0  0  0  0  0  0  0  0  0  0
  131.0550  125.0190   60.4630 C   0  0  0  0  0  0  0  0  0  0  0  0
  130.2820  126.0430   59.5720 C   0  0  0  0  0  0  0  0  0  0  0  0
  130.2660  127.4850   60.1120 C   0  0  0  0  0  0  0  0  0  0  0  0
  129.4880  127.7130   61.2110 N   0  0  0  0  0  0  0  0  0  0  0  0
  129.4590  128.9660   61.7440 C   0  0  0  0  0  0  0  0  0  0  0  0
  128.7230  129.3160   62.8450 O   0  0  0  0  0  0  0  0  0  0  0  0
  130.2320  129.9760   61.1390 C   0  0  0  0  0  0  0  0  0  0  0  0
  130.4320  131.2970   61.4110 N   0  0  0  0  0  0  0  0  0  0  0  0
  131.3020  131.7860   60.4550 N   0  0  0  0  0  0  0  0  0  0  0  0
  131.6370  130.7830   59.6160 N   0  0  0  0  0  0  0  0  0  0  0  0
  132.5320  131.0270   58.4880 C   0  0  0  0  0  0  0  0  0  0  0  0
  131.8170  131.5030   57.2310 C   0  0  0  0  0  0  0  0  0  0  0  0
  132.4520  132.3850   56.3510 C   0  0  0  0  0  0  0  0  0  0  0  0
  131.8000  132.8130   55.1930 C   0  0  0  0  0  0  0  0  0  0  0  0
  130.5130  132.3580   54.9070 C   0  0  0  0  0  0  0  0  0  0  0  0
  129.8770  131.4700   55.7770 C   0  0  0  0  0  0  0  0  0  0  0  0
  128.2950  130.8840   55.4110 Cl  0  0  0  0  0  0  0  0  0  0  0  0
  130.5250  131.0480   56.9380 C   0  0  0  0  0  0  0  0  0  0  0  0
  130.9870  129.6220   60.0000 C   0  0  0  0  0  0  0  0  0  0  0  0
  131.0270  128.4050   59.4520 N   0  0  0  0  0  0  0  0  0  0  0  0
  128.8700  125.5160   59.1720 C   0  0  0  0  0  0  0  0  0  0  0  0
  128.8750  124.0300   58.7330 C   0  0  0  0  0  0  0  0  0  0  0  0
  128.7904  121.2873   62.4053 H   0  0  0  0  0  0  0  0  0  0  0  0
  129.8791  121.4131   64.7211 H   0  0  0  0  0  0  0  0  0  0  0  0
  130.0994  122.9604   66.6629 H   0  0  0  0  0  0  0  0  0  0  0  0
  129.9410  125.4200   66.3113 H   0  0  0  0  0  0  0  0  0  0  0  0
  129.5564  126.3457   64.0331 H   0  0  0  0  0  0  0  0  0  0  0  0
  129.3351  124.8042   62.0892 H   0  0  0  0  0  0  0  0  0  0  0  0
  129.7865  119.9156   60.3429 H   0  0  0  0  0  0  0  0  0  0  0  0
  131.9182  118.7904   59.7088 H   0  0  0  0  0  0  0  0  0  0  0  0
  134.0768  119.6049   60.6425 H   0  0  0  0  0  0  0  0  0  0  0  0
  134.1215  121.5341   62.2168 H   0  0  0  0  0  0  0  0  0  0  0  0
  131.9930  122.6588   62.8564 H   0  0  0  0  0  0  0  0  0  0  0  0
  131.4203  122.8746   60.6465 H   0  0  0  0  0  0  0  0  0  0  0  0
  131.4531  123.4619   58.9694 H   0  0  0  0  0  0  0  0  0  0  0  0
  130.6420  125.0570   61.4818 H   0  0  0  0  0  0  0  0  0  0  0  0
  132.1186  125.2990   60.4443 H   0  0  0  0  0  0  0  0  0  0  0  0
  130.8692  126.1226   58.6452 H   0  0  0  0  0  0  0  0  0  0  0  0
  129.1660  129.9640   63.3970 H   0  0  0  0  0  0  0  0  0  0  0  0
  133.2622  131.7946   58.7839 H   0  0  0  0  0  0  0  0  0  0  0  0
  133.0087  130.0666   58.2424 H   0  0  0  0  0  0  0  0  0  0  0  0
  133.4685  132.7427   56.5719 H   0  0  0  0  0  0  0  0  0  0  0  0
  132.3019  133.5098   54.5055 H   0  0  0  0  0  0  0  0  0  0  0  0
  129.9990  132.6986   53.9961 H   0  0  0  0  0  0  0  0  0  0  0  0
  130.0192  130.3549   57.6264 H   0  0  0  0  0  0  0  0  0  0  0  0
  128.1990  125.6227   60.0371 H   0  0  0  0  0  0  0  0  0  0  0  0
  128.5312  126.1102   58.3106 H   0  0  0  0  0  0  0  0  0  0  0  0
  127.8447  123.6780   58.5764 H   0  0  0  0  0  0  0  0  0  0  0  0
  129.4212  123.8998   57.7871 H   0  0  0  0  0  0  0  0  0  0  0  0
  1  2  2  0
  2  3  1  0
  3  4  1  0
  4  5  2  0
  5  6  1  0
  6  7  2  0
  7  8  1  0
  8  9  2  0
  3 10  1  0
 10 11  2  0
 11 12  1  0
 12 13  2  0
 13 14  1  0
 14 15  2  0
  2 16  1  0
 16 17  1  0
 17 18  1  0
 18 19  1  0
 19 20  1  0
 20 21  2  0
 21 22  1  0
 22 23  1  0
 22 24  2  0
 24 25  1  0
 25 26  2  0
 26 27  1  0
 27 28  1  0
 28 29  1  0
 29 30  2  0
 30 31  1  0
 31 32  2  0
 32 33  1  0
 33 34  1  0
 33 35  2  0
 27 36  1  0
 36 37  2  0
 19 38  1  0
 38 39  1  0
  9  4  1  0
 15 10  1  0
 39 16  1  0
 37 20  1  0
 36 24  1  0
 35 29  1  0
  3 40  1  0
  5 41  1  0
  6 42  1  0
  7 43  1  0
  8 44  1  0
  9 45  1  0
 11 46  1  0
 12 47  1  0
 13 48  1  0
 14 49  1  0
 15 50  1  0
 17 51  1  0
 17 52  1  0
 18 53  1  0
 18 54  1  0
 19 55  1  0
 23 56  1  0
 28 57  1  0
 28 58  1  0
 30 59  1  0
 31 60  1  0
 32 61  1  0
 35 62  1  0
 38 63  1  0
 38 64  1  0
 39 65  1  0
 39 66  1  0
M  END
>  <Binding energies>  (1) 
[-9.67]

>  <Ligand effiencies>  (1) 
[-0.24175]

>  <Interactions>  (1) 
["V-A:PRO:540:CB:4885, V-B:GLU:543:CB:9878, H-A:GLU:543:OE1:4909, V-A:PRO:540:CA:4883, V-B:GLU:543:CD:9880, V-A:ILE:538:CD1:4865, V-A:TYR:539:CE1:4875, V-A:TYR:539:CZ:4877, V-A:PRO:540:N:4884, V-B:ALA:541:CB:9864, V-B:GLU:543:CG:9879, V-A:LEU:475:CD1:4258, V-A:TYR:484:CE1:4345, V-A:TYR:484:CZ:4347, V-B:TYR:539:CD2:9846, V-B:TYR:539:CE2:9848, V-A:ILE:538:CA:4860, V-A:ILE:369:CD1:3239, V-A:PRO:540:CD:4887, V-A:ILE:369:CG2:3237, V-A:ILE:538:CG2:4863, V-A:LEU:363:CD1:3189, H-B:ALA:541:N:9863, V-B:GLU:543:CA:9876, V-A:TRP:381:CZ2:3370, V-A:TRP:381:CH2:3372, V-A:PRO:540:CG:4886, V-A:ILE:538:C:4858, H-A:ALA:541:N:4891, V-A:ILE:538:CB:4862"]

$$$$
RR27_Rahimova_2017-again1
     RDKit          3D

 66 71  0  0  0  0  0  0  0  0999 V2000
  126.8890  130.4450   55.4730 O   0  0  0  0  0  0  0  0  0  0  0  0
  127.1890  130.2880   56.6600 C   0  0  0  0  0  0  0  0  0  0  0  0
  128.6770  130.4900   57.0770 C   0  0  0  0  0  0  0  0  0  0  0  0
  128.8210  131.3160   58.3690 C   0  0  0  0  0  0  0  0  0  0  0  0
  129.7340  130.9700   59.3770 C   0  0  0  0  0  0  0  0  0  0  0  0
  129.8360  131.7430   60.5300 C   0  0  0  0  0  0  0  0  0  0  0  0
  129.0270  132.8640   60.6840 C   0  0  0  0  0  0  0  0  0  0  0  0
  128.1170  133.2220   59.6930 C   0  0  0  0  0  0  0  0  0  0  0  0
  128.0150  132.4490   58.5390 C   0  0  0  0  0  0  0  0  0  0  0  0
  129.5380  131.0100   55.9100 C   0  0  0  0  0  0  0  0  0  0  0  0
  130.2220  132.2320   55.9940 C   0  0  0  0  0  0  0  0  0  0  0  0
  130.9780  132.6920   54.9190 C   0  0  0  0  0  0  0  0  0  0  0  0
  131.0570  131.9310   53.7550 C   0  0  0  0  0  0  0  0  0  0  0  0
  130.3830  130.7170   53.6570 C   0  0  0  0  0  0  0  0  0  0  0  0
  129.6200  130.2610   54.7290 C   0  0  0  0  0  0  0  0  0  0  0  0
  126.2290  130.1050   57.6140 N   0  0  0  0  0  0  0  0  0  0  0  0
  126.5140  129.6390   58.9780 C   0  0  0  0  0  0  0  0  0  0  0  0
  126.5560  128.0940   58.9490 C   0  0  0  0  0  0  0  0  0  0  0  0
  125.4170  127.3990   58.1310 C   0  0  0  0  0  0  0  0  0  0  0  0
  125.8000  126.0110   57.6090 C   0  0  0  0  0  0  0  0  0  0  0  0
  126.3200  125.1280   58.4030 N   0  0  0  0  0  0  0  0  0  0  0  0
  126.6270  123.9320   57.8300 C   0  0  0  0  0  0  0  0  0  0  0  0
  126.4390  123.5850   56.5010 C   0  0  0  0  0  0  0  0  0  0  0  0
  126.8560  122.3500   56.2840 N   0  0  0  0  0  0  0  0  0  0  0  0
  127.3340  121.8530   57.4920 N   0  0  0  0  0  0  0  0  0  0  0  0
  127.1700  122.8170   58.4140 N   0  0  0  0  0  0  0  0  0  0  0  0
  127.5950  122.6150   59.7930 C   0  0  0  0  0  0  0  0  0  0  0  0
  129.1060  122.5210   59.9510 C   0  0  0  0  0  0  0  0  0  0  0  0
  129.9120  123.6280   59.6630 C   0  0  0  0  0  0  0  0  0  0  0  0
  131.2980  123.5410   59.7980 C   0  0  0  0  0  0  0  0  0  0  0  0
  131.8850  122.3500   60.2240 C   0  0  0  0  0  0  0  0  0  0  0  0
  131.0860  121.2450   60.5190 C   0  0  0  0  0  0  0  0  0  0  0  0
  131.8140  119.7710   61.0430 Cl  0  0  0  0  0  0  0  0  0  0  0  0
  129.7000  121.3300   60.3850 C   0  0  0  0  0  0  0  0  0  0  0  0
  125.8480  124.5610   55.5850 C   0  0  0  0  0  0  0  0  0  0  0  0
  125.6030  124.4370   54.3870 O   0  0  0  0  0  0  0  0  0  0  0  0
  125.5730  125.7280   56.2650 N   0  0  0  0  0  0  0  0  0  0  0  0
  124.7300  128.2740   57.0350 C   0  0  0  0  0  0  0  0  0  0  0  0
  124.8460  129.8080   57.2150 C   0  0  0  0  0  0  0  0  0  0  0  0
  129.0804  129.4973   57.3254 H   0  0  0  0  0  0  0  0  0  0  0  0
  130.3727  130.0828   59.2552 H   0  0  0  0  0  0  0  0  0  0  0  0
  130.5540  131.4683   61.3168 H   0  0  0  0  0  0  0  0  0  0  0  0
  129.1069  133.4729   61.5966 H   0  0  0  0  0  0  0  0  0  0  0  0
  127.4818  134.1109   59.8208 H   0  0  0  0  0  0  0  0  0  0  0  0
  127.2962  132.7302   57.7553 H   0  0  0  0  0  0  0  0  0  0  0  0
  130.1607  132.8305   56.9149 H   0  0  0  0  0  0  0  0  0  0  0  0
  131.5105  133.6520   54.9886 H   0  0  0  0  0  0  0  0  0  0  0  0
  131.6567  132.2922   52.9066 H   0  0  0  0  0  0  0  0  0  0  0  0
  130.4528  130.1198   52.7358 H   0  0  0  0  0  0  0  0  0  0  0  0
  129.0785  129.3070   54.6479 H   0  0  0  0  0  0  0  0  0  0  0  0
  127.4844  130.0337   59.3134 H   0  0  0  0  0  0  0  0  0  0  0  0
  125.7382  129.9898   59.6744 H   0  0  0  0  0  0  0  0  0  0  0  0
  127.5190  127.7903   58.5126 H   0  0  0  0  0  0  0  0  0  0  0  0
  126.4165  127.7708   59.9912 H   0  0  0  0  0  0  0  0  0  0  0  0
  124.6328  127.2560   58.8890 H   0  0  0  0  0  0  0  0  0  0  0  0
  127.2329  123.4600   60.3970 H   0  0  0  0  0  0  0  0  0  0  0  0
  127.1728  121.6555   60.1262 H   0  0  0  0  0  0  0  0  0  0  0  0
  129.4516  124.5696   59.3292 H   0  0  0  0  0  0  0  0  0  0  0  0
  131.9283  124.4128   59.5682 H   0  0  0  0  0  0  0  0  0  0  0  0
  132.9780  122.2817   60.3275 H   0  0  0  0  0  0  0  0  0  0  0  0
  129.0719  120.4584   60.6211 H   0  0  0  0  0  0  0  0  0  0  0  0
  125.1630  126.4590   55.7020 H   0  0  0  0  0  0  0  0  0  0  0  0
  125.1814  128.0144   56.0661 H   0  0  0  0  0  0  0  0  0  0  0  0
  123.6558  128.0487   57.1079 H   0  0  0  0  0  0  0  0  0  0  0  0
  124.6116  130.3157   56.2677 H   0  0  0  0  0  0  0  0  0  0  0  0
  124.1387  130.1620   57.9795 H   0  0  0  0  0  0  0  0  0  0  0  0
  1  2  2  0
  2  3  1  0
  3  4  1  0
  4  5  2  0
  5  6  1  0
  6  7  2  0
  7  8  1  0
  8  9  2  0
  3 10  1  0
 10 11  2  0
 11 12  1  0
 12 13  2  0
 13 14  1  0
 14 15  2  0
  2 16  1  0
 16 17  1  0
 17 18  1  0
 18 19  1  0
 19 20  1  0
 20 21  2  0
 21 22  1  0
 22 23  2  0
 23 24  1  0
 24 25  2  0
 25 26  1  0
 26 27  1  0
 27 28  1  0
 28 29  2  0
 29 30  1  0
 30 31  2  0
 31 32  1  0
 32 33  1  0
 32 34  2  0
 23 35  1  0
 35 36  2  0
 35 37  1  0
 19 38  1  0
 38 39  1  0
  9  4  1  0
 15 10  1  0
 39 16  1  0
 37 20  1  0
 26 22  1  0
 34 28  1  0
  3 40  1  0
  5 41  1  0
  6 42  1  0
  7 43  1  0
  8 44  1  0
  9 45  1  0
 11 46  1  0
 12 47  1  0
 13 48  1  0
 14 49  1  0
 15 50  1  0
 17 51  1  0
 17 52  1  0
 18 53  1  0
 18 54  1  0
 19 55  1  0
 27 56  1  0
 27 57  1  0
 29 58  1  0
 30 59  1  0
 31 60  1  0
 34 61  1  0
 37 62  1  0
 38 63  1  0
 38 64  1  0
 39 65  1  0
 39 66  1  0
M  END
>  <Binding energies>  (1) 
[-11.1]

>  <Ligand effiencies>  (1) 
[-0.27749999999999997]

>  <Interactions>  (1) 
["V-A:ALA:541:CB:4892, V-A:PRO:540:CA:4883, V-A:TYR:539:CD1:4873, V-A:TYR:539:CD2:4874, V-A:TYR:539:CE2:4876, V-A:ILE:538:CD1:4865, V-A:TYR:539:CG:4872, V-A:TYR:539:CE1:4875, V-A:PRO:540:C:4881, V-A:TYR:539:C:4867, V-A:TYR:539:CZ:4877, V-A:TYR:531:CE2:4793, V-A:TYR:531:CZ:4794, V-B:ASP:366:CG:8184, V-A:LEU:475:CD1:4258, V-B:PRO:540:N:9856, V-B:TYR:539:CD2:9846, V-B:PRO:540:CA:9855, V-B:TYR:539:C:9839, V-B:TYR:539:CE2:9848, V-B:PRO:540:C:9853, V-A:ILE:538:CA:4860, V-B:TYR:531:CZ:9766, V-B:TYR:531:CE2:9765, V-A:TRP:381:CZ2:3370, V-A:TRP:381:CH2:3372, H-B:TYR:539:N:9842, V-A:ILE:538:C:4858, H-B:TYR:531:OH:9767, V-B:ASP:366:CB:8183, H-A:TYR:539:OH:4878, V-A:MET:535:CG:4833, V-A:MET:535:CB:4832"]

$$$$
RR28_Rahimova_2017
     RDKit          3D

 82 85  0  0  0  0  0  0  0  0999 V2000
  134.4670  125.3740   66.0210 C   0  0  0  0  0  0  0  0  0  0  0  0
  133.3480  124.7130   65.2230 C   0  0  0  0  0  0  0  0  0  0  0  0
  133.5530  123.6340   64.6700 O   0  0  0  0  0  0  0  0  0  0  0  0
  132.1750  125.3760   65.1760 N   0  0  0  0  0  0  0  0  0  0  0  0
  130.9290  124.9850   64.4790 C   0  0  0  0  0  0  0  0  0  0  0  0
  129.8800  126.1150   64.6870 C   0  0  0  0  0  0  0  0  0  0  0  0
  129.5240  126.4920   65.9910 C   0  0  0  0  0  0  0  0  0  0  0  0
  128.5860  127.4950   66.2140 C   0  0  0  0  0  0  0  0  0  0  0  0
  127.9810  128.1450   65.1380 C   0  0  0  0  0  0  0  0  0  0  0  0
  126.9500  129.2420   65.4030 C   0  0  0  0  0  0  0  0  0  0  0  0
  126.3180  129.0720   66.5660 F   0  0  0  0  0  0  0  0  0  0  0  0
  127.5410  130.4360   65.4260 F   0  0  0  0  0  0  0  0  0  0  0  0
  126.0400  129.2320   64.4290 F   0  0  0  0  0  0  0  0  0  0  0  0
  128.3260  127.7780   63.8340 C   0  0  0  0  0  0  0  0  0  0  0  0
  129.2640  126.7740   63.6120 C   0  0  0  0  0  0  0  0  0  0  0  0
  130.4440  123.5740   64.9690 C   0  0  0  0  0  0  0  0  0  0  0  0
  131.4130  122.4260   64.5890 C   0  0  0  0  0  0  0  0  0  0  0  0
  131.5260  122.4450   63.1210 N   0  0  0  0  0  0  0  0  0  0  0  0
  130.7180  121.6580   62.3590 C   0  0  0  0  0  0  0  0  0  0  0  0
  129.9940  120.7910   62.8530 O   0  0  0  0  0  0  0  0  0  0  0  0
  130.8330  121.7410   60.8170 C   0  0  0  0  0  0  0  0  0  0  0  0
  129.4910  121.7260   60.0350 C   0  0  0  0  0  0  0  0  0  0  0  0
  128.4440  122.7610   60.5090 C   0  0  0  0  0  0  0  0  0  0  0  0
  127.6360  122.4130   61.3750 O   0  0  0  0  0  0  0  0  0  0  0  0
  128.5210  124.0500   60.0720 N   0  0  0  0  0  0  0  0  0  0  0  0
  129.2260  124.4450   58.8470 C   0  0  0  0  0  0  0  0  0  0  0  0
  128.2260  124.2600   57.6840 C   0  0  0  0  0  0  0  0  0  0  0  0
  126.8810  125.0510   57.8430 C   0  0  0  0  0  0  0  0  0  0  0  0
  125.8780  124.4950   56.9100 N   0  0  0  0  0  0  0  0  0  0  0  0
  125.7650  123.2250   56.4710 C   0  0  0  0  0  0  0  0  0  0  0  0
  124.6310  122.9480   55.4890 C   0  0  0  0  0  0  0  0  0  0  0  0
  126.5110  122.3080   56.8130 O   0  0  0  0  0  0  0  0  0  0  0  0
  127.1540  126.5300   57.4150 C   0  0  0  0  0  0  0  0  0  0  0  0
  126.4790  127.6230   57.9830 C   0  0  0  0  0  0  0  0  0  0  0  0
  126.7520  128.9260   57.5740 C   0  0  0  0  0  0  0  0  0  0  0  0
  127.7060  129.1680   56.5830 C   0  0  0  0  0  0  0  0  0  0  0  0
  128.0200  130.5920   56.1250 C   0  0  0  0  0  0  0  0  0  0  0  0
  129.3130  130.7130   55.8180 F   0  0  0  0  0  0  0  0  0  0  0  0
  127.2970  130.8730   55.0420 F   0  0  0  0  0  0  0  0  0  0  0  0
  127.7350  131.4960   57.0650 F   0  0  0  0  0  0  0  0  0  0  0  0
  128.3790  128.0920   56.0030 C   0  0  0  0  0  0  0  0  0  0  0  0
  128.1030  126.7910   56.4150 C   0  0  0  0  0  0  0  0  0  0  0  0
  126.3800  124.9180   59.3340 C   0  0  0  0  0  0  0  0  0  0  0  0
  127.4740  125.0140   60.4310 C   0  0  0  0  0  0  0  0  0  0  0  0
  132.1650  123.6630   62.6020 C   0  0  0  0  0  0  0  0  0  0  0  0
  131.2300  124.8500   62.9500 C   0  0  0  0  0  0  0  0  0  0  0  0
  134.2688  125.2569   67.0966 H   0  0  0  0  0  0  0  0  0  0  0  0
  135.4264  124.8976   65.7710 H   0  0  0  0  0  0  0  0  0  0  0  0
  134.5129  126.4442   65.7710 H   0  0  0  0  0  0  0  0  0  0  0  0
  132.1310  126.2650   65.6520 H   0  0  0  0  0  0  0  0  0  0  0  0
  129.9930  125.9875   66.8486 H   0  0  0  0  0  0  0  0  0  0  0  0
  128.3202  127.7768   67.2435 H   0  0  0  0  0  0  0  0  0  0  0  0
  127.8540  128.2850   62.9795 H   0  0  0  0  0  0  0  0  0  0  0  0
  129.5258  126.4936   62.5811 H   0  0  0  0  0  0  0  0  0  0  0  0
  130.3458  123.5997   66.0643 H   0  0  0  0  0  0  0  0  0  0  0  0
  129.4848  123.3685   64.4712 H   0  0  0  0  0  0  0  0  0  0  0  0
  132.3985  122.5924   65.0485 H   0  0  0  0  0  0  0  0  0  0  0  0
  131.0404  121.4551   64.9474 H   0  0  0  0  0  0  0  0  0  0  0  0
  131.3578  122.6751   60.5679 H   0  0  0  0  0  0  0  0  0  0  0  0
  131.3674  120.8302   60.5088 H   0  0  0  0  0  0  0  0  0  0  0  0
  129.7115  121.9249   58.9758 H   0  0  0  0  0  0  0  0  0  0  0  0
  129.0448  120.7361   60.2111 H   0  0  0  0  0  0  0  0  0  0  0  0
  129.5414  125.4967   58.9128 H   0  0  0  0  0  0  0  0  0  0  0  0
  130.1291  123.8358   58.6947 H   0  0  0  0  0  0  0  0  0  0  0  0
  128.7132  124.5958   56.7567 H   0  0  0  0  0  0  0  0  0  0  0  0
  127.9589  123.1930   57.6712 H   0  0  0  0  0  0  0  0  0  0  0  0
  125.2270  125.1690   56.5360 H   0  0  0  0  0  0  0  0  0  0  0  0
  123.7099  122.7230   56.0466 H   0  0  0  0  0  0  0  0  0  0  0  0
  124.4696  123.8331   54.8561 H   0  0  0  0  0  0  0  0  0  0  0  0
  124.8958  122.0881   54.8561 H   0  0  0  0  0  0  0  0  0  0  0  0
  125.7233  127.4472   58.7627 H   0  0  0  0  0  0  0  0  0  0  0  0
  126.2139  129.7682   58.0335 H   0  0  0  0  0  0  0  0  0  0  0  0
  129.1290  128.2720   55.2188 H   0  0  0  0  0  0  0  0  0  0  0  0
  128.6391  125.9518   55.9477 H   0  0  0  0  0  0  0  0  0  0  0  0
  125.6495  125.7199   59.5163 H   0  0  0  0  0  0  0  0  0  0  0  0
  125.9647  123.9029   59.4177 H   0  0  0  0  0  0  0  0  0  0  0  0
  127.8908  126.0315   60.4620 H   0  0  0  0  0  0  0  0  0  0  0  0
  127.0571  124.7919   61.4244 H   0  0  0  0  0  0  0  0  0  0  0  0
  133.1477  123.8050   63.0755 H   0  0  0  0  0  0  0  0  0  0  0  0
  132.3206  123.5918   61.5154 H   0  0  0  0  0  0  0  0  0  0  0  0
  131.7065  125.7799   62.6063 H   0  0  0  0  0  0  0  0  0  0  0  0
  130.2695  124.6608   62.4484 H   0  0  0  0  0  0  0  0  0  0  0  0
  1  2  1  0
  2  3  2  0
  2  4  1  0
  4  5  1  0
  5  6  1  0
  6  7  2  0
  7  8  1  0
  8  9  2  0
  9 10  1  0
 10 11  1  0
 10 12  1  0
 10 13  1  0
  9 14  1  0
 14 15  2  0
  5 16  1  0
 16 17  1  0
 17 18  1  0
 18 19  1  0
 19 20  2  0
 19 21  1  0
 21 22  1  0
 22 23  1  0
 23 24  2  0
 23 25  1  0
 25 26  1  0
 26 27  1  0
 27 28  1  0
 28 29  1  0
 29 30  1  0
 30 31  1  0
 30 32  2  0
 28 33  1  0
 33 34  2  0
 34 35  1  0
 35 36  2  0
 36 37  1  0
 37 38  1  0
 37 39  1  0
 37 40  1  0
 36 41  1  0
 41 42  2  0
 28 43  1  0
 43 44  1  0
 18 45  1  0
 45 46  1  0
 46  5  1  0
 15  6  1  0
 44 25  1  0
 42 33  1  0
  1 47  1  0
  1 48  1  0
  1 49  1  0
  4 50  1  0
  7 51  1  0
  8 52  1  0
 14 53  1  0
 15 54  1  0
 16 55  1  0
 16 56  1  0
 17 57  1  0
 17 58  1  0
 21 59  1  0
 21 60  1  0
 22 61  1  0
 22 62  1  0
 26 63  1  0
 26 64  1  0
 27 65  1  0
 27 66  1  0
 29 67  1  0
 31 68  1  0
 31 69  1  0
 31 70  1  0
 34 71  1  0
 35 72  1  0
 41 73  1  0
 42 74  1  0
 43 75  1  0
 43 76  1  0
 44 77  1  0
 44 78  1  0
 45 79  1  0
 45 80  1  0
 46 81  1  0
 46 82  1  0
M  END
>  <Binding energies>  (1) 
[-9.23]

>  <Ligand effiencies>  (1) 
[-0.19229166666666667]

>  <Interactions>  (1) 
["H-A:GLU:543:OE2:4910, V-B:HIS:456:CE1:9040, V-B:GLU:543:CD:9880, V-A:GLU:543:CD:4908, V-A:TYR:539:CD1:4873, V-A:TYR:539:CE2:4876, V-A:TYR:539:CE1:4875, V-A:TYR:539:CZ:4877, V-A:ARG:545:CZ:4926, V-B:TYR:539:CZ:9849, V-B:ALA:541:CB:9864, V-A:ARG:545:CD:4923, H-A:TYR:484:OH:4348, V-A:HIS:456:CE1:4069, V-A:LEU:475:CD1:4258, V-A:TYR:484:CE1:4345, V-A:TYR:484:CZ:4347, H-A:GLY:454:N:4050, V-B:TYR:539:CD2:9846, V-B:TYR:539:CE2:9848, H-B:ALA:541:N:9863, V-A:GLU:543:CB:4906, V-B:LEU:363:CD1:8160, V-B:ILE:538:CB:9834, V-B:ILE:538:CG2:9835, V-A:GLY:453:CA:4044, V-A:ARG:545:CG:4922, H-B:TYR:539:N:9842, V-B:TYR:484:CZ:9318, V-B:TYR:484:CE1:9316, H-B:TYR:531:OH:9767, V-A:LEU:475:CG:4257"]

$$$$
RR29_Rahimova_2017
     RDKit          3D

 35 36  0  0  0  0  0  0  0  0999 V2000
  128.0260  132.3930   62.6100 C   0  0  0  0  0  0  0  0  0  0  0  0
  129.1120  132.3260   61.5470 C   0  0  0  0  0  0  0  0  0  0  0  0
  128.6540  132.8810   60.1800 C   0  0  0  0  0  0  0  0  0  0  0  0
  127.9470  131.8020   59.3340 C   0  0  0  0  0  0  0  0  0  0  0  0
  128.4480  131.7750   57.8980 C   0  0  0  0  0  0  0  0  0  0  0  0
  127.7890  130.9810   56.9380 C   0  0  0  0  0  0  0  0  0  0  0  0
  128.2340  130.9420   55.6090 C   0  0  0  0  0  0  0  0  0  0  0  0
  129.3500  131.7030   55.2820 C   0  0  0  0  0  0  0  0  0  0  0  0
  129.9940  132.4730   56.2100 C   0  0  0  0  0  0  0  0  0  0  0  0
  129.5690  132.5400   57.5320 C   0  0  0  0  0  0  0  0  0  0  0  0
  131.0220  133.1320   55.6120 O   0  0  0  0  0  0  0  0  0  0  0  0
  131.1280  132.5810   54.3260 C   0  0  0  0  0  0  0  0  0  0  0  0
  129.9530  131.8560   54.0740 O   0  0  0  0  0  0  0  0  0  0  0  0
  130.2510  131.8300   61.8640 N   0  0  0  0  0  0  0  0  0  0  0  0
  131.2070  131.6890   60.8820 N   0  0  0  0  0  0  0  0  0  0  0  0
  131.9340  130.5760   60.6950 C   0  0  0  0  0  0  0  0  0  0  0  0
  131.8160  129.4590   61.4140 N   0  0  0  0  0  0  0  0  0  0  0  0
  132.8340  130.5830   59.7230 N   0  0  0  0  0  0  0  0  0  0  0  0
  128.4876  132.3645   63.6081 H   0  0  0  0  0  0  0  0  0  0  0  0
  127.4578  133.3279   62.4953 H   0  0  0  0  0  0  0  0  0  0  0  0
  127.3472  131.5350   62.4953 H   0  0  0  0  0  0  0  0  0  0  0  0
  127.9568  133.7148   60.3493 H   0  0  0  0  0  0  0  0  0  0  0  0
  129.5454  133.2179   59.6306 H   0  0  0  0  0  0  0  0  0  0  0  0
  128.1295  130.8182   59.7910 H   0  0  0  0  0  0  0  0  0  0  0  0
  126.8736  132.0414   59.3117 H   0  0  0  0  0  0  0  0  0  0  0  0
  126.9141  130.3841   57.2353 H   0  0  0  0  0  0  0  0  0  0  0  0
  127.7187  130.3315   54.8529 H   0  0  0  0  0  0  0  0  0  0  0  0
  130.0921  133.1701   58.2664 H   0  0  0  0  0  0  0  0  0  0  0  0
  131.2395  133.3839   53.5825 H   0  0  0  0  0  0  0  0  0  0  0  0
  132.0077  131.9239   54.2598 H   0  0  0  0  0  0  0  0  0  0  0  0
  131.3760  132.4940   60.2950 H   0  0  0  0  0  0  0  0  0  0  0  0
  132.1450  128.5790   61.0440 H   0  0  0  0  0  0  0  0  0  0  0  0
  131.3860  129.4990   62.3270 H   0  0  0  0  0  0  0  0  0  0  0  0
  133.1890  131.4600   59.3700 H   0  0  0  0  0  0  0  0  0  0  0  0
  133.1700  129.7110   59.3410 H   0  0  0  0  0  0  0  0  0  0  0  0
  1  2  1  0
  2  3  1  0
  3  4  1  0
  4  5  1  0
  5  6  2  0
  6  7  1  0
  7  8  2  0
  8  9  1  0
  9 10  2  0
  9 11  1  0
 11 12  1  0
 12 13  1  0
  2 14  2  0
 14 15  1  0
 15 16  1  0
 16 17  1  0
 16 18  2  0
 10  5  1  0
 13  8  1  0
  1 19  1  0
  1 20  1  0
  1 21  1  0
  3 22  1  0
  3 23  1  0
  4 24  1  0
  4 25  1  0
  6 26  1  0
  7 27  1  0
 10 28  1  0
 12 29  1  0
 12 30  1  0
 15 31  1  0
 17 32  1  0
 17 33  1  0
 18 34  1  0
 18 35  1  0
M  CHG  1  18   1
M  END
>  <Binding energies>  (1) 
[-7.3]

>  <Ligand effiencies>  (1) 
[-0.3173913043478261]

>  <Interactions>  (1) 
["V-A:PRO:540:CB:4885, V-A:ALA:541:CB:4892, H-A:GLU:543:OE2:4910, H-A:GLU:543:OE1:4909, V-A:ASP:366:CG:3213, V-A:PRO:540:CA:4883, V-A:GLU:543:CD:4908, V-A:TYR:539:CD1:4873, V-A:TYR:539:CE2:4876, V-A:ILE:538:CD1:4865, V-A:TYR:539:CG:4872, V-A:TYR:539:CE1:4875, V-A:PRO:540:C:4881, V-A:TYR:539:C:4867, V-A:TYR:539:CZ:4877, V-A:PRO:540:N:4884, V-A:ILE:538:CA:4860, H-A:TYR:539:N:4870, H-A:ALA:541:N:4891, H-A:ASP:366:OD1:3214"]

$$$$
RR29_Rahimova_2017-again1
     RDKit          3D

 34 35  0  0  0  0  0  0  0  0999 V2000
  128.0700  132.1610   62.7160 C   0  0  0  0  0  0  0  0  0  0  0  0
  129.1610  132.2410   61.6590 C   0  0  0  0  0  0  0  0  0  0  0  0
  128.6770  132.8290   60.3200 C   0  0  0  0  0  0  0  0  0  0  0  0
  128.0100  131.7530   59.4370 C   0  0  0  0  0  0  0  0  0  0  0  0
  128.5610  131.7480   58.0190 C   0  0  0  0  0  0  0  0  0  0  0  0
  127.9190  130.9930   57.0180 C   0  0  0  0  0  0  0  0  0  0  0  0
  128.4080  130.9750   55.7050 C   0  0  0  0  0  0  0  0  0  0  0  0
  129.5500  131.7210   55.4330 C   0  0  0  0  0  0  0  0  0  0  0  0
  130.1780  132.4540   56.4010 C   0  0  0  0  0  0  0  0  0  0  0  0
  129.7090  132.4970   57.7090 C   0  0  0  0  0  0  0  0  0  0  0  0
  131.2390  133.1030   55.8540 O   0  0  0  0  0  0  0  0  0  0  0  0
  131.3780  132.5790   54.5600 C   0  0  0  0  0  0  0  0  0  0  0  0
  130.1970  131.8880   54.2510 O   0  0  0  0  0  0  0  0  0  0  0  0
  130.3420  131.8150   61.9420 N   0  0  0  0  0  0  0  0  0  0  0  0
  131.2340  131.8740   61.0060 N   0  0  0  0  0  0  0  0  0  0  0  0
  131.9470  130.8260   60.8040 C   0  0  0  0  0  0  0  0  0  0  0  0
  131.8890  129.5810   61.4900 N   0  0  0  0  0  0  0  0  0  0  0  0
  132.9390  130.7980   59.8010 N   0  0  0  0  0  0  0  0  0  0  0  0
  128.5257  132.1944   63.7166 H   0  0  0  0  0  0  0  0  0  0  0  0
  127.3820  133.0111   62.5979 H   0  0  0  0  0  0  0  0  0  0  0  0
  127.5133  131.2196   62.5979 H   0  0  0  0  0  0  0  0  0  0  0  0
  127.9477  133.6270   60.5230 H   0  0  0  0  0  0  0  0  0  0  0  0
  129.5507  133.2243   59.7811 H   0  0  0  0  0  0  0  0  0  0  0  0
  128.1862  130.7656   59.8886 H   0  0  0  0  0  0  0  0  0  0  0  0
  126.9357  131.9824   59.3801 H   0  0  0  0  0  0  0  0  0  0  0  0
  127.0214  130.4095   57.2705 H   0  0  0  0  0  0  0  0  0  0  0  0
  127.9070  130.3921   54.9181 H   0  0  0  0  0  0  0  0  0  0  0  0
  130.2197  133.0976   58.4761 H   0  0  0  0  0  0  0  0  0  0  0  0
  131.5337  133.3957   53.8397 H   0  0  0  0  0  0  0  0  0  0  0  0
  132.2445  131.9034   54.5088 H   0  0  0  0  0  0  0  0  0  0  0  0
  131.2410  129.4160   62.2470 H   0  0  0  0  0  0  0  0  0  0  0  0
  132.4970  128.8090   61.2640 H   0  0  0  0  0  0  0  0  0  0  0  0
  133.1290  131.5960   59.2120 H   0  0  0  0  0  0  0  0  0  0  0  0
  133.5130  129.9870   59.6290 H   0  0  0  0  0  0  0  0  0  0  0  0
  1  2  1  0
  2  3  1  0
  3  4  1  0
  4  5  1  0
  5  6  2  0
  6  7  1  0
  7  8  2  0
  8  9  1  0
  9 10  2  0
  9 11  1  0
 11 12  1  0
 12 13  1  0
  2 14  2  0
 14 15  1  0
 15 16  2  0
 16 17  1  0
 16 18  1  0
 10  5  1  0
 13  8  1  0
  1 19  1  0
  1 20  1  0
  1 21  1  0
  3 22  1  0
  3 23  1  0
  4 24  1  0
  4 25  1  0
  6 26  1  0
  7 27  1  0
 10 28  1  0
 12 29  1  0
 12 30  1  0
 17 31  1  0
 17 32  1  0
 18 33  1  0
 18 34  1  0
M  END
>  <Binding energies>  (1) 
[-7.22]

>  <Ligand effiencies>  (1) 
[-0.3281818181818182]

>  <Interactions>  (1) 
["V-A:PRO:540:CB:4885, V-A:ALA:541:CB:4892, H-A:GLU:543:OE2:4910, H-A:GLU:543:OE1:4909, V-A:ASP:366:CG:3213, V-A:PRO:540:CA:4883, V-A:GLU:543:CD:4908, V-A:TYR:539:CD1:4873, V-A:TYR:539:CE2:4876, V-A:ILE:538:CD1:4865, V-A:TYR:539:CE1:4875, V-A:TYR:539:C:4867, V-A:TYR:539:CZ:4877, V-A:PRO:540:N:4884, V-A:ILE:538:CA:4860, H-A:TYR:539:N:4870, V-A:ILE:538:CG2:4863, H-A:ALA:541:N:4891, H-A:ASP:366:OD1:3214, H-A:ASP:366:OD2:3215"]

$$$$
RR2_Rahimova_2017
     RDKit          3D

 76 80  0  0  0  0  0  0  0  0999 V2000
  134.1140  118.9310   60.4840 C   0  0  0  0  0  0  0  0  0  0  0  0
  133.5160  119.8500   61.3910 O   0  0  0  0  0  0  0  0  0  0  0  0
  132.2560  120.3470   61.1150 C   0  0  0  0  0  0  0  0  0  0  0  0
  131.0820  119.5820   61.1310 C   0  0  0  0  0  0  0  0  0  0  0  0
  129.8550  120.1690   60.8350 C   0  0  0  0  0  0  0  0  0  0  0  0
  129.7730  121.5320   60.5150 C   0  0  0  0  0  0  0  0  0  0  0  0
  128.4250  122.1460   60.1900 C   0  0  0  0  0  0  0  0  0  0  0  0
  127.6120  122.3770   61.0910 O   0  0  0  0  0  0  0  0  0  0  0  0
  128.1910  122.3960   58.8800 N   0  0  0  0  0  0  0  0  0  0  0  0
  126.9360  122.8730   58.5170 N   0  0  0  0  0  0  0  0  0  0  0  0
  126.4660  122.5640   57.2920 C   0  0  0  0  0  0  0  0  0  0  0  0
  127.1300  122.0400   56.3930 O   0  0  0  0  0  0  0  0  0  0  0  0
  124.9850  122.8850   57.0520 C   0  0  0  0  0  0  0  0  0  0  0  0
  124.5400  124.6530   57.2090 S   0  0  0  0  0  0  0  0  0  0  0  0
  125.8210  125.3980   56.2460 C   0  0  0  0  0  0  0  0  0  0  0  0
  126.3190  124.8430   55.1700 N   0  0  0  0  0  0  0  0  0  0  0  0
  127.3450  125.6600   54.7160 N   0  0  0  0  0  0  0  0  0  0  0  0
  127.4090  126.6950   55.5190 C   0  0  0  0  0  0  0  0  0  0  0  0
  128.3870  127.8120   55.3440 C   0  0  0  0  0  0  0  0  0  0  0  0
  129.2530  128.1470   56.3880 C   0  0  0  0  0  0  0  0  0  0  0  0
  130.1620  129.1900   56.2370 C   0  0  0  0  0  0  0  0  0  0  0  0
  130.2250  129.8980   55.0320 C   0  0  0  0  0  0  0  0  0  0  0  0
  131.1130  130.9650   54.8270 N   0  0  0  0  0  0  0  0  0  0  0  0
  130.9370  132.5810   55.5460 S   0  0  0  0  0  0  0  0  0  0  0  0
  129.8750  133.2480   54.7840 O   0  0  0  0  0  0  0  0  0  0  0  0
  132.2730  133.1780   55.6560 O   0  0  0  0  0  0  0  0  0  0  0  0
  130.2890  132.2940   57.1910 C   0  0  0  0  0  0  0  0  0  0  0  0
  128.9830  132.6680   57.5170 C   0  0  0  0  0  0  0  0  0  0  0  0
  128.5040  132.4500   58.8060 C   0  0  0  0  0  0  0  0  0  0  0  0
  129.3260  131.8540   59.7650 C   0  0  0  0  0  0  0  0  0  0  0  0
  128.8060  131.6320   61.1740 C   0  0  0  0  0  0  0  0  0  0  0  0
  130.6320  131.4850   59.4370 C   0  0  0  0  0  0  0  0  0  0  0  0
  131.1130  131.7030   58.1500 C   0  0  0  0  0  0  0  0  0  0  0  0
  129.3620  129.5610   53.9890 C   0  0  0  0  0  0  0  0  0  0  0  0
  128.4480  128.5220   54.1410 C   0  0  0  0  0  0  0  0  0  0  0  0
  126.4640  126.5900   56.5260 N   0  0  0  0  0  0  0  0  0  0  0  0
  126.2350  127.4640   57.6090 C   0  0  0  0  0  0  0  0  0  0  0  0
  126.6870  127.1250   58.8850 C   0  0  0  0  0  0  0  0  0  0  0  0
  126.4620  127.9940   59.9480 C   0  0  0  0  0  0  0  0  0  0  0  0
  125.7880  129.2000   59.7500 C   0  0  0  0  0  0  0  0  0  0  0  0
  125.6110  129.9960   60.8660 O   0  0  0  0  0  0  0  0  0  0  0  0
  124.3370  130.5860   61.1040 C   0  0  0  0  0  0  0  0  0  0  0  0
  125.3360  129.5330   58.4620 C   0  0  0  0  0  0  0  0  0  0  0  0
  125.5600  128.6680   57.3950 C   0  0  0  0  0  0  0  0  0  0  0  0
  130.9520  122.2930   60.5070 C   0  0  0  0  0  0  0  0  0  0  0  0
  132.1770  121.7030   60.8040 C   0  0  0  0  0  0  0  0  0  0  0  0
  134.6286  118.1401   61.0494 H   0  0  0  0  0  0  0  0  0  0  0  0
  133.3350  118.4814   59.8507 H   0  0  0  0  0  0  0  0  0  0  0  0
  134.8406  119.4611   59.8507 H   0  0  0  0  0  0  0  0  0  0  0  0
  131.1303  118.5114   61.3789 H   0  0  0  0  0  0  0  0  0  0  0  0
  128.9406  119.5577   60.8523 H   0  0  0  0  0  0  0  0  0  0  0  0
  128.5990  121.8270   58.1530 H   0  0  0  0  0  0  0  0  0  0  0  0
  126.3400  123.0720   59.3090 H   0  0  0  0  0  0  0  0  0  0  0  0
  124.7256  122.5571   56.0346 H   0  0  0  0  0  0  0  0  0  0  0  0
  124.4253  122.3567   57.8379 H   0  0  0  0  0  0  0  0  0  0  0  0
  129.2162  127.5844   57.3325 H   0  0  0  0  0  0  0  0  0  0  0  0
  130.8323  129.4583   57.0669 H   0  0  0  0  0  0  0  0  0  0  0  0
  131.9240  130.7960   54.2500 H   0  0  0  0  0  0  0  0  0  0  0  0
  128.3359  133.1327   56.7585 H   0  0  0  0  0  0  0  0  0  0  0  0
  127.4781  132.7472   59.0691 H   0  0  0  0  0  0  0  0  0  0  0  0
  129.5656  131.9563   61.9005 H   0  0  0  0  0  0  0  0  0  0  0  0
  127.8852  132.2154   61.3212 H   0  0  0  0  0  0  0  0  0  0  0  0
  128.5905  130.5634   61.3212 H   0  0  0  0  0  0  0  0  0  0  0  0
  131.2802  131.0222   60.1957 H   0  0  0  0  0  0  0  0  0  0  0  0
  132.1406  131.4102   57.8887 H   0  0  0  0  0  0  0  0  0  0  0  0
  129.4039  130.1189   53.0419 H   0  0  0  0  0  0  0  0  0  0  0  0
  127.7727  128.2592   53.3134 H   0  0  0  0  0  0  0  0  0  0  0  0
  127.2183  126.1759   59.0495 H   0  0  0  0  0  0  0  0  0  0  0  0
  126.8187  127.7280   60.9540 H   0  0  0  0  0  0  0  0  0  0  0  0
  124.1662  130.6651   62.1878 H   0  0  0  0  0  0  0  0  0  0  0  0
  124.3077  131.5893   60.6540 H   0  0  0  0  0  0  0  0  0  0  0  0
  123.5529  129.9593   60.6540 H   0  0  0  0  0  0  0  0  0  0  0  0
  124.8031  130.4809   58.2964 H   0  0  0  0  0  0  0  0  0  0  0  0
  125.2069  128.9314   56.3871 H   0  0  0  0  0  0  0  0  0  0  0  0
  130.9076  123.3649   60.2639 H   0  0  0  0  0  0  0  0  0  0  0  0
  133.0921  122.3133   60.7931 H   0  0  0  0  0  0  0  0  0  0  0  0
  1  2  1  0
  2  3  1  0
  3  4  2  0
  4  5  1  0
  5  6  2  0
  6  7  1  0
  7  8  2  0
  7  9  1  0
  9 10  1  0
 10 11  1  0
 11 12  2  0
 11 13  1  0
 13 14  1  0
 14 15  1  0
 15 16  2  0
 16 17  1  0
 17 18  2  0
 18 19  1  0
 19 20  2  0
 20 21  1  0
 21 22  2  0
 22 23  1  0
 23 24  1  0
 24 25  2  0
 24 26  2  0
 24 27  1  0
 27 28  2  0
 28 29  1  0
 29 30  2  0
 30 31  1  0
 30 32  1  0
 32 33  2  0
 22 34  1  0
 34 35  2  0
 18 36  1  0
 36 37  1  0
 37 38  2  0
 38 39  1  0
 39 40  2  0
 40 41  1  0
 41 42  1  0
 40 43  1  0
 43 44  2  0
  6 45  1  0
 45 46  2  0
 46  3  1  0
 36 15  1  0
 44 37  1  0
 35 19  1  0
 33 27  1  0
  1 47  1  0
  1 48  1  0
  1 49  1  0
  4 50  1  0
  5 51  1  0
  9 52  1  0
 10 53  1  0
 13 54  1  0
 13 55  1  0
 20 56  1  0
 21 57  1  0
 23 58  1  0
 28 59  1  0
 29 60  1  0
 31 61  1  0
 31 62  1  0
 31 63  1  0
 32 64  1  0
 33 65  1  0
 34 66  1  0
 35 67  1  0
 38 68  1  0
 39 69  1  0
 42 70  1  0
 42 71  1  0
 42 72  1  0
 43 73  1  0
 44 74  1  0
 45 75  1  0
 46 76  1  0
M  END
>  <Binding energies>  (1) 
[-11.45]

>  <Ligand effiencies>  (1) 
[-0.2336734693877551]

>  <Interactions>  (1) 
["V-A:PRO:540:CB:4885, V-A:PRO:540:CA:4883, V-A:TYR:539:CD1:4873, V-A:TYR:539:CD2:4874, V-A:TYR:539:CE2:4876, V-A:TYR:539:CG:4872, V-A:TYR:539:CE1:4875, V-A:TYR:539:C:4867, V-A:TYR:539:CZ:4877, V-A:TYR:531:CE2:4793, V-A:PRO:540:N:4884, V-A:TYR:531:CZ:4794, V-B:ASP:366:CG:8184, V-A:MET:535:CE:4835, V-B:ALA:541:CB:9864, V-A:LEU:475:CD1:4258, V-B:PRO:540:N:9856, V-B:TYR:539:CD2:9846, V-B:PRO:540:CA:9855, V-B:TYR:539:C:9839, V-B:TYR:539:CE2:9848, V-A:ILE:538:CA:4860, V-A:ILE:369:CD1:3239, H-A:TYR:539:N:4870, V-A:ILE:369:CG2:3237, H-B:ALA:541:N:9863, V-B:PRO:540:CD:9859, V-B:PRO:540:CB:9857, V-B:TYR:531:CZ:9766, V-A:PRO:482:CB:4326, V-A:PRO:482:CG:4327, V-B:LEU:363:CD1:8160, V-B:TYR:531:CE2:9765, V-A:TRP:381:CZ2:3370, V-A:TRP:381:CH2:3372, H-B:TYR:539:N:9842, H-A:TYR:531:OH:4795, V-A:SER:385:C:3405, V-A:SER:385:CA:3407, H-B:TYR:531:OH:9767, V-B:ASP:366:CB:8183, V-B:PRO:540:CG:9858, H-B:TYR:539:O:9840"]

$$$$
RR30_Rahimova_2017
     RDKit          3D

 29 30  0  0  0  0  0  0  0  0999 V2000
  133.5180  130.2400   57.3720 C   0  0  0  0  0  0  0  0  0  0  0  0
  133.2440  131.7490   57.3070 C   0  0  0  0  0  0  0  0  0  0  0  0
  131.9760  132.0690   56.5460 C   0  0  0  0  0  0  0  0  0  0  0  0
  131.6720  133.1690   55.9030 N   0  0  0  0  0  0  0  0  0  0  0  0
  130.3960  132.9690   55.3840 N   0  0  0  0  0  0  0  0  0  0  0  0
  130.0340  131.7700   55.7660 C   0  0  0  0  0  0  0  0  0  0  0  0
  128.5200  130.9390   55.4090 S   0  0  0  0  0  0  0  0  0  0  0  0
  127.6820  131.1100   57.0160 C   0  0  0  0  0  0  0  0  0  0  0  0
  128.5910  131.7360   58.0780 C   0  0  0  0  0  0  0  0  0  0  0  0
  128.7560  132.9580   58.0850 O   0  0  0  0  0  0  0  0  0  0  0  0
  129.1860  130.8720   58.9310 N   0  0  0  0  0  0  0  0  0  0  0  0
  130.0480  131.1990   59.9670 C   0  0  0  0  0  0  0  0  0  0  0  0
  129.8490  132.0420   60.9560 N   0  0  0  0  0  0  0  0  0  0  0  0
  130.9390  132.1170   61.8130 N   0  0  0  0  0  0  0  0  0  0  0  0
  131.9350  131.3370   61.4590 C   0  0  0  0  0  0  0  0  0  0  0  0
  133.2310  131.2470   62.2310 C   0  0  0  0  0  0  0  0  0  0  0  0
  131.6000  130.4240   60.0130 S   0  0  0  0  0  0  0  0  0  0  0  0
  130.9870  131.1410   56.5010 O   0  0  0  0  0  0  0  0  0  0  0  0
  133.5756  129.9228   58.4237 H   0  0  0  0  0  0  0  0  0  0  0  0
  132.7037  129.6975   56.8694 H   0  0  0  0  0  0  0  0  0  0  0  0
  134.4711  130.0184   56.8694 H   0  0  0  0  0  0  0  0  0  0  0  0
  133.1487  132.1359   58.3323 H   0  0  0  0  0  0  0  0  0  0  0  0
  134.0838  132.2214   56.7764 H   0  0  0  0  0  0  0  0  0  0  0  0
  126.7956  131.7485   56.8873 H   0  0  0  0  0  0  0  0  0  0  0  0
  127.4032  130.1033   57.3606 H   0  0  0  0  0  0  0  0  0  0  0  0
  128.9960  129.8880   58.8080 H   0  0  0  0  0  0  0  0  0  0  0  0
  133.0169  131.2619   63.3099 H   0  0  0  0  0  0  0  0  0  0  0  0
  133.7475  130.3108   61.9725 H   0  0  0  0  0  0  0  0  0  0  0  0
  133.8719  132.1028   61.9725 H   0  0  0  0  0  0  0  0  0  0  0  0
  1  2  1  0
  2  3  1  0
  3  4  2  0
  4  5  1  0
  5  6  2  0
  6  7  1  0
  7  8  1  0
  8  9  1  0
  9 10  2  0
  9 11  1  0
 11 12  1  0
 12 13  2  0
 13 14  1  0
 14 15  2  0
 15 16  1  0
 15 17  1  0
  6 18  1  0
 18  3  1  0
 17 12  1  0
  1 19  1  0
  1 20  1  0
  1 21  1  0
  2 22  1  0
  2 23  1  0
  8 24  1  0
  8 25  1  0
 11 26  1  0
 16 27  1  0
 16 28  1  0
 16 29  1  0
M  END
>  <Binding energies>  (1) 
[-6.43]

>  <Ligand effiencies>  (1) 
[-0.33842105263157896]

>  <Interactions>  (1) 
["V-A:PRO:540:CB:4885, V-A:ASN:362:CB:3176, V-A:LEU:363:CA:3185, V-A:ASN:362:CG:3177, V-A:PRO:540:CA:4883, V-A:LEU:363:CB:3187, V-A:GLU:543:CD:4908, V-A:TYR:539:CE2:4876, V-A:TYR:539:CE1:4875, V-A:TYR:539:CZ:4877, V-A:ASP:366:CB:3212, V-A:ARG:545:CZ:4926, V-A:PRO:540:N:4884, V-A:PRO:540:CD:4887, H-A:TYR:539:N:4870, V-A:LEU:363:CD1:3189, V-A:PRO:540:CG:4886, H-A:ALA:541:N:4891, V-A:LEU:363:CG:3188"]

$$$$
RR31_Rahimova_2017
     RDKit          3D

 44 45  0  0  0  0  0  0  0  0999 V2000
  133.6010  119.3920   61.4170 C   0  0  0  0  0  0  0  0  0  0  0  0
  132.2880  120.0930   61.0940 C   0  0  0  0  0  0  0  0  0  0  0  0
  131.1000  119.3630   61.1280 C   0  0  0  0  0  0  0  0  0  0  0  0
  129.8820  119.9760   60.8400 C   0  0  0  0  0  0  0  0  0  0  0  0
  129.8150  121.3410   60.5180 C   0  0  0  0  0  0  0  0  0  0  0  0
  128.6040  121.9680   60.2180 N   0  0  0  0  0  0  0  0  0  0  0  0
  127.8690  122.7680   61.2160 C   0  0  0  0  0  0  0  0  0  0  0  0
  126.3890  123.0310   60.8490 C   0  0  0  0  0  0  0  0  0  0  0  0
  126.2820  123.6690   59.5340 N   0  0  0  0  0  0  0  0  0  0  0  0
  124.8920  123.9640   59.1730 C   0  0  0  0  0  0  0  0  0  0  0  0
  124.7360  125.2960   58.4130 C   0  0  0  0  0  0  0  0  0  0  0  0
  125.7680  126.3450   58.8580 C   0  0  0  0  0  0  0  0  0  0  0  0
  125.8590  126.3750   60.3870 N   0  0  0  0  0  0  0  0  0  0  0  0
  126.8620  122.7520   58.5540 C   0  0  0  0  0  0  0  0  0  0  0  0
  128.3550  122.4940   58.8600 C   0  0  0  0  0  0  0  0  0  0  0  0
  131.0190  122.0620   60.4790 C   0  0  0  0  0  0  0  0  0  0  0  0
  132.2480  121.4570   60.7650 C   0  0  0  0  0  0  0  0  0  0  0  0
  133.5200  122.2940   60.7020 C   0  0  0  0  0  0  0  0  0  0  0  0
  133.7231  119.3268   62.5083 H   0  0  0  0  0  0  0  0  0  0  0  0
  133.5911  118.3791   60.9880 H   0  0  0  0  0  0  0  0  0  0  0  0
  134.4371  119.9637   60.9880 H   0  0  0  0  0  0  0  0  0  0  0  0
  131.1247  118.2936   61.3845 H   0  0  0  0  0  0  0  0  0  0  0  0
  128.9575  119.3804   60.8654 H   0  0  0  0  0  0  0  0  0  0  0  0
  127.8968  122.2325   62.1764 H   0  0  0  0  0  0  0  0  0  0  0  0
  128.3636  123.7495   61.2624 H   0  0  0  0  0  0  0  0  0  0  0  0
  125.8470  122.0740   60.8302 H   0  0  0  0  0  0  0  0  0  0  0  0
  125.9541  123.7039   61.6027 H   0  0  0  0  0  0  0  0  0  0  0  0
  124.5154  123.1506   58.5354 H   0  0  0  0  0  0  0  0  0  0  0  0
  124.3206  124.0507   60.1090 H   0  0  0  0  0  0  0  0  0  0  0  0
  124.8651  125.1068   57.3371 H   0  0  0  0  0  0  0  0  0  0  0  0
  123.7345  125.6942   58.6331 H   0  0  0  0  0  0  0  0  0  0  0  0
  126.7523  126.0880   58.4395 H   0  0  0  0  0  0  0  0  0  0  0  0
  125.4554  127.3354   58.4955 H   0  0  0  0  0  0  0  0  0  0  0  0
  125.0530  126.8470   60.7740 H   0  0  0  0  0  0  0  0  0  0  0  0
  126.6920  126.8660   60.6770 H   0  0  0  0  0  0  0  0  0  0  0  0
  125.8910  125.4350   60.7540 H   0  0  0  0  0  0  0  0  0  0  0  0
  126.3169  121.7971   58.5869 H   0  0  0  0  0  0  0  0  0  0  0  0
  126.7801  123.2055   57.5552 H   0  0  0  0  0  0  0  0  0  0  0  0
  128.7374  121.7650   58.1304 H   0  0  0  0  0  0  0  0  0  0  0  0
  128.8676  123.4650   58.7940 H   0  0  0  0  0  0  0  0  0  0  0  0
  130.9957  123.1301   60.2169 H   0  0  0  0  0  0  0  0  0  0  0  0
  133.8619  122.5189   61.7230 H   0  0  0  0  0  0  0  0  0  0  0  0
  134.3018  121.7333   60.1687 H   0  0  0  0  0  0  0  0  0  0  0  0
  133.3144  123.2339   60.1687 H   0  0  0  0  0  0  0  0  0  0  0  0
  1  2  1  0
  2  3  2  0
  3  4  1  0
  4  5  2  0
  5  6  1  0
  6  7  1  0
  7  8  1  0
  8  9  1  0
  9 10  1  0
 10 11  1  0
 11 12  1  0
 12 13  1  0
  9 14  1  0
 14 15  1  0
  5 16  1  0
 16 17  2  0
 17 18  1  0
 17  2  1  0
 15  6  1  0
  1 19  1  0
  1 20  1  0
  1 21  1  0
  3 22  1  0
  4 23  1  0
  7 24  1  0
  7 25  1  0
  8 26  1  0
  8 27  1  0
 10 28  1  0
 10 29  1  0
 11 30  1  0
 11 31  1  0
 12 32  1  0
 12 33  1  0
 13 34  1  0
 13 35  1  0
 13 36  1  0
 14 37  1  0
 14 38  1  0
 15 39  1  0
 15 40  1  0
 16 41  1  0
 18 42  1  0
 18 43  1  0
 18 44  1  0
M  CHG  1  13   1
M  END
>  <Binding energies>  (1) 
[-6.31]

>  <Ligand effiencies>  (1) 
[-0.30047619047619045]

>  <Interactions>  (1) 
["V-B:GLU:543:CD:9880, H-B:ASP:366:OD1:8185, V-B:ASP:366:CG:8184, H-B:GLU:543:OE2:9882, V-B:TYR:539:CZ:9849, V-B:ALA:541:CB:9864, V-B:GLU:543:CG:9879, V-A:LEU:475:CD1:4258, V-B:PRO:540:N:9856, V-B:TYR:539:CD2:9846, V-B:PRO:540:CA:9855, V-B:TYR:539:C:9839, V-B:TYR:539:CE2:9848, V-B:PRO:540:C:9853, V-A:ILE:369:CD1:3239, V-A:ILE:369:CG2:3237, V-B:PRO:540:CB:9857, V-A:PRO:482:CB:4326, V-A:PRO:482:CG:4327, V-A:TRP:381:CZ2:3370, V-A:TRP:381:CH2:3372, V-A:SER:385:C:3405, V-A:SER:385:CA:3407, H-B:ASP:366:OD2:8186"]

$$$$
RR32_Rahimova_2017
     RDKit          3D

 37 39  0  0  0  0  0  0  0  0999 V2000
  133.5110  130.8050   57.7990 C   0  0  0  0  0  0  0  0  0  0  0  0
  132.0750  131.3020   57.6740 C   0  0  0  0  0  0  0  0  0  0  0  0
  131.3010  131.3820   58.8320 C   0  0  0  0  0  0  0  0  0  0  0  0
  129.9870  131.8340   58.7570 C   0  0  0  0  0  0  0  0  0  0  0  0
  129.2220  131.9120   59.9080 N   0  0  0  0  0  0  0  0  0  0  0  0
  129.9230  131.7550   61.1960 C   0  0  0  0  0  0  0  0  0  0  0  0
  128.9640  131.6760   62.4070 C   0  0  0  0  0  0  0  0  0  0  0  0
  128.1310  132.8760   62.4720 N   0  0  0  0  0  0  0  0  0  0  0  0
  127.2480  132.8160   63.6320 C   0  0  0  0  0  0  0  0  0  0  0  0
  127.3450  132.9470   61.2420 C   0  0  0  0  0  0  0  0  0  0  0  0
  128.2790  133.0420   60.0130 C   0  0  0  0  0  0  0  0  0  0  0  0
  129.4070  132.2070   57.5870 N   0  0  0  0  0  0  0  0  0  0  0  0
  130.1350  132.1370   56.4390 C   0  0  0  0  0  0  0  0  0  0  0  0
  129.5040  132.5300   55.2340 C   0  0  0  0  0  0  0  0  0  0  0  0
  130.1990  132.4800   54.0310 C   0  0  0  0  0  0  0  0  0  0  0  0
  131.5190  132.0450   53.9970 C   0  0  0  0  0  0  0  0  0  0  0  0
  132.1680  131.6520   55.1640 C   0  0  0  0  0  0  0  0  0  0  0  0
  131.4950  131.6870   56.4200 C   0  0  0  0  0  0  0  0  0  0  0  0
  133.7760  130.7133   58.8627 H   0  0  0  0  0  0  0  0  0  0  0  0
  133.6028  129.8228   57.3123 H   0  0  0  0  0  0  0  0  0  0  0  0
  134.1903  131.5203   57.3123 H   0  0  0  0  0  0  0  0  0  0  0  0
  131.7284  131.0885   59.8021 H   0  0  0  0  0  0  0  0  0  0  0  0
  130.5173  130.8300   61.1599 H   0  0  0  0  0  0  0  0  0  0  0  0
  130.5527  132.6460   61.3358 H   0  0  0  0  0  0  0  0  0  0  0  0
  128.3188  130.7913   62.3022 H   0  0  0  0  0  0  0  0  0  0  0  0
  129.5576  131.6013   63.3300 H   0  0  0  0  0  0  0  0  0  0  0  0
  127.8487  132.8568   64.5526 H   0  0  0  0  0  0  0  0  0  0  0  0
  126.5539  133.6691   63.6090 H   0  0  0  0  0  0  0  0  0  0  0  0
  126.6757  131.8769   63.6090 H   0  0  0  0  0  0  0  0  0  0  0  0
  126.7230  132.0438   61.1562 H   0  0  0  0  0  0  0  0  0  0  0  0
  126.7067  133.8422   61.2764 H   0  0  0  0  0  0  0  0  0  0  0  0
  127.6593  133.0652   59.1045 H   0  0  0  0  0  0  0  0  0  0  0  0
  128.8785  133.9569   60.1293 H   0  0  0  0  0  0  0  0  0  0  0  0
  128.4600  132.8762   55.2497 H   0  0  0  0  0  0  0  0  0  0  0  0
  129.7010  132.7868   53.0994 H   0  0  0  0  0  0  0  0  0  0  0  0
  132.0562  132.0110   53.0377 H   0  0  0  0  0  0  0  0  0  0  0  0
  133.2125  131.3104   55.1164 H   0  0  0  0  0  0  0  0  0  0  0  0
  1  2  1  0
  2  3  2  0
  3  4  1  0
  4  5  1  0
  5  6  1  0
  6  7  1  0
  7  8  1  0
  8  9  1  0
  8 10  1  0
 10 11  1  0
  4 12  2  0
 12 13  1  0
 13 14  2  0
 14 15  1  0
 15 16  2  0
 16 17  1  0
 17 18  2  0
 18  2  1  0
 11  5  1  0
 18 13  1  0
  1 19  1  0
  1 20  1  0
  1 21  1  0
  3 22  1  0
  6 23  1  0
  6 24  1  0
  7 25  1  0
  7 26  1  0
  9 27  1  0
  9 28  1  0
  9 29  1  0
 10 30  1  0
 10 31  1  0
 11 32  1  0
 11 33  1  0
 14 34  1  0
 15 35  1  0
 16 36  1  0
 17 37  1  0
M  END
>  <Binding energies>  (1) 
[-6.29]

>  <Ligand effiencies>  (1) 
[-0.34944444444444445]

>  <Interactions>  (1) 
["V-A:PRO:540:CB:4885, V-A:ALA:541:CB:4892, V-A:LEU:363:CA:3185, V-B:LEU:475:CD1:9229, V-A:PRO:540:CA:4883, V-A:LEU:363:CB:3187, V-A:TYR:539:CD1:4873, V-A:TYR:539:CD2:4874, V-A:TYR:539:CE2:4876, V-A:ILE:538:CD1:4865, V-A:TYR:539:CG:4872, V-A:TYR:539:CE1:4875, V-A:TYR:539:C:4867, V-A:TYR:531:CE2:4793, V-A:PRO:540:N:4884, V-A:TYR:531:CZ:4794, V-A:ILE:538:CA:4860, V-A:LEU:363:CD1:3189"]

$$$$
RR32_Rahimova_2017-again1
     RDKit          3D

 38 40  0  0  0  0  0  0  0  0999 V2000
  133.9960  129.8700   56.5980 C   0  0  0  0  0  0  0  0  0  0  0  0
  132.8060  130.6320   57.1650 C   0  0  0  0  0  0  0  0  0  0  0  0
  132.5460  130.6110   58.5350 C   0  0  0  0  0  0  0  0  0  0  0  0
  131.4540  131.3150   59.0540 C   0  0  0  0  0  0  0  0  0  0  0  0
  131.1680  131.3000   60.4230 N   0  0  0  0  0  0  0  0  0  0  0  0
  129.7700  131.3540   60.8940 C   0  0  0  0  0  0  0  0  0  0  0  0
  129.1130  129.9550   60.9660 C   0  0  0  0  0  0  0  0  0  0  0  0
  129.9080  129.0900   61.9640 N   0  0  0  0  0  0  0  0  0  0  0  0
  129.3060  127.6750   62.0630 C   0  0  0  0  0  0  0  0  0  0  0  0
  131.3780  129.0260   61.5010 C   0  0  0  0  0  0  0  0  0  0  0  0
  131.9220  130.4700   61.3860 C   0  0  0  0  0  0  0  0  0  0  0  0
  130.6100  132.0110   58.2430 N   0  0  0  0  0  0  0  0  0  0  0  0
  130.8400  132.0520   56.9030 C   0  0  0  0  0  0  0  0  0  0  0  0
  129.9500  132.7970   56.0920 C   0  0  0  0  0  0  0  0  0  0  0  0
  130.1490  132.8680   54.7160 C   0  0  0  0  0  0  0  0  0  0  0  0
  131.2210  132.2090   54.1220 C   0  0  0  0  0  0  0  0  0  0  0  0
  132.1120  131.4670   54.8930 C   0  0  0  0  0  0  0  0  0  0  0  0
  131.9420  131.3710   56.3020 C   0  0  0  0  0  0  0  0  0  0  0  0
  134.6078  129.4782   57.4240 H   0  0  0  0  0  0  0  0  0  0  0  0
  133.6356  129.0343   55.9802 H   0  0  0  0  0  0  0  0  0  0  0  0
  134.6043  130.5470   55.9802 H   0  0  0  0  0  0  0  0  0  0  0  0
  133.2010  130.0396   59.2091 H   0  0  0  0  0  0  0  0  0  0  0  0
  129.7534  131.8033   61.8979 H   0  0  0  0  0  0  0  0  0  0  0  0
  129.1976  131.9546   60.1717 H   0  0  0  0  0  0  0  0  0  0  0  0
  128.0716  130.0516   61.3067 H   0  0  0  0  0  0  0  0  0  0  0  0
  129.1200  129.4846   59.9717 H   0  0  0  0  0  0  0  0  0  0  0  0
  129.8770  129.5350   62.8700 H   0  0  0  0  0  0  0  0  0  0  0  0
  129.1888  127.3996   63.1215 H   0  0  0  0  0  0  0  0  0  0  0  0
  128.3232  127.6592   61.5691 H   0  0  0  0  0  0  0  0  0  0  0  0
  129.9762  126.9560   61.5691 H   0  0  0  0  0  0  0  0  0  0  0  0
  131.9735  128.4629   62.2346 H   0  0  0  0  0  0  0  0  0  0  0  0
  131.4436  128.5207   60.5261 H   0  0  0  0  0  0  0  0  0  0  0  0
  131.8656  130.9450   62.3765 H   0  0  0  0  0  0  0  0  0  0  0  0
  132.9569  130.4018   61.0195 H   0  0  0  0  0  0  0  0  0  0  0  0
  129.0987  133.3213   56.5506 H   0  0  0  0  0  0  0  0  0  0  0  0
  129.4533  133.4497   54.0934 H   0  0  0  0  0  0  0  0  0  0  0  0
  131.3659  132.2748   53.0336 H   0  0  0  0  0  0  0  0  0  0  0  0
  132.9541  130.9510   54.4086 H   0  0  0  0  0  0  0  0  0  0  0  0
  1  2  1  0
  2  3  2  0
  3  4  1  0
  4  5  1  0
  5  6  1  0
  6  7  1  0
  7  8  1  0
  8  9  1  0
  8 10  1  0
 10 11  1  0
  4 12  2  0
 12 13  1  0
 13 14  2  0
 14 15  1  0
 15 16  2  0
 16 17  1  0
 17 18  2  0
 18  2  1  0
 11  5  1  0
 18 13  1  0
  1 19  1  0
  1 20  1  0
  1 21  1  0
  3 22  1  0
  6 23  1  0
  6 24  1  0
  7 25  1  0
  7 26  1  0
  8 27  1  0
  9 28  1  0
  9 29  1  0
  9 30  1  0
 10 31  1  0
 10 32  1  0
 11 33  1  0
 11 34  1  0
 14 35  1  0
 15 36  1  0
 16 37  1  0
 17 38  1  0
M  CHG  1   8   1
M  END
>  <Binding energies>  (1) 
[-6.87]

>  <Ligand effiencies>  (1) 
[-0.36157894736842106]

>  <Interactions>  (1) 
["V-A:PRO:540:CB:4885, V-A:LEU:363:CA:3185, H-A:GLU:543:OE2:4910, H-A:GLU:543:OE1:4909, V-A:PRO:540:CA:4883, V-A:GLU:543:CD:4908, V-A:TYR:539:CD1:4873, V-A:ILE:538:CD1:4865, V-A:TYR:539:CG:4872, V-A:TYR:539:CE1:4875, V-A:TYR:539:C:4867, V-A:ASP:366:CB:3212, V-A:TYR:531:CE2:4793, V-A:PRO:540:N:4884, V-A:TYR:531:CZ:4794, V-A:ILE:538:CA:4860, V-A:LEU:363:CD1:3189, V-A:TYR:539:CA:4869, V-A:ILE:538:C:4858"]

$$$$
RR32_Rahimova_2017-again2
     RDKit          3D

 39 41  0  0  0  0  0  0  0  0999 V2000
  133.9960  129.7080   56.5190 C   0  0  0  0  0  0  0  0  0  0  0  0
  132.8410  130.4700   57.1560 C   0  0  0  0  0  0  0  0  0  0  0  0
  132.6320  130.4030   58.5370 C   0  0  0  0  0  0  0  0  0  0  0  0
  131.5720  131.0910   59.1400 C   0  0  0  0  0  0  0  0  0  0  0  0
  131.3220  131.0670   60.5600 N   0  0  0  0  0  0  0  0  0  0  0  0
  129.9570  131.3060   61.0980 C   0  0  0  0  0  0  0  0  0  0  0  0
  129.1330  129.9910   61.1110 C   0  0  0  0  0  0  0  0  0  0  0  0
  129.8530  128.9400   61.9890 N   0  0  0  0  0  0  0  0  0  0  0  0
  129.0930  127.6000   61.9810 C   0  0  0  0  0  0  0  0  0  0  0  0
  131.3120  128.7520   61.5090 C   0  0  0  0  0  0  0  0  0  0  0  0
  132.0210  130.1320   61.4780 C   0  0  0  0  0  0  0  0  0  0  0  0
  130.7650  131.8270   58.3480 N   0  0  0  0  0  0  0  0  0  0  0  0
  130.8940  131.9540   56.9840 C   0  0  0  0  0  0  0  0  0  0  0  0
  129.9900  132.7520   56.2470 C   0  0  0  0  0  0  0  0  0  0  0  0
  130.1530  132.8600   54.8680 C   0  0  0  0  0  0  0  0  0  0  0  0
  131.1890  132.1920   54.2210 C   0  0  0  0  0  0  0  0  0  0  0  0
  132.0880  131.4010   54.9370 C   0  0  0  0  0  0  0  0  0  0  0  0
  131.9640  131.2580   56.3480 C   0  0  0  0  0  0  0  0  0  0  0  0
  134.6360  129.2858   57.3077 H   0  0  0  0  0  0  0  0  0  0  0  0
  133.5984  128.8943   55.8946 H   0  0  0  0  0  0  0  0  0  0  0  0
  134.5876  130.3937   55.8946 H   0  0  0  0  0  0  0  0  0  0  0  0
  133.3105  129.8007   59.1590 H   0  0  0  0  0  0  0  0  0  0  0  0
  130.0364  131.6922   62.1249 H   0  0  0  0  0  0  0  0  0  0  0  0
  129.4462  132.0364   60.4532 H   0  0  0  0  0  0  0  0  0  0  0  0
  128.1324  130.1893   61.5227 H   0  0  0  0  0  0  0  0  0  0  0  0
  129.0376  129.6078   60.0843 H   0  0  0  0  0  0  0  0  0  0  0  0
  129.8840  129.2970   62.9350 H   0  0  0  0  0  0  0  0  0  0  0  0
  128.9095  127.2764   63.0162 H   0  0  0  0  0  0  0  0  0  0  0  0
  128.1322  127.7265   61.4606 H   0  0  0  0  0  0  0  0  0  0  0  0
  129.6947  126.8403   61.4606 H   0  0  0  0  0  0  0  0  0  0  0  0
  131.8431  128.0810   62.2002 H   0  0  0  0  0  0  0  0  0  0  0  0
  131.3155  128.3121   60.5008 H   0  0  0  0  0  0  0  0  0  0  0  0
  132.0240  130.5581   62.4921 H   0  0  0  0  0  0  0  0  0  0  0  0
  133.0505  129.9899   61.1176 H   0  0  0  0  0  0  0  0  0  0  0  0
  130.0120  132.3290   58.7940 H   0  0  0  0  0  0  0  0  0  0  0  0
  129.1696  133.2801   56.7550 H   0  0  0  0  0  0  0  0  0  0  0  0
  129.4561  133.4793   54.2842 H   0  0  0  0  0  0  0  0  0  0  0  0
  131.3002  132.2891   53.1310 H   0  0  0  0  0  0  0  0  0  0  0  0
  132.9003  130.8829   54.4062 H   0  0  0  0  0  0  0  0  0  0  0  0
  1  2  1  0
  2  3  2  0
  3  4  1  0
  4  5  1  0
  5  6  1  0
  6  7  1  0
  7  8  1  0
  8  9  1  0
  8 10  1  0
 10 11  1  0
  4 12  2  0
 12 13  1  0
 13 14  2  0
 14 15  1  0
 15 16  2  0
 16 17  1  0
 17 18  2  0
 18  2  1  0
 11  5  1  0
 18 13  1  0
  1 19  1  0
  1 20  1  0
  1 21  1  0
  3 22  1  0
  6 23  1  0
  6 24  1  0
  7 25  1  0
  7 26  1  0
  8 27  1  0
  9 28  1  0
  9 29  1  0
  9 30  1  0
 10 31  1  0
 10 32  1  0
 11 33  1  0
 11 34  1  0
 12 35  1  0
 14 36  1  0
 15 37  1  0
 16 38  1  0
 17 39  1  0
M  CHG  2   8   1  12   1
M  END
>  <Binding energies>  (1) 
[-7.02]

>  <Ligand effiencies>  (1) 
[-0.351]

>  <Interactions>  (1) 
["V-A:PRO:540:CB:4885, V-A:LEU:363:CA:3185, H-A:GLU:543:OE2:4910, H-A:GLU:543:OE1:4909, V-A:PRO:540:CA:4883, V-A:GLU:543:CD:4908, V-A:TYR:539:CD1:4873, V-A:ILE:538:CD1:4865, V-A:TYR:539:CG:4872, V-A:TYR:539:CE1:4875, V-A:TYR:539:C:4867, V-A:ASP:366:CB:3212, V-A:TYR:531:CE2:4793, V-A:PRO:540:N:4884, V-A:TYR:531:CZ:4794, V-A:ILE:538:CA:4860, V-A:LEU:363:CD1:3189, V-A:TYR:539:CA:4869, V-A:ILE:538:C:4858, H-A:TYR:539:O:4868"]

$$$$
RR33_Rahimova_2017
     RDKit          3D

 36 37  0  0  0  0  0  0  0  0999 V2000
  125.9310  126.8700   74.1680 C   0  0  0  0  0  0  0  0  0  0  0  0
  127.4480  127.0550   74.0650 C   0  0  0  0  0  0  0  0  0  0  0  0
  128.0150  125.8770   73.5000 O   0  0  0  0  0  0  0  0  0  0  0  0
  128.3340  125.8550   72.1560 C   0  0  0  0  0  0  0  0  0  0  0  0
  127.6950  126.7970   71.3500 C   0  0  0  0  0  0  0  0  0  0  0  0
  127.9500  126.8490   69.9830 C   0  0  0  0  0  0  0  0  0  0  0  0
  128.8530  125.9560   69.3990 C   0  0  0  0  0  0  0  0  0  0  0  0
  129.1260  126.0120   67.9300 C   0  0  0  0  0  0  0  0  0  0  0  0
  129.7920  125.1430   67.2030 N   0  0  0  0  0  0  0  0  0  0  0  0
  129.7640  125.6230   65.9700 C   0  0  0  0  0  0  0  0  0  0  0  0
  130.4270  124.8790   64.8300 C   0  0  0  0  0  0  0  0  0  0  0  0
  130.8300  123.5460   65.2520 N   0  0  0  0  0  0  0  0  0  0  0  0
  129.8170  122.5670   64.8960 C   0  0  0  0  0  0  0  0  0  0  0  0
  129.0590  126.8200   65.9510 C   0  0  0  0  0  0  0  0  0  0  0  0
  128.6770  127.8250   64.8910 C   0  0  0  0  0  0  0  0  0  0  0  0
  128.6510  127.0670   67.2170 O   0  0  0  0  0  0  0  0  0  0  0  0
  129.5000  125.0130   70.2030 C   0  0  0  0  0  0  0  0  0  0  0  0
  129.2440  124.9600   71.5720 C   0  0  0  0  0  0  0  0  0  0  0  0
  125.6371  126.8342   75.2274 H   0  0  0  0  0  0  0  0  0  0  0  0
  125.4245  127.7130   73.6753 H   0  0  0  0  0  0  0  0  0  0  0  0
  125.6420  125.9300   73.6753 H   0  0  0  0  0  0  0  0  0  0  0  0
  127.6726  127.9188   73.4221 H   0  0  0  0  0  0  0  0  0  0  0  0
  127.8723  127.2328   75.0642 H   0  0  0  0  0  0  0  0  0  0  0  0
  126.9830  127.5052   71.7990 H   0  0  0  0  0  0  0  0  0  0  0  0
  127.4384  127.5965   69.3589 H   0  0  0  0  0  0  0  0  0  0  0  0
  129.7180  124.7941   63.9933 H   0  0  0  0  0  0  0  0  0  0  0  0
  131.3218  125.4366   64.5164 H   0  0  0  0  0  0  0  0  0  0  0  0
  130.9540  123.5390   66.2550 H   0  0  0  0  0  0  0  0  0  0  0  0
  129.3787  122.1434   65.8117 H   0  0  0  0  0  0  0  0  0  0  0  0
  129.0286  123.0541   64.3034 H   0  0  0  0  0  0  0  0  0  0  0  0
  130.2769  121.7624   64.3034 H   0  0  0  0  0  0  0  0  0  0  0  0
  128.3255  128.7497   65.3721 H   0  0  0  0  0  0  0  0  0  0  0  0
  129.5531  128.0479   64.2643 H   0  0  0  0  0  0  0  0  0  0  0  0
  127.8740  127.4097   64.2643 H   0  0  0  0  0  0  0  0  0  0  0  0
  130.2151  124.3089   69.7527 H   0  0  0  0  0  0  0  0  0  0  0  0
  129.7569  124.2141   72.1970 H   0  0  0  0  0  0  0  0  0  0  0  0
  1  2  1  0
  2  3  1  0
  3  4  1  0
  4  5  2  0
  5  6  1  0
  6  7  2  0
  7  8  1  0
  8  9  2  0
  9 10  1  0
 10 11  1  0
 11 12  1  0
 12 13  1  0
 10 14  2  0
 14 15  1  0
 14 16  1  0
  7 17  1  0
 17 18  2  0
 18  4  1  0
 16  8  1  0
  1 19  1  0
  1 20  1  0
  1 21  1  0
  2 22  1  0
  2 23  1  0
  5 24  1  0
  6 25  1  0
 11 26  1  0
 11 27  1  0
 12 28  1  0
 13 29  1  0
 13 30  1  0
 13 31  1  0
 15 32  1  0
 15 33  1  0
 15 34  1  0
 17 35  1  0
 18 36  1  0
M  END
>  <Binding energies>  (1) 
[-5.24]

>  <Ligand effiencies>  (1) 
[-0.27578947368421053]

>  <Interactions>  (1) 
["V-B:GLU:543:CB:9878, V-B:GLY:544:C:9884, V-B:HIS:456:CE1:9040, V-A:GLU:543:CD:4908, V-B:ALA:541:CB:9864, H-A:TYR:484:OH:4348, V-A:HIS:456:CE1:4069, V-B:GLU:543:CG:9879, V-A:TYR:484:CE1:4345, V-A:TYR:484:CZ:4347, V-A:HIS:456:CD2:4068, H-B:LYS:547:NZ:9923, V-B:GLU:543:CA:9876, V-B:LYS:547:CD:9921"]

$$$$
RR33_Rahimova_2017-again1
     RDKit          3D

 37 38  0  0  0  0  0  0  0  0999 V2000
  125.9570  126.7730   74.2460 C   0  0  0  0  0  0  0  0  0  0  0  0
  127.4690  126.9680   74.0990 C   0  0  0  0  0  0  0  0  0  0  0  0
  128.0260  125.8040   73.4960 O   0  0  0  0  0  0  0  0  0  0  0  0
  128.3200  125.8130   72.1460 C   0  0  0  0  0  0  0  0  0  0  0  0
  127.6170  126.7280   71.3620 C   0  0  0  0  0  0  0  0  0  0  0  0
  127.8470  126.8120   69.9910 C   0  0  0  0  0  0  0  0  0  0  0  0
  128.7870  125.9750   69.3820 C   0  0  0  0  0  0  0  0  0  0  0  0
  129.0370  126.0620   67.9100 C   0  0  0  0  0  0  0  0  0  0  0  0
  128.5330  126.9300   67.0610 N   0  0  0  0  0  0  0  0  0  0  0  0
  129.0460  126.6090   65.8830 C   0  0  0  0  0  0  0  0  0  0  0  0
  128.6860  127.3870   64.6320 C   0  0  0  0  0  0  0  0  0  0  0  0
  127.2920  128.0100   64.8110 N   0  0  0  0  0  0  0  0  0  0  0  0
  127.3120  129.5430   64.9050 C   0  0  0  0  0  0  0  0  0  0  0  0
  129.8800  125.5060   66.0250 C   0  0  0  0  0  0  0  0  0  0  0  0
  130.7300  124.6740   65.0970 C   0  0  0  0  0  0  0  0  0  0  0  0
  129.8720  125.1600   67.3340 O   0  0  0  0  0  0  0  0  0  0  0  0
  129.4950  125.0560   70.1650 C   0  0  0  0  0  0  0  0  0  0  0  0
  129.2650  124.9740   71.5350 C   0  0  0  0  0  0  0  0  0  0  0  0
  125.6937  126.7390   75.3135 H   0  0  0  0  0  0  0  0  0  0  0  0
  125.4308  127.6107   73.7650 H   0  0  0  0  0  0  0  0  0  0  0  0
  125.6605  125.8292   73.7650 H   0  0  0  0  0  0  0  0  0  0  0  0
  127.6687  127.8443   73.4649 H   0  0  0  0  0  0  0  0  0  0  0  0
  127.9226  127.1298   75.0880 H   0  0  0  0  0  0  0  0  0  0  0  0
  126.8739  127.3895   71.8312 H   0  0  0  0  0  0  0  0  0  0  0  0
  127.2871  127.5395   69.3850 H   0  0  0  0  0  0  0  0  0  0  0  0
  129.4269  128.1832   64.4674 H   0  0  0  0  0  0  0  0  0  0  0  0
  128.6814  126.7115   63.7639 H   0  0  0  0  0  0  0  0  0  0  0  0
  126.7100  127.7360   64.0330 H   0  0  0  0  0  0  0  0  0  0  0  0
  126.8790  127.6370   65.6540 H   0  0  0  0  0  0  0  0  0  0  0  0
  127.3159  129.8455   65.9626 H   0  0  0  0  0  0  0  0  0  0  0  0
  128.2153  129.9290   64.4099 H   0  0  0  0  0  0  0  0  0  0  0  0
  126.4191  129.9524   64.4099 H   0  0  0  0  0  0  0  0  0  0  0  0
  131.3925  124.0255   65.6891 H   0  0  0  0  0  0  0  0  0  0  0  0
  130.0804  124.0531   64.4626 H   0  0  0  0  0  0  0  0  0  0  0  0
  131.3369  125.3367   64.4626 H   0  0  0  0  0  0  0  0  0  0  0  0
  130.2376  124.3947   69.6947 H   0  0  0  0  0  0  0  0  0  0  0  0
  129.8263  124.2484   72.1419 H   0  0  0  0  0  0  0  0  0  0  0  0
  1  2  1  0
  2  3  1  0
  3  4  1  0
  4  5  2  0
  5  6  1  0
  6  7  2  0
  7  8  1  0
  8  9  2  0
  9 10  1  0
 10 11  1  0
 11 12  1  0
 12 13  1  0
 10 14  2  0
 14 15  1  0
 14 16  1  0
  7 17  1  0
 17 18  2  0
 18  4  1  0
 16  8  1  0
  1 19  1  0
  1 20  1  0
  1 21  1  0
  2 22  1  0
  2 23  1  0
  5 24  1  0
  6 25  1  0
 11 26  1  0
 11 27  1  0
 12 28  1  0
 12 29  1  0
 13 30  1  0
 13 31  1  0
 13 32  1  0
 15 33  1  0
 15 34  1  0
 15 35  1  0
 17 36  1  0
 18 37  1  0
M  CHG  1  12   1
M  END
>  <Binding energies>  (1) 
[-6.19]

>  <Ligand effiencies>  (1) 
[-0.3095]

>  <Interactions>  (1) 
["V-B:GLU:543:C:9874, V-B:GLU:543:CB:9878, V-B:GLY:544:C:9884, V-B:HIS:456:CE1:9040, V-B:GLU:543:CD:9880, V-A:GLU:543:CD:4908, H-B:GLU:543:OE1:9881, H-B:GLU:543:OE2:9882, H-A:TYR:484:OH:4348, V-A:HIS:456:CE1:4069, V-A:HIS:456:CD2:4068, H-B:LYS:547:NZ:9923, V-B:LYS:547:CD:9921"]

$$$$
RR3_Rahimova_2017
     RDKit          3D

 63 69  0  0  0  0  0  0  0  0999 V2000
  124.2320  132.2320   62.1690 C   0  0  0  0  0  0  0  0  0  0  0  0
  123.5800  131.0910   62.6240 C   0  0  0  0  0  0  0  0  0  0  0  0
  124.2170  130.2470   63.5280 C   0  0  0  0  0  0  0  0  0  0  0  0
  125.5110  130.5310   63.9900 C   0  0  0  0  0  0  0  0  0  0  0  0
  126.1950  129.6230   64.9640 C   0  0  0  0  0  0  0  0  0  0  0  0
  125.4670  128.9450   65.9500 C   0  0  0  0  0  0  0  0  0  0  0  0
  126.1040  128.1040   66.8580 C   0  0  0  0  0  0  0  0  0  0  0  0
  127.4890  127.9260   66.8040 C   0  0  0  0  0  0  0  0  0  0  0  0
  128.1800  127.0270   67.7800 C   0  0  0  0  0  0  0  0  0  0  0  0
  128.2200  127.3500   69.0680 N   0  0  0  0  0  0  0  0  0  0  0  0
  128.8410  126.3700   69.6810 C   0  0  0  0  0  0  0  0  0  0  0  0
  129.1080  126.3100   71.1150 C   0  0  0  0  0  0  0  0  0  0  0  0
  128.6670  127.2210   72.0600 C   0  0  0  0  0  0  0  0  0  0  0  0
  129.0950  126.8520   73.3090 N   0  0  0  0  0  0  0  0  0  0  0  0
  129.8320  125.6910   73.2270 C   0  0  0  0  0  0  0  0  0  0  0  0
  130.4680  124.9410   74.2230 C   0  0  0  0  0  0  0  0  0  0  0  0
  131.1470  123.7940   73.8140 C   0  0  0  0  0  0  0  0  0  0  0  0
  131.1960  123.4060   72.4790 C   0  0  0  0  0  0  0  0  0  0  0  0
  130.5620  124.1520   71.4880 C   0  0  0  0  0  0  0  0  0  0  0  0
  129.8630  125.3190   71.8460 C   0  0  0  0  0  0  0  0  0  0  0  0
  129.2190  125.4000   68.7940 N   0  0  0  0  0  0  0  0  0  0  0  0
  128.8270  125.8020   67.5430 C   0  0  0  0  0  0  0  0  0  0  0  0
  129.1260  125.0160   66.3080 C   0  0  0  0  0  0  0  0  0  0  0  0
  129.0580  125.6270   65.0560 C   0  0  0  0  0  0  0  0  0  0  0  0
  129.3230  124.8960   63.9030 C   0  0  0  0  0  0  0  0  0  0  0  0
  129.6670  123.5380   63.9740 C   0  0  0  0  0  0  0  0  0  0  0  0
  129.9330  122.7490   62.7310 C   0  0  0  0  0  0  0  0  0  0  0  0
  131.1760  122.1340   62.5210 C   0  0  0  0  0  0  0  0  0  0  0  0
  131.4220  121.3950   61.3650 C   0  0  0  0  0  0  0  0  0  0  0  0
  130.4230  121.2650   60.4050 C   0  0  0  0  0  0  0  0  0  0  0  0
  129.1830  121.8650   60.5930 C   0  0  0  0  0  0  0  0  0  0  0  0
  128.9410  122.6030   61.7480 C   0  0  0  0  0  0  0  0  0  0  0  0
  129.7490  122.9400   65.2390 C   0  0  0  0  0  0  0  0  0  0  0  0
  129.4840  123.6690   66.3950 C   0  0  0  0  0  0  0  0  0  0  0  0
  128.2210  128.5870   65.8160 C   0  0  0  0  0  0  0  0  0  0  0  0
  127.5820  129.4280   64.9100 C   0  0  0  0  0  0  0  0  0  0  0  0
  126.1500  131.6870   63.5160 C   0  0  0  0  0  0  0  0  0  0  0  0
  125.5160  132.5340   62.6120 C   0  0  0  0  0  0  0  0  0  0  0  0
  123.7294  132.9001   61.4542 H   0  0  0  0  0  0  0  0  0  0  0  0
  122.5650  130.8569   62.2706 H   0  0  0  0  0  0  0  0  0  0  0  0
  123.6991  129.3447   63.8854 H   0  0  0  0  0  0  0  0  0  0  0  0
  124.3767  129.0790   66.0076 H   0  0  0  0  0  0  0  0  0  0  0  0
  125.5140  127.5767   67.6221 H   0  0  0  0  0  0  0  0  0  0  0  0
  128.0607  128.1122   71.8402 H   0  0  0  0  0  0  0  0  0  0  0  0
  128.8760  127.3850   74.1370 H   0  0  0  0  0  0  0  0  0  0  0  0
  130.4337  125.2427   75.2802 H   0  0  0  0  0  0  0  0  0  0  0  0
  131.6585  123.1783   74.5685 H   0  0  0  0  0  0  0  0  0  0  0  0
  131.7450  122.4942   72.2010 H   0  0  0  0  0  0  0  0  0  0  0  0
  130.6075  123.8319   70.4366 H   0  0  0  0  0  0  0  0  0  0  0  0
  129.7220  124.5540   69.0170 H   0  0  0  0  0  0  0  0  0  0  0  0
  128.7935  126.6920   64.9803 H   0  0  0  0  0  0  0  0  0  0  0  0
  129.2620  125.3895   62.9218 H   0  0  0  0  0  0  0  0  0  0  0  0
  131.9670  122.2362   63.2785 H   0  0  0  0  0  0  0  0  0  0  0  0
  132.4009  120.9170   61.2124 H   0  0  0  0  0  0  0  0  0  0  0  0
  130.6157  120.6836   59.4913 H   0  0  0  0  0  0  0  0  0  0  0  0
  128.3962  121.7569   59.8319 H   0  0  0  0  0  0  0  0  0  0  0  0
  127.9596  123.0782   61.8927 H   0  0  0  0  0  0  0  0  0  0  0  0
  130.0269  121.8787   65.3196 H   0  0  0  0  0  0  0  0  0  0  0  0
  129.5568  123.1829   67.3791 H   0  0  0  0  0  0  0  0  0  0  0  0
  129.3096  128.4421   65.7533 H   0  0  0  0  0  0  0  0  0  0  0  0
  128.1733  129.9468   64.1411 H   0  0  0  0  0  0  0  0  0  0  0  0
  127.1657  131.9268   63.8637 H   0  0  0  0  0  0  0  0  0  0  0  0
  126.0274  133.4379   62.2494 H   0  0  0  0  0  0  0  0  0  0  0  0
  1  2  2  0
  2  3  1  0
  3  4  2  0
  4  5  1  0
  5  6  2  0
  6  7  1  0
  7  8  2  0
  8  9  1  0
  9 10  1  0
 10 11  2  0
 11 12  1  0
 12 13  2  0
 13 14  1  0
 14 15  1  0
 15 16  2  0
 16 17  1  0
 17 18  2  0
 18 19  1  0
 19 20  2  0
 11 21  1  0
 21 22  1  0
 22 23  1  0
 23 24  2  0
 24 25  1  0
 25 26  2  0
 26 27  1  0
 27 28  2  0
 28 29  1  0
 29 30  2  0
 30 31  1  0
 31 32  2  0
 26 33  1  0
 33 34  2  0
  8 35  1  0
 35 36  2  0
  4 37  1  0
 37 38  2  0
 38  1  1  0
 36  5  1  0
 22  9  2  0
 34 23  1  0
 20 12  1  0
 32 27  1  0
 20 15  1  0
  1 39  1  0
  2 40  1  0
  3 41  1  0
  6 42  1  0
  7 43  1  0
 13 44  1  0
 14 45  1  0
 16 46  1  0
 17 47  1  0
 18 48  1  0
 19 49  1  0
 21 50  1  0
 24 51  1  0
 25 52  1  0
 28 53  1  0
 29 54  1  0
 30 55  1  0
 31 56  1  0
 32 57  1  0
 33 58  1  0
 34 59  1  0
 35 60  1  0
 36 61  1  0
 37 62  1  0
 38 63  1  0
M  END
>  <Binding energies>  (1) 
[-10.27]

>  <Ligand effiencies>  (1) 
[-0.25675]

>  <Interactions>  (1) 
["V-B:ARG:545:CD:9895, V-B:GLU:543:C:9874, V-B:GLU:543:CB:9878, V-B:HIS:456:CE1:9040, V-B:LEU:475:CD1:9229, V-B:GLU:543:CD:9880, V-B:ARG:545:CG:9894, V-A:GLU:543:CD:4908, V-B:ILE:369:CD1:8210, V-B:ARG:545:CZ:9898, V-B:GLY:454:CA:9020, V-B:ALA:541:CB:9864, H-A:TYR:484:OH:4348, V-A:HIS:456:CE1:4069, V-B:GLU:543:CG:9879, V-A:LEU:475:CD1:4258, V-A:TYR:484:CE1:4345, V-A:TYR:484:CZ:4347, V-B:TYR:539:CD2:9846, V-B:TYR:539:CE2:9848, V-A:HIS:456:CG:4066, V-A:HIS:456:CD2:4068, V-A:HIS:456:CB:4065, H-B:HIS:456:NE2:9041, V-B:GLU:543:CA:9876, V-A:TYR:484:CD2:4344, V-A:GLU:543:CB:4906, V-A:TYR:484:CE2:4346, H-B:GLU:543:O:9875"]

$$$$
RR4_Rahimova_2017
     RDKit          3D

 66 70  0  0  0  0  0  0  0  0999 V2000
  128.7730  121.8240   60.5250 C   0  0  0  0  0  0  0  0  0  0  0  0
  127.6570  122.3950   61.1980 O   0  0  0  0  0  0  0  0  0  0  0  0
  127.3370  123.7200   60.9690 C   0  0  0  0  0  0  0  0  0  0  0  0
  128.1080  124.6730   61.6290 C   0  0  0  0  0  0  0  0  0  0  0  0
  127.8590  126.0310   61.4580 C   0  0  0  0  0  0  0  0  0  0  0  0
  126.8260  126.4770   60.6210 C   0  0  0  0  0  0  0  0  0  0  0  0
  126.5580  127.9440   60.4380 C   0  0  0  0  0  0  0  0  0  0  0  0
  127.3690  128.7700   59.6540 C   0  0  0  0  0  0  0  0  0  0  0  0
  127.0750  130.1320   59.5110 C   0  0  0  0  0  0  0  0  0  0  0  0
  127.9700  130.9460   58.6340 C   0  0  0  0  0  0  0  0  0  0  0  0
  128.9780  131.7340   59.1980 C   0  0  0  0  0  0  0  0  0  0  0  0
  129.8240  132.4870   58.3880 C   0  0  0  0  0  0  0  0  0  0  0  0
  129.6840  132.4620   57.0000 C   0  0  0  0  0  0  0  0  0  0  0  0
  130.5680  133.2390   56.2770 O   0  0  0  0  0  0  0  0  0  0  0  0
  131.6100  132.6050   55.5420 C   0  0  0  0  0  0  0  0  0  0  0  0
  128.6770  131.6680   56.4300 C   0  0  0  0  0  0  0  0  0  0  0  0
  127.8320  130.9160   57.2430 C   0  0  0  0  0  0  0  0  0  0  0  0
  125.9570  130.6570   60.2040 C   0  0  0  0  0  0  0  0  0  0  0  0
  125.6040  132.0750   60.0890 C   0  0  0  0  0  0  0  0  0  0  0  0
  125.3250  133.1950   59.9990 N   0  0  0  0  0  0  0  0  0  0  0  0
  125.1980  129.7720   61.0030 C   0  0  0  0  0  0  0  0  0  0  0  0
  123.7710  130.2580   61.9490 S   0  0  0  0  0  0  0  0  0  0  0  0
  124.3530  131.2580   63.3590 C   0  0  0  0  0  0  0  0  0  0  0  0
  124.7640  130.4420   64.5920 C   0  0  0  0  0  0  0  0  0  0  0  0
  124.1230  130.5270   65.6420 O   0  0  0  0  0  0  0  0  0  0  0  0
  125.8620  129.6690   64.4200 N   0  0  0  0  0  0  0  0  0  0  0  0
  126.4790  128.8190   65.3410 C   0  0  0  0  0  0  0  0  0  0  0  0
  125.7810  128.4340   66.8920 S   0  0  0  0  0  0  0  0  0  0  0  0
  127.1260  127.4160   67.3070 C   0  0  0  0  0  0  0  0  0  0  0  0
  128.0830  127.3810   66.2800 C   0  0  0  0  0  0  0  0  0  0  0  0
  127.7070  128.1640   65.1610 C   0  0  0  0  0  0  0  0  0  0  0  0
  128.5170  128.2800   63.9530 C   0  0  0  0  0  0  0  0  0  0  0  0
  129.1610  128.3740   62.9950 N   0  0  0  0  0  0  0  0  0  0  0  0
  129.3470  126.5210   66.3910 C   0  0  0  0  0  0  0  0  0  0  0  0
  129.1970  125.4730   67.5160 C   0  0  0  0  0  0  0  0  0  0  0  0
  128.6230  126.0840   68.8060 C   0  0  0  0  0  0  0  0  0  0  0  0
  127.1900  126.6210   68.6040 C   0  0  0  0  0  0  0  0  0  0  0  0
  125.4850  128.4520   61.0970 N   0  0  0  0  0  0  0  0  0  0  0  0
  126.0560  125.5090   59.9560 C   0  0  0  0  0  0  0  0  0  0  0  0
  126.3020  124.1500   60.1260 C   0  0  0  0  0  0  0  0  0  0  0  0
  129.4973  121.4534   61.2653 H   0  0  0  0  0  0  0  0  0  0  0  0
  128.4331  120.9890   59.8947 H   0  0  0  0  0  0  0  0  0  0  0  0
  129.2513  122.5881   59.8947 H   0  0  0  0  0  0  0  0  0  0  0  0
  128.9229  124.3487   62.2929 H   0  0  0  0  0  0  0  0  0  0  0  0
  128.4822  126.7665   61.9877 H   0  0  0  0  0  0  0  0  0  0  0  0
  128.2468  128.3460   59.1443 H   0  0  0  0  0  0  0  0  0  0  0  0
  129.1037  131.7593   60.2905 H   0  0  0  0  0  0  0  0  0  0  0  0
  130.6090  133.1066   58.8461 H   0  0  0  0  0  0  0  0  0  0  0  0
  132.3356  132.1635   56.2410 H   0  0  0  0  0  0  0  0  0  0  0  0
  131.1828  131.8136   54.9086 H   0  0  0  0  0  0  0  0  0  0  0  0
  132.1165  133.3482   54.9086 H   0  0  0  0  0  0  0  0  0  0  0  0
  128.5545  131.6393   55.3372 H   0  0  0  0  0  0  0  0  0  0  0  0
  127.0489  130.2928   56.7864 H   0  0  0  0  0  0  0  0  0  0  0  0
  125.2237  131.8434   63.0287 H   0  0  0  0  0  0  0  0  0  0  0  0
  123.5044  131.8859   63.6683 H   0  0  0  0  0  0  0  0  0  0  0  0
  126.2930  129.6930   63.5080 H   0  0  0  0  0  0  0  0  0  0  0  0
  129.5166  126.0033   65.4354 H   0  0  0  0  0  0  0  0  0  0  0  0
  130.1998  127.1743   66.6275 H   0  0  0  0  0  0  0  0  0  0  0  0
  128.5219  124.6763   67.1704 H   0  0  0  0  0  0  0  0  0  0  0  0
  130.1977  125.0779   67.7454 H   0  0  0  0  0  0  0  0  0  0  0  0
  128.6054  125.3106   69.5880 H   0  0  0  0  0  0  0  0  0  0  0  0
  129.2646  126.9290   69.0963 H   0  0  0  0  0  0  0  0  0  0  0  0
  126.4858  125.7775   68.5525 H   0  0  0  0  0  0  0  0  0  0  0  0
  126.9194  127.2725   69.4480 H   0  0  0  0  0  0  0  0  0  0  0  0
  125.2433  125.8311   59.2883 H   0  0  0  0  0  0  0  0  0  0  0  0
  125.6826  123.4105   59.5974 H   0  0  0  0  0  0  0  0  0  0  0  0
  1  2  1  0
  2  3  1  0
  3  4  2  0
  4  5  1  0
  5  6  2  0
  6  7  1  0
  7  8  2  0
  8  9  1  0
  9 10  1  0
 10 11  2  0
 11 12  1  0
 12 13  2  0
 13 14  1  0
 14 15  1  0
 13 16  1  0
 16 17  2  0
  9 18  2  0
 18 19  1  0
 19 20  3  0
 18 21  1  0
 21 22  1  0
 22 23  1  0
 23 24  1  0
 24 25  2  0
 24 26  1  0
 26 27  1  0
 27 28  1  0
 28 29  1  0
 29 30  2  0
 30 31  1  0
 31 32  1  0
 32 33  3  0
 30 34  1  0
 34 35  1  0
 35 36  1  0
 36 37  1  0
 21 38  2  0
  6 39  1  0
 39 40  2  0
 40  3  1  0
 38  7  1  0
 17 10  1  0
 31 27  2  0
 37 29  1  0
  1 41  1  0
  1 42  1  0
  1 43  1  0
  4 44  1  0
  5 45  1  0
  8 46  1  0
 11 47  1  0
 12 48  1  0
 15 49  1  0
 15 50  1  0
 15 51  1  0
 16 52  1  0
 17 53  1  0
 23 54  1  0
 23 55  1  0
 26 56  1  0
 34 57  1  0
 34 58  1  0
 35 59  1  0
 35 60  1  0
 36 61  1  0
 36 62  1  0
 37 63  1  0
 37 64  1  0
 39 65  1  0
 40 66  1  0
M  END
>  <Binding energies>  (1) 
[-9.73]

>  <Ligand effiencies>  (1) 
[-0.23731707317073172]

>  <Interactions>  (1) 
["V-B:ARG:545:CD:9895, V-A:PRO:540:CB:4885, V-B:GLU:543:C:9874, V-B:GLU:543:CB:9878, V-B:GLY:544:C:9884, V-B:HIS:456:CE1:9040, V-A:PRO:540:CA:4883, V-B:GLU:543:CD:9880, V-B:ARG:545:CG:9894, V-A:GLU:543:CD:4908, V-A:TYR:539:CD1:4873, V-A:TYR:539:CE2:4876, V-A:ILE:538:CD1:4865, V-A:TYR:539:CG:4872, V-A:TYR:539:CE1:4875, V-A:TYR:539:C:4867, V-A:TYR:539:CZ:4877, V-A:PRO:540:N:4884, V-B:ASP:366:CG:8184, V-B:GLY:454:CA:9020, V-B:ALA:541:CB:9864, V-A:HIS:456:CE1:4069, V-B:GLU:543:CG:9879, V-B:TYR:539:CD2:9846, V-B:PRO:540:CA:9855, V-B:TYR:539:CE2:9848, V-A:ILE:538:CA:4860, V-A:PRO:540:CD:4887, H-A:TYR:539:N:4870, H-B:ALA:541:N:9863, H-B:GLY:454:N:9021, H-B:TYR:484:OH:9319, H-B:ILE:455:N:9026, H-B:ARG:545:NH2:9900"]

$$$$
RR5_Rahimova_2017
     RDKit          3D

 77 82  0  0  0  0  0  0  0  0999 V2000
  130.2440  132.6940   57.4550 O   0  0  0  0  0  0  0  0  0  0  0  0
  129.4540  131.7690   57.2730 C   0  0  0  0  0  0  0  0  0  0  0  0
  128.7300  131.6390   55.9190 C   0  0  0  0  0  0  0  0  0  0  0  0
  129.6770  131.2760   54.7200 C   0  0  2  0  0  0  0  0  0  0  0  0
  129.8660  129.8290   54.4920 N   0  0  0  0  0  0  0  0  0  0  0  0
  128.7930  128.9860   54.2400 C   0  0  0  0  0  0  0  0  0  0  0  0
  127.6090  129.3140   54.1300 O   0  0  0  0  0  0  0  0  0  0  0  0
  129.2550  127.7270   54.1470 O   0  0  0  0  0  0  0  0  0  0  0  0
  128.4100  126.6050   54.3870 C   0  0  0  0  0  0  0  0  0  0  0  0
  128.2060  126.3860   55.9020 C   0  0  0  0  0  0  0  0  0  0  0  0
  127.5570  125.0560   56.2430 C   0  0  0  0  0  0  0  0  0  0  0  0
  126.3260  124.5360   55.8320 C   0  0  0  0  0  0  0  0  0  0  0  0
  125.9330  123.2650   56.2540 C   0  0  0  0  0  0  0  0  0  0  0  0
  126.7650  122.5140   57.0860 C   0  0  0  0  0  0  0  0  0  0  0  0
  127.9930  123.0320   57.5000 C   0  0  0  0  0  0  0  0  0  0  0  0
  128.3840  124.3040   57.0770 C   0  0  0  0  0  0  0  0  0  0  0  0
  129.5970  125.0880   57.3600 C   0  0  0  0  0  0  0  0  0  0  0  0
  130.7170  124.7980   58.1430 C   0  0  0  0  0  0  0  0  0  0  0  0
  131.7370  125.7420   58.2630 C   0  0  0  0  0  0  0  0  0  0  0  0
  131.6390  126.9690   57.6020 C   0  0  0  0  0  0  0  0  0  0  0  0
  130.5210  127.2520   56.8190 C   0  0  0  0  0  0  0  0  0  0  0  0
  129.4980  126.3090   56.6920 C   0  0  0  0  0  0  0  0  0  0  0  0
  131.0560  131.9630   54.8820 C   0  0  0  0  0  0  0  0  0  0  0  0
  131.2370  133.1640   54.8640 O   0  0  0  0  0  0  0  0  0  0  0  0
  132.0220  131.0150   55.0640 O   0  0  0  0  0  0  0  0  0  0  0  0
  129.1750  130.8040   58.1770 N   0  0  0  0  0  0  0  0  0  0  0  0
  129.6350  130.5400   59.5730 C   0  0  0  0  0  0  0  0  0  0  0  0
  129.1950  129.0520   59.7870 C   0  0  0  0  0  0  0  0  0  0  0  0
  127.9850  128.5640   59.2660 C   0  0  0  0  0  0  0  0  0  0  0  0
  127.6050  127.2390   59.4610 C   0  0  0  0  0  0  0  0  0  0  0  0
  128.4230  126.3820   60.1890 C   0  0  0  0  0  0  0  0  0  0  0  0
  129.6260  126.8380   60.7150 C   0  0  0  0  0  0  0  0  0  0  0  0
  130.0110  128.1600   60.5100 C   0  0  0  0  0  0  0  0  0  0  0  0
  131.1910  130.7160   59.5930 C   0  0  0  0  0  0  0  0  0  0  0  0
  131.9770  130.4620   58.4580 C   0  0  0  0  0  0  0  0  0  0  0  0
  133.3620  130.6060   58.5040 C   0  0  0  0  0  0  0  0  0  0  0  0
  133.9780  131.0040   59.6860 C   0  0  0  0  0  0  0  0  0  0  0  0
  133.2200  131.2640   60.8230 C   0  0  0  0  0  0  0  0  0  0  0  0
  131.8360  131.1280   60.7720 C   0  0  0  0  0  0  0  0  0  0  0  0
  128.8530  131.5430   60.4860 C   0  0  0  0  0  0  0  0  0  0  0  0
  128.2680  132.7050   59.9500 C   0  0  0  0  0  0  0  0  0  0  0  0
  127.5790  133.6050   60.7580 C   0  0  0  0  0  0  0  0  0  0  0  0
  127.4550  133.3540   62.1190 C   0  0  0  0  0  0  0  0  0  0  0  0
  128.0090  132.2080   62.6760 C   0  0  0  0  0  0  0  0  0  0  0  0
  128.6980  131.3110   61.8650 C   0  0  0  0  0  0  0  0  0  0  0  0
  127.9679  130.8508   56.0086 H   0  0  0  0  0  0  0  0  0  0  0  0
  128.2961  132.6245   55.6945 H   0  0  0  0  0  0  0  0  0  0  0  0
  129.1582  131.6573   53.8281 H   0  0  0  0  0  0  0  0  0  0  0  0
  130.7710  129.4270   54.6930 H   0  0  0  0  0  0  0  0  0  0  0  0
  127.4330  126.7815   53.9134 H   0  0  0  0  0  0  0  0  0  0  0  0
  128.8852  125.7085   53.9621 H   0  0  0  0  0  0  0  0  0  0  0  0
  127.5877  127.2574   56.1635 H   0  0  0  0  0  0  0  0  0  0  0  0
  125.6687  125.1273   55.1775 H   0  0  0  0  0  0  0  0  0  0  0  0
  124.9654  122.8541   55.9302 H   0  0  0  0  0  0  0  0  0  0  0  0
  126.4523  121.5123   57.4159 H   0  0  0  0  0  0  0  0  0  0  0  0
  128.6494  122.4414   58.1560 H   0  0  0  0  0  0  0  0  0  0  0  0
  130.7941  123.8311   58.6618 H   0  0  0  0  0  0  0  0  0  0  0  0
  132.6205  125.5198   58.8795 H   0  0  0  0  0  0  0  0  0  0  0  0
  132.4443  127.7119   57.6995 H   0  0  0  0  0  0  0  0  0  0  0  0
  130.4441  128.2190   56.3004 H   0  0  0  0  0  0  0  0  0  0  0  0
  131.8980  130.2540   54.4930 H   0  0  0  0  0  0  0  0  0  0  0  0
  128.4310  130.1810   57.8980 H   0  0  0  0  0  0  0  0  0  0  0  0
  127.3288  129.2382   58.6961 H   0  0  0  0  0  0  0  0  0  0  0  0
  126.6583  126.8702   59.0395 H   0  0  0  0  0  0  0  0  0  0  0  0
  128.1164  125.3378   60.3494 H   0  0  0  0  0  0  0  0  0  0  0  0
  130.2708  126.1575   61.2905 H   0  0  0  0  0  0  0  0  0  0  0  0
  130.9686  128.5140   60.9195 H   0  0  0  0  0  0  0  0  0  0  0  0
  131.4940  130.1457   57.5217 H   0  0  0  0  0  0  0  0  0  0  0  0
  133.9671  130.4054   57.6075 H   0  0  0  0  0  0  0  0  0  0  0  0
  135.0719  131.1139   59.7218 H   0  0  0  0  0  0  0  0  0  0  0  0
  133.7115  131.5752   61.7566 H   0  0  0  0  0  0  0  0  0  0  0  0
  131.2373  131.3464   61.6686 H   0  0  0  0  0  0  0  0  0  0  0  0
  128.3568  132.9060   58.8722 H   0  0  0  0  0  0  0  0  0  0  0  0
  127.1345  134.5113   60.3208 H   0  0  0  0  0  0  0  0  0  0  0  0
  126.9149  134.0669   62.7594 H   0  0  0  0  0  0  0  0  0  0  0  0
  127.9035  132.0106   63.7530 H   0  0  0  0  0  0  0  0  0  0  0  0
  129.1298  130.4029   62.3109 H   0  0  0  0  0  0  0  0  0  0  0  0
  1  2  2  0
  2  3  1  0
  3  4  1  0
  4  5  1  0
  5  6  1  0
  6  7  2  0
  6  8  1  0
  8  9  1  0
  9 10  1  0
 10 11  1  0
 11 12  2  0
 12 13  1  0
 13 14  2  0
 14 15  1  0
 15 16  2  0
 16 17  1  0
 17 18  2  0
 18 19  1  0
 19 20  2  0
 20 21  1  0
 21 22  2  0
  4 23  1  0
 23 24  2  0
 23 25  1  0
  2 26  1  0
 26 27  1  0
 27 28  1  0
 28 29  2  0
 29 30  1  0
 30 31  2  0
 31 32  1  0
 32 33  2  0
 27 34  1  0
 34 35  2  0
 35 36  1  0
 36 37  2  0
 37 38  1  0
 38 39  2  0
 27 40  1  0
 40 41  2  0
 41 42  1  0
 42 43  2  0
 43 44  1  0
 44 45  2  0
 22 10  1  0
 33 28  1  0
 39 34  1  0
 45 40  1  0
 16 11  1  0
 22 17  1  0
  3 46  1  0
  3 47  1  0
  4 48  1  6
  5 49  1  0
  9 50  1  0
  9 51  1  0
 10 52  1  0
 12 53  1  0
 13 54  1  0
 14 55  1  0
 15 56  1  0
 18 57  1  0
 19 58  1  0
 20 59  1  0
 21 60  1  0
 25 61  1  0
 26 62  1  0
 29 63  1  0
 30 64  1  0
 31 65  1  0
 32 66  1  0
 33 67  1  0
 35 68  1  0
 36 69  1  0
 37 70  1  0
 38 71  1  0
 39 72  1  0
 41 73  1  0
 42 74  1  0
 43 75  1  0
 44 76  1  0
 45 77  1  0
M  END
>  <Binding energies>  (1) 
[-9.88]

>  <Ligand effiencies>  (1) 
[-0.20583333333333334]

>  <Interactions>  (1) 
["V-A:PRO:540:CB:4885, V-A:ASN:362:CB:3176, V-A:ALA:541:CB:4892, V-A:LEU:363:CA:3185, V-A:ASN:362:C:3172, V-B:LEU:475:CD1:9229, V-A:ASP:366:CG:3213, V-A:PRO:540:CA:4883, V-A:LEU:363:CB:3187, V-A:TYR:539:CD1:4873, V-A:TYR:539:CD2:4874, V-A:TYR:539:CE2:4876, V-A:ILE:538:CD1:4865, V-A:TYR:539:CE1:4875, V-A:TYR:539:CZ:4877, V-A:ASP:366:CB:3212, V-A:TYR:531:CZ:4794, V-B:TYR:539:CZ:9849, V-A:MET:535:CE:4835, V-B:PRO:540:N:9856, V-B:TYR:539:CD2:9846, V-B:PRO:540:CA:9855, V-B:TYR:539:C:9839, V-B:TYR:539:CE2:9848, H-A:TYR:539:N:4870, V-B:PRO:540:CD:9859, H-A:TYR:531:OH:4795, H-B:TYR:531:OH:9767"]

$$$$
RR5_Rahimova_2017-again1
     RDKit          3D

 76 81  0  0  0  0  0  0  0  0999 V2000
  128.9840  128.1780   59.3810 O   0  0  0  0  0  0  0  0  0  0  0  0
  129.7240  127.9190   58.4320 C   0  0  0  0  0  0  0  0  0  0  0  0
  129.8410  126.4550   57.9580 C   0  0  0  0  0  0  0  0  0  0  0  0
  130.2220  126.2310   56.4580 C   0  0  2  0  0  0  0  0  0  0  0  0
  129.5190  125.0320   55.9540 N   0  0  0  0  0  0  0  0  0  0  0  0
  128.1360  125.0060   55.8050 C   0  0  0  0  0  0  0  0  0  0  0  0
  127.3510  125.9170   56.0790 O   0  0  0  0  0  0  0  0  0  0  0  0
  127.7790  123.8070   55.3050 O   0  0  0  0  0  0  0  0  0  0  0  0
  127.9880  122.6130   56.0500 C   0  0  0  0  0  0  0  0  0  0  0  0
  126.8520  122.4220   57.0740 C   0  0  0  0  0  0  0  0  0  0  0  0
  127.2800  122.6740   58.5090 C   0  0  0  0  0  0  0  0  0  0  0  0
  128.2660  122.0400   59.2700 C   0  0  0  0  0  0  0  0  0  0  0  0
  128.5040  122.4510   60.5830 C   0  0  0  0  0  0  0  0  0  0  0  0
  127.7560  123.4910   61.1390 C   0  0  0  0  0  0  0  0  0  0  0  0
  126.7670  124.1230   60.3830 C   0  0  0  0  0  0  0  0  0  0  0  0
  126.5320  123.7110   59.0700 C   0  0  0  0  0  0  0  0  0  0  0  0
  125.5640  124.1810   58.0670 C   0  0  0  0  0  0  0  0  0  0  0  0
  124.5890  125.1790   58.1290 C   0  0  0  0  0  0  0  0  0  0  0  0
  123.7770  125.4210   57.0190 C   0  0  0  0  0  0  0  0  0  0  0  0
  123.9390  124.6680   55.8550 C   0  0  0  0  0  0  0  0  0  0  0  0
  124.9160  123.6720   55.7950 C   0  0  0  0  0  0  0  0  0  0  0  0
  125.7330  123.4300   56.9030 C   0  0  0  0  0  0  0  0  0  0  0  0
  131.7870  126.1240   56.2540 C   0  0  0  0  0  0  0  0  0  0  0  0
  132.4630  126.7640   57.0930 O   0  0  0  0  0  0  0  0  0  0  0  0
  132.1870  125.3940   55.3150 O   0  0  0  0  0  0  0  0  0  0  0  0
  130.3440  128.8720   57.7040 N   0  0  0  0  0  0  0  0  0  0  0  0
  130.3890  130.3420   57.9130 C   0  0  0  0  0  0  0  0  0  0  0  0
  130.6200  131.0700   56.5510 C   0  0  0  0  0  0  0  0  0  0  0  0
  130.1170  130.5370   55.3510 C   0  0  0  0  0  0  0  0  0  0  0  0
  130.3110  131.1900   54.1380 C   0  0  0  0  0  0  0  0  0  0  0  0
  131.0100  132.3920   54.1070 C   0  0  0  0  0  0  0  0  0  0  0  0
  131.5150  132.9440   55.2790 C   0  0  0  0  0  0  0  0  0  0  0  0
  131.3210  132.2890   56.4920 C   0  0  0  0  0  0  0  0  0  0  0  0
  129.0670  130.9790   58.4500 C   0  0  0  0  0  0  0  0  0  0  0  0
  129.0940  132.1460   59.2330 C   0  0  0  0  0  0  0  0  0  0  0  0
  127.9180  132.7150   59.7140 C   0  0  0  0  0  0  0  0  0  0  0  0
  126.6940  132.1270   59.4130 C   0  0  0  0  0  0  0  0  0  0  0  0
  126.6390  130.9770   58.6300 C   0  0  0  0  0  0  0  0  0  0  0  0
  127.8170  130.4110   58.1510 C   0  0  0  0  0  0  0  0  0  0  0  0
  131.6120  130.5570   58.8690 C   0  0  0  0  0  0  0  0  0  0  0  0
  132.9120  130.7600   58.3730 C   0  0  0  0  0  0  0  0  0  0  0  0
  133.9840  130.9680   59.2340 C   0  0  0  0  0  0  0  0  0  0  0  0
  133.7710  130.9900   60.6080 C   0  0  0  0  0  0  0  0  0  0  0  0
  132.4930  130.8160   61.1260 C   0  0  0  0  0  0  0  0  0  0  0  0
  131.4210  130.6070   60.2620 C   0  0  0  0  0  0  0  0  0  0  0  0
  130.6099  125.9656   58.5739 H   0  0  0  0  0  0  0  0  0  0  0  0
  128.8302  126.0346   58.0655 H   0  0  0  0  0  0  0  0  0  0  0  0
  129.9002  127.1067   55.8752 H   0  0  0  0  0  0  0  0  0  0  0  0
  130.0680  124.2400   55.6510 H   0  0  0  0  0  0  0  0  0  0  0  0
  128.0068  121.7541   55.3630 H   0  0  0  0  0  0  0  0  0  0  0  0
  128.9465  122.6855   56.5849 H   0  0  0  0  0  0  0  0  0  0  0  0
  126.5461  121.3813   56.8911 H   0  0  0  0  0  0  0  0  0  0  0  0
  128.8538  121.2182   58.8351 H   0  0  0  0  0  0  0  0  0  0  0  0
  129.2825  121.9545   61.1808 H   0  0  0  0  0  0  0  0  0  0  0  0
  127.9462  123.8125   62.1736 H   0  0  0  0  0  0  0  0  0  0  0  0
  126.1759  124.9415   60.8197 H   0  0  0  0  0  0  0  0  0  0  0  0
  124.4614  125.7712   59.0472 H   0  0  0  0  0  0  0  0  0  0  0  0
  123.0082  126.2066   57.0621 H   0  0  0  0  0  0  0  0  0  0  0  0
  123.2959  124.8595   54.9833 H   0  0  0  0  0  0  0  0  0  0  0  0
  125.0424  123.0789   54.8773 H   0  0  0  0  0  0  0  0  0  0  0  0
  130.9750  128.5410   56.9890 H   0  0  0  0  0  0  0  0  0  0  0  0
  129.5610  129.5881   55.3717 H   0  0  0  0  0  0  0  0  0  0  0  0
  129.9135  130.7577   53.2079 H   0  0  0  0  0  0  0  0  0  0  0  0
  131.1644  132.9095   53.1487 H   0  0  0  0  0  0  0  0  0  0  0  0
  132.0662  133.8954   55.2478 H   0  0  0  0  0  0  0  0  0  0  0  0
  131.7210  132.7302   57.4169 H   0  0  0  0  0  0  0  0  0  0  0  0
  130.0595  132.6171   59.4694 H   0  0  0  0  0  0  0  0  0  0  0  0
  127.9567  133.6258   60.3295 H   0  0  0  0  0  0  0  0  0  0  0  0
  125.7642  132.5730   59.7957 H   0  0  0  0  0  0  0  0  0  0  0  0
  125.6685  130.5176   58.3909 H   0  0  0  0  0  0  0  0  0  0  0  0
  127.7687  129.5051   57.5288 H   0  0  0  0  0  0  0  0  0  0  0  0
  133.0837  130.7542   57.2865 H   0  0  0  0  0  0  0  0  0  0  0  0
  134.9965  131.1146   58.8298 H   0  0  0  0  0  0  0  0  0  0  0  0
  134.6200  131.1462   61.2898 H   0  0  0  0  0  0  0  0  0  0  0  0
  132.3291  130.8433   62.2134 H   0  0  0  0  0  0  0  0  0  0  0  0
  130.4095  130.4791   60.6749 H   0  0  0  0  0  0  0  0  0  0  0  0
  1  2  2  0
  2  3  1  0
  3  4  1  0
  4  5  1  0
  5  6  1  0
  6  7  2  0
  6  8  1  0
  8  9  1  0
  9 10  1  0
 10 11  1  0
 11 12  2  0
 12 13  1  0
 13 14  2  0
 14 15  1  0
 15 16  2  0
 16 17  1  0
 17 18  2  0
 18 19  1  0
 19 20  2  0
 20 21  1  0
 21 22  2  0
  4 23  1  0
 23 24  2  0
 23 25  1  0
  2 26  1  0
 26 27  1  0
 27 28  1  0
 28 29  2  0
 29 30  1  0
 30 31  2  0
 31 32  1  0
 32 33  2  0
 27 34  1  0
 34 35  2  0
 35 36  1  0
 36 37  2  0
 37 38  1  0
 38 39  2  0
 27 40  1  0
 40 41  2  0
 41 42  1  0
 42 43  2  0
 43 44  1  0
 44 45  2  0
 22 10  1  0
 33 28  1  0
 39 34  1  0
 45 40  1  0
 16 11  1  0
 22 17  1  0
  3 46  1  0
  3 47  1  0
  4 48  1  6
  5 49  1  0
  9 50  1  0
  9 51  1  0
 10 52  1  0
 12 53  1  0
 13 54  1  0
 14 55  1  0
 15 56  1  0
 18 57  1  0
 19 58  1  0
 20 59  1  0
 21 60  1  0
 26 61  1  0
 29 62  1  0
 30 63  1  0
 31 64  1  0
 32 65  1  0
 33 66  1  0
 35 67  1  0
 36 68  1  0
 37 69  1  0
 38 70  1  0
 39 71  1  0
 41 72  1  0
 42 73  1  0
 43 74  1  0
 44 75  1  0
 45 76  1  0
M  CHG  1  25  -1
M  END
>  <Binding energies>  (1) 
[-9.63]

>  <Ligand effiencies>  (1) 
[-0.20489361702127662]

>  <Interactions>  (1) 
["V-A:PRO:540:CB:4885, V-A:ASN:362:CB:3176, V-A:LEU:363:CA:3185, V-A:ASN:362:C:3172, V-A:ASP:366:CG:3213, V-A:PRO:540:CA:4883, V-A:LEU:363:CB:3187, V-B:GLU:543:CD:9880, V-A:TYR:539:CD2:4874, V-A:TYR:539:CE2:4876, V-A:ILE:538:CD1:4865, V-A:TYR:539:C:4867, V-A:TYR:539:CZ:4877, V-A:PRO:540:N:4884, V-A:TYR:531:CZ:4794, V-B:ASP:366:CG:8184, V-B:TYR:539:CZ:9849, V-B:TYR:539:CE1:9847, V-B:GLU:543:CG:9879, V-B:PRO:540:N:9856, V-B:TYR:539:CD2:9846, V-B:PRO:540:CA:9855, V-B:TYR:539:C:9839, V-B:TYR:539:CE2:9848, V-A:ILE:538:CA:4860, V-A:PRO:540:CD:4887, V-A:ILE:538:CG2:4863, V-B:PRO:540:CD:9859, V-B:TYR:531:CZ:9766, V-B:LEU:363:CD1:8160, V-B:TYR:531:CE2:9765, V-B:ILE:538:CB:9834, V-B:TYR:539:CG:9844, V-B:TYR:539:CD1:9845, V-B:ILE:538:CG2:9835, V-B:TYR:539:CA:9841, H-A:TYR:531:OH:4795, H-B:TYR:539:OH:9850, H-A:ASN:370:ND2:3248, V-A:ILE:538:C:4858, H-B:TYR:531:OH:9767, V-B:ASP:366:CB:8183, V-A:TYR:531:CE1:4792"]

$$$$
RR6_Rahimova_2017
     RDKit          3D

 63 66  0  0  0  0  0  0  0  0999 V2000
  131.7370  132.6530   55.7670 C   0  0  0  0  0  0  0  0  0  0  0  0
  130.7380  133.1700   56.6350 O   0  0  0  0  0  0  0  0  0  0  0  0
  129.6230  132.4510   56.9230 C   0  0  0  0  0  0  0  0  0  0  0  0
  128.7630  132.1640   56.0840 O   0  0  0  0  0  0  0  0  0  0  0  0
  129.5380  132.0380   58.3650 C   0  0  0  0  0  0  0  0  0  0  0  0
  130.6250  131.4630   59.0380 C   0  0  0  0  0  0  0  0  0  0  0  0
  130.5130  131.0830   60.3740 C   0  0  0  0  0  0  0  0  0  0  0  0
  129.3040  131.2710   61.0590 C   0  0  0  0  0  0  0  0  0  0  0  0
  129.0730  130.8990   62.3970 N   0  0  0  0  0  0  0  0  0  0  0  0
  128.3430  131.5260   63.3460 C   0  0  0  0  0  0  0  0  0  0  0  0
  127.7170  132.5740   63.1890 O   0  0  0  0  0  0  0  0  0  0  0  0
  128.3710  130.8800   64.7350 C   0  0  0  0  0  0  0  0  0  0  0  0
  127.3600  129.3670   64.8610 S   0  0  0  0  0  0  0  0  0  0  0  0
  128.3870  128.1240   65.6180 C   0  0  0  0  0  0  0  0  0  0  0  0
  128.3350  128.1070   66.9720 N   0  0  0  0  0  0  0  0  0  0  0  0
  129.0520  127.1840   67.6610 C   0  0  0  0  0  0  0  0  0  0  0  0
  128.8910  127.1930   69.1530 C   0  0  0  0  0  0  0  0  0  0  0  0
  129.4910  128.1890   69.9390 C   0  0  0  0  0  0  0  0  0  0  0  0
  129.3520  128.1890   71.3240 C   0  0  0  0  0  0  0  0  0  0  0  0
  128.6050  127.1930   71.9510 C   0  0  0  0  0  0  0  0  0  0  0  0
  128.4640  127.1920   73.4620 C   0  0  0  0  0  0  0  0  0  0  0  0
  128.0000  126.1960   71.1890 C   0  0  0  0  0  0  0  0  0  0  0  0
  128.1410  126.2010   69.8050 C   0  0  0  0  0  0  0  0  0  0  0  0
  129.8570  126.2580   66.9910 C   0  0  0  0  0  0  0  0  0  0  0  0
  129.9320  126.2590   65.5900 C   0  0  0  0  0  0  0  0  0  0  0  0
  130.7960  125.2300   64.9390 C   0  0  0  0  0  0  0  0  0  0  0  0
  132.1870  125.3770   64.9410 C   0  0  0  0  0  0  0  0  0  0  0  0
  133.0010  124.4140   64.3500 C   0  0  0  0  0  0  0  0  0  0  0  0
  132.4430  123.2860   63.7510 C   0  0  0  0  0  0  0  0  0  0  0  0
  133.3270  122.3830   63.1920 O   0  0  0  0  0  0  0  0  0  0  0  0
  133.9910  122.7230   61.9800 C   0  0  0  0  0  0  0  0  0  0  0  0
  131.0480  123.1310   63.7510 C   0  0  0  0  0  0  0  0  0  0  0  0
  130.2370  124.0950   64.3430 C   0  0  0  0  0  0  0  0  0  0  0  0
  129.1800  127.2240   64.8770 C   0  0  0  0  0  0  0  0  0  0  0  0
  129.2340  127.2990   63.4140 C   0  0  0  0  0  0  0  0  0  0  0  0
  129.2760  127.3570   62.2590 N   0  0  0  0  0  0  0  0  0  0  0  0
  128.2250  131.8590   60.3980 C   0  0  0  0  0  0  0  0  0  0  0  0
  128.3390  132.2350   59.0620 C   0  0  0  0  0  0  0  0  0  0  0  0
  132.5575  132.2284   56.3641 H   0  0  0  0  0  0  0  0  0  0  0  0
  131.3007  131.8675   55.1325 H   0  0  0  0  0  0  0  0  0  0  0  0
  132.1263  133.4628   55.1325 H   0  0  0  0  0  0  0  0  0  0  0  0
  131.5757  131.3103   58.5062 H   0  0  0  0  0  0  0  0  0  0  0  0
  131.3739  130.6351   60.8918 H   0  0  0  0  0  0  0  0  0  0  0  0
  129.6000  130.0940   62.7010 H   0  0  0  0  0  0  0  0  0  0  0  0
  129.4127  130.6227   64.9773 H   0  0  0  0  0  0  0  0  0  0  0  0
  127.9446  131.6108   65.4379 H   0  0  0  0  0  0  0  0  0  0  0  0
  130.0797  128.9812   69.4534 H   0  0  0  0  0  0  0  0  0  0  0  0
  129.8321  128.9758   71.9244 H   0  0  0  0  0  0  0  0  0  0  0  0
  129.4625  127.1991   73.9234 H   0  0  0  0  0  0  0  0  0  0  0  0
  127.9073  128.0862   73.7789 H   0  0  0  0  0  0  0  0  0  0  0  0
  127.9200  126.2900   73.7789 H   0  0  0  0  0  0  0  0  0  0  0  0
  127.4122  125.4067   71.6805 H   0  0  0  0  0  0  0  0  0  0  0  0
  127.6558  125.4130   69.2103 H   0  0  0  0  0  0  0  0  0  0  0  0
  130.4368  125.5220   67.5674 H   0  0  0  0  0  0  0  0  0  0  0  0
  132.6416  126.2604   65.4132 H   0  0  0  0  0  0  0  0  0  0  0  0
  134.0932  124.5446   64.3560 H   0  0  0  0  0  0  0  0  0  0  0  0
  134.9482  123.2131   62.2114 H   0  0  0  0  0  0  0  0  0  0  0  0
  134.1784  121.8099   61.3959 H   0  0  0  0  0  0  0  0  0  0  0  0
  133.3597  123.4088   61.3959 H   0  0  0  0  0  0  0  0  0  0  0  0
  130.5945  122.2454   63.2819 H   0  0  0  0  0  0  0  0  0  0  0  0
  129.1450  123.9627   64.3421 H   0  0  0  0  0  0  0  0  0  0  0  0
  127.2796  132.0264   60.9349 H   0  0  0  0  0  0  0  0  0  0  0  0
  127.4793  132.6910   58.5491 H   0  0  0  0  0  0  0  0  0  0  0  0
  1  2  1  0
  2  3  1  0
  3  4  2  0
  3  5  1  0
  5  6  2  0
  6  7  1  0
  7  8  2  0
  8  9  1  0
  9 10  1  0
 10 11  2  0
 10 12  1  0
 12 13  1  0
 13 14  1  0
 14 15  2  0
 15 16  1  0
 16 17  1  0
 17 18  2  0
 18 19  1  0
 19 20  2  0
 20 21  1  0
 20 22  1  0
 22 23  2  0
 16 24  2  0
 24 25  1  0
 25 26  1  0
 26 27  2  0
 27 28  1  0
 28 29  2  0
 29 30  1  0
 30 31  1  0
 29 32  1  0
 32 33  2  0
 25 34  2  0
 34 35  1  0
 35 36  3  0
  8 37  1  0
 37 38  2  0
 38  5  1  0
 34 14  1  0
 23 17  1  0
 33 26  1  0
  1 39  1  0
  1 40  1  0
  1 41  1  0
  6 42  1  0
  7 43  1  0
  9 44  1  0
 12 45  1  0
 12 46  1  0
 18 47  1  0
 19 48  1  0
 21 49  1  0
 21 50  1  0
 21 51  1  0
 22 52  1  0
 23 53  1  0
 24 54  1  0
 27 55  1  0
 28 56  1  0
 31 57  1  0
 31 58  1  0
 31 59  1  0
 32 60  1  0
 33 61  1  0
 37 62  1  0
 38 63  1  0
M  END
>  <Binding energies>  (1) 
[-9.33]

>  <Ligand effiencies>  (1) 
[-0.23923076923076922]

>  <Interactions>  (1) 
["V-A:PRO:540:CB:4885, V-B:GLU:543:C:9874, V-A:ALA:541:CB:4892, V-B:GLY:544:C:9884, V-B:HIS:456:CE1:9040, H-A:GLU:543:OE1:4909, V-A:PRO:540:CA:4883, V-A:GLU:543:CD:4908, V-A:TYR:539:CD1:4873, V-A:TYR:539:CD2:4874, V-A:TYR:539:CE2:4876, V-A:TYR:539:CG:4872, V-A:TYR:539:CE1:4875, V-A:TYR:539:C:4867, V-A:PRO:540:N:4884, V-A:HIS:456:CE1:4069, V-A:LEU:475:CD1:4258, V-A:GLY:454:CA:4049, H-A:GLY:454:N:4050, V-A:ILE:369:CD1:3239, V-A:PRO:540:CD:4887, H-A:TYR:539:N:4870, V-A:ILE:538:CG2:4863, V-A:LEU:363:CD1:3189, H-B:TYR:484:OH:9319, V-A:HIS:456:CD2:4068, V-B:HIS:456:CD2:9039, V-A:GLU:543:CB:4906"]

$$$$
RR7_Rahimova_2017
     RDKit          3D

 80 86  0  0  0  0  0  0  0  0999 V2000
  132.8400  124.7180   58.5150 C   0  0  0  0  0  0  0  0  0  0  0  0
  131.7990  125.3410   59.2600 O   0  0  0  0  0  0  0  0  0  0  0  0
  131.3050  126.5600   58.8360 C   0  0  0  0  0  0  0  0  0  0  0  0
  130.2800  127.1170   59.5990 C   0  0  0  0  0  0  0  0  0  0  0  0
  129.7240  128.3440   59.2530 C   0  0  0  0  0  0  0  0  0  0  0  0
  130.1740  129.0410   58.1220 C   0  0  0  0  0  0  0  0  0  0  0  0
  129.5910  130.4350   57.7290 C   0  0  0  0  0  0  0  0  0  0  0  0
  128.3400  130.1760   57.0540 O   0  0  0  0  0  0  0  0  0  0  0  0
  127.9770  128.8360   56.7030 C   0  0  0  0  0  0  0  0  0  0  0  0
  126.4580  128.6680   56.8720 C   0  0  1  0  0  0  0  0  0  0  0  0
  126.2500  128.0440   58.1360 O   0  0  0  0  0  0  0  0  0  0  0  0
  125.4540  128.8240   58.9800 C   0  0  1  0  0  0  0  0  0  0  0  0
  125.8590  128.6390   60.3600 N   0  0  0  0  0  0  0  0  0  0  0  0
  126.5910  127.5970   60.9020 C   0  0  0  0  0  0  0  0  0  0  0  0
  126.7770  127.6560   62.1970 N   0  0  0  0  0  0  0  0  0  0  0  0
  126.0950  128.7810   62.5750 C   0  0  0  0  0  0  0  0  0  0  0  0
  125.8950  129.3850   63.8310 C   0  0  0  0  0  0  0  0  0  0  0  0
  126.4830  128.7950   64.9660 N   0  0  0  0  0  0  0  0  0  0  0  0
  127.4580  129.2810   65.7700 C   0  0  0  0  0  0  0  0  0  0  0  0
  128.0170  130.3670   65.6050 O   0  0  0  0  0  0  0  0  0  0  0  0
  127.8730  128.3790   66.9130 C   0  0  0  0  0  0  0  0  0  0  0  0
  127.0270  127.3350   67.3160 C   0  0  0  0  0  0  0  0  0  0  0  0
  127.3920  126.4910   68.3620 C   0  0  0  0  0  0  0  0  0  0  0  0
  128.6080  126.6810   69.0100 C   0  0  0  0  0  0  0  0  0  0  0  0
  129.4640  127.7080   68.6220 C   0  0  0  0  0  0  0  0  0  0  0  0
  129.0990  128.5540   67.5770 C   0  0  0  0  0  0  0  0  0  0  0  0
  125.1360  130.5190   63.9130 N   0  0  0  0  0  0  0  0  0  0  0  0
  124.6050  131.0120   62.7630 C   0  0  0  0  0  0  0  0  0  0  0  0
  124.7370  130.5140   61.5050 N   0  0  0  0  0  0  0  0  0  0  0  0
  125.4910  129.4070   61.4550 C   0  0  0  0  0  0  0  0  0  0  0  0
  125.5890  130.2490   58.4550 C   0  0  0  0  0  0  0  0  0  0  0  0
  125.6660  129.9810   56.9620 C   0  0  2  0  0  0  0  0  0  0  0  0
  124.3810  129.8780   56.3730 O   0  0  0  0  0  0  0  0  0  0  0  0
  129.2650  131.3100   58.9680 C   0  0  0  0  0  0  0  0  0  0  0  0
  130.0910  131.2660   60.1030 C   0  0  0  0  0  0  0  0  0  0  0  0
  129.8000  132.0350   61.2250 C   0  0  0  0  0  0  0  0  0  0  0  0
  128.6780  132.8580   61.2250 C   0  0  0  0  0  0  0  0  0  0  0  0
  127.8460  132.9170   60.1110 C   0  0  0  0  0  0  0  0  0  0  0  0
  128.1360  132.1460   58.9890 C   0  0  0  0  0  0  0  0  0  0  0  0
  130.4970  131.3160   56.8220 C   0  0  0  0  0  0  0  0  0  0  0  0
  130.0530  131.7200   55.5530 C   0  0  0  0  0  0  0  0  0  0  0  0
  130.8600  132.5010   54.7310 C   0  0  0  0  0  0  0  0  0  0  0  0
  132.1270  132.8780   55.1670 C   0  0  0  0  0  0  0  0  0  0  0  0
  132.5930  132.4770   56.4150 C   0  0  0  0  0  0  0  0  0  0  0  0
  131.7840  131.6970   57.2360 C   0  0  0  0  0  0  0  0  0  0  0  0
  131.2150  128.4840   57.3660 C   0  0  0  0  0  0  0  0  0  0  0  0
  131.7730  127.2560   57.7130 C   0  0  0  0  0  0  0  0  0  0  0  0
  133.5738  124.2789   59.2069 H   0  0  0  0  0  0  0  0  0  0  0  0
  132.4141  123.9262   57.8812 H   0  0  0  0  0  0  0  0  0  0  0  0
  133.3365  125.4676   57.8812 H   0  0  0  0  0  0  0  0  0  0  0  0
  129.9070  126.5806   60.4839 H   0  0  0  0  0  0  0  0  0  0  0  0
  128.9227  128.7725   59.8730 H   0  0  0  0  0  0  0  0  0  0  0  0
  128.2555  128.6405   55.6570 H   0  0  0  0  0  0  0  0  0  0  0  0
  128.5044  128.1251   57.3560 H   0  0  0  0  0  0  0  0  0  0  0  0
  126.1129  128.1116   55.9881 H   0  0  0  0  0  0  0  0  0  0  0  0
  124.3909  128.5414   58.9759 H   0  0  0  0  0  0  0  0  0  0  0  0
  126.9891  126.7760   60.2876 H   0  0  0  0  0  0  0  0  0  0  0  0
  126.1200  127.8820   65.1980 H   0  0  0  0  0  0  0  0  0  0  0  0
  126.0670  127.1817   66.8014 H   0  0  0  0  0  0  0  0  0  0  0  0
  126.7211  125.6772   68.6745 H   0  0  0  0  0  0  0  0  0  0  0  0
  128.8957  126.0141   69.8361 H   0  0  0  0  0  0  0  0  0  0  0  0
  130.4247  127.8509   69.1384 H   0  0  0  0  0  0  0  0  0  0  0  0
  129.7755  129.3650   67.2694 H   0  0  0  0  0  0  0  0  0  0  0  0
  123.9958  131.9225   62.8621 H   0  0  0  0  0  0  0  0  0  0  0  0
  124.7137  130.8629   58.7138 H   0  0  0  0  0  0  0  0  0  0  0  0
  126.4391  130.8130   58.8663 H   0  0  0  0  0  0  0  0  0  0  0  0
  126.1476  130.7998   56.4073 H   0  0  0  0  0  0  0  0  0  0  0  0
  123.9400  130.7280   56.4510 H   0  0  0  0  0  0  0  0  0  0  0  0
  130.9783  130.6159   60.1047 H   0  0  0  0  0  0  0  0  0  0  0  0
  130.4540  131.9927   62.1084 H   0  0  0  0  0  0  0  0  0  0  0  0
  128.4470  133.4663   62.1119 H   0  0  0  0  0  0  0  0  0  0  0  0
  126.9616  133.5711   60.1171 H   0  0  0  0  0  0  0  0  0  0  0  0
  127.4752  132.1916   58.1108 H   0  0  0  0  0  0  0  0  0  0  0  0
  129.0552  131.4156   55.2041 H   0  0  0  0  0  0  0  0  0  0  0  0
  130.4985  132.8187   53.7419 H   0  0  0  0  0  0  0  0  0  0  0  0
  132.7648  133.4979   54.5197 H   0  0  0  0  0  0  0  0  0  0  0  0
  133.5969  132.7753   56.7515 H   0  0  0  0  0  0  0  0  0  0  0  0
  132.1565  131.3754   58.2198 H   0  0  0  0  0  0  0  0  0  0  0  0
  131.5962  129.0242   56.4869 H   0  0  0  0  0  0  0  0  0  0  0  0
  132.5840  126.8308   57.1035 H   0  0  0  0  0  0  0  0  0  0  0  0
  1  2  1  0
  2  3  1  0
  3  4  2  0
  4  5  1  0
  5  6  2  0
  6  7  1  0
  7  8  1  0
  8  9  1  0
  9 10  1  0
 10 11  1  0
 11 12  1  0
 12 13  1  0
 13 14  1  0
 14 15  2  0
 15 16  1  0
 16 17  2  0
 17 18  1  0
 18 19  1  0
 19 20  2  0
 19 21  1  0
 21 22  2  0
 22 23  1  0
 23 24  2  0
 24 25  1  0
 25 26  2  0
 17 27  1  0
 27 28  2  0
 28 29  1  0
 29 30  2  0
 12 31  1  0
 31 32  1  0
 32 33  1  0
  7 34  1  0
 34 35  2  0
 35 36  1  0
 36 37  2  0
 37 38  1  0
 38 39  2  0
  7 40  1  0
 40 41  2  0
 41 42  1  0
 42 43  2  0
 43 44  1  0
 44 45  2  0
  6 46  1  0
 46 47  2  0
 47  3  1  0
 32 10  1  0
 39 34  1  0
 45 40  1  0
 30 13  1  0
 30 16  1  0
 26 21  1  0
  1 48  1  0
  1 49  1  0
  1 50  1  0
  4 51  1  0
  5 52  1  0
  9 53  1  0
  9 54  1  0
 10 55  1  6
 12 56  1  1
 14 57  1  0
 18 58  1  0
 22 59  1  0
 23 60  1  0
 24 61  1  0
 25 62  1  0
 26 63  1  0
 28 64  1  0
 31 65  1  0
 31 66  1  0
 32 67  1  6
 33 68  1  0
 35 69  1  0
 36 70  1  0
 37 71  1  0
 38 72  1  0
 39 73  1  0
 41 74  1  0
 42 75  1  0
 43 76  1  0
 44 77  1  0
 45 78  1  0
 46 79  1  0
 47 80  1  0
M  END
>  <Binding energies>  (1) 
[-9.41]

>  <Ligand effiencies>  (1) 
[-0.1920408163265306]

>  <Interactions>  (1) 
["V-A:PRO:540:CB:4885, V-B:GLU:543:C:9874, V-A:ALA:541:CB:4892, V-B:GLU:543:CB:9878, V-B:HIS:456:CE1:9040, V-A:ASP:366:CG:3213, V-A:PRO:540:CA:4883, V-B:GLU:543:CD:9880, V-A:GLU:543:CD:4908, V-A:TYR:539:CD2:4874, V-A:TYR:539:CE2:4876, V-A:ILE:538:CD1:4865, V-A:PRO:540:C:4881, V-A:GLU:543:CG:4907, V-A:TYR:539:CZ:4877, V-A:ASP:366:CB:3212, V-A:PRO:540:N:4884, H-B:GLU:543:OE1:9881, V-B:ASP:366:CG:8184, V-B:ARG:545:CZ:9898, V-A:HIS:456:CE1:4069, V-A:ILE:538:CA:4860, V-A:PRO:540:CD:4887, V-A:ILE:538:CG2:4863, V-A:LEU:363:CD1:3189, H-B:TYR:484:OH:9319, V-A:GLU:543:CB:4906, H-B:ARG:545:NH2:9900, V-A:PRO:540:CG:4886, V-A:ILE:538:C:4858, V-A:ASP:366:CA:3210, H-B:TYR:531:OH:9767, V-B:ASP:366:CB:8183, H-A:TYR:539:OH:4878, V-A:ILE:538:CB:4862, H-B:ASN:370:OD1:8218, H-B:ASP:366:O:8180"]

$$$$
RR8_A_Rahimova_2017
     RDKit          3D

 73 77  0  0  0  0  0  0  0  0999 V2000
  133.3600  123.4120   57.7980 O   0  0  0  0  0  0  0  0  0  0  0  0
  132.8570  124.2840   58.5150 C   0  0  0  0  0  0  0  0  0  0  0  0
  132.0560  125.2950   58.0580 O   0  0  0  0  0  0  0  0  0  0  0  0
  130.6710  125.1320   58.1840 C   0  0  1  0  0  0  0  0  0  0  0  0
  130.3470  123.9140   58.7890 O   0  0  0  0  0  0  0  0  0  0  0  0
  129.2380  124.0400   59.6740 C   0  0  2  0  0  0  0  0  0  0  0  0
  128.1560  123.0320   59.2510 C   0  0  0  0  0  0  0  0  0  0  0  0
  127.9060  122.1470   60.3340 O   0  0  0  0  0  0  0  0  0  0  0  0
  128.8050  122.2990   61.4240 C   0  0  0  0  0  0  0  0  0  0  0  0
  129.9410  121.2940   61.3000 C   0  0  0  0  0  0  0  0  0  0  0  0
  129.6560  119.9300   61.1960 C   0  0  0  0  0  0  0  0  0  0  0  0
  130.6940  119.0090   61.0760 C   0  0  0  0  0  0  0  0  0  0  0  0
  132.0140  119.4550   61.0570 C   0  0  0  0  0  0  0  0  0  0  0  0
  132.3070  120.8140   61.1550 C   0  0  0  0  0  0  0  0  0  0  0  0
  131.2690  121.7350   61.2730 C   0  0  0  0  0  0  0  0  0  0  0  0
  128.8440  125.5190   59.5580 C   0  0  1  0  0  0  0  0  0  0  0  0
  128.4510  126.0940   60.8020 O   0  0  0  0  0  0  0  0  0  0  0  0
  128.0110  125.1750   61.7950 C   0  0  0  0  0  0  0  0  0  0  0  0
  128.7960  125.3860   63.0820 C   0  0  0  0  0  0  0  0  0  0  0  0
  128.7860  126.6390   63.7030 C   0  0  0  0  0  0  0  0  0  0  0  0
  129.5090  126.8410   64.8750 C   0  0  0  0  0  0  0  0  0  0  0  0
  130.2440  125.7910   65.4230 C   0  0  0  0  0  0  0  0  0  0  0  0
  130.2660  124.5430   64.8070 C   0  0  0  0  0  0  0  0  0  0  0  0
  129.5440  124.3400   63.6340 C   0  0  0  0  0  0  0  0  0  0  0  0
  130.1370  126.1930   59.1370 C   0  0  2  0  0  0  0  0  0  0  0  0
  129.8690  127.4450   58.5090 O   0  0  0  0  0  0  0  0  0  0  0  0
  130.7870  127.8330   57.4930 C   0  0  0  0  0  0  0  0  0  0  0  0
  131.6810  128.9530   58.0030 C   0  0  0  0  0  0  0  0  0  0  0  0
  131.3680  129.6170   59.1940 C   0  0  0  0  0  0  0  0  0  0  0  0
  132.1950  130.6350   59.6620 C   0  0  0  0  0  0  0  0  0  0  0  0
  133.3350  130.9840   58.9410 C   0  0  0  0  0  0  0  0  0  0  0  0
  133.6570  130.3240   57.7580 C   0  0  0  0  0  0  0  0  0  0  0  0
  132.8300  129.3050   57.2890 C   0  0  0  0  0  0  0  0  0  0  0  0
  133.0580  124.3320   60.0020 C   0  0  0  0  0  0  0  0  0  0  0  0
  132.2740  125.1510   60.8310 C   0  0  0  0  0  0  0  0  0  0  0  0
  132.4860  125.1750   62.2060 C   0  0  0  0  0  0  0  0  0  0  0  0
  133.4850  124.3850   62.7890 C   0  0  0  0  0  0  0  0  0  0  0  0
  133.7080  124.4100   64.2550 N   0  0  0  0  0  0  0  0  0  0  0  0
  133.2190  123.5170   64.9410 O   0  0  0  0  0  0  0  0  0  0  0  0
  134.3750  125.3230   64.7330 O   0  0  0  0  0  0  0  0  0  0  0  0
  134.2680  123.5700   61.9620 C   0  0  0  0  0  0  0  0  0  0  0  0
  134.0590  123.5450   60.5870 C   0  0  0  0  0  0  0  0  0  0  0  0
  130.2458  125.1927   57.1713 H   0  0  0  0  0  0  0  0  0  0  0  0
  129.4352  123.8014   60.7295 H   0  0  0  0  0  0  0  0  0  0  0  0
  127.2317  123.5690   58.9915 H   0  0  0  0  0  0  0  0  0  0  0  0
  128.4981  122.4624   58.3743 H   0  0  0  0  0  0  0  0  0  0  0  0
  129.2174  123.3187   61.4176 H   0  0  0  0  0  0  0  0  0  0  0  0
  128.2658  122.1228   62.3665 H   0  0  0  0  0  0  0  0  0  0  0  0
  128.6120  119.5836   61.2089 H   0  0  0  0  0  0  0  0  0  0  0  0
  130.4727  117.9344   60.9966 H   0  0  0  0  0  0  0  0  0  0  0  0
  132.8333  118.7269   60.9637 H   0  0  0  0  0  0  0  0  0  0  0  0
  133.3520  121.1572   61.1392 H   0  0  0  0  0  0  0  0  0  0  0  0
  131.4930  122.8095   61.3450 H   0  0  0  0  0  0  0  0  0  0  0  0
  127.9922  125.6377   58.8721 H   0  0  0  0  0  0  0  0  0  0  0  0
  126.9404  125.3347   61.9907 H   0  0  0  0  0  0  0  0  0  0  0  0
  128.1748  124.1483   61.4356 H   0  0  0  0  0  0  0  0  0  0  0  0
  128.2066  127.4651   63.2651 H   0  0  0  0  0  0  0  0  0  0  0  0
  129.5004  127.8250   65.3667 H   0  0  0  0  0  0  0  0  0  0  0  0
  130.8122  125.9502   66.3513 H   0  0  0  0  0  0  0  0  0  0  0  0
  130.8511  123.7209   65.2449 H   0  0  0  0  0  0  0  0  0  0  0  0
  129.5615  123.3569   63.1409 H   0  0  0  0  0  0  0  0  0  0  0  0
  130.8390  126.4608   59.9404 H   0  0  0  0  0  0  0  0  0  0  0  0
  131.4081  126.9692   57.2135 H   0  0  0  0  0  0  0  0  0  0  0  0
  130.2269  128.1880   56.6153 H   0  0  0  0  0  0  0  0  0  0  0  0
  130.4685  129.3349   59.7608 H   0  0  0  0  0  0  0  0  0  0  0  0
  131.9494  131.1610   60.5963 H   0  0  0  0  0  0  0  0  0  0  0  0
  133.9873  131.7891   59.3101 H   0  0  0  0  0  0  0  0  0  0  0  0
  134.5599  130.6056   57.1963 H   0  0  0  0  0  0  0  0  0  0  0  0
  133.0814  128.7777   56.3569 H   0  0  0  0  0  0  0  0  0  0  0  0
  131.4858  125.7787   60.3896 H   0  0  0  0  0  0  0  0  0  0  0  0
  131.8627  125.8210   62.8417 H   0  0  0  0  0  0  0  0  0  0  0  0
  135.0564  122.9432   62.4043 H   0  0  0  0  0  0  0  0  0  0  0  0
  134.6857  122.9010   59.9526 H   0  0  0  0  0  0  0  0  0  0  0  0
  1  2  2  0
  2  3  1  0
  3  4  1  0
  4  5  1  0
  5  6  1  0
  6  7  1  0
  7  8  1  0
  8  9  1  0
  9 10  1  0
 10 11  2  0
 11 12  1  0
 12 13  2  0
 13 14  1  0
 14 15  2  0
  6 16  1  0
 16 17  1  0
 17 18  1  0
 18 19  1  0
 19 20  2  0
 20 21  1  0
 21 22  2  0
 22 23  1  0
 23 24  2  0
 16 25  1  0
 25 26  1  0
 26 27  1  0
 27 28  1  0
 28 29  2  0
 29 30  1  0
 30 31  2  0
 31 32  1  0
 32 33  2  0
  2 34  1  0
 34 35  2  0
 35 36  1  0
 36 37  2  0
 37 38  1  0
 38 39  2  0
 38 40  1  0
 37 41  1  0
 41 42  2  0
 25  4  1  0
 33 28  1  0
 42 34  1  0
 15 10  1  0
 24 19  1  0
  4 43  1  6
  6 44  1  1
  7 45  1  0
  7 46  1  0
  9 47  1  0
  9 48  1  0
 11 49  1  0
 12 50  1  0
 13 51  1  0
 14 52  1  0
 15 53  1  0
 16 54  1  6
 18 55  1  0
 18 56  1  0
 20 57  1  0
 21 58  1  0
 22 59  1  0
 23 60  1  0
 24 61  1  0
 25 62  1  1
 27 63  1  0
 27 64  1  0
 29 65  1  0
 30 66  1  0
 31 67  1  0
 32 68  1  0
 33 69  1  0
 35 70  1  0
 36 71  1  0
 41 72  1  0
 42 73  1  0
M  CHG  2  38   1  40  -1
M  END
>  <Binding energies>  (1) 
[-8.99]

>  <Ligand effiencies>  (1) 
[-0.21404761904761904]

>  <Interactions>  (1) 
["V-A:PRO:540:CB:4885, V-A:LEU:363:CA:3185, V-A:ASP:366:CG:3213, V-A:PRO:540:CA:4883, V-A:LEU:363:CB:3187, V-B:GLU:543:CD:9880, V-A:GLU:543:CD:4908, V-A:ASP:366:CB:3212, V-A:ARG:545:CZ:4926, V-A:TYR:531:CZ:4794, V-B:TYR:539:CZ:9849, V-B:ALA:541:CB:9864, H-A:TYR:484:OH:4348, H-A:ARG:545:NH1:4927, H-A:ARG:545:NE:4924, V-B:GLU:543:CG:9879, V-A:LEU:475:CD1:4258, V-A:GLY:454:CA:4049, H-A:GLY:454:N:4050, H-A:ARG:545:NH2:4928, V-B:TYR:539:CD2:9846, V-B:PRO:540:CA:9855, V-B:TYR:539:CE2:9848, V-A:ILE:369:CD1:3239, V-A:ILE:369:CG2:3237, V-A:LEU:363:CD1:3189, H-B:ALA:541:N:9863, V-B:ALA:541:CA:9862, V-A:PRO:482:CB:4326, V-A:PRO:482:CG:4327, V-A:TRP:381:CZ2:3370, V-A:TRP:381:CH2:3372, V-A:GLY:453:C:4042, V-A:GLY:453:CA:4044, H-B:TYR:539:OH:9850"]

$$$$
RR8_B_Rahimova_2017
     RDKit          3D

 73 77  0  0  0  0  0  0  0  0999 V2000
  133.2690  123.9970   57.7620 O   0  0  0  0  0  0  0  0  0  0  0  0
  132.6680  124.6790   58.5980 C   0  0  0  0  0  0  0  0  0  0  0  0
  131.7630  125.6580   58.2900 O   0  0  0  0  0  0  0  0  0  0  0  0
  130.7940  125.3810   57.3100 C   0  0  2  0  0  0  0  0  0  0  0  0
  130.5900  126.4710   56.4550 O   0  0  0  0  0  0  0  0  0  0  0  0
  129.5420  127.3160   56.9260 C   0  0  2  0  0  0  0  0  0  0  0  0
  130.0860  128.7400   57.1370 C   0  0  0  0  0  0  0  0  0  0  0  0
  131.4270  128.6640   57.6050 O   0  0  0  0  0  0  0  0  0  0  0  0
  131.9830  129.8990   58.0310 C   0  0  0  0  0  0  0  0  0  0  0  0
  131.6930  130.9660   56.9850 C   0  0  0  0  0  0  0  0  0  0  0  0
  130.6220  131.8450   57.1690 C   0  0  0  0  0  0  0  0  0  0  0  0
  130.3360  132.8070   56.2040 C   0  0  0  0  0  0  0  0  0  0  0  0
  131.1250  132.8890   55.0580 C   0  0  0  0  0  0  0  0  0  0  0  0
  132.1990  132.0210   54.8720 C   0  0  0  0  0  0  0  0  0  0  0  0
  132.4830  131.0560   55.8350 C   0  0  0  0  0  0  0  0  0  0  0  0
  129.0270  126.6140   58.1880 C   0  0  1  0  0  0  0  0  0  0  0  0
  127.6120  126.7920   58.2990 O   0  0  0  0  0  0  0  0  0  0  0  0
  126.8510  126.7280   57.0900 C   0  0  0  0  0  0  0  0  0  0  0  0
  126.7590  125.3080   56.5390 C   0  0  0  0  0  0  0  0  0  0  0  0
  126.1400  124.3040   57.2890 C   0  0  0  0  0  0  0  0  0  0  0  0
  126.0290  123.0170   56.7700 C   0  0  0  0  0  0  0  0  0  0  0  0
  126.5400  122.7380   55.5040 C   0  0  0  0  0  0  0  0  0  0  0  0
  127.1620  123.7320   54.7530 C   0  0  0  0  0  0  0  0  0  0  0  0
  127.2700  125.0210   55.2710 C   0  0  0  0  0  0  0  0  0  0  0  0
  129.4390  125.1600   57.9810 C   0  0  2  0  0  0  0  0  0  0  0  0
  129.5210  124.4850   59.2340 O   0  0  0  0  0  0  0  0  0  0  0  0
  128.8570  123.2320   59.3000 C   0  0  0  0  0  0  0  0  0  0  0  0
  129.3700  122.4860   60.5190 C   0  0  0  0  0  0  0  0  0  0  0  0
  129.4700  123.1330   61.7530 C   0  0  0  0  0  0  0  0  0  0  0  0
  129.9610  122.4440   62.8600 C   0  0  0  0  0  0  0  0  0  0  0  0
  130.3500  121.1130   62.7280 C   0  0  0  0  0  0  0  0  0  0  0  0
  130.2510  120.4610   61.5000 C   0  0  0  0  0  0  0  0  0  0  0  0
  129.7600  121.1490   60.3940 C   0  0  0  0  0  0  0  0  0  0  0  0
  132.8840  124.5440   60.0770 C   0  0  0  0  0  0  0  0  0  0  0  0
  132.1540  125.3030   61.0040 C   0  0  0  0  0  0  0  0  0  0  0  0
  132.3820  125.1630   62.3690 C   0  0  0  0  0  0  0  0  0  0  0  0
  133.3510  124.2710   62.8420 C   0  0  0  0  0  0  0  0  0  0  0  0
  133.6120  124.1420   64.2970 N   0  0  0  0  0  0  0  0  0  0  0  0
  133.2380  123.1250   64.8740 O   0  0  0  0  0  0  0  0  0  0  0  0
  134.1960  125.0570   64.8730 O   0  0  0  0  0  0  0  0  0  0  0  0
  134.0770  123.5090   61.9170 C   0  0  0  0  0  0  0  0  0  0  0  0
  133.8450  123.6430   60.5520 C   0  0  0  0  0  0  0  0  0  0  0  0
  131.1564  124.5033   56.7547 H   0  0  0  0  0  0  0  0  0  0  0  0
  128.7054  127.4550   56.2255 H   0  0  0  0  0  0  0  0  0  0  0  0
  130.0595  129.2889   56.1841 H   0  0  0  0  0  0  0  0  0  0  0  0
  129.4656  129.2666   57.8772 H   0  0  0  0  0  0  0  0  0  0  0  0
  131.5336  130.1931   58.9909 H   0  0  0  0  0  0  0  0  0  0  0  0
  133.0704  129.7908   58.1568 H   0  0  0  0  0  0  0  0  0  0  0  0
  130.0046  131.7767   58.0769 H   0  0  0  0  0  0  0  0  0  0  0  0
  129.4922  133.4984   56.3452 H   0  0  0  0  0  0  0  0  0  0  0  0
  130.8977  133.6461   54.2931 H   0  0  0  0  0  0  0  0  0  0  0  0
  132.8204  132.0978   53.9676 H   0  0  0  0  0  0  0  0  0  0  0  0
  133.3274  130.3658   55.6911 H   0  0  0  0  0  0  0  0  0  0  0  0
  129.4362  127.0101   59.1291 H   0  0  0  0  0  0  0  0  0  0  0  0
  125.8342  127.0958   57.2920 H   0  0  0  0  0  0  0  0  0  0  0  0
  127.3603  127.3487   56.3381 H   0  0  0  0  0  0  0  0  0  0  0  0
  125.7408  124.5306   58.2887 H   0  0  0  0  0  0  0  0  0  0  0  0
  125.5406  122.2246   57.3561 H   0  0  0  0  0  0  0  0  0  0  0  0
  126.4510  121.7214   55.0934 H   0  0  0  0  0  0  0  0  0  0  0  0
  127.5659  123.5009   53.7563 H   0  0  0  0  0  0  0  0  0  0  0  0
  127.7572  125.8119   54.6819 H   0  0  0  0  0  0  0  0  0  0  0  0
  128.7550  124.5265   57.3971 H   0  0  0  0  0  0  0  0  0  0  0  0
  127.7721  123.3899   59.3895 H   0  0  0  0  0  0  0  0  0  0  0  0
  129.0538  122.6496   58.3878 H   0  0  0  0  0  0  0  0  0  0  0  0
  129.1617  124.1844   61.8505 H   0  0  0  0  0  0  0  0  0  0  0  0
  130.0411  122.9489   63.8340 H   0  0  0  0  0  0  0  0  0  0  0  0
  130.7395  120.5707   63.6022 H   0  0  0  0  0  0  0  0  0  0  0  0
  130.5590  119.4092   61.4055 H   0  0  0  0  0  0  0  0  0  0  0  0
  129.6788  120.6409   59.4217 H   0  0  0  0  0  0  0  0  0  0  0  0
  131.3947  126.0150   60.6483 H   0  0  0  0  0  0  0  0  0  0  0  0
  131.7951  125.7590   63.0834 H   0  0  0  0  0  0  0  0  0  0  0  0
  134.8373  122.7984   62.2735 H   0  0  0  0  0  0  0  0  0  0  0  0
  134.4218  123.0355   59.8391 H   0  0  0  0  0  0  0  0  0  0  0  0
  1  2  2  0
  2  3  1  0
  3  4  1  0
  4  5  1  0
  5  6  1  0
  6  7  1  0
  7  8  1  0
  8  9  1  0
  9 10  1  0
 10 11  2  0
 11 12  1  0
 12 13  2  0
 13 14  1  0
 14 15  2  0
  6 16  1  0
 16 17  1  0
 17 18  1  0
 18 19  1  0
 19 20  2  0
 20 21  1  0
 21 22  2  0
 22 23  1  0
 23 24  2  0
 16 25  1  0
 25 26  1  0
 26 27  1  0
 27 28  1  0
 28 29  2  0
 29 30  1  0
 30 31  2  0
 31 32  1  0
 32 33  2  0
  2 34  1  0
 34 35  2  0
 35 36  1  0
 36 37  2  0
 37 38  1  0
 38 39  2  0
 38 40  1  0
 37 41  1  0
 41 42  2  0
 25  4  1  0
 33 28  1  0
 42 34  1  0
 15 10  1  0
 24 19  1  0
  4 43  1  6
  6 44  1  6
  7 45  1  0
  7 46  1  0
  9 47  1  0
  9 48  1  0
 11 49  1  0
 12 50  1  0
 13 51  1  0
 14 52  1  0
 15 53  1  0
 16 54  1  1
 18 55  1  0
 18 56  1  0
 20 57  1  0
 21 58  1  0
 22 59  1  0
 23 60  1  0
 24 61  1  0
 25 62  1  6
 27 63  1  0
 27 64  1  0
 29 65  1  0
 30 66  1  0
 31 67  1  0
 32 68  1  0
 33 69  1  0
 35 70  1  0
 36 71  1  0
 41 72  1  0
 42 73  1  0
M  CHG  2  38   1  40  -1
M  END
>  <Binding energies>  (1) 
[-9.24]

>  <Ligand effiencies>  (1) 
[-0.22]

>  <Interactions>  (1) 
["V-A:ASP:366:CG:3213, V-A:PRO:540:CA:4883, V-A:TYR:539:CD1:4873, V-A:ILE:538:CD1:4865, V-A:TYR:539:C:4867, V-A:ASP:366:CB:3212, V-A:TYR:531:CE2:4793, V-A:PRO:540:N:4884, V-A:TYR:531:CZ:4794, V-B:TYR:539:CZ:9849, V-B:ALA:541:CB:9864, H-A:TYR:484:OH:4348, H-A:ARG:545:NE:4924, V-A:LEU:475:CD1:4258, V-A:GLY:454:CA:4049, V-B:PRO:540:N:9856, H-A:GLY:454:N:4050, H-A:ARG:545:NH2:4928, V-B:TYR:539:CD2:9846, V-B:PRO:540:CA:9855, V-B:TYR:539:CE2:9848, V-A:ILE:538:CA:4860, V-A:ILE:369:CD1:3239, V-A:PRO:540:CD:4887, V-A:ILE:538:CG2:4863, V-A:LEU:363:CD1:3189, V-B:PRO:540:CD:9859, V-A:TYR:539:CA:4869, V-B:ILE:538:CB:9834, V-B:ILE:538:C:9830, V-B:ILE:538:CA:9832, V-B:ILE:538:CG2:9835, V-A:GLY:453:C:4042, H-A:TYR:531:OH:4795, H-B:TYR:539:OH:9850, V-A:ILE:538:C:4858"]

$$$$
RR9_Rahimova_2017
     RDKit          3D

 64 68  0  0  0  0  0  0  0  0999 V2000
  130.4580  122.7300   72.4640 C   0  0  0  0  0  0  0  0  0  0  0  0
  129.6450  123.1260   71.2280 C   0  0  0  0  0  0  0  0  0  0  0  0
  130.2580  124.2600   70.6210 O   0  0  0  0  0  0  0  0  0  0  0  0
  129.5020  125.0890   69.8140 C   0  0  0  0  0  0  0  0  0  0  0  0
  129.7930  125.0670   68.4520 C   0  0  0  0  0  0  0  0  0  0  0  0
  129.0860  125.8700   67.5630 C   0  0  0  0  0  0  0  0  0  0  0  0
  128.0640  126.7200   68.0130 C   0  0  0  0  0  0  0  0  0  0  0  0
  127.3010  127.5910   67.0600 C   0  0  0  0  0  0  0  0  0  0  0  0
  127.8080  127.9140   65.7910 C   0  0  0  0  0  0  0  0  0  0  0  0
  127.0830  128.7210   64.8960 C   0  0  0  0  0  0  0  0  0  0  0  0
  127.6330  128.9470   63.5140 C   0  0  0  0  0  0  0  0  0  0  0  0
  127.8600  127.9920   62.7700 O   0  0  0  0  0  0  0  0  0  0  0  0
  127.8710  130.2310   63.1810 N   0  0  0  0  0  0  0  0  0  0  0  0
  128.5230  130.6940   61.9520 C   0  0  0  0  0  0  0  0  0  0  0  0
  127.9060  130.0830   60.6720 C   0  0  0  0  0  0  0  0  0  0  0  0
  128.2940  130.7890   59.3780 C   0  0  0  0  0  0  0  0  0  0  0  0
  127.7000  130.4140   58.1680 C   0  0  0  0  0  0  0  0  0  0  0  0
  128.0320  131.0840   56.9940 C   0  0  0  0  0  0  0  0  0  0  0  0
  128.9580  132.1240   57.0310 C   0  0  0  0  0  0  0  0  0  0  0  0
  129.5570  132.5000   58.2320 C   0  0  0  0  0  0  0  0  0  0  0  0
  129.2250  131.8310   59.4070 C   0  0  0  0  0  0  0  0  0  0  0  0
  125.8380  129.2110   65.3610 C   0  0  0  0  0  0  0  0  0  0  0  0
  124.7640  130.0610   64.9020 C   0  0  0  0  0  0  0  0  0  0  0  0
  124.6550  130.8530   63.6410 C   0  0  0  0  0  0  0  0  0  0  0  0
  125.3130  132.0810   63.5220 C   0  0  0  0  0  0  0  0  0  0  0  0
  125.1970  132.8260   62.3510 C   0  0  0  0  0  0  0  0  0  0  0  0
  124.4240  132.3440   61.2940 C   0  0  0  0  0  0  0  0  0  0  0  0
  124.2820  133.1650   60.0240 C   0  0  0  0  0  0  0  0  0  0  0  0
  123.7630  131.1200   61.4090 C   0  0  0  0  0  0  0  0  0  0  0  0
  123.8830  130.3760   62.5790 C   0  0  0  0  0  0  0  0  0  0  0  0
  123.7970  130.1040   65.7910 N   0  0  0  0  0  0  0  0  0  0  0  0
  124.1800  129.3760   66.8530 N   0  0  0  0  0  0  0  0  0  0  0  0
  125.4200  128.8170   66.6550 C   0  0  0  0  0  0  0  0  0  0  0  0
  126.0960  128.0450   67.5050 N   0  0  0  0  0  0  0  0  0  0  0  0
  127.7790  126.7380   69.3850 C   0  0  0  0  0  0  0  0  0  0  0  0
  128.4840  125.9340   70.2770 C   0  0  0  0  0  0  0  0  0  0  0  0
  129.9002  123.0017   73.3723 H   0  0  0  0  0  0  0  0  0  0  0  0
  130.6356  121.6445   72.4537 H   0  0  0  0  0  0  0  0  0  0  0  0
  131.4222  123.2594   72.4537 H   0  0  0  0  0  0  0  0  0  0  0  0
  129.6258  122.2893   70.5141 H   0  0  0  0  0  0  0  0  0  0  0  0
  128.6132  123.3701   71.5210 H   0  0  0  0  0  0  0  0  0  0  0  0
  130.5896  124.4083   68.0758 H   0  0  0  0  0  0  0  0  0  0  0  0
  129.3317  125.8383   66.4913 H   0  0  0  0  0  0  0  0  0  0  0  0
  128.7931  127.5276   65.4906 H   0  0  0  0  0  0  0  0  0  0  0  0
  127.5730  130.9520   63.8220 H   0  0  0  0  0  0  0  0  0  0  0  0
  128.4304  131.7887   61.8974 H   0  0  0  0  0  0  0  0  0  0  0  0
  129.5738  130.3718   61.9962 H   0  0  0  0  0  0  0  0  0  0  0  0
  128.2318  129.0347   60.6013 H   0  0  0  0  0  0  0  0  0  0  0  0
  126.8158  130.1918   60.7703 H   0  0  0  0  0  0  0  0  0  0  0  0
  126.9712  129.5904   58.1445 H   0  0  0  0  0  0  0  0  0  0  0  0
  127.5652  130.7935   56.0412 H   0  0  0  0  0  0  0  0  0  0  0  0
  129.2191  132.6538   56.1030 H   0  0  0  0  0  0  0  0  0  0  0  0
  130.2885  133.3213   58.2514 H   0  0  0  0  0  0  0  0  0  0  0  0
  129.6952  132.1224   60.3578 H   0  0  0  0  0  0  0  0  0  0  0  0
  125.9236  132.4595   64.3550 H   0  0  0  0  0  0  0  0  0  0  0  0
  125.7138  133.7927   62.2595 H   0  0  0  0  0  0  0  0  0  0  0  0
  124.0999  134.2176   60.2863 H   0  0  0  0  0  0  0  0  0  0  0  0
  125.2066  133.0890   59.4330 H   0  0  0  0  0  0  0  0  0  0  0  0
  123.4366  132.7829   59.4330 H   0  0  0  0  0  0  0  0  0  0  0  0
  123.1489  130.7445   60.5772 H   0  0  0  0  0  0  0  0  0  0  0  0
  123.3677  129.4082   62.6679 H   0  0  0  0  0  0  0  0  0  0  0  0
  123.5800  129.2910   67.6610 H   0  0  0  0  0  0  0  0  0  0  0  0
  126.9850  127.3984   69.7637 H   0  0  0  0  0  0  0  0  0  0  0  0
  128.2410  125.9621   71.3495 H   0  0  0  0  0  0  0  0  0  0  0  0
  1  2  1  0
  2  3  1  0
  3  4  1  0
  4  5  2  0
  5  6  1  0
  6  7  2  0
  7  8  1  0
  8  9  2  0
  9 10  1  0
 10 11  1  0
 11 12  2  0
 11 13  1  0
 13 14  1  0
 14 15  1  0
 15 16  1  0
 16 17  2  0
 17 18  1  0
 18 19  2  0
 19 20  1  0
 20 21  2  0
 10 22  2  0
 22 23  1  0
 23 24  1  0
 24 25  2  0
 25 26  1  0
 26 27  2  0
 27 28  1  0
 27 29  1  0
 29 30  2  0
 23 31  2  0
 31 32  1  0
 32 33  1  0
 33 34  2  0
  7 35  1  0
 35 36  2  0
 36  4  1  0
 34  8  1  0
 21 16  1  0
 33 22  1  0
 30 24  1  0
  1 37  1  0
  1 38  1  0
  1 39  1  0
  2 40  1  0
  2 41  1  0
  5 42  1  0
  6 43  1  0
  9 44  1  0
 13 45  1  0
 14 46  1  0
 14 47  1  0
 15 48  1  0
 15 49  1  0
 17 50  1  0
 18 51  1  0
 19 52  1  0
 20 53  1  0
 21 54  1  0
 25 55  1  0
 26 56  1  0
 28 57  1  0
 28 58  1  0
 28 59  1  0
 29 60  1  0
 30 61  1  0
 32 62  1  0
 35 63  1  0
 36 64  1  0
M  END
>  <Binding energies>  (1) 
[-8.62]

>  <Ligand effiencies>  (1) 
[-0.22684210526315787]

>  <Interactions>  (1) 
["V-B:ARG:545:CD:9895, V-B:GLU:543:C:9874, V-B:GLU:543:CB:9878, V-B:GLY:544:C:9884, V-B:HIS:456:CE1:9040, V-B:LEU:475:CD1:9229, V-A:PRO:540:CA:4883, V-B:GLU:543:CD:9880, V-B:ARG:545:CG:9894, V-A:TYR:539:CD1:4873, V-A:TYR:539:CD2:4874, V-A:TYR:539:CE2:4876, V-A:TYR:539:CG:4872, V-A:TYR:539:CE1:4875, V-A:TYR:539:C:4867, V-A:TYR:539:CZ:4877, V-A:PRO:540:N:4884, V-B:ILE:369:CD1:8210, V-B:ASP:366:CG:8184, V-B:ARG:545:CZ:9898, V-A:HIS:456:CE1:4069, V-A:TYR:484:CE1:4345, V-A:TYR:484:CZ:4347, H-B:GLY:454:N:9021, H-B:TYR:484:OH:9319, H-A:HIS:456:NE2:4070, V-A:HIS:456:CD2:4068, V-A:TYR:484:CD2:4344, V-A:TYR:484:CD1:4343, V-A:TYR:484:CG:4342, H-B:ARG:545:NE:9896, H-B:ILE:455:N:9026, V-A:TYR:484:CE2:4346, V-B:ILE:369:CG2:8208, H-B:HIS:456:ND1:9038, H-B:ILE:455:O:9024"]

$$$$
