1a_Ghoteimi_2023
     RDKit          3D

 67 70  0  0  0  0  0  0  0  0999 V2000
  126.8140  129.1700   57.3000 C   0  0  0  0  0  0  0  0  0  0  0  0
  126.0670  130.5080   57.3130 C   0  0  0  0  0  0  0  0  0  0  0  0
  124.7900  130.3280   57.9140 O   0  0  0  0  0  0  0  0  0  0  0  0
  124.2680  131.2660   58.7450 C   0  0  0  0  0  0  0  0  0  0  0  0
  123.6430  132.2550   58.3490 O   0  0  0  0  0  0  0  0  0  0  0  0
  124.5230  130.9780   60.1970 C   0  0  0  0  0  0  0  0  0  0  0  0
  123.7630  131.5720   61.2160 C   0  0  0  0  0  0  0  0  0  0  0  0
  124.0250  131.2880   62.5530 C   0  0  0  0  0  0  0  0  0  0  0  0
  125.0530  130.3970   62.8970 C   0  0  0  0  0  0  0  0  0  0  0  0
  125.4070  130.0430   64.2130 N   0  0  0  0  0  0  0  0  0  0  0  0
  124.6220  129.6930   65.2550 C   0  0  0  0  0  0  0  0  0  0  0  0
  123.3950  129.6040   65.2300 O   0  0  0  0  0  0  0  0  0  0  0  0
  125.3600  129.3830   66.5580 C   0  0  0  0  0  0  0  0  0  0  0  0
  127.0970  129.9110   66.4890 S   0  0  0  0  0  0  0  0  0  0  0  0
  128.0700  128.4570   66.8120 C   0  0  0  0  0  0  0  0  0  0  0  0
  128.1550  128.1340   68.1250 N   0  0  0  0  0  0  0  0  0  0  0  0
  128.8660  127.0400   68.5060 C   0  0  0  0  0  0  0  0  0  0  0  0
  128.8970  126.7370   69.9760 C   0  0  0  0  0  0  0  0  0  0  0  0
  129.6040  127.5520   70.8750 C   0  0  0  0  0  0  0  0  0  0  0  0
  129.6290  127.2690   72.2370 C   0  0  0  0  0  0  0  0  0  0  0  0
  128.9520  126.1620   72.7440 C   0  0  0  0  0  0  0  0  0  0  0  0
  129.0300  125.9590   74.1090 O   0  0  0  0  0  0  0  0  0  0  0  0
  130.0480  125.1110   74.6270 C   0  0  0  0  0  0  0  0  0  0  0  0
  128.2450  125.3370   71.8600 C   0  0  0  0  0  0  0  0  0  0  0  0
  128.2220  125.6230   70.4980 C   0  0  0  0  0  0  0  0  0  0  0  0
  129.5140  126.2440   67.5530 C   0  0  0  0  0  0  0  0  0  0  0  0
  129.4600  126.5730   66.1920 C   0  0  0  0  0  0  0  0  0  0  0  0
  130.2010  125.6960   65.2360 C   0  0  0  0  0  0  0  0  0  0  0  0
  129.7070  124.4340   64.8890 C   0  0  0  0  0  0  0  0  0  0  0  0
  130.3960  123.6290   63.9860 C   0  0  0  0  0  0  0  0  0  0  0  0
  131.5850  124.0700   63.4060 C   0  0  0  0  0  0  0  0  0  0  0  0
  132.1970  123.2050   62.5220 O   0  0  0  0  0  0  0  0  0  0  0  0
  131.4520  122.1170   61.9870 C   0  0  0  0  0  0  0  0  0  0  0  0
  132.0800  125.3390   63.7460 C   0  0  0  0  0  0  0  0  0  0  0  0
  131.3900  126.1420   64.6500 C   0  0  0  0  0  0  0  0  0  0  0  0
  128.7130  127.7110   65.8020 C   0  0  0  0  0  0  0  0  0  0  0  0
  128.6080  128.0960   64.3910 C   0  0  0  0  0  0  0  0  0  0  0  0
  128.5250  128.3990   63.2770 N   0  0  0  0  0  0  0  0  0  0  0  0
  125.8130  129.8090   61.8860 C   0  0  0  0  0  0  0  0  0  0  0  0
  125.5500  130.0940   60.5480 C   0  0  0  0  0  0  0  0  0  0  0  0
  126.9970  128.8422   58.3339 H   0  0  0  0  0  0  0  0  0  0  0  0
  126.2064  128.4159   56.7784 H   0  0  0  0  0  0  0  0  0  0  0  0
  127.7748  129.2915   56.7784 H   0  0  0  0  0  0  0  0  0  0  0  0
  126.6441  131.2454   57.8903 H   0  0  0  0  0  0  0  0  0  0  0  0
  125.9412  130.8697   56.2818 H   0  0  0  0  0  0  0  0  0  0  0  0
  122.9525  132.2687   60.9557 H   0  0  0  0  0  0  0  0  0  0  0  0
  123.4244  131.7634   63.3425 H   0  0  0  0  0  0  0  0  0  0  0  0
  126.4020  130.0210   64.3790 H   0  0  0  0  0  0  0  0  0  0  0  0
  124.8601  129.9092   67.3846 H   0  0  0  0  0  0  0  0  0  0  0  0
  125.3387  128.2942   66.7133 H   0  0  0  0  0  0  0  0  0  0  0  0
  130.1477  128.4297   70.4956 H   0  0  0  0  0  0  0  0  0  0  0  0
  130.1885  127.9254   72.9198 H   0  0  0  0  0  0  0  0  0  0  0  0
  130.0202  125.1341   75.7264 H   0  0  0  0  0  0  0  0  0  0  0  0
  129.8806  124.0815   74.2776 H   0  0  0  0  0  0  0  0  0  0  0  0
  131.0303  125.4617   74.2776 H   0  0  0  0  0  0  0  0  0  0  0  0
  127.7053  124.4588   72.2440 H   0  0  0  0  0  0  0  0  0  0  0  0
  127.6639  124.9630   69.8176 H   0  0  0  0  0  0  0  0  0  0  0  0
  130.0707  125.3520   67.8761 H   0  0  0  0  0  0  0  0  0  0  0  0
  128.7669  124.0750   65.3331 H   0  0  0  0  0  0  0  0  0  0  0  0
  129.9989  122.6362   63.7277 H   0  0  0  0  0  0  0  0  0  0  0  0
  131.0398  121.5149   62.8102 H   0  0  0  0  0  0  0  0  0  0  0  0
  130.6291  122.5049   61.3686 H   0  0  0  0  0  0  0  0  0  0  0  0
  132.1112  121.4901   61.3686 H   0  0  0  0  0  0  0  0  0  0  0  0
  133.0167  125.7002   63.2964 H   0  0  0  0  0  0  0  0  0  0  0  0
  131.7837  127.1368   64.9058 H   0  0  0  0  0  0  0  0  0  0  0  0
  126.6258  129.1153   62.1470 H   0  0  0  0  0  0  0  0  0  0  0  0
  126.1546  129.6203   59.7605 H   0  0  0  0  0  0  0  0  0  0  0  0
  1  2  1  0
  2  3  1  0
  3  4  1  0
  4  5  2  0
  4  6  1  0
  6  7  2  0
  7  8  1  0
  8  9  2  0
  9 10  1  0
 10 11  1  0
 11 12  2  0
 11 13  1  0
 13 14  1  0
 14 15  1  0
 15 16  2  0
 16 17  1  0
 17 18  1  0
 18 19  2  0
 19 20  1  0
 20 21  2  0
 21 22  1  0
 22 23  1  0
 21 24  1  0
 24 25  2  0
 17 26  2  0
 26 27  1  0
 27 28  1  0
 28 29  2  0
 29 30  1  0
 30 31  2  0
 31 32  1  0
 32 33  1  0
 31 34  1  0
 34 35  2  0
 27 36  2  0
 36 37  1  0
 37 38  3  0
  9 39  1  0
 39 40  2  0
 40  6  1  0
 36 15  1  0
 25 18  1  0
 35 28  1  0
  1 41  1  0
  1 42  1  0
  1 43  1  0
  2 44  1  0
  2 45  1  0
  7 46  1  0
  8 47  1  0
 10 48  1  0
 13 49  1  0
 13 50  1  0
 19 51  1  0
 20 52  1  0
 23 53  1  0
 23 54  1  0
 23 55  1  0
 24 56  1  0
 25 57  1  0
 26 58  1  0
 29 59  1  0
 30 60  1  0
 33 61  1  0
 33 62  1  0
 33 63  1  0
 34 64  1  0
 35 65  1  0
 39 66  1  0
 40 67  1  0
M  END
>  <Binding energies>  (1) 
[-9.79]

>  <Ligand effiencies>  (1) 
[-0.23878048780487804]

>  <Interactions>  (1) 
["V-B:ASP:366:CG:8184, V-B:HIS:456:CE1:9041, V-B:GLU:543:CD:9879, V-A:LEU:475:CD2:4258, V-A:GLU:543:CD:4908, V-B:ILE:369:CD1:8210, V-A:GLU:543:CG:4907, V-A:TYR:539:CE2:4876, V-A:HIS:456:CE1:4069, V-A:HIS:456:CD2:4067, V-B:GLU:543:C:9873, V-B:GLU:543:CG:9878, V-B:GLU:543:CB:9877, H-B:GLY:454:N:9021, V-B:ASP:366:CB:8183, H-B:ARG:545:NH2:9899, H-B:LYS:547:NZ:9922, H-B:TYR:484:OH:9319, H-B:ARG:545:NE:9895, H-B:ARG:545:NH1:9898, V-B:ARG:545:CZ:9897, H-B:TYR:531:OH:9766, V-B:ASP:366:CA:8181, H-A:TYR:539:OH:4878"]

$$$$
1a_Grossjean_2025
     RDKit          3D

 45 46  0  0  0  0  0  0  0  0999 V2000
  127.8300  131.9320   72.9090 C   0  0  0  0  0  0  0  0  0  0  0  0
  128.6160  130.8690   72.1360 C   0  0  0  0  0  0  0  0  0  0  0  0
  128.6590  129.6660   72.8940 O   0  0  0  0  0  0  0  0  0  0  0  0
  129.7080  128.8090   72.7890 C   0  0  0  0  0  0  0  0  0  0  0  0
  130.4970  128.5860   73.7120 O   0  0  0  0  0  0  0  0  0  0  0  0
  129.8210  128.1720   71.4340 C   0  0  0  0  0  0  0  0  0  0  0  0
  130.7840  128.6460   70.5340 C   0  0  0  0  0  0  0  0  0  0  0  0
  130.9100  128.0790   69.2690 C   0  0  0  0  0  0  0  0  0  0  0  0
  130.0780  127.0310   68.8770 C   0  0  0  0  0  0  0  0  0  0  0  0
  130.2920  126.5360   67.5750 N   0  0  0  0  0  0  0  0  0  0  0  0
  129.9690  125.3410   67.0370 C   0  0  0  0  0  0  0  0  0  0  0  0
  129.3960  124.4230   67.6250 O   0  0  0  0  0  0  0  0  0  0  0  0
  130.3660  125.1530   65.5710 C   0  0  0  0  0  0  0  0  0  0  0  0
  130.5130  123.3980   65.1200 S   0  0  0  0  0  0  0  0  0  0  0  0
  130.9270  123.3240   63.3920 C   0  0  0  0  0  0  0  0  0  0  0  0
  129.9790  122.7250   62.6270 N   0  0  0  0  0  0  0  0  0  0  0  0
  130.1950  122.6100   61.2960 C   0  0  0  0  0  0  0  0  0  0  0  0
  129.0980  121.9180   60.5080 C   0  0  0  0  0  0  0  0  0  0  0  0
  131.3460  123.0910   60.6750 C   0  0  0  0  0  0  0  0  0  0  0  0
  132.3190  123.7290   61.4510 C   0  0  0  0  0  0  0  0  0  0  0  0
  133.5660  124.2630   60.7480 C   0  0  0  0  0  0  0  0  0  0  0  0
  132.1150  123.8640   62.8440 C   0  0  0  0  0  0  0  0  0  0  0  0
  133.0980  124.5720   63.6690 C   0  0  0  0  0  0  0  0  0  0  0  0
  133.8750  125.1310   64.3180 N   0  0  0  0  0  0  0  0  0  0  0  0
  129.1160  126.5440   69.7750 C   0  0  0  0  0  0  0  0  0  0  0  0
  128.9900  127.1120   71.0390 C   0  0  0  0  0  0  0  0  0  0  0  0
  127.9530  131.7656   73.9894 H   0  0  0  0  0  0  0  0  0  0  0  0
  128.2084  132.9310   72.6464 H   0  0  0  0  0  0  0  0  0  0  0  0
  126.7640  131.8630   72.6464 H   0  0  0  0  0  0  0  0  0  0  0  0
  128.1227  130.6773   71.1717 H   0  0  0  0  0  0  0  0  0  0  0  0
  129.6408  131.2275   71.9589 H   0  0  0  0  0  0  0  0  0  0  0  0
  131.4462  129.4732   70.8293 H   0  0  0  0  0  0  0  0  0  0  0  0
  131.6718  128.4606   68.5733 H   0  0  0  0  0  0  0  0  0  0  0  0
  130.7280  127.1990   66.9520 H   0  0  0  0  0  0  0  0  0  0  0  0
  129.6004  125.6197   64.9338 H   0  0  0  0  0  0  0  0  0  0  0  0
  131.3495  125.6233   65.4241 H   0  0  0  0  0  0  0  0  0  0  0  0
  128.3775  121.4635   61.2040 H   0  0  0  0  0  0  0  0  0  0  0  0
  128.5815  122.6541   59.8744 H   0  0  0  0  0  0  0  0  0  0  0  0
  129.5399  121.1348   59.8744 H   0  0  0  0  0  0  0  0  0  0  0  0
  131.4872  122.9707   59.5907 H   0  0  0  0  0  0  0  0  0  0  0  0
  134.3039  124.5790   61.5001 H   0  0  0  0  0  0  0  0  0  0  0  0
  133.9995  123.4716   60.1189 H   0  0  0  0  0  0  0  0  0  0  0  0
  133.2924  125.1229   60.1189 H   0  0  0  0  0  0  0  0  0  0  0  0
  128.4603  125.7118   69.4792 H   0  0  0  0  0  0  0  0  0  0  0  0
  128.2313  126.7263   71.7359 H   0  0  0  0  0  0  0  0  0  0  0  0
  1  2  1  0
  2  3  1  0
  3  4  1  0
  4  5  2  0
  4  6  1  0
  6  7  2  0
  7  8  1  0
  8  9  2  0
  9 10  1  0
 10 11  1  0
 11 12  2  0
 11 13  1  0
 13 14  1  0
 14 15  1  0
 15 16  2  0
 16 17  1  0
 17 18  1  0
 17 19  2  0
 19 20  1  0
 20 21  1  0
 20 22  2  0
 22 23  1  0
 23 24  3  0
  9 25  1  0
 25 26  2  0
 26  6  1  0
 22 15  1  0
  1 27  1  0
  1 28  1  0
  1 29  1  0
  2 30  1  0
  2 31  1  0
  7 32  1  0
  8 33  1  0
 10 34  1  0
 13 35  1  0
 13 36  1  0
 18 37  1  0
 18 38  1  0
 18 39  1  0
 19 40  1  0
 21 41  1  0
 21 42  1  0
 21 43  1  0
 25 44  1  0
 26 45  1  0
M  END
>  <Binding energies>  (1) 
[-7.3]

>  <Ligand effiencies>  (1) 
[-0.27037037037037037]

>  <Interactions>  (1) 
["V-B:HIS:456:CE1:9041, V-B:GLU:543:CD:9879, V-A:ASP:366:CG:3212, V-A:GLU:543:CD:4908, V-A:ILE:369:CD1:3238, V-A:GLU:543:CG:4907, H-A:ARG:545:NH2:4928, V-A:HIS:456:CE1:4069, V-B:TYR:539:CD2:9845, V-A:ILE:369:CG2:3236, V-B:HIS:456:CG:9037, V-A:GLU:543:CB:4906, V-B:TYR:539:CE2:9847, V-A:ILE:369:CB:3235, V-B:ALA:541:CB:9863, V-B:TYR:484:CD1:9314, V-B:GLU:543:CG:9878, V-B:GLU:543:CB:9877, V-B:TYR:484:CE1:9316, H-A:LYS:547:NZ:4951, H-A:TYR:484:OH:4347, V-B:HIS:456:CB:9036, H-A:GLY:454:N:4049, V-B:TYR:484:CG:9313, H-A:GLU:543:OE2:4910, H-A:ARG:545:NH1:4927"]

$$$$
1aa_Ghoteimi_2023
     RDKit          3D

 67 70  0  0  0  0  0  0  0  0999 V2000
  128.8530  131.1910   73.5200 C   0  0  0  0  0  0  0  0  0  0  0  0
  129.3710  130.0400   72.6530 C   0  0  0  0  0  0  0  0  0  0  0  0
  130.1800  129.1780   73.4450 O   0  0  0  0  0  0  0  0  0  0  0  0
  130.5120  127.9350   73.0110 C   0  0  0  0  0  0  0  0  0  0  0  0
  130.8980  127.0330   73.7620 O   0  0  0  0  0  0  0  0  0  0  0  0
  130.3640  127.7640   71.5270 C   0  0  0  0  0  0  0  0  0  0  0  0
  131.3110  128.2680   70.6230 C   0  0  0  0  0  0  0  0  0  0  0  0
  131.1480  128.0940   69.2510 C   0  0  0  0  0  0  0  0  0  0  0  0
  130.0290  127.4070   68.7570 C   0  0  0  0  0  0  0  0  0  0  0  0
  129.7590  127.1720   67.3960 N   0  0  0  0  0  0  0  0  0  0  0  0
  129.7520  126.0170   66.6910 C   0  0  0  0  0  0  0  0  0  0  0  0
  129.9930  124.9050   67.1590 O   0  0  0  0  0  0  0  0  0  0  0  0
  129.4170  126.1090   65.1940 C   0  0  0  0  0  0  0  0  0  0  0  0
  130.5030  125.6090   64.4040 O   0  0  0  0  0  0  0  0  0  0  0  0
  130.2800  124.6390   63.4370 C   0  0  0  0  0  0  0  0  0  0  0  0
  129.0950  124.6620   62.7680 N   0  0  0  0  0  0  0  0  0  0  0  0
  128.8330  123.7200   61.8240 C   0  0  0  0  0  0  0  0  0  0  0  0
  127.5050  123.8170   61.1290 C   0  0  0  0  0  0  0  0  0  0  0  0
  126.3140  123.9320   61.8620 C   0  0  0  0  0  0  0  0  0  0  0  0
  125.0810  124.0200   61.2210 C   0  0  0  0  0  0  0  0  0  0  0  0
  125.0000  123.9970   59.8300 C   0  0  0  0  0  0  0  0  0  0  0  0
  123.7350  124.0880   59.2820 O   0  0  0  0  0  0  0  0  0  0  0  0
  123.4980  125.0240   58.2350 C   0  0  0  0  0  0  0  0  0  0  0  0
  126.1820  123.8870   59.0840 C   0  0  0  0  0  0  0  0  0  0  0  0
  127.4130  123.8000   59.7280 C   0  0  0  0  0  0  0  0  0  0  0  0
  129.7790  122.7350   61.5170 C   0  0  0  0  0  0  0  0  0  0  0  0
  131.0120  122.6950   62.1840 C   0  0  0  0  0  0  0  0  0  0  0  0
  131.9820  121.6260   61.8040 C   0  0  0  0  0  0  0  0  0  0  0  0
  131.5680  120.5480   61.0160 C   0  0  0  0  0  0  0  0  0  0  0  0
  132.4690  119.5520   60.6490 C   0  0  0  0  0  0  0  0  0  0  0  0
  133.8010  119.6150   61.0560 C   0  0  0  0  0  0  0  0  0  0  0  0
  134.6230  118.5830   60.6450 O   0  0  0  0  0  0  0  0  0  0  0  0
  135.1740  118.6150   59.3340 C   0  0  0  0  0  0  0  0  0  0  0  0
  134.2230  120.7000   61.8400 C   0  0  0  0  0  0  0  0  0  0  0  0
  133.3200  121.6940   62.2060 C   0  0  0  0  0  0  0  0  0  0  0  0
  131.2640  123.6690   63.1770 C   0  0  0  0  0  0  0  0  0  0  0  0
  132.5030  123.6810   63.9560 C   0  0  0  0  0  0  0  0  0  0  0  0
  133.4820  123.6920   64.5730 N   0  0  0  0  0  0  0  0  0  0  0  0
  129.0840  126.9060   69.6530 C   0  0  0  0  0  0  0  0  0  0  0  0
  129.2480  127.0810   71.0240 C   0  0  0  0  0  0  0  0  0  0  0  0
  128.9699  130.9311   74.5824 H   0  0  0  0  0  0  0  0  0  0  0  0
  129.4275  132.1029   73.3002 H   0  0  0  0  0  0  0  0  0  0  0  0
  127.7894  131.3657   73.3002 H   0  0  0  0  0  0  0  0  0  0  0  0
  128.5194  129.4739   72.2477 H   0  0  0  0  0  0  0  0  0  0  0  0
  129.9691  130.4454   71.8236 H   0  0  0  0  0  0  0  0  0  0  0  0
  132.1920  128.8066   71.0021 H   0  0  0  0  0  0  0  0  0  0  0  0
  131.8977  128.4958   68.5535 H   0  0  0  0  0  0  0  0  0  0  0  0
  129.5300  128.0050   66.8730 H   0  0  0  0  0  0  0  0  0  0  0  0
  128.5154  125.5135   64.9878 H   0  0  0  0  0  0  0  0  0  0  0  0
  129.2436  127.1634   64.9328 H   0  0  0  0  0  0  0  0  0  0  0  0
  126.3551  123.9530   62.9610 H   0  0  0  0  0  0  0  0  0  0  0  0
  124.1617  124.1086   61.8186 H   0  0  0  0  0  0  0  0  0  0  0  0
  123.2498  126.0040   58.6685 H   0  0  0  0  0  0  0  0  0  0  0  0
  124.4012  125.1159   57.6139 H   0  0  0  0  0  0  0  0  0  0  0  0
  122.6599  124.6750   57.6139 H   0  0  0  0  0  0  0  0  0  0  0  0
  126.1364  123.8694   57.9851 H   0  0  0  0  0  0  0  0  0  0  0  0
  128.3311  123.7163   59.1280 H   0  0  0  0  0  0  0  0  0  0  0  0
  129.5530  121.9848   60.7449 H   0  0  0  0  0  0  0  0  0  0  0  0
  130.5214  120.4862   60.6831 H   0  0  0  0  0  0  0  0  0  0  0  0
  132.1268  118.7078   60.0324 H   0  0  0  0  0  0  0  0  0  0  0  0
  136.2703  118.6787   59.3985 H   0  0  0  0  0  0  0  0  0  0  0  0
  134.8910  117.6989   58.7949 H   0  0  0  0  0  0  0  0  0  0  0  0
  134.7868  119.4922   58.7949 H   0  0  0  0  0  0  0  0  0  0  0  0
  135.2714  120.7651   62.1665 H   0  0  0  0  0  0  0  0  0  0  0  0
  133.6621  122.5418   62.8177 H   0  0  0  0  0  0  0  0  0  0  0  0
  128.2027  126.3686   69.2729 H   0  0  0  0  0  0  0  0  0  0  0  0
  128.4954  126.6799   71.7188 H   0  0  0  0  0  0  0  0  0  0  0  0
  1  2  1  0
  2  3  1  0
  3  4  1  0
  4  5  2  0
  4  6  1  0
  6  7  2  0
  7  8  1  0
  8  9  2  0
  9 10  1  0
 10 11  1  0
 11 12  2  0
 11 13  1  0
 13 14  1  0
 14 15  1  0
 15 16  2  0
 16 17  1  0
 17 18  1  0
 18 19  2  0
 19 20  1  0
 20 21  2  0
 21 22  1  0
 22 23  1  0
 21 24  1  0
 24 25  2  0
 17 26  2  0
 26 27  1  0
 27 28  1  0
 28 29  2  0
 29 30  1  0
 30 31  2  0
 31 32  1  0
 32 33  1  0
 31 34  1  0
 34 35  2  0
 27 36  2  0
 36 37  1  0
 37 38  3  0
  9 39  1  0
 39 40  2  0
 40  6  1  0
 36 15  1  0
 25 18  1  0
 35 28  1  0
  1 41  1  0
  1 42  1  0
  1 43  1  0
  2 44  1  0
  2 45  1  0
  7 46  1  0
  8 47  1  0
 10 48  1  0
 13 49  1  0
 13 50  1  0
 19 51  1  0
 20 52  1  0
 23 53  1  0
 23 54  1  0
 23 55  1  0
 24 56  1  0
 25 57  1  0
 26 58  1  0
 29 59  1  0
 30 60  1  0
 33 61  1  0
 33 62  1  0
 33 63  1  0
 34 64  1  0
 35 65  1  0
 39 66  1  0
 40 67  1  0
M  END
>  <Binding energies>  (1) 
[-9.12]

>  <Ligand effiencies>  (1) 
[-0.22243902439024388]

>  <Interactions>  (1) 
["V-B:ASP:366:CG:8184, V-B:HIS:456:CE1:9041, V-B:GLU:543:CD:9879, V-A:LEU:475:CD2:4258, V-A:GLU:543:CD:4908, V-A:ILE:369:CD1:3238, V-A:GLU:543:CG:4907, V-A:GLY:454:CA:4048, V-A:HIS:456:CE1:4069, V-B:TYR:539:CD2:9845, V-A:ILE:369:CG2:3236, V-A:GLU:543:CB:4906, V-B:TYR:539:CE2:9847, V-B:ALA:541:CB:9863, V-A:ARG:545:CG:4922, V-B:GLU:543:CG:9878, V-B:ASP:366:CB:8183, H-A:LYS:547:NZ:4951, H-A:TYR:484:OH:4347, V-A:SER:385:C:3404, V-A:TRP:381:CZ2:3369, V-A:SER:385:CA:3406, V-B:PRO:540:CA:9854, V-A:TRP:381:CH2:3371, H-A:GLY:454:N:4049, V-B:PRO:540:CB:9856, H-A:GLU:543:OE1:4909, H-A:GLU:543:OE2:4910, V-B:LEU:363:CA:8156, V-B:ASN:362:CB:8147, V-B:LEU:363:CD1:8160, V-A:ILE:369:CG1:3237, V-B:LEU:363:C:8154, V-B:TYR:531:CE2:9764, V-B:LEU:363:CB:8158, V-A:TRP:381:CZ3:3370, V-B:TYR:531:CZ:9765, H-B:LEU:363:N:8157"]

$$$$
1b_Ghoteimi_2023
     RDKit          3D

 54 57  0  0  0  0  0  0  0  0999 V2000
  129.9860  125.0410   74.5070 C   0  0  0  0  0  0  0  0  0  0  0  0
  129.0110  125.9630   74.0340 O   0  0  0  0  0  0  0  0  0  0  0  0
  129.0130  126.3190   72.6990 C   0  0  0  0  0  0  0  0  0  0  0  0
  128.2790  125.5080   71.8350 C   0  0  0  0  0  0  0  0  0  0  0  0
  128.2240  125.7880   70.4730 C   0  0  0  0  0  0  0  0  0  0  0  0
  128.8990  126.8930   69.9320 C   0  0  0  0  0  0  0  0  0  0  0  0
  128.8380  127.1910   68.4600 C   0  0  0  0  0  0  0  0  0  0  0  0
  128.0280  128.1940   67.9200 C   0  0  0  0  0  0  0  0  0  0  0  0
  128.0110  128.4350   66.5400 C   0  0  0  0  0  0  0  0  0  0  0  0
  127.1170  129.5190   66.0330 C   0  0  0  0  0  0  0  0  0  0  0  0
  125.7330  129.3320   65.9960 C   0  0  0  0  0  0  0  0  0  0  0  0
  124.8960  130.3360   65.5160 C   0  0  0  0  0  0  0  0  0  0  0  0
  125.4270  131.5430   65.0600 C   0  0  0  0  0  0  0  0  0  0  0  0
  124.5210  132.4810   64.6010 O   0  0  0  0  0  0  0  0  0  0  0  0
  124.1260  132.4520   63.2340 C   0  0  0  0  0  0  0  0  0  0  0  0
  126.8160  131.7310   65.0870 C   0  0  0  0  0  0  0  0  0  0  0  0
  127.6500  130.7250   65.5670 C   0  0  0  0  0  0  0  0  0  0  0  0
  128.8430  127.6460   65.7080 C   0  0  0  0  0  0  0  0  0  0  0  0
  128.9350  127.9220   64.2710 C   0  0  0  0  0  0  0  0  0  0  0  0
  129.0060  128.1400   63.1360 N   0  0  0  0  0  0  0  0  0  0  0  0
  129.6220  126.6360   66.3160 C   0  0  0  0  0  0  0  0  0  0  0  0
  130.7160  125.5470   65.4280 S   0  0  0  0  0  0  0  0  0  0  0  0
  130.0570  123.8510   65.5690 C   0  0  0  0  0  0  0  0  0  0  0  0
  129.6710  123.1920   64.2370 C   0  0  0  0  0  0  0  0  0  0  0  0
  130.2590  122.1830   63.8400 O   0  0  0  0  0  0  0  0  0  0  0  0
  128.6660  123.8070   63.5740 N   0  0  0  0  0  0  0  0  0  0  0  0
  128.1110  123.4350   62.3550 C   0  0  0  0  0  0  0  0  0  0  0  0
  128.8720  123.2180   61.2070 C   0  0  0  0  0  0  0  0  0  0  0  0
  127.9620  122.8720   60.2340 C   0  0  0  0  0  0  0  0  0  0  0  0
  126.7170  122.8790   60.7700 O   0  0  0  0  0  0  0  0  0  0  0  0
  126.8260  123.2370   62.1150 N   0  0  0  0  0  0  0  0  0  0  0  0
  129.6290  126.4340   67.6550 N   0  0  0  0  0  0  0  0  0  0  0  0
  129.6360  127.7020   70.8110 C   0  0  0  0  0  0  0  0  0  0  0  0
  129.6950  127.4250   72.1730 C   0  0  0  0  0  0  0  0  0  0  0  0
  129.9868  125.0403   75.6070 H   0  0  0  0  0  0  0  0  0  0  0  0
  129.7454  124.0324   74.1398 H   0  0  0  0  0  0  0  0  0  0  0  0
  130.9796  125.3375   74.1398 H   0  0  0  0  0  0  0  0  0  0  0  0
  127.7376  124.6376   72.2340 H   0  0  0  0  0  0  0  0  0  0  0  0
  127.6416  125.1321   69.8092 H   0  0  0  0  0  0  0  0  0  0  0  0
  127.3969  128.8008   68.5859 H   0  0  0  0  0  0  0  0  0  0  0  0
  125.3010  128.3839   66.3489 H   0  0  0  0  0  0  0  0  0  0  0  0
  123.8078  130.1763   65.4962 H   0  0  0  0  0  0  0  0  0  0  0  0
  123.0308  132.3716   63.1704 H   0  0  0  0  0  0  0  0  0  0  0  0
  124.4552  133.3767   62.7375 H   0  0  0  0  0  0  0  0  0  0  0  0
  124.5867  131.5853   62.7375 H   0  0  0  0  0  0  0  0  0  0  0  0
  127.2483  132.6765   64.7277 H   0  0  0  0  0  0  0  0  0  0  0  0
  128.7389  130.8802   65.5799 H   0  0  0  0  0  0  0  0  0  0  0  0
  130.8240  123.2257   66.0494 H   0  0  0  0  0  0  0  0  0  0  0  0
  129.1285  123.9296   66.1536 H   0  0  0  0  0  0  0  0  0  0  0  0
  128.2570  124.6210   64.0070 H   0  0  0  0  0  0  0  0  0  0  0  0
  129.9635  123.3046   61.1017 H   0  0  0  0  0  0  0  0  0  0  0  0
  128.2059  122.6289   59.1893 H   0  0  0  0  0  0  0  0  0  0  0  0
  130.1782  128.5732   70.4146 H   0  0  0  0  0  0  0  0  0  0  0  0
  130.2791  128.0764   72.8398 H   0  0  0  0  0  0  0  0  0  0  0  0
  1  2  1  0
  2  3  1  0
  3  4  2  0
  4  5  1  0
  5  6  2  0
  6  7  1  0
  7  8  2  0
  8  9  1  0
  9 10  1  0
 10 11  2  0
 11 12  1  0
 12 13  2  0
 13 14  1  0
 14 15  1  0
 13 16  1  0
 16 17  2  0
  9 18  2  0
 18 19  1  0
 19 20  3  0
 18 21  1  0
 21 22  1  0
 22 23  1  0
 23 24  1  0
 24 25  2  0
 24 26  1  0
 26 27  1  0
 27 28  1  0
 28 29  2  0
 29 30  1  0
 30 31  1  0
 21 32  2  0
  6 33  1  0
 33 34  2  0
 34  3  1  0
 32  7  1  0
 17 10  1  0
 31 27  2  0
  1 35  1  0
  1 36  1  0
  1 37  1  0
  4 38  1  0
  5 39  1  0
  8 40  1  0
 11 41  1  0
 12 42  1  0
 15 43  1  0
 15 44  1  0
 15 45  1  0
 16 46  1  0
 17 47  1  0
 23 48  1  0
 23 49  1  0
 26 50  1  0
 28 51  1  0
 29 52  1  0
 33 53  1  0
 34 54  1  0
M  END
>  <Binding energies>  (1) 
[-9.28]

>  <Ligand effiencies>  (1) 
[-0.2651428571428571]

>  <Interactions>  (1) 
["V-B:HIS:456:CE1:9041, V-B:GLU:543:CD:9879, V-A:TYR:484:CZ:4346, V-A:GLU:543:CD:4908, V-B:GLY:454:CA:9020, V-B:ILE:369:CD1:8210, V-A:GLU:543:CG:4907, V-B:LEU:475:CD1:9229, V-A:HIS:456:CE1:4069, V-A:HIS:456:CD2:4067, V-B:ALA:541:CB:9863, V-B:GLU:543:C:9873, V-B:GLU:543:CG:9878, V-B:GLU:543:CB:9877, H-B:GLY:454:N:9021, H-B:GLU:543:OE2:9881, H-B:LYS:547:NZ:9922, V-B:PRO:540:CA:9854, H-B:ALA:541:N:9862, V-A:TYR:484:CE1:4344"]

$$$$
1b_Grossjean_2025
     RDKit          3D

 42 43  0  0  0  0  0  0  0  0999 V2000
  128.6300  130.8600   72.1350 C   0  0  0  0  0  0  0  0  0  0  0  0
  129.8710  130.4320   72.6790 O   0  0  0  0  0  0  0  0  0  0  0  0
  130.2050  129.1170   72.7070 C   0  0  0  0  0  0  0  0  0  0  0  0
  130.4120  128.4890   73.7510 O   0  0  0  0  0  0  0  0  0  0  0  0
  130.2890  128.4960   71.3420 C   0  0  0  0  0  0  0  0  0  0  0  0
  129.2410  127.7310   70.8080 C   0  0  0  0  0  0  0  0  0  0  0  0
  129.3510  127.1690   69.5400 C   0  0  0  0  0  0  0  0  0  0  0  0
  130.5060  127.3570   68.7800 C   0  0  0  0  0  0  0  0  0  0  0  0
  130.5080  126.7410   67.5140 N   0  0  0  0  0  0  0  0  0  0  0  0
  130.0340  125.5350   67.1310 C   0  0  0  0  0  0  0  0  0  0  0  0
  129.4790  124.7190   67.8660 O   0  0  0  0  0  0  0  0  0  0  0  0
  130.2120  125.2010   65.6490 C   0  0  0  0  0  0  0  0  0  0  0  0
  130.4660  123.4230   65.3730 S   0  0  0  0  0  0  0  0  0  0  0  0
  130.9900  123.2180   63.6840 C   0  0  0  0  0  0  0  0  0  0  0  0
  130.1460  122.4620   62.9380 N   0  0  0  0  0  0  0  0  0  0  0  0
  130.4480  122.2430   61.6370 C   0  0  0  0  0  0  0  0  0  0  0  0
  129.4510  121.4020   60.8600 C   0  0  0  0  0  0  0  0  0  0  0  0
  131.5960  122.7530   61.0350 C   0  0  0  0  0  0  0  0  0  0  0  0
  132.4840  123.5150   61.8020 C   0  0  0  0  0  0  0  0  0  0  0  0
  133.7440  124.0500   61.1250 C   0  0  0  0  0  0  0  0  0  0  0  0
  132.1900  123.7570   63.1630 C   0  0  0  0  0  0  0  0  0  0  0  0
  133.1260  124.5150   63.9970 C   0  0  0  0  0  0  0  0  0  0  0  0
  133.8680  125.1130   64.6520 N   0  0  0  0  0  0  0  0  0  0  0  0
  131.5580  128.1200   69.3060 C   0  0  0  0  0  0  0  0  0  0  0  0
  131.4470  128.6830   70.5740 C   0  0  0  0  0  0  0  0  0  0  0  0
  127.9344  131.0999   72.9527 H   0  0  0  0  0  0  0  0  0  0  0  0
  128.7903  131.7548   71.5156 H   0  0  0  0  0  0  0  0  0  0  0  0
  128.2046  130.0566   71.5156 H   0  0  0  0  0  0  0  0  0  0  0  0
  128.3250  127.5743   71.3966 H   0  0  0  0  0  0  0  0  0  0  0  0
  128.5213  126.5720   69.1336 H   0  0  0  0  0  0  0  0  0  0  0  0
  130.9450  127.2940   66.7910 H   0  0  0  0  0  0  0  0  0  0  0  0
  129.3115  125.5193   65.1033 H   0  0  0  0  0  0  0  0  0  0  0  0
  131.1062  125.7303   65.2881 H   0  0  0  0  0  0  0  0  0  0  0  0
  128.8045  120.8567   61.5633 H   0  0  0  0  0  0  0  0  0  0  0  0
  128.8340  122.0565   60.2269 H   0  0  0  0  0  0  0  0  0  0  0  0
  129.9922  120.6835   60.2269 H   0  0  0  0  0  0  0  0  0  0  0  0
  131.8014  122.5594   59.9718 H   0  0  0  0  0  0  0  0  0  0  0  0
  134.4697  124.3581   61.8921 H   0  0  0  0  0  0  0  0  0  0  0  0
  134.1860  123.2619   60.4976 H   0  0  0  0  0  0  0  0  0  0  0  0
  133.4839  124.9153   60.4976 H   0  0  0  0  0  0  0  0  0  0  0  0
  132.4731  128.2740   68.7153 H   0  0  0  0  0  0  0  0  0  0  0  0
  132.2769  129.2813   70.9781 H   0  0  0  0  0  0  0  0  0  0  0  0
  1  2  1  0
  2  3  1  0
  3  4  2  0
  3  5  1  0
  5  6  2  0
  6  7  1  0
  7  8  2  0
  8  9  1  0
  9 10  1  0
 10 11  2  0
 10 12  1  0
 12 13  1  0
 13 14  1  0
 14 15  2  0
 15 16  1  0
 16 17  1  0
 16 18  2  0
 18 19  1  0
 19 20  1  0
 19 21  2  0
 21 22  1  0
 22 23  3  0
  8 24  1  0
 24 25  2  0
 25  5  1  0
 21 14  1  0
  1 26  1  0
  1 27  1  0
  1 28  1  0
  6 29  1  0
  7 30  1  0
  9 31  1  0
 12 32  1  0
 12 33  1  0
 17 34  1  0
 17 35  1  0
 17 36  1  0
 18 37  1  0
 20 38  1  0
 20 39  1  0
 20 40  1  0
 24 41  1  0
 25 42  1  0
M  END
>  <Binding energies>  (1) 
[-7.23]

>  <Ligand effiencies>  (1) 
[-0.2780769230769231]

>  <Interactions>  (1) 
["V-B:HIS:456:CE1:9041, V-B:GLU:543:CD:9879, V-A:GLU:543:CD:4908, V-A:ILE:369:CD1:3238, V-A:HIS:456:CE1:4069, V-B:TYR:539:CD2:9845, V-A:GLU:543:C:4902, V-A:ILE:369:CG2:3236, V-B:HIS:456:CG:9037, V-A:GLU:543:CB:4906, V-B:TYR:539:CE2:9847, V-A:ILE:369:CB:3235, V-A:GLY:544:C:4912, V-B:ALA:541:CB:9863, V-A:ARG:545:CG:4922, V-B:TYR:484:CD1:9314, V-B:GLU:543:CG:9878, V-B:GLU:543:CB:9877, V-A:ARG:545:CA:4919, V-B:TYR:484:CE1:9316, H-A:LYS:547:NZ:4951, H-A:TYR:484:OH:4347, H-A:ARG:545:NE:4924, H-A:GLY:454:N:4049, H-A:GLU:543:OE1:4909, H-A:GLU:543:OE2:4910, H-A:ARG:545:NH1:4927"]

$$$$
1c_Ghoteimi_2023
     RDKit          3D

 54 57  0  0  0  0  0  0  0  0999 V2000
  130.0820  125.1720   75.0400 C   0  0  0  0  0  0  0  0  0  0  0  0
  129.0250  125.9040   74.4290 O   0  0  0  0  0  0  0  0  0  0  0  0
  129.0920  126.1890   73.0790 C   0  0  0  0  0  0  0  0  0  0  0  0
  128.3810  125.3480   72.2270 C   0  0  0  0  0  0  0  0  0  0  0  0
  128.3940  125.5590   70.8510 C   0  0  0  0  0  0  0  0  0  0  0  0
  129.1210  126.6170   70.2850 C   0  0  0  0  0  0  0  0  0  0  0  0
  129.1430  126.8450   68.8010 C   0  0  0  0  0  0  0  0  0  0  0  0
  129.7480  125.9550   67.9080 C   0  0  0  0  0  0  0  0  0  0  0  0
  129.7190  126.1960   66.5290 C   0  0  0  0  0  0  0  0  0  0  0  0
  130.3260  125.1700   65.6300 C   0  0  0  0  0  0  0  0  0  0  0  0
  129.7620  123.8960   65.5210 C   0  0  0  0  0  0  0  0  0  0  0  0
  130.3420  122.9350   64.7000 C   0  0  0  0  0  0  0  0  0  0  0  0
  131.4980  123.2260   63.9760 C   0  0  0  0  0  0  0  0  0  0  0  0
  132.0030  122.2110   63.1860 O   0  0  0  0  0  0  0  0  0  0  0  0
  133.3190  122.3340   62.6540 C   0  0  0  0  0  0  0  0  0  0  0  0
  132.0710  124.5020   64.0880 C   0  0  0  0  0  0  0  0  0  0  0  0
  131.4890  125.4620   64.9110 C   0  0  0  0  0  0  0  0  0  0  0  0
  129.0890  127.3750   66.0650 C   0  0  0  0  0  0  0  0  0  0  0  0
  129.0540  127.7020   64.6360 C   0  0  0  0  0  0  0  0  0  0  0  0
  129.0270  127.9590   63.5070 N   0  0  0  0  0  0  0  0  0  0  0  0
  128.4840  128.2200   67.0180 C   0  0  0  0  0  0  0  0  0  0  0  0
  127.5140  129.6420   66.5650 S   0  0  0  0  0  0  0  0  0  0  0  0
  125.8080  129.2140   67.0440 C   0  0  0  0  0  0  0  0  0  0  0  0
  124.7900  129.6100   65.9690 C   0  0  0  0  0  0  0  0  0  0  0  0
  123.6130  129.7920   66.2840 O   0  0  0  0  0  0  0  0  0  0  0  0
  125.2980  129.7730   64.7270 N   0  0  0  0  0  0  0  0  0  0  0  0
  124.6310  130.2720   63.6190 C   0  0  0  0  0  0  0  0  0  0  0  0
  123.3800  130.6700   63.5410 N   0  0  0  0  0  0  0  0  0  0  0  0
  123.0920  131.1260   62.3370 C   0  0  0  0  0  0  0  0  0  0  0  0
  124.1280  131.1050   61.4070 C   0  0  0  0  0  0  0  0  0  0  0  0
  125.5500  130.4480   62.1590 S   0  0  0  0  0  0  0  0  0  0  0  0
  128.5040  127.9550   68.3470 N   0  0  0  0  0  0  0  0  0  0  0  0
  129.8290  127.4620   71.1530 C   0  0  0  0  0  0  0  0  0  0  0  0
  129.8190  127.2540   72.5300 C   0  0  0  0  0  0  0  0  0  0  0  0
  129.9883  125.2369   76.1341 H   0  0  0  0  0  0  0  0  0  0  0  0
  130.0259  124.1184   74.7290 H   0  0  0  0  0  0  0  0  0  0  0  0
  131.0486  125.5951   74.7290 H   0  0  0  0  0  0  0  0  0  0  0  0
  127.8041  124.5097   72.6447 H   0  0  0  0  0  0  0  0  0  0  0  0
  127.8240  124.8840   70.1957 H   0  0  0  0  0  0  0  0  0  0  0  0
  130.2519  125.0562   68.2929 H   0  0  0  0  0  0  0  0  0  0  0  0
  128.8523  123.6515   66.0890 H   0  0  0  0  0  0  0  0  0  0  0  0
  129.8854  121.9374   64.6210 H   0  0  0  0  0  0  0  0  0  0  0  0
  134.0432  122.4017   63.4792 H   0  0  0  0  0  0  0  0  0  0  0  0
  133.5485  121.4534   62.0360 H   0  0  0  0  0  0  0  0  0  0  0  0
  133.3813  123.2419   62.0360 H   0  0  0  0  0  0  0  0  0  0  0  0
  132.9834  124.7445   63.5234 H   0  0  0  0  0  0  0  0  0  0  0  0
  131.9477  126.4582   64.9963 H   0  0  0  0  0  0  0  0  0  0  0  0
  125.7474  128.1278   67.2068 H   0  0  0  0  0  0  0  0  0  0  0  0
  125.5646  129.7697   67.9616 H   0  0  0  0  0  0  0  0  0  0  0  0
  126.2800  129.5850   64.5990 H   0  0  0  0  0  0  0  0  0  0  0  0
  122.0900  131.5016   62.0822 H   0  0  0  0  0  0  0  0  0  0  0  0
  124.0576  131.4488   60.3645 H   0  0  0  0  0  0  0  0  0  0  0  0
  130.4024  128.3041   70.7383 H   0  0  0  0  0  0  0  0  0  0  0  0
  130.3843  127.9287   73.1897 H   0  0  0  0  0  0  0  0  0  0  0  0
  1  2  1  0
  2  3  1  0
  3  4  2  0
  4  5  1  0
  5  6  2  0
  6  7  1  0
  7  8  2  0
  8  9  1  0
  9 10  1  0
 10 11  2  0
 11 12  1  0
 12 13  2  0
 13 14  1  0
 14 15  1  0
 13 16  1  0
 16 17  2  0
  9 18  2  0
 18 19  1  0
 19 20  3  0
 18 21  1  0
 21 22  1  0
 22 23  1  0
 23 24  1  0
 24 25  2  0
 24 26  1  0
 26 27  1  0
 27 28  2  0
 28 29  1  0
 29 30  2  0
 30 31  1  0
 21 32  2  0
  6 33  1  0
 33 34  2  0
 34  3  1  0
 32  7  1  0
 17 10  1  0
 31 27  1  0
  1 35  1  0
  1 36  1  0
  1 37  1  0
  4 38  1  0
  5 39  1  0
  8 40  1  0
 11 41  1  0
 12 42  1  0
 15 43  1  0
 15 44  1  0
 15 45  1  0
 16 46  1  0
 17 47  1  0
 23 48  1  0
 23 49  1  0
 26 50  1  0
 29 51  1  0
 30 52  1  0
 33 53  1  0
 34 54  1  0
M  END
>  <Binding energies>  (1) 
[-8.83]

>  <Ligand effiencies>  (1) 
[-0.2522857142857143]

>  <Interactions>  (1) 
["V-B:ASP:366:CG:8184, V-B:HIS:456:CE1:9041, V-B:GLU:543:CD:9879, V-A:LEU:475:CD2:4258, V-A:GLU:543:CD:4908, V-A:ILE:369:CD1:3238, V-B:ILE:369:CD1:8210, V-A:GLU:543:CG:4907, V-A:GLY:454:CA:4048, V-A:HIS:456:CE1:4069, V-B:ALA:541:CB:9863, V-B:GLU:543:C:9873, V-B:GLU:543:CG:9878, V-B:GLU:543:CB:9877, H-B:GLY:454:N:9021, H-B:GLU:543:OE1:9880, H-B:LYS:547:NZ:9922, H-B:TYR:484:OH:9319, H-B:ARG:545:NE:9895, V-B:ARG:545:CZ:9897, V-B:ARG:545:CD:9894, V-A:TYR:484:CE1:4344"]

$$$$
1c_Grossjean_2025
     RDKit          3D

 40 41  0  0  0  0  0  0  0  0999 V2000
  129.7410  130.5390   73.5010 C   0  0  0  0  0  0  0  0  0  0  0  0
  130.5040  129.3600   73.2690 O   0  0  0  0  0  0  0  0  0  0  0  0
  130.5470  128.8240   71.9960 C   0  0  0  0  0  0  0  0  0  0  0  0
  129.3360  128.3770   71.4690 C   0  0  0  0  0  0  0  0  0  0  0  0
  129.2760  127.8230   70.1930 C   0  0  0  0  0  0  0  0  0  0  0  0
  130.4420  127.7160   69.4200 C   0  0  0  0  0  0  0  0  0  0  0  0
  130.4970  127.1640   68.1250 N   0  0  0  0  0  0  0  0  0  0  0  0
  129.8560  126.0860   67.6250 C   0  0  0  0  0  0  0  0  0  0  0  0
  129.0610  125.3780   68.2430 O   0  0  0  0  0  0  0  0  0  0  0  0
  130.1670  125.7590   66.1630 C   0  0  0  0  0  0  0  0  0  0  0  0
  130.1720  123.9670   65.8580 S   0  0  0  0  0  0  0  0  0  0  0  0
  130.8120  123.6780   64.2210 C   0  0  0  0  0  0  0  0  0  0  0  0
  129.9350  123.0430   63.4030 N   0  0  0  0  0  0  0  0  0  0  0  0
  130.3120  122.7680   62.1320 C   0  0  0  0  0  0  0  0  0  0  0  0
  129.2750  122.0660   61.2750 C   0  0  0  0  0  0  0  0  0  0  0  0
  131.5680  123.1010   61.6320 C   0  0  0  0  0  0  0  0  0  0  0  0
  132.4890  123.7330   62.4730 C   0  0  0  0  0  0  0  0  0  0  0  0
  133.8660  124.0730   61.9060 C   0  0  0  0  0  0  0  0  0  0  0  0
  132.1180  124.0290   63.8050 C   0  0  0  0  0  0  0  0  0  0  0  0
  133.0880  124.6410   64.7170 C   0  0  0  0  0  0  0  0  0  0  0  0
  133.8540  125.1260   65.4360 N   0  0  0  0  0  0  0  0  0  0  0  0
  131.6580  128.1530   69.9490 C   0  0  0  0  0  0  0  0  0  0  0  0
  131.7130  128.7060   71.2250 C   0  0  0  0  0  0  0  0  0  0  0  0
  129.6363  130.7008   74.5840 H   0  0  0  0  0  0  0  0  0  0  0  0
  130.2526  131.4016   73.0492 H   0  0  0  0  0  0  0  0  0  0  0  0
  128.7445  130.4257   73.0492 H   0  0  0  0  0  0  0  0  0  0  0  0
  128.4175  128.4630   72.0681 H   0  0  0  0  0  0  0  0  0  0  0  0
  128.3150  127.4694   69.7912 H   0  0  0  0  0  0  0  0  0  0  0  0
  131.0640  127.6870   67.4750 H   0  0  0  0  0  0  0  0  0  0  0  0
  129.4040  126.2268   65.5235 H   0  0  0  0  0  0  0  0  0  0  0  0
  131.1696  126.1479   65.9316 H   0  0  0  0  0  0  0  0  0  0  0  0
  128.5394  121.5680   61.9238 H   0  0  0  0  0  0  0  0  0  0  0  0
  128.7635  122.8043   60.6400 H   0  0  0  0  0  0  0  0  0  0  0  0
  129.7704  121.3168   60.6400 H   0  0  0  0  0  0  0  0  0  0  0  0
  131.8322  122.8700   60.5895 H   0  0  0  0  0  0  0  0  0  0  0  0
  134.5703  124.2469   62.7329 H   0  0  0  0  0  0  0  0  0  0  0  0
  134.2250  123.2365   61.2884 H   0  0  0  0  0  0  0  0  0  0  0  0
  133.7944  124.9804   61.2884 H   0  0  0  0  0  0  0  0  0  0  0  0
  132.5782  128.0596   69.3536 H   0  0  0  0  0  0  0  0  0  0  0  0
  132.6751  129.0521   71.6308 H   0  0  0  0  0  0  0  0  0  0  0  0
  1  2  1  0
  2  3  1  0
  3  4  2  0
  4  5  1  0
  5  6  2  0
  6  7  1  0
  7  8  1  0
  8  9  2  0
  8 10  1  0
 10 11  1  0
 11 12  1  0
 12 13  2  0
 13 14  1  0
 14 15  1  0
 14 16  2  0
 16 17  1  0
 17 18  1  0
 17 19  2  0
 19 20  1  0
 20 21  3  0
  6 22  1  0
 22 23  2  0
 23  3  1  0
 19 12  1  0
  1 24  1  0
  1 25  1  0
  1 26  1  0
  4 27  1  0
  5 28  1  0
  7 29  1  0
 10 30  1  0
 10 31  1  0
 15 32  1  0
 15 33  1  0
 15 34  1  0
 16 35  1  0
 18 36  1  0
 18 37  1  0
 18 38  1  0
 22 39  1  0
 23 40  1  0
M  END
>  <Binding energies>  (1) 
[-6.93]

>  <Ligand effiencies>  (1) 
[-0.28875]

>  <Interactions>  (1) 
["V-B:HIS:456:CE1:9041, V-B:GLU:543:CD:9879, V-A:GLU:543:CD:4908, V-A:ILE:369:CD1:3238, V-A:GLY:454:CA:4048, V-A:HIS:456:CE1:4069, V-A:GLU:543:C:4902, V-A:ILE:369:CG2:3236, V-A:GLU:543:CB:4906, V-A:GLY:544:C:4912, V-B:ALA:541:CB:9863, V-A:ARG:545:CG:4922, V-B:GLU:543:CG:9878, V-A:ARG:545:CA:4919, H-A:LYS:547:NZ:4951, H-A:TYR:484:OH:4347, V-A:LYS:547:CE:4950, H-A:ARG:545:NE:4924, H-A:GLY:454:N:4049, H-A:GLU:543:OE2:4910"]

$$$$
1d_Ghoteimi_2023
     RDKit          3D

 50 52  0  0  0  0  0  0  0  0999 V2000
  133.8300  125.4270   63.6660 C   0  0  0  0  0  0  0  0  0  0  0  0
  133.6250  124.6550   64.8390 O   0  0  0  0  0  0  0  0  0  0  0  0
  133.9910  125.1340   66.0470 C   0  0  0  0  0  0  0  0  0  0  0  0
  135.0580  124.9190   66.6230 O   0  0  0  0  0  0  0  0  0  0  0  0
  132.9090  126.0080   66.6760 C   0  0  0  0  0  0  0  0  0  0  0  0
  131.3280  125.5720   65.8920 S   0  0  0  0  0  0  0  0  0  0  0  0
  130.0670  126.5430   66.6880 C   0  0  0  0  0  0  0  0  0  0  0  0
  130.0020  126.3590   68.0280 N   0  0  0  0  0  0  0  0  0  0  0  0
  129.0800  127.0350   68.7600 C   0  0  0  0  0  0  0  0  0  0  0  0
  129.0780  126.7790   70.2400 C   0  0  0  0  0  0  0  0  0  0  0  0
  128.5080  125.6140   70.7760 C   0  0  0  0  0  0  0  0  0  0  0  0
  128.5010  125.3810   72.1480 C   0  0  0  0  0  0  0  0  0  0  0  0
  129.0620  126.3050   73.0270 C   0  0  0  0  0  0  0  0  0  0  0  0
  129.0070  125.9930   74.3720 O   0  0  0  0  0  0  0  0  0  0  0  0
  130.0690  125.2450   74.9540 C   0  0  0  0  0  0  0  0  0  0  0  0
  129.6340  127.4740   72.5070 C   0  0  0  0  0  0  0  0  0  0  0  0
  129.6400  127.7020   71.1340 C   0  0  0  0  0  0  0  0  0  0  0  0
  128.2000  127.9330   68.1450 C   0  0  0  0  0  0  0  0  0  0  0  0
  128.2350  128.1310   66.7590 C   0  0  0  0  0  0  0  0  0  0  0  0
  127.2610  129.0980   66.1670 C   0  0  0  0  0  0  0  0  0  0  0  0
  125.9270  129.0970   66.5830 C   0  0  0  0  0  0  0  0  0  0  0  0
  125.0140  129.9950   66.0360 C   0  0  0  0  0  0  0  0  0  0  0  0
  125.4170  130.9140   65.0670 C   0  0  0  0  0  0  0  0  0  0  0  0
  124.4430  131.7610   64.5760 O   0  0  0  0  0  0  0  0  0  0  0  0
  124.1110  131.7100   63.1930 C   0  0  0  0  0  0  0  0  0  0  0  0
  126.7590  130.9270   64.6550 C   0  0  0  0  0  0  0  0  0  0  0  0
  127.6690  130.0290   65.2050 C   0  0  0  0  0  0  0  0  0  0  0  0
  129.1820  127.4010   65.9970 C   0  0  0  0  0  0  0  0  0  0  0  0
  129.1940  127.4910   64.5340 C   0  0  0  0  0  0  0  0  0  0  0  0
  129.2020  127.5630   63.3790 N   0  0  0  0  0  0  0  0  0  0  0  0
  134.1030  126.4550   63.9467 H   0  0  0  0  0  0  0  0  0  0  0  0
  134.6410  124.9817   63.0711 H   0  0  0  0  0  0  0  0  0  0  0  0
  132.9049  125.4427   63.0711 H   0  0  0  0  0  0  0  0  0  0  0  0
  132.8560  125.8190   67.7583 H   0  0  0  0  0  0  0  0  0  0  0  0
  133.1354  127.0736   66.5238 H   0  0  0  0  0  0  0  0  0  0  0  0
  128.0588  124.8718   70.0997 H   0  0  0  0  0  0  0  0  0  0  0  0
  128.0485  124.4590   72.5420 H   0  0  0  0  0  0  0  0  0  0  0  0
  129.9959  125.2965   76.0504 H   0  0  0  0  0  0  0  0  0  0  0  0
  129.9987  124.1959   74.6307 H   0  0  0  0  0  0  0  0  0  0  0  0
  131.0331  125.6645   74.6307 H   0  0  0  0  0  0  0  0  0  0  0  0
  130.0802  128.2146   73.1870 H   0  0  0  0  0  0  0  0  0  0  0  0
  130.0944  128.6241   70.7424 H   0  0  0  0  0  0  0  0  0  0  0  0
  127.4737  128.4887   68.7563 H   0  0  0  0  0  0  0  0  0  0  0  0
  125.5952  128.3807   67.3491 H   0  0  0  0  0  0  0  0  0  0  0  0
  123.9663  129.9795   66.3708 H   0  0  0  0  0  0  0  0  0  0  0  0
  123.0294  131.5438   63.0815 H   0  0  0  0  0  0  0  0  0  0  0  0
  124.3872  132.6611   62.7143 H   0  0  0  0  0  0  0  0  0  0  0  0
  124.6599  130.8856   62.7143 H   0  0  0  0  0  0  0  0  0  0  0  0
  127.0923  131.6492   63.8951 H   0  0  0  0  0  0  0  0  0  0  0  0
  128.7197  130.0512   64.8802 H   0  0  0  0  0  0  0  0  0  0  0  0
  1  2  1  0
  2  3  1  0
  3  4  2  0
  3  5  1  0
  5  6  1  0
  6  7  1  0
  7  8  2  0
  8  9  1  0
  9 10  1  0
 10 11  2  0
 11 12  1  0
 12 13  2  0
 13 14  1  0
 14 15  1  0
 13 16  1  0
 16 17  2  0
  9 18  2  0
 18 19  1  0
 19 20  1  0
 20 21  2  0
 21 22  1  0
 22 23  2  0
 23 24  1  0
 24 25  1  0
 23 26  1  0
 26 27  2  0
 19 28  2  0
 28 29  1  0
 29 30  3  0
 28  7  1  0
 17 10  1  0
 27 20  1  0
  1 31  1  0
  1 32  1  0
  1 33  1  0
  5 34  1  0
  5 35  1  0
 11 36  1  0
 12 37  1  0
 15 38  1  0
 15 39  1  0
 15 40  1  0
 16 41  1  0
 17 42  1  0
 18 43  1  0
 21 44  1  0
 22 45  1  0
 25 46  1  0
 25 47  1  0
 25 48  1  0
 26 49  1  0
 27 50  1  0
M  END
>  <Binding energies>  (1) 
[-8.35]

>  <Ligand effiencies>  (1) 
[-0.2783333333333333]

>  <Interactions>  (1) 
["V-B:HIS:456:CE1:9041, V-A:ARG:545:CZ:4926, V-B:GLU:543:CD:9879, V-A:GLU:543:CD:4908, V-B:GLY:454:CA:9020, V-A:GLU:543:CG:4907, V-A:GLY:453:CA:4043, V-A:GLY:454:CA:4048, V-A:HIS:456:CE1:4069, V-A:HIS:456:CD2:4067, V-A:ARG:545:CG:4922, V-B:GLU:543:C:9873, H-B:GLY:454:N:9021, H-B:LYS:547:NZ:9922, H-A:TYR:484:OH:4347, H-A:GLY:454:N:4049, V-A:ARG:545:CD:4923, V-A:GLY:453:C:4041, H-A:ILE:455:N:4054"]

$$$$
1d_Grossjean_2025
     RDKit          3D

 36 37  0  0  0  0  0  0  0  0999 V2000
  128.5960  128.7290   67.9000 C   0  0  0  0  0  0  0  0  0  0  0  0
  127.4880  129.1960   66.9770 C   0  0  0  0  0  0  0  0  0  0  0  0
  126.1530  129.1850   67.3740 C   0  0  0  0  0  0  0  0  0  0  0  0
  125.1740  129.6370   66.4830 C   0  0  0  0  0  0  0  0  0  0  0  0
  123.7190  129.6310   66.9480 C   0  0  0  0  0  0  0  0  0  0  0  0
  125.5620  130.0850   65.1990 C   0  0  0  0  0  0  0  0  0  0  0  0
  124.5600  130.6070   64.2670 C   0  0  0  0  0  0  0  0  0  0  0  0
  123.7660  131.0200   63.5330 N   0  0  0  0  0  0  0  0  0  0  0  0
  126.9370  130.0370   64.8720 C   0  0  0  0  0  0  0  0  0  0  0  0
  127.6000  130.5590   63.3050 S   0  0  0  0  0  0  0  0  0  0  0  0
  128.4750  132.1290   63.5820 C   0  0  0  0  0  0  0  0  0  0  0  0
  129.4810  132.4320   62.4700 C   0  0  0  0  0  0  0  0  0  0  0  0
  129.2710  133.3800   61.7120 O   0  0  0  0  0  0  0  0  0  0  0  0
  130.5600  131.6210   62.4300 N   0  0  0  0  0  0  0  0  0  0  0  0
  131.6490  131.6120   61.5390 C   0  0  0  0  0  0  0  0  0  0  0  0
  131.3380  131.3370   60.2050 C   0  0  0  0  0  0  0  0  0  0  0  0
  132.3410  131.3090   59.2400 C   0  0  0  0  0  0  0  0  0  0  0  0
  133.6590  131.5640   59.6080 C   0  0  0  0  0  0  0  0  0  0  0  0
  133.9820  131.8490   60.9330 C   0  0  0  0  0  0  0  0  0  0  0  0
  132.9810  131.8760   61.9000 C   0  0  0  0  0  0  0  0  0  0  0  0
  127.8820  129.6170   65.7520 N   0  0  0  0  0  0  0  0  0  0  0  0
  128.2821  128.8613   68.9459 H   0  0  0  0  0  0  0  0  0  0  0  0
  128.8062  127.6658   67.7119 H   0  0  0  0  0  0  0  0  0  0  0  0
  129.5038  129.3210   67.7119 H   0  0  0  0  0  0  0  0  0  0  0  0
  125.8722  128.8256   68.3750 H   0  0  0  0  0  0  0  0  0  0  0  0
  123.6854  129.6309   68.0475 H   0  0  0  0  0  0  0  0  0  0  0  0
  123.2082  130.5270   66.5657 H   0  0  0  0  0  0  0  0  0  0  0  0
  123.2156  128.7308   66.5657 H   0  0  0  0  0  0  0  0  0  0  0  0
  127.7370  132.9436   63.6241 H   0  0  0  0  0  0  0  0  0  0  0  0
  129.0309  132.0444   64.5274 H   0  0  0  0  0  0  0  0  0  0  0  0
  130.6130  130.9170   63.1520 H   0  0  0  0  0  0  0  0  0  0  0  0
  130.2949  131.1415   59.9156 H   0  0  0  0  0  0  0  0  0  0  0  0
  132.0932  131.0864   58.1917 H   0  0  0  0  0  0  0  0  0  0  0  0
  134.4522  131.5403   58.8463 H   0  0  0  0  0  0  0  0  0  0  0  0
  135.0258  132.0522   61.2144 H   0  0  0  0  0  0  0  0  0  0  0  0
  133.2327  132.1039   62.9463 H   0  0  0  0  0  0  0  0  0  0  0  0
  1  2  1  0
  2  3  2  0
  3  4  1  0
  4  5  1  0
  4  6  2  0
  6  7  1  0
  7  8  3  0
  6  9  1  0
  9 10  1  0
 10 11  1  0
 11 12  1  0
 12 13  2  0
 12 14  1  0
 14 15  1  0
 15 16  2  0
 16 17  1  0
 17 18  2  0
 18 19  1  0
 19 20  2  0
  9 21  2  0
 21  2  1  0
 20 15  1  0
  1 22  1  0
  1 23  1  0
  1 24  1  0
  3 25  1  0
  5 26  1  0
  5 27  1  0
  5 28  1  0
 11 29  1  0
 11 30  1  0
 14 31  1  0
 16 32  1  0
 17 33  1  0
 18 34  1  0
 19 35  1  0
 20 36  1  0
M  END
>  <Binding energies>  (1) 
[-7.27]

>  <Ligand effiencies>  (1) 
[-0.33045454545454545]

>  <Interactions>  (1) 
["V-B:HIS:456:CE1:9041, V-A:ASP:366:CG:3212, V-A:GLU:543:CD:4908, V-B:GLY:454:CA:9020, V-A:ALA:541:CB:4892, V-A:GLU:543:CG:4907, V-A:GLU:543:CB:4906, V-A:ASP:366:CB:3211, H-B:GLY:454:N:9021, V-A:ASN:362:CB:3175, V-A:ALA:541:CA:4890, V-A:PRO:540:CB:4885, V-A:PRO:540:CA:4883, V-B:ARG:545:CZ:9897, V-B:ARG:545:CG:9893, H-A:ALA:541:N:4891, H-A:GLU:543:OE1:4909, V-B:ARG:545:CD:9894, V-A:LEU:363:CA:3184, V-A:ASN:362:C:3171, V-A:ASN:362:CA:3173"]

$$$$
1e_Grossjean_2025
     RDKit          3D

 38 39  0  0  0  0  0  0  0  0999 V2000
  131.9760  130.9060   57.5840 C   0  0  0  0  0  0  0  0  0  0  0  0
  132.3860  131.2440   59.0050 C   0  0  0  0  0  0  0  0  0  0  0  0
  133.7050  131.5790   59.3250 C   0  0  0  0  0  0  0  0  0  0  0  0
  134.0090  131.8760   60.6540 C   0  0  0  0  0  0  0  0  0  0  0  0
  133.0020  131.8310   61.6200 C   0  0  0  0  0  0  0  0  0  0  0  0
  131.7000  131.4930   61.2300 C   0  0  0  0  0  0  0  0  0  0  0  0
  130.7310  131.4530   62.2490 N   0  0  0  0  0  0  0  0  0  0  0  0
  129.6610  132.2580   62.4230 C   0  0  0  0  0  0  0  0  0  0  0  0
  129.3600  133.2020   61.6910 O   0  0  0  0  0  0  0  0  0  0  0  0
  128.7980  131.9620   63.6510 C   0  0  0  0  0  0  0  0  0  0  0  0
  127.6080  130.6230   63.3400 S   0  0  0  0  0  0  0  0  0  0  0  0
  126.9530  130.0670   64.9010 C   0  0  0  0  0  0  0  0  0  0  0  0
  127.8940  129.5360   65.7220 N   0  0  0  0  0  0  0  0  0  0  0  0
  127.5160  129.0760   66.9380 C   0  0  0  0  0  0  0  0  0  0  0  0
  128.6220  128.5060   67.8030 C   0  0  0  0  0  0  0  0  0  0  0  0
  126.1940  129.1140   67.3760 C   0  0  0  0  0  0  0  0  0  0  0  0
  125.2110  129.6350   66.5290 C   0  0  0  0  0  0  0  0  0  0  0  0
  123.7670  129.6480   67.0260 C   0  0  0  0  0  0  0  0  0  0  0  0
  125.5830  130.1190   65.2530 C   0  0  0  0  0  0  0  0  0  0  0  0
  124.5580  130.6140   64.3310 C   0  0  0  0  0  0  0  0  0  0  0  0
  123.7470  131.0050   63.6040 N   0  0  0  0  0  0  0  0  0  0  0  0
  131.3960  131.1970   59.9320 N   0  0  0  0  0  0  0  0  0  0  0  0
  131.1274  130.2064   57.6038 H   0  0  0  0  0  0  0  0  0  0  0  0
  131.6804  131.8263   57.0589 H   0  0  0  0  0  0  0  0  0  0  0  0
  132.8230  130.4403   57.0589 H   0  0  0  0  0  0  0  0  0  0  0  0
  134.4836  131.6077   58.5485 H   0  0  0  0  0  0  0  0  0  0  0  0
  135.0370  132.1443   60.9392 H   0  0  0  0  0  0  0  0  0  0  0  0
  133.2280  132.0578   62.6724 H   0  0  0  0  0  0  0  0  0  0  0  0
  130.8990  130.7600   62.9640 H   0  0  0  0  0  0  0  0  0  0  0  0
  129.4540  131.6679   64.4836 H   0  0  0  0  0  0  0  0  0  0  0  0
  128.2299  132.8719   63.8945 H   0  0  0  0  0  0  0  0  0  0  0  0
  128.3634  128.6393   68.8638 H   0  0  0  0  0  0  0  0  0  0  0  0
  128.7413  127.4341   67.5865 H   0  0  0  0  0  0  0  0  0  0  0  0
  129.5642  129.0308   67.5865 H   0  0  0  0  0  0  0  0  0  0  0  0
  125.9270  128.7390   68.3751 H   0  0  0  0  0  0  0  0  0  0  0  0
  123.7578  129.6481   68.1260 H   0  0  0  0  0  0  0  0  0  0  0  0
  123.2596  130.5507   66.6550 H   0  0  0  0  0  0  0  0  0  0  0  0
  123.2435  128.7545   66.6550 H   0  0  0  0  0  0  0  0  0  0  0  0
  1  2  1  0
  2  3  2  0
  3  4  1  0
  4  5  2  0
  5  6  1  0
  6  7  1  0
  7  8  1  0
  8  9  2  0
  8 10  1  0
 10 11  1  0
 11 12  1  0
 12 13  2  0
 13 14  1  0
 14 15  1  0
 14 16  2  0
 16 17  1  0
 17 18  1  0
 17 19  2  0
 19 20  1  0
 20 21  3  0
  6 22  2  0
 22  2  1  0
 19 12  1  0
  1 23  1  0
  1 24  1  0
  1 25  1  0
  3 26  1  0
  4 27  1  0
  5 28  1  0
  7 29  1  0
 10 30  1  0
 10 31  1  0
 15 32  1  0
 15 33  1  0
 15 34  1  0
 16 35  1  0
 18 36  1  0
 18 37  1  0
 18 38  1  0
M  END
>  <Binding energies>  (1) 
[-7.57]

>  <Ligand effiencies>  (1) 
[-0.3291304347826087]

>  <Interactions>  (1) 
["V-B:HIS:456:CE1:9041, V-A:ASP:366:CG:3212, V-A:GLU:543:CD:4908, V-B:GLY:454:CA:9020, V-A:ALA:541:CB:4892, V-A:GLU:543:CG:4907, V-A:GLU:543:CB:4906, V-A:ASP:366:CB:3211, H-B:GLY:454:N:9021, V-A:ASN:362:CB:3175, V-A:PRO:540:CB:4885, V-A:PRO:540:CA:4883, V-B:ARG:545:CZ:9897, V-B:ARG:545:CG:9893, H-A:ALA:541:N:4891, H-A:GLU:543:OE1:4909, V-B:ARG:545:CD:9894, V-A:LEU:363:CA:3184, V-A:LEU:363:CB:3186, V-A:LEU:363:CD1:3188, V-A:ASN:362:C:3171"]

$$$$
1f_Grossjean_2025
     RDKit          3D

 35 36  0  0  0  0  0  0  0  0999 V2000
  128.5600  128.4900   67.8390 C   0  0  0  0  0  0  0  0  0  0  0  0
  127.4630  129.0290   66.9400 C   0  0  0  0  0  0  0  0  0  0  0  0
  126.1380  129.0870   67.3620 C   0  0  0  0  0  0  0  0  0  0  0  0
  125.1670  129.5830   66.4850 C   0  0  0  0  0  0  0  0  0  0  0  0
  123.7170  129.6200   66.9640 C   0  0  0  0  0  0  0  0  0  0  0  0
  125.5560  130.0190   65.1970 C   0  0  0  0  0  0  0  0  0  0  0  0
  124.5460  130.4880   64.2450 C   0  0  0  0  0  0  0  0  0  0  0  0
  123.7480  130.8590   63.4940 N   0  0  0  0  0  0  0  0  0  0  0  0
  126.9290  129.9490   64.8640 C   0  0  0  0  0  0  0  0  0  0  0  0
  127.6040  130.4510   63.2930 S   0  0  0  0  0  0  0  0  0  0  0  0
  128.5510  131.9930   63.5390 C   0  0  0  0  0  0  0  0  0  0  0  0
  129.5110  132.3520   62.3960 C   0  0  0  0  0  0  0  0  0  0  0  0
  129.2920  133.3300   61.6800 O   0  0  0  0  0  0  0  0  0  0  0  0
  130.5530  131.5050   62.2510 N   0  0  0  0  0  0  0  0  0  0  0  0
  131.6130  131.5350   61.3260 C   0  0  0  0  0  0  0  0  0  0  0  0
  131.4950  131.3330   59.9370 C   0  0  0  0  0  0  0  0  0  0  0  0
  132.6350  131.3950   59.1310 C   0  0  0  0  0  0  0  0  0  0  0  0
  133.8660  131.6590   59.7320 C   0  0  0  0  0  0  0  0  0  0  0  0
  134.0060  131.8610   61.0660 N   0  0  0  0  0  0  0  0  0  0  0  0
  132.8890  131.7990   61.8370 C   0  0  0  0  0  0  0  0  0  0  0  0
  127.8580  129.4440   65.7130 N   0  0  0  0  0  0  0  0  0  0  0  0
  128.2736  128.6307   68.8917 H   0  0  0  0  0  0  0  0  0  0  0  0
  128.7048  127.4182   67.6385 H   0  0  0  0  0  0  0  0  0  0  0  0
  129.4969  129.0304   67.6385 H   0  0  0  0  0  0  0  0  0  0  0  0
  125.8582  128.7479   68.3703 H   0  0  0  0  0  0  0  0  0  0  0  0
  123.6941  129.6206   68.0638 H   0  0  0  0  0  0  0  0  0  0  0  0
  123.2293  130.5309   66.5866 H   0  0  0  0  0  0  0  0  0  0  0  0
  123.1835  128.7352   66.5866 H   0  0  0  0  0  0  0  0  0  0  0  0
  127.8342  132.8192   63.6553 H   0  0  0  0  0  0  0  0  0  0  0  0
  129.1776  131.8313   64.4285 H   0  0  0  0  0  0  0  0  0  0  0  0
  130.5790  130.7210   62.8870 H   0  0  0  0  0  0  0  0  0  0  0  0
  130.5114  131.1277   59.4894 H   0  0  0  0  0  0  0  0  0  0  0  0
  132.5631  131.2388   58.0445 H   0  0  0  0  0  0  0  0  0  0  0  0
  134.7624  131.7054   59.0962 H   0  0  0  0  0  0  0  0  0  0  0  0
  132.9929  131.9650   62.9194 H   0  0  0  0  0  0  0  0  0  0  0  0
  1  2  1  0
  2  3  2  0
  3  4  1  0
  4  5  1  0
  4  6  2  0
  6  7  1  0
  7  8  3  0
  6  9  1  0
  9 10  1  0
 10 11  1  0
 11 12  1  0
 12 13  2  0
 12 14  1  0
 14 15  1  0
 15 16  2  0
 16 17  1  0
 17 18  2  0
 18 19  1  0
 19 20  2  0
  9 21  2  0
 21  2  1  0
 20 15  1  0
  1 22  1  0
  1 23  1  0
  1 24  1  0
  3 25  1  0
  5 26  1  0
  5 27  1  0
  5 28  1  0
 11 29  1  0
 11 30  1  0
 14 31  1  0
 16 32  1  0
 17 33  1  0
 18 34  1  0
 20 35  1  0
M  END
>  <Binding energies>  (1) 
[-6.93]

>  <Ligand effiencies>  (1) 
[-0.315]

>  <Interactions>  (1) 
["V-B:HIS:456:CE1:9041, V-A:ASP:366:CG:3212, V-A:GLU:543:CD:4908, V-B:GLY:454:CA:9020, V-A:ALA:541:CB:4892, V-A:GLU:543:CG:4907, V-A:GLU:543:CB:4906, H-B:GLY:454:N:9021, V-A:ASN:362:CB:3175, V-A:PRO:540:CB:4885, V-A:PRO:540:CA:4883, V-B:ARG:545:CZ:9897, V-B:ARG:545:CG:9893, H-A:ALA:541:N:4891, H-A:GLU:543:OE1:4909, V-B:ARG:545:CD:9894, V-A:LEU:363:CA:3184, V-A:LEU:363:CB:3186, V-A:ASN:362:C:3171, H-A:LEU:363:N:3185"]

$$$$
1g_Grossjean_2025
     RDKit          3D

 39 40  0  0  0  0  0  0  0  0999 V2000
  128.9990  126.4920   67.0820 C   0  0  0  0  0  0  0  0  0  0  0  0
  130.1540  126.0230   66.2170 C   0  0  0  0  0  0  0  0  0  0  0  0
  131.4470  125.9130   66.7250 C   0  0  0  0  0  0  0  0  0  0  0  0
  132.4760  125.4910   65.8760 C   0  0  0  0  0  0  0  0  0  0  0  0
  133.8890  125.3920   66.4510 C   0  0  0  0  0  0  0  0  0  0  0  0
  132.1790  125.1780   64.5310 C   0  0  0  0  0  0  0  0  0  0  0  0
  133.2490  124.7840   63.6100 C   0  0  0  0  0  0  0  0  0  0  0  0
  134.0960  124.4740   62.8860 N   0  0  0  0  0  0  0  0  0  0  0  0
  130.8330  125.2940   64.1090 C   0  0  0  0  0  0  0  0  0  0  0  0
  130.2810  124.9320   62.4570 S   0  0  0  0  0  0  0  0  0  0  0  0
  129.8280  123.1730   62.4120 C   0  0  0  0  0  0  0  0  0  0  0  0
  128.3620  122.9680   62.0290 C   0  0  0  0  0  0  0  0  0  0  0  0
  128.0580  122.1340   61.1750 O   0  0  0  0  0  0  0  0  0  0  0  0
  127.4670  123.7430   62.6660 N   0  0  0  0  0  0  0  0  0  0  0  0
  126.0150  123.6760   62.4990 C   0  0  0  0  0  0  0  0  0  0  0  0
  125.5250  124.0640   61.1080 C   0  0  0  0  0  0  0  0  0  0  0  0
  124.2420  123.6930   60.6910 C   0  0  0  0  0  0  0  0  0  0  0  0
  123.7940  124.0480   59.4210 C   0  0  0  0  0  0  0  0  0  0  0  0
  124.6270  124.7770   58.5740 C   0  0  0  0  0  0  0  0  0  0  0  0
  125.9030  125.1530   58.9860 C   0  0  0  0  0  0  0  0  0  0  0  0
  126.3540  124.7980   60.2540 C   0  0  0  0  0  0  0  0  0  0  0  0
  129.8460  125.7270   64.9330 N   0  0  0  0  0  0  0  0  0  0  0  0
  129.2677  126.3829   68.1431 H   0  0  0  0  0  0  0  0  0  0  0  0
  128.7839  127.5487   66.8650 H   0  0  0  0  0  0  0  0  0  0  0  0
  128.1081  125.8844   66.8650 H   0  0  0  0  0  0  0  0  0  0  0  0
  131.6555  126.1543   67.7777 H   0  0  0  0  0  0  0  0  0  0  0  0
  133.8388  125.3955   67.5498 H   0  0  0  0  0  0  0  0  0  0  0  0
  134.3597  124.4587   66.1084 H   0  0  0  0  0  0  0  0  0  0  0  0
  134.4852  126.2506   66.1084 H   0  0  0  0  0  0  0  0  0  0  0  0
  130.4628  122.6617   61.6733 H   0  0  0  0  0  0  0  0  0  0  0  0
  129.9767  122.7582   63.4199 H   0  0  0  0  0  0  0  0  0  0  0  0
  127.8030  124.3870   63.3680 H   0  0  0  0  0  0  0  0  0  0  0  0
  125.6920  122.6444   62.7028 H   0  0  0  0  0  0  0  0  0  0  0  0
  125.5832  124.4054   63.2000 H   0  0  0  0  0  0  0  0  0  0  0  0
  123.5877  123.1214   61.3657 H   0  0  0  0  0  0  0  0  0  0  0  0
  122.7876  123.7545   59.0880 H   0  0  0  0  0  0  0  0  0  0  0  0
  124.2733  125.0579   57.5710 H   0  0  0  0  0  0  0  0  0  0  0  0
  126.5529  125.7292   58.3110 H   0  0  0  0  0  0  0  0  0  0  0  0
  127.3607  125.0943   60.5837 H   0  0  0  0  0  0  0  0  0  0  0  0
  1  2  1  0
  2  3  2  0
  3  4  1  0
  4  5  1  0
  4  6  2  0
  6  7  1  0
  7  8  3  0
  6  9  1  0
  9 10  1  0
 10 11  1  0
 11 12  1  0
 12 13  2  0
 12 14  1  0
 14 15  1  0
 15 16  1  0
 16 17  2  0
 17 18  1  0
 18 19  2  0
 19 20  1  0
 20 21  2  0
  9 22  2  0
 22  2  1  0
 21 16  1  0
  1 23  1  0
  1 24  1  0
  1 25  1  0
  3 26  1  0
  5 27  1  0
  5 28  1  0
  5 29  1  0
 11 30  1  0
 11 31  1  0
 14 32  1  0
 15 33  1  0
 15 34  1  0
 17 35  1  0
 18 36  1  0
 19 37  1  0
 20 38  1  0
 21 39  1  0
M  END
>  <Binding energies>  (1) 
[-6.7]

>  <Ligand effiencies>  (1) 
[-0.29130434782608694]

>  <Interactions>  (1) 
["V-A:ARG:545:CZ:4926, V-B:GLU:543:CD:9879, V-A:HIS:456:CE1:4069, V-B:ALA:541:CB:9863, V-A:ARG:545:CG:4922, V-B:GLU:543:CG:9878, V-B:GLU:543:CB:9877, H-B:GLU:543:OE2:9881, V-B:ALA:541:CA:9861, V-B:PRO:540:CA:9854, H-B:ALA:541:N:9862, H-A:GLY:454:N:4049, V-B:PRO:540:CB:9856, V-A:ARG:545:CD:4923, V-B:LEU:363:CA:8156, V-B:ASN:362:CB:8147, V-B:ASN:362:C:8143, V-B:LEU:363:CB:8158"]

$$$$
1h_Grossjean_2025
     RDKit          3D

 51 52  0  0  0  0  0  0  0  0999 V2000
  128.6170  123.4140   72.9480 C   0  0  0  0  0  0  0  0  0  0  0  0
  127.8650  124.5120   72.4450 O   0  0  0  0  0  0  0  0  0  0  0  0
  128.5280  125.5880   71.8830 C   0  0  0  0  0  0  0  0  0  0  0  0
  128.5990  125.8310   70.5030 C   0  0  0  0  0  0  0  0  0  0  0  0
  129.2990  126.9310   70.0060 C   0  0  0  0  0  0  0  0  0  0  0  0
  129.3490  127.1970   68.5040 C   0  0  0  0  0  0  0  0  0  0  0  0
  129.3160  125.9860   67.6850 N   0  0  0  0  0  0  0  0  0  0  0  0
  130.3580  125.4830   66.9980 C   0  0  0  0  0  0  0  0  0  0  0  0
  131.4840  125.9810   67.0040 O   0  0  0  0  0  0  0  0  0  0  0  0
  130.0870  124.2260   66.1720 C   0  0  0  0  0  0  0  0  0  0  0  0
  129.7740  124.6150   64.4230 S   0  0  0  0  0  0  0  0  0  0  0  0
  130.5880  123.3780   63.4260 C   0  0  0  0  0  0  0  0  0  0  0  0
  129.7710  122.6000   62.6690 N   0  0  0  0  0  0  0  0  0  0  0  0
  130.3240  121.6440   61.8860 C   0  0  0  0  0  0  0  0  0  0  0  0
  129.3480  120.8190   61.0670 C   0  0  0  0  0  0  0  0  0  0  0  0
  131.6980  121.4230   61.8240 C   0  0  0  0  0  0  0  0  0  0  0  0
  132.5490  122.2160   62.6010 C   0  0  0  0  0  0  0  0  0  0  0  0
  134.0520  121.9590   62.5170 C   0  0  0  0  0  0  0  0  0  0  0  0
  131.9930  123.2210   63.4260 C   0  0  0  0  0  0  0  0  0  0  0  0
  132.8600  124.0650   64.2520 C   0  0  0  0  0  0  0  0  0  0  0  0
  133.5460  124.7320   64.9050 N   0  0  0  0  0  0  0  0  0  0  0  0
  129.9050  127.8210   70.8940 C   0  0  0  0  0  0  0  0  0  0  0  0
  129.8450  127.6050   72.2800 C   0  0  0  0  0  0  0  0  0  0  0  0
  130.4220  128.4430   73.2180 O   0  0  0  0  0  0  0  0  0  0  0  0
  130.0910  129.8270   73.2170 C   0  0  0  0  0  0  0  0  0  0  0  0
  129.1620  126.4790   72.7620 C   0  0  0  0  0  0  0  0  0  0  0  0
  129.0900  126.2580   74.1160 O   0  0  0  0  0  0  0  0  0  0  0  0
  130.3030  125.7940   74.6920 C   0  0  0  0  0  0  0  0  0  0  0  0
  128.6036  123.4335   74.0477 H   0  0  0  0  0  0  0  0  0  0  0  0
  128.1734  122.4723   72.5926 H   0  0  0  0  0  0  0  0  0  0  0  0
  129.6554  123.4873   72.5926 H   0  0  0  0  0  0  0  0  0  0  0  0
  128.0966  125.1459   69.8042 H   0  0  0  0  0  0  0  0  0  0  0  0
  128.4843  127.8210   68.2341 H   0  0  0  0  0  0  0  0  0  0  0  0
  130.3091  127.6935   68.3001 H   0  0  0  0  0  0  0  0  0  0  0  0
  128.4230  125.5210   67.6130 H   0  0  0  0  0  0  0  0  0  0  0  0
  130.9620  123.5626   66.2373 H   0  0  0  0  0  0  0  0  0  0  0  0
  129.1879  123.7395   66.5782 H   0  0  0  0  0  0  0  0  0  0  0  0
  128.6849  120.2585   61.7423 H   0  0  0  0  0  0  0  0  0  0  0  0
  128.7461  121.4863   60.4326 H   0  0  0  0  0  0  0  0  0  0  0  0
  129.9057  120.1144   60.4326 H   0  0  0  0  0  0  0  0  0  0  0  0
  132.1078  120.6363   61.1735 H   0  0  0  0  0  0  0  0  0  0  0  0
  134.4691  121.8877   63.5324 H   0  0  0  0  0  0  0  0  0  0  0  0
  134.2334  121.0168   61.9791 H   0  0  0  0  0  0  0  0  0  0  0  0
  134.5361  122.7874   61.9791 H   0  0  0  0  0  0  0  0  0  0  0  0
  130.4357  128.7018   70.5035 H   0  0  0  0  0  0  0  0  0  0  0  0
  130.0055  130.1843   74.2538 H   0  0  0  0  0  0  0  0  0  0  0  0
  130.8793  130.3922   72.6982 H   0  0  0  0  0  0  0  0  0  0  0  0
  129.1323  129.9743   72.6982 H   0  0  0  0  0  0  0  0  0  0  0  0
  130.2233  125.8245   75.7887 H   0  0  0  0  0  0  0  0  0  0  0  0
  130.4915  124.7603   74.3666 H   0  0  0  0  0  0  0  0  0  0  0  0
  131.1333  126.4380   74.3666 H   0  0  0  0  0  0  0  0  0  0  0  0
  1  2  1  0
  2  3  1  0
  3  4  2  0
  4  5  1  0
  5  6  1  0
  6  7  1  0
  7  8  1  0
  8  9  2  0
  8 10  1  0
 10 11  1  0
 11 12  1  0
 12 13  2  0
 13 14  1  0
 14 15  1  0
 14 16  2  0
 16 17  1  0
 17 18  1  0
 17 19  2  0
 19 20  1  0
 20 21  3  0
  5 22  2  0
 22 23  1  0
 23 24  1  0
 24 25  1  0
 23 26  2  0
 26 27  1  0
 27 28  1  0
 26  3  1  0
 19 12  1  0
  1 29  1  0
  1 30  1  0
  1 31  1  0
  4 32  1  0
  6 33  1  0
  6 34  1  0
  7 35  1  0
 10 36  1  0
 10 37  1  0
 15 38  1  0
 15 39  1  0
 15 40  1  0
 16 41  1  0
 18 42  1  0
 18 43  1  0
 18 44  1  0
 22 45  1  0
 25 46  1  0
 25 47  1  0
 25 48  1  0
 28 49  1  0
 28 50  1  0
 28 51  1  0
M  END
>  <Binding energies>  (1) 
[-7.22]

>  <Ligand effiencies>  (1) 
[-0.2489655172413793]

>  <Interactions>  (1) 
["V-B:HIS:456:CE1:9041, V-B:GLU:543:CD:9879, V-A:LEU:475:CD2:4258, V-A:TYR:484:CZ:4346, V-A:ILE:369:CD1:3238, V-A:GLY:454:CA:4048, V-A:HIS:456:CE1:4069, V-B:TYR:539:CD2:9845, V-A:ILE:369:CG2:3236, V-A:HIS:456:CD2:4067, V-B:ALA:541:CB:9863, V-B:GLU:543:CG:9878, V-B:GLU:543:CB:9877, H-B:GLU:543:OE1:9880, H-B:LYS:547:NZ:9922, V-B:LYS:547:CE:9921, H-A:LYS:547:NZ:4951, V-B:PRO:540:C:9852, H-A:TYR:484:OH:4347, V-B:ALA:541:CA:9861, V-A:LYS:547:CE:4950, H-A:GLY:454:N:4049, V-A:TYR:484:CE1:4344"]

$$$$
1i_Grossjean_2025
     RDKit          3D

 32 33  0  0  0  0  0  0  0  0999 V2000
  128.9690  126.3520   67.4520 C   0  0  0  0  0  0  0  0  0  0  0  0
  130.1150  125.9260   66.5540 C   0  0  0  0  0  0  0  0  0  0  0  0
  131.4330  125.9220   67.0050 C   0  0  0  0  0  0  0  0  0  0  0  0
  132.4480  125.5100   66.1350 C   0  0  0  0  0  0  0  0  0  0  0  0
  133.8840  125.4990   66.6570 C   0  0  0  0  0  0  0  0  0  0  0  0
  132.1130  125.1150   64.8190 C   0  0  0  0  0  0  0  0  0  0  0  0
  133.1540  124.6320   63.9080 C   0  0  0  0  0  0  0  0  0  0  0  0
  133.9780  124.2490   63.1900 N   0  0  0  0  0  0  0  0  0  0  0  0
  130.7510  125.1740   64.4400 C   0  0  0  0  0  0  0  0  0  0  0  0
  130.1530  124.7150   62.8280 S   0  0  0  0  0  0  0  0  0  0  0  0
  129.3760  123.0780   62.9750 C   0  0  0  0  0  0  0  0  0  0  0  0
  128.1440  122.9430   62.0760 C   0  0  0  0  0  0  0  0  0  0  0  0
  128.2030  122.2250   61.0770 O   0  0  0  0  0  0  0  0  0  0  0  0
  127.0570  123.6420   62.4680 N   0  0  0  0  0  0  0  0  0  0  0  0
  125.8220  123.7000   61.8380 C   0  0  0  0  0  0  0  0  0  0  0  0
  125.5250  124.6160   60.8300 C   0  0  0  0  0  0  0  0  0  0  0  0
  124.2220  124.3490   60.4780 C   0  0  0  0  0  0  0  0  0  0  0  0
  123.7580  123.3270   61.2350 O   0  0  0  0  0  0  0  0  0  0  0  0
  124.7820  122.9250   62.0950 N   0  0  0  0  0  0  0  0  0  0  0  0
  129.7720  125.5560   65.2970 N   0  0  0  0  0  0  0  0  0  0  0  0
  129.2675  126.2411   68.5049 H   0  0  0  0  0  0  0  0  0  0  0  0
  128.7172  127.4038   67.2511 H   0  0  0  0  0  0  0  0  0  0  0  0
  128.0913  125.7201   67.2511 H   0  0  0  0  0  0  0  0  0  0  0  0
  131.6723  126.2384   68.0310 H   0  0  0  0  0  0  0  0  0  0  0  0
  133.8743  125.4991   67.7570 H   0  0  0  0  0  0  0  0  0  0  0  0
  134.3989  124.5969   66.2949 H   0  0  0  0  0  0  0  0  0  0  0  0
  134.4126  126.3931   66.2949 H   0  0  0  0  0  0  0  0  0  0  0  0
  130.1098  122.3100   62.6890 H   0  0  0  0  0  0  0  0  0  0  0  0
  129.0503  122.9498   64.0178 H   0  0  0  0  0  0  0  0  0  0  0  0
  127.1500  124.2180   63.2930 H   0  0  0  0  0  0  0  0  0  0  0  0
  126.1883  125.3852   60.4077 H   0  0  0  0  0  0  0  0  0  0  0  0
  123.6486  124.8812   59.7047 H   0  0  0  0  0  0  0  0  0  0  0  0
  1  2  1  0
  2  3  2  0
  3  4  1  0
  4  5  1  0
  4  6  2  0
  6  7  1  0
  7  8  3  0
  6  9  1  0
  9 10  1  0
 10 11  1  0
 11 12  1  0
 12 13  2  0
 12 14  1  0
 14 15  1  0
 15 16  1  0
 16 17  2  0
 17 18  1  0
 18 19  1  0
  9 20  2  0
 20  2  1  0
 19 15  2  0
  1 21  1  0
  1 22  1  0
  1 23  1  0
  3 24  1  0
  5 25  1  0
  5 26  1  0
  5 27  1  0
 11 28  1  0
 11 29  1  0
 14 30  1  0
 16 31  1  0
 17 32  1  0
M  END
>  <Binding energies>  (1) 
[-6.65]

>  <Ligand effiencies>  (1) 
[-0.3166666666666667]

>  <Interactions>  (1) 
["V-B:ASP:366:CG:8184, V-A:ARG:545:CZ:4926, V-B:GLU:543:CD:9879, V-A:HIS:456:CE1:4069, V-B:ALA:541:CB:9863, V-A:ARG:545:CG:4922, V-B:GLU:543:CG:9878, V-B:GLU:543:CB:9877, H-B:GLU:543:OE2:9881, V-B:ALA:541:CA:9861, V-B:PRO:540:CA:9854, H-B:ALA:541:N:9862, H-A:GLY:454:N:4049, V-B:PRO:540:CB:9856, V-A:ARG:545:CD:4923, V-B:LEU:363:CA:8156, V-B:ASN:362:CB:8147, V-B:ASN:362:C:8143, H-B:LEU:363:N:8157"]

$$$$
1j_Grossjean_2025
     RDKit          3D

 32 33  0  0  0  0  0  0  0  0999 V2000
  123.3160  135.4470   62.0490 C   0  0  0  0  0  0  0  0  0  0  0  0
  124.7440  134.9750   61.8400 C   0  0  0  0  0  0  0  0  0  0  0  0
  125.8170  135.8620   61.8720 C   0  0  0  0  0  0  0  0  0  0  0  0
  127.1120  135.3680   61.6860 C   0  0  0  0  0  0  0  0  0  0  0  0
  128.2750  136.3590   61.7430 C   0  0  0  0  0  0  0  0  0  0  0  0
  127.2990  133.9860   61.4630 C   0  0  0  0  0  0  0  0  0  0  0  0
  128.6510  133.4390   61.3190 C   0  0  0  0  0  0  0  0  0  0  0  0
  129.7200  133.0110   61.2070 N   0  0  0  0  0  0  0  0  0  0  0  0
  126.1490  133.1620   61.4210 C   0  0  0  0  0  0  0  0  0  0  0  0
  126.1980  131.4040   61.1480 S   0  0  0  0  0  0  0  0  0  0  0  0
  124.5050  130.7690   61.3280 C   0  0  0  0  0  0  0  0  0  0  0  0
  124.0950  130.6350   62.7960 C   0  0  0  0  0  0  0  0  0  0  0  0
  122.9900  131.0450   63.1540 O   0  0  0  0  0  0  0  0  0  0  0  0
  125.0090  130.0570   63.6050 N   0  0  0  0  0  0  0  0  0  0  0  0
  124.8810  129.8280   64.9680 C   0  0  0  0  0  0  0  0  0  0  0  0
  123.7910  129.9060   65.7010 N   0  0  0  0  0  0  0  0  0  0  0  0
  124.0360  129.6210   66.9650 C   0  0  0  0  0  0  0  0  0  0  0  0
  125.3530  129.3000   67.2790 C   0  0  0  0  0  0  0  0  0  0  0  0
  126.3150  129.3780   65.8340 S   0  0  0  0  0  0  0  0  0  0  0  0
  124.8990  133.6470   61.6240 N   0  0  0  0  0  0  0  0  0  0  0  0
  123.1067  135.5162   63.1267 H   0  0  0  0  0  0  0  0  0  0  0  0
  123.1853  136.4361   61.5859 H   0  0  0  0  0  0  0  0  0  0  0  0
  122.6215  134.7306   61.5859 H   0  0  0  0  0  0  0  0  0  0  0  0
  125.6484  136.9358   62.0411 H   0  0  0  0  0  0  0  0  0  0  0  0
  128.5245  136.5716   62.7930 H   0  0  0  0  0  0  0  0  0  0  0  0
  129.1511  135.9256   61.2385 H   0  0  0  0  0  0  0  0  0  0  0  0
  127.9861  137.2928   61.2385 H   0  0  0  0  0  0  0  0  0  0  0  0
  123.8114  131.4607   60.8275 H   0  0  0  0  0  0  0  0  0  0  0  0
  124.4677  129.7684   60.8726 H   0  0  0  0  0  0  0  0  0  0  0  0
  125.8910  129.7850   63.1960 H   0  0  0  0  0  0  0  0  0  0  0  0
  123.2439  129.6362   67.7281 H   0  0  0  0  0  0  0  0  0  0  0  0
  125.7252  129.0389   68.2806 H   0  0  0  0  0  0  0  0  0  0  0  0
  1  2  1  0
  2  3  2  0
  3  4  1  0
  4  5  1  0
  4  6  2  0
  6  7  1  0
  7  8  3  0
  6  9  1  0
  9 10  1  0
 10 11  1  0
 11 12  1  0
 12 13  2  0
 12 14  1  0
 14 15  1  0
 15 16  2  0
 16 17  1  0
 17 18  2  0
 18 19  1  0
  9 20  2  0
 20  2  1  0
 19 15  1  0
  1 21  1  0
  1 22  1  0
  1 23  1  0
  3 24  1  0
  5 25  1  0
  5 26  1  0
  5 27  1  0
 11 28  1  0
 11 29  1  0
 14 30  1  0
 17 31  1  0
 18 32  1  0
M  END
>  <Binding energies>  (1) 
[-6.71]

>  <Ligand effiencies>  (1) 
[-0.31952380952380954]

>  <Interactions>  (1) 
["V-B:ASP:366:CG:8184, V-B:HIS:456:CE1:9041, V-B:GLU:543:CD:9879, V-A:ALA:541:CB:4892, V-B:TRP:381:CZ2:8341, V-B:PRO:482:CB:9297, V-B:PRO:482:CG:9298, V-B:LEU:475:CD1:9229, V-B:ILE:369:CG2:8208, V-B:TRP:381:CH2:8343, V-A:TYR:539:CD2:4874, H-B:GLY:454:N:9021, V-B:SER:385:C:8376, V-A:PRO:540:C:4881, V-A:ALA:541:CA:4890, V-B:SER:385:CA:8378, H-B:ARG:545:NE:9895, V-B:ARG:545:CZ:9897, V-A:TYR:539:C:4867, V-B:ARG:545:CG:9893, H-A:ALA:541:N:4891, V-B:ARG:545:CD:9894"]

$$$$
1k_Grossjean_2025
     RDKit          3D

 50 50  0  0  0  0  0  0  0  0999 V2000
  133.7790  131.8670   60.9660 C   0  0  0  0  0  0  0  0  0  0  0  0
  132.5930  132.5160   61.3930 O   0  0  0  0  0  0  0  0  0  0  0  0
  131.9340  131.8470   62.4600 C   0  0  0  0  0  0  0  0  0  0  0  0
  130.4170  131.8820   62.2280 C   0  0  0  0  0  0  0  0  0  0  0  0
  130.0940  132.9790   61.3820 O   0  0  0  0  0  0  0  0  0  0  0  0
  129.7720  132.5980   60.0510 C   0  0  0  0  0  0  0  0  0  0  0  0
  128.3160  132.1210   59.9960 C   0  0  0  0  0  0  0  0  0  0  0  0
  128.2030  131.0460   59.0710 O   0  0  0  0  0  0  0  0  0  0  0  0
  127.9450  131.4660   57.7380 C   0  0  0  0  0  0  0  0  0  0  0  0
  126.4260  131.4610   57.4800 C   0  0  0  0  0  0  0  0  0  0  0  0
  125.6210  131.1860   58.6710 N   0  0  0  0  0  0  0  0  0  0  0  0
  124.3500  131.5840   58.8560 C   0  0  0  0  0  0  0  0  0  0  0  0
  123.7190  132.2300   58.0180 O   0  0  0  0  0  0  0  0  0  0  0  0
  123.7190  131.1840   60.1990 C   0  0  0  0  0  0  0  0  0  0  0  0
  123.4730  132.5450   61.3930 S   0  0  0  0  0  0  0  0  0  0  0  0
  125.0360  132.9420   62.1630 C   0  0  0  0  0  0  0  0  0  0  0  0
  125.7350  133.9590   61.5960 N   0  0  0  0  0  0  0  0  0  0  0  0
  126.9310  134.3040   62.1250 C   0  0  0  0  0  0  0  0  0  0  0  0
  127.6540  135.4430   61.4320 C   0  0  0  0  0  0  0  0  0  0  0  0
  127.4760  133.6620   63.2350 C   0  0  0  0  0  0  0  0  0  0  0  0
  126.7630  132.6180   63.8320 C   0  0  0  0  0  0  0  0  0  0  0  0
  127.3770  131.9270   65.0470 C   0  0  0  0  0  0  0  0  0  0  0  0
  125.5130  132.2390   63.2930 C   0  0  0  0  0  0  0  0  0  0  0  0
  124.7460  131.1450   63.8960 C   0  0  0  0  0  0  0  0  0  0  0  0
  124.1410  130.2810   64.3730 N   0  0  0  0  0  0  0  0  0  0  0  0
  134.3597  131.5492   61.8445 H   0  0  0  0  0  0  0  0  0  0  0  0
  133.5176  130.9862   60.3611 H   0  0  0  0  0  0  0  0  0  0  0  0
  134.3799  132.5620   60.3611 H   0  0  0  0  0  0  0  0  0  0  0  0
  132.2742  130.8018   62.5030 H   0  0  0  0  0  0  0  0  0  0  0  0
  132.1710  132.3496   63.4094 H   0  0  0  0  0  0  0  0  0  0  0  0
  130.0969  130.9439   61.7510 H   0  0  0  0  0  0  0  0  0  0  0  0
  129.9002  131.9968   63.1922 H   0  0  0  0  0  0  0  0  0  0  0  0
  129.9011  133.4607   59.3809 H   0  0  0  0  0  0  0  0  0  0  0  0
  130.4379  131.7832   59.7307 H   0  0  0  0  0  0  0  0  0  0  0  0
  128.0041  131.7799   60.9942 H   0  0  0  0  0  0  0  0  0  0  0  0
  127.6705  132.9512   59.6735 H   0  0  0  0  0  0  0  0  0  0  0  0
  128.3379  132.4830   57.5920 H   0  0  0  0  0  0  0  0  0  0  0  0
  128.4373  130.7770   57.0359 H   0  0  0  0  0  0  0  0  0  0  0  0
  126.1384  132.4479   57.0883 H   0  0  0  0  0  0  0  0  0  0  0  0
  126.2270  130.6478   56.7665 H   0  0  0  0  0  0  0  0  0  0  0  0
  126.0750  130.6610   59.4050 H   0  0  0  0  0  0  0  0  0  0  0  0
  122.7367  130.7349   59.9908 H   0  0  0  0  0  0  0  0  0  0  0  0
  124.4326  130.4938   60.6727 H   0  0  0  0  0  0  0  0  0  0  0  0
  128.0827  136.1184   62.1870 H   0  0  0  0  0  0  0  0  0  0  0  0
  128.4601  135.0370   60.8032 H   0  0  0  0  0  0  0  0  0  0  0  0
  126.9435  135.9997   60.8032 H   0  0  0  0  0  0  0  0  0  0  0  0
  128.4525  133.9719   63.6356 H   0  0  0  0  0  0  0  0  0  0  0  0
  126.9762  132.3780   65.9668 H   0  0  0  0  0  0  0  0  0  0  0  0
  127.1272  130.8560   65.0248 H   0  0  0  0  0  0  0  0  0  0  0  0
  128.4700  132.0491   65.0248 H   0  0  0  0  0  0  0  0  0  0  0  0
  1  2  1  0
  2  3  1  0
  3  4  1  0
  4  5  1  0
  5  6  1  0
  6  7  1  0
  7  8  1  0
  8  9  1  0
  9 10  1  0
 10 11  1  0
 11 12  1  0
 12 13  2  0
 12 14  1  0
 14 15  1  0
 15 16  1  0
 16 17  2  0
 17 18  1  0
 18 19  1  0
 18 20  2  0
 20 21  1  0
 21 22  1  0
 21 23  2  0
 23 24  1  0
 24 25  3  0
 23 16  1  0
  1 26  1  0
  1 27  1  0
  1 28  1  0
  3 29  1  0
  3 30  1  0
  4 31  1  0
  4 32  1  0
  6 33  1  0
  6 34  1  0
  7 35  1  0
  7 36  1  0
  9 37  1  0
  9 38  1  0
 10 39  1  0
 10 40  1  0
 11 41  1  0
 14 42  1  0
 14 43  1  0
 19 44  1  0
 19 45  1  0
 19 46  1  0
 20 47  1  0
 22 48  1  0
 22 49  1  0
 22 50  1  0
M  END
>  <Binding energies>  (1) 
[-5.33]

>  <Ligand effiencies>  (1) 
[-0.20500000000000002]

>  <Interactions>  (1) 
["V-B:ASP:366:CG:8184, V-A:ASP:366:CG:3212, V-A:GLU:543:CD:4908, V-B:GLY:454:CA:9020, V-A:ALA:541:CB:4892, V-B:ILE:369:CD1:8210, V-A:GLU:543:CG:4907, V-B:LEU:475:CD1:9229, V-A:TYR:539:CE2:4876, V-A:TYR:539:CD2:4874, H-B:GLY:454:N:9021, V-B:ASP:366:CB:8183, H-B:ARG:545:NH2:9899, V-A:ASN:362:CB:3175, V-A:PRO:540:CB:4885, V-A:PRO:540:CA:4883, V-A:TYR:539:C:4867, H-A:ALA:541:N:4891, V-B:ASP:366:CA:8181, V-A:LEU:363:CA:3184, V-A:TYR:539:CZ:4877, V-A:ASN:362:C:3171, H-A:TYR:539:OH:4878, H-B:ASN:370:N:8215"]

$$$$
1l_Grossjean_2025
     RDKit          3D

 30 30  0  0  0  0  0  0  0  0999 V2000
  133.4210  131.8390   61.5020 C   0  0  0  0  0  0  0  0  0  0  0  0
  132.3770  132.6060   62.0860 O   0  0  0  0  0  0  0  0  0  0  0  0
  131.3250  131.7710   62.4590 N   0  0  0  0  0  0  0  0  0  0  0  0
  130.0650  132.1300   62.1500 C   0  0  0  0  0  0  0  0  0  0  0  0
  129.7860  133.0360   61.3600 O   0  0  0  0  0  0  0  0  0  0  0  0
  128.9660  131.3140   62.8450 C   0  0  0  0  0  0  0  0  0  0  0  0
  128.0160  132.2200   64.1130 S   0  0  0  0  0  0  0  0  0  0  0  0
  126.9170  133.3530   63.2810 C   0  0  0  0  0  0  0  0  0  0  0  0
  127.5100  134.4210   62.6860 N   0  0  0  0  0  0  0  0  0  0  0  0
  126.7340  135.3210   62.0370 C   0  0  0  0  0  0  0  0  0  0  0  0
  127.4690  136.4850   61.3990 C   0  0  0  0  0  0  0  0  0  0  0  0
  125.3500  135.1980   61.9520 C   0  0  0  0  0  0  0  0  0  0  0  0
  124.7280  134.1020   62.5590 C   0  0  0  0  0  0  0  0  0  0  0  0
  123.2080  133.9860   62.4520 C   0  0  0  0  0  0  0  0  0  0  0  0
  125.5180  133.1510   63.2420 C   0  0  0  0  0  0  0  0  0  0  0  0
  124.8920  131.9920   63.8880 C   0  0  0  0  0  0  0  0  0  0  0  0
  124.3970  131.0790   64.3960 N   0  0  0  0  0  0  0  0  0  0  0  0
  134.0339  131.3887   62.2968 H   0  0  0  0  0  0  0  0  0  0  0  0
  132.9869  131.0435   60.8786 H   0  0  0  0  0  0  0  0  0  0  0  0
  134.0504  132.4911   60.8786 H   0  0  0  0  0  0  0  0  0  0  0  0
  131.5660  131.1820   63.2440 H   0  0  0  0  0  0  0  0  0  0  0  0
  128.2616  130.9656   62.0753 H   0  0  0  0  0  0  0  0  0  0  0  0
  129.4782  130.4954   63.3718 H   0  0  0  0  0  0  0  0  0  0  0  0
  127.8794  137.1350   62.1858 H   0  0  0  0  0  0  0  0  0  0  0  0
  128.2896  136.1024   60.7743 H   0  0  0  0  0  0  0  0  0  0  0  0
  126.7708  137.0615   60.7743 H   0  0  0  0  0  0  0  0  0  0  0  0
  124.7545  135.9514   61.4156 H   0  0  0  0  0  0  0  0  0  0  0  0
  122.7709  133.9526   63.4609 H   0  0  0  0  0  0  0  0  0  0  0  0
  122.8112  134.8565   61.9091 H   0  0  0  0  0  0  0  0  0  0  0  0
  122.9478  133.0654   61.9091 H   0  0  0  0  0  0  0  0  0  0  0  0
  1  2  1  0
  2  3  1  0
  3  4  1  0
  4  5  2  0
  4  6  1  0
  6  7  1  0
  7  8  1  0
  8  9  2  0
  9 10  1  0
 10 11  1  0
 10 12  2  0
 12 13  1  0
 13 14  1  0
 13 15  2  0
 15 16  1  0
 16 17  3  0
 15  8  1  0
  1 18  1  0
  1 19  1  0
  1 20  1  0
  3 21  1  0
  6 22  1  0
  6 23  1  0
 11 24  1  0
 11 25  1  0
 11 26  1  0
 12 27  1  0
 14 28  1  0
 14 29  1  0
 14 30  1  0
M  END
>  <Binding energies>  (1) 
[-6.03]

>  <Ligand effiencies>  (1) 
[-0.335]

>  <Interactions>  (1) 
["V-A:GLU:543:CD:4908, V-B:GLY:454:CA:9020, V-A:ALA:541:CB:4892, V-B:ILE:369:CD1:8210, V-B:PRO:482:CB:9297, V-B:PRO:482:CG:9298, V-B:LEU:475:CD1:9229, V-B:ILE:369:CG2:8208, V-B:TRP:381:CH2:8343, V-A:TYR:539:CD2:4874, H-B:GLY:454:N:9021, V-A:ASN:362:CB:3175, V-A:PRO:540:CB:4885, V-A:PRO:540:CA:4883, H-A:ALA:541:N:4891, H-A:GLU:543:OE1:4909, V-A:ASN:362:C:3171, V-B:ILE:369:CG1:8209"]

$$$$
1m_Grossjean_2025
     RDKit          3D

 35 35  0  0  0  0  0  0  0  0999 V2000
  133.1190  123.6100   64.2350 C   0  0  0  0  0  0  0  0  0  0  0  0
  133.8660  124.7510   64.6320 O   0  0  0  0  0  0  0  0  0  0  0  0
  133.9370  125.1060   65.9320 C   0  0  0  0  0  0  0  0  0  0  0  0
  134.9610  125.1040   66.6220 O   0  0  0  0  0  0  0  0  0  0  0  0
  132.5590  125.5370   66.4760 C   0  0  0  0  0  0  0  0  0  0  0  0
  131.7820  126.3210   65.5040 N   0  0  0  0  0  0  0  0  0  0  0  0
  130.7710  125.8550   64.7480 C   0  0  0  0  0  0  0  0  0  0  0  0
  130.3910  124.6830   64.7830 O   0  0  0  0  0  0  0  0  0  0  0  0
  130.1120  126.8820   63.8180 C   0  0  0  0  0  0  0  0  0  0  0  0
  129.1480  126.1610   62.4460 S   0  0  0  0  0  0  0  0  0  0  0  0
  130.0330  124.7400   61.8390 C   0  0  0  0  0  0  0  0  0  0  0  0
  131.3330  124.9960   61.5430 N   0  0  0  0  0  0  0  0  0  0  0  0
  132.1060  123.9870   61.0790 C   0  0  0  0  0  0  0  0  0  0  0  0
  133.5510  124.3440   60.7880 C   0  0  0  0  0  0  0  0  0  0  0  0
  131.6190  122.6960   60.8810 C   0  0  0  0  0  0  0  0  0  0  0  0
  130.2740  122.4270   61.1580 C   0  0  0  0  0  0  0  0  0  0  0  0
  129.7590  121.0100   60.9180 C   0  0  0  0  0  0  0  0  0  0  0  0
  129.4470  123.4660   61.6430 C   0  0  0  0  0  0  0  0  0  0  0  0
  128.0250  123.2180   61.8920 C   0  0  0  0  0  0  0  0  0  0  0  0
  126.9020  123.0230   62.0900 N   0  0  0  0  0  0  0  0  0  0  0  0
  132.7674  123.0729   65.1283 H   0  0  0  0  0  0  0  0  0  0  0  0
  132.2541  123.9287   63.6346 H   0  0  0  0  0  0  0  0  0  0  0  0
  133.7570  122.9448   63.6346 H   0  0  0  0  0  0  0  0  0  0  0  0
  131.9866  124.6348   66.7376 H   0  0  0  0  0  0  0  0  0  0  0  0
  132.7348  126.1774   67.3529 H   0  0  0  0  0  0  0  0  0  0  0  0
  132.0530  127.2880   65.3990 H   0  0  0  0  0  0  0  0  0  0  0  0
  129.4358  127.5059   64.4210 H   0  0  0  0  0  0  0  0  0  0  0  0
  130.9309  127.4528   63.3558 H   0  0  0  0  0  0  0  0  0  0  0  0
  134.0935  124.4780   61.7355 H   0  0  0  0  0  0  0  0  0  0  0  0
  134.0192  123.5345   60.2087 H   0  0  0  0  0  0  0  0  0  0  0  0
  133.5883  125.2784   60.2087 H   0  0  0  0  0  0  0  0  0  0  0  0
  132.2826  121.9000   60.5122 H   0  0  0  0  0  0  0  0  0  0  0  0
  129.5796  120.5164   61.8846 H   0  0  0  0  0  0  0  0  0  0  0  0
  128.8190  121.0531   60.3483 H   0  0  0  0  0  0  0  0  0  0  0  0
  130.5073  120.4395   60.3483 H   0  0  0  0  0  0  0  0  0  0  0  0
  1  2  1  0
  2  3  1  0
  3  4  2  0
  3  5  1  0
  5  6  1  0
  6  7  1  0
  7  8  2  0
  7  9  1  0
  9 10  1  0
 10 11  1  0
 11 12  2  0
 12 13  1  0
 13 14  1  0
 13 15  2  0
 15 16  1  0
 16 17  1  0
 16 18  2  0
 18 19  1  0
 19 20  3  0
 18 11  1  0
  1 21  1  0
  1 22  1  0
  1 23  1  0
  5 24  1  0
  5 25  1  0
  6 26  1  0
  9 27  1  0
  9 28  1  0
 14 29  1  0
 14 30  1  0
 14 31  1  0
 15 32  1  0
 17 33  1  0
 17 34  1  0
 17 35  1  0
M  END
>  <Binding energies>  (1) 
[-5.5]

>  <Ligand effiencies>  (1) 
[-0.2619047619047619]

>  <Interactions>  (1) 
["V-A:ARG:545:CZ:4926, V-A:ASP:366:CG:3212, V-A:GLU:543:CD:4908, V-A:ILE:369:CD1:3238, V-A:GLY:454:CA:4048, V-A:HIS:456:CE1:4069, V-B:TYR:539:CD2:9845, V-A:ILE:369:CG2:3236, V-B:TYR:539:CE2:9847, V-A:ILE:369:CB:3235, V-B:ALA:541:CB:9863, H-A:TYR:484:OH:4347, H-B:ALA:541:N:9862, H-A:ARG:545:NE:4924, H-A:GLY:454:N:4049, V-A:ARG:545:CD:4923, H-A:GLU:543:OE1:4909, H-A:GLU:543:OE2:4910, V-A:GLY:453:C:4041, H-A:ILE:455:N:4054"]

$$$$
1n_Grossjean_2025
     RDKit          3D

 48 49  0  0  0  0  0  0  0  0999 V2000
  127.9060  131.8320   72.9910 C   0  0  0  0  0  0  0  0  0  0  0  0
  128.6540  130.7270   72.2400 C   0  0  0  0  0  0  0  0  0  0  0  0
  129.6570  130.1760   73.0850 O   0  0  0  0  0  0  0  0  0  0  0  0
  129.9760  128.8570   73.0280 C   0  0  0  0  0  0  0  0  0  0  0  0
  130.1330  128.1510   74.0280 O   0  0  0  0  0  0  0  0  0  0  0  0
  130.1060  128.3390   71.6240 C   0  0  0  0  0  0  0  0  0  0  0  0
  129.0920  127.5830   71.0150 C   0  0  0  0  0  0  0  0  0  0  0  0
  129.2460  127.1160   69.7130 C   0  0  0  0  0  0  0  0  0  0  0  0
  130.4130  127.3850   68.9970 C   0  0  0  0  0  0  0  0  0  0  0  0
  130.4650  126.8600   67.6910 N   0  0  0  0  0  0  0  0  0  0  0  0
  130.0570  125.6590   67.2260 C   0  0  0  0  0  0  0  0  0  0  0  0
  129.5360  124.7720   67.9020 O   0  0  0  0  0  0  0  0  0  0  0  0
  130.2770  125.4190   65.7270 C   0  0  0  0  0  0  0  0  0  0  0  0
  129.6570  124.0960   65.2280 C   0  0  0  0  0  0  0  0  0  0  0  0
  130.8290  122.7120   65.1120 S   0  0  0  0  0  0  0  0  0  0  0  0
  131.3740  122.6070   63.4210 C   0  0  0  0  0  0  0  0  0  0  0  0
  130.7090  121.6750   62.6930 N   0  0  0  0  0  0  0  0  0  0  0  0
  131.0290  121.5190   61.3870 C   0  0  0  0  0  0  0  0  0  0  0  0
  130.2370  120.4670   60.6350 C   0  0  0  0  0  0  0  0  0  0  0  0
  132.0200  122.2720   60.7610 C   0  0  0  0  0  0  0  0  0  0  0  0
  132.7260  123.2220   61.5080 C   0  0  0  0  0  0  0  0  0  0  0  0
  133.8160  124.0260   60.8040 C   0  0  0  0  0  0  0  0  0  0  0  0
  132.4120  123.3980   62.8750 C   0  0  0  0  0  0  0  0  0  0  0  0
  133.1720  124.3490   63.6880 C   0  0  0  0  0  0  0  0  0  0  0  0
  133.7760  125.1000   64.3300 N   0  0  0  0  0  0  0  0  0  0  0  0
  131.4260  128.1490   69.5960 C   0  0  0  0  0  0  0  0  0  0  0  0
  131.2690  128.6180   70.8970 C   0  0  0  0  0  0  0  0  0  0  0  0
  128.0120  131.6754   74.0746 H   0  0  0  0  0  0  0  0  0  0  0  0
  128.3281  132.8107   72.7189 H   0  0  0  0  0  0  0  0  0  0  0  0
  126.8405  131.8038   72.7189 H   0  0  0  0  0  0  0  0  0  0  0  0
  127.9458  129.9375   71.9482 H   0  0  0  0  0  0  0  0  0  0  0  0
  129.1238  131.1486   71.3392 H   0  0  0  0  0  0  0  0  0  0  0  0
  128.1696  127.3582   71.5705 H   0  0  0  0  0  0  0  0  0  0  0  0
  128.4413  126.5302   69.2447 H   0  0  0  0  0  0  0  0  0  0  0  0
  130.8280  127.5020   67.0030 H   0  0  0  0  0  0  0  0  0  0  0  0
  129.8227  126.2509   65.1689 H   0  0  0  0  0  0  0  0  0  0  0  0
  131.3625  125.3557   65.5608 H   0  0  0  0  0  0  0  0  0  0  0  0
  128.8540  123.8091   65.9229 H   0  0  0  0  0  0  0  0  0  0  0  0
  129.2943  124.2856   64.2070 H   0  0  0  0  0  0  0  0  0  0  0  0
  129.7362  119.8017   61.3538 H   0  0  0  0  0  0  0  0  0  0  0  0
  129.4826  120.9583   60.0029 H   0  0  0  0  0  0  0  0  0  0  0  0
  130.9177  119.8779   60.0029 H   0  0  0  0  0  0  0  0  0  0  0  0
  132.2444  122.1220   59.6946 H   0  0  0  0  0  0  0  0  0  0  0  0
  134.4627  124.5030   61.5551 H   0  0  0  0  0  0  0  0  0  0  0  0
  134.4185  123.3544   60.1748 H   0  0  0  0  0  0  0  0  0  0  0  0
  133.3522  124.8000   60.1748 H   0  0  0  0  0  0  0  0  0  0  0  0
  132.3453  128.3776   69.0368 H   0  0  0  0  0  0  0  0  0  0  0  0
  132.0687  129.2152   71.3595 H   0  0  0  0  0  0  0  0  0  0  0  0
  1  2  1  0
  2  3  1  0
  3  4  1  0
  4  5  2  0
  4  6  1  0
  6  7  2  0
  7  8  1  0
  8  9  2  0
  9 10  1  0
 10 11  1  0
 11 12  2  0
 11 13  1  0
 13 14  1  0
 14 15  1  0
 15 16  1  0
 16 17  2  0
 17 18  1  0
 18 19  1  0
 18 20  2  0
 20 21  1  0
 21 22  1  0
 21 23  2  0
 23 24  1  0
 24 25  3  0
  9 26  1  0
 26 27  2  0
 27  6  1  0
 23 16  1  0
  1 28  1  0
  1 29  1  0
  1 30  1  0
  2 31  1  0
  2 32  1  0
  7 33  1  0
  8 34  1  0
 10 35  1  0
 13 36  1  0
 13 37  1  0
 14 38  1  0
 14 39  1  0
 19 40  1  0
 19 41  1  0
 19 42  1  0
 20 43  1  0
 22 44  1  0
 22 45  1  0
 22 46  1  0
 26 47  1  0
 27 48  1  0
M  END
>  <Binding energies>  (1) 
[-7.54]

>  <Ligand effiencies>  (1) 
[-0.2692857142857143]

>  <Interactions>  (1) 
["V-B:HIS:456:CE1:9041, V-B:GLU:543:CD:9879, V-A:LEU:475:CD2:4258, V-A:GLU:543:CD:4908, V-A:ILE:369:CD1:3238, H-A:ARG:545:NH2:4928, V-A:GLY:454:CA:4048, V-A:HIS:456:CE1:4069, V-B:TYR:539:CD2:9845, V-A:GLU:543:C:4902, V-B:HIS:456:CD2:9039, V-A:ILE:369:CG2:3236, V-B:HIS:456:CG:9037, V-A:GLU:543:CB:4906, V-B:TYR:539:CE2:9847, V-A:ILE:369:CB:3235, V-A:GLY:544:C:4912, V-A:ARG:545:CG:4922, V-B:TYR:484:CD1:9314, V-B:GLU:543:CG:9878, V-B:GLU:543:CB:9877, H-A:LYS:547:NZ:4951, H-A:TYR:484:OH:4347, V-B:HIS:456:CB:9036, H-A:GLY:454:N:4049, V-B:TYR:484:CG:9313, H-A:GLU:543:OE1:4909, H-A:GLU:543:OE2:4910, H-A:ARG:545:NH1:4927, V-A:ILE:369:CG1:3237"]

$$$$
1o_Grossjean_2025
     RDKit          3D

 45 46  0  0  0  0  0  0  0  0999 V2000
  129.4600  129.7750   73.9260 C   0  0  0  0  0  0  0  0  0  0  0  0
  130.1140  128.5160   73.9920 O   0  0  0  0  0  0  0  0  0  0  0  0
  129.5420  127.4030   73.4660 C   0  0  0  0  0  0  0  0  0  0  0  0
  128.9560  126.5530   74.1450 O   0  0  0  0  0  0  0  0  0  0  0  0
  129.6880  127.3070   71.9750 C   0  0  0  0  0  0  0  0  0  0  0  0
  130.6010  128.1020   71.2660 C   0  0  0  0  0  0  0  0  0  0  0  0
  130.7140  127.9860   69.8830 C   0  0  0  0  0  0  0  0  0  0  0  0
  129.9160  127.0830   69.1800 C   0  0  0  0  0  0  0  0  0  0  0  0
  130.1180  127.0420   67.7870 N   0  0  0  0  0  0  0  0  0  0  0  0
  130.0880  125.9900   66.9380 C   0  0  0  0  0  0  0  0  0  0  0  0
  129.8200  124.8310   67.2540 O   0  0  0  0  0  0  0  0  0  0  0  0
  130.3890  126.3190   65.4690 C   0  0  0  0  0  0  0  0  0  0  0  0
  129.6460  125.4040   64.4740 C   0  0  0  0  0  0  0  0  0  0  0  0
  130.2930  125.4800   62.7780 S   0  0  0  0  0  0  0  0  0  0  0  0
  130.9570  123.8810   62.3550 C   0  0  0  0  0  0  0  0  0  0  0  0
  130.0600  123.0690   61.7410 N   0  0  0  0  0  0  0  0  0  0  0  0
  130.4550  121.8300   61.3640 C   0  0  0  0  0  0  0  0  0  0  0  0
  129.4030  120.9850   60.6700 C   0  0  0  0  0  0  0  0  0  0  0  0
  131.7420  121.3490   61.5940 C   0  0  0  0  0  0  0  0  0  0  0  0
  132.6670  122.1680   62.2490 C   0  0  0  0  0  0  0  0  0  0  0  0
  134.0670  121.6130   62.5020 C   0  0  0  0  0  0  0  0  0  0  0  0
  132.2770  123.4650   62.6550 C   0  0  0  0  0  0  0  0  0  0  0  0
  133.2130  124.3140   63.3960 C   0  0  0  0  0  0  0  0  0  0  0  0
  133.9540  124.9840   63.9790 N   0  0  0  0  0  0  0  0  0  0  0  0
  129.0040  126.2810   69.8840 C   0  0  0  0  0  0  0  0  0  0  0  0
  128.8930  126.3970   71.2670 C   0  0  0  0  0  0  0  0  0  0  0  0
  129.2689  130.1428   74.9449 H   0  0  0  0  0  0  0  0  0  0  0  0
  130.0993  130.4927   73.3910 H   0  0  0  0  0  0  0  0  0  0  0  0
  128.5052  129.6646   73.3910 H   0  0  0  0  0  0  0  0  0  0  0  0
  131.2324  128.8224   71.8067 H   0  0  0  0  0  0  0  0  0  0  0  0
  131.4382  128.6113   69.3404 H   0  0  0  0  0  0  0  0  0  0  0  0
  130.2880  127.9440   67.3680 H   0  0  0  0  0  0  0  0  0  0  0  0
  130.0902  127.3599   65.2761 H   0  0  0  0  0  0  0  0  0  0  0  0
  131.4666  126.1615   65.3141 H   0  0  0  0  0  0  0  0  0  0  0  0
  129.7286  124.3664   64.8298 H   0  0  0  0  0  0  0  0  0  0  0  0
  128.6045  125.7556   64.4340 H   0  0  0  0  0  0  0  0  0  0  0  0
  128.7790  120.4838   61.4246 H   0  0  0  0  0  0  0  0  0  0  0  0
  128.7712  121.6296   60.0412 H   0  0  0  0  0  0  0  0  0  0  0  0
  129.8961  120.2291   60.0412 H   0  0  0  0  0  0  0  0  0  0  0  0
  132.0267  120.3387   61.2649 H   0  0  0  0  0  0  0  0  0  0  0  0
  134.2434  121.5431   63.5855 H   0  0  0  0  0  0  0  0  0  0  0  0
  134.1520  120.6131   62.0514 H   0  0  0  0  0  0  0  0  0  0  0  0
  134.8140  122.2830   62.0514 H   0  0  0  0  0  0  0  0  0  0  0  0
  128.3756  125.5592   69.3417 H   0  0  0  0  0  0  0  0  0  0  0  0
  128.1729  125.7669   71.8096 H   0  0  0  0  0  0  0  0  0  0  0  0
  1  2  1  0
  2  3  1  0
  3  4  2  0
  3  5  1  0
  5  6  2  0
  6  7  1  0
  7  8  2  0
  8  9  1  0
  9 10  1  0
 10 11  2  0
 10 12  1  0
 12 13  1  0
 13 14  1  0
 14 15  1  0
 15 16  2  0
 16 17  1  0
 17 18  1  0
 17 19  2  0
 19 20  1  0
 20 21  1  0
 20 22  2  0
 22 23  1  0
 23 24  3  0
  8 25  1  0
 25 26  2  0
 26  5  1  0
 22 15  1  0
  1 27  1  0
  1 28  1  0
  1 29  1  0
  6 30  1  0
  7 31  1  0
  9 32  1  0
 12 33  1  0
 12 34  1  0
 13 35  1  0
 13 36  1  0
 18 37  1  0
 18 38  1  0
 18 39  1  0
 19 40  1  0
 21 41  1  0
 21 42  1  0
 21 43  1  0
 25 44  1  0
 26 45  1  0
M  END
>  <Binding energies>  (1) 
[-7.43]

>  <Ligand effiencies>  (1) 
[-0.2751851851851852]

>  <Interactions>  (1) 
["V-B:HIS:456:CE1:9041, V-B:GLU:543:CD:9879, V-A:LEU:475:CD2:4258, V-A:GLU:543:CD:4908, V-A:ILE:369:CD1:3238, V-A:GLY:454:CA:4048, V-A:HIS:456:CE1:4069, V-B:TYR:539:CD2:9845, V-A:ILE:369:CG2:3236, V-A:GLU:543:CB:4906, V-B:TYR:539:CE2:9847, V-B:ALA:541:CB:9863, V-B:GLU:543:CG:9878, H-B:LYS:547:NZ:9922, H-A:LYS:547:NZ:4951, H-A:TYR:484:OH:4347, V-A:LYS:547:CE:4950, V-B:TYR:539:C:9838, H-A:GLY:454:N:4049, H-A:GLU:543:OE2:4910, H-A:ARG:545:NH1:4927"]

$$$$
1p_Grossjean_2025
     RDKit          3D

 35 36  0  0  0  0  0  0  0  0999 V2000
  128.6520  128.6010   67.7320 C   0  0  0  0  0  0  0  0  0  0  0  0
  127.4720  129.0160   66.8740 C   0  0  0  0  0  0  0  0  0  0  0  0
  126.1900  129.1400   67.4080 C   0  0  0  0  0  0  0  0  0  0  0  0
  125.1370  129.5130   66.5670 C   0  0  0  0  0  0  0  0  0  0  0  0
  123.7380  129.6280   67.1700 C   0  0  0  0  0  0  0  0  0  0  0  0
  125.3990  129.7650   65.2010 C   0  0  0  0  0  0  0  0  0  0  0  0
  124.3060  130.1100   64.2910 C   0  0  0  0  0  0  0  0  0  0  0  0
  123.4400  130.3840   63.5720 N   0  0  0  0  0  0  0  0  0  0  0  0
  126.7340  129.6370   64.7500 C   0  0  0  0  0  0  0  0  0  0  0  0
  127.2380  129.9260   63.0700 S   0  0  0  0  0  0  0  0  0  0  0  0
  127.8320  131.6410   62.9850 C   0  0  0  0  0  0  0  0  0  0  0  0
  129.3160  131.8030   63.3660 C   0  0  0  0  0  0  0  0  0  0  0  0
  130.2230  132.1340   62.1710 C   0  0  0  0  0  0  0  0  0  0  0  0
  129.8670  132.9880   61.3560 O   0  0  0  0  0  0  0  0  0  0  0  0
  131.3860  131.4480   62.1130 N   0  0  0  0  0  0  0  0  0  0  0  0
  132.3780  131.5540   61.1460 C   0  0  0  0  0  0  0  0  0  0  0  0
  132.1490  131.3180   59.7910 C   0  0  0  0  0  0  0  0  0  0  0  0
  133.3640  131.5270   59.1800 C   0  0  0  0  0  0  0  0  0  0  0  0
  134.2780  131.8690   60.1180 O   0  0  0  0  0  0  0  0  0  0  0  0
  133.6410  131.8820   61.3610 N   0  0  0  0  0  0  0  0  0  0  0  0
  127.7460  129.2540   65.5700 N   0  0  0  0  0  0  0  0  0  0  0  0
  128.3838  128.6953   68.7946 H   0  0  0  0  0  0  0  0  0  0  0  0
  128.9160  127.5561   67.5118 H   0  0  0  0  0  0  0  0  0  0  0  0
  129.5119  129.2506   67.5118 H   0  0  0  0  0  0  0  0  0  0  0  0
  126.0095  128.9471   68.4758 H   0  0  0  0  0  0  0  0  0  0  0  0
  123.8102  129.6221   68.2676 H   0  0  0  0  0  0  0  0  0  0  0  0
  123.2718  130.5675   66.8383 H   0  0  0  0  0  0  0  0  0  0  0  0
  123.1247  128.7772   66.8383 H   0  0  0  0  0  0  0  0  0  0  0  0
  127.6962  132.0048   61.9558 H   0  0  0  0  0  0  0  0  0  0  0  0
  127.2479  132.2197   63.7157 H   0  0  0  0  0  0  0  0  0  0  0  0
  129.3997  132.6160   64.1023 H   0  0  0  0  0  0  0  0  0  0  0  0
  129.6534  130.8373   63.7705 H   0  0  0  0  0  0  0  0  0  0  0  0
  131.5620  130.7730   62.8420 H   0  0  0  0  0  0  0  0  0  0  0  0
  131.2016  131.0275   59.3136 H   0  0  0  0  0  0  0  0  0  0  0  0
  133.5610  131.4315   58.1020 H   0  0  0  0  0  0  0  0  0  0  0  0
  1  2  1  0
  2  3  2  0
  3  4  1  0
  4  5  1  0
  4  6  2  0
  6  7  1  0
  7  8  3  0
  6  9  1  0
  9 10  1  0
 10 11  1  0
 11 12  1  0
 12 13  1  0
 13 14  2  0
 13 15  1  0
 15 16  1  0
 16 17  1  0
 17 18  2  0
 18 19  1  0
 19 20  1  0
  9 21  2  0
 21  2  1  0
 20 16  2  0
  1 22  1  0
  1 23  1  0
  1 24  1  0
  3 25  1  0
  5 26  1  0
  5 27  1  0
  5 28  1  0
 11 29  1  0
 11 30  1  0
 12 31  1  0
 12 32  1  0
 15 33  1  0
 17 34  1  0
 18 35  1  0
M  END
>  <Binding energies>  (1) 
[-6.89]

>  <Ligand effiencies>  (1) 
[-0.3131818181818182]

>  <Interactions>  (1) 
["V-B:HIS:456:CE1:9041, V-B:GLU:543:CD:9879, V-A:ASP:366:CG:3212, V-A:GLU:543:CD:4908, V-A:ALA:541:CB:4892, V-A:GLU:543:CG:4907, V-A:GLU:543:CB:4906, H-B:GLY:454:N:9021, H-B:ARG:545:NH2:9899, V-A:PRO:540:CB:4885, V-A:PRO:540:CA:4883, H-B:ARG:545:NH1:9898, V-B:ARG:545:CZ:9897, H-A:ASP:366:OD2:3214, V-B:ARG:545:CG:9893, H-A:ALA:541:N:4891, H-A:GLU:543:OE1:4909, V-B:ARG:545:CD:9894, V-A:LEU:363:CA:3184, V-A:LEU:363:CD1:3188, H-A:LEU:363:N:3185"]

$$$$
1q_Grossjean_2025
     RDKit          3D

 38 38  0  0  0  0  0  0  0  0999 V2000
  133.2600  125.3940   63.4890 C   0  0  0  0  0  0  0  0  0  0  0  0
  133.7330  124.7460   64.6610 O   0  0  0  0  0  0  0  0  0  0  0  0
  133.3480  125.1760   65.8880 C   0  0  0  0  0  0  0  0  0  0  0  0
  134.1060  125.5160   66.7980 O   0  0  0  0  0  0  0  0  0  0  0  0
  131.8190  125.1840   66.1000 C   0  0  0  0  0  0  0  0  0  0  0  0
  131.3640  126.2890   66.9580 N   0  0  0  0  0  0  0  0  0  0  0  0
  130.2050  126.3300   67.6420 C   0  0  0  0  0  0  0  0  0  0  0  0
  129.3770  125.4170   67.6220 O   0  0  0  0  0  0  0  0  0  0  0  0
  129.9650  127.5940   68.4820 C   0  0  0  0  0  0  0  0  0  0  0  0
  130.9820  127.8010   69.6210 C   0  0  0  0  0  0  0  0  0  0  0  0
  130.2310  128.3800   71.1710 S   0  0  0  0  0  0  0  0  0  0  0  0
  130.0880  126.9960   72.2840 C   0  0  0  0  0  0  0  0  0  0  0  0
  130.9090  127.0830   73.3610 N   0  0  0  0  0  0  0  0  0  0  0  0
  130.8910  126.0880   74.2770 C   0  0  0  0  0  0  0  0  0  0  0  0
  131.8490  126.2480   75.4440 C   0  0  0  0  0  0  0  0  0  0  0  0
  130.0550  124.9790   74.1670 C   0  0  0  0  0  0  0  0  0  0  0  0
  129.1860  124.8910   73.0750 C   0  0  0  0  0  0  0  0  0  0  0  0
  128.2650  123.6740   72.9850 C   0  0  0  0  0  0  0  0  0  0  0  0
  129.1850  125.9190   72.1060 C   0  0  0  0  0  0  0  0  0  0  0  0
  128.2420  125.8710   70.9860 C   0  0  0  0  0  0  0  0  0  0  0  0
  127.4950  125.8300   70.1030 N   0  0  0  0  0  0  0  0  0  0  0  0
  132.6333  126.2525   63.7722 H   0  0  0  0  0  0  0  0  0  0  0  0
  134.1156  125.7452   62.8935 H   0  0  0  0  0  0  0  0  0  0  0  0
  132.6647  124.6861   62.8935 H   0  0  0  0  0  0  0  0  0  0  0  0
  131.3295  125.2771   65.1193 H   0  0  0  0  0  0  0  0  0  0  0  0
  131.5516  124.2438   66.6045 H   0  0  0  0  0  0  0  0  0  0  0  0
  131.9760  127.0900   67.0080 H   0  0  0  0  0  0  0  0  0  0  0  0
  130.0141  128.4663   67.8136 H   0  0  0  0  0  0  0  0  0  0  0  0
  128.9801  127.4742   68.9570 H   0  0  0  0  0  0  0  0  0  0  0  0
  131.4860  126.8428   69.8155 H   0  0  0  0  0  0  0  0  0  0  0  0
  131.6819  128.5825   69.2902 H   0  0  0  0  0  0  0  0  0  0  0  0
  131.2941  126.1553   76.3893 H   0  0  0  0  0  0  0  0  0  0  0  0
  132.6214  125.4664   75.3941 H   0  0  0  0  0  0  0  0  0  0  0  0
  132.3255  127.2382   75.3941 H   0  0  0  0  0  0  0  0  0  0  0  0
  130.0782  124.1847   74.9276 H   0  0  0  0  0  0  0  0  0  0  0  0
  128.0073  123.3334   73.9987 H   0  0  0  0  0  0  0  0  0  0  0  0
  127.3464  123.9485   72.4458 H   0  0  0  0  0  0  0  0  0  0  0  0
  128.7787  122.8645   72.4458 H   0  0  0  0  0  0  0  0  0  0  0  0
  1  2  1  0
  2  3  1  0
  3  4  2  0
  3  5  1  0
  5  6  1  0
  6  7  1  0
  7  8  2  0
  7  9  1  0
  9 10  1  0
 10 11  1  0
 11 12  1  0
 12 13  2  0
 13 14  1  0
 14 15  1  0
 14 16  2  0
 16 17  1  0
 17 18  1  0
 17 19  2  0
 19 20  1  0
 20 21  3  0
 19 12  1  0
  1 22  1  0
  1 23  1  0
  1 24  1  0
  5 25  1  0
  5 26  1  0
  6 27  1  0
  9 28  1  0
  9 29  1  0
 10 30  1  0
 10 31  1  0
 15 32  1  0
 15 33  1  0
 15 34  1  0
 16 35  1  0
 18 36  1  0
 18 37  1  0
 18 38  1  0
M  END
>  <Binding energies>  (1) 
[-5.6]

>  <Ligand effiencies>  (1) 
[-0.2545454545454545]

>  <Interactions>  (1) 
["V-B:HIS:456:CE1:9041, V-A:ARG:545:CZ:4926, V-A:TYR:484:CZ:4346, V-A:GLU:543:CD:4908, V-A:GLU:543:CG:4907, V-A:HIS:456:CE1:4069, V-A:HIS:456:CG:4065, V-A:GLU:543:CB:4906, V-A:HIS:456:CD2:4067, V-B:LYS:547:CE:9921, H-A:LYS:547:NZ:4951, H-A:TYR:484:OH:4347, V-A:LYS:547:CE:4950, H-A:ARG:545:NE:4924, H-A:GLY:454:N:4049, V-A:ARG:545:CD:4923, H-A:GLU:543:OE2:4910"]

$$$$
2a_Ghoteimi_2023
     RDKit          3D

 85 90  0  0  0  0  0  0  0  0999 V2000
  136.3760  118.2820   58.2510 C   0  0  0  0  0  0  0  0  0  0  0  0
  135.0210  118.3040   58.9650 C   0  0  0  0  0  0  0  0  0  0  0  0
  135.1120  119.1260   60.1220 O   0  0  0  0  0  0  0  0  0  0  0  0
  134.1840  119.0500   61.1110 C   0  0  0  0  0  0  0  0  0  0  0  0
  133.8920  117.9990   61.6900 O   0  0  0  0  0  0  0  0  0  0  0  0
  133.5550  120.3740   61.4360 C   0  0  0  0  0  0  0  0  0  0  0  0
  134.1750  121.3030   62.2840 C   0  0  0  0  0  0  0  0  0  0  0  0
  133.5650  122.5220   62.5630 C   0  0  0  0  0  0  0  0  0  0  0  0
  132.3280  122.8420   62.0000 C   0  0  0  0  0  0  0  0  0  0  0  0
  131.8020  124.0990   62.3540 N   0  0  0  0  0  0  0  0  0  0  0  0
  132.4100  125.3030   62.4240 C   0  0  0  0  0  0  0  0  0  0  0  0
  133.6080  125.5050   62.2220 O   0  0  0  0  0  0  0  0  0  0  0  0
  131.5000  126.4700   62.8280 C   0  0  0  0  0  0  0  0  0  0  0  0
  129.7450  126.0230   63.0280 S   0  0  0  0  0  0  0  0  0  0  0  0
  129.1470  127.0170   64.3760 C   0  0  0  0  0  0  0  0  0  0  0  0
  128.5120  128.1460   63.9850 N   0  0  0  0  0  0  0  0  0  0  0  0
  128.0180  128.9920   64.9230 C   0  0  0  0  0  0  0  0  0  0  0  0
  127.3370  130.2240   64.4180 C   0  0  0  0  0  0  0  0  0  0  0  0
  125.9850  130.2080   64.0550 C   0  0  0  0  0  0  0  0  0  0  0  0
  125.3590  131.3540   63.5740 C   0  0  0  0  0  0  0  0  0  0  0  0
  126.0590  132.5620   63.4450 C   0  0  0  0  0  0  0  0  0  0  0  0
  125.4240  133.6990   62.9320 N   0  0  0  0  0  0  0  0  0  0  0  0
  124.0330  133.6480   62.4410 C   0  0  0  0  0  0  0  0  0  0  0  0
  123.3860  135.0370   62.2570 C   0  0  0  0  0  0  0  0  0  0  0  0
  124.1940  135.8410   61.4130 O   0  0  0  0  0  0  0  0  0  0  0  0
  125.4860  136.0360   61.9640 C   0  0  0  0  0  0  0  0  0  0  0  0
  126.1980  134.6780   62.1400 C   0  0  0  0  0  0  0  0  0  0  0  0
  127.4180  132.5700   63.7990 C   0  0  0  0  0  0  0  0  0  0  0  0
  128.0430  131.4240   64.2820 C   0  0  0  0  0  0  0  0  0  0  0  0
  128.1430  128.7120   66.2870 C   0  0  0  0  0  0  0  0  0  0  0  0
  128.7970  127.5490   66.7150 C   0  0  0  0  0  0  0  0  0  0  0  0
  128.9000  127.3150   68.1880 C   0  0  0  0  0  0  0  0  0  0  0  0
  129.7590  128.0960   68.9650 C   0  0  0  0  0  0  0  0  0  0  0  0
  129.8760  127.8720   70.3340 C   0  0  0  0  0  0  0  0  0  0  0  0
  129.1370  126.8620   70.9670 C   0  0  0  0  0  0  0  0  0  0  0  0
  129.2540  126.6090   72.3370 N   0  0  0  0  0  0  0  0  0  0  0  0
  129.1480  125.2200   72.8270 C   0  0  0  0  0  0  0  0  0  0  0  0
  129.6780  125.0400   74.2660 C   0  0  0  0  0  0  0  0  0  0  0  0
  129.0150  125.9370   75.1440 O   0  0  0  0  0  0  0  0  0  0  0  0
  129.2220  127.2890   74.7680 C   0  0  0  0  0  0  0  0  0  0  0  0
  128.6850  127.5290   73.3410 C   0  0  0  0  0  0  0  0  0  0  0  0
  128.2860  126.0750   70.1770 C   0  0  0  0  0  0  0  0  0  0  0  0
  128.1700  126.2970   68.8080 C   0  0  0  0  0  0  0  0  0  0  0  0
  129.3130  126.6670   65.7350 C   0  0  0  0  0  0  0  0  0  0  0  0
  129.9570  125.4070   66.1210 C   0  0  0  0  0  0  0  0  0  0  0  0
  130.4670  124.4150   66.4280 N   0  0  0  0  0  0  0  0  0  0  0  0
  131.6980  121.9140   61.1570 C   0  0  0  0  0  0  0  0  0  0  0  0
  132.3100  120.6950   60.8770 C   0  0  0  0  0  0  0  0  0  0  0  0
  137.1837  118.2689   58.9976 H   0  0  0  0  0  0  0  0  0  0  0  0
  136.4441  117.3826   57.6213 H   0  0  0  0  0  0  0  0  0  0  0  0
  136.4733  119.1787   57.6213 H   0  0  0  0  0  0  0  0  0  0  0  0
  134.2549  118.7079   58.2868 H   0  0  0  0  0  0  0  0  0  0  0  0
  134.7440  117.2814   59.2607 H   0  0  0  0  0  0  0  0  0  0  0  0
  135.1513  121.0661   62.7321 H   0  0  0  0  0  0  0  0  0  0  0  0
  134.0614  123.2396   63.2327 H   0  0  0  0  0  0  0  0  0  0  0  0
  130.8270  124.0780   62.6150 H   0  0  0  0  0  0  0  0  0  0  0  0
  131.8631  126.8740   63.7845 H   0  0  0  0  0  0  0  0  0  0  0  0
  131.5457  127.2017   62.0079 H   0  0  0  0  0  0  0  0  0  0  0  0
  125.4090  129.2758   64.1514 H   0  0  0  0  0  0  0  0  0  0  0  0
  124.2971  131.3114   63.2902 H   0  0  0  0  0  0  0  0  0  0  0  0
  124.0267  133.1311   61.4700 H   0  0  0  0  0  0  0  0  0  0  0  0
  123.4433  133.1184   63.2037 H   0  0  0  0  0  0  0  0  0  0  0  0
  122.3910  134.9181   61.8032 H   0  0  0  0  0  0  0  0  0  0  0  0
  123.2927  135.5246   63.2386 H   0  0  0  0  0  0  0  0  0  0  0  0
  126.0773  136.6720   61.2888 H   0  0  0  0  0  0  0  0  0  0  0  0
  125.3890  136.5216   62.9462 H   0  0  0  0  0  0  0  0  0  0  0  0
  126.3817  134.2506   61.1432 H   0  0  0  0  0  0  0  0  0  0  0  0
  127.1295  134.8728   62.6916 H   0  0  0  0  0  0  0  0  0  0  0  0
  127.9987  133.4982   63.6927 H   0  0  0  0  0  0  0  0  0  0  0  0
  129.1065  131.4624   64.5605 H   0  0  0  0  0  0  0  0  0  0  0  0
  127.7255  129.4088   67.0287 H   0  0  0  0  0  0  0  0  0  0  0  0
  130.3481  128.8949   68.4910 H   0  0  0  0  0  0  0  0  0  0  0  0
  130.5587  128.4969   70.9285 H   0  0  0  0  0  0  0  0  0  0  0  0
  128.0896  124.9212   72.8044 H   0  0  0  0  0  0  0  0  0  0  0  0
  129.7686  124.5934   72.1695 H   0  0  0  0  0  0  0  0  0  0  0  0
  129.4949  124.0064   74.5949 H   0  0  0  0  0  0  0  0  0  0  0  0
  130.7574  125.2512   74.2820 H   0  0  0  0  0  0  0  0  0  0  0  0
  128.6925  127.9479   75.4719 H   0  0  0  0  0  0  0  0  0  0  0  0
  130.2997  127.5085   74.7896 H   0  0  0  0  0  0  0  0  0  0  0  0
  127.5928  127.3991   73.3533 H   0  0  0  0  0  0  0  0  0  0  0  0
  128.9799  128.5482   73.0508 H   0  0  0  0  0  0  0  0  0  0  0  0
  127.7015  125.2702   70.6467 H   0  0  0  0  0  0  0  0  0  0  0  0
  127.4977  125.6656   68.2085 H   0  0  0  0  0  0  0  0  0  0  0  0
  130.7182  122.1500   60.7162 H   0  0  0  0  0  0  0  0  0  0  0  0
  131.8113  119.9762   60.2101 H   0  0  0  0  0  0  0  0  0  0  0  0
  1  2  1  0
  2  3  1  0
  3  4  1  0
  4  5  2  0
  4  6  1  0
  6  7  2  0
  7  8  1  0
  8  9  2  0
  9 10  1  0
 10 11  1  0
 11 12  2  0
 11 13  1  0
 13 14  1  0
 14 15  1  0
 15 16  2  0
 16 17  1  0
 17 18  1  0
 18 19  2  0
 19 20  1  0
 20 21  2  0
 21 22  1  0
 22 23  1  0
 23 24  1  0
 24 25  1  0
 25 26  1  0
 26 27  1  0
 21 28  1  0
 28 29  2  0
 17 30  2  0
 30 31  1  0
 31 32  1  0
 32 33  2  0
 33 34  1  0
 34 35  2  0
 35 36  1  0
 36 37  1  0
 37 38  1  0
 38 39  1  0
 39 40  1  0
 40 41  1  0
 35 42  1  0
 42 43  2  0
 31 44  2  0
 44 45  1  0
 45 46  3  0
  9 47  1  0
 47 48  2  0
 48  6  1  0
 44 15  1  0
 29 18  1  0
 43 32  1  0
 27 22  1  0
 41 36  1  0
  1 49  1  0
  1 50  1  0
  1 51  1  0
  2 52  1  0
  2 53  1  0
  7 54  1  0
  8 55  1  0
 10 56  1  0
 13 57  1  0
 13 58  1  0
 19 59  1  0
 20 60  1  0
 23 61  1  0
 23 62  1  0
 24 63  1  0
 24 64  1  0
 26 65  1  0
 26 66  1  0
 27 67  1  0
 27 68  1  0
 28 69  1  0
 29 70  1  0
 30 71  1  0
 33 72  1  0
 34 73  1  0
 37 74  1  0
 37 75  1  0
 38 76  1  0
 38 77  1  0
 40 78  1  0
 40 79  1  0
 41 80  1  0
 41 81  1  0
 42 82  1  0
 43 83  1  0
 47 84  1  0
 48 85  1  0
M  END
>  <Binding energies>  (1) 
[-9.75]

>  <Ligand effiencies>  (1) 
[-0.1989795918367347]

>  <Interactions>  (1) 
["V-B:HIS:456:CE1:9041, V-B:GLU:543:CD:9879, V-A:LEU:475:CD2:4258, V-A:GLU:543:CD:4908, V-A:ILE:369:CD1:3238, V-A:ALA:541:CB:4892, V-B:TRP:381:CZ2:8341, V-B:ILE:369:CD1:8210, V-A:GLU:543:CG:4907, V-B:LEU:475:CD1:9229, V-B:ILE:369:CG2:8208, V-B:TRP:381:CH2:8343, H-A:ARG:545:NH2:4928, V-A:GLY:454:CA:4048, V-A:HIS:456:CE1:4069, V-B:TYR:539:CD2:9845, V-B:HIS:456:CD2:9039, V-A:ILE:369:CG2:3236, V-A:GLU:543:CB:4906, V-B:TYR:539:CE2:9847, V-A:HIS:456:CD2:4067, V-B:GLU:543:CG:9878, V-B:GLU:543:CB:9877, V-B:SER:385:C:8376, H-B:LYS:547:NZ:9922, V-B:LYS:547:CE:9921, V-B:SER:385:CA:8378, H-A:TYR:484:OH:4347, V-A:SER:385:C:3404, V-A:SER:385:CB:3408, V-A:TRP:381:CZ2:3369, V-A:SER:385:CA:3406, V-A:TRP:381:CH2:3371, V-A:VAL:384:CG1:3401, V-A:ILE:369:CA:3233, V-A:VAL:384:C:3396, V-A:ILE:369:CG1:3237, V-A:TRP:381:CZ3:3370, V-A:ILE:369:C:3231"]

$$$$
2a_Grossjean_2025
     RDKit          3D

 45 46  0  0  0  0  0  0  0  0999 V2000
  129.5120  130.2150   73.2500 C   0  0  0  0  0  0  0  0  0  0  0  0
  129.3770  129.0600   74.2470 C   0  0  0  0  0  0  0  0  0  0  0  0
  130.1400  127.9510   73.7880 O   0  0  0  0  0  0  0  0  0  0  0  0
  129.5350  126.8480   73.2770 C   0  0  0  0  0  0  0  0  0  0  0  0
  129.1170  125.9160   73.9720 O   0  0  0  0  0  0  0  0  0  0  0  0
  129.4040  126.8850   71.7810 C   0  0  0  0  0  0  0  0  0  0  0  0
  128.5860  125.9830   71.0850 C   0  0  0  0  0  0  0  0  0  0  0  0
  128.4880  126.0430   69.6980 C   0  0  0  0  0  0  0  0  0  0  0  0
  129.2080  126.9980   68.9790 C   0  0  0  0  0  0  0  0  0  0  0  0
  129.0440  126.9580   67.5820 N   0  0  0  0  0  0  0  0  0  0  0  0
  129.9120  126.5860   66.6160 C   0  0  0  0  0  0  0  0  0  0  0  0
  131.0730  126.2210   66.8010 O   0  0  0  0  0  0  0  0  0  0  0  0
  129.3700  126.6410   65.1840 C   0  0  0  0  0  0  0  0  0  0  0  0
  130.6790  126.6050   63.9150 S   0  0  0  0  0  0  0  0  0  0  0  0
  130.7370  124.9870   63.1530 C   0  0  0  0  0  0  0  0  0  0  0  0
  129.5710  124.5480   62.6140 N   0  0  0  0  0  0  0  0  0  0  0  0
  129.5390  123.3280   62.0320 C   0  0  0  0  0  0  0  0  0  0  0  0
  128.1940  122.8960   61.4780 C   0  0  0  0  0  0  0  0  0  0  0  0
  130.6570  122.5030   61.9540 C   0  0  0  0  0  0  0  0  0  0  0  0
  131.8760  122.9410   62.4970 C   0  0  0  0  0  0  0  0  0  0  0  0
  133.1040  122.0160   62.4010 C   0  0  0  0  0  0  0  0  0  0  0  0
  132.8050  120.9290   61.6910 F   0  0  0  0  0  0  0  0  0  0  0  0
  134.1120  122.6580   61.8090 F   0  0  0  0  0  0  0  0  0  0  0  0
  133.5360  121.6090   63.5970 F   0  0  0  0  0  0  0  0  0  0  0  0
  131.9230  124.2170   63.1130 C   0  0  0  0  0  0  0  0  0  0  0  0
  133.1690  124.7220   63.6990 C   0  0  0  0  0  0  0  0  0  0  0  0
  134.1520  125.1210   64.1610 N   0  0  0  0  0  0  0  0  0  0  0  0
  130.0210  127.9090   69.6680 C   0  0  0  0  0  0  0  0  0  0  0  0
  130.1150  127.8500   71.0560 C   0  0  0  0  0  0  0  0  0  0  0  0
  129.6227  131.1619   73.7987 H   0  0  0  0  0  0  0  0  0  0  0  0
  130.3972  130.0520   72.6177 H   0  0  0  0  0  0  0  0  0  0  0  0
  128.6131  130.2605   72.6177 H   0  0  0  0  0  0  0  0  0  0  0  0
  129.7488  129.3794   75.2318 H   0  0  0  0  0  0  0  0  0  0  0  0
  128.3196  128.7693   74.3331 H   0  0  0  0  0  0  0  0  0  0  0  0
  128.0174  125.2221   71.6398 H   0  0  0  0  0  0  0  0  0  0  0  0
  127.8387  125.3329   69.1650 H   0  0  0  0  0  0  0  0  0  0  0  0
  128.1180  127.2060   67.2690 H   0  0  0  0  0  0  0  0  0  0  0  0
  128.7084  125.7762   65.0277 H   0  0  0  0  0  0  0  0  0  0  0  0
  128.8363  127.5966   65.0743 H   0  0  0  0  0  0  0  0  0  0  0  0
  127.5085  122.6758   62.3096 H   0  0  0  0  0  0  0  0  0  0  0  0
  127.7746  123.7046   60.8614 H   0  0  0  0  0  0  0  0  0  0  0  0
  128.3239  121.9944   60.8614 H   0  0  0  0  0  0  0  0  0  0  0  0
  130.5867  121.5170   61.4715 H   0  0  0  0  0  0  0  0  0  0  0  0
  130.5855  128.6715   69.1113 H   0  0  0  0  0  0  0  0  0  0  0  0
  130.7545  128.5690   71.5890 H   0  0  0  0  0  0  0  0  0  0  0  0
  1  2  1  0
  2  3  1  0
  3  4  1  0
  4  5  2  0
  4  6  1  0
  6  7  2  0
  7  8  1  0
  8  9  2  0
  9 10  1  0
 10 11  1  0
 11 12  2  0
 11 13  1  0
 13 14  1  0
 14 15  1  0
 15 16  2  0
 16 17  1  0
 17 18  1  0
 17 19  2  0
 19 20  1  0
 20 21  1  0
 21 22  1  0
 21 23  1  0
 21 24  1  0
 20 25  2  0
 25 26  1  0
 26 27  3  0
  9 28  1  0
 28 29  2  0
 29  6  1  0
 25 15  1  0
  1 30  1  0
  1 31  1  0
  1 32  1  0
  2 33  1  0
  2 34  1  0
  7 35  1  0
  8 36  1  0
 10 37  1  0
 13 38  1  0
 13 39  1  0
 18 40  1  0
 18 41  1  0
 18 42  1  0
 19 43  1  0
 28 44  1  0
 29 45  1  0
M  END
>  <Binding energies>  (1) 
[-6.46]

>  <Ligand effiencies>  (1) 
[-0.21533333333333332]

>  <Interactions>  (1) 
["V-B:HIS:456:CE1:9041, V-B:GLU:543:CD:9879, V-A:LEU:475:CD2:4258, V-A:GLU:543:CD:4908, V-A:ILE:369:CD1:3238, H-A:ARG:545:NH2:4928, V-A:GLY:454:CA:4048, V-A:HIS:456:CE1:4069, V-A:ILE:369:CG2:3236, V-A:GLU:543:CB:4906, V-A:ILE:369:CB:3235, V-B:ALA:541:CB:9863, V-B:GLU:543:CG:9878, V-B:GLU:543:CB:9877, H-B:GLU:543:OE1:9880, H-B:LYS:547:NZ:9922, H-A:LYS:547:NZ:4951, V-A:LYS:547:CE:4950, H-A:GLY:454:N:4049, H-A:ARG:545:NH1:4927, V-A:ILE:369:CG1:3237"]

$$$$
2aa_Ghoteimi_2023
     RDKit          3D

 85 90  0  0  0  0  0  0  0  0999 V2000
  136.4470  118.7400   58.8150 C   0  0  0  0  0  0  0  0  0  0  0  0
  135.1080  118.0710   59.1380 C   0  0  0  0  0  0  0  0  0  0  0  0
  134.1790  119.0580   59.5660 O   0  0  0  0  0  0  0  0  0  0  0  0
  133.8430  119.1840   60.8760 C   0  0  0  0  0  0  0  0  0  0  0  0
  134.2370  118.4130   61.7580 O   0  0  0  0  0  0  0  0  0  0  0  0
  132.9570  120.3650   61.1500 C   0  0  0  0  0  0  0  0  0  0  0  0
  133.4390  121.5250   61.7750 C   0  0  0  0  0  0  0  0  0  0  0  0
  132.5940  122.6050   62.0120 C   0  0  0  0  0  0  0  0  0  0  0  0
  131.2510  122.5470   61.6370 C   0  0  0  0  0  0  0  0  0  0  0  0
  130.4870  123.6960   61.9200 N   0  0  0  0  0  0  0  0  0  0  0  0
  129.1470  123.8460   62.0020 C   0  0  0  0  0  0  0  0  0  0  0  0
  128.3230  122.9400   61.8610 O   0  0  0  0  0  0  0  0  0  0  0  0
  128.6830  125.2730   62.3200 C   0  0  0  0  0  0  0  0  0  0  0  0
  129.6200  125.8980   63.2040 O   0  0  0  0  0  0  0  0  0  0  0  0
  129.1780  126.7960   64.1660 C   0  0  0  0  0  0  0  0  0  0  0  0
  128.6260  127.9680   63.7430 N   0  0  0  0  0  0  0  0  0  0  0  0
  128.1800  128.8660   64.6580 C   0  0  0  0  0  0  0  0  0  0  0  0
  127.5900  130.1310   64.1200 C   0  0  0  0  0  0  0  0  0  0  0  0
  128.3990  131.0900   63.5020 C   0  0  0  0  0  0  0  0  0  0  0  0
  127.8540  132.2670   62.9940 C   0  0  0  0  0  0  0  0  0  0  0  0
  126.4760  132.5220   63.0740 C   0  0  0  0  0  0  0  0  0  0  0  0
  125.9140  133.7050   62.5800 N   0  0  0  0  0  0  0  0  0  0  0  0
  124.5000  134.0500   62.8330 C   0  0  0  0  0  0  0  0  0  0  0  0
  123.9650  135.1830   61.9330 C   0  0  0  0  0  0  0  0  0  0  0  0
  124.7940  136.3270   62.0490 O   0  0  0  0  0  0  0  0  0  0  0  0
  126.1260  136.0460   61.6460 C   0  0  0  0  0  0  0  0  0  0  0  0
  126.7260  134.9380   62.5380 C   0  0  0  0  0  0  0  0  0  0  0  0
  125.6730  131.5670   63.7130 C   0  0  0  0  0  0  0  0  0  0  0  0
  126.2190  130.3920   64.2230 C   0  0  0  0  0  0  0  0  0  0  0  0
  128.2930  128.6170   66.0290 C   0  0  0  0  0  0  0  0  0  0  0  0
  128.8680  127.4260   66.4900 C   0  0  0  0  0  0  0  0  0  0  0  0
  128.9840  127.2280   67.9670 C   0  0  0  0  0  0  0  0  0  0  0  0
  129.8890  127.9880   68.7110 C   0  0  0  0  0  0  0  0  0  0  0  0
  130.0170  127.7950   70.0840 C   0  0  0  0  0  0  0  0  0  0  0  0
  129.2530  126.8250   70.7500 C   0  0  0  0  0  0  0  0  0  0  0  0
  129.3620  126.6160   72.1280 N   0  0  0  0  0  0  0  0  0  0  0  0
  129.1920  125.2750   72.7180 C   0  0  0  0  0  0  0  0  0  0  0  0
  129.6920  125.1760   74.1750 C   0  0  0  0  0  0  0  0  0  0  0  0
  129.0580  126.1640   74.9730 O   0  0  0  0  0  0  0  0  0  0  0  0
  129.3340  127.4740   74.5010 C   0  0  0  0  0  0  0  0  0  0  0  0
  128.8240  127.6330   73.0540 C   0  0  0  0  0  0  0  0  0  0  0  0
  128.3430  126.0720   69.9960 C   0  0  0  0  0  0  0  0  0  0  0  0
  128.2140  126.2650   68.6240 C   0  0  0  0  0  0  0  0  0  0  0  0
  129.3090  126.4840   65.5310 C   0  0  0  0  0  0  0  0  0  0  0  0
  129.8760  125.1910   65.9210 C   0  0  0  0  0  0  0  0  0  0  0  0
  130.3230  124.1690   66.2290 N   0  0  0  0  0  0  0  0  0  0  0  0
  130.7620  121.3940   61.0050 C   0  0  0  0  0  0  0  0  0  0  0  0
  131.6110  120.3170   60.7660 C   0  0  0  0  0  0  0  0  0  0  0  0
  136.9633  118.9980   59.7514 H   0  0  0  0  0  0  0  0  0  0  0  0
  137.0712  118.0479   58.2308 H   0  0  0  0  0  0  0  0  0  0  0  0
  136.2684  119.6548   58.2308 H   0  0  0  0  0  0  0  0  0  0  0  0
  134.7220  117.5690   58.2386 H   0  0  0  0  0  0  0  0  0  0  0  0
  135.2509  117.3292   59.9376 H   0  0  0  0  0  0  0  0  0  0  0  0
  134.4943  121.5813   62.0804 H   0  0  0  0  0  0  0  0  0  0  0  0
  132.9871  123.5101   62.4980 H   0  0  0  0  0  0  0  0  0  0  0  0
  131.0390  124.5160   62.1290 H   0  0  0  0  0  0  0  0  0  0  0  0
  128.6170  125.8527   61.3875 H   0  0  0  0  0  0  0  0  0  0  0  0
  127.6950  125.2365   62.8021 H   0  0  0  0  0  0  0  0  0  0  0  0
  129.4811  130.9123   63.4159 H   0  0  0  0  0  0  0  0  0  0  0  0
  128.5147  133.0092   62.5222 H   0  0  0  0  0  0  0  0  0  0  0  0
  123.8879  133.1523   62.6613 H   0  0  0  0  0  0  0  0  0  0  0  0
  124.4386  134.4092   63.8709 H   0  0  0  0  0  0  0  0  0  0  0  0
  123.9567  134.8438   60.8866 H   0  0  0  0  0  0  0  0  0  0  0  0
  122.9441  135.4435   62.2490 H   0  0  0  0  0  0  0  0  0  0  0  0
  126.1263  135.7102   60.5985 H   0  0  0  0  0  0  0  0  0  0  0  0
  126.7331  136.9578   61.7461 H   0  0  0  0  0  0  0  0  0  0  0  0
  127.7240  134.6836   62.1517 H   0  0  0  0  0  0  0  0  0  0  0  0
  126.7614  135.3347   63.5634 H   0  0  0  0  0  0  0  0  0  0  0  0
  124.5928  131.7490   63.8133 H   0  0  0  0  0  0  0  0  0  0  0  0
  125.5630  129.6581   64.7141 H   0  0  0  0  0  0  0  0  0  0  0  0
  127.9276  129.3620   66.7511 H   0  0  0  0  0  0  0  0  0  0  0  0
  130.5066  128.7463   68.2076 H   0  0  0  0  0  0  0  0  0  0  0  0
  130.7271  128.4117   70.6545 H   0  0  0  0  0  0  0  0  0  0  0  0
  128.1224  125.0191   72.6987 H   0  0  0  0  0  0  0  0  0  0  0  0
  129.7981  124.5788   72.1197 H   0  0  0  0  0  0  0  0  0  0  0  0
  129.4561  124.1785   74.5743 H   0  0  0  0  0  0  0  0  0  0  0  0
  130.7798  125.3379   74.1957 H   0  0  0  0  0  0  0  0  0  0  0  0
  128.8299  128.2076   75.1474 H   0  0  0  0  0  0  0  0  0  0  0  0
  130.4208  127.6429   74.5209 H   0  0  0  0  0  0  0  0  0  0  0  0
  127.7269  127.5535   73.0601 H   0  0  0  0  0  0  0  0  0  0  0  0
  129.1675  128.6141   72.6943 H   0  0  0  0  0  0  0  0  0  0  0  0
  127.7205  125.3160   70.4969 H   0  0  0  0  0  0  0  0  0  0  0  0
  127.4999  125.6543   68.0520 H   0  0  0  0  0  0  0  0  0  0  0  0
  129.7070  121.3409   60.6981 H   0  0  0  0  0  0  0  0  0  0  0  0
  131.2198  119.4169   60.2693 H   0  0  0  0  0  0  0  0  0  0  0  0
  1  2  1  0
  2  3  1  0
  3  4  1  0
  4  5  2  0
  4  6  1  0
  6  7  2  0
  7  8  1  0
  8  9  2  0
  9 10  1  0
 10 11  1  0
 11 12  2  0
 11 13  1  0
 13 14  1  0
 14 15  1  0
 15 16  2  0
 16 17  1  0
 17 18  1  0
 18 19  2  0
 19 20  1  0
 20 21  2  0
 21 22  1  0
 22 23  1  0
 23 24  1  0
 24 25  1  0
 25 26  1  0
 26 27  1  0
 21 28  1  0
 28 29  2  0
 17 30  2  0
 30 31  1  0
 31 32  1  0
 32 33  2  0
 33 34  1  0
 34 35  2  0
 35 36  1  0
 36 37  1  0
 37 38  1  0
 38 39  1  0
 39 40  1  0
 40 41  1  0
 35 42  1  0
 42 43  2  0
 31 44  2  0
 44 45  1  0
 45 46  3  0
  9 47  1  0
 47 48  2  0
 48  6  1  0
 44 15  1  0
 29 18  1  0
 43 32  1  0
 27 22  1  0
 41 36  1  0
  1 49  1  0
  1 50  1  0
  1 51  1  0
  2 52  1  0
  2 53  1  0
  7 54  1  0
  8 55  1  0
 10 56  1  0
 13 57  1  0
 13 58  1  0
 19 59  1  0
 20 60  1  0
 23 61  1  0
 23 62  1  0
 24 63  1  0
 24 64  1  0
 26 65  1  0
 26 66  1  0
 27 67  1  0
 27 68  1  0
 28 69  1  0
 29 70  1  0
 30 71  1  0
 33 72  1  0
 34 73  1  0
 37 74  1  0
 37 75  1  0
 38 76  1  0
 38 77  1  0
 40 78  1  0
 40 79  1  0
 41 80  1  0
 41 81  1  0
 42 82  1  0
 43 83  1  0
 47 84  1  0
 48 85  1  0
M  END
>  <Binding energies>  (1) 
[-9.51]

>  <Ligand effiencies>  (1) 
[-0.19408163265306122]

>  <Interactions>  (1) 
["V-B:HIS:456:CE1:9041, V-B:GLU:543:CD:9879, V-A:LEU:475:CD2:4258, V-A:GLU:543:CD:4908, V-A:ILE:369:CD1:3238, V-A:ALA:541:CB:4892, V-B:TRP:381:CZ2:8341, V-A:GLU:543:CG:4907, V-B:LEU:475:CD1:9229, V-B:ILE:369:CG2:8208, V-B:TRP:381:CH2:8343, V-A:TYR:539:CD2:4874, V-A:HIS:456:CE1:4069, V-B:TYR:539:CD2:9845, V-B:HIS:456:CD2:9039, V-A:ILE:369:CG2:3236, V-A:GLU:543:CB:4906, V-B:TYR:539:CE2:9847, V-A:ILE:369:CB:3235, V-A:HIS:456:CD2:4067, V-B:GLU:543:CG:9878, V-B:GLU:543:CB:9877, H-B:LYS:547:NZ:9922, V-B:LYS:547:CE:9921, H-A:TYR:484:OH:4347, V-A:SER:385:C:3404, V-A:SER:385:CB:3408, V-A:TRP:381:CZ2:3369, V-A:SER:385:CA:3406, V-A:TRP:381:CH2:3371, H-B:ALA:541:N:9862, V-A:VAL:384:CG1:3401, V-A:ILE:369:CA:3233, V-A:VAL:384:C:3396, V-A:ILE:369:CG1:3237, V-A:TRP:381:CZ3:3370, V-A:ILE:369:C:3231"]

$$$$
2b_Ghoteimi_2023
     RDKit          3D

 72 77  0  0  0  0  0  0  0  0999 V2000
  130.2400  123.9450   66.2330 N   0  0  0  0  0  0  0  0  0  0  0  0
  129.8600  124.9830   65.8890 C   0  0  0  0  0  0  0  0  0  0  0  0
  129.3780  126.2990   65.4600 C   0  0  0  0  0  0  0  0  0  0  0  0
  129.0290  127.2850   66.4160 C   0  0  0  0  0  0  0  0  0  0  0  0
  129.1180  127.0790   67.8920 C   0  0  0  0  0  0  0  0  0  0  0  0
  128.2180  126.2320   68.5410 C   0  0  0  0  0  0  0  0  0  0  0  0
  128.2970  126.0370   69.9170 C   0  0  0  0  0  0  0  0  0  0  0  0
  129.2680  126.6980   70.6850 C   0  0  0  0  0  0  0  0  0  0  0  0
  129.3750  126.5090   72.0640 N   0  0  0  0  0  0  0  0  0  0  0  0
  128.8840  127.5620   72.9740 C   0  0  0  0  0  0  0  0  0  0  0  0
  129.3960  127.4070   74.4220 C   0  0  0  0  0  0  0  0  0  0  0  0
  129.0790  126.1140   74.9170 O   0  0  0  0  0  0  0  0  0  0  0  0
  129.6700  125.0920   74.1290 C   0  0  0  0  0  0  0  0  0  0  0  0
  129.1560  125.1840   72.6780 C   0  0  0  0  0  0  0  0  0  0  0  0
  130.1650  127.5490   70.0250 C   0  0  0  0  0  0  0  0  0  0  0  0
  130.0900  127.7410   68.6480 C   0  0  0  0  0  0  0  0  0  0  0  0
  128.5780  128.5290   65.9580 C   0  0  0  0  0  0  0  0  0  0  0  0
  128.5080  128.7950   64.5870 C   0  0  0  0  0  0  0  0  0  0  0  0
  128.0630  130.1170   64.0470 C   0  0  0  0  0  0  0  0  0  0  0  0
  127.7910  131.1850   64.9080 C   0  0  0  0  0  0  0  0  0  0  0  0
  127.3920  132.4230   64.4110 C   0  0  0  0  0  0  0  0  0  0  0  0
  127.2370  132.6360   63.0320 C   0  0  0  0  0  0  0  0  0  0  0  0
  126.8650  133.8820   62.5160 N   0  0  0  0  0  0  0  0  0  0  0  0
  127.8470  134.6880   61.7610 C   0  0  0  0  0  0  0  0  0  0  0  0
  127.4370  136.1680   61.5980 C   0  0  0  0  0  0  0  0  0  0  0  0
  126.1480  136.2520   61.0090 O   0  0  0  0  0  0  0  0  0  0  0  0
  125.1670  135.6190   61.8130 C   0  0  0  0  0  0  0  0  0  0  0  0
  125.5090  134.1240   61.9870 C   0  0  0  0  0  0  0  0  0  0  0  0
  127.5170  131.5640   62.1720 C   0  0  0  0  0  0  0  0  0  0  0  0
  127.9190  130.3280   62.6700 C   0  0  0  0  0  0  0  0  0  0  0  0
  128.8450  127.8500   63.6730 N   0  0  0  0  0  0  0  0  0  0  0  0
  129.2510  126.6280   64.0910 C   0  0  0  0  0  0  0  0  0  0  0  0
  129.6460  125.5140   62.7610 S   0  0  0  0  0  0  0  0  0  0  0  0
  128.9050  123.9020   63.1570 C   0  0  0  0  0  0  0  0  0  0  0  0
  127.8260  123.5030   62.1500 C   0  0  0  0  0  0  0  0  0  0  0  0
  127.9980  122.5090   61.4420 O   0  0  0  0  0  0  0  0  0  0  0  0
  126.7380  124.3030   62.1150 N   0  0  0  0  0  0  0  0  0  0  0  0
  125.6170  124.1650   61.3090 C   0  0  0  0  0  0  0  0  0  0  0  0
  125.5260  124.7130   60.0310 C   0  0  0  0  0  0  0  0  0  0  0  0
  124.2790  124.3560   59.5760 C   0  0  0  0  0  0  0  0  0  0  0  0
  123.6500  123.6310   60.5310 O   0  0  0  0  0  0  0  0  0  0  0  0
  124.5090  123.5140   61.6260 N   0  0  0  0  0  0  0  0  0  0  0  0
  127.4401  125.7145   67.9604 H   0  0  0  0  0  0  0  0  0  0  0  0
  127.5882  125.3550   70.4095 H   0  0  0  0  0  0  0  0  0  0  0  0
  129.2153  128.5379   72.5894 H   0  0  0  0  0  0  0  0  0  0  0  0
  127.7876  127.4789   73.0061 H   0  0  0  0  0  0  0  0  0  0  0  0
  130.4871  127.5453   74.4387 H   0  0  0  0  0  0  0  0  0  0  0  0
  128.9126  128.1638   75.0573 H   0  0  0  0  0  0  0  0  0  0  0  0
  130.7634  125.2118   74.1368 H   0  0  0  0  0  0  0  0  0  0  0  0
  129.4002  124.1109   74.5471 H   0  0  0  0  0  0  0  0  0  0  0  0
  129.6791  124.4283   72.0736 H   0  0  0  0  0  0  0  0  0  0  0  0
  128.0697  125.0131   72.7056 H   0  0  0  0  0  0  0  0  0  0  0  0
  130.9399  128.0731   70.6036 H   0  0  0  0  0  0  0  0  0  0  0  0
  130.8005  128.4183   68.1515 H   0  0  0  0  0  0  0  0  0  0  0  0
  128.2770  129.3015   66.6809 H   0  0  0  0  0  0  0  0  0  0  0  0
  127.8938  131.0449   65.9942 H   0  0  0  0  0  0  0  0  0  0  0  0
  127.1948  133.2484   65.1109 H   0  0  0  0  0  0  0  0  0  0  0  0
  128.8096  134.6502   62.2920 H   0  0  0  0  0  0  0  0  0  0  0  0
  127.9094  134.2573   60.7507 H   0  0  0  0  0  0  0  0  0  0  0  0
  127.4186  136.6519   62.5857 H   0  0  0  0  0  0  0  0  0  0  0  0
  128.1651  136.6752   60.9479 H   0  0  0  0  0  0  0  0  0  0  0  0
  125.1379  136.1030   62.8004 H   0  0  0  0  0  0  0  0  0  0  0  0
  124.1863  135.7097   61.3231 H   0  0  0  0  0  0  0  0  0  0  0  0
  124.7811  133.6801   62.6820 H   0  0  0  0  0  0  0  0  0  0  0  0
  125.4684  133.6671   60.9872 H   0  0  0  0  0  0  0  0  0  0  0  0
  127.4172  131.7024   61.0853 H   0  0  0  0  0  0  0  0  0  0  0  0
  128.1268  129.5042   61.9713 H   0  0  0  0  0  0  0  0  0  0  0  0
  129.6956  123.1372   63.1517 H   0  0  0  0  0  0  0  0  0  0  0  0
  128.4324  123.9801   64.1472 H   0  0  0  0  0  0  0  0  0  0  0  0
  126.7140  125.0790   62.7600 H   0  0  0  0  0  0  0  0  0  0  0  0
  126.2876  125.3037   59.5008 H   0  0  0  0  0  0  0  0  0  0  0  0
  123.8593  124.6174   58.5934 H   0  0  0  0  0  0  0  0  0  0  0  0
  1  2  3  0
  2  3  1  0
  3  4  2  0
  4  5  1  0
  5  6  2  0
  6  7  1  0
  7  8  2  0
  8  9  1  0
  9 10  1  0
 10 11  1  0
 11 12  1  0
 12 13  1  0
 13 14  1  0
  8 15  1  0
 15 16  2  0
  4 17  1  0
 17 18  2  0
 18 19  1  0
 19 20  2  0
 20 21  1  0
 21 22  2  0
 22 23  1  0
 23 24  1  0
 24 25  1  0
 25 26  1  0
 26 27  1  0
 27 28  1  0
 22 29  1  0
 29 30  2  0
 18 31  1  0
 31 32  2  0
 32 33  1  0
 33 34  1  0
 34 35  1  0
 35 36  2  0
 35 37  1  0
 37 38  1  0
 38 39  1  0
 39 40  2  0
 40 41  1  0
 41 42  1  0
 32  3  1  0
 42 38  2  0
 16  5  1  0
 30 19  1  0
 14  9  1  0
 28 23  1  0
  6 43  1  0
  7 44  1  0
 10 45  1  0
 10 46  1  0
 11 47  1  0
 11 48  1  0
 13 49  1  0
 13 50  1  0
 14 51  1  0
 14 52  1  0
 15 53  1  0
 16 54  1  0
 17 55  1  0
 20 56  1  0
 21 57  1  0
 24 58  1  0
 24 59  1  0
 25 60  1  0
 25 61  1  0
 27 62  1  0
 27 63  1  0
 28 64  1  0
 28 65  1  0
 29 66  1  0
 30 67  1  0
 34 68  1  0
 34 69  1  0
 37 70  1  0
 39 71  1  0
 40 72  1  0
M  END
>  <Binding energies>  (1) 
[-10.3]

>  <Ligand effiencies>  (1) 
[-0.23953488372093024]

>  <Interactions>  (1) 
["V-B:ASP:366:CG:8184, V-B:HIS:456:CE1:9041, V-B:GLU:543:CD:9879, V-A:GLU:543:CD:4908, V-A:ALA:541:CB:4892, V-B:TRP:381:CZ2:8341, V-A:GLU:543:CG:4907, V-B:PRO:482:CB:9297, V-B:PRO:482:CG:9298, V-B:LEU:475:CD1:9229, V-B:TRP:381:CH2:8343, V-A:TYR:539:CD2:4874, V-A:HIS:456:CE1:4069, V-B:HIS:456:CD2:9039, V-A:GLU:543:CB:4906, V-A:HIS:456:CD2:4067, V-B:ALA:541:CB:9863, V-B:GLU:543:CG:9878, V-B:GLU:543:CB:9877, H-B:GLU:543:OE2:9881, H-B:LYS:547:NZ:9922, V-B:LYS:547:CE:9921, H-A:TYR:484:OH:4347, H-B:ALA:541:N:9862, V-B:PRO:540:CB:9856, V-B:LEU:363:CA:8156, V-B:ASN:362:C:8143, H-B:LEU:363:N:8157"]

$$$$
2b_Grossjean_2025
     RDKit          3D

 42 43  0  0  0  0  0  0  0  0999 V2000
  127.5010  136.6850   61.3900 C   0  0  0  0  0  0  0  0  0  0  0  0
  127.0840  135.4230   60.8890 O   0  0  0  0  0  0  0  0  0  0  0  0
  125.8290  134.9580   61.1210 C   0  0  0  0  0  0  0  0  0  0  0  0
  124.8450  135.2940   60.4540 O   0  0  0  0  0  0  0  0  0  0  0  0
  125.7570  133.9980   62.2720 C   0  0  0  0  0  0  0  0  0  0  0  0
  126.9090  133.5000   62.8970 C   0  0  0  0  0  0  0  0  0  0  0  0
  126.8070  132.6080   63.9620 C   0  0  0  0  0  0  0  0  0  0  0  0
  125.5570  132.2020   64.4260 C   0  0  0  0  0  0  0  0  0  0  0  0
  125.5680  131.2940   65.5030 N   0  0  0  0  0  0  0  0  0  0  0  0
  124.7860  130.2170   65.7310 C   0  0  0  0  0  0  0  0  0  0  0  0
  123.8630  129.8410   65.0080 O   0  0  0  0  0  0  0  0  0  0  0  0
  125.1010  129.4430   67.0150 C   0  0  0  0  0  0  0  0  0  0  0  0
  126.8480  129.5710   67.5200 S   0  0  0  0  0  0  0  0  0  0  0  0
  127.8810  128.6630   66.3770 C   0  0  0  0  0  0  0  0  0  0  0  0
  127.8720  129.1070   65.0950 N   0  0  0  0  0  0  0  0  0  0  0  0
  128.6270  128.4650   64.1750 C   0  0  0  0  0  0  0  0  0  0  0  0
  128.5520  129.0150   62.7640 C   0  0  0  0  0  0  0  0  0  0  0  0
  129.4220  127.3670   64.4900 C   0  0  0  0  0  0  0  0  0  0  0  0
  129.4520  126.8950   65.8110 C   0  0  0  0  0  0  0  0  0  0  0  0
  130.3410  125.6820   66.1450 C   0  0  0  0  0  0  0  0  0  0  0  0
  130.8870  125.1960   65.0290 F   0  0  0  0  0  0  0  0  0  0  0  0
  131.3160  126.0440   66.9800 F   0  0  0  0  0  0  0  0  0  0  0  0
  129.6640  124.6890   66.7260 F   0  0  0  0  0  0  0  0  0  0  0  0
  128.6600  127.5550   66.7860 C   0  0  0  0  0  0  0  0  0  0  0  0
  128.6490  127.1010   68.1790 C   0  0  0  0  0  0  0  0  0  0  0  0
  128.6400  126.7420   69.2800 N   0  0  0  0  0  0  0  0  0  0  0  0
  124.3990  132.6890   63.8020 C   0  0  0  0  0  0  0  0  0  0  0  0
  124.5030  133.5790   62.7370 C   0  0  0  0  0  0  0  0  0  0  0  0
  127.4939  136.6634   62.4898 H   0  0  0  0  0  0  0  0  0  0  0  0
  128.5188  136.9027   61.0341 H   0  0  0  0  0  0  0  0  0  0  0  0
  126.8132  137.4662   61.0341 H   0  0  0  0  0  0  0  0  0  0  0  0
  127.9015  133.8163   62.5434 H   0  0  0  0  0  0  0  0  0  0  0  0
  127.7191  132.2214   64.4401 H   0  0  0  0  0  0  0  0  0  0  0  0
  126.2330  131.5210   66.2270 H   0  0  0  0  0  0  0  0  0  0  0  0
  124.4726  129.8402   67.8258 H   0  0  0  0  0  0  0  0  0  0  0  0
  124.8952  128.3810   66.8155 H   0  0  0  0  0  0  0  0  0  0  0  0
  128.4035  130.1042   62.8025 H   0  0  0  0  0  0  0  0  0  0  0  0
  129.4890  128.7912   62.2330 H   0  0  0  0  0  0  0  0  0  0  0  0
  127.7092  128.5485   62.2330 H   0  0  0  0  0  0  0  0  0  0  0  0
  130.0213  126.8737   63.7106 H   0  0  0  0  0  0  0  0  0  0  0  0
  123.4080  132.3673   64.1546 H   0  0  0  0  0  0  0  0  0  0  0  0
  123.5901  133.9581   62.2545 H   0  0  0  0  0  0  0  0  0  0  0  0
  1  2  1  0
  2  3  1  0
  3  4  2  0
  3  5  1  0
  5  6  2  0
  6  7  1  0
  7  8  2  0
  8  9  1  0
  9 10  1  0
 10 11  2  0
 10 12  1  0
 12 13  1  0
 13 14  1  0
 14 15  2  0
 15 16  1  0
 16 17  1  0
 16 18  2  0
 18 19  1  0
 19 20  1  0
 20 21  1  0
 20 22  1  0
 20 23  1  0
 19 24  2  0
 24 25  1  0
 25 26  3  0
  8 27  1  0
 27 28  2  0
 28  5  1  0
 24 14  1  0
  1 29  1  0
  1 30  1  0
  1 31  1  0
  6 32  1  0
  7 33  1  0
  9 34  1  0
 12 35  1  0
 12 36  1  0
 17 37  1  0
 17 38  1  0
 17 39  1  0
 18 40  1  0
 27 41  1  0
 28 42  1  0
M  END
>  <Binding energies>  (1) 
[-6.21]

>  <Ligand effiencies>  (1) 
[-0.21413793103448275]

>  <Interactions>  (1) 
["V-B:HIS:456:CE1:9041, V-B:GLU:543:CD:9879, V-A:GLU:543:CD:4908, V-B:GLY:454:CA:9020, V-A:ALA:541:CB:4892, V-A:GLU:543:CG:4907, V-B:PRO:482:CB:9297, V-B:PRO:482:CG:9298, V-B:LEU:475:CD1:9229, V-B:TRP:381:CH2:8343, V-A:TYR:539:CE2:4876, V-A:TYR:539:CD2:4874, V-A:HIS:456:CE1:4069, V-B:GLU:543:CG:9878, V-B:GLU:543:CB:9877, H-B:GLY:454:N:9021, H-B:ARG:545:NH2:9899, H-B:TYR:484:OH:9319, H-B:ARG:545:NE:9895, H-B:ARG:545:NH1:9898, H-B:HIS:456:ND1:9038, V-B:ARG:545:CZ:9897, V-B:ARG:545:CG:9893, V-B:ARG:545:CD:9894, V-A:TYR:484:CE1:4344"]

$$$$
2c_Ghoteimi_2023
     RDKit          3D

 72 77  0  0  0  0  0  0  0  0999 V2000
  130.3810  124.2590   66.3540 N   0  0  0  0  0  0  0  0  0  0  0  0
  129.8850  125.2550   66.0410 C   0  0  0  0  0  0  0  0  0  0  0  0
  129.2570  126.5210   65.6490 C   0  0  0  0  0  0  0  0  0  0  0  0
  128.8210  127.4450   66.6310 C   0  0  0  0  0  0  0  0  0  0  0  0
  128.9540  127.2200   68.1020 C   0  0  0  0  0  0  0  0  0  0  0  0
  129.8530  127.9810   68.8510 C   0  0  0  0  0  0  0  0  0  0  0  0
  129.9790  127.7810   70.2230 C   0  0  0  0  0  0  0  0  0  0  0  0
  129.2200  126.8020   70.8830 C   0  0  0  0  0  0  0  0  0  0  0  0
  129.3160  126.5980   72.2610 N   0  0  0  0  0  0  0  0  0  0  0  0
  128.6960  127.5720   73.1810 C   0  0  0  0  0  0  0  0  0  0  0  0
  129.2000  127.4440   74.6340 C   0  0  0  0  0  0  0  0  0  0  0  0
  129.0090  126.1170   75.1000 O   0  0  0  0  0  0  0  0  0  0  0  0
  129.7170  125.1760   74.3070 C   0  0  0  0  0  0  0  0  0  0  0  0
  129.2280  125.2450   72.8450 C   0  0  0  0  0  0  0  0  0  0  0  0
  128.3220  126.0400   70.1210 C   0  0  0  0  0  0  0  0  0  0  0  0
  128.1950  126.2420   68.7500 C   0  0  0  0  0  0  0  0  0  0  0  0
  128.2310  128.6420   66.2060 C   0  0  0  0  0  0  0  0  0  0  0  0
  128.1020  128.9220   64.8420 C   0  0  0  0  0  0  0  0  0  0  0  0
  127.4950  130.1920   64.3370 C   0  0  0  0  0  0  0  0  0  0  0  0
  128.2930  131.1870   63.7640 C   0  0  0  0  0  0  0  0  0  0  0  0
  127.7330  132.3690   63.2860 C   0  0  0  0  0  0  0  0  0  0  0  0
  126.3520  132.6060   63.3760 C   0  0  0  0  0  0  0  0  0  0  0  0
  125.7700  133.7760   62.8790 N   0  0  0  0  0  0  0  0  0  0  0  0
  126.5680  134.6960   62.0410 C   0  0  0  0  0  0  0  0  0  0  0  0
  125.9410  136.0980   61.8920 C   0  0  0  0  0  0  0  0  0  0  0  0
  124.6160  135.9880   61.3990 O   0  0  0  0  0  0  0  0  0  0  0  0
  123.7940  135.2400   62.2810 C   0  0  0  0  0  0  0  0  0  0  0  0
  124.3580  133.8130   62.4470 C   0  0  0  0  0  0  0  0  0  0  0  0
  125.5540  131.6000   63.9400 C   0  0  0  0  0  0  0  0  0  0  0  0
  126.1160  130.4170   64.4150 C   0  0  0  0  0  0  0  0  0  0  0  0
  128.5230  128.0370   63.9030 N   0  0  0  0  0  0  0  0  0  0  0  0
  129.0680  126.8590   64.2890 C   0  0  0  0  0  0  0  0  0  0  0  0
  129.5520  125.8180   62.9310 S   0  0  0  0  0  0  0  0  0  0  0  0
  128.8390  124.1710   63.2250 C   0  0  0  0  0  0  0  0  0  0  0  0
  127.8290  123.7810   62.1440 C   0  0  0  0  0  0  0  0  0  0  0  0
  127.8690  122.6490   61.6610 O   0  0  0  0  0  0  0  0  0  0  0  0
  126.9510  124.7450   61.7930 N   0  0  0  0  0  0  0  0  0  0  0  0
  125.9330  124.6380   60.8570 C   0  0  0  0  0  0  0  0  0  0  0  0
  125.9540  125.0060   59.5950 N   0  0  0  0  0  0  0  0  0  0  0  0
  124.8090  124.7490   58.9950 C   0  0  0  0  0  0  0  0  0  0  0  0
  123.8230  124.1580   59.7790 C   0  0  0  0  0  0  0  0  0  0  0  0
  124.4410  123.9300   61.3880 S   0  0  0  0  0  0  0  0  0  0  0  0
  130.4673  128.7455   68.3528 H   0  0  0  0  0  0  0  0  0  0  0  0
  130.6838  128.3993   70.7983 H   0  0  0  0  0  0  0  0  0  0  0  0
  128.9228  128.5862   72.8206 H   0  0  0  0  0  0  0  0  0  0  0  0
  127.6150  127.3685   73.1915 H   0  0  0  0  0  0  0  0  0  0  0  0
  130.2710  127.6923   74.6711 H   0  0  0  0  0  0  0  0  0  0  0  0
  128.6336  128.1361   75.2744 H   0  0  0  0  0  0  0  0  0  0  0  0
  130.7923  125.4051   74.3428 H   0  0  0  0  0  0  0  0  0  0  0  0
  129.5381  124.1645   74.7006 H   0  0  0  0  0  0  0  0  0  0  0  0
  129.8426  124.5630   72.2391 H   0  0  0  0  0  0  0  0  0  0  0  0
  128.1658  124.9591   72.8438 H   0  0  0  0  0  0  0  0  0  0  0  0
  127.7091  125.2714   70.6145 H   0  0  0  0  0  0  0  0  0  0  0  0
  127.4908  125.6263   68.1712 H   0  0  0  0  0  0  0  0  0  0  0  0
  127.8669  129.3662   66.9496 H   0  0  0  0  0  0  0  0  0  0  0  0
  129.3797  131.0337   63.6897 H   0  0  0  0  0  0  0  0  0  0  0  0
  128.3836  133.1299   62.8302 H   0  0  0  0  0  0  0  0  0  0  0  0
  127.5629  134.8068   62.4969 H   0  0  0  0  0  0  0  0  0  0  0  0
  126.6154  134.2556   61.0341 H   0  0  0  0  0  0  0  0  0  0  0  0
  125.9243  136.5955   62.8729 H   0  0  0  0  0  0  0  0  0  0  0  0
  126.5414  136.6881   61.1839 H   0  0  0  0  0  0  0  0  0  0  0  0
  123.7660  135.7369   63.2620 H   0  0  0  0  0  0  0  0  0  0  0  0
  122.7781  135.1800   61.8636 H   0  0  0  0  0  0  0  0  0  0  0  0
  123.7517  133.2858   63.1983 H   0  0  0  0  0  0  0  0  0  0  0  0
  124.3132  133.3340   61.4578 H   0  0  0  0  0  0  0  0  0  0  0  0
  124.4661  131.7475   64.0085 H   0  0  0  0  0  0  0  0  0  0  0  0
  125.4659  129.6482   64.8581 H   0  0  0  0  0  0  0  0  0  0  0  0
  129.6513  123.4294   63.2359 H   0  0  0  0  0  0  0  0  0  0  0  0
  128.3105  124.1974   64.1894 H   0  0  0  0  0  0  0  0  0  0  0  0
  127.0150  125.6320   62.2710 H   0  0  0  0  0  0  0  0  0  0  0  0
  124.6423  124.9882   57.9343 H   0  0  0  0  0  0  0  0  0  0  0  0
  122.8154  123.8800   59.4362 H   0  0  0  0  0  0  0  0  0  0  0  0
  1  2  3  0
  2  3  1  0
  3  4  2  0
  4  5  1  0
  5  6  2  0
  6  7  1  0
  7  8  2  0
  8  9  1  0
  9 10  1  0
 10 11  1  0
 11 12  1  0
 12 13  1  0
 13 14  1  0
  8 15  1  0
 15 16  2  0
  4 17  1  0
 17 18  2  0
 18 19  1  0
 19 20  2  0
 20 21  1  0
 21 22  2  0
 22 23  1  0
 23 24  1  0
 24 25  1  0
 25 26  1  0
 26 27  1  0
 27 28  1  0
 22 29  1  0
 29 30  2  0
 18 31  1  0
 31 32  2  0
 32 33  1  0
 33 34  1  0
 34 35  1  0
 35 36  2  0
 35 37  1  0
 37 38  1  0
 38 39  2  0
 39 40  1  0
 40 41  2  0
 41 42  1  0
 32  3  1  0
 42 38  1  0
 16  5  1  0
 30 19  1  0
 14  9  1  0
 28 23  1  0
  6 43  1  0
  7 44  1  0
 10 45  1  0
 10 46  1  0
 11 47  1  0
 11 48  1  0
 13 49  1  0
 13 50  1  0
 14 51  1  0
 14 52  1  0
 15 53  1  0
 16 54  1  0
 17 55  1  0
 20 56  1  0
 21 57  1  0
 24 58  1  0
 24 59  1  0
 25 60  1  0
 25 61  1  0
 27 62  1  0
 27 63  1  0
 28 64  1  0
 28 65  1  0
 29 66  1  0
 30 67  1  0
 34 68  1  0
 34 69  1  0
 37 70  1  0
 40 71  1  0
 41 72  1  0
M  END
>  <Binding energies>  (1) 
[-10.19]

>  <Ligand effiencies>  (1) 
[-0.2369767441860465]

>  <Interactions>  (1) 
["V-B:ASP:366:CG:8184, V-B:HIS:456:CE1:9041, V-B:GLU:543:CD:9879, V-A:GLU:543:CD:4908, V-A:ALA:541:CB:4892, V-B:TRP:381:CZ2:8341, V-A:GLU:543:CG:4907, V-B:LEU:475:CD1:9229, V-B:ILE:369:CG2:8208, V-B:TRP:381:CH2:8343, V-A:HIS:456:CE1:4069, V-B:HIS:456:CD2:9039, V-A:GLU:543:CB:4906, V-A:HIS:456:CD2:4067, V-B:ALA:541:CB:9863, V-B:GLU:543:CG:9878, V-B:GLU:543:CB:9877, V-B:SER:385:C:8376, H-B:GLU:543:OE2:9881, H-B:LYS:547:NZ:9922, V-B:LYS:547:CE:9921, H-A:TYR:484:OH:4347, H-B:ALA:541:N:9862, V-B:PRO:540:CB:9856, V-B:LEU:363:CA:8156, V-B:ASN:362:CB:8147, V-B:ASN:362:C:8143"]

$$$$
2c_Grossjean_2025
     RDKit          3D

 40 41  0  0  0  0  0  0  0  0999 V2000
  129.7950  131.1840   73.7420 C   0  0  0  0  0  0  0  0  0  0  0  0
  130.4790  129.9500   73.5480 O   0  0  0  0  0  0  0  0  0  0  0  0
  130.4680  129.3630   72.2980 C   0  0  0  0  0  0  0  0  0  0  0  0
  131.6450  128.7340   71.8950 C   0  0  0  0  0  0  0  0  0  0  0  0
  131.7310  128.1140   70.6510 C   0  0  0  0  0  0  0  0  0  0  0  0
  130.6280  128.1290   69.7850 C   0  0  0  0  0  0  0  0  0  0  0  0
  130.6140  127.5160   68.5180 N   0  0  0  0  0  0  0  0  0  0  0  0
  129.7630  126.5800   68.0450 C   0  0  0  0  0  0  0  0  0  0  0  0
  128.8590  126.0580   68.7010 O   0  0  0  0  0  0  0  0  0  0  0  0
  130.0160  126.1520   66.5920 C   0  0  0  0  0  0  0  0  0  0  0  0
  130.1840  124.3530   66.3210 S   0  0  0  0  0  0  0  0  0  0  0  0
  130.5620  124.0430   64.6010 C   0  0  0  0  0  0  0  0  0  0  0  0
  129.5120  123.6600   63.8280 N   0  0  0  0  0  0  0  0  0  0  0  0
  129.7240  123.4000   62.5200 C   0  0  0  0  0  0  0  0  0  0  0  0
  128.5070  122.9620   61.7300 C   0  0  0  0  0  0  0  0  0  0  0  0
  130.9780  123.5170   61.9250 C   0  0  0  0  0  0  0  0  0  0  0  0
  132.0750  123.9180   62.7010 C   0  0  0  0  0  0  0  0  0  0  0  0
  133.4560  124.0450   62.0270 C   0  0  0  0  0  0  0  0  0  0  0  0
  134.0120  125.2150   62.3450 F   0  0  0  0  0  0  0  0  0  0  0  0
  134.2560  123.0590   62.4350 F   0  0  0  0  0  0  0  0  0  0  0  0
  133.3870  123.9820   60.6950 F   0  0  0  0  0  0  0  0  0  0  0  0
  131.8680  124.1890   64.0770 C   0  0  0  0  0  0  0  0  0  0  0  0
  132.9790  124.6110   64.9370 C   0  0  0  0  0  0  0  0  0  0  0  0
  133.8560  124.9430   65.6140 N   0  0  0  0  0  0  0  0  0  0  0  0
  129.4420  128.7440   70.1890 C   0  0  0  0  0  0  0  0  0  0  0  0
  129.3610  129.3610   71.4340 C   0  0  0  0  0  0  0  0  0  0  0  0
  129.6874  131.3781   74.8194 H   0  0  0  0  0  0  0  0  0  0  0  0
  130.3702  131.9989   73.2782 H   0  0  0  0  0  0  0  0  0  0  0  0
  128.7991  131.1281   73.2782 H   0  0  0  0  0  0  0  0  0  0  0  0
  132.5157  128.7273   72.5672 H   0  0  0  0  0  0  0  0  0  0  0  0
  132.6625  127.6134   70.3482 H   0  0  0  0  0  0  0  0  0  0  0  0
  131.3820  127.7730   67.9160 H   0  0  0  0  0  0  0  0  0  0  0  0
  129.1737  126.5096   65.9816 H   0  0  0  0  0  0  0  0  0  0  0  0
  130.9844  126.5918   66.3115 H   0  0  0  0  0  0  0  0  0  0  0  0
  127.7039  122.6730   62.4239 H   0  0  0  0  0  0  0  0  0  0  0  0
  128.1627  123.7926   61.0963 H   0  0  0  0  0  0  0  0  0  0  0  0
  128.7710  122.1025   61.0963 H   0  0  0  0  0  0  0  0  0  0  0  0
  131.1067  123.2966   60.8550 H   0  0  0  0  0  0  0  0  0  0  0  0
  128.5681  128.7411   69.5210 H   0  0  0  0  0  0  0  0  0  0  0  0
  128.4250  129.8496   71.7427 H   0  0  0  0  0  0  0  0  0  0  0  0
  1  2  1  0
  2  3  1  0
  3  4  2  0
  4  5  1  0
  5  6  2  0
  6  7  1  0
  7  8  1  0
  8  9  2  0
  8 10  1  0
 10 11  1  0
 11 12  1  0
 12 13  2  0
 13 14  1  0
 14 15  1  0
 14 16  2  0
 16 17  1  0
 17 18  1  0
 18 19  1  0
 18 20  1  0
 18 21  1  0
 17 22  2  0
 22 23  1  0
 23 24  3  0
  6 25  1  0
 25 26  2  0
 26  3  1  0
 22 12  1  0
  1 27  1  0
  1 28  1  0
  1 29  1  0
  4 30  1  0
  5 31  1  0
  7 32  1  0
 10 33  1  0
 10 34  1  0
 15 35  1  0
 15 36  1  0
 15 37  1  0
 16 38  1  0
 25 39  1  0
 26 40  1  0
M  END
>  <Binding energies>  (1) 
[-6.38]

>  <Ligand effiencies>  (1) 
[-0.23629629629629628]

>  <Interactions>  (1) 
["V-B:HIS:456:CE1:9041, V-A:ARG:545:CZ:4926, V-B:GLU:543:CD:9879, V-A:ASP:366:CG:3212, V-A:GLU:543:CD:4908, V-A:ILE:369:CD1:3238, V-A:GLU:543:CG:4907, V-A:GLY:454:CA:4048, V-A:HIS:456:CE1:4069, V-A:ILE:369:CG2:3236, V-A:GLU:543:CB:4906, V-A:ILE:369:CB:3235, V-A:GLY:544:C:4912, V-B:ALA:541:CB:9863, V-A:ARG:545:CG:4922, V-A:ARG:545:CA:4919, H-A:LYS:547:NZ:4951, H-A:TYR:484:OH:4347, V-A:LYS:547:CE:4950, H-A:ARG:545:NE:4924, H-A:GLY:454:N:4049, H-A:GLU:543:OE2:4910, V-A:GLY:453:C:4041, V-A:ILE:369:CG1:3237"]

$$$$
2d_Ghoteimi_2023
     RDKit          3D

 68 72  0  0  0  0  0  0  0  0999 V2000
  124.1000  129.6780   66.9100 C   0  0  0  0  0  0  0  0  0  0  0  0
  123.9500  129.9620   65.5270 O   0  0  0  0  0  0  0  0  0  0  0  0
  125.0180  129.9470   64.7040 C   0  0  0  0  0  0  0  0  0  0  0  0
  124.9770  129.7900   63.4800 O   0  0  0  0  0  0  0  0  0  0  0  0
  126.3250  130.1620   65.4820 C   0  0  0  0  0  0  0  0  0  0  0  0
  127.7480  129.4410   64.5940 S   0  0  0  0  0  0  0  0  0  0  0  0
  128.4350  128.1410   65.5990 C   0  0  0  0  0  0  0  0  0  0  0  0
  128.8400  127.0660   64.8790 N   0  0  0  0  0  0  0  0  0  0  0  0
  129.3770  125.9950   65.5160 C   0  0  0  0  0  0  0  0  0  0  0  0
  129.7830  124.8400   64.6590 C   0  0  0  0  0  0  0  0  0  0  0  0
  130.1300  123.6130   65.2340 C   0  0  0  0  0  0  0  0  0  0  0  0
  130.5090  122.5330   64.4420 C   0  0  0  0  0  0  0  0  0  0  0  0
  130.5450  122.6380   63.0430 C   0  0  0  0  0  0  0  0  0  0  0  0
  130.9410  121.5680   62.2330 N   0  0  0  0  0  0  0  0  0  0  0  0
  129.9630  120.7910   61.4460 C   0  0  0  0  0  0  0  0  0  0  0  0
  130.5150  119.4490   60.9250 C   0  0  0  0  0  0  0  0  0  0  0  0
  131.7010  119.6710   60.1780 O   0  0  0  0  0  0  0  0  0  0  0  0
  132.7100  120.2770   60.9690 C   0  0  0  0  0  0  0  0  0  0  0  0
  132.2210  121.6420   61.4980 C   0  0  0  0  0  0  0  0  0  0  0  0
  130.2100  123.8740   62.4720 C   0  0  0  0  0  0  0  0  0  0  0  0
  129.8330  124.9540   63.2640 C   0  0  0  0  0  0  0  0  0  0  0  0
  129.5260  125.9840   66.9060 C   0  0  0  0  0  0  0  0  0  0  0  0
  129.1470  127.0950   67.6690 C   0  0  0  0  0  0  0  0  0  0  0  0
  129.3610  127.0230   69.1460 C   0  0  0  0  0  0  0  0  0  0  0  0
  128.6290  126.1200   69.9180 C   0  0  0  0  0  0  0  0  0  0  0  0
  128.8290  126.0360   71.2930 C   0  0  0  0  0  0  0  0  0  0  0  0
  129.7690  126.8580   71.9360 C   0  0  0  0  0  0  0  0  0  0  0  0
  129.9960  126.7820   73.3130 N   0  0  0  0  0  0  0  0  0  0  0  0
  129.4960  127.8210   74.2340 C   0  0  0  0  0  0  0  0  0  0  0  0
  129.5240  127.3950   75.7170 C   0  0  0  0  0  0  0  0  0  0  0  0
  130.8330  126.9830   76.0800 O   0  0  0  0  0  0  0  0  0  0  0  0
  131.2720  125.8840   75.2960 C   0  0  0  0  0  0  0  0  0  0  0  0
  131.2920  126.2740   73.8030 C   0  0  0  0  0  0  0  0  0  0  0  0
  130.5120  127.7490   71.1500 C   0  0  0  0  0  0  0  0  0  0  0  0
  130.3120  127.8310   69.7750 C   0  0  0  0  0  0  0  0  0  0  0  0
  128.5890  128.2140   67.0020 C   0  0  0  0  0  0  0  0  0  0  0  0
  128.1950  129.4080   67.7560 C   0  0  0  0  0  0  0  0  0  0  0  0
  127.8850  130.3490   68.3540 N   0  0  0  0  0  0  0  0  0  0  0  0
  123.6669  130.4979   67.5018 H   0  0  0  0  0  0  0  0  0  0  0  0
  123.5805  128.7386   67.1499 H   0  0  0  0  0  0  0  0  0  0  0  0
  125.1688  129.5775   67.1499 H   0  0  0  0  0  0  0  0  0  0  0  0
  126.4922  131.2415   65.6112 H   0  0  0  0  0  0  0  0  0  0  0  0
  126.2351  129.6639   66.4586 H   0  0  0  0  0  0  0  0  0  0  0  0
  130.1030  123.5000   66.3278 H   0  0  0  0  0  0  0  0  0  0  0  0
  130.7848  121.5817   64.9204 H   0  0  0  0  0  0  0  0  0  0  0  0
  129.0903  120.5841   62.0828 H   0  0  0  0  0  0  0  0  0  0  0  0
  129.7045  121.3968   60.5650 H   0  0  0  0  0  0  0  0  0  0  0  0
  130.7390  118.7912   61.7777 H   0  0  0  0  0  0  0  0  0  0  0  0
  129.7627  118.9754   60.2771 H   0  0  0  0  0  0  0  0  0  0  0  0
  132.9483  119.6214   61.8195 H   0  0  0  0  0  0  0  0  0  0  0  0
  133.6075  120.4306   60.3518 H   0  0  0  0  0  0  0  0  0  0  0  0
  132.9876  122.0475   62.1747 H   0  0  0  0  0  0  0  0  0  0  0  0
  132.0531  122.2859   60.6221 H   0  0  0  0  0  0  0  0  0  0  0  0
  130.2459  123.9919   61.3789 H   0  0  0  0  0  0  0  0  0  0  0  0
  129.5706  125.9104   62.7881 H   0  0  0  0  0  0  0  0  0  0  0  0
  129.9439  125.0964   67.4036 H   0  0  0  0  0  0  0  0  0  0  0  0
  127.8863  125.4679   69.4351 H   0  0  0  0  0  0  0  0  0  0  0  0
  128.2432  125.3164   71.8837 H   0  0  0  0  0  0  0  0  0  0  0  0
  130.1207  128.7189   74.1179 H   0  0  0  0  0  0  0  0  0  0  0  0
  128.4443  128.0073   73.9709 H   0  0  0  0  0  0  0  0  0  0  0  0
  129.2225  128.2456   76.3459 H   0  0  0  0  0  0  0  0  0  0  0  0
  128.8279  126.5561   75.8645 H   0  0  0  0  0  0  0  0  0  0  0  0
  132.2856  125.5944   75.6103 H   0  0  0  0  0  0  0  0  0  0  0  0
  130.5811  125.0401   75.4391 H   0  0  0  0  0  0  0  0  0  0  0  0
  132.0511  127.0566   73.6571 H   0  0  0  0  0  0  0  0  0  0  0  0
  131.5204  125.3620   73.2320 H   0  0  0  0  0  0  0  0  0  0  0  0
  131.2649  128.3936   71.6271 H   0  0  0  0  0  0  0  0  0  0  0  0
  130.9075  128.5377   69.1784 H   0  0  0  0  0  0  0  0  0  0  0  0
  1  2  1  0
  2  3  1  0
  3  4  2  0
  3  5  1  0
  5  6  1  0
  6  7  1  0
  7  8  2  0
  8  9  1  0
  9 10  1  0
 10 11  2  0
 11 12  1  0
 12 13  2  0
 13 14  1  0
 14 15  1  0
 15 16  1  0
 16 17  1  0
 17 18  1  0
 18 19  1  0
 13 20  1  0
 20 21  2  0
  9 22  2  0
 22 23  1  0
 23 24  1  0
 24 25  2  0
 25 26  1  0
 26 27  2  0
 27 28  1  0
 28 29  1  0
 29 30  1  0
 30 31  1  0
 31 32  1  0
 32 33  1  0
 27 34  1  0
 34 35  2  0
 23 36  2  0
 36 37  1  0
 37 38  3  0
 36  7  1  0
 21 10  1  0
 35 24  1  0
 19 14  1  0
 33 28  1  0
  1 39  1  0
  1 40  1  0
  1 41  1  0
  5 42  1  0
  5 43  1  0
 11 44  1  0
 12 45  1  0
 15 46  1  0
 15 47  1  0
 16 48  1  0
 16 49  1  0
 18 50  1  0
 18 51  1  0
 19 52  1  0
 19 53  1  0
 20 54  1  0
 21 55  1  0
 22 56  1  0
 25 57  1  0
 26 58  1  0
 29 59  1  0
 29 60  1  0
 30 61  1  0
 30 62  1  0
 32 63  1  0
 32 64  1  0
 33 65  1  0
 33 66  1  0
 34 67  1  0
 35 68  1  0
M  END
>  <Binding energies>  (1) 
[-8.65]

>  <Ligand effiencies>  (1) 
[-0.22763157894736843]

>  <Interactions>  (1) 
["V-B:HIS:456:CE1:9041, V-B:GLU:543:CD:9879, V-A:LEU:475:CD2:4258, V-A:GLU:543:CD:4908, V-A:GLU:543:CG:4907, V-A:HIS:456:CE1:4069, V-B:TYR:539:CD2:9845, V-A:HIS:456:CG:4065, V-A:ILE:369:CG2:3236, V-A:GLU:543:CB:4906, V-A:HIS:456:CD2:4067, V-B:ALA:541:CB:9863, V-B:GLU:543:CG:9878, V-B:GLU:543:CB:9877, H-B:GLY:454:N:9021, H-B:ARG:545:NH2:9899, H-B:TYR:484:OH:9319, V-A:HIS:456:CB:4064, H-A:LYS:547:NZ:4951, V-A:TRP:381:CZ2:3369, V-A:LYS:547:CE:4950, V-A:TRP:381:CH2:3371, H-B:ARG:545:NE:9895, H-B:HIS:456:ND1:9038, V-B:ARG:545:CZ:9897, V-B:ARG:545:CG:9893, V-B:ARG:545:CD:9894, V-A:TYR:484:CE1:4344, V-A:PRO:482:CB:4325, V-A:PRO:482:CG:4326"]

$$$$
2d_Grossjean_2025
     RDKit          3D

 36 37  0  0  0  0  0  0  0  0999 V2000
  128.4610  128.4460   62.6740 C   0  0  0  0  0  0  0  0  0  0  0  0
  128.6350  128.0580   64.1300 C   0  0  0  0  0  0  0  0  0  0  0  0
  129.4290  126.9780   64.5070 C   0  0  0  0  0  0  0  0  0  0  0  0
  129.5630  126.6620   65.8670 C   0  0  0  0  0  0  0  0  0  0  0  0
  130.4540  125.4690   66.2660 C   0  0  0  0  0  0  0  0  0  0  0  0
  131.5010  125.8980   66.9710 F   0  0  0  0  0  0  0  0  0  0  0  0
  129.7580  124.6060   67.0080 F   0  0  0  0  0  0  0  0  0  0  0  0
  130.9260  124.8020   65.2120 F   0  0  0  0  0  0  0  0  0  0  0  0
  128.8730  127.4550   66.8190 C   0  0  0  0  0  0  0  0  0  0  0  0
  129.0160  127.1950   68.2540 C   0  0  0  0  0  0  0  0  0  0  0  0
  129.1310  126.9890   69.3870 N   0  0  0  0  0  0  0  0  0  0  0  0
  128.0680  128.5170   66.3420 C   0  0  0  0  0  0  0  0  0  0  0  0
  127.1110  129.5910   67.3940 S   0  0  0  0  0  0  0  0  0  0  0  0
  125.3720  129.0430   67.3640 C   0  0  0  0  0  0  0  0  0  0  0  0
  124.5600  129.6880   66.2370 C   0  0  0  0  0  0  0  0  0  0  0  0
  123.3300  129.6340   66.2800 O   0  0  0  0  0  0  0  0  0  0  0  0
  125.2820  130.2530   65.2470 N   0  0  0  0  0  0  0  0  0  0  0  0
  124.8350  130.9200   64.0910 C   0  0  0  0  0  0  0  0  0  0  0  0
  125.3340  132.2100   63.8960 C   0  0  0  0  0  0  0  0  0  0  0  0
  124.9460  132.9530   62.7840 C   0  0  0  0  0  0  0  0  0  0  0  0
  124.0490  132.4060   61.8690 C   0  0  0  0  0  0  0  0  0  0  0  0
  123.5350  131.1270   62.0590 C   0  0  0  0  0  0  0  0  0  0  0  0
  123.9220  130.3810   63.1690 C   0  0  0  0  0  0  0  0  0  0  0  0
  127.9680  128.8220   65.0250 N   0  0  0  0  0  0  0  0  0  0  0  0
  128.0116  129.4481   62.6128 H   0  0  0  0  0  0  0  0  0  0  0  0
  129.4421  128.4531   62.1767 H   0  0  0  0  0  0  0  0  0  0  0  0
  127.8031  127.7181   62.1767 H   0  0  0  0  0  0  0  0  0  0  0  0
  129.9469  126.3776   63.7445 H   0  0  0  0  0  0  0  0  0  0  0  0
  125.3509  127.9513   67.2306 H   0  0  0  0  0  0  0  0  0  0  0  0
  124.9142  129.3496   68.3161 H   0  0  0  0  0  0  0  0  0  0  0  0
  126.2840  130.1400   65.3030 H   0  0  0  0  0  0  0  0  0  0  0  0
  126.0368  132.6410   64.6243 H   0  0  0  0  0  0  0  0  0  0  0  0
  125.3455  133.9661   62.6289 H   0  0  0  0  0  0  0  0  0  0  0  0
  123.7444  132.9905   60.9884 H   0  0  0  0  0  0  0  0  0  0  0  0
  122.8238  130.7058   61.3332 H   0  0  0  0  0  0  0  0  0  0  0  0
  123.5137  129.3714   63.3239 H   0  0  0  0  0  0  0  0  0  0  0  0
  1  2  1  0
  2  3  2  0
  3  4  1  0
  4  5  1  0
  5  6  1  0
  5  7  1  0
  5  8  1  0
  4  9  2  0
  9 10  1  0
 10 11  3  0
  9 12  1  0
 12 13  1  0
 13 14  1  0
 14 15  1  0
 15 16  2  0
 15 17  1  0
 17 18  1  0
 18 19  2  0
 19 20  1  0
 20 21  2  0
 21 22  1  0
 22 23  2  0
 12 24  2  0
 24  2  1  0
 23 18  1  0
  1 25  1  0
  1 26  1  0
  1 27  1  0
  3 28  1  0
 14 29  1  0
 14 30  1  0
 17 31  1  0
 19 32  1  0
 20 33  1  0
 21 34  1  0
 22 35  1  0
 23 36  1  0
M  END
>  <Binding energies>  (1) 
[-5.58]

>  <Ligand effiencies>  (1) 
[-0.2232]

>  <Interactions>  (1) 
["V-B:ASP:366:CG:8184, V-B:HIS:456:CE1:9041, V-B:GLU:543:CD:9879, V-A:TYR:484:CZ:4346, V-A:GLU:543:CD:4908, V-B:GLY:454:CA:9020, V-B:ILE:369:CD1:8210, V-A:GLU:543:CG:4907, V-B:LEU:475:CD1:9229, V-A:HIS:456:CE1:4069, V-B:GLU:543:CG:9878, V-B:GLU:543:CB:9877, H-B:GLY:454:N:9021, H-B:TYR:484:OH:9319, H-B:ARG:545:NE:9895, V-B:ARG:545:CZ:9897, V-B:ARG:545:CG:9893, V-B:ARG:545:CD:9894, V-A:TYR:484:CE1:4344"]

$$$$
2e_Grossjean_2025
     RDKit          3D

 38 39  0  0  0  0  0  0  0  0999 V2000
  124.7180  123.6130   61.1410 C   0  0  0  0  0  0  0  0  0  0  0  0
  126.0690  123.3540   60.5030 C   0  0  0  0  0  0  0  0  0  0  0  0
  126.2150  123.2490   59.1170 C   0  0  0  0  0  0  0  0  0  0  0  0
  127.4920  123.0210   58.6000 C   0  0  0  0  0  0  0  0  0  0  0  0
  128.5790  122.9040   59.4700 C   0  0  0  0  0  0  0  0  0  0  0  0
  128.3600  123.0100   60.8480 C   0  0  0  0  0  0  0  0  0  0  0  0
  129.4930  122.9270   61.6750 N   0  0  0  0  0  0  0  0  0  0  0  0
  130.2280  121.8340   61.9760 C   0  0  0  0  0  0  0  0  0  0  0  0
  130.0530  120.7120   61.4980 O   0  0  0  0  0  0  0  0  0  0  0  0
  131.3230  122.0350   63.0280 C   0  0  0  0  0  0  0  0  0  0  0  0
  132.3170  123.5260   62.7030 S   0  0  0  0  0  0  0  0  0  0  0  0
  132.3420  124.4250   64.2380 C   0  0  0  0  0  0  0  0  0  0  0  0
  133.5810  124.6430   64.7450 N   0  0  0  0  0  0  0  0  0  0  0  0
  133.6890  125.2800   65.9330 C   0  0  0  0  0  0  0  0  0  0  0  0
  135.1030  125.4910   66.4410 C   0  0  0  0  0  0  0  0  0  0  0  0
  132.5810  125.7150   66.6580 C   0  0  0  0  0  0  0  0  0  0  0  0
  131.2920  125.4890   66.1510 C   0  0  0  0  0  0  0  0  0  0  0  0
  130.0770  125.9560   66.9740 C   0  0  0  0  0  0  0  0  0  0  0  0
  129.4180  124.9020   67.4570 F   0  0  0  0  0  0  0  0  0  0  0  0
  130.4810  126.7180   67.9910 F   0  0  0  0  0  0  0  0  0  0  0  0
  129.2120  126.6730   66.2530 F   0  0  0  0  0  0  0  0  0  0  0  0
  131.1620  124.8270   64.9050 C   0  0  0  0  0  0  0  0  0  0  0  0
  129.8430  124.5350   64.3360 C   0  0  0  0  0  0  0  0  0  0  0  0
  128.8010  124.3040   63.8880 N   0  0  0  0  0  0  0  0  0  0  0  0
  127.1160  123.2410   61.3610 N   0  0  0  0  0  0  0  0  0  0  0  0
  124.8199  123.5935   62.2361 H   0  0  0  0  0  0  0  0  0  0  0  0
  124.3461  124.5988   60.8249 H   0  0  0  0  0  0  0  0  0  0  0  0
  124.0079  122.8346   60.8249 H   0  0  0  0  0  0  0  0  0  0  0  0
  125.3455  123.3436   58.4499 H   0  0  0  0  0  0  0  0  0  0  0  0
  127.6413  122.9340   57.5137 H   0  0  0  0  0  0  0  0  0  0  0  0
  129.5919  122.7311   59.0775 H   0  0  0  0  0  0  0  0  0  0  0  0
  129.8090  123.8080   62.0530 H   0  0  0  0  0  0  0  0  0  0  0  0
  130.8516  122.1313   64.0172 H   0  0  0  0  0  0  0  0  0  0  0  0
  131.9943  121.1645   62.9898 H   0  0  0  0  0  0  0  0  0  0  0  0
  135.1013  125.4907   67.5410 H   0  0  0  0  0  0  0  0  0  0  0  0
  135.7490  124.6793   66.0752 H   0  0  0  0  0  0  0  0  0  0  0  0
  135.4839  126.4559   66.0752 H   0  0  0  0  0  0  0  0  0  0  0  0
  132.7157  126.2313   67.6199 H   0  0  0  0  0  0  0  0  0  0  0  0
  1  2  1  0
  2  3  2  0
  3  4  1  0
  4  5  2  0
  5  6  1  0
  6  7  1  0
  7  8  1  0
  8  9  2  0
  8 10  1  0
 10 11  1  0
 11 12  1  0
 12 13  2  0
 13 14  1  0
 14 15  1  0
 14 16  2  0
 16 17  1  0
 17 18  1  0
 18 19  1  0
 18 20  1  0
 18 21  1  0
 17 22  2  0
 22 23  1  0
 23 24  3  0
  6 25  2  0
 25  2  1  0
 22 12  1  0
  1 26  1  0
  1 27  1  0
  1 28  1  0
  3 29  1  0
  4 30  1  0
  5 31  1  0
  7 32  1  0
 10 33  1  0
 10 34  1  0
 15 35  1  0
 15 36  1  0
 15 37  1  0
 16 38  1  0
M  END
>  <Binding energies>  (1) 
[-6.38]

>  <Ligand effiencies>  (1) 
[-0.24538461538461537]

>  <Interactions>  (1) 
["V-A:ARG:545:CZ:4926, V-B:GLU:543:CD:9879, V-A:LEU:475:CD2:4258, V-A:GLU:543:CD:4908, V-A:GLY:453:CA:4043, V-A:GLY:454:CA:4048, V-A:HIS:456:CE1:4069, V-B:TYR:539:CD2:9845, V-B:TYR:539:CE2:9847, V-B:ALA:541:CB:9863, V-A:ARG:545:CG:4922, V-B:GLU:543:CG:9878, V-B:GLU:543:CB:9877, V-B:PRO:540:C:9852, H-A:TYR:484:OH:4347, V-B:PRO:540:N:9855, V-B:PRO:540:CA:9854, H-B:ALA:541:N:9862, H-A:GLY:454:N:4049, V-B:PRO:540:CB:9856, V-A:ARG:545:CD:4923, V-A:GLY:453:C:4041, V-B:ASN:362:CB:8147, V-A:TYR:484:CE1:4344, V-B:GLU:543:CA:9875"]

$$$$
2f_Grossjean_2025
     RDKit          3D

 35 36  0  0  0  0  0  0  0  0999 V2000
  128.6290  126.4090   67.8340 C   0  0  0  0  0  0  0  0  0  0  0  0
  129.1230  126.5890   69.2570 C   0  0  0  0  0  0  0  0  0  0  0  0
  130.0920  127.5360   69.5790 C   0  0  0  0  0  0  0  0  0  0  0  0
  130.5230  127.6590   70.9090 C   0  0  0  0  0  0  0  0  0  0  0  0
  131.6050  128.7030   71.2420 C   0  0  0  0  0  0  0  0  0  0  0  0
  132.6280  128.1200   71.8690 F   0  0  0  0  0  0  0  0  0  0  0  0
  132.0520  129.2690   70.1210 F   0  0  0  0  0  0  0  0  0  0  0  0
  131.1550  129.6790   72.0340 F   0  0  0  0  0  0  0  0  0  0  0  0
  129.9450  126.8120   71.8890 C   0  0  0  0  0  0  0  0  0  0  0  0
  130.4010  126.8630   73.2810 C   0  0  0  0  0  0  0  0  0  0  0  0
  130.7610  126.9040   74.3800 N   0  0  0  0  0  0  0  0  0  0  0  0
  128.9470  125.8970   71.4740 C   0  0  0  0  0  0  0  0  0  0  0  0
  128.1080  124.7700   72.5690 S   0  0  0  0  0  0  0  0  0  0  0  0
  129.3600  123.6750   73.3220 C   0  0  0  0  0  0  0  0  0  0  0  0
  129.1260  122.1730   73.1060 C   0  0  0  0  0  0  0  0  0  0  0  0
  130.0200  121.3580   73.3410 O   0  0  0  0  0  0  0  0  0  0  0  0
  127.9010  121.8600   72.6340 N   0  0  0  0  0  0  0  0  0  0  0  0
  127.3530  120.5970   72.3360 C   0  0  0  0  0  0  0  0  0  0  0  0
  126.3510  119.9460   73.0790 C   0  0  0  0  0  0  0  0  0  0  0  0
  125.8910  118.6930   72.6700 C   0  0  0  0  0  0  0  0  0  0  0  0
  126.4410  118.1230   71.5210 C   0  0  0  0  0  0  0  0  0  0  0  0
  127.4010  118.7330   70.7820 N   0  0  0  0  0  0  0  0  0  0  0  0
  127.8380  119.9510   71.1930 C   0  0  0  0  0  0  0  0  0  0  0  0
  128.5610  125.7780   70.1810 N   0  0  0  0  0  0  0  0  0  0  0  0
  127.5956  126.0324   67.8495 H   0  0  0  0  0  0  0  0  0  0  0  0
  128.6591  127.3759   67.3103 H   0  0  0  0  0  0  0  0  0  0  0  0
  129.2741  125.6881   67.3103 H   0  0  0  0  0  0  0  0  0  0  0  0
  130.5164  128.1827   68.7969 H   0  0  0  0  0  0  0  0  0  0  0  0
  130.3398  123.9323   72.8934 H   0  0  0  0  0  0  0  0  0  0  0  0
  129.2994  123.8415   74.4076 H   0  0  0  0  0  0  0  0  0  0  0  0
  127.2880  122.6370   72.4300 H   0  0  0  0  0  0  0  0  0  0  0  0
  125.9321  120.4221   73.9778 H   0  0  0  0  0  0  0  0  0  0  0  0
  125.1120  118.1665   73.2409 H   0  0  0  0  0  0  0  0  0  0  0  0
  126.0798  117.1347   71.2003 H   0  0  0  0  0  0  0  0  0  0  0  0
  128.6128  120.4559   70.5973 H   0  0  0  0  0  0  0  0  0  0  0  0
  1  2  1  0
  2  3  2  0
  3  4  1  0
  4  5  1  0
  5  6  1  0
  5  7  1  0
  5  8  1  0
  4  9  2  0
  9 10  1  0
 10 11  3  0
  9 12  1  0
 12 13  1  0
 13 14  1  0
 14 15  1  0
 15 16  2  0
 15 17  1  0
 17 18  1  0
 18 19  2  0
 19 20  1  0
 20 21  2  0
 21 22  1  0
 22 23  2  0
 12 24  2  0
 24  2  1  0
 23 18  1  0
  1 25  1  0
  1 26  1  0
  1 27  1  0
  3 28  1  0
 14 29  1  0
 14 30  1  0
 17 31  1  0
 19 32  1  0
 20 33  1  0
 21 34  1  0
 23 35  1  0
M  END
>  <Binding energies>  (1) 
[-6.47]

>  <Ligand effiencies>  (1) 
[-0.2588]

>  <Interactions>  (1) 
["V-B:GLU:543:CD:9879, V-A:HIS:456:CE1:4069, V-A:GLU:543:C:4902, V-A:HIS:456:CG:4065, V-A:GLU:543:CB:4906, V-A:GLY:544:C:4912, V-A:HIS:456:CD2:4067, V-A:ARG:545:CG:4922, V-B:GLU:543:C:9873, V-B:GLU:543:CG:9878, V-B:GLU:543:CB:9877, V-A:ARG:545:CA:4919, V-A:ARG:545:CB:4921, H-B:LYS:547:NZ:9922, V-B:LYS:547:CE:9921, H-A:LYS:547:NZ:4951, V-A:GLU:543:CA:4904, H-B:GLU:543:O:9874, H-B:GLY:544:O:9884, V-B:GLY:544:CA:9885, V-A:TYR:484:CB:4340, V-A:TYR:484:CA:4338, V-A:TYR:484:CD1:4342, V-A:TYR:484:CG:4341, V-A:GLY:544:CA:4914, H-A:TYR:484:N:4339, V-A:SER:483:CB:4332, V-A:ARG:545:C:4917"]

$$$$
2g_Grossjean_2025
     RDKit          3D

 39 40  0  0  0  0  0  0  0  0999 V2000
  128.8660  128.0240   67.6570 C   0  0  0  0  0  0  0  0  0  0  0  0
  128.0050  128.6970   66.6050 C   0  0  0  0  0  0  0  0  0  0  0  0
  126.7130  129.1310   66.8890 C   0  0  0  0  0  0  0  0  0  0  0  0
  125.9530  129.7420   65.8790 C   0  0  0  0  0  0  0  0  0  0  0  0
  124.5220  130.2080   66.2100 C   0  0  0  0  0  0  0  0  0  0  0  0
  124.2250  129.9240   67.4790 F   0  0  0  0  0  0  0  0  0  0  0  0
  124.4220  131.5250   66.0270 F   0  0  0  0  0  0  0  0  0  0  0  0
  123.5980  129.6230   65.4440 F   0  0  0  0  0  0  0  0  0  0  0  0
  126.5350  129.9040   64.5960 C   0  0  0  0  0  0  0  0  0  0  0  0
  125.7650  130.4830   63.4920 C   0  0  0  0  0  0  0  0  0  0  0  0
  125.1570  130.9410   62.6210 N   0  0  0  0  0  0  0  0  0  0  0  0
  127.8660  129.4590   64.4080 C   0  0  0  0  0  0  0  0  0  0  0  0
  128.7560  129.6080   62.8740 S   0  0  0  0  0  0  0  0  0  0  0  0
  129.6040  131.2240   62.8860 C   0  0  0  0  0  0  0  0  0  0  0  0
  129.0250  132.2590   61.9110 C   0  0  0  0  0  0  0  0  0  0  0  0
  129.7270  133.1510   61.4310 O   0  0  0  0  0  0  0  0  0  0  0  0
  127.7160  132.1230   61.6340 N   0  0  0  0  0  0  0  0  0  0  0  0
  126.9450  132.9800   60.7310 C   0  0  0  0  0  0  0  0  0  0  0  0
  126.5310  134.3180   61.3340 C   0  0  0  0  0  0  0  0  0  0  0  0
  125.2320  134.4880   61.8230 C   0  0  0  0  0  0  0  0  0  0  0  0
  124.8630  135.6970   62.4090 C   0  0  0  0  0  0  0  0  0  0  0  0
  125.7950  136.7260   62.5140 C   0  0  0  0  0  0  0  0  0  0  0  0
  127.0950  136.5580   62.0400 C   0  0  0  0  0  0  0  0  0  0  0  0
  127.4650  135.3500   61.4540 C   0  0  0  0  0  0  0  0  0  0  0  0
  128.5780  128.8510   65.3890 N   0  0  0  0  0  0  0  0  0  0  0  0
  128.5074  128.3043   68.6584 H   0  0  0  0  0  0  0  0  0  0  0  0
  128.8043  126.9322   67.5377 H   0  0  0  0  0  0  0  0  0  0  0  0
  129.9106  128.3475   67.5377 H   0  0  0  0  0  0  0  0  0  0  0  0
  126.2913  128.9963   67.8960 H   0  0  0  0  0  0  0  0  0  0  0  0
  129.5391  131.6376   63.9032 H   0  0  0  0  0  0  0  0  0  0  0  0
  130.6378  131.0350   62.5611 H   0  0  0  0  0  0  0  0  0  0  0  0
  127.2140  131.3510   62.0490 H   0  0  0  0  0  0  0  0  0  0  0  0
  127.5573  133.1792   59.8391 H   0  0  0  0  0  0  0  0  0  0  0  0
  126.0158  132.4382   60.5006 H   0  0  0  0  0  0  0  0  0  0  0  0
  124.5025  133.6684   61.7451 H   0  0  0  0  0  0  0  0  0  0  0  0
  123.8397  135.8379   62.7871 H   0  0  0  0  0  0  0  0  0  0  0  0
  125.5026  137.6808   62.9755 H   0  0  0  0  0  0  0  0  0  0  0  0
  127.8253  137.3758   62.1284 H   0  0  0  0  0  0  0  0  0  0  0  0
  128.4919  135.2085   61.0859 H   0  0  0  0  0  0  0  0  0  0  0  0
  1  2  1  0
  2  3  2  0
  3  4  1  0
  4  5  1  0
  5  6  1  0
  5  7  1  0
  5  8  1  0
  4  9  2  0
  9 10  1  0
 10 11  3  0
  9 12  1  0
 12 13  1  0
 13 14  1  0
 14 15  1  0
 15 16  2  0
 15 17  1  0
 17 18  1  0
 18 19  1  0
 19 20  2  0
 20 21  1  0
 21 22  2  0
 22 23  1  0
 23 24  2  0
 12 25  2  0
 25  2  1  0
 24 19  1  0
  1 26  1  0
  1 27  1  0
  1 28  1  0
  3 29  1  0
 14 30  1  0
 14 31  1  0
 17 32  1  0
 18 33  1  0
 18 34  1  0
 20 35  1  0
 21 36  1  0
 22 37  1  0
 23 38  1  0
 24 39  1  0
M  END
>  <Binding energies>  (1) 
[-5.65]

>  <Ligand effiencies>  (1) 
[-0.2173076923076923]

>  <Interactions>  (1) 
["V-B:HIS:456:CE1:9041, V-B:GLU:543:CD:9879, V-A:GLU:543:CD:4908, V-B:GLY:454:CA:9020, V-A:ALA:541:CB:4892, V-B:TRP:381:CZ2:8341, V-A:GLU:543:CG:4907, V-B:PRO:482:CB:9297, V-B:PRO:482:CG:9298, V-B:LEU:475:CD1:9229, V-B:TRP:381:CH2:8343, V-A:TYR:539:CE2:4876, V-A:TYR:539:CD2:4874, V-A:GLU:543:CB:4906, V-B:ARG:545:CZ:9897, V-B:TYR:484:CZ:9318, V-B:ARG:545:CG:9893, H-A:ALA:541:N:4891, V-B:ARG:545:CD:9894, V-B:GLY:453:CA:9015, V-B:GLY:454:C:9018, V-B:GLY:453:C:9013, V-B:TRP:381:CE2:8338"]

$$$$
2h_Grossjean_2025
     RDKit          3D

 51 52  0  0  0  0  0  0  0  0999 V2000
  130.1990  124.7580   74.5830 C   0  0  0  0  0  0  0  0  0  0  0  0
  129.0640  125.5150   74.1770 O   0  0  0  0  0  0  0  0  0  0  0  0
  129.0220  126.0410   72.8980 C   0  0  0  0  0  0  0  0  0  0  0  0
  128.4080  125.4040   71.8080 C   0  0  0  0  0  0  0  0  0  0  0  0
  128.3980  126.0010   70.5500 C   0  0  0  0  0  0  0  0  0  0  0  0
  129.0000  127.2440   70.3510 C   0  0  0  0  0  0  0  0  0  0  0  0
  128.9580  127.8880   68.9660 C   0  0  0  0  0  0  0  0  0  0  0  0
  129.9720  127.3700   68.0470 N   0  0  0  0  0  0  0  0  0  0  0  0
  129.9520  126.1470   67.4890 C   0  0  0  0  0  0  0  0  0  0  0  0
  129.1060  125.2930   67.7620 O   0  0  0  0  0  0  0  0  0  0  0  0
  131.0600  125.8690   66.4630 C   0  0  0  0  0  0  0  0  0  0  0  0
  130.7010  126.4370   64.7680 S   0  0  0  0  0  0  0  0  0  0  0  0
  130.6930  124.9900   63.7310 C   0  0  0  0  0  0  0  0  0  0  0  0
  129.4560  124.6290   63.3090 N   0  0  0  0  0  0  0  0  0  0  0  0
  129.3320  123.5320   62.5300 C   0  0  0  0  0  0  0  0  0  0  0  0
  127.9200  123.1830   62.1010 C   0  0  0  0  0  0  0  0  0  0  0  0
  130.4240  122.7590   62.1390 C   0  0  0  0  0  0  0  0  0  0  0  0
  131.7140  123.1290   62.5500 C   0  0  0  0  0  0  0  0  0  0  0  0
  132.9100  122.2680   62.1010 C   0  0  0  0  0  0  0  0  0  0  0  0
  133.5100  121.7320   63.1640 F   0  0  0  0  0  0  0  0  0  0  0  0
  132.5510  121.2650   61.2960 F   0  0  0  0  0  0  0  0  0  0  0  0
  133.7920  123.0170   61.4380 F   0  0  0  0  0  0  0  0  0  0  0  0
  131.8610  124.2830   63.3620 C   0  0  0  0  0  0  0  0  0  0  0  0
  133.1910  124.7450   63.7680 C   0  0  0  0  0  0  0  0  0  0  0  0
  134.2430  125.1090   64.0840 N   0  0  0  0  0  0  0  0  0  0  0  0
  129.6380  127.8820   71.4250 C   0  0  0  0  0  0  0  0  0  0  0  0
  130.2350  129.1060   71.2370 O   0  0  0  0  0  0  0  0  0  0  0  0
  131.5860  129.0380   70.7970 C   0  0  0  0  0  0  0  0  0  0  0  0
  129.6300  127.2880   72.6990 C   0  0  0  0  0  0  0  0  0  0  0  0
  130.2380  127.9180   73.7580 O   0  0  0  0  0  0  0  0  0  0  0  0
  129.3890  128.8100   74.4680 C   0  0  0  0  0  0  0  0  0  0  0  0
  130.2453  124.7271   75.6816 H   0  0  0  0  0  0  0  0  0  0  0  0
  130.1161  123.7337   74.1906 H   0  0  0  0  0  0  0  0  0  0  0  0
  131.1128  125.2281   74.1906 H   0  0  0  0  0  0  0  0  0  0  0  0
  127.9300  124.4234   71.9491 H   0  0  0  0  0  0  0  0  0  0  0  0
  127.9118  125.4888   69.7067 H   0  0  0  0  0  0  0  0  0  0  0  0
  127.9658  127.7052   68.5277 H   0  0  0  0  0  0  0  0  0  0  0  0
  129.1646  128.9597   69.1027 H   0  0  0  0  0  0  0  0  0  0  0  0
  130.6790  128.0260   67.7480 H   0  0  0  0  0  0  0  0  0  0  0  0
  131.9760  126.3731   66.8050 H   0  0  0  0  0  0  0  0  0  0  0  0
  131.1587  124.7749   66.4061 H   0  0  0  0  0  0  0  0  0  0  0  0
  127.2938  123.0282   62.9920 H   0  0  0  0  0  0  0  0  0  0  0  0
  127.5055  124.0057   61.4999 H   0  0  0  0  0  0  0  0  0  0  0  0
  127.9365  122.2619   61.4999 H   0  0  0  0  0  0  0  0  0  0  0  0
  130.2760  121.8664   61.5135 H   0  0  0  0  0  0  0  0  0  0  0  0
  132.2546  129.0043   71.6698 H   0  0  0  0  0  0  0  0  0  0  0  0
  131.7289  128.1315   70.1905 H   0  0  0  0  0  0  0  0  0  0  0  0
  131.8192  129.9255   70.1905 H   0  0  0  0  0  0  0  0  0  0  0  0
  129.5271  128.6649   75.5496 H   0  0  0  0  0  0  0  0  0  0  0  0
  129.6420  129.8469   74.2019 H   0  0  0  0  0  0  0  0  0  0  0  0
  128.3409  128.6085   74.2019 H   0  0  0  0  0  0  0  0  0  0  0  0
  1  2  1  0
  2  3  1  0
  3  4  2  0
  4  5  1  0
  5  6  2  0
  6  7  1  0
  7  8  1  0
  8  9  1  0
  9 10  2  0
  9 11  1  0
 11 12  1  0
 12 13  1  0
 13 14  2  0
 14 15  1  0
 15 16  1  0
 15 17  2  0
 17 18  1  0
 18 19  1  0
 19 20  1  0
 19 21  1  0
 19 22  1  0
 18 23  2  0
 23 24  1  0
 24 25  3  0
  6 26  1  0
 26 27  1  0
 27 28  1  0
 26 29  2  0
 29 30  1  0
 30 31  1  0
 29  3  1  0
 23 13  1  0
  1 32  1  0
  1 33  1  0
  1 34  1  0
  4 35  1  0
  5 36  1  0
  7 37  1  0
  7 38  1  0
  8 39  1  0
 11 40  1  0
 11 41  1  0
 16 42  1  0
 16 43  1  0
 16 44  1  0
 17 45  1  0
 28 46  1  0
 28 47  1  0
 28 48  1  0
 31 49  1  0
 31 50  1  0
 31 51  1  0
M  END
>  <Binding energies>  (1) 
[-6.82]

>  <Ligand effiencies>  (1) 
[-0.213125]

>  <Interactions>  (1) 
["V-B:HIS:456:CE1:9041, V-A:LEU:475:CD2:4258, V-A:GLU:543:CD:4908, V-A:ILE:369:CD1:3238, V-A:GLU:543:CG:4907, H-A:ARG:545:NH2:4928, V-A:GLY:454:CA:4048, V-A:HIS:456:CE1:4069, V-A:GLU:543:C:4902, V-A:ILE:369:CG2:3236, V-A:GLU:543:CB:4906, V-A:ILE:369:CB:3235, V-A:GLY:544:C:4912, V-A:HIS:456:CD2:4067, V-B:ALA:541:CB:9863, V-A:ARG:545:CA:4919, H-B:LYS:547:NZ:9922, H-A:LYS:547:NZ:4951, V-B:ALA:541:CA:9861, V-A:LYS:547:CE:4950, H-A:GLY:454:N:4049, H-A:GLU:543:OE2:4910, H-A:ARG:545:NH1:4927, V-A:ILE:369:CG1:3237"]

$$$$
2i_Grossjean_2025
     RDKit          3D

 32 33  0  0  0  0  0  0  0  0999 V2000
  128.6860  126.2610   67.8130 C   0  0  0  0  0  0  0  0  0  0  0  0
  129.1280  126.4680   69.2490 C   0  0  0  0  0  0  0  0  0  0  0  0
  130.0570  127.4460   69.5940 C   0  0  0  0  0  0  0  0  0  0  0  0
  130.4310  127.5990   70.9370 C   0  0  0  0  0  0  0  0  0  0  0  0
  131.4600  128.6860   71.3010 C   0  0  0  0  0  0  0  0  0  0  0  0
  132.4640  128.1490   71.9970 F   0  0  0  0  0  0  0  0  0  0  0  0
  131.9510  129.2420   70.1920 F   0  0  0  0  0  0  0  0  0  0  0  0
  130.9370  129.6660   72.0420 F   0  0  0  0  0  0  0  0  0  0  0  0
  129.8450  126.7440   71.9050 C   0  0  0  0  0  0  0  0  0  0  0  0
  130.1990  126.8610   73.3230 C   0  0  0  0  0  0  0  0  0  0  0  0
  130.4780  126.9530   74.4430 N   0  0  0  0  0  0  0  0  0  0  0  0
  128.9120  125.7760   71.4670 C   0  0  0  0  0  0  0  0  0  0  0  0
  128.1170  124.6410   72.5930 S   0  0  0  0  0  0  0  0  0  0  0  0
  129.4040  123.6040   73.3520 C   0  0  0  0  0  0  0  0  0  0  0  0
  129.2530  122.1280   72.9800 C   0  0  0  0  0  0  0  0  0  0  0  0
  130.2470  121.4000   73.0000 O   0  0  0  0  0  0  0  0  0  0  0  0
  128.0110  121.7350   72.6230 N   0  0  0  0  0  0  0  0  0  0  0  0
  127.6260  120.4640   72.2310 C   0  0  0  0  0  0  0  0  0  0  0  0
  126.9510  119.4640   72.9450 C   0  0  0  0  0  0  0  0  0  0  0  0
  126.8350  118.4180   72.0580 C   0  0  0  0  0  0  0  0  0  0  0  0
  127.4000  118.7720   70.8790 O   0  0  0  0  0  0  0  0  0  0  0  0
  127.8920  120.0740   71.0030 N   0  0  0  0  0  0  0  0  0  0  0  0
  128.5630  125.6460   70.1610 N   0  0  0  0  0  0  0  0  0  0  0  0
  127.6899  125.7945   67.7996 H   0  0  0  0  0  0  0  0  0  0  0  0
  128.6428  127.2325   67.2990 H   0  0  0  0  0  0  0  0  0  0  0  0
  129.4047  125.6058   67.2990 H   0  0  0  0  0  0  0  0  0  0  0  0
  130.4941  128.0934   68.8195 H   0  0  0  0  0  0  0  0  0  0  0  0
  130.3888  123.9560   73.0111 H   0  0  0  0  0  0  0  0  0  0  0  0
  129.3039  123.6882   74.4442 H   0  0  0  0  0  0  0  0  0  0  0  0
  127.2840  122.4350   72.6070 H   0  0  0  0  0  0  0  0  0  0  0  0
  126.5932  119.5061   73.9843 H   0  0  0  0  0  0  0  0  0  0  0  0
  126.3595  117.4495   72.2723 H   0  0  0  0  0  0  0  0  0  0  0  0
  1  2  1  0
  2  3  2  0
  3  4  1  0
  4  5  1  0
  5  6  1  0
  5  7  1  0
  5  8  1  0
  4  9  2  0
  9 10  1  0
 10 11  3  0
  9 12  1  0
 12 13  1  0
 13 14  1  0
 14 15  1  0
 15 16  2  0
 15 17  1  0
 17 18  1  0
 18 19  1  0
 19 20  2  0
 20 21  1  0
 21 22  1  0
 12 23  2  0
 23  2  1  0
 22 18  2  0
  1 24  1  0
  1 25  1  0
  1 26  1  0
  3 27  1  0
 14 28  1  0
 14 29  1  0
 17 30  1  0
 19 31  1  0
 20 32  1  0
M  END
>  <Binding energies>  (1) 
[-6.41]

>  <Ligand effiencies>  (1) 
[-0.26708333333333334]

>  <Interactions>  (1) 
["V-B:GLU:543:CD:9879, V-A:HIS:456:CE1:4069, V-A:GLU:543:C:4902, V-A:HIS:456:CG:4065, V-A:GLU:543:CB:4906, V-A:GLY:544:C:4912, V-A:HIS:456:CD2:4067, V-A:ARG:545:CG:4922, V-B:GLU:543:C:9873, V-B:GLU:543:CG:9878, V-B:GLU:543:CB:9877, V-A:ARG:545:CA:4919, V-A:ARG:545:CB:4921, H-B:LYS:547:NZ:9922, H-A:LYS:547:NZ:4951, V-A:GLU:543:CA:4904, H-B:GLU:543:O:9874, H-B:GLY:544:O:9884, V-B:GLY:544:CA:9885, V-A:TYR:484:CB:4340, V-A:GLY:544:CA:4914, H-A:TYR:484:N:4339, V-A:ARG:545:C:4917"]

$$$$
2j_Grossjean_2025
     RDKit          3D

 32 33  0  0  0  0  0  0  0  0999 V2000
  128.7860  131.2560   59.9550 C   0  0  0  0  0  0  0  0  0  0  0  0
  127.7130  132.2730   60.2980 C   0  0  0  0  0  0  0  0  0  0  0  0
  128.0200  133.4650   60.9490 C   0  0  0  0  0  0  0  0  0  0  0  0
  126.9930  134.3750   61.2420 C   0  0  0  0  0  0  0  0  0  0  0  0
  127.3500  135.6890   61.9630 C   0  0  0  0  0  0  0  0  0  0  0  0
  127.1380  135.5630   63.2730 F   0  0  0  0  0  0  0  0  0  0  0  0
  128.6340  135.9890   61.7590 F   0  0  0  0  0  0  0  0  0  0  0  0
  126.6240  136.7250   61.5360 F   0  0  0  0  0  0  0  0  0  0  0  0
  125.6680  134.0450   60.8620 C   0  0  0  0  0  0  0  0  0  0  0  0
  124.5560  134.9590   61.1430 C   0  0  0  0  0  0  0  0  0  0  0  0
  123.6790  135.6810   61.3640 N   0  0  0  0  0  0  0  0  0  0  0  0
  125.4470  132.8120   60.2040 C   0  0  0  0  0  0  0  0  0  0  0  0
  123.8200  132.2940   59.6780 S   0  0  0  0  0  0  0  0  0  0  0  0
  123.1600  131.1260   60.9150 C   0  0  0  0  0  0  0  0  0  0  0  0
  123.7130  131.3090   62.3360 C   0  0  0  0  0  0  0  0  0  0  0  0
  123.8970  132.4370   62.7990 O   0  0  0  0  0  0  0  0  0  0  0  0
  123.9780  130.1590   62.9940 N   0  0  0  0  0  0  0  0  0  0  0  0
  124.4800  130.0360   64.2830 C   0  0  0  0  0  0  0  0  0  0  0  0
  123.8050  129.9890   65.4110 N   0  0  0  0  0  0  0  0  0  0  0  0
  124.6060  129.8670   66.4510 C   0  0  0  0  0  0  0  0  0  0  0  0
  125.9690  129.8120   66.1760 C   0  0  0  0  0  0  0  0  0  0  0  0
  126.2030  129.9280   64.4570 S   0  0  0  0  0  0  0  0  0  0  0  0
  126.4550  131.9450   59.9280 N   0  0  0  0  0  0  0  0  0  0  0  0
  129.2154  130.8491   60.8824 H   0  0  0  0  0  0  0  0  0  0  0  0
  128.3423  130.4390   59.3670 H   0  0  0  0  0  0  0  0  0  0  0  0
  129.5780  131.7428   59.3670 H   0  0  0  0  0  0  0  0  0  0  0  0
  129.0588  133.6913   61.2312 H   0  0  0  0  0  0  0  0  0  0  0  0
  122.0678  131.2510   60.9545 H   0  0  0  0  0  0  0  0  0  0  0  0
  123.4716  130.1226   60.5893 H   0  0  0  0  0  0  0  0  0  0  0  0
  123.7980  129.2920   62.5090 H   0  0  0  0  0  0  0  0  0  0  0  0
  124.2184  129.8118   67.4790 H   0  0  0  0  0  0  0  0  0  0  0  0
  126.7686  129.7115   66.9247 H   0  0  0  0  0  0  0  0  0  0  0  0
  1  2  1  0
  2  3  2  0
  3  4  1  0
  4  5  1  0
  5  6  1  0
  5  7  1  0
  5  8  1  0
  4  9  2  0
  9 10  1  0
 10 11  3  0
  9 12  1  0
 12 13  1  0
 13 14  1  0
 14 15  1  0
 15 16  2  0
 15 17  1  0
 17 18  1  0
 18 19  2  0
 19 20  1  0
 20 21  2  0
 21 22  1  0
 12 23  2  0
 23  2  1  0
 22 18  1  0
  1 24  1  0
  1 25  1  0
  1 26  1  0
  3 27  1  0
 14 28  1  0
 14 29  1  0
 17 30  1  0
 20 31  1  0
 21 32  1  0
M  END
>  <Binding energies>  (1) 
[-6.05]

>  <Ligand effiencies>  (1) 
[-0.2520833333333333]

>  <Interactions>  (1) 
["V-B:ASP:366:CG:8184, V-B:ILE:369:CB:8207, V-A:ALA:541:CB:4892, V-B:TRP:381:CZ2:8341, V-B:ILE:369:CD1:8210, V-B:PRO:482:CB:9297, V-B:PRO:482:CG:9298, V-B:LEU:475:CD1:9229, V-B:ILE:369:CG2:8208, V-B:TRP:381:CH2:8343, V-A:TYR:539:CE2:4876, V-A:TYR:539:CD2:4874, H-B:GLY:454:N:9021, V-B:ASP:366:CB:8183, H-B:ARG:545:NH2:9899, V-A:PRO:540:C:4881, V-A:ALA:541:CA:4890, H-B:ARG:545:NE:9895, V-B:ARG:545:CZ:9897, H-B:ASP:366:OD1:8185, H-B:ASP:366:OD2:8186, V-A:TYR:539:C:4867, V-B:ARG:545:CD:9894, V-B:ASP:366:CA:8181, V-B:TRP:381:CZ3:8342, V-B:TRP:381:CE2:8338"]

$$$$
2k_Grossjean_2025
     RDKit          3D

 50 50  0  0  0  0  0  0  0  0999 V2000
  128.6770  125.5840   72.0460 C   0  0  0  0  0  0  0  0  0  0  0  0
  128.6370  125.8880   73.4310 O   0  0  0  0  0  0  0  0  0  0  0  0
  129.9120  126.1970   73.9800 C   0  0  0  0  0  0  0  0  0  0  0  0
  130.8280  126.7520   72.8820 C   0  0  0  0  0  0  0  0  0  0  0  0
  130.8310  128.1700   72.9550 O   0  0  0  0  0  0  0  0  0  0  0  0
  130.6860  128.8200   71.6970 C   0  0  0  0  0  0  0  0  0  0  0  0
  131.7620  128.2810   70.7460 C   0  0  0  0  0  0  0  0  0  0  0  0
  131.1750  128.1350   69.4630 O   0  0  0  0  0  0  0  0  0  0  0  0
  129.8330  127.6740   69.4610 C   0  0  0  0  0  0  0  0  0  0  0  0
  129.6770  126.5920   68.3770 C   0  0  0  0  0  0  0  0  0  0  0  0
  130.7550  126.6180   67.3840 N   0  0  0  0  0  0  0  0  0  0  0  0
  130.9370  125.7150   66.4020 C   0  0  0  0  0  0  0  0  0  0  0  0
  130.1810  124.7600   66.2100 O   0  0  0  0  0  0  0  0  0  0  0  0
  132.1790  125.9270   65.5240 C   0  0  0  0  0  0  0  0  0  0  0  0
  133.1070  124.4120   65.1000 S   0  0  0  0  0  0  0  0  0  0  0  0
  132.6460  123.8720   63.4600 C   0  0  0  0  0  0  0  0  0  0  0  0
  133.3440  124.4300   62.4380 N   0  0  0  0  0  0  0  0  0  0  0  0
  133.0450  124.0710   61.1700 C   0  0  0  0  0  0  0  0  0  0  0  0
  133.8610  124.7470   60.0850 C   0  0  0  0  0  0  0  0  0  0  0  0
  132.0560  123.1400   60.8660 C   0  0  0  0  0  0  0  0  0  0  0  0
  131.3270  122.5440   61.9060 C   0  0  0  0  0  0  0  0  0  0  0  0
  130.2390  121.5110   61.5530 C   0  0  0  0  0  0  0  0  0  0  0  0
  130.3170  120.4040   62.2930 F   0  0  0  0  0  0  0  0  0  0  0  0
  129.0290  122.0380   61.7460 F   0  0  0  0  0  0  0  0  0  0  0  0
  130.3530  121.1480   60.2750 F   0  0  0  0  0  0  0  0  0  0  0  0
  131.6240  122.9170   63.2420 C   0  0  0  0  0  0  0  0  0  0  0  0
  130.8920  122.3290   64.3680 C   0  0  0  0  0  0  0  0  0  0  0  0
  130.3130  121.8630   65.2560 N   0  0  0  0  0  0  0  0  0  0  0  0
  128.8194  124.5015   71.9122 H   0  0  0  0  0  0  0  0  0  0  0  0
  127.7308  125.8902   71.5759 H   0  0  0  0  0  0  0  0  0  0  0  0
  129.5118  126.1245   71.5759 H   0  0  0  0  0  0  0  0  0  0  0  0
  129.7955  126.9496   74.7737 H   0  0  0  0  0  0  0  0  0  0  0  0
  130.3588  125.2834   74.3992 H   0  0  0  0  0  0  0  0  0  0  0  0
  131.8503  126.3731   73.0282 H   0  0  0  0  0  0  0  0  0  0  0  0
  130.4617  126.4316   71.8955 H   0  0  0  0  0  0  0  0  0  0  0  0
  129.6877  128.6121   71.2844 H   0  0  0  0  0  0  0  0  0  0  0  0
  130.7996  129.9074   71.8184 H   0  0  0  0  0  0  0  0  0  0  0  0
  132.6032  128.9878   70.6941 H   0  0  0  0  0  0  0  0  0  0  0  0
  132.1425  127.3138   71.1061 H   0  0  0  0  0  0  0  0  0  0  0  0
  129.5877  127.2483   70.4452 H   0  0  0  0  0  0  0  0  0  0  0  0
  129.1522  128.5120   69.2507 H   0  0  0  0  0  0  0  0  0  0  0  0
  129.6725  125.6057   68.8640 H   0  0  0  0  0  0  0  0  0  0  0  0
  128.7347  126.7913   67.8457 H   0  0  0  0  0  0  0  0  0  0  0  0
  131.4130  127.3790   67.4620 H   0  0  0  0  0  0  0  0  0  0  0  0
  131.8543  126.3999   64.5854 H   0  0  0  0  0  0  0  0  0  0  0  0
  132.8669  126.5476   66.1170 H   0  0  0  0  0  0  0  0  0  0  0  0
  134.6296  125.3838   60.5473 H   0  0  0  0  0  0  0  0  0  0  0  0
  134.3456  123.9821   59.4604 H   0  0  0  0  0  0  0  0  0  0  0  0
  133.1996  125.3654   59.4604 H   0  0  0  0  0  0  0  0  0  0  0  0
  131.8477  122.8738   59.8192 H   0  0  0  0  0  0  0  0  0  0  0  0
  1  2  1  0
  2  3  1  0
  3  4  1  0
  4  5  1  0
  5  6  1  0
  6  7  1  0
  7  8  1  0
  8  9  1  0
  9 10  1  0
 10 11  1  0
 11 12  1  0
 12 13  2  0
 12 14  1  0
 14 15  1  0
 15 16  1  0
 16 17  2  0
 17 18  1  0
 18 19  1  0
 18 20  2  0
 20 21  1  0
 21 22  1  0
 22 23  1  0
 22 24  1  0
 22 25  1  0
 21 26  2  0
 26 27  1  0
 27 28  3  0
 26 16  1  0
  1 29  1  0
  1 30  1  0
  1 31  1  0
  3 32  1  0
  3 33  1  0
  4 34  1  0
  4 35  1  0
  6 36  1  0
  6 37  1  0
  7 38  1  0
  7 39  1  0
  9 40  1  0
  9 41  1  0
 10 42  1  0
 10 43  1  0
 11 44  1  0
 14 45  1  0
 14 46  1  0
 19 47  1  0
 19 48  1  0
 19 49  1  0
 20 50  1  0
M  END
>  <Binding energies>  (1) 
[-5.32]

>  <Ligand effiencies>  (1) 
[-0.18344827586206897]

>  <Interactions>  (1) 
["V-A:ARG:545:CZ:4926, V-A:ASP:366:CG:3212, V-A:LEU:475:CD2:4258, V-A:GLU:543:CD:4908, V-A:ILE:369:CD1:3238, V-A:HIS:456:CE1:4069, V-B:TYR:539:CD2:9845, V-A:HIS:456:CG:4065, V-A:ILE:369:CG2:3236, V-A:GLU:543:CB:4906, V-B:TYR:539:CE2:9847, V-A:ILE:369:CB:3235, V-A:ASP:366:CB:3211, V-A:ASP:366:CA:3209, V-A:GLY:544:C:4912, V-A:HIS:456:CD2:4067, V-B:ALA:541:CB:9863, V-A:ARG:545:CG:4922, V-A:ARG:545:CA:4919, H-B:LYS:547:NZ:9922, H-A:LYS:547:NZ:4951, H-A:TYR:484:OH:4347, V-B:ALA:541:CA:9861, H-A:GLY:454:N:4049, V-A:LEU:475:CD1:4257, H-A:GLU:543:OE2:4910"]

$$$$
3aa_Grossjean_2025
     RDKit          3D

 52 54  0  0  0  0  0  0  0  0999 V2000
  128.6990  123.6050   73.0430 C   0  0  0  0  0  0  0  0  0  0  0  0
  129.5480  124.6160   73.8190 C   0  0  0  0  0  0  0  0  0  0  0  0
  128.9890  125.9160   73.6730 O   0  0  0  0  0  0  0  0  0  0  0  0
  129.7260  126.9410   73.1730 C   0  0  0  0  0  0  0  0  0  0  0  0
  130.3950  127.7040   73.8760 O   0  0  0  0  0  0  0  0  0  0  0  0
  129.6330  127.0660   71.6790 C   0  0  0  0  0  0  0  0  0  0  0  0
  130.4050  127.9910   70.9610 C   0  0  0  0  0  0  0  0  0  0  0  0
  130.2970  128.0770   69.5750 C   0  0  0  0  0  0  0  0  0  0  0  0
  129.4240  127.2390   68.8800 C   0  0  0  0  0  0  0  0  0  0  0  0
  129.3950  127.4050   67.4810 N   0  0  0  0  0  0  0  0  0  0  0  0
  129.3750  126.4730   66.5030 C   0  0  0  0  0  0  0  0  0  0  0  0
  129.4030  125.2540   66.6780 O   0  0  0  0  0  0  0  0  0  0  0  0
  129.3250  127.0160   65.0750 C   0  0  0  0  0  0  0  0  0  0  0  0
  130.8140  126.5710   64.1310 S   0  0  0  0  0  0  0  0  0  0  0  0
  130.4290  125.0950   63.2150 C   0  0  0  0  0  0  0  0  0  0  0  0
  129.1160  124.9770   62.9030 N   0  0  0  0  0  0  0  0  0  0  0  0
  128.6850  123.8940   62.2060 C   0  0  0  0  0  0  0  0  0  0  0  0
  127.2220  123.8430   61.8870 C   0  0  0  0  0  0  0  0  0  0  0  0
  126.7380  124.3450   60.6680 C   0  0  0  0  0  0  0  0  0  0  0  0
  125.3790  124.3000   60.3640 C   0  0  0  0  0  0  0  0  0  0  0  0
  124.4860  123.7510   61.2770 C   0  0  0  0  0  0  0  0  0  0  0  0
  124.9400  123.2450   62.4900 C   0  0  0  0  0  0  0  0  0  0  0  0
  126.2990  123.2890   62.7900 C   0  0  0  0  0  0  0  0  0  0  0  0
  129.5800  122.9000   61.7970 C   0  0  0  0  0  0  0  0  0  0  0  0
  130.9420  122.9920   62.1230 C   0  0  0  0  0  0  0  0  0  0  0  0
  131.8930  121.8710   61.6650 C   0  0  0  0  0  0  0  0  0  0  0  0
  131.2460  120.7940   61.2140 F   0  0  0  0  0  0  0  0  0  0  0  0
  132.6760  122.3080   60.6770 F   0  0  0  0  0  0  0  0  0  0  0  0
  132.6610  121.4820   62.6830 F   0  0  0  0  0  0  0  0  0  0  0  0
  131.3840  124.1150   62.8650 C   0  0  0  0  0  0  0  0  0  0  0  0
  132.7830  124.2350   63.2840 C   0  0  0  0  0  0  0  0  0  0  0  0
  133.8890  124.3300   63.6150 N   0  0  0  0  0  0  0  0  0  0  0  0
  128.6390  126.3200   69.5930 C   0  0  0  0  0  0  0  0  0  0  0  0
  128.7460  126.2370   70.9770 C   0  0  0  0  0  0  0  0  0  0  0  0
  128.1578  122.9605   73.7513 H   0  0  0  0  0  0  0  0  0  0  0  0
  127.9769  124.1417   72.4102 H   0  0  0  0  0  0  0  0  0  0  0  0
  129.3525  122.9866   72.4102 H   0  0  0  0  0  0  0  0  0  0  0  0
  129.5634  124.3410   74.8840 H   0  0  0  0  0  0  0  0  0  0  0  0
  130.5747  124.6120   73.4243 H   0  0  0  0  0  0  0  0  0  0  0  0
  131.1010  128.6535   71.4965 H   0  0  0  0  0  0  0  0  0  0  0  0
  130.9041  128.8106   69.0244 H   0  0  0  0  0  0  0  0  0  0  0  0
  129.4420  128.3670   67.1770 H   0  0  0  0  0  0  0  0  0  0  0  0
  128.4432  126.5994   64.5663 H   0  0  0  0  0  0  0  0  0  0  0  0
  129.2690  128.1133   65.1282 H   0  0  0  0  0  0  0  0  0  0  0  0
  127.4417  124.7799   59.9430 H   0  0  0  0  0  0  0  0  0  0  0  0
  125.0142  124.6973   59.4053 H   0  0  0  0  0  0  0  0  0  0  0  0
  123.4128  123.7166   61.0382 H   0  0  0  0  0  0  0  0  0  0  0  0
  124.2290  122.8121   63.2091 H   0  0  0  0  0  0  0  0  0  0  0  0
  126.6554  122.8839   63.7485 H   0  0  0  0  0  0  0  0  0  0  0  0
  129.2140  122.0406   61.2161 H   0  0  0  0  0  0  0  0  0  0  0  0
  127.9378  125.6641   69.0562 H   0  0  0  0  0  0  0  0  0  0  0  0
  128.1277  125.5127   71.5276 H   0  0  0  0  0  0  0  0  0  0  0  0
  1  2  1  0
  2  3  1  0
  3  4  1  0
  4  5  2  0
  4  6  1  0
  6  7  2  0
  7  8  1  0
  8  9  2  0
  9 10  1  0
 10 11  1  0
 11 12  2  0
 11 13  1  0
 13 14  1  0
 14 15  1  0
 15 16  2  0
 16 17  1  0
 17 18  1  0
 18 19  2  0
 19 20  1  0
 20 21  2  0
 21 22  1  0
 22 23  2  0
 17 24  2  0
 24 25  1  0
 25 26  1  0
 26 27  1  0
 26 28  1  0
 26 29  1  0
 25 30  2  0
 30 31  1  0
 31 32  3  0
  9 33  1  0
 33 34  2  0
 34  6  1  0
 30 15  1  0
 23 18  1  0
  1 35  1  0
  1 36  1  0
  1 37  1  0
  2 38  1  0
  2 39  1  0
  7 40  1  0
  8 41  1  0
 10 42  1  0
 13 43  1  0
 13 44  1  0
 19 45  1  0
 20 46  1  0
 21 47  1  0
 22 48  1  0
 23 49  1  0
 24 50  1  0
 33 51  1  0
 34 52  1  0
M  END
>  <Binding energies>  (1) 
[-8.2]

>  <Ligand effiencies>  (1) 
[-0.23428571428571426]

>  <Interactions>  (1) 
["V-B:HIS:456:CE1:9041, V-B:GLU:543:CD:9879, V-A:LEU:475:CD2:4258, V-A:GLU:543:CD:4908, V-A:GLU:543:CG:4907, H-A:ARG:545:NH2:4928, V-A:HIS:456:CE1:4069, V-B:TYR:539:CD2:9845, V-A:ILE:369:CG2:3236, V-A:GLU:543:CB:4906, V-B:TYR:539:CE2:9847, V-A:HIS:456:CD2:4067, V-B:ALA:541:CB:9863, V-B:GLU:543:CG:9878, V-B:GLU:543:CB:9877, H-B:LYS:547:NZ:9922, V-B:LYS:547:CE:9921, H-A:LYS:547:NZ:4951, V-B:ALA:541:CA:9861, V-B:PRO:540:CA:9854, H-A:GLY:454:N:4049, V-B:PRO:540:CB:9856, H-A:GLU:543:OE2:4910, V-B:ASN:362:CB:8147, V-B:ALA:541:C:9859, V-B:ASN:362:C:8143"]

$$$$
3ab_Grossjean_2025
     RDKit          3D

 49 51  0  0  0  0  0  0  0  0999 V2000
  129.6240  129.4980   73.3730 C   0  0  0  0  0  0  0  0  0  0  0  0
  130.2000  128.1990   73.3830 O   0  0  0  0  0  0  0  0  0  0  0  0
  129.4790  127.1120   73.0080 C   0  0  0  0  0  0  0  0  0  0  0  0
  128.9450  126.3400   73.8090 O   0  0  0  0  0  0  0  0  0  0  0  0
  129.3920  126.9440   71.5180 C   0  0  0  0  0  0  0  0  0  0  0  0
  130.0550  127.8070   70.6330 C   0  0  0  0  0  0  0  0  0  0  0  0
  129.9580  127.6260   69.2560 C   0  0  0  0  0  0  0  0  0  0  0  0
  129.1890  126.5720   68.7380 C   0  0  0  0  0  0  0  0  0  0  0  0
  129.0240  126.2920   67.3680 N   0  0  0  0  0  0  0  0  0  0  0  0
  129.9350  125.9170   66.4450 C   0  0  0  0  0  0  0  0  0  0  0  0
  131.1380  125.7580   66.6510 O   0  0  0  0  0  0  0  0  0  0  0  0
  129.3840  125.6820   65.0370 C   0  0  0  0  0  0  0  0  0  0  0  0
  130.6740  125.1360   63.8790 S   0  0  0  0  0  0  0  0  0  0  0  0
  129.9790  123.8380   62.8770 C   0  0  0  0  0  0  0  0  0  0  0  0
  128.7400  124.1200   62.4090 N   0  0  0  0  0  0  0  0  0  0  0  0
  128.0920  123.2200   61.6250 C   0  0  0  0  0  0  0  0  0  0  0  0
  126.7260  123.6100   61.1460 C   0  0  0  0  0  0  0  0  0  0  0  0
  126.4620  123.7630   59.7750 C   0  0  0  0  0  0  0  0  0  0  0  0
  125.1950  124.1240   59.3240 C   0  0  0  0  0  0  0  0  0  0  0  0
  124.1710  124.3390   60.2410 C   0  0  0  0  0  0  0  0  0  0  0  0
  124.4060  124.1970   61.6040 C   0  0  0  0  0  0  0  0  0  0  0  0
  125.6740  123.8360   62.0510 C   0  0  0  0  0  0  0  0  0  0  0  0
  128.6810  121.9890   61.3120 C   0  0  0  0  0  0  0  0  0  0  0  0
  129.9540  121.6660   61.8010 C   0  0  0  0  0  0  0  0  0  0  0  0
  130.5640  120.2990   61.4360 C   0  0  0  0  0  0  0  0  0  0  0  0
  131.8980  120.3260   61.3770 F   0  0  0  0  0  0  0  0  0  0  0  0
  130.2240  119.3860   62.3470 F   0  0  0  0  0  0  0  0  0  0  0  0
  130.1170  119.9050   60.2430 F   0  0  0  0  0  0  0  0  0  0  0  0
  130.6270  122.6100   62.6160 C   0  0  0  0  0  0  0  0  0  0  0  0
  131.9350  122.3000   63.1990 C   0  0  0  0  0  0  0  0  0  0  0  0
  132.9680  122.0510   63.6580 N   0  0  0  0  0  0  0  0  0  0  0  0
  128.5320  125.7090   69.6160 C   0  0  0  0  0  0  0  0  0  0  0  0
  128.6300  125.8930   70.9910 C   0  0  0  0  0  0  0  0  0  0  0  0
  129.4724  129.8399   74.4075 H   0  0  0  0  0  0  0  0  0  0  0  0
  130.2979  130.1939   72.8519 H   0  0  0  0  0  0  0  0  0  0  0  0
  128.6558  129.4658   72.8519 H   0  0  0  0  0  0  0  0  0  0  0  0
  130.6583  128.6360   71.0314 H   0  0  0  0  0  0  0  0  0  0  0  0
  130.4843  128.3094   68.5734 H   0  0  0  0  0  0  0  0  0  0  0  0
  128.0820  126.4300   67.0310 H   0  0  0  0  0  0  0  0  0  0  0  0
  128.6022  124.9098   65.0866 H   0  0  0  0  0  0  0  0  0  0  0  0
  128.9802  126.6364   64.6681 H   0  0  0  0  0  0  0  0  0  0  0  0
  127.2686  123.5950   59.0462 H   0  0  0  0  0  0  0  0  0  0  0  0
  125.0044  124.2388   58.2467 H   0  0  0  0  0  0  0  0  0  0  0  0
  123.1695  124.6230   59.8856 H   0  0  0  0  0  0  0  0  0  0  0  0
  123.5939  124.3691   62.3257 H   0  0  0  0  0  0  0  0  0  0  0  0
  125.8559  123.7257   63.1302 H   0  0  0  0  0  0  0  0  0  0  0  0
  128.1409  121.2705   60.6780 H   0  0  0  0  0  0  0  0  0  0  0  0
  127.9323  124.8773   69.2177 H   0  0  0  0  0  0  0  0  0  0  0  0
  128.1043  125.2068   71.6713 H   0  0  0  0  0  0  0  0  0  0  0  0
  1  2  1  0
  2  3  1  0
  3  4  2  0
  3  5  1  0
  5  6  2  0
  6  7  1  0
  7  8  2  0
  8  9  1  0
  9 10  1  0
 10 11  2  0
 10 12  1  0
 12 13  1  0
 13 14  1  0
 14 15  2  0
 15 16  1  0
 16 17  1  0
 17 18  2  0
 18 19  1  0
 19 20  2  0
 20 21  1  0
 21 22  2  0
 16 23  2  0
 23 24  1  0
 24 25  1  0
 25 26  1  0
 25 27  1  0
 25 28  1  0
 24 29  2  0
 29 30  1  0
 30 31  3  0
  8 32  1  0
 32 33  2  0
 33  5  1  0
 29 14  1  0
 22 17  1  0
  1 34  1  0
  1 35  1  0
  1 36  1  0
  6 37  1  0
  7 38  1  0
  9 39  1  0
 12 40  1  0
 12 41  1  0
 18 42  1  0
 19 43  1  0
 20 44  1  0
 21 45  1  0
 22 46  1  0
 23 47  1  0
 32 48  1  0
 33 49  1  0
M  END
>  <Binding energies>  (1) 
[-8.32]

>  <Ligand effiencies>  (1) 
[-0.2447058823529412]

>  <Interactions>  (1) 
["V-B:ASP:366:CG:8184, V-B:HIS:456:CE1:9041, V-B:GLU:543:CD:9879, V-A:LEU:475:CD2:4258, V-A:HIS:456:CE1:4069, V-B:TYR:539:CD2:9845, V-A:GLU:543:CB:4906, V-B:TYR:539:CE2:9847, V-B:ALA:541:CB:9863, V-B:GLU:543:C:9873, V-B:GLU:543:CG:9878, V-B:GLU:543:CB:9877, H-B:GLU:543:OE2:9881, H-B:GLU:543:OE1:9880, H-B:LYS:547:NZ:9922, H-A:LYS:547:NZ:4951, V-B:PRO:540:C:9852, H-A:TYR:484:OH:4347, V-B:ALA:541:CA:9861, V-B:TYR:539:C:9838, V-B:PRO:540:CA:9854, V-A:TRP:381:CH2:3371, H-A:GLY:454:N:4049, V-B:PRO:540:CB:9856, V-A:LEU:475:CD1:4257, V-B:LEU:363:CA:8156, V-B:TYR:539:CG:9843, V-B:ASN:362:CB:8147, V-A:PRO:482:CB:4325, V-A:PRO:482:CG:4326, V-B:ASN:362:C:8143, V-A:LEU:475:CG:4256"]

$$$$
3ac_Grossjean_2025
     RDKit          3D

 47 49  0  0  0  0  0  0  0  0999 V2000
  129.7390  130.0440   74.0970 C   0  0  0  0  0  0  0  0  0  0  0  0
  130.4880  128.9040   73.6880 O   0  0  0  0  0  0  0  0  0  0  0  0
  130.3760  128.4540   72.3860 C   0  0  0  0  0  0  0  0  0  0  0  0
  131.3790  128.8510   71.5020 C   0  0  0  0  0  0  0  0  0  0  0  0
  131.3530  128.4440   70.1720 C   0  0  0  0  0  0  0  0  0  0  0  0
  130.3150  127.6370   69.7030 C   0  0  0  0  0  0  0  0  0  0  0  0
  130.3860  127.2600   68.3490 N   0  0  0  0  0  0  0  0  0  0  0  0
  129.8330  126.1930   67.7320 C   0  0  0  0  0  0  0  0  0  0  0  0
  129.1050  125.3580   68.2710 O   0  0  0  0  0  0  0  0  0  0  0  0
  130.1580  126.0500   66.2450 C   0  0  0  0  0  0  0  0  0  0  0  0
  130.1410  124.3140   65.7010 S   0  0  0  0  0  0  0  0  0  0  0  0
  130.0690  124.2740   63.9200 C   0  0  0  0  0  0  0  0  0  0  0  0
  128.8090  124.1440   63.4400 N   0  0  0  0  0  0  0  0  0  0  0  0
  128.5960  124.1050   62.1000 C   0  0  0  0  0  0  0  0  0  0  0  0
  127.1720  123.9520   61.6520 C   0  0  0  0  0  0  0  0  0  0  0  0
  126.1920  123.4590   62.5290 C   0  0  0  0  0  0  0  0  0  0  0  0
  124.8690  123.3200   62.1210 C   0  0  0  0  0  0  0  0  0  0  0  0
  124.5060  123.6710   60.8250 C   0  0  0  0  0  0  0  0  0  0  0  0
  125.4570  124.1570   59.9350 C   0  0  0  0  0  0  0  0  0  0  0  0
  126.7800  124.2940   60.3470 C   0  0  0  0  0  0  0  0  0  0  0  0
  129.6650  124.1790   61.2020 C   0  0  0  0  0  0  0  0  0  0  0  0
  130.9810  124.2910   61.6730 C   0  0  0  0  0  0  0  0  0  0  0  0
  132.1310  124.3640   60.6480 C   0  0  0  0  0  0  0  0  0  0  0  0
  132.8550  125.4790   60.7620 F   0  0  0  0  0  0  0  0  0  0  0  0
  132.9620  123.3330   60.8120 F   0  0  0  0  0  0  0  0  0  0  0  0
  131.6370  124.3280   59.4100 F   0  0  0  0  0  0  0  0  0  0  0  0
  131.2000  124.3260   63.0730 C   0  0  0  0  0  0  0  0  0  0  0  0
  132.5610  124.3650   63.6120 C   0  0  0  0  0  0  0  0  0  0  0  0
  133.6370  124.3940   64.0380 N   0  0  0  0  0  0  0  0  0  0  0  0
  129.3050  127.2270   70.5880 C   0  0  0  0  0  0  0  0  0  0  0  0
  129.3350  127.6360   71.9180 C   0  0  0  0  0  0  0  0  0  0  0  0
  129.7097  130.0886   75.1957 H   0  0  0  0  0  0  0  0  0  0  0  0
  130.2150  130.9552   73.7056 H   0  0  0  0  0  0  0  0  0  0  0  0
  128.7137  129.9688   73.7056 H   0  0  0  0  0  0  0  0  0  0  0  0
  132.1983  129.4919   71.8598 H   0  0  0  0  0  0  0  0  0  0  0  0
  132.1538  128.7594   69.4870 H   0  0  0  0  0  0  0  0  0  0  0  0
  130.8820  127.9120   67.7590 H   0  0  0  0  0  0  0  0  0  0  0  0
  129.4111  126.6106   65.6637 H   0  0  0  0  0  0  0  0  0  0  0  0
  131.1716  126.4449   66.0816 H   0  0  0  0  0  0  0  0  0  0  0  0
  126.4747  123.1784   63.5543 H   0  0  0  0  0  0  0  0  0  0  0  0
  124.1131  122.9340   62.8207 H   0  0  0  0  0  0  0  0  0  0  0  0
  123.4599  123.5634   60.5022 H   0  0  0  0  0  0  0  0  0  0  0  0
  125.1658  124.4319   58.9105 H   0  0  0  0  0  0  0  0  0  0  0  0
  127.5303  124.6762   59.6392 H   0  0  0  0  0  0  0  0  0  0  0  0
  129.4725  124.1492   60.1194 H   0  0  0  0  0  0  0  0  0  0  0  0
  128.4892  126.5819   70.2298 H   0  0  0  0  0  0  0  0  0  0  0  0
  128.5387  127.3167   72.6065 H   0  0  0  0  0  0  0  0  0  0  0  0
  1  2  1  0
  2  3  1  0
  3  4  2  0
  4  5  1  0
  5  6  2  0
  6  7  1  0
  7  8  1  0
  8  9  2  0
  8 10  1  0
 10 11  1  0
 11 12  1  0
 12 13  2  0
 13 14  1  0
 14 15  1  0
 15 16  2  0
 16 17  1  0
 17 18  2  0
 18 19  1  0
 19 20  2  0
 14 21  2  0
 21 22  1  0
 22 23  1  0
 23 24  1  0
 23 25  1  0
 23 26  1  0
 22 27  2  0
 27 28  1  0
 28 29  3  0
  6 30  1  0
 30 31  2  0
 31  3  1  0
 27 12  1  0
 20 15  1  0
  1 32  1  0
  1 33  1  0
  1 34  1  0
  4 35  1  0
  5 36  1  0
  7 37  1  0
 10 38  1  0
 10 39  1  0
 16 40  1  0
 17 41  1  0
 18 42  1  0
 19 43  1  0
 20 44  1  0
 21 45  1  0
 30 46  1  0
 31 47  1  0
M  END
>  <Binding energies>  (1) 
[-7.91]

>  <Ligand effiencies>  (1) 
[-0.2471875]

>  <Interactions>  (1) 
["V-B:HIS:456:CE1:9041, V-B:GLU:543:CD:9879, V-A:ASP:366:CG:3212, V-A:GLU:543:CD:4908, V-A:ILE:369:CD1:3238, V-A:HIS:456:CE1:4069, V-A:GLU:543:C:4902, V-A:ILE:369:CG2:3236, V-A:GLU:543:CB:4906, V-B:TYR:539:CE2:9847, V-A:ILE:369:CB:3235, V-A:ASP:366:CB:3211, V-A:GLY:544:C:4912, V-B:ALA:541:CB:9863, V-A:ARG:545:CG:4922, V-B:GLU:543:CG:9878, V-A:ARG:545:CA:4919, H-A:LYS:547:NZ:4951, H-A:TYR:484:OH:4347, V-B:ALA:541:CA:9861, V-A:LYS:547:CE:4950, V-B:PRO:540:CA:9854, H-A:GLY:454:N:4049, V-B:PRO:540:CB:9856, H-A:GLU:543:OE2:4910, V-B:ASN:362:CB:8147, V-B:ASN:362:C:8143"]

$$$$
3ad_Grossjean_2025
     RDKit          3D

 43 45  0  0  0  0  0  0  0  0999 V2000
  129.6500  127.3370   62.9930 N   0  0  0  0  0  0  0  0  0  0  0  0
  129.4990  127.2450   64.1370 C   0  0  0  0  0  0  0  0  0  0  0  0
  129.3060  127.1310   65.5860 C   0  0  0  0  0  0  0  0  0  0  0  0
  128.5170  128.0750   66.2870 C   0  0  0  0  0  0  0  0  0  0  0  0
  127.7850  129.2340   65.5840 C   0  0  0  0  0  0  0  0  0  0  0  0
  128.5760  129.9210   64.7590 F   0  0  0  0  0  0  0  0  0  0  0  0
  126.7670  128.7590   64.8640 F   0  0  0  0  0  0  0  0  0  0  0  0
  127.3100  130.0920   66.4890 F   0  0  0  0  0  0  0  0  0  0  0  0
  128.4020  127.9480   67.6800 C   0  0  0  0  0  0  0  0  0  0  0  0
  129.0580  126.9120   68.3530 C   0  0  0  0  0  0  0  0  0  0  0  0
  128.9820  126.7400   69.8410 C   0  0  0  0  0  0  0  0  0  0  0  0
  128.2710  125.6680   70.4030 C   0  0  0  0  0  0  0  0  0  0  0  0
  128.1970  125.5010   71.7830 C   0  0  0  0  0  0  0  0  0  0  0  0
  128.8350  126.4080   72.6230 C   0  0  0  0  0  0  0  0  0  0  0  0
  129.5480  127.4770   72.0910 C   0  0  0  0  0  0  0  0  0  0  0  0
  129.6210  127.6400   70.7100 C   0  0  0  0  0  0  0  0  0  0  0  0
  129.8190  126.0150   67.6770 N   0  0  0  0  0  0  0  0  0  0  0  0
  129.9280  126.1040   66.3300 C   0  0  0  0  0  0  0  0  0  0  0  0
  130.9520  124.8390   65.6120 S   0  0  0  0  0  0  0  0  0  0  0  0
  132.5910  125.5700   65.3250 C   0  0  0  0  0  0  0  0  0  0  0  0
  133.1120  125.2850   63.9140 C   0  0  0  0  0  0  0  0  0  0  0  0
  134.2170  124.7580   63.7790 O   0  0  0  0  0  0  0  0  0  0  0  0
  132.2880  125.6480   62.9080 N   0  0  0  0  0  0  0  0  0  0  0  0
  132.4530  125.5180   61.5170 C   0  0  0  0  0  0  0  0  0  0  0  0
  131.5490  126.2370   60.7290 C   0  0  0  0  0  0  0  0  0  0  0  0
  131.6210  126.1750   59.3400 C   0  0  0  0  0  0  0  0  0  0  0  0
  132.5970  125.3880   58.7350 C   0  0  0  0  0  0  0  0  0  0  0  0
  133.4990  124.6610   59.5070 C   0  0  0  0  0  0  0  0  0  0  0  0
  133.4300  124.7200   60.8960 C   0  0  0  0  0  0  0  0  0  0  0  0
  127.7922  128.6676   68.2460 H   0  0  0  0  0  0  0  0  0  0  0  0
  127.7645  124.9488   69.7426 H   0  0  0  0  0  0  0  0  0  0  0  0
  127.6363  124.6552   72.2076 H   0  0  0  0  0  0  0  0  0  0  0  0
  128.7752  126.2790   73.7138 H   0  0  0  0  0  0  0  0  0  0  0  0
  130.0524  128.1911   72.7586 H   0  0  0  0  0  0  0  0  0  0  0  0
  130.1874  128.4860   70.2934 H   0  0  0  0  0  0  0  0  0  0  0  0
  132.5225  126.6590   65.4641 H   0  0  0  0  0  0  0  0  0  0  0  0
  133.2926  125.1183   66.0418 H   0  0  0  0  0  0  0  0  0  0  0  0
  131.4370  126.1190   63.1790 H   0  0  0  0  0  0  0  0  0  0  0  0
  130.7764  126.8553   61.2094 H   0  0  0  0  0  0  0  0  0  0  0  0
  130.9102  126.7450   58.7237 H   0  0  0  0  0  0  0  0  0  0  0  0
  132.6560  125.3402   57.6376 H   0  0  0  0  0  0  0  0  0  0  0  0
  134.2655  124.0405   59.0198 H   0  0  0  0  0  0  0  0  0  0  0  0
  134.1393  124.1428   61.5074 H   0  0  0  0  0  0  0  0  0  0  0  0
  1  2  3  0
  2  3  1  0
  3  4  2  0
  4  5  1  0
  5  6  1  0
  5  7  1  0
  5  8  1  0
  4  9  1  0
  9 10  2  0
 10 11  1  0
 11 12  2  0
 12 13  1  0
 13 14  2  0
 14 15  1  0
 15 16  2  0
 10 17  1  0
 17 18  2  0
 18 19  1  0
 19 20  1  0
 20 21  1  0
 21 22  2  0
 21 23  1  0
 23 24  1  0
 24 25  2  0
 25 26  1  0
 26 27  2  0
 27 28  1  0
 28 29  2  0
 18  3  1  0
 29 24  1  0
 16 11  1  0
  9 30  1  0
 12 31  1  0
 13 32  1  0
 14 33  1  0
 15 34  1  0
 16 35  1  0
 20 36  1  0
 20 37  1  0
 23 38  1  0
 25 39  1  0
 26 40  1  0
 27 41  1  0
 28 42  1  0
 29 43  1  0
M  END
>  <Binding energies>  (1) 
[-6.93]

>  <Ligand effiencies>  (1) 
[-0.23099999999999998]

>  <Interactions>  (1) 
["V-B:HIS:456:CE1:9041, V-A:ARG:545:CZ:4926, V-B:GLU:543:CD:9879, V-A:ASP:366:CG:3212, V-A:GLU:543:CD:4908, V-A:ILE:369:CD1:3238, V-A:GLU:543:CG:4907, V-A:HIS:456:CE1:4069, V-B:HIS:456:CD2:9039, V-A:ILE:369:CG2:3236, V-A:ILE:369:CB:3235, V-A:ASP:366:CB:3211, V-A:ASP:366:CA:3209, V-B:GLU:543:C:9873, V-B:GLU:543:CG:9878, V-B:GLU:543:CB:9877, H-A:TYR:484:OH:4347, H-A:GLY:454:N:4049, V-A:ASP:366:C:3207"]

$$$$
3af_Grossjean_2025
     RDKit          3D

 42 44  0  0  0  0  0  0  0  0999 V2000
  133.1580  121.8690   61.3270 N   0  0  0  0  0  0  0  0  0  0  0  0
  132.0740  122.1040   60.9980 C   0  0  0  0  0  0  0  0  0  0  0  0
  130.7000  122.4000   60.5820 C   0  0  0  0  0  0  0  0  0  0  0  0
  129.6640  121.4560   60.7860 C   0  0  0  0  0  0  0  0  0  0  0  0
  129.8970  120.1040   61.4890 C   0  0  0  0  0  0  0  0  0  0  0  0
  130.9190  119.4190   60.9710 F   0  0  0  0  0  0  0  0  0  0  0  0
  130.1590  120.3020   62.7820 F   0  0  0  0  0  0  0  0  0  0  0  0
  128.8100  119.3380   61.3800 F   0  0  0  0  0  0  0  0  0  0  0  0
  128.3760  121.7630   60.3220 C   0  0  0  0  0  0  0  0  0  0  0  0
  128.1300  122.9760   59.6710 C   0  0  0  0  0  0  0  0  0  0  0  0
  126.7780  123.3460   59.1380 C   0  0  0  0  0  0  0  0  0  0  0  0
  125.7240  123.6620   60.0110 C   0  0  0  0  0  0  0  0  0  0  0  0
  124.4670  124.0080   59.5220 C   0  0  0  0  0  0  0  0  0  0  0  0
  124.2470  124.0450   58.1500 C   0  0  0  0  0  0  0  0  0  0  0  0
  125.2740  123.7390   57.2630 C   0  0  0  0  0  0  0  0  0  0  0  0
  126.5300  123.3940   57.7560 C   0  0  0  0  0  0  0  0  0  0  0  0
  129.1260  123.8760   59.4740 N   0  0  0  0  0  0  0  0  0  0  0  0
  130.3730  123.6130   59.9340 C   0  0  0  0  0  0  0  0  0  0  0  0
  131.5400  124.9160   59.5960 S   0  0  0  0  0  0  0  0  0  0  0  0
  130.8400  126.4730   60.2210 C   0  0  0  0  0  0  0  0  0  0  0  0
  131.0050  126.6030   61.7350 C   0  0  0  0  0  0  0  0  0  0  0  0
  130.3160  127.4210   62.3440 O   0  0  0  0  0  0  0  0  0  0  0  0
  131.9280  125.7870   62.2890 N   0  0  0  0  0  0  0  0  0  0  0  0
  132.3250  125.6630   63.6340 C   0  0  0  0  0  0  0  0  0  0  0  0
  131.5050  125.8820   64.7570 C   0  0  0  0  0  0  0  0  0  0  0  0
  132.0330  125.7240   66.0400 C   0  0  0  0  0  0  0  0  0  0  0  0
  133.3710  125.3510   66.1700 C   0  0  0  0  0  0  0  0  0  0  0  0
  134.1820  125.1340   65.1060 N   0  0  0  0  0  0  0  0  0  0  0  0
  133.6540  125.2910   63.8650 C   0  0  0  0  0  0  0  0  0  0  0  0
  127.5554  121.0458   60.4711 H   0  0  0  0  0  0  0  0  0  0  0  0
  125.8942  123.6357   61.0974 H   0  0  0  0  0  0  0  0  0  0  0  0
  123.6513  124.2511   60.2187 H   0  0  0  0  0  0  0  0  0  0  0  0
  123.2542  124.3181   57.7631 H   0  0  0  0  0  0  0  0  0  0  0  0
  125.0950  123.7694   56.1781 H   0  0  0  0  0  0  0  0  0  0  0  0
  127.3408  123.1553   57.0520 H   0  0  0  0  0  0  0  0  0  0  0  0
  131.3532  127.3150   59.7334 H   0  0  0  0  0  0  0  0  0  0  0  0
  129.7639  126.4797   59.9928 H   0  0  0  0  0  0  0  0  0  0  0  0
  132.4070  125.1640   61.6560 H   0  0  0  0  0  0  0  0  0  0  0  0
  130.4534  126.1762   64.6245 H   0  0  0  0  0  0  0  0  0  0  0  0
  131.4072  125.8901   66.9293 H   0  0  0  0  0  0  0  0  0  0  0  0
  133.7863  125.2275   67.1811 H   0  0  0  0  0  0  0  0  0  0  0  0
  134.3051  125.1166   62.9957 H   0  0  0  0  0  0  0  0  0  0  0  0
  1  2  3  0
  2  3  1  0
  3  4  2  0
  4  5  1  0
  5  6  1  0
  5  7  1  0
  5  8  1  0
  4  9  1  0
  9 10  2  0
 10 11  1  0
 11 12  2  0
 12 13  1  0
 13 14  2  0
 14 15  1  0
 15 16  2  0
 10 17  1  0
 17 18  2  0
 18 19  1  0
 19 20  1  0
 20 21  1  0
 21 22  2  0
 21 23  1  0
 23 24  1  0
 24 25  2  0
 25 26  1  0
 26 27  2  0
 27 28  1  0
 28 29  2  0
 18  3  1  0
 29 24  1  0
 16 11  1  0
  9 30  1  0
 12 31  1  0
 13 32  1  0
 14 33  1  0
 15 34  1  0
 16 35  1  0
 20 36  1  0
 20 37  1  0
 23 38  1  0
 25 39  1  0
 26 40  1  0
 27 41  1  0
 29 42  1  0
M  END
>  <Binding energies>  (1) 
[-6.93]

>  <Ligand effiencies>  (1) 
[-0.23099999999999998]

>  <Interactions>  (1) 
["V-A:ARG:545:CZ:4926, V-A:LEU:475:CD2:4258, V-A:HIS:456:CE1:4069, V-B:TYR:539:CD2:9845, V-A:ILE:369:CG2:3236, V-B:TYR:539:CE2:9847, V-B:ALA:541:CB:9863, V-B:PRO:540:C:9852, H-A:TYR:484:OH:4347, V-B:ALA:541:CA:9861, V-B:PRO:540:N:9855, V-A:TRP:381:CZ2:3369, V-B:TYR:539:C:9838, V-B:PRO:540:CA:9854, V-A:TRP:381:CH2:3371, H-A:ASP:366:OD1:3213, H-A:ARG:545:NE:4924, H-A:GLY:454:N:4049, V-B:PRO:540:CB:9856, V-A:ARG:545:CD:4923, V-A:LEU:475:CD1:4257, V-B:LEU:363:CA:8156, H-A:ARG:545:NH1:4927, V-B:LEU:363:CD1:8160, V-A:PRO:482:CB:4325, V-A:PRO:482:CG:4326, V-A:LEU:475:CG:4256"]

$$$$
3ag_Grossjean_2025
     RDKit          3D

 46 48  0  0  0  0  0  0  0  0999 V2000
  128.8980  126.9240   62.9850 N   0  0  0  0  0  0  0  0  0  0  0  0
  129.0040  127.0040   64.1350 C   0  0  0  0  0  0  0  0  0  0  0  0
  129.1350  127.1070   65.5910 C   0  0  0  0  0  0  0  0  0  0  0  0
  128.4500  128.1180   66.3090 C   0  0  0  0  0  0  0  0  0  0  0  0
  127.4940  129.1190   65.6310 C   0  0  0  0  0  0  0  0  0  0  0  0
  126.6120  128.5260   64.8240 F   0  0  0  0  0  0  0  0  0  0  0  0
  126.8070  129.7880   66.5570 F   0  0  0  0  0  0  0  0  0  0  0  0
  128.1870  129.9880   64.8930 F   0  0  0  0  0  0  0  0  0  0  0  0
  128.6500  128.2090   67.6950 C   0  0  0  0  0  0  0  0  0  0  0  0
  129.5190  127.3240   68.3440 C   0  0  0  0  0  0  0  0  0  0  0  0
  129.7710  127.3770   69.8200 C   0  0  0  0  0  0  0  0  0  0  0  0
  130.7750  128.2070   70.3460 C   0  0  0  0  0  0  0  0  0  0  0  0
  131.0150  128.2610   71.7160 C   0  0  0  0  0  0  0  0  0  0  0  0
  130.2530  127.4830   72.5820 C   0  0  0  0  0  0  0  0  0  0  0  0
  129.2540  126.6510   72.0860 C   0  0  0  0  0  0  0  0  0  0  0  0
  129.0180  126.5990   70.7150 C   0  0  0  0  0  0  0  0  0  0  0  0
  130.1640  126.3480   67.6530 N   0  0  0  0  0  0  0  0  0  0  0  0
  129.9700  126.2300   66.3170 C   0  0  0  0  0  0  0  0  0  0  0  0
  130.8910  124.8970   65.5810 S   0  0  0  0  0  0  0  0  0  0  0  0
  129.7260  123.5350   65.2790 C   0  0  0  0  0  0  0  0  0  0  0  0
  129.5490  123.2460   63.7880 C   0  0  0  0  0  0  0  0  0  0  0  0
  130.1210  122.2820   63.2770 O   0  0  0  0  0  0  0  0  0  0  0  0
  128.7490  124.0860   63.1080 N   0  0  0  0  0  0  0  0  0  0  0  0
  128.4130  123.9760   61.6890 C   0  0  0  0  0  0  0  0  0  0  0  0
  126.9160  124.0030   61.3990 C   0  0  0  0  0  0  0  0  0  0  0  0
  126.4620  124.3630   60.1280 C   0  0  0  0  0  0  0  0  0  0  0  0
  125.0970  124.3610   59.8510 C   0  0  0  0  0  0  0  0  0  0  0  0
  124.1920  123.9900   60.8440 C   0  0  0  0  0  0  0  0  0  0  0  0
  124.6400  123.6160   62.1090 C   0  0  0  0  0  0  0  0  0  0  0  0
  126.0040  123.6170   62.3860 C   0  0  0  0  0  0  0  0  0  0  0  0
  128.1211  128.9799   68.2746 H   0  0  0  0  0  0  0  0  0  0  0  0
  131.3804  128.8233   69.6651 H   0  0  0  0  0  0  0  0  0  0  0  0
  131.8043  128.9165   72.1126 H   0  0  0  0  0  0  0  0  0  0  0  0
  130.4414  127.5259   73.6649 H   0  0  0  0  0  0  0  0  0  0  0  0
  128.6537  126.0374   72.7738 H   0  0  0  0  0  0  0  0  0  0  0  0
  128.2292  125.9381   70.3263 H   0  0  0  0  0  0  0  0  0  0  0  0
  130.1054  122.6283   65.7730 H   0  0  0  0  0  0  0  0  0  0  0  0
  128.7473  123.8319   65.6839 H   0  0  0  0  0  0  0  0  0  0  0  0
  128.3120  124.8460   63.6090 H   0  0  0  0  0  0  0  0  0  0  0  0
  128.8831  124.8161   61.1567 H   0  0  0  0  0  0  0  0  0  0  0  0
  128.7838  122.9973   61.3505 H   0  0  0  0  0  0  0  0  0  0  0  0
  127.1819  124.6478   59.3466 H   0  0  0  0  0  0  0  0  0  0  0  0
  124.7350  124.6508   58.8535 H   0  0  0  0  0  0  0  0  0  0  0  0
  123.1137  123.9925   60.6268 H   0  0  0  0  0  0  0  0  0  0  0  0
  123.9189  123.3212   62.8856 H   0  0  0  0  0  0  0  0  0  0  0  0
  126.3641  123.3144   63.3804 H   0  0  0  0  0  0  0  0  0  0  0  0
  1  2  3  0
  2  3  1  0
  3  4  2  0
  4  5  1  0
  5  6  1  0
  5  7  1  0
  5  8  1  0
  4  9  1  0
  9 10  2  0
 10 11  1  0
 11 12  2  0
 12 13  1  0
 13 14  2  0
 14 15  1  0
 15 16  2  0
 10 17  1  0
 17 18  2  0
 18 19  1  0
 19 20  1  0
 20 21  1  0
 21 22  2  0
 21 23  1  0
 23 24  1  0
 24 25  1  0
 25 26  2  0
 26 27  1  0
 27 28  2  0
 28 29  1  0
 29 30  2  0
 18  3  1  0
 30 25  1  0
 16 11  1  0
  9 31  1  0
 12 32  1  0
 13 33  1  0
 14 34  1  0
 15 35  1  0
 16 36  1  0
 20 37  1  0
 20 38  1  0
 23 39  1  0
 24 40  1  0
 24 41  1  0
 26 42  1  0
 27 43  1  0
 28 44  1  0
 29 45  1  0
 30 46  1  0
M  END
>  <Binding energies>  (1) 
[-6.9]

>  <Ligand effiencies>  (1) 
[-0.22258064516129034]

>  <Interactions>  (1) 
["V-B:HIS:456:CE1:9041, V-B:GLU:543:CD:9879, V-A:GLU:543:CD:4908, V-A:GLU:543:CG:4907, V-A:HIS:456:CE1:4069, V-A:GLU:543:CB:4906, V-B:ALA:541:CB:9863, V-B:GLU:543:CG:9878, H-B:GLU:543:OE2:9881, H-A:TYR:484:OH:4347, V-B:ARG:545:CZ:9897, V-B:PRO:540:CB:9856, V-B:ASN:362:CB:8147, V-A:TYR:484:CE1:4344, V-B:ASN:362:C:8143"]

$$$$
3ai_Grossjean_2025
     RDKit          3D

 39 41  0  0  0  0  0  0  0  0999 V2000
  133.4650  121.4640   61.7610 N   0  0  0  0  0  0  0  0  0  0  0  0
  132.4090  121.7410   61.3760 C   0  0  0  0  0  0  0  0  0  0  0  0
  131.0720  122.0920   60.8890 C   0  0  0  0  0  0  0  0  0  0  0  0
  129.9950  121.1790   61.0090 C   0  0  0  0  0  0  0  0  0  0  0  0
  130.1440  119.8030   61.6860 C   0  0  0  0  0  0  0  0  0  0  0  0
  131.2750  119.1800   61.3510 F   0  0  0  0  0  0  0  0  0  0  0  0
  130.1410  119.9460   63.0120 F   0  0  0  0  0  0  0  0  0  0  0  0
  129.1330  119.0080   61.3350 F   0  0  0  0  0  0  0  0  0  0  0  0
  128.7460  121.5430   60.4840 C   0  0  0  0  0  0  0  0  0  0  0  0
  128.5760  122.7810   59.8560 C   0  0  0  0  0  0  0  0  0  0  0  0
  127.2670  123.2170   59.2690 C   0  0  0  0  0  0  0  0  0  0  0  0
  127.0300  123.1080   57.8890 C   0  0  0  0  0  0  0  0  0  0  0  0
  125.8150  123.5060   57.3370 C   0  0  0  0  0  0  0  0  0  0  0  0
  124.8180  124.0190   58.1600 C   0  0  0  0  0  0  0  0  0  0  0  0
  125.0270  124.1350   59.5310 C   0  0  0  0  0  0  0  0  0  0  0  0
  126.2430  123.7350   60.0790 C   0  0  0  0  0  0  0  0  0  0  0  0
  129.6120  123.6490   59.7360 N   0  0  0  0  0  0  0  0  0  0  0  0
  130.8220  123.3310   60.2560 C   0  0  0  0  0  0  0  0  0  0  0  0
  132.0500  124.5990   60.0230 S   0  0  0  0  0  0  0  0  0  0  0  0
  132.0130  125.6900   61.4850 C   0  0  0  0  0  0  0  0  0  0  0  0
  132.9390  125.2670   62.6350 C   0  0  0  0  0  0  0  0  0  0  0  0
  133.8870  124.5040   62.4320 O   0  0  0  0  0  0  0  0  0  0  0  0
  132.6210  125.7930   63.8390 N   0  0  0  0  0  0  0  0  0  0  0  0
  133.2790  125.5920   65.0450 C   0  0  0  0  0  0  0  0  0  0  0  0
  132.6750  125.7920   66.2860 C   0  0  0  0  0  0  0  0  0  0  0  0
  133.6480  125.4930   67.2110 C   0  0  0  0  0  0  0  0  0  0  0  0
  134.7810  125.1310   66.5620 O   0  0  0  0  0  0  0  0  0  0  0  0
  134.5340  125.1980   65.1890 N   0  0  0  0  0  0  0  0  0  0  0  0
  127.8953  120.8506   60.5668 H   0  0  0  0  0  0  0  0  0  0  0  0
  127.8156  122.7023   57.2346 H   0  0  0  0  0  0  0  0  0  0  0  0
  125.6444  123.4150   56.2541 H   0  0  0  0  0  0  0  0  0  0  0  0
  123.8585  124.3349   57.7246 H   0  0  0  0  0  0  0  0  0  0  0  0
  124.2356  124.5406   60.1785 H   0  0  0  0  0  0  0  0  0  0  0  0
  126.4042  123.8261   61.1633 H   0  0  0  0  0  0  0  0  0  0  0  0
  132.3071  126.7003   61.1642 H   0  0  0  0  0  0  0  0  0  0  0  0
  130.9881  125.6381   61.8810 H   0  0  0  0  0  0  0  0  0  0  0  0
  131.8190  126.4050   63.8790 H   0  0  0  0  0  0  0  0  0  0  0  0
  131.6431  126.1184   66.4826 H   0  0  0  0  0  0  0  0  0  0  0  0
  133.5259  125.5402   68.3032 H   0  0  0  0  0  0  0  0  0  0  0  0
  1  2  3  0
  2  3  1  0
  3  4  2  0
  4  5  1  0
  5  6  1  0
  5  7  1  0
  5  8  1  0
  4  9  1  0
  9 10  2  0
 10 11  1  0
 11 12  2  0
 12 13  1  0
 13 14  2  0
 14 15  1  0
 15 16  2  0
 10 17  1  0
 17 18  2  0
 18 19  1  0
 19 20  1  0
 20 21  1  0
 21 22  2  0
 21 23  1  0
 23 24  1  0
 24 25  1  0
 25 26  2  0
 26 27  1  0
 27 28  1  0
 18  3  1  0
 28 24  2  0
 16 11  1  0
  9 29  1  0
 12 30  1  0
 13 31  1  0
 14 32  1  0
 15 33  1  0
 16 34  1  0
 20 35  1  0
 20 36  1  0
 23 37  1  0
 25 38  1  0
 26 39  1  0
M  END
>  <Binding energies>  (1) 
[-7.66]

>  <Ligand effiencies>  (1) 
[-0.26413793103448274]

>  <Interactions>  (1) 
["V-A:ARG:545:CZ:4926, V-A:ASP:366:CG:3212, V-A:LEU:475:CD2:4258, V-A:HIS:456:CE1:4069, V-B:TYR:539:CD2:9845, V-A:ILE:369:CG2:3236, V-B:TYR:539:CE2:9847, V-B:ALA:541:CB:9863, V-A:ARG:545:CG:4922, V-B:PRO:540:C:9852, H-A:TYR:484:OH:4347, V-B:ALA:541:CA:9861, V-B:PRO:540:N:9855, V-A:TRP:381:CZ2:3369, V-B:TYR:539:C:9838, V-B:PRO:540:CA:9854, V-A:TRP:381:CH2:3371, H-A:ARG:545:NE:4924, H-A:GLY:454:N:4049, V-B:PRO:540:CB:9856, V-A:ARG:545:CD:4923, V-A:LEU:475:CD1:4257, H-A:GLU:543:OE2:4910, H-A:ARG:545:NH1:4927, V-B:LEU:363:CD1:8160, V-A:PRO:482:CB:4325, V-A:PRO:482:CG:4326, H-A:ILE:455:N:4054, V-A:LEU:475:CG:4256"]

$$$$
3aj_Grossjean_2025
     RDKit          3D

 39 41  0  0  0  0  0  0  0  0999 V2000
  127.7690  128.2850   63.9920 N   0  0  0  0  0  0  0  0  0  0  0  0
  128.1920  128.1260   65.0570 C   0  0  0  0  0  0  0  0  0  0  0  0
  128.7300  127.9230   66.4050 C   0  0  0  0  0  0  0  0  0  0  0  0
  129.7000  126.9220   66.6550 C   0  0  0  0  0  0  0  0  0  0  0  0
  130.2770  126.0260   65.5410 C   0  0  0  0  0  0  0  0  0  0  0  0
  129.3790  125.1680   65.0510 F   0  0  0  0  0  0  0  0  0  0  0  0
  130.7090  126.7780   64.5280 F   0  0  0  0  0  0  0  0  0  0  0  0
  131.2960  125.3090   66.0140 F   0  0  0  0  0  0  0  0  0  0  0  0
  130.1480  126.7360   67.9720 C   0  0  0  0  0  0  0  0  0  0  0  0
  129.6390  127.5240   69.0100 C   0  0  0  0  0  0  0  0  0  0  0  0
  130.0750  127.3610   70.4340 C   0  0  0  0  0  0  0  0  0  0  0  0
  131.2380  127.9900   70.9040 C   0  0  0  0  0  0  0  0  0  0  0  0
  131.6470  127.8470   72.2270 C   0  0  0  0  0  0  0  0  0  0  0  0
  130.8950  127.0670   73.1010 C   0  0  0  0  0  0  0  0  0  0  0  0
  129.7380  126.4330   72.6600 C   0  0  0  0  0  0  0  0  0  0  0  0
  129.3320  126.5810   71.3370 C   0  0  0  0  0  0  0  0  0  0  0  0
  128.7040  128.4770   68.7670 N   0  0  0  0  0  0  0  0  0  0  0  0
  128.2730  128.6920   67.5010 C   0  0  0  0  0  0  0  0  0  0  0  0
  127.0660  129.9940   67.3720 S   0  0  0  0  0  0  0  0  0  0  0  0
  125.4210  129.2180   67.2210 C   0  0  0  0  0  0  0  0  0  0  0  0
  124.5770  129.7110   66.0360 C   0  0  0  0  0  0  0  0  0  0  0  0
  123.3810  129.9720   66.1790 O   0  0  0  0  0  0  0  0  0  0  0  0
  125.2530  129.8250   64.8710 N   0  0  0  0  0  0  0  0  0  0  0  0
  124.7400  130.2510   63.6540 C   0  0  0  0  0  0  0  0  0  0  0  0
  123.5560  130.7740   63.4150 N   0  0  0  0  0  0  0  0  0  0  0  0
  123.4040  131.0690   62.1390 C   0  0  0  0  0  0  0  0  0  0  0  0
  124.4850  130.7830   61.3080 C   0  0  0  0  0  0  0  0  0  0  0  0
  125.7610  130.0880   62.2610 S   0  0  0  0  0  0  0  0  0  0  0  0
  130.9034  125.9665   68.1893 H   0  0  0  0  0  0  0  0  0  0  0  0
  131.8360  128.6058   70.2161 H   0  0  0  0  0  0  0  0  0  0  0  0
  132.5603  128.3481   72.5801 H   0  0  0  0  0  0  0  0  0  0  0  0
  131.2175  126.9513   74.1463 H   0  0  0  0  0  0  0  0  0  0  0  0
  129.1466  125.8174   73.3538 H   0  0  0  0  0  0  0  0  0  0  0  0
  128.4154  126.0798   70.9926 H   0  0  0  0  0  0  0  0  0  0  0  0
  125.5644  128.1331   67.1098 H   0  0  0  0  0  0  0  0  0  0  0  0
  124.8661  129.4944   68.1297 H   0  0  0  0  0  0  0  0  0  0  0  0
  126.2340  129.5880   64.8760 H   0  0  0  0  0  0  0  0  0  0  0  0
  122.4761  131.5157   61.7524 H   0  0  0  0  0  0  0  0  0  0  0  0
  124.5244  130.9673   60.2243 H   0  0  0  0  0  0  0  0  0  0  0  0
  1  2  3  0
  2  3  1  0
  3  4  2  0
  4  5  1  0
  5  6  1  0
  5  7  1  0
  5  8  1  0
  4  9  1  0
  9 10  2  0
 10 11  1  0
 11 12  2  0
 12 13  1  0
 13 14  2  0
 14 15  1  0
 15 16  2  0
 10 17  1  0
 17 18  2  0
 18 19  1  0
 19 20  1  0
 20 21  1  0
 21 22  2  0
 21 23  1  0
 23 24  1  0
 24 25  2  0
 25 26  1  0
 26 27  2  0
 27 28  1  0
 18  3  1  0
 28 24  1  0
 16 11  1  0
  9 29  1  0
 12 30  1  0
 13 31  1  0
 14 32  1  0
 15 33  1  0
 16 34  1  0
 20 35  1  0
 20 36  1  0
 23 37  1  0
 26 38  1  0
 27 39  1  0
M  END
>  <Binding energies>  (1) 
[-6.48]

>  <Ligand effiencies>  (1) 
[-0.22344827586206897]

>  <Interactions>  (1) 
["V-B:ASP:366:CG:8184, V-B:HIS:456:CE1:9041, V-B:GLU:543:CD:9879, V-A:GLU:543:CD:4908, V-B:ILE:369:CD1:8210, V-A:GLU:543:CG:4907, V-A:HIS:456:CE1:4069, V-A:HIS:456:CG:4065, V-A:GLU:543:CB:4906, V-A:HIS:456:CD2:4067, V-B:GLU:543:CG:9878, H-B:GLY:454:N:9021, H-B:GLU:543:OE1:9880, H-B:TYR:484:OH:9319, H-B:ARG:545:NE:9895, V-B:ARG:545:CZ:9897, V-B:ARG:545:CG:9893, V-B:ARG:545:CD:9894, H-B:ILE:455:N:9026"]

$$$$
3ak_Grossjean_2025
     RDKit          3D

 57 58  0  0  0  0  0  0  0  0999 V2000
  125.3860  123.6210   62.0670 C   0  0  0  0  0  0  0  0  0  0  0  0
  126.5770  122.8880   61.8300 O   0  0  0  0  0  0  0  0  0  0  0  0
  127.5560  123.6190   61.1050 C   0  0  0  0  0  0  0  0  0  0  0  0
  127.8780  122.8700   59.8060 C   0  0  0  0  0  0  0  0  0  0  0  0
  128.8710  121.8870   60.0730 O   0  0  0  0  0  0  0  0  0  0  0  0
  129.5080  121.9850   61.3440 C   0  0  0  0  0  0  0  0  0  0  0  0
  131.0460  121.9550   61.2710 C   0  0  0  0  0  0  0  0  0  0  0  0
  131.5610  123.1830   61.7670 O   0  0  0  0  0  0  0  0  0  0  0  0
  132.2430  123.9590   60.7900 C   0  0  0  0  0  0  0  0  0  0  0  0
  132.6360  125.3260   61.3780 C   0  0  0  0  0  0  0  0  0  0  0  0
  132.3250  125.4640   62.8020 N   0  0  0  0  0  0  0  0  0  0  0  0
  133.1980  125.3290   63.8180 C   0  0  0  0  0  0  0  0  0  0  0  0
  134.3920  125.0850   63.6430 O   0  0  0  0  0  0  0  0  0  0  0  0
  132.6860  125.4850   65.2600 C   0  0  0  0  0  0  0  0  0  0  0  0
  131.0570  124.7390   65.6350 S   0  0  0  0  0  0  0  0  0  0  0  0
  130.0070  125.9900   66.3590 C   0  0  0  0  0  0  0  0  0  0  0  0
  129.8640  125.9270   67.7060 N   0  0  0  0  0  0  0  0  0  0  0  0
  129.0810  126.8310   68.3480 C   0  0  0  0  0  0  0  0  0  0  0  0
  128.9810  126.6880   69.8380 C   0  0  0  0  0  0  0  0  0  0  0  0
  129.5880  127.6220   70.6910 C   0  0  0  0  0  0  0  0  0  0  0  0
  129.4950  127.4970   72.0750 C   0  0  0  0  0  0  0  0  0  0  0  0
  128.7890  126.4330   72.6250 C   0  0  0  0  0  0  0  0  0  0  0  0
  128.1760  125.4950   71.8030 C   0  0  0  0  0  0  0  0  0  0  0  0
  128.2700  125.6230   70.4200 C   0  0  0  0  0  0  0  0  0  0  0  0
  128.4260  127.8440   67.6390 C   0  0  0  0  0  0  0  0  0  0  0  0
  128.5580  127.9320   66.2460 C   0  0  0  0  0  0  0  0  0  0  0  0
  127.8190  129.0600   65.5000 C   0  0  0  0  0  0  0  0  0  0  0  0
  126.8310  128.5510   64.7650 F   0  0  0  0  0  0  0  0  0  0  0  0
  127.3060  129.9270   66.3740 F   0  0  0  0  0  0  0  0  0  0  0  0
  128.6170  129.7470   64.6780 F   0  0  0  0  0  0  0  0  0  0  0  0
  129.3690  126.9800   65.5820 C   0  0  0  0  0  0  0  0  0  0  0  0
  129.5430  127.0240   64.1260 C   0  0  0  0  0  0  0  0  0  0  0  0
  129.6800  127.0570   62.9770 N   0  0  0  0  0  0  0  0  0  0  0  0
  125.2257  123.7197   63.1508 H   0  0  0  0  0  0  0  0  0  0  0  0
  125.4751  124.6208   61.6170 H   0  0  0  0  0  0  0  0  0  0  0  0
  124.5336  123.0910   61.6170 H   0  0  0  0  0  0  0  0  0  0  0  0
  127.1673  124.6201   60.8668 H   0  0  0  0  0  0  0  0  0  0  0  0
  128.4682  123.7207   61.7112 H   0  0  0  0  0  0  0  0  0  0  0  0
  126.9683  122.3818   59.4264 H   0  0  0  0  0  0  0  0  0  0  0  0
  128.2493  123.5781   59.0506 H   0  0  0  0  0  0  0  0  0  0  0  0
  129.2013  122.9311   61.8139 H   0  0  0  0  0  0  0  0  0  0  0  0
  129.1972  121.1058   61.9274 H   0  0  0  0  0  0  0  0  0  0  0  0
  131.4272  121.1229   61.8811 H   0  0  0  0  0  0  0  0  0  0  0  0
  131.3639  121.8154   60.2272 H   0  0  0  0  0  0  0  0  0  0  0  0
  133.1508  123.4259   60.4712 H   0  0  0  0  0  0  0  0  0  0  0  0
  131.5782  124.1164   59.9279 H   0  0  0  0  0  0  0  0  0  0  0  0
  133.7191  125.4636   61.2439 H   0  0  0  0  0  0  0  0  0  0  0  0
  132.0477  126.0872   60.8446 H   0  0  0  0  0  0  0  0  0  0  0  0
  131.3650  125.6840   63.0260 H   0  0  0  0  0  0  0  0  0  0  0  0
  133.4268  125.0232   65.9292 H   0  0  0  0  0  0  0  0  0  0  0  0
  132.5504  126.5670   65.4047 H   0  0  0  0  0  0  0  0  0  0  0  0
  130.1461  128.4662   70.2599 H   0  0  0  0  0  0  0  0  0  0  0  0
  129.9780  128.2369   72.7301 H   0  0  0  0  0  0  0  0  0  0  0  0
  128.7152  126.3330   73.7180 H   0  0  0  0  0  0  0  0  0  0  0  0
  127.6189  124.6549   72.2433 H   0  0  0  0  0  0  0  0  0  0  0  0
  127.7809  124.8802   69.7727 H   0  0  0  0  0  0  0  0  0  0  0  0
  127.8045  128.5748   68.1772 H   0  0  0  0  0  0  0  0  0  0  0  0
  1  2  1  0
  2  3  1  0
  3  4  1  0
  4  5  1  0
  5  6  1  0
  6  7  1  0
  7  8  1  0
  8  9  1  0
  9 10  1  0
 10 11  1  0
 11 12  1  0
 12 13  2  0
 12 14  1  0
 14 15  1  0
 15 16  1  0
 16 17  2  0
 17 18  1  0
 18 19  1  0
 19 20  2  0
 20 21  1  0
 21 22  2  0
 22 23  1  0
 23 24  2  0
 18 25  2  0
 25 26  1  0
 26 27  1  0
 27 28  1  0
 27 29  1  0
 27 30  1  0
 26 31  2  0
 31 32  1  0
 32 33  3  0
 31 16  1  0
 24 19  1  0
  1 34  1  0
  1 35  1  0
  1 36  1  0
  3 37  1  0
  3 38  1  0
  4 39  1  0
  4 40  1  0
  6 41  1  0
  6 42  1  0
  7 43  1  0
  7 44  1  0
  9 45  1  0
  9 46  1  0
 10 47  1  0
 10 48  1  0
 11 49  1  0
 14 50  1  0
 14 51  1  0
 20 52  1  0
 21 53  1  0
 22 54  1  0
 23 55  1  0
 24 56  1  0
 25 57  1  0
M  END
>  <Binding energies>  (1) 
[-5.93]

>  <Ligand effiencies>  (1) 
[-0.17441176470588235]

>  <Interactions>  (1) 
["V-B:HIS:456:CE1:9041, V-A:ARG:545:CZ:4926, V-B:GLU:543:CD:9879, V-A:ASP:366:CG:3212, V-A:GLU:543:CD:4908, V-A:GLU:543:CG:4907, H-A:ARG:545:NH2:4928, V-A:HIS:456:CE1:4069, V-B:HIS:456:CD2:9039, V-A:ILE:369:CG2:3236, V-B:TYR:539:CE2:9847, V-B:ALA:541:CB:9863, V-B:GLU:543:C:9873, V-B:GLU:543:CG:9878, V-B:GLU:543:CB:9877, H-A:TYR:484:OH:4347, V-B:PRO:540:CA:9854, H-B:ALA:541:N:9862, H-A:GLY:454:N:4049, H-A:ARG:545:NH1:4927, V-B:ASN:362:CB:8147"]

$$$$
3bc_Grossjean_2025
     RDKit          3D

 47 49  0  0  0  0  0  0  0  0999 V2000
  129.7490  130.2480   73.7610 C   0  0  0  0  0  0  0  0  0  0  0  0
  130.4330  129.0350   73.4640 O   0  0  0  0  0  0  0  0  0  0  0  0
  130.5130  128.6120   72.1500 C   0  0  0  0  0  0  0  0  0  0  0  0
  129.3910  127.9610   71.6380 C   0  0  0  0  0  0  0  0  0  0  0  0
  129.3770  127.4980   70.3250 C   0  0  0  0  0  0  0  0  0  0  0  0
  130.4940  127.6740   69.5060 C   0  0  0  0  0  0  0  0  0  0  0  0
  130.3830  127.1840   68.1910 N   0  0  0  0  0  0  0  0  0  0  0  0
  129.7430  126.0830   67.7430 C   0  0  0  0  0  0  0  0  0  0  0  0
  129.0890  125.3150   68.4520 O   0  0  0  0  0  0  0  0  0  0  0  0
  129.8450  125.8530   66.2290 C   0  0  0  0  0  0  0  0  0  0  0  0
  130.0910  124.1170   65.7230 S   0  0  0  0  0  0  0  0  0  0  0  0
  129.9990  124.0500   63.9470 C   0  0  0  0  0  0  0  0  0  0  0  0
  128.7320  123.9780   63.4690 N   0  0  0  0  0  0  0  0  0  0  0  0
  128.5170  123.9240   62.1290 C   0  0  0  0  0  0  0  0  0  0  0  0
  127.0880  123.8240   61.6830 C   0  0  0  0  0  0  0  0  0  0  0  0
  126.0990  123.3380   62.5510 C   0  0  0  0  0  0  0  0  0  0  0  0
  124.7700  123.2430   62.1440 C   0  0  0  0  0  0  0  0  0  0  0  0
  124.4140  123.6340   60.8570 C   0  0  0  0  0  0  0  0  0  0  0  0
  125.3760  124.1160   59.9760 C   0  0  0  0  0  0  0  0  0  0  0  0
  126.7030  124.2080   60.3870 C   0  0  0  0  0  0  0  0  0  0  0  0
  129.5860  123.9400   61.2280 C   0  0  0  0  0  0  0  0  0  0  0  0
  130.8990  124.0370   61.7040 C   0  0  0  0  0  0  0  0  0  0  0  0
  132.0350  124.0690   60.6830 C   0  0  0  0  0  0  0  0  0  0  0  0
  131.1260  124.1050   63.0960 C   0  0  0  0  0  0  0  0  0  0  0  0
  132.4870  124.2560   63.6140 C   0  0  0  0  0  0  0  0  0  0  0  0
  133.5630  124.3750   64.0220 N   0  0  0  0  0  0  0  0  0  0  0  0
  131.6220  128.3400   70.0090 C   0  0  0  0  0  0  0  0  0  0  0  0
  131.6310  128.8010   71.3230 C   0  0  0  0  0  0  0  0  0  0  0  0
  129.6791  130.3719   74.8518 H   0  0  0  0  0  0  0  0  0  0  0  0
  130.3021  131.0957   73.3303 H   0  0  0  0  0  0  0  0  0  0  0  0
  128.7374  130.2134   73.3303 H   0  0  0  0  0  0  0  0  0  0  0  0
  128.5086  127.8119   72.2776 H   0  0  0  0  0  0  0  0  0  0  0  0
  128.4830  126.9919   69.9316 H   0  0  0  0  0  0  0  0  0  0  0  0
  130.7960  127.7800   67.4880 H   0  0  0  0  0  0  0  0  0  0  0  0
  128.9146  126.2140   65.7663 H   0  0  0  0  0  0  0  0  0  0  0  0
  130.7407  126.3982   65.8966 H   0  0  0  0  0  0  0  0  0  0  0  0
  126.3771  123.0271   63.5688 H   0  0  0  0  0  0  0  0  0  0  0  0
  124.0058  122.8607   62.8367 H   0  0  0  0  0  0  0  0  0  0  0  0
  123.3649  123.5614   60.5343 H   0  0  0  0  0  0  0  0  0  0  0  0
  125.0898  124.4231   58.9592 H   0  0  0  0  0  0  0  0  0  0  0  0
  127.4618  124.5871   59.6866 H   0  0  0  0  0  0  0  0  0  0  0  0
  129.3956  123.8765   60.1465 H   0  0  0  0  0  0  0  0  0  0  0  0
  133.0005  124.0962   61.2094 H   0  0  0  0  0  0  0  0  0  0  0  0
  131.9865  123.1691   60.0522 H   0  0  0  0  0  0  0  0  0  0  0  0
  131.9359  124.9647   60.0522 H   0  0  0  0  0  0  0  0  0  0  0  0
  132.4997  128.4980   69.3650 H   0  0  0  0  0  0  0  0  0  0  0  0
  132.5200  129.3166   71.7152 H   0  0  0  0  0  0  0  0  0  0  0  0
  1  2  1  0
  2  3  1  0
  3  4  2  0
  4  5  1  0
  5  6  2  0
  6  7  1  0
  7  8  1  0
  8  9  2  0
  8 10  1  0
 10 11  1  0
 11 12  1  0
 12 13  2  0
 13 14  1  0
 14 15  1  0
 15 16  2  0
 16 17  1  0
 17 18  2  0
 18 19  1  0
 19 20  2  0
 14 21  2  0
 21 22  1  0
 22 23  1  0
 22 24  2  0
 24 25  1  0
 25 26  3  0
  6 27  1  0
 27 28  2  0
 28  3  1  0
 24 12  1  0
 20 15  1  0
  1 29  1  0
  1 30  1  0
  1 31  1  0
  4 32  1  0
  5 33  1  0
  7 34  1  0
 10 35  1  0
 10 36  1  0
 16 37  1  0
 17 38  1  0
 18 39  1  0
 19 40  1  0
 20 41  1  0
 21 42  1  0
 23 43  1  0
 23 44  1  0
 23 45  1  0
 27 46  1  0
 28 47  1  0
M  END
>  <Binding energies>  (1) 
[-8.3]

>  <Ligand effiencies>  (1) 
[-0.28620689655172415]

>  <Interactions>  (1) 
["V-B:HIS:456:CE1:9041, V-B:GLU:543:CD:9879, V-A:GLU:543:CD:4908, V-A:HIS:456:CE1:4069, V-A:GLU:543:C:4902, V-A:GLU:543:CB:4906, V-A:GLY:544:C:4912, V-B:ALA:541:CB:9863, V-A:ARG:545:CG:4922, V-B:GLU:543:CG:9878, V-B:GLU:543:CB:9877, V-A:ARG:545:CA:4919, H-A:LYS:547:NZ:4951, V-B:PRO:540:C:9852, H-A:TYR:484:OH:4347, V-B:ALA:541:CA:9861, V-A:LYS:547:CE:4950, V-B:PRO:540:CA:9854, H-A:GLY:454:N:4049, V-B:PRO:540:CB:9856, H-A:GLU:543:OE2:4910, V-B:ASN:362:CB:8147, V-B:ALA:541:C:9859, V-B:ASN:362:C:8143"]

$$$$
3bd_Grossjean_2025
     RDKit          3D

 43 45  0  0  0  0  0  0  0  0999 V2000
  130.3630  119.0760   61.3750 C   0  0  0  0  0  0  0  0  0  0  0  0
  130.2750  120.5690   61.0620 C   0  0  0  0  0  0  0  0  0  0  0  0
  129.0100  121.1250   60.8410 C   0  0  0  0  0  0  0  0  0  0  0  0
  128.8880  122.4880   60.5480 C   0  0  0  0  0  0  0  0  0  0  0  0
  127.5630  123.1490   60.3050 C   0  0  0  0  0  0  0  0  0  0  0  0
  127.0570  123.2840   59.0020 C   0  0  0  0  0  0  0  0  0  0  0  0
  125.8290  123.8980   58.7690 C   0  0  0  0  0  0  0  0  0  0  0  0
  125.0880  124.3880   59.8400 C   0  0  0  0  0  0  0  0  0  0  0  0
  125.5680  124.2690   61.1400 C   0  0  0  0  0  0  0  0  0  0  0  0
  126.7960  123.6550   61.3680 C   0  0  0  0  0  0  0  0  0  0  0  0
  129.9850  123.2880   60.4880 N   0  0  0  0  0  0  0  0  0  0  0  0
  131.2190  122.7650   60.6990 C   0  0  0  0  0  0  0  0  0  0  0  0
  132.5780  123.9170   60.5810 S   0  0  0  0  0  0  0  0  0  0  0  0
  133.7180  123.5860   61.9570 C   0  0  0  0  0  0  0  0  0  0  0  0
  133.2120  124.1750   63.2750 C   0  0  0  0  0  0  0  0  0  0  0  0
  133.9920  124.8120   63.9840 O   0  0  0  0  0  0  0  0  0  0  0  0
  131.9170  123.9280   63.5670 N   0  0  0  0  0  0  0  0  0  0  0  0
  131.1630  124.3510   64.6780 C   0  0  0  0  0  0  0  0  0  0  0  0
  131.1870  125.7220   64.9500 C   0  0  0  0  0  0  0  0  0  0  0  0
  130.4790  126.2330   66.0340 C   0  0  0  0  0  0  0  0  0  0  0  0
  129.7530  125.3730   66.8530 C   0  0  0  0  0  0  0  0  0  0  0  0
  129.7330  124.0030   66.6000 C   0  0  0  0  0  0  0  0  0  0  0  0
  130.4390  123.4890   65.5160 C   0  0  0  0  0  0  0  0  0  0  0  0
  131.4150  121.3980   60.9910 C   0  0  0  0  0  0  0  0  0  0  0  0
  132.7540  120.8450   61.2190 C   0  0  0  0  0  0  0  0  0  0  0  0
  133.8090  120.4080   61.4000 N   0  0  0  0  0  0  0  0  0  0  0  0
  130.3716  118.9298   62.4652 H   0  0  0  0  0  0  0  0  0  0  0  0
  129.4938  118.5588   60.9426 H   0  0  0  0  0  0  0  0  0  0  0  0
  131.2870  118.6645   60.9426 H   0  0  0  0  0  0  0  0  0  0  0  0
  128.1125  120.4915   60.8975 H   0  0  0  0  0  0  0  0  0  0  0  0
  127.6397  122.8988   58.1522 H   0  0  0  0  0  0  0  0  0  0  0  0
  125.4463  123.9953   57.7423 H   0  0  0  0  0  0  0  0  0  0  0  0
  124.1173  124.8721   59.6575 H   0  0  0  0  0  0  0  0  0  0  0  0
  124.9798  124.6584   61.9840 H   0  0  0  0  0  0  0  0  0  0  0  0
  127.1724  123.5643   62.3976 H   0  0  0  0  0  0  0  0  0  0  0  0
  133.8277  122.4977   62.0733 H   0  0  0  0  0  0  0  0  0  0  0  0
  134.6821  124.0602   61.7210 H   0  0  0  0  0  0  0  0  0  0  0  0
  131.4240  123.3120   62.9360 H   0  0  0  0  0  0  0  0  0  0  0  0
  131.7671  126.3989   64.3055 H   0  0  0  0  0  0  0  0  0  0  0  0
  130.4932  127.3129   66.2427 H   0  0  0  0  0  0  0  0  0  0  0  0
  129.1904  125.7783   67.7070 H   0  0  0  0  0  0  0  0  0  0  0  0
  129.1609  123.3295   67.2550 H   0  0  0  0  0  0  0  0  0  0  0  0
  130.4294  122.4073   65.3163 H   0  0  0  0  0  0  0  0  0  0  0  0
  1  2  1  0
  2  3  2  0
  3  4  1  0
  4  5  1  0
  5  6  2  0
  6  7  1  0
  7  8  2  0
  8  9  1  0
  9 10  2  0
  4 11  2  0
 11 12  1  0
 12 13  1  0
 13 14  1  0
 14 15  1  0
 15 16  2  0
 15 17  1  0
 17 18  1  0
 18 19  2  0
 19 20  1  0
 20 21  2  0
 21 22  1  0
 22 23  2  0
 12 24  2  0
 24 25  1  0
 25 26  3  0
 24  2  1  0
 10  5  1  0
 23 18  1  0
  1 27  1  0
  1 28  1  0
  1 29  1  0
  3 30  1  0
  6 31  1  0
  7 32  1  0
  8 33  1  0
  9 34  1  0
 10 35  1  0
 14 36  1  0
 14 37  1  0
 17 38  1  0
 19 39  1  0
 20 40  1  0
 21 41  1  0
 22 42  1  0
 23 43  1  0
M  END
>  <Binding energies>  (1) 
[-7.67]

>  <Ligand effiencies>  (1) 
[-0.2840740740740741]

>  <Interactions>  (1) 
["V-B:GLU:543:CD:9879, V-A:LEU:475:CD2:4258, V-A:TYR:484:CZ:4346, V-A:GLU:543:CD:4908, V-A:ILE:369:CD1:3238, V-A:HIS:456:CE1:4069, V-B:TYR:539:CD2:9845, V-A:ILE:369:CG2:3236, V-B:TYR:539:CE2:9847, V-B:ALA:541:CB:9863, V-B:GLU:543:CG:9878, V-B:GLU:543:CB:9877, V-B:PRO:540:C:9852, V-B:ALA:541:CA:9861, V-B:PRO:540:N:9855, V-A:TRP:381:CZ2:3369, V-B:TYR:539:C:9838, V-B:PRO:540:CA:9854, V-A:TRP:381:CH2:3371, H-A:GLY:454:N:4049, V-B:PRO:540:CB:9856, V-A:TYR:484:CE1:4344, V-B:GLU:543:CA:9875, V-A:PRO:482:CB:4325, V-A:PRO:482:CG:4326"]

$$$$
3be_Grossjean_2025
     RDKit          3D

 45 47  0  0  0  0  0  0  0  0999 V2000
  123.7520  129.6590   67.6960 C   0  0  0  0  0  0  0  0  0  0  0  0
  124.6970  129.7240   66.5120 C   0  0  0  0  0  0  0  0  0  0  0  0
  126.0720  129.5310   66.6620 C   0  0  0  0  0  0  0  0  0  0  0  0
  126.8820  129.6080   65.5280 C   0  0  0  0  0  0  0  0  0  0  0  0
  126.3020  129.8720   64.2840 C   0  0  0  0  0  0  0  0  0  0  0  0
  124.9170  130.0520   64.2040 C   0  0  0  0  0  0  0  0  0  0  0  0
  124.3960  130.3260   62.9250 N   0  0  0  0  0  0  0  0  0  0  0  0
  124.0570  131.5180   62.3880 C   0  0  0  0  0  0  0  0  0  0  0  0
  124.1520  132.6000   62.9700 O   0  0  0  0  0  0  0  0  0  0  0  0
  123.5250  131.4460   60.9480 C   0  0  0  0  0  0  0  0  0  0  0  0
  124.1860  132.7120   59.8120 S   0  0  0  0  0  0  0  0  0  0  0  0
  125.5360  133.5360   60.6270 C   0  0  0  0  0  0  0  0  0  0  0  0
  126.7410  132.9550   60.4060 N   0  0  0  0  0  0  0  0  0  0  0  0
  127.8610  133.4830   60.9670 C   0  0  0  0  0  0  0  0  0  0  0  0
  129.1510  132.7720   60.6840 C   0  0  0  0  0  0  0  0  0  0  0  0
  129.6110  132.6150   59.3670 C   0  0  0  0  0  0  0  0  0  0  0  0
  130.8060  131.9550   59.0970 C   0  0  0  0  0  0  0  0  0  0  0  0
  131.5600  131.4380   60.1450 C   0  0  0  0  0  0  0  0  0  0  0  0
  131.1270  131.5770   61.4590 C   0  0  0  0  0  0  0  0  0  0  0  0
  129.9310  132.2390   61.7240 C   0  0  0  0  0  0  0  0  0  0  0  0
  127.7900  134.6220   61.7760 C   0  0  0  0  0  0  0  0  0  0  0  0
  126.5580  135.2480   61.9940 C   0  0  0  0  0  0  0  0  0  0  0  0
  126.5310  136.4990   62.8700 C   0  0  0  0  0  0  0  0  0  0  0  0
  125.3950  134.7090   61.4020 C   0  0  0  0  0  0  0  0  0  0  0  0
  124.1040  135.3800   61.5730 C   0  0  0  0  0  0  0  0  0  0  0  0
  123.0850  135.9120   61.7090 N   0  0  0  0  0  0  0  0  0  0  0  0
  124.1200  129.9810   65.3100 N   0  0  0  0  0  0  0  0  0  0  0  0
  124.3314  129.6989   68.6302 H   0  0  0  0  0  0  0  0  0  0  0  0
  123.0579  130.5115   67.6584 H   0  0  0  0  0  0  0  0  0  0  0  0
  123.1812  128.7195   67.6584 H   0  0  0  0  0  0  0  0  0  0  0  0
  126.5065  129.3231   67.6509 H   0  0  0  0  0  0  0  0  0  0  0  0
  127.9690  129.4620   65.6127 H   0  0  0  0  0  0  0  0  0  0  0  0
  126.9259  129.9373   63.3804 H   0  0  0  0  0  0  0  0  0  0  0  0
  124.2350  129.5100   62.3530 H   0  0  0  0  0  0  0  0  0  0  0  0
  123.7794  130.4566   60.5402 H   0  0  0  0  0  0  0  0  0  0  0  0
  122.4423  131.6291   61.0128 H   0  0  0  0  0  0  0  0  0  0  0  0
  129.0170  133.0204   58.5347 H   0  0  0  0  0  0  0  0  0  0  0  0
  131.1527  131.8427   58.0591 H   0  0  0  0  0  0  0  0  0  0  0  0
  132.5047  130.9159   59.9331 H   0  0  0  0  0  0  0  0  0  0  0  0
  131.7262  131.1661   62.2849 H   0  0  0  0  0  0  0  0  0  0  0  0
  129.5913  132.3464   62.7647 H   0  0  0  0  0  0  0  0  0  0  0  0
  128.7021  135.0251   62.2404 H   0  0  0  0  0  0  0  0  0  0  0  0
  126.5374  136.2047   63.9299 H   0  0  0  0  0  0  0  0  0  0  0  0
  127.4160  137.1160   62.6555 H   0  0  0  0  0  0  0  0  0  0  0  0
  125.6202  137.0772   62.6555 H   0  0  0  0  0  0  0  0  0  0  0  0
  1  2  1  0
  2  3  2  0
  3  4  1  0
  4  5  2  0
  5  6  1  0
  6  7  1  0
  7  8  1  0
  8  9  2  0
  8 10  1  0
 10 11  1  0
 11 12  1  0
 12 13  2  0
 13 14  1  0
 14 15  1  0
 15 16  2  0
 16 17  1  0
 17 18  2  0
 18 19  1  0
 19 20  2  0
 14 21  2  0
 21 22  1  0
 22 23  1  0
 22 24  2  0
 24 25  1  0
 25 26  3  0
  6 27  2  0
 27  2  1  0
 24 12  1  0
 20 15  1  0
  1 28  1  0
  1 29  1  0
  1 30  1  0
  3 31  1  0
  4 32  1  0
  5 33  1  0
  7 34  1  0
 10 35  1  0
 10 36  1  0
 16 37  1  0
 17 38  1  0
 18 39  1  0
 19 40  1  0
 20 41  1  0
 21 42  1  0
 23 43  1  0
 23 44  1  0
 23 45  1  0
M  END
>  <Binding energies>  (1) 
[-8.96]

>  <Ligand effiencies>  (1) 
[-0.32]

>  <Interactions>  (1) 
["V-B:ASP:366:CG:8184, V-B:HIS:456:CE1:9041, V-B:ILE:369:CB:8207, V-A:ALA:541:CB:4892, V-B:TRP:381:CZ2:8341, V-B:ILE:369:CD1:8210, V-B:PRO:482:CB:9297, V-B:PRO:482:CG:9298, V-B:LEU:475:CD1:9229, V-B:ILE:369:CG2:8208, V-B:TRP:381:CH2:8343, V-A:TYR:539:CE2:4876, V-A:TYR:539:CD2:4874, H-B:GLY:454:N:9021, V-B:ASP:366:CB:8183, H-B:ARG:545:NH2:9899, V-A:PRO:540:CA:4883, H-B:ARG:545:NE:9895, V-B:ARG:545:CZ:9897, H-B:ASP:366:OD1:8185, H-B:ASP:366:OD2:8186, V-A:TYR:539:C:4867, V-B:ARG:545:CG:9893, V-B:ARG:545:CD:9894, V-B:ARG:545:CB:9892, V-B:ASP:366:CA:8181, V-A:PRO:540:N:4884, V-B:ILE:455:C:9023"]

$$$$
3bf_Grossjean_2025
     RDKit          3D

 42 44  0  0  0  0  0  0  0  0999 V2000
  123.6050  129.6600   66.8450 C   0  0  0  0  0  0  0  0  0  0  0  0
  125.0760  129.6480   66.4340 C   0  0  0  0  0  0  0  0  0  0  0  0
  126.0180  129.2120   67.3720 C   0  0  0  0  0  0  0  0  0  0  0  0
  127.3750  129.1700   67.0320 C   0  0  0  0  0  0  0  0  0  0  0  0
  128.4310  128.6920   67.9830 C   0  0  0  0  0  0  0  0  0  0  0  0
  128.7340  129.4220   69.1430 C   0  0  0  0  0  0  0  0  0  0  0  0
  129.7130  128.9850   70.0300 C   0  0  0  0  0  0  0  0  0  0  0  0
  130.4060  127.8070   69.7670 C   0  0  0  0  0  0  0  0  0  0  0  0
  130.1260  127.0660   68.6240 C   0  0  0  0  0  0  0  0  0  0  0  0
  129.1460  127.5080   67.7390 C   0  0  0  0  0  0  0  0  0  0  0  0
  127.7960  129.5500   65.7970 N   0  0  0  0  0  0  0  0  0  0  0  0
  126.8980  129.9990   64.8860 C   0  0  0  0  0  0  0  0  0  0  0  0
  127.6300  130.4580   63.3290 S   0  0  0  0  0  0  0  0  0  0  0  0
  128.5610  132.0080   63.5770 C   0  0  0  0  0  0  0  0  0  0  0  0
  129.5700  132.3470   62.4700 C   0  0  0  0  0  0  0  0  0  0  0  0
  129.3800  133.3030   61.7160 O   0  0  0  0  0  0  0  0  0  0  0  0
  130.6540  131.5420   62.4310 N   0  0  0  0  0  0  0  0  0  0  0  0
  131.7460  131.5740   61.5440 C   0  0  0  0  0  0  0  0  0  0  0  0
  131.4750  131.3590   60.1880 C   0  0  0  0  0  0  0  0  0  0  0  0
  132.5140  131.3910   59.2560 C   0  0  0  0  0  0  0  0  0  0  0  0
  133.8080  131.6460   59.7110 C   0  0  0  0  0  0  0  0  0  0  0  0
  134.1000  131.8690   61.0170 N   0  0  0  0  0  0  0  0  0  0  0  0
  133.0780  131.8340   61.9120 C   0  0  0  0  0  0  0  0  0  0  0  0
  125.5120  130.0500   65.1530 C   0  0  0  0  0  0  0  0  0  0  0  0
  124.5370  130.4630   64.1400 C   0  0  0  0  0  0  0  0  0  0  0  0
  123.7660  130.7900   63.3410 N   0  0  0  0  0  0  0  0  0  0  0  0
  123.5309  129.6606   67.9425 H   0  0  0  0  0  0  0  0  0  0  0  0
  123.1197  130.5621   66.4442 H   0  0  0  0  0  0  0  0  0  0  0  0
  123.1050  128.7659   66.4442 H   0  0  0  0  0  0  0  0  0  0  0  0
  125.6923  128.9024   68.3760 H   0  0  0  0  0  0  0  0  0  0  0  0
  128.1891  130.3539   69.3541 H   0  0  0  0  0  0  0  0  0  0  0  0
  129.9383  129.5680   70.9352 H   0  0  0  0  0  0  0  0  0  0  0  0
  131.1799  127.4600   70.4675 H   0  0  0  0  0  0  0  0  0  0  0  0
  130.6759  126.1354   68.4200 H   0  0  0  0  0  0  0  0  0  0  0  0
  128.9284  126.9207   66.8347 H   0  0  0  0  0  0  0  0  0  0  0  0
  127.8369  132.8335   63.6424 H   0  0  0  0  0  0  0  0  0  0  0  0
  129.1500  131.8676   64.4954 H   0  0  0  0  0  0  0  0  0  0  0  0
  130.7260  130.8460   63.1590 H   0  0  0  0  0  0  0  0  0  0  0  0
  130.4442  131.1649   59.8567 H   0  0  0  0  0  0  0  0  0  0  0  0
  132.3169  131.2191   58.1875 H   0  0  0  0  0  0  0  0  0  0  0  0
  134.6281  131.6672   58.9782 H   0  0  0  0  0  0  0  0  0  0  0  0
  133.3031  132.0175   62.9730 H   0  0  0  0  0  0  0  0  0  0  0  0
  1  2  1  0
  2  3  2  0
  3  4  1  0
  4  5  1  0
  5  6  2  0
  6  7  1  0
  7  8  2  0
  8  9  1  0
  9 10  2  0
  4 11  2  0
 11 12  1  0
 12 13  1  0
 13 14  1  0
 14 15  1  0
 15 16  2  0
 15 17  1  0
 17 18  1  0
 18 19  2  0
 19 20  1  0
 20 21  2  0
 21 22  1  0
 22 23  2  0
 12 24  2  0
 24 25  1  0
 25 26  3  0
 24  2  1  0
 10  5  1  0
 23 18  1  0
  1 27  1  0
  1 28  1  0
  1 29  1  0
  3 30  1  0
  6 31  1  0
  7 32  1  0
  8 33  1  0
  9 34  1  0
 10 35  1  0
 14 36  1  0
 14 37  1  0
 17 38  1  0
 19 39  1  0
 20 40  1  0
 21 41  1  0
 23 42  1  0
M  END
>  <Binding energies>  (1) 
[-8.29]

>  <Ligand effiencies>  (1) 
[-0.307037037037037]

>  <Interactions>  (1) 
["V-B:HIS:456:CE1:9041, V-A:ASP:366:CG:3212, V-A:GLU:543:CD:4908, V-B:GLY:454:CA:9020, V-A:ALA:541:CB:4892, V-A:GLU:543:CG:4907, V-A:HIS:456:CE1:4069, V-A:GLU:543:CB:4906, H-B:GLY:454:N:9021, V-A:ASN:362:CB:3175, V-A:ALA:541:CA:4890, V-A:PRO:540:CB:4885, V-A:PRO:540:CA:4883, V-B:ARG:545:CZ:9897, V-B:ARG:545:CG:9893, H-A:ALA:541:N:4891, H-A:GLU:543:OE1:4909, V-B:ARG:545:CD:9894, V-B:GLY:453:C:9013, V-A:LEU:363:CA:3184, V-A:LEU:363:CB:3186, V-A:ASN:362:C:3171, H-A:LEU:363:N:3185"]

$$$$
3bg_Grossjean_2025
     RDKit          3D

 46 48  0  0  0  0  0  0  0  0999 V2000
  126.5630  136.7140   62.6550 C   0  0  0  0  0  0  0  0  0  0  0  0
  126.6050  135.3800   61.9110 C   0  0  0  0  0  0  0  0  0  0  0  0
  127.8450  134.7570   61.7420 C   0  0  0  0  0  0  0  0  0  0  0  0
  127.9280  133.5290   61.0720 C   0  0  0  0  0  0  0  0  0  0  0  0
  129.2270  132.8000   60.8660 C   0  0  0  0  0  0  0  0  0  0  0  0
  129.7690  132.6350   59.5800 C   0  0  0  0  0  0  0  0  0  0  0  0
  130.9800  131.9770   59.3870 C   0  0  0  0  0  0  0  0  0  0  0  0
  131.6710  131.4680   60.4810 C   0  0  0  0  0  0  0  0  0  0  0  0
  131.1540  131.6060   61.7640 C   0  0  0  0  0  0  0  0  0  0  0  0
  129.9410  132.2630   61.9520 C   0  0  0  0  0  0  0  0  0  0  0  0
  126.8060  132.9240   60.5980 N   0  0  0  0  0  0  0  0  0  0  0  0
  125.5940  133.5140   60.7570 C   0  0  0  0  0  0  0  0  0  0  0  0
  124.1980  132.6000   60.1200 S   0  0  0  0  0  0  0  0  0  0  0  0
  124.0710  131.0330   61.0430 C   0  0  0  0  0  0  0  0  0  0  0  0
  124.1240  131.2580   62.5570 C   0  0  0  0  0  0  0  0  0  0  0  0
  123.1500  130.9710   63.2540 O   0  0  0  0  0  0  0  0  0  0  0  0
  125.2560  131.7950   63.0440 N   0  0  0  0  0  0  0  0  0  0  0  0
  125.4540  132.2600   64.4170 C   0  0  0  0  0  0  0  0  0  0  0  0
  125.8140  131.1150   65.3560 C   0  0  0  0  0  0  0  0  0  0  0  0
  124.8070  130.3010   65.8860 C   0  0  0  0  0  0  0  0  0  0  0  0
  125.1350  129.2620   66.7510 C   0  0  0  0  0  0  0  0  0  0  0  0
  126.4700  129.0300   67.0760 C   0  0  0  0  0  0  0  0  0  0  0  0
  127.4810  129.8220   66.5360 C   0  0  0  0  0  0  0  0  0  0  0  0
  127.1520  130.8630   65.6700 C   0  0  0  0  0  0  0  0  0  0  0  0
  125.4440  134.7580   61.4060 C   0  0  0  0  0  0  0  0  0  0  0  0
  124.1300  135.3830   61.5750 C   0  0  0  0  0  0  0  0  0  0  0  0
  123.0930  135.8780   61.7090 N   0  0  0  0  0  0  0  0  0  0  0  0
  126.5688  136.5294   63.7394 H   0  0  0  0  0  0  0  0  0  0  0  0
  127.4427  137.3147   62.3806 H   0  0  0  0  0  0  0  0  0  0  0  0
  125.6473  137.2582   62.3806 H   0  0  0  0  0  0  0  0  0  0  0  0
  128.7563  135.2311   62.1353 H   0  0  0  0  0  0  0  0  0  0  0  0
  129.2262  133.0332   58.7101 H   0  0  0  0  0  0  0  0  0  0  0  0
  131.3891  131.8600   58.3726 H   0  0  0  0  0  0  0  0  0  0  0  0
  132.6316  130.9536   60.3305 H   0  0  0  0  0  0  0  0  0  0  0  0
  131.7008  131.1979   62.6268 H   0  0  0  0  0  0  0  0  0  0  0  0
  129.5336  132.3639   62.9688 H   0  0  0  0  0  0  0  0  0  0  0  0
  123.1179  130.5463   60.7886 H   0  0  0  0  0  0  0  0  0  0  0  0
  124.9258  130.4005   60.7615 H   0  0  0  0  0  0  0  0  0  0  0  0
  126.0010  132.0040   62.3960 H   0  0  0  0  0  0  0  0  0  0  0  0
  126.2684  132.9994   64.4285 H   0  0  0  0  0  0  0  0  0  0  0  0
  124.5108  132.7051   64.7666 H   0  0  0  0  0  0  0  0  0  0  0  0
  123.7556  130.4826   65.6186 H   0  0  0  0  0  0  0  0  0  0  0  0
  124.3442  128.6266   67.1764 H   0  0  0  0  0  0  0  0  0  0  0  0
  126.7283  128.2132   67.7660 H   0  0  0  0  0  0  0  0  0  0  0  0
  128.5329  129.6267   66.7918 H   0  0  0  0  0  0  0  0  0  0  0  0
  127.9460  131.4866   65.2334 H   0  0  0  0  0  0  0  0  0  0  0  0
  1  2  1  0
  2  3  2  0
  3  4  1  0
  4  5  1  0
  5  6  2  0
  6  7  1  0
  7  8  2  0
  8  9  1  0
  9 10  2  0
  4 11  2  0
 11 12  1  0
 12 13  1  0
 13 14  1  0
 14 15  1  0
 15 16  2  0
 15 17  1  0
 17 18  1  0
 18 19  1  0
 19 20  2  0
 20 21  1  0
 21 22  2  0
 22 23  1  0
 23 24  2  0
 12 25  2  0
 25 26  1  0
 26 27  3  0
 25  2  1  0
 10  5  1  0
 24 19  1  0
  1 28  1  0
  1 29  1  0
  1 30  1  0
  3 31  1  0
  6 32  1  0
  7 33  1  0
  8 34  1  0
  9 35  1  0
 10 36  1  0
 14 37  1  0
 14 38  1  0
 17 39  1  0
 18 40  1  0
 18 41  1  0
 20 42  1  0
 21 43  1  0
 22 44  1  0
 23 45  1  0
 24 46  1  0
M  END
>  <Binding energies>  (1) 
[-7.7]

>  <Ligand effiencies>  (1) 
[-0.275]

>  <Interactions>  (1) 
["V-B:ASP:366:CG:8184, V-B:HIS:456:CE1:9041, V-B:GLU:543:CD:9879, V-A:GLU:543:CD:4908, V-B:GLY:454:CA:9020, V-A:ALA:541:CB:4892, V-B:TRP:381:CZ2:8341, V-B:ILE:369:CD1:8210, V-A:GLU:543:CG:4907, V-B:PRO:482:CB:9297, V-B:PRO:482:CG:9298, V-B:LEU:475:CD1:9229, V-B:ILE:369:CG2:8208, V-B:TRP:381:CH2:8343, V-A:TYR:539:CE2:4876, V-A:TYR:539:CD2:4874, H-B:GLY:454:N:9021, V-B:ASP:366:CB:8183, V-A:PRO:540:CB:4885, V-A:PRO:540:CA:4883, V-A:TYR:539:C:4867, V-B:ARG:545:CG:9893, V-B:ARG:545:CD:9894, V-A:PRO:540:N:4884"]

$$$$
3bk_Grossjean_2025
     RDKit          3D

 57 58  0  0  0  0  0  0  0  0999 V2000
  129.5810  126.5340   73.0570 C   0  0  0  0  0  0  0  0  0  0  0  0
  128.3690  125.8630   72.7510 O   0  0  0  0  0  0  0  0  0  0  0  0
  128.2140  125.5760   71.3680 C   0  0  0  0  0  0  0  0  0  0  0  0
  129.1930  126.4310   70.5520 C   0  0  0  0  0  0  0  0  0  0  0  0
  128.6100  126.7430   69.2940 O   0  0  0  0  0  0  0  0  0  0  0  0
  129.5570  127.0750   68.2880 C   0  0  0  0  0  0  0  0  0  0  0  0
  129.0700  126.5390   66.9360 C   0  0  0  0  0  0  0  0  0  0  0  0
  130.1260  125.8340   66.2990 O   0  0  0  0  0  0  0  0  0  0  0  0
  131.3630  125.8980   66.9970 C   0  0  0  0  0  0  0  0  0  0  0  0
  132.5100  125.5540   66.0360 C   0  0  0  0  0  0  0  0  0  0  0  0
  132.0810  125.5430   64.6370 N   0  0  0  0  0  0  0  0  0  0  0  0
  132.8500  125.2100   63.5860 C   0  0  0  0  0  0  0  0  0  0  0  0
  134.0250  124.8510   63.6860 O   0  0  0  0  0  0  0  0  0  0  0  0
  132.1860  125.2680   62.2090 C   0  0  0  0  0  0  0  0  0  0  0  0
  132.6780  123.8660   61.1560 S   0  0  0  0  0  0  0  0  0  0  0  0
  131.3270  122.7030   61.0670 C   0  0  0  0  0  0  0  0  0  0  0  0
  130.0930  123.2400   60.8890 N   0  0  0  0  0  0  0  0  0  0  0  0
  129.0040  122.4310   60.8130 C   0  0  0  0  0  0  0  0  0  0  0  0
  127.6830  123.1040   60.5940 C   0  0  0  0  0  0  0  0  0  0  0  0
  126.9410  123.6000   61.6780 C   0  0  0  0  0  0  0  0  0  0  0  0
  125.7110  124.2220   61.4810 C   0  0  0  0  0  0  0  0  0  0  0  0
  125.2030  124.3570   60.1930 C   0  0  0  0  0  0  0  0  0  0  0  0
  125.9200  123.8770   59.1010 C   0  0  0  0  0  0  0  0  0  0  0  0
  127.1500  123.2580   59.3020 C   0  0  0  0  0  0  0  0  0  0  0  0
  129.1350  121.0410   60.9100 C   0  0  0  0  0  0  0  0  0  0  0  0
  130.3990  120.4700   61.0950 C   0  0  0  0  0  0  0  0  0  0  0  0
  130.4960  118.9490   61.1970 C   0  0  0  0  0  0  0  0  0  0  0  0
  131.5290  121.3100   61.1780 C   0  0  0  0  0  0  0  0  0  0  0  0
  132.8660  120.7410   61.3690 C   0  0  0  0  0  0  0  0  0  0  0  0
  133.9210  120.2910   61.5210 N   0  0  0  0  0  0  0  0  0  0  0  0
  129.6985  126.5991   74.1488 H   0  0  0  0  0  0  0  0  0  0  0  0
  130.4271  125.9758   72.6297 H   0  0  0  0  0  0  0  0  0  0  0  0
  129.5571  127.5474   72.6297 H   0  0  0  0  0  0  0  0  0  0  0  0
  128.4218  124.5106   71.1896 H   0  0  0  0  0  0  0  0  0  0  0  0
  127.1834  125.8066   71.0603 H   0  0  0  0  0  0  0  0  0  0  0  0
  129.4103  127.3615   71.0970 H   0  0  0  0  0  0  0  0  0  0  0  0
  130.1277  125.8724   70.3960 H   0  0  0  0  0  0  0  0  0  0  0  0
  129.6657  128.1682   68.2322 H   0  0  0  0  0  0  0  0  0  0  0  0
  130.5295  126.6238   68.5344 H   0  0  0  0  0  0  0  0  0  0  0  0
  128.2194  125.8600   67.0954 H   0  0  0  0  0  0  0  0  0  0  0  0
  128.7537  127.3792   66.3004 H   0  0  0  0  0  0  0  0  0  0  0  0
  131.5085  126.9138   67.3932 H   0  0  0  0  0  0  0  0  0  0  0  0
  131.3528  125.1785   67.8290 H   0  0  0  0  0  0  0  0  0  0  0  0
  133.3073  126.3024   66.1552 H   0  0  0  0  0  0  0  0  0  0  0  0
  132.8654  124.5434   66.2859 H   0  0  0  0  0  0  0  0  0  0  0  0
  131.1110  125.7690   64.4710 H   0  0  0  0  0  0  0  0  0  0  0  0
  131.0940  125.2479   62.3400 H   0  0  0  0  0  0  0  0  0  0  0  0
  132.5099  126.1954   61.7139 H   0  0  0  0  0  0  0  0  0  0  0  0
  127.3376  123.4955   62.6987 H   0  0  0  0  0  0  0  0  0  0  0  0
  125.1427  124.6055   62.3412 H   0  0  0  0  0  0  0  0  0  0  0  0
  124.2299  124.8455   60.0369 H   0  0  0  0  0  0  0  0  0  0  0  0
  125.5162  123.9864   58.0836 H   0  0  0  0  0  0  0  0  0  0  0  0
  127.7147  122.8829   58.4357 H   0  0  0  0  0  0  0  0  0  0  0  0
  128.2452  120.3980   60.8409 H   0  0  0  0  0  0  0  0  0  0  0  0
  130.5149  118.6530   62.2563 H   0  0  0  0  0  0  0  0  0  0  0  0
  129.6252  118.4922   60.7041 H   0  0  0  0  0  0  0  0  0  0  0  0
  131.4178  118.6065   60.7041 H   0  0  0  0  0  0  0  0  0  0  0  0
  1  2  1  0
  2  3  1  0
  3  4  1  0
  4  5  1  0
  5  6  1  0
  6  7  1  0
  7  8  1  0
  8  9  1  0
  9 10  1  0
 10 11  1  0
 11 12  1  0
 12 13  2  0
 12 14  1  0
 14 15  1  0
 15 16  1  0
 16 17  2  0
 17 18  1  0
 18 19  1  0
 19 20  2  0
 20 21  1  0
 21 22  2  0
 22 23  1  0
 23 24  2  0
 18 25  2  0
 25 26  1  0
 26 27  1  0
 26 28  2  0
 28 29  1  0
 29 30  3  0
 28 16  1  0
 24 19  1  0
  1 31  1  0
  1 32  1  0
  1 33  1  0
  3 34  1  0
  3 35  1  0
  4 36  1  0
  4 37  1  0
  6 38  1  0
  6 39  1  0
  7 40  1  0
  7 41  1  0
  9 42  1  0
  9 43  1  0
 10 44  1  0
 10 45  1  0
 11 46  1  0
 14 47  1  0
 14 48  1  0
 20 49  1  0
 21 50  1  0
 22 51  1  0
 23 52  1  0
 24 53  1  0
 25 54  1  0
 27 55  1  0
 27 56  1  0
 27 57  1  0
M  END
>  <Binding energies>  (1) 
[-6.65]

>  <Ligand effiencies>  (1) 
[-0.21451612903225808]

>  <Interactions>  (1) 
["V-B:HIS:456:CE1:9041, V-A:ARG:545:CZ:4926, V-B:GLU:543:CD:9879, V-A:LEU:475:CD2:4258, V-A:HIS:456:CE1:4069, V-B:TYR:539:CD2:9845, V-A:ILE:369:CG2:3236, V-B:TYR:539:CE2:9847, V-A:HIS:456:CD2:4067, V-B:ALA:541:CB:9863, V-B:GLU:543:C:9873, V-B:GLU:543:CG:9878, V-B:GLU:543:CB:9877, H-B:LYS:547:NZ:9922, V-B:PRO:540:C:9852, V-B:ALA:541:CA:9861, V-A:TRP:381:CZ2:3369, V-B:TYR:539:C:9838, V-B:PRO:540:CA:9854, V-A:TRP:381:CH2:3371, H-A:GLY:454:N:4049, V-B:PRO:540:CB:9856, H-A:GLU:543:OE2:4910, V-A:PRO:482:CB:4325, V-A:PRO:482:CG:4326, V-A:TRP:381:CZ3:3370"]

$$$$
3ca_Grossjean_2025
     RDKit          3D

 52 54  0  0  0  0  0  0  0  0999 V2000
  128.7910  123.5950   73.0580 C   0  0  0  0  0  0  0  0  0  0  0  0
  129.5740  124.5500   73.9640 C   0  0  0  0  0  0  0  0  0  0  0  0
  129.0240  125.8570   73.8620 O   0  0  0  0  0  0  0  0  0  0  0  0
  129.7610  126.8930   73.3850 C   0  0  0  0  0  0  0  0  0  0  0  0
  130.4880  127.5950   74.0940 O   0  0  0  0  0  0  0  0  0  0  0  0
  129.6080  127.0970   71.9040 C   0  0  0  0  0  0  0  0  0  0  0  0
  130.4310  128.0250   71.2540 C   0  0  0  0  0  0  0  0  0  0  0  0
  130.3130  128.2370   69.8830 C   0  0  0  0  0  0  0  0  0  0  0  0
  129.3680  127.5320   69.1360 C   0  0  0  0  0  0  0  0  0  0  0  0
  129.3340  127.8220   67.7590 N   0  0  0  0  0  0  0  0  0  0  0  0
  128.3020  128.2300   66.9890 C   0  0  0  0  0  0  0  0  0  0  0  0
  127.1590  128.4490   67.3880 O   0  0  0  0  0  0  0  0  0  0  0  0
  128.6360  128.4470   65.5090 C   0  0  0  0  0  0  0  0  0  0  0  0
  127.1960  128.9660   64.5180 S   0  0  0  0  0  0  0  0  0  0  0  0
  127.5740  130.4800   63.6450 C   0  0  0  0  0  0  0  0  0  0  0  0
  128.8530  130.6040   63.2100 N   0  0  0  0  0  0  0  0  0  0  0  0
  129.2050  131.7130   62.5240 C   0  0  0  0  0  0  0  0  0  0  0  0
  130.6460  131.7690   62.0570 C   0  0  0  0  0  0  0  0  0  0  0  0
  128.3080  132.7450   62.2580 C   0  0  0  0  0  0  0  0  0  0  0  0
  126.9870  132.6500   62.7120 C   0  0  0  0  0  0  0  0  0  0  0  0
  126.0640  133.7870   62.4160 C   0  0  0  0  0  0  0  0  0  0  0  0
  126.5260  135.1060   62.4980 C   0  0  0  0  0  0  0  0  0  0  0  0
  125.6720  136.1730   62.2320 C   0  0  0  0  0  0  0  0  0  0  0  0
  124.3460  135.9240   61.8860 C   0  0  0  0  0  0  0  0  0  0  0  0
  123.8690  134.6180   61.8070 C   0  0  0  0  0  0  0  0  0  0  0  0
  124.7260  133.5540   62.0740 C   0  0  0  0  0  0  0  0  0  0  0  0
  126.6000  131.4820   63.4190 C   0  0  0  0  0  0  0  0  0  0  0  0
  125.2180  131.3020   63.8740 C   0  0  0  0  0  0  0  0  0  0  0  0
  124.1260  131.1620   64.2330 N   0  0  0  0  0  0  0  0  0  0  0  0
  128.5460  126.5940   69.7780 C   0  0  0  0  0  0  0  0  0  0  0  0
  128.6660  126.3820   71.1500 C   0  0  0  0  0  0  0  0  0  0  0  0
  128.2146  122.8920   73.6773 H   0  0  0  0  0  0  0  0  0  0  0  0
  128.1035  124.1730   72.4230 H   0  0  0  0  0  0  0  0  0  0  0  0
  129.4926  123.0341   72.4230 H   0  0  0  0  0  0  0  0  0  0  0  0
  129.5072  124.2043   75.0061 H   0  0  0  0  0  0  0  0  0  0  0  0
  130.6285  124.5703   73.6515 H   0  0  0  0  0  0  0  0  0  0  0  0
  131.1768  128.5911   71.8313 H   0  0  0  0  0  0  0  0  0  0  0  0
  130.9695  128.9656   69.3848 H   0  0  0  0  0  0  0  0  0  0  0  0
  130.2310  127.7560   67.3010 H   0  0  0  0  0  0  0  0  0  0  0  0
  129.4101  129.2251   65.4355 H   0  0  0  0  0  0  0  0  0  0  0  0
  128.9805  127.4831   65.1062 H   0  0  0  0  0  0  0  0  0  0  0  0
  131.3138  131.7950   62.9307 H   0  0  0  0  0  0  0  0  0  0  0  0
  130.8698  130.8789   61.4507 H   0  0  0  0  0  0  0  0  0  0  0  0
  130.8001  132.6738   61.4507 H   0  0  0  0  0  0  0  0  0  0  0  0
  128.6360  133.6305   61.6938 H   0  0  0  0  0  0  0  0  0  0  0  0
  127.5726  135.3010   62.7749 H   0  0  0  0  0  0  0  0  0  0  0  0
  126.0424  137.2068   62.2948 H   0  0  0  0  0  0  0  0  0  0  0  0
  123.6702  136.7655   61.6735 H   0  0  0  0  0  0  0  0  0  0  0  0
  122.8202  134.4281   61.5350 H   0  0  0  0  0  0  0  0  0  0  0  0
  124.3494  132.5221   62.0159 H   0  0  0  0  0  0  0  0  0  0  0  0
  127.8053  126.0247   69.1973 H   0  0  0  0  0  0  0  0  0  0  0  0
  128.0157  125.6468   71.6465 H   0  0  0  0  0  0  0  0  0  0  0  0
  1  2  1  0
  2  3  1  0
  3  4  1  0
  4  5  2  0
  4  6  1  0
  6  7  2  0
  7  8  1  0
  8  9  2  0
  9 10  1  0
 10 11  1  0
 11 12  2  0
 11 13  1  0
 13 14  1  0
 14 15  1  0
 15 16  2  0
 16 17  1  0
 17 18  1  0
 17 19  2  0
 19 20  1  0
 20 21  1  0
 21 22  2  0
 22 23  1  0
 23 24  2  0
 24 25  1  0
 25 26  2  0
 20 27  2  0
 27 28  1  0
 28 29  3  0
  9 30  1  0
 30 31  2  0
 31  6  1  0
 27 15  1  0
 26 21  1  0
  1 32  1  0
  1 33  1  0
  1 34  1  0
  2 35  1  0
  2 36  1  0
  7 37  1  0
  8 38  1  0
 10 39  1  0
 13 40  1  0
 13 41  1  0
 18 42  1  0
 18 43  1  0
 18 44  1  0
 19 45  1  0
 22 46  1  0
 23 47  1  0
 24 48  1  0
 25 49  1  0
 26 50  1  0
 30 51  1  0
 31 52  1  0
M  END
>  <Binding energies>  (1) 
[-8.3]

>  <Ligand effiencies>  (1) 
[-0.259375]

>  <Interactions>  (1) 
["V-B:HIS:456:CE1:9041, V-B:GLU:543:CD:9879, V-A:GLU:543:CD:4908, V-A:ALA:541:CB:4892, V-B:TRP:381:CZ2:8341, V-B:ILE:369:CD1:8210, V-A:GLU:543:CG:4907, V-B:LEU:475:CD1:9229, V-B:ILE:369:CG2:8208, V-B:TRP:381:CH2:8343, V-A:HIS:456:CE1:4069, V-A:GLU:543:CB:4906, V-A:HIS:456:CD2:4067, H-B:GLY:454:N:9021, H-B:LYS:547:NZ:9922, V-B:LYS:547:CE:9921, H-A:LYS:547:NZ:4951, H-A:GLU:543:OE2:4910"]

$$$$
3cb_Grossjean_2025
     RDKit          3D

 49 51  0  0  0  0  0  0  0  0999 V2000
  125.6600  130.3300   57.2600 C   0  0  0  0  0  0  0  0  0  0  0  0
  124.3520  130.4730   57.7930 O   0  0  0  0  0  0  0  0  0  0  0  0
  124.0620  131.4580   58.6820 C   0  0  0  0  0  0  0  0  0  0  0  0
  123.5310  132.5260   58.3640 O   0  0  0  0  0  0  0  0  0  0  0  0
  124.4550  131.1200   60.0910 C   0  0  0  0  0  0  0  0  0  0  0  0
  125.5880  130.3450   60.3830 C   0  0  0  0  0  0  0  0  0  0  0  0
  125.9250  130.0530   61.7010 C   0  0  0  0  0  0  0  0  0  0  0  0
  125.1390  130.5210   62.7540 C   0  0  0  0  0  0  0  0  0  0  0  0
  125.5750  130.1680   64.0470 N   0  0  0  0  0  0  0  0  0  0  0  0
  124.8630  129.7770   65.1260 C   0  0  0  0  0  0  0  0  0  0  0  0
  123.6390  129.6390   65.1510 O   0  0  0  0  0  0  0  0  0  0  0  0
  125.7080  129.4820   66.3740 C   0  0  0  0  0  0  0  0  0  0  0  0
  127.5100  129.6710   66.1460 S   0  0  0  0  0  0  0  0  0  0  0  0
  128.2880  128.1650   66.6920 C   0  0  0  0  0  0  0  0  0  0  0  0
  128.0890  127.9000   68.0060 N   0  0  0  0  0  0  0  0  0  0  0  0
  128.6340  126.7810   68.5320 C   0  0  0  0  0  0  0  0  0  0  0  0
  128.3590  126.5430   70.0040 C   0  0  0  0  0  0  0  0  0  0  0  0
  129.3970  125.8930   67.7790 C   0  0  0  0  0  0  0  0  0  0  0  0
  129.6300  126.1540   66.4220 C   0  0  0  0  0  0  0  0  0  0  0  0
  130.4600  125.1740   65.6580 C   0  0  0  0  0  0  0  0  0  0  0  0
  131.8000  125.4600   65.3690 C   0  0  0  0  0  0  0  0  0  0  0  0
  132.5850  124.5480   64.6670 C   0  0  0  0  0  0  0  0  0  0  0  0
  132.0300  123.3400   64.2530 C   0  0  0  0  0  0  0  0  0  0  0  0
  130.7030  123.0350   64.5380 C   0  0  0  0  0  0  0  0  0  0  0  0
  129.9210  123.9480   65.2420 C   0  0  0  0  0  0  0  0  0  0  0  0
  129.0750  127.3330   65.8580 C   0  0  0  0  0  0  0  0  0  0  0  0
  129.3640  127.7040   64.4690 C   0  0  0  0  0  0  0  0  0  0  0  0
  129.5920  127.9970   63.3730 N   0  0  0  0  0  0  0  0  0  0  0  0
  124.0070  131.3000   62.4720 C   0  0  0  0  0  0  0  0  0  0  0  0
  123.6710  131.5930   61.1530 C   0  0  0  0  0  0  0  0  0  0  0  0
  126.3849  130.2507   58.0836 H   0  0  0  0  0  0  0  0  0  0  0  0
  125.7067  129.4214   56.6417 H   0  0  0  0  0  0  0  0  0  0  0  0
  125.9019  131.2070   56.6417 H   0  0  0  0  0  0  0  0  0  0  0  0
  126.2150  129.9652   59.5629 H   0  0  0  0  0  0  0  0  0  0  0  0
  126.8186  129.4481   61.9143 H   0  0  0  0  0  0  0  0  0  0  0  0
  126.5780  130.1920   64.1630 H   0  0  0  0  0  0  0  0  0  0  0  0
  125.3907  130.1697   67.1717 H   0  0  0  0  0  0  0  0  0  0  0  0
  125.5377  128.4230   66.6182 H   0  0  0  0  0  0  0  0  0  0  0  0
  129.0538  127.1443   70.6087 H   0  0  0  0  0  0  0  0  0  0  0  0
  127.3241  126.8351   70.2356 H   0  0  0  0  0  0  0  0  0  0  0  0
  128.4996  125.4769   70.2356 H   0  0  0  0  0  0  0  0  0  0  0  0
  129.8154  124.9899   68.2473 H   0  0  0  0  0  0  0  0  0  0  0  0
  132.2369  126.4139   65.6994 H   0  0  0  0  0  0  0  0  0  0  0  0
  133.6362  124.7807   64.4413 H   0  0  0  0  0  0  0  0  0  0  0  0
  132.6468  122.6199   63.6952 H   0  0  0  0  0  0  0  0  0  0  0  0
  130.2732  122.0774   64.2090 H   0  0  0  0  0  0  0  0  0  0  0  0
  128.8733  123.7055   65.4732 H   0  0  0  0  0  0  0  0  0  0  0  0
  123.3835  131.6802   63.2946 H   0  0  0  0  0  0  0  0  0  0  0  0
  122.7801  132.2026   60.9416 H   0  0  0  0  0  0  0  0  0  0  0  0
  1  2  1  0
  2  3  1  0
  3  4  2  0
  3  5  1  0
  5  6  2  0
  6  7  1  0
  7  8  2  0
  8  9  1  0
  9 10  1  0
 10 11  2  0
 10 12  1  0
 12 13  1  0
 13 14  1  0
 14 15  2  0
 15 16  1  0
 16 17  1  0
 16 18  2  0
 18 19  1  0
 19 20  1  0
 20 21  2  0
 21 22  1  0
 22 23  2  0
 23 24  1  0
 24 25  2  0
 19 26  2  0
 26 27  1  0
 27 28  3  0
  8 29  1  0
 29 30  2  0
 30  5  1  0
 26 14  1  0
 25 20  1  0
  1 31  1  0
  1 32  1  0
  1 33  1  0
  6 34  1  0
  7 35  1  0
  9 36  1  0
 12 37  1  0
 12 38  1  0
 17 39  1  0
 17 40  1  0
 17 41  1  0
 18 42  1  0
 21 43  1  0
 22 44  1  0
 23 45  1  0
 24 46  1  0
 25 47  1  0
 29 48  1  0
 30 49  1  0
M  END
>  <Binding energies>  (1) 
[-8.26]

>  <Ligand effiencies>  (1) 
[-0.2664516129032258]

>  <Interactions>  (1) 
["V-B:ASP:366:CG:8184, V-B:HIS:456:CE1:9041, V-B:GLU:543:CD:9879, V-A:GLU:543:CD:4908, V-B:ILE:369:CD1:8210, V-A:GLU:543:CG:4907, V-B:ILE:369:CG2:8208, V-A:TYR:539:CE2:4876, V-A:HIS:456:CE1:4069, V-B:GLU:543:CG:9878, V-B:GLU:543:CB:9877, H-B:GLY:454:N:9021, V-B:ASP:366:CB:8183, H-B:ARG:545:NH2:9899, H-B:ARG:545:NE:9895, H-B:ARG:545:NH1:9898, V-B:ARG:545:CZ:9897, H-B:TYR:531:OH:9766, V-B:ASP:366:CA:8181, H-A:TYR:539:OH:4878, H-B:ASN:370:N:8215"]

$$$$
3ce_Grossjean_2025
     RDKit          3D

 45 47  0  0  0  0  0  0  0  0999 V2000
  134.6280  125.1750   67.0550 C   0  0  0  0  0  0  0  0  0  0  0  0
  133.5290  125.4060   66.0350 C   0  0  0  0  0  0  0  0  0  0  0  0
  132.2410  125.7860   66.4210 C   0  0  0  0  0  0  0  0  0  0  0  0
  131.2840  125.9910   65.4280 C   0  0  0  0  0  0  0  0  0  0  0  0
  131.6310  125.8130   64.0870 C   0  0  0  0  0  0  0  0  0  0  0  0
  132.9370  125.4220   63.7700 C   0  0  0  0  0  0  0  0  0  0  0  0
  133.2350  125.2780   62.4040 N   0  0  0  0  0  0  0  0  0  0  0  0
  133.1930  124.1540   61.6540 C   0  0  0  0  0  0  0  0  0  0  0  0
  132.8670  123.0400   62.0670 O   0  0  0  0  0  0  0  0  0  0  0  0
  133.5770  124.3240   60.1840 C   0  0  0  0  0  0  0  0  0  0  0  0
  132.1330  124.6910   59.1430 S   0  0  0  0  0  0  0  0  0  0  0  0
  130.8130  123.6810   59.7750 C   0  0  0  0  0  0  0  0  0  0  0  0
  131.1970  122.4300   60.1280 N   0  0  0  0  0  0  0  0  0  0  0  0
  130.2680  121.5880   60.6370 C   0  0  0  0  0  0  0  0  0  0  0  0
  130.7680  120.2100   61.0240 C   0  0  0  0  0  0  0  0  0  0  0  0
  128.9340  121.9520   60.7970 C   0  0  0  0  0  0  0  0  0  0  0  0
  128.5120  123.2320   60.4130 C   0  0  0  0  0  0  0  0  0  0  0  0
  127.0670  123.5680   60.5810 C   0  0  0  0  0  0  0  0  0  0  0  0
  126.5140  123.6770   61.8630 C   0  0  0  0  0  0  0  0  0  0  0  0
  125.1650  123.9830   62.0260 C   0  0  0  0  0  0  0  0  0  0  0  0
  124.3600  124.1750   60.9070 C   0  0  0  0  0  0  0  0  0  0  0  0
  124.8920  124.0600   59.6250 C   0  0  0  0  0  0  0  0  0  0  0  0
  126.2410  123.7550   59.4640 C   0  0  0  0  0  0  0  0  0  0  0  0
  129.4760  124.1300   59.8890 C   0  0  0  0  0  0  0  0  0  0  0  0
  129.0970  125.4880   59.4840 C   0  0  0  0  0  0  0  0  0  0  0  0
  128.7970  126.5590   59.1650 N   0  0  0  0  0  0  0  0  0  0  0  0
  133.8820  125.2270   64.7360 N   0  0  0  0  0  0  0  0  0  0  0  0
  134.2112  125.2626   68.0692 H   0  0  0  0  0  0  0  0  0  0  0  0
  135.0501  124.1685   66.9177 H   0  0  0  0  0  0  0  0  0  0  0  0
  135.4195  125.9264   66.9177 H   0  0  0  0  0  0  0  0  0  0  0  0
  131.9881  125.9202   67.4831 H   0  0  0  0  0  0  0  0  0  0  0  0
  130.2612  126.2913   65.6993 H   0  0  0  0  0  0  0  0  0  0  0  0
  130.8890  125.9776   63.2918 H   0  0  0  0  0  0  0  0  0  0  0  0
  133.4180  126.1420   61.9150 H   0  0  0  0  0  0  0  0  0  0  0  0
  134.2966  125.1515   60.0980 H   0  0  0  0  0  0  0  0  0  0  0  0
  134.0164  123.3778   59.8353 H   0  0  0  0  0  0  0  0  0  0  0  0
  130.7986  120.1256   62.1203 H   0  0  0  0  0  0  0  0  0  0  0  0
  130.0898  119.4460   60.6162 H   0  0  0  0  0  0  0  0  0  0  0  0
  131.7784  120.0587   60.6162 H   0  0  0  0  0  0  0  0  0  0  0  0
  128.2140  121.2378   61.2231 H   0  0  0  0  0  0  0  0  0  0  0  0
  127.1493  123.5199   62.7472 H   0  0  0  0  0  0  0  0  0  0  0  0
  124.7374  124.0726   63.0355 H   0  0  0  0  0  0  0  0  0  0  0  0
  123.2953  124.4195   61.0361 H   0  0  0  0  0  0  0  0  0  0  0  0
  124.2499  124.2093   58.7444 H   0  0  0  0  0  0  0  0  0  0  0  0
  126.6619  123.6600   58.4522 H   0  0  0  0  0  0  0  0  0  0  0  0
  1  2  1  0
  2  3  2  0
  3  4  1  0
  4  5  2  0
  5  6  1  0
  6  7  1  0
  7  8  1  0
  8  9  2  0
  8 10  1  0
 10 11  1  0
 11 12  1  0
 12 13  2  0
 13 14  1  0
 14 15  1  0
 14 16  2  0
 16 17  1  0
 17 18  1  0
 18 19  2  0
 19 20  1  0
 20 21  2  0
 21 22  1  0
 22 23  2  0
 17 24  2  0
 24 25  1  0
 25 26  3  0
  6 27  2  0
 27  2  1  0
 24 12  1  0
 23 18  1  0
  1 28  1  0
  1 29  1  0
  1 30  1  0
  3 31  1  0
  4 32  1  0
  5 33  1  0
  7 34  1  0
 10 35  1  0
 10 36  1  0
 15 37  1  0
 15 38  1  0
 15 39  1  0
 16 40  1  0
 19 41  1  0
 20 42  1  0
 21 43  1  0
 22 44  1  0
 23 45  1  0
M  END
>  <Binding energies>  (1) 
[-8.19]

>  <Ligand effiencies>  (1) 
[-0.2925]

>  <Interactions>  (1) 
["V-A:ARG:545:CZ:4926, V-B:GLU:543:CD:9879, V-A:ASP:366:CG:3212, V-A:LEU:475:CD2:4258, V-A:GLU:543:CD:4908, V-A:ILE:369:CD1:3238, H-A:ARG:545:NH2:4928, V-A:GLY:454:CA:4048, V-A:HIS:456:CE1:4069, V-B:TYR:539:CD2:9845, V-A:ILE:369:CG2:3236, V-B:TYR:539:CE2:9847, V-A:ILE:369:CB:3235, V-A:ASP:366:CB:3211, V-A:ASP:366:CA:3209, V-B:ALA:541:CB:9863, V-A:ARG:545:CG:4922, V-B:TYR:539:CZ:9848, V-B:PRO:540:CA:9854, H-A:ASP:366:OD1:3213, H-A:ARG:545:NE:4924, H-A:ASP:366:OD2:3214, H-A:GLY:454:N:4049, V-B:PRO:540:CB:9856, V-A:ARG:545:CD:4923, H-A:ARG:545:NH1:4927, V-A:GLY:453:C:4041, V-B:ASN:362:CB:8147, H-B:TYR:539:OH:9849, V-B:ASN:362:C:8143, V-A:GLY:454:C:4046, V-A:ILE:455:C:4051"]

$$$$
3ch_Grossjean_2025
     RDKit          3D

 55 57  0  0  0  0  0  0  0  0999 V2000
  130.8630  129.4780   72.3090 C   0  0  0  0  0  0  0  0  0  0  0  0
  130.4940  128.1990   72.8130 O   0  0  0  0  0  0  0  0  0  0  0  0
  129.7710  127.3330   72.0130 C   0  0  0  0  0  0  0  0  0  0  0  0
  129.6950  127.4340   70.6140 C   0  0  0  0  0  0  0  0  0  0  0  0
  128.9480  126.5130   69.8660 C   0  0  0  0  0  0  0  0  0  0  0  0
  128.8170  126.5300   68.4640 N   0  0  0  0  0  0  0  0  0  0  0  0
  129.7710  126.5870   67.5090 C   0  0  0  0  0  0  0  0  0  0  0  0
  130.9840  126.6230   67.7130 O   0  0  0  0  0  0  0  0  0  0  0  0
  129.2630  126.5610   66.0680 C   0  0  0  0  0  0  0  0  0  0  0  0
  130.6210  126.4960   64.8620 S   0  0  0  0  0  0  0  0  0  0  0  0
  130.3610  125.0190   63.9050 C   0  0  0  0  0  0  0  0  0  0  0  0
  129.0620  124.7880   63.5920 N   0  0  0  0  0  0  0  0  0  0  0  0
  128.7570  123.6850   62.8720 C   0  0  0  0  0  0  0  0  0  0  0  0
  127.2860  123.4840   62.5620 C   0  0  0  0  0  0  0  0  0  0  0  0
  129.7230  122.7790   62.4410 C   0  0  0  0  0  0  0  0  0  0  0  0
  131.0720  123.0040   62.7480 C   0  0  0  0  0  0  0  0  0  0  0  0
  132.0720  121.9990   62.2730 C   0  0  0  0  0  0  0  0  0  0  0  0
  131.7500  121.1260   61.2280 C   0  0  0  0  0  0  0  0  0  0  0  0
  132.6740  120.1810   60.7860 C   0  0  0  0  0  0  0  0  0  0  0  0
  133.9250  120.1050   61.3930 C   0  0  0  0  0  0  0  0  0  0  0  0
  134.2580  120.9620   62.4390 C   0  0  0  0  0  0  0  0  0  0  0  0
  133.3310  121.9040   62.8780 C   0  0  0  0  0  0  0  0  0  0  0  0
  131.4100  124.1670   63.4860 C   0  0  0  0  0  0  0  0  0  0  0  0
  132.8120  124.5020   63.7530 C   0  0  0  0  0  0  0  0  0  0  0  0
  133.9190  124.7660   63.9660 N   0  0  0  0  0  0  0  0  0  0  0  0
  128.2590  125.4970   70.5310 C   0  0  0  0  0  0  0  0  0  0  0  0
  128.3180  125.3760   71.9280 C   0  0  0  0  0  0  0  0  0  0  0  0
  127.6660  124.3880   72.6460 O   0  0  0  0  0  0  0  0  0  0  0  0
  128.3730  123.2090   73.0160 C   0  0  0  0  0  0  0  0  0  0  0  0
  129.0750  126.3010   72.6570 C   0  0  0  0  0  0  0  0  0  0  0  0
  129.1560  126.1830   74.0240 O   0  0  0  0  0  0  0  0  0  0  0  0
  130.3930  125.6620   74.4900 C   0  0  0  0  0  0  0  0  0  0  0  0
  131.0598  130.1603   73.1491 H   0  0  0  0  0  0  0  0  0  0  0  0
  131.7701  129.3821   71.6942 H   0  0  0  0  0  0  0  0  0  0  0  0
  130.0442  129.8800   71.6942 H   0  0  0  0  0  0  0  0  0  0  0  0
  130.2285  128.2462   70.0986 H   0  0  0  0  0  0  0  0  0  0  0  0
  127.8650  126.4460   68.1370 H   0  0  0  0  0  0  0  0  0  0  0  0
  128.6265  125.6741   65.9328 H   0  0  0  0  0  0  0  0  0  0  0  0
  128.6994  127.4891   65.8920 H   0  0  0  0  0  0  0  0  0  0  0  0
  126.7204  123.4067   63.5023 H   0  0  0  0  0  0  0  0  0  0  0  0
  126.9138  124.3396   61.9795 H   0  0  0  0  0  0  0  0  0  0  0  0
  127.1570  122.5599   61.9795 H   0  0  0  0  0  0  0  0  0  0  0  0
  129.4287  121.8910   61.8624 H   0  0  0  0  0  0  0  0  0  0  0  0
  130.7602  121.1860   60.7518 H   0  0  0  0  0  0  0  0  0  0  0  0
  132.4166  119.4990   59.9623 H   0  0  0  0  0  0  0  0  0  0  0  0
  134.6565  119.3616   61.0433 H   0  0  0  0  0  0  0  0  0  0  0  0
  135.2472  120.8953   62.9155 H   0  0  0  0  0  0  0  0  0  0  0  0
  133.5901  122.5790   63.7070 H   0  0  0  0  0  0  0  0  0  0  0  0
  127.6602  124.7797   69.9506 H   0  0  0  0  0  0  0  0  0  0  0  0
  128.4165  123.1365   74.1127 H   0  0  0  0  0  0  0  0  0  0  0  0
  127.8541  122.3279   72.6106 H   0  0  0  0  0  0  0  0  0  0  0  0
  129.3947  123.2517   72.6106 H   0  0  0  0  0  0  0  0  0  0  0  0
  130.3988  125.6596   75.5900 H   0  0  0  0  0  0  0  0  0  0  0  0
  130.5203  124.6338   74.1204 H   0  0  0  0  0  0  0  0  0  0  0  0
  131.2176  126.2893   74.1204 H   0  0  0  0  0  0  0  0  0  0  0  0
  1  2  1  0
  2  3  1  0
  3  4  2  0
  4  5  1  0
  5  6  1  0
  6  7  1  0
  7  8  2  0
  7  9  1  0
  9 10  1  0
 10 11  1  0
 11 12  2  0
 12 13  1  0
 13 14  1  0
 13 15  2  0
 15 16  1  0
 16 17  1  0
 17 18  2  0
 18 19  1  0
 19 20  2  0
 20 21  1  0
 21 22  2  0
 16 23  2  0
 23 24  1  0
 24 25  3  0
  5 26  2  0
 26 27  1  0
 27 28  1  0
 28 29  1  0
 27 30  2  0
 30 31  1  0
 31 32  1  0
 30  3  1  0
 23 11  1  0
 22 17  1  0
  1 33  1  0
  1 34  1  0
  1 35  1  0
  4 36  1  0
  6 37  1  0
  9 38  1  0
  9 39  1  0
 14 40  1  0
 14 41  1  0
 14 42  1  0
 15 43  1  0
 18 44  1  0
 19 45  1  0
 20 46  1  0
 21 47  1  0
 22 48  1  0
 26 49  1  0
 29 50  1  0
 29 51  1  0
 29 52  1  0
 32 53  1  0
 32 54  1  0
 32 55  1  0
M  END
>  <Binding energies>  (1) 
[-7.93]

>  <Ligand effiencies>  (1) 
[-0.2403030303030303]

>  <Interactions>  (1) 
["V-B:HIS:456:CE1:9041, V-B:GLU:543:CD:9879, V-A:LEU:475:CD2:4258, V-A:GLU:543:CD:4908, V-A:ILE:369:CD1:3238, V-A:GLY:454:CA:4048, V-A:HIS:456:CE1:4069, V-A:GLU:543:C:4902, V-A:ILE:369:CG2:3236, V-B:TYR:539:CE2:9847, V-A:GLY:544:C:4912, V-A:HIS:456:CD2:4067, V-B:ALA:541:CB:9863, V-B:GLU:543:C:9873, V-B:GLU:543:CG:9878, V-B:GLU:543:CB:9877, H-B:GLU:543:OE1:9880, H-B:LYS:547:NZ:9922, V-B:LYS:547:CE:9921, H-A:LYS:547:NZ:4951, V-B:ALA:541:CA:9861, V-A:TRP:381:CH2:3371, H-A:GLY:454:N:4049"]

$$$$
3ci_Grossjean_2025
     RDKit          3D

 39 41  0  0  0  0  0  0  0  0999 V2000
  130.3180  119.8110   61.3800 C   0  0  0  0  0  0  0  0  0  0  0  0
  129.9410  121.1790   60.8440 C   0  0  0  0  0  0  0  0  0  0  0  0
  128.6270  121.6390   60.8740 C   0  0  0  0  0  0  0  0  0  0  0  0
  128.3310  122.9180   60.3810 C   0  0  0  0  0  0  0  0  0  0  0  0
  126.9110  123.3760   60.4480 C   0  0  0  0  0  0  0  0  0  0  0  0
  126.1710  123.5900   59.2770 C   0  0  0  0  0  0  0  0  0  0  0  0
  124.8500  124.0260   59.3450 C   0  0  0  0  0  0  0  0  0  0  0  0
  124.2640  124.2560   60.5850 C   0  0  0  0  0  0  0  0  0  0  0  0
  124.9880  124.0570   61.7580 C   0  0  0  0  0  0  0  0  0  0  0  0
  126.3080  123.6210   61.6880 C   0  0  0  0  0  0  0  0  0  0  0  0
  129.3900  123.7000   59.8540 C   0  0  0  0  0  0  0  0  0  0  0  0
  129.1330  125.0270   59.2850 C   0  0  0  0  0  0  0  0  0  0  0  0
  128.9290  126.0750   58.8370 N   0  0  0  0  0  0  0  0  0  0  0  0
  130.6970  123.1560   59.8670 C   0  0  0  0  0  0  0  0  0  0  0  0
  132.1100  124.0620   59.2470 S   0  0  0  0  0  0  0  0  0  0  0  0
  132.4840  125.4480   60.3710 C   0  0  0  0  0  0  0  0  0  0  0  0
  133.0670  125.0000   61.7160 C   0  0  0  0  0  0  0  0  0  0  0  0
  133.8200  124.0240   61.7500 O   0  0  0  0  0  0  0  0  0  0  0  0
  132.6860  125.7240   62.7910 N   0  0  0  0  0  0  0  0  0  0  0  0
  133.0880  125.5480   64.1090 C   0  0  0  0  0  0  0  0  0  0  0  0
  132.2450  125.7710   65.1970 C   0  0  0  0  0  0  0  0  0  0  0  0
  133.0110  125.4930   66.3060 C   0  0  0  0  0  0  0  0  0  0  0  0
  134.2500  125.1200   65.9050 O   0  0  0  0  0  0  0  0  0  0  0  0
  134.2870  125.1610   64.5100 N   0  0  0  0  0  0  0  0  0  0  0  0
  130.9600  121.9150   60.3480 N   0  0  0  0  0  0  0  0  0  0  0  0
  130.3118  119.8336   62.4797 H   0  0  0  0  0  0  0  0  0  0  0  0
  129.5919  119.0650   61.0245 H   0  0  0  0  0  0  0  0  0  0  0  0
  131.3237  119.5423   61.0245 H   0  0  0  0  0  0  0  0  0  0  0  0
  127.8269  121.0036   61.2815 H   0  0  0  0  0  0  0  0  0  0  0  0
  126.6372  123.4122   58.2967 H   0  0  0  0  0  0  0  0  0  0  0  0
  124.2731  124.1876   58.4225 H   0  0  0  0  0  0  0  0  0  0  0  0
  123.2199  124.5980   60.6398 H   0  0  0  0  0  0  0  0  0  0  0  0
  124.5188  124.2435   62.7353 H   0  0  0  0  0  0  0  0  0  0  0  0
  126.8820  123.4677   62.6138 H   0  0  0  0  0  0  0  0  0  0  0  0
  133.2116  126.1098   59.8785 H   0  0  0  0  0  0  0  0  0  0  0  0
  131.5338  125.9599   60.5830 H   0  0  0  0  0  0  0  0  0  0  0  0
  132.0580  126.4960   62.6290 H   0  0  0  0  0  0  0  0  0  0  0  0
  131.1951  126.0983   65.1739 H   0  0  0  0  0  0  0  0  0  0  0  0
  132.6718  125.5625   67.3501 H   0  0  0  0  0  0  0  0  0  0  0  0
  1  2  1  0
  2  3  2  0
  3  4  1  0
  4  5  1  0
  5  6  2  0
  6  7  1  0
  7  8  2  0
  8  9  1  0
  9 10  2  0
  4 11  2  0
 11 12  1  0
 12 13  3  0
 11 14  1  0
 14 15  1  0
 15 16  1  0
 16 17  1  0
 17 18  2  0
 17 19  1  0
 19 20  1  0
 20 21  1  0
 21 22  2  0
 22 23  1  0
 23 24  1  0
 14 25  2  0
 25  2  1  0
 10  5  1  0
 24 20  2  0
  1 26  1  0
  1 27  1  0
  1 28  1  0
  3 29  1  0
  6 30  1  0
  7 31  1  0
  8 32  1  0
  9 33  1  0
 10 34  1  0
 16 35  1  0
 16 36  1  0
 19 37  1  0
 21 38  1  0
 22 39  1  0
M  END
>  <Binding energies>  (1) 
[-7.77]

>  <Ligand effiencies>  (1) 
[-0.2988461538461538]

>  <Interactions>  (1) 
["V-B:ASP:366:CG:8184, V-A:ARG:545:CZ:4926, V-A:ASP:366:CG:3212, V-A:LEU:475:CD2:4258, H-A:ARG:545:NH2:4928, V-A:HIS:456:CE1:4069, V-B:TYR:539:CD2:9845, V-B:TYR:539:CE2:9847, V-A:ASP:366:CB:3211, V-B:ALA:541:CB:9863, V-B:TYR:539:CZ:9848, V-B:PRO:540:C:9852, H-A:TYR:484:OH:4347, V-B:ALA:541:CA:9861, V-B:TYR:539:C:9838, V-B:PRO:540:CA:9854, H-A:ASP:366:OD1:3213, H-A:ARG:545:NE:4924, H-A:ASP:366:OD2:3214, H-A:GLY:454:N:4049, V-B:PRO:540:CB:9856, V-A:ARG:545:CD:4923, H-A:ARG:545:NH1:4927, V-B:ASN:362:CB:8147, H-B:TYR:539:OH:9849, V-A:PRO:482:CB:4325, V-B:ASN:362:C:8143"]

$$$$
3cj_Grossjean_2025
     RDKit          3D

 39 41  0  0  0  0  0  0  0  0999 V2000
  125.2680  136.0350   62.1830 C   0  0  0  0  0  0  0  0  0  0  0  0
  125.7170  134.7760   61.4680 C   0  0  0  0  0  0  0  0  0  0  0  0
  127.0320  134.3230   61.5480 C   0  0  0  0  0  0  0  0  0  0  0  0
  127.3980  133.1410   60.8890 C   0  0  0  0  0  0  0  0  0  0  0  0
  128.8000  132.6580   61.0560 C   0  0  0  0  0  0  0  0  0  0  0  0
  129.2840  132.3020   62.3210 C   0  0  0  0  0  0  0  0  0  0  0  0
  130.5970  131.8640   62.4770 C   0  0  0  0  0  0  0  0  0  0  0  0
  131.4330  131.7860   61.3670 C   0  0  0  0  0  0  0  0  0  0  0  0
  130.9690  132.1460   60.1050 C   0  0  0  0  0  0  0  0  0  0  0  0
  129.6560  132.5830   59.9510 C   0  0  0  0  0  0  0  0  0  0  0  0
  126.4150  132.4600   60.1290 C   0  0  0  0  0  0  0  0  0  0  0  0
  126.7440  131.2350   59.3940 C   0  0  0  0  0  0  0  0  0  0  0  0
  127.0040  130.2660   58.8150 N   0  0  0  0  0  0  0  0  0  0  0  0
  125.1050  132.9900   60.1070 C   0  0  0  0  0  0  0  0  0  0  0  0
  123.7480  132.1640   59.3040 S   0  0  0  0  0  0  0  0  0  0  0  0
  122.9850  131.1440   60.6060 C   0  0  0  0  0  0  0  0  0  0  0  0
  123.6060  131.4160   61.9800 C   0  0  0  0  0  0  0  0  0  0  0  0
  123.5410  132.5480   62.4630 O   0  0  0  0  0  0  0  0  0  0  0  0
  124.1610  130.3440   62.5860 N   0  0  0  0  0  0  0  0  0  0  0  0
  124.6640  130.2910   63.8760 C   0  0  0  0  0  0  0  0  0  0  0  0
  124.0280  129.9610   64.9790 N   0  0  0  0  0  0  0  0  0  0  0  0
  124.8280  129.9900   66.0250 C   0  0  0  0  0  0  0  0  0  0  0  0
  126.1500  130.3510   65.7810 C   0  0  0  0  0  0  0  0  0  0  0  0
  126.3450  130.6700   64.0830 S   0  0  0  0  0  0  0  0  0  0  0  0
  124.7610  134.1210   60.7720 N   0  0  0  0  0  0  0  0  0  0  0  0
  125.3237  135.8788   63.2704 H   0  0  0  0  0  0  0  0  0  0  0  0
  125.9232  136.8716   61.8987 H   0  0  0  0  0  0  0  0  0  0  0  0
  124.2313  136.2682   61.8987 H   0  0  0  0  0  0  0  0  0  0  0  0
  127.7784  134.8891   62.1246 H   0  0  0  0  0  0  0  0  0  0  0  0
  128.6227  132.3687   63.1975 H   0  0  0  0  0  0  0  0  0  0  0  0
  130.9711  131.5813   63.4720 H   0  0  0  0  0  0  0  0  0  0  0  0
  132.4691  131.4369   61.4880 H   0  0  0  0  0  0  0  0  0  0  0  0
  131.6368  132.0855   59.2330 H   0  0  0  0  0  0  0  0  0  0  0  0
  129.2891  132.8711   58.9548 H   0  0  0  0  0  0  0  0  0  0  0  0
  121.9094  131.3699   60.6505 H   0  0  0  0  0  0  0  0  0  0  0  0
  123.1573  130.0866   60.3565 H   0  0  0  0  0  0  0  0  0  0  0  0
  124.1340  129.4650   62.0900 H   0  0  0  0  0  0  0  0  0  0  0  0
  124.4711  129.7426   67.0356 H   0  0  0  0  0  0  0  0  0  0  0  0
  126.9431  130.4228   66.5398 H   0  0  0  0  0  0  0  0  0  0  0  0
  1  2  1  0
  2  3  2  0
  3  4  1  0
  4  5  1  0
  5  6  2  0
  6  7  1  0
  7  8  2  0
  8  9  1  0
  9 10  2  0
  4 11  2  0
 11 12  1  0
 12 13  3  0
 11 14  1  0
 14 15  1  0
 15 16  1  0
 16 17  1  0
 17 18  2  0
 17 19  1  0
 19 20  1  0
 20 21  2  0
 21 22  1  0
 22 23  2  0
 23 24  1  0
 14 25  2  0
 25  2  1  0
 10  5  1  0
 24 20  1  0
  1 26  1  0
  1 27  1  0
  1 28  1  0
  3 29  1  0
  6 30  1  0
  7 31  1  0
  8 32  1  0
  9 33  1  0
 10 34  1  0
 16 35  1  0
 16 36  1  0
 19 37  1  0
 22 38  1  0
 23 39  1  0
M  END
>  <Binding energies>  (1) 
[-7.07]

>  <Ligand effiencies>  (1) 
[-0.27192307692307693]

>  <Interactions>  (1) 
["V-B:ASP:366:CG:8184, V-B:ILE:369:CB:8207, V-A:GLU:543:CD:4908, V-A:ALA:541:CB:4892, V-B:TRP:381:CZ2:8341, V-B:ILE:369:CD1:8210, V-B:LEU:475:CD1:9229, V-B:ILE:369:CG2:8208, V-B:TRP:381:CH2:8343, V-A:TYR:539:CE2:4876, V-A:TYR:539:CD2:4874, H-B:GLY:454:N:9021, V-B:ASP:366:CB:8183, H-B:ARG:545:NH2:9899, V-A:PRO:540:CB:4885, V-A:PRO:540:CA:4883, H-B:ARG:545:NE:9895, H-B:ARG:545:NH1:9898, V-B:ARG:545:CZ:9897, H-B:ASP:366:OD1:8185, H-B:ASP:366:OD2:8186, V-A:TYR:539:C:4867, V-B:ASP:366:CA:8181, V-B:ILE:369:CG1:8209"]

$$$$
3ck_Grossjean_2025
     RDKit          3D

 57 58  0  0  0  0  0  0  0  0999 V2000
  129.9850  129.4730   72.4800 C   0  0  0  0  0  0  0  0  0  0  0  0
  130.4860  128.5120   73.3960 O   0  0  0  0  0  0  0  0  0  0  0  0
  130.4800  127.1860   72.8850 C   0  0  0  0  0  0  0  0  0  0  0  0
  129.3920  126.3680   73.5920 C   0  0  0  0  0  0  0  0  0  0  0  0
  128.5030  125.8290   72.6220 O   0  0  0  0  0  0  0  0  0  0  0  0
  128.7410  126.2950   71.3000 C   0  0  0  0  0  0  0  0  0  0  0  0
  127.8300  125.5340   70.3290 C   0  0  0  0  0  0  0  0  0  0  0  0
  128.2500  125.8210   69.0040 O   0  0  0  0  0  0  0  0  0  0  0  0
  128.9710  127.0350   68.8570 C   0  0  0  0  0  0  0  0  0  0  0  0
  130.1200  126.8340   67.8500 C   0  0  0  0  0  0  0  0  0  0  0  0
  129.9250  125.6900   66.9540 N   0  0  0  0  0  0  0  0  0  0  0  0
  130.8060  125.2550   66.0350 C   0  0  0  0  0  0  0  0  0  0  0  0
  131.9110  125.7720   65.8610 O   0  0  0  0  0  0  0  0  0  0  0  0
  130.3480  124.0490   65.1990 C   0  0  0  0  0  0  0  0  0  0  0  0
  131.2150  123.8250   63.6080 S   0  0  0  0  0  0  0  0  0  0  0  0
  130.1540  122.9290   62.4840 C   0  0  0  0  0  0  0  0  0  0  0  0
  130.5240  121.6500   62.2220 N   0  0  0  0  0  0  0  0  0  0  0  0
  129.7680  120.9150   61.3770 C   0  0  0  0  0  0  0  0  0  0  0  0
  130.2450  119.4960   61.1310 C   0  0  0  0  0  0  0  0  0  0  0  0
  128.6250  121.4170   60.7620 C   0  0  0  0  0  0  0  0  0  0  0  0
  128.2270  122.7370   61.0120 C   0  0  0  0  0  0  0  0  0  0  0  0
  127.0070  123.2410   60.3120 C   0  0  0  0  0  0  0  0  0  0  0  0
  126.9930  123.3530   58.9170 C   0  0  0  0  0  0  0  0  0  0  0  0
  125.8620  123.8320   58.2580 C   0  0  0  0  0  0  0  0  0  0  0  0
  124.7430  124.2060   58.9950 C   0  0  0  0  0  0  0  0  0  0  0  0
  124.7450  124.1090   60.3850 C   0  0  0  0  0  0  0  0  0  0  0  0
  125.8760  123.6310   61.0400 C   0  0  0  0  0  0  0  0  0  0  0  0
  129.0040  123.5170   61.9070 C   0  0  0  0  0  0  0  0  0  0  0  0
  128.6120  124.8910   62.2390 C   0  0  0  0  0  0  0  0  0  0  0  0
  128.3020  125.9750   62.5010 N   0  0  0  0  0  0  0  0  0  0  0  0
  129.5461  130.3150   73.0354 H   0  0  0  0  0  0  0  0  0  0  0  0
  130.8067  129.8397   71.8473 H   0  0  0  0  0  0  0  0  0  0  0  0
  129.2139  129.0093   71.8473 H   0  0  0  0  0  0  0  0  0  0  0  0
  130.2755  127.2108   71.8045 H   0  0  0  0  0  0  0  0  0  0  0  0
  131.4609  126.7210   73.0631 H   0  0  0  0  0  0  0  0  0  0  0  0
  129.8584  125.5484   74.1583 H   0  0  0  0  0  0  0  0  0  0  0  0
  128.8336  127.0173   74.2824 H   0  0  0  0  0  0  0  0  0  0  0  0
  128.5220  127.3715   71.2437 H   0  0  0  0  0  0  0  0  0  0  0  0
  129.7940  126.1254   71.0308 H   0  0  0  0  0  0  0  0  0  0  0  0
  127.9067  124.4529   70.5173 H   0  0  0  0  0  0  0  0  0  0  0  0
  126.7840  125.8439   70.4699 H   0  0  0  0  0  0  0  0  0  0  0  0
  128.2946  127.8204   68.4889 H   0  0  0  0  0  0  0  0  0  0  0  0
  129.3862  127.3339   69.8308 H   0  0  0  0  0  0  0  0  0  0  0  0
  130.2083  127.7436   67.2377 H   0  0  0  0  0  0  0  0  0  0  0  0
  131.0291  126.6324   68.4356 H   0  0  0  0  0  0  0  0  0  0  0  0
  129.0470  125.2010   67.0450 H   0  0  0  0  0  0  0  0  0  0  0  0
  130.5022  123.1409   65.8004 H   0  0  0  0  0  0  0  0  0  0  0  0
  129.2943  124.2379   64.9461 H   0  0  0  0  0  0  0  0  0  0  0  0
  130.4139  118.9936   62.0949 H   0  0  0  0  0  0  0  0  0  0  0  0
  129.4822  118.9466   60.5599 H   0  0  0  0  0  0  0  0  0  0  0  0
  131.1848  119.5189   60.5599 H   0  0  0  0  0  0  0  0  0  0  0  0
  128.0373  120.7812   60.0835 H   0  0  0  0  0  0  0  0  0  0  0  0
  127.8807  123.0610   58.3366 H   0  0  0  0  0  0  0  0  0  0  0  0
  125.8543  123.9138   57.1611 H   0  0  0  0  0  0  0  0  0  0  0  0
  123.8488  124.5816   58.4759 H   0  0  0  0  0  0  0  0  0  0  0  0
  123.8574  124.4086   60.9615 H   0  0  0  0  0  0  0  0  0  0  0  0
  125.8817  123.5590   62.1376 H   0  0  0  0  0  0  0  0  0  0  0  0
  1  2  1  0
  2  3  1  0
  3  4  1  0
  4  5  1  0
  5  6  1  0
  6  7  1  0
  7  8  1  0
  8  9  1  0
  9 10  1  0
 10 11  1  0
 11 12  1  0
 12 13  2  0
 12 14  1  0
 14 15  1  0
 15 16  1  0
 16 17  2  0
 17 18  1  0
 18 19  1  0
 18 20  2  0
 20 21  1  0
 21 22  1  0
 22 23  2  0
 23 24  1  0
 24 25  2  0
 25 26  1  0
 26 27  2  0
 21 28  2  0
 28 29  1  0
 29 30  3  0
 28 16  1  0
 27 22  1  0
  1 31  1  0
  1 32  1  0
  1 33  1  0
  3 34  1  0
  3 35  1  0
  4 36  1  0
  4 37  1  0
  6 38  1  0
  6 39  1  0
  7 40  1  0
  7 41  1  0
  9 42  1  0
  9 43  1  0
 10 44  1  0
 10 45  1  0
 11 46  1  0
 14 47  1  0
 14 48  1  0
 19 49  1  0
 19 50  1  0
 19 51  1  0
 20 52  1  0
 23 53  1  0
 24 54  1  0
 25 55  1  0
 26 56  1  0
 27 57  1  0
M  END
>  <Binding energies>  (1) 
[-6.02]

>  <Ligand effiencies>  (1) 
[-0.19419354838709676]

>  <Interactions>  (1) 
["V-B:HIS:456:CE1:9041, V-B:GLU:543:CD:9879, V-A:LEU:475:CD2:4258, V-A:GLU:543:CD:4908, V-A:HIS:456:CE1:4069, V-B:TYR:539:CD2:9845, V-B:ALA:541:CB:9863, V-B:GLU:543:C:9873, V-B:GLU:543:CG:9878, V-B:GLU:543:CB:9877, H-B:GLU:543:OE1:9880, H-B:LYS:547:NZ:9922, H-A:LYS:547:NZ:4951, V-B:PRO:540:C:9852, H-A:TYR:484:OH:4347, V-B:ALA:541:CA:9861, V-B:TYR:539:C:9838, V-B:PRO:540:CA:9854, V-A:TRP:381:CH2:3371, V-B:PRO:540:CB:9856, V-B:GLU:543:CA:9875, V-A:PRO:482:CB:4325, V-A:PRO:482:CG:4326, V-B:GLY:544:C:9883"]

$$$$
4aa_Grossjean_2025
     RDKit          3D

 45 47  0  0  0  0  0  0  0  0999 V2000
  127.2390  132.1860   73.3090 C   0  0  0  0  0  0  0  0  0  0  0  0
  128.6540  131.8490   72.8300 C   0  0  0  0  0  0  0  0  0  0  0  0
  128.6500  130.5740   72.2020 O   0  0  0  0  0  0  0  0  0  0  0  0
  129.6520  129.6830   72.4170 C   0  0  0  0  0  0  0  0  0  0  0  0
  130.2120  129.5380   73.5080 O   0  0  0  0  0  0  0  0  0  0  0  0
  130.0150  128.8930   71.1930 C   0  0  0  0  0  0  0  0  0  0  0  0
  129.0270  128.1400   70.5460 C   0  0  0  0  0  0  0  0  0  0  0  0
  129.3330  127.3930   69.4120 C   0  0  0  0  0  0  0  0  0  0  0  0
  130.6300  127.3900   68.8960 C   0  0  0  0  0  0  0  0  0  0  0  0
  130.8310  126.5940   67.7520 N   0  0  0  0  0  0  0  0  0  0  0  0
  130.2310  125.4390   67.3750 C   0  0  0  0  0  0  0  0  0  0  0  0
  129.3860  124.8470   68.0470 O   0  0  0  0  0  0  0  0  0  0  0  0
  130.6730  124.8970   66.0890 C   0  0  0  0  0  0  0  0  0  0  0  0
  129.6780  123.7170   65.2310 S   0  0  0  0  0  0  0  0  0  0  0  0
  130.8590  123.5840   63.9480 C   0  0  0  0  0  0  0  0  0  0  0  0
  130.6770  122.7770   62.9020 N   0  0  0  0  0  0  0  0  0  0  0  0
  131.6710  122.7650   61.9800 C   0  0  0  0  0  0  0  0  0  0  0  0
  131.4460  121.8360   60.8010 C   0  0  0  0  0  0  0  0  0  0  0  0
  132.8270  123.5350   62.0770 C   0  0  0  0  0  0  0  0  0  0  0  0
  133.0140  124.3820   63.1750 C   0  0  0  0  0  0  0  0  0  0  0  0
  134.2940  125.2030   63.2360 C   0  0  0  0  0  0  0  0  0  0  0  0
  131.9960  124.4190   64.1650 C   0  0  0  0  0  0  0  0  0  0  0  0
  131.8660  125.1530   65.3950 C   0  0  0  0  0  0  0  0  0  0  0  0
  132.8320  126.0250   65.8330 N   0  0  0  0  0  0  0  0  0  0  0  0
  131.6280  128.1360   69.5400 C   0  0  0  0  0  0  0  0  0  0  0  0
  131.3200  128.8810   70.6760 C   0  0  0  0  0  0  0  0  0  0  0  0
  127.2158  132.1915   74.4087 H   0  0  0  0  0  0  0  0  0  0  0  0
  126.9505  133.1780   72.9312 H   0  0  0  0  0  0  0  0  0  0  0  0
  126.5343  131.4306   72.9312 H   0  0  0  0  0  0  0  0  0  0  0  0
  128.9890  132.6110   72.1109 H   0  0  0  0  0  0  0  0  0  0  0  0
  129.3384  131.8317   73.6910 H   0  0  0  0  0  0  0  0  0  0  0  0
  127.9992  128.1389   70.9379 H   0  0  0  0  0  0  0  0  0  0  0  0
  128.5476  126.8012   68.9192 H   0  0  0  0  0  0  0  0  0  0  0  0
  131.5470  126.9410   67.1290 H   0  0  0  0  0  0  0  0  0  0  0  0
  131.2020  120.8286   61.1693 H   0  0  0  0  0  0  0  0  0  0  0  0
  130.6136  122.2145   60.1896 H   0  0  0  0  0  0  0  0  0  0  0  0
  132.3594  121.7916   60.1896 H   0  0  0  0  0  0  0  0  0  0  0  0
  133.5936  123.4775   61.2902 H   0  0  0  0  0  0  0  0  0  0  0  0
  134.5674  125.3784   64.2870 H   0  0  0  0  0  0  0  0  0  0  0  0
  135.1048  124.6560   62.7326 H   0  0  0  0  0  0  0  0  0  0  0  0
  134.1350  126.1680   62.7326 H   0  0  0  0  0  0  0  0  0  0  0  0
  132.6640  127.0180   65.8950 H   0  0  0  0  0  0  0  0  0  0  0  0
  133.7490  125.6990   66.1060 H   0  0  0  0  0  0  0  0  0  0  0  0
  132.6555  128.1327   69.1474 H   0  0  0  0  0  0  0  0  0  0  0  0
  132.1077  129.4661   71.1732 H   0  0  0  0  0  0  0  0  0  0  0  0
  1  2  1  0
  2  3  1  0
  3  4  1  0
  4  5  2  0
  4  6  1  0
  6  7  2  0
  7  8  1  0
  8  9  2  0
  9 10  1  0
 10 11  1  0
 11 12  2  0
 11 13  1  0
 13 14  1  0
 14 15  1  0
 15 16  2  0
 16 17  1  0
 17 18  1  0
 17 19  2  0
 19 20  1  0
 20 21  1  0
 20 22  2  0
 22 23  1  0
 23 24  1  0
  9 25  1  0
 25 26  2  0
 26  6  1  0
 23 13  2  0
 22 15  1  0
  1 27  1  0
  1 28  1  0
  1 29  1  0
  2 30  1  0
  2 31  1  0
  7 32  1  0
  8 33  1  0
 10 34  1  0
 18 35  1  0
 18 36  1  0
 18 37  1  0
 19 38  1  0
 21 39  1  0
 21 40  1  0
 21 41  1  0
 24 42  1  0
 24 43  1  0
 25 44  1  0
 26 45  1  0
M  END
>  <Binding energies>  (1) 
[-6.95]

>  <Ligand effiencies>  (1) 
[-0.2396551724137931]

>  <Interactions>  (1) 
["V-B:HIS:456:CE1:9041, V-A:ARG:545:CZ:4926, V-B:GLU:543:CD:9879, V-A:GLU:543:CD:4908, V-A:ILE:369:CD1:3238, V-A:GLY:453:CA:4043, V-A:HIS:456:CE1:4069, V-B:TYR:539:CD2:9845, V-A:GLU:543:C:4902, V-A:ILE:369:CG2:3236, V-B:HIS:456:CG:9037, V-A:GLU:543:CB:4906, V-B:TYR:539:CE2:9847, V-A:GLY:544:C:4912, V-A:ARG:545:CG:4922, V-B:TYR:484:CD1:9314, V-B:GLU:543:CG:9878, V-B:GLU:543:CB:9877, V-A:ARG:545:CA:4919, H-A:LYS:547:NZ:4951, H-A:TYR:484:OH:4347, H-B:HIS:456:ND1:9038, V-B:HIS:456:CB:9036, V-B:TYR:484:CG:9313, V-A:ARG:545:CD:4923, H-A:GLU:543:OE1:4909, H-A:GLU:543:OE2:4910, V-A:GLY:453:C:4041, V-B:TYR:484:CD2:9315"]

$$$$
4ab_Grossjean_2025
     RDKit          3D

 42 44  0  0  0  0  0  0  0  0999 V2000
  128.3920  131.7910   72.9200 C   0  0  0  0  0  0  0  0  0  0  0  0
  128.6470  130.7070   72.0380 O   0  0  0  0  0  0  0  0  0  0  0  0
  129.6390  129.8160   72.2940 C   0  0  0  0  0  0  0  0  0  0  0  0
  130.1830  129.7020   73.3970 O   0  0  0  0  0  0  0  0  0  0  0  0
  130.0130  128.9870   71.1000 C   0  0  0  0  0  0  0  0  0  0  0  0
  129.0170  128.2640   70.4300 C   0  0  0  0  0  0  0  0  0  0  0  0
  129.3330  127.4840   69.3210 C   0  0  0  0  0  0  0  0  0  0  0  0
  130.6460  127.4170   68.8540 C   0  0  0  0  0  0  0  0  0  0  0  0
  130.8530  126.5940   67.7310 N   0  0  0  0  0  0  0  0  0  0  0  0
  130.2480  125.4340   67.3740 C   0  0  0  0  0  0  0  0  0  0  0  0
  129.3900  124.8640   68.0490 O   0  0  0  0  0  0  0  0  0  0  0  0
  130.7010  124.8580   66.1070 C   0  0  0  0  0  0  0  0  0  0  0  0
  129.7540  123.5970   65.3130 S   0  0  0  0  0  0  0  0  0  0  0  0
  130.9250  123.4650   64.0210 C   0  0  0  0  0  0  0  0  0  0  0  0
  130.7720  122.6050   63.0140 N   0  0  0  0  0  0  0  0  0  0  0  0
  131.7530  122.6000   62.0790 C   0  0  0  0  0  0  0  0  0  0  0  0
  131.5610  121.6110   60.9440 C   0  0  0  0  0  0  0  0  0  0  0  0
  132.8710  123.4290   62.1250 C   0  0  0  0  0  0  0  0  0  0  0  0
  133.0300  124.3310   63.1850 C   0  0  0  0  0  0  0  0  0  0  0  0
  134.2690  125.2130   63.1920 C   0  0  0  0  0  0  0  0  0  0  0  0
  132.0230  124.3620   64.1870 C   0  0  0  0  0  0  0  0  0  0  0  0
  131.8730  125.1390   65.3870 C   0  0  0  0  0  0  0  0  0  0  0  0
  132.8020  126.0720   65.7760 N   0  0  0  0  0  0  0  0  0  0  0  0
  131.6510  128.1340   69.5210 C   0  0  0  0  0  0  0  0  0  0  0  0
  131.3340  128.9110   70.6310 C   0  0  0  0  0  0  0  0  0  0  0  0
  128.4736  131.4440   73.9606 H   0  0  0  0  0  0  0  0  0  0  0  0
  129.1267  132.5899   72.7412 H   0  0  0  0  0  0  0  0  0  0  0  0
  127.3782  132.1785   72.7412 H   0  0  0  0  0  0  0  0  0  0  0  0
  127.9765  128.3132   70.7834 H   0  0  0  0  0  0  0  0  0  0  0  0
  128.5418  126.9164   68.8093 H   0  0  0  0  0  0  0  0  0  0  0  0
  131.5760  126.9210   67.1080 H   0  0  0  0  0  0  0  0  0  0  0  0
  131.3668  120.6107   61.3582 H   0  0  0  0  0  0  0  0  0  0  0  0
  130.7068  121.9239   60.3255 H   0  0  0  0  0  0  0  0  0  0  0  0
  132.4702  121.5816   60.3255 H   0  0  0  0  0  0  0  0  0  0  0  0
  133.6288  123.3756   61.3295 H   0  0  0  0  0  0  0  0  0  0  0  0
  134.5638  125.4229   64.2308 H   0  0  0  0  0  0  0  0  0  0  0  0
  135.0905  124.6953   62.6751 H   0  0  0  0  0  0  0  0  0  0  0  0
  134.0488  126.1587   62.6751 H   0  0  0  0  0  0  0  0  0  0  0  0
  133.7520  125.8170   66.0000 H   0  0  0  0  0  0  0  0  0  0  0  0
  132.5610  127.0510   65.8560 H   0  0  0  0  0  0  0  0  0  0  0  0
  132.6908  128.0818   69.1659 H   0  0  0  0  0  0  0  0  0  0  0  0
  132.1273  129.4719   71.1467 H   0  0  0  0  0  0  0  0  0  0  0  0
  1  2  1  0
  2  3  1  0
  3  4  2  0
  3  5  1  0
  5  6  2  0
  6  7  1  0
  7  8  2  0
  8  9  1  0
  9 10  1  0
 10 11  2  0
 10 12  1  0
 12 13  1  0
 13 14  1  0
 14 15  2  0
 15 16  1  0
 16 17  1  0
 16 18  2  0
 18 19  1  0
 19 20  1  0
 19 21  2  0
 21 22  1  0
 22 23  1  0
  8 24  1  0
 24 25  2  0
 25  5  1  0
 22 12  2  0
 21 14  1  0
  1 26  1  0
  1 27  1  0
  1 28  1  0
  6 29  1  0
  7 30  1  0
  9 31  1  0
 17 32  1  0
 17 33  1  0
 17 34  1  0
 18 35  1  0
 20 36  1  0
 20 37  1  0
 20 38  1  0
 23 39  1  0
 23 40  1  0
 24 41  1  0
 25 42  1  0
M  END
>  <Binding energies>  (1) 
[-6.77]

>  <Ligand effiencies>  (1) 
[-0.24178571428571427]

>  <Interactions>  (1) 
["V-B:HIS:456:CE1:9041, V-A:ARG:545:CZ:4926, V-B:GLU:543:CD:9879, V-A:ASP:366:CG:3212, V-A:TYR:484:CZ:4346, V-A:GLU:543:CD:4908, V-A:ILE:369:CD1:3238, V-A:GLY:453:CA:4043, V-A:HIS:456:CE1:4069, V-B:TYR:539:CD2:9845, V-A:GLU:543:C:4902, V-A:ILE:369:CG2:3236, V-A:GLU:543:CB:4906, V-B:TYR:539:CE2:9847, V-A:GLY:544:C:4912, V-A:ARG:545:CG:4922, V-B:TYR:484:CD1:9314, V-B:GLU:543:CG:9878, V-A:ARG:545:CA:4919, H-A:LYS:547:NZ:4951, H-A:TYR:484:OH:4347, H-B:HIS:456:ND1:9038, V-B:TYR:484:CG:9313, V-A:ARG:545:CD:4923, H-A:GLU:543:OE1:4909, H-A:GLU:543:OE2:4910, V-A:GLY:453:C:4041, V-A:TYR:484:CE1:4344"]

$$$$
4ac_Grossjean_2025
     RDKit          3D

 40 42  0  0  0  0  0  0  0  0999 V2000
  129.4050  129.8730   74.0960 C   0  0  0  0  0  0  0  0  0  0  0  0
  130.3210  128.8640   73.6830 O   0  0  0  0  0  0  0  0  0  0  0  0
  130.3180  128.4470   72.3670 C   0  0  0  0  0  0  0  0  0  0  0  0
  131.4000  128.8490   71.5840 C   0  0  0  0  0  0  0  0  0  0  0  0
  131.4830  128.4760   70.2450 C   0  0  0  0  0  0  0  0  0  0  0  0
  130.4850  127.6860   69.6730 C   0  0  0  0  0  0  0  0  0  0  0  0
  130.6470  127.3700   68.3110 N   0  0  0  0  0  0  0  0  0  0  0  0
  130.1390  126.3310   67.6050 C   0  0  0  0  0  0  0  0  0  0  0  0
  129.4450  125.4390   68.0960 O   0  0  0  0  0  0  0  0  0  0  0  0
  130.4750  126.3160   66.1790 C   0  0  0  0  0  0  0  0  0  0  0  0
  129.3740  127.0210   64.9960 S   0  0  0  0  0  0  0  0  0  0  0  0
  130.4470  126.6050   63.6780 C   0  0  0  0  0  0  0  0  0  0  0  0
  130.1550  126.8970   62.4110 N   0  0  0  0  0  0  0  0  0  0  0  0
  131.0710  126.5190   61.4860 C   0  0  0  0  0  0  0  0  0  0  0  0
  130.7200  126.8610   60.0500 C   0  0  0  0  0  0  0  0  0  0  0  0
  132.2590  125.8600   61.7970 C   0  0  0  0  0  0  0  0  0  0  0  0
  132.5620  125.5540   63.1290 C   0  0  0  0  0  0  0  0  0  0  0  0
  133.8700  124.8340   63.4170 C   0  0  0  0  0  0  0  0  0  0  0  0
  131.6250  125.9380   64.1260 C   0  0  0  0  0  0  0  0  0  0  0  0
  131.6170  125.7880   65.5570 C   0  0  0  0  0  0  0  0  0  0  0  0
  132.6430  125.1780   66.2340 N   0  0  0  0  0  0  0  0  0  0  0  0
  129.3870  127.2880   70.4490 C   0  0  0  0  0  0  0  0  0  0  0  0
  129.3070  127.6640   71.7880 C   0  0  0  0  0  0  0  0  0  0  0  0
  129.3713  129.9101   75.1949 H   0  0  0  0  0  0  0  0  0  0  0  0
  129.7330  130.8479   73.7061 H   0  0  0  0  0  0  0  0  0  0  0  0
  128.4031  129.6405   73.7061 H   0  0  0  0  0  0  0  0  0  0  0  0
  132.1948  129.4662   72.0282 H   0  0  0  0  0  0  0  0  0  0  0  0
  132.3380  128.8051   69.6362 H   0  0  0  0  0  0  0  0  0  0  0  0
  131.2570  127.9970   67.8050 H   0  0  0  0  0  0  0  0  0  0  0  0
  129.9322  127.6286   60.0379 H   0  0  0  0  0  0  0  0  0  0  0  0
  131.6135  127.2444   59.5355 H   0  0  0  0  0  0  0  0  0  0  0  0
  130.3599  125.9579   59.5355 H   0  0  0  0  0  0  0  0  0  0  0  0
  132.9587  125.5803   60.9957 H   0  0  0  0  0  0  0  0  0  0  0  0
  134.0133  124.7551   64.5048 H   0  0  0  0  0  0  0  0  0  0  0  0
  133.8383  123.8262   62.9773 H   0  0  0  0  0  0  0  0  0  0  0  0
  134.7046  125.3998   62.9773 H   0  0  0  0  0  0  0  0  0  0  0  0
  132.4740  124.5630   67.0170 H   0  0  0  0  0  0  0  0  0  0  0  0
  133.6070  125.3230   65.9680 H   0  0  0  0  0  0  0  0  0  0  0  0
  128.5886  126.6787   70.0003 H   0  0  0  0  0  0  0  0  0  0  0  0
  128.4467  127.3455   72.3950 H   0  0  0  0  0  0  0  0  0  0  0  0
  1  2  1  0
  2  3  1  0
  3  4  2  0
  4  5  1  0
  5  6  2  0
  6  7  1  0
  7  8  1  0
  8  9  2  0
  8 10  1  0
 10 11  1  0
 11 12  1  0
 12 13  2  0
 13 14  1  0
 14 15  1  0
 14 16  2  0
 16 17  1  0
 17 18  1  0
 17 19  2  0
 19 20  1  0
 20 21  1  0
  6 22  1  0
 22 23  2  0
 23  3  1  0
 20 10  2  0
 19 12  1  0
  1 24  1  0
  1 25  1  0
  1 26  1  0
  4 27  1  0
  5 28  1  0
  7 29  1  0
 15 30  1  0
 15 31  1  0
 15 32  1  0
 16 33  1  0
 18 34  1  0
 18 35  1  0
 18 36  1  0
 21 37  1  0
 21 38  1  0
 22 39  1  0
 23 40  1  0
M  END
>  <Binding energies>  (1) 
[-6.25]

>  <Ligand effiencies>  (1) 
[-0.2403846153846154]

>  <Interactions>  (1) 
["V-B:HIS:456:CE1:9041, V-A:ARG:545:CZ:4926, V-B:GLU:543:CD:9879, V-A:ASP:366:CG:3212, V-A:TYR:484:CZ:4346, V-A:GLU:543:CD:4908, V-A:GLY:453:CA:4043, V-A:HIS:456:CE1:4069, V-A:GLU:543:C:4902, V-A:GLU:543:CB:4906, V-A:GLY:544:C:4912, V-A:ARG:545:CG:4922, V-A:ARG:545:CA:4919, H-A:LYS:547:NZ:4951, H-A:TYR:484:OH:4347, V-A:LYS:547:CE:4950, H-A:GLU:543:OE2:4910"]

$$$$
4ad_Grossjean_2025
     RDKit          3D

 36 38  0  0  0  0  0  0  0  0999 V2000
  129.0230  124.2530   73.0250 C   0  0  0  0  0  0  0  0  0  0  0  0
  129.0060  125.7120   72.6100 C   0  0  0  0  0  0  0  0  0  0  0  0
  129.1540  126.0800   71.2740 C   0  0  0  0  0  0  0  0  0  0  0  0
  129.1370  127.4340   70.9150 C   0  0  0  0  0  0  0  0  0  0  0  0
  129.3050  127.7870   69.4450 C   0  0  0  0  0  0  0  0  0  0  0  0
  128.9660  128.3920   71.9500 C   0  0  0  0  0  0  0  0  0  0  0  0
  128.9020  129.8290   71.9400 C   0  0  0  0  0  0  0  0  0  0  0  0
  129.0060  130.5580   70.7820 N   0  0  0  0  0  0  0  0  0  0  0  0
  128.7260  130.4010   73.2100 C   0  0  0  0  0  0  0  0  0  0  0  0
  128.6360  131.8180   73.5670 C   0  0  0  0  0  0  0  0  0  0  0  0
  127.5980  132.2800   74.0470 O   0  0  0  0  0  0  0  0  0  0  0  0
  129.7570  132.5470   73.3410 N   0  0  0  0  0  0  0  0  0  0  0  0
  129.9830  133.9230   73.5310 C   0  0  0  0  0  0  0  0  0  0  0  0
  130.8010  134.5450   72.5830 C   0  0  0  0  0  0  0  0  0  0  0  0
  131.0770  135.9060   72.6780 C   0  0  0  0  0  0  0  0  0  0  0  0
  130.5270  136.6500   73.7180 C   0  0  0  0  0  0  0  0  0  0  0  0
  129.6990  136.0460   74.6620 C   0  0  0  0  0  0  0  0  0  0  0  0
  129.4230  134.6850   74.5690 C   0  0  0  0  0  0  0  0  0  0  0  0
  128.6290  129.1590   74.4600 S   0  0  0  0  0  0  0  0  0  0  0  0
  128.8270  127.8860   73.2770 C   0  0  0  0  0  0  0  0  0  0  0  0
  128.8420  126.5970   73.6220 N   0  0  0  0  0  0  0  0  0  0  0  0
  129.0238  124.1840   74.1228 H   0  0  0  0  0  0  0  0  0  0  0  0
  128.1307  123.7480   72.6265 H   0  0  0  0  0  0  0  0  0  0  0  0
  129.9268  123.7690   72.6265 H   0  0  0  0  0  0  0  0  0  0  0  0
  129.2841  125.3076   70.5017 H   0  0  0  0  0  0  0  0  0  0  0  0
  129.7762  128.7771   69.3572 H   0  0  0  0  0  0  0  0  0  0  0  0
  129.9411  127.0336   68.9574 H   0  0  0  0  0  0  0  0  0  0  0  0
  128.3192  127.8056   68.9574 H   0  0  0  0  0  0  0  0  0  0  0  0
  129.3460  131.5080   70.7770 H   0  0  0  0  0  0  0  0  0  0  0  0
  128.7470  130.1610   69.8880 H   0  0  0  0  0  0  0  0  0  0  0  0
  130.5580  132.0350   73.0010 H   0  0  0  0  0  0  0  0  0  0  0  0
  131.2285  133.9560   71.7582 H   0  0  0  0  0  0  0  0  0  0  0  0
  131.7267  136.3913   71.9348 H   0  0  0  0  0  0  0  0  0  0  0  0
  130.7481  137.7248   73.7953 H   0  0  0  0  0  0  0  0  0  0  0  0
  129.2650  136.6427   75.4778 H   0  0  0  0  0  0  0  0  0  0  0  0
  128.7655  134.2058   75.3094 H   0  0  0  0  0  0  0  0  0  0  0  0
  1  2  1  0
  2  3  2  0
  3  4  1  0
  4  5  1  0
  4  6  2  0
  6  7  1  0
  7  8  1  0
  7  9  2  0
  9 10  1  0
 10 11  2  0
 10 12  1  0
 12 13  1  0
 13 14  2  0
 14 15  1  0
 15 16  2  0
 16 17  1  0
 17 18  2  0
  9 19  1  0
 19 20  1  0
 20 21  2  0
 21  2  1  0
 20  6  1  0
 18 13  1  0
  1 22  1  0
  1 23  1  0
  1 24  1  0
  3 25  1  0
  5 26  1  0
  5 27  1  0
  5 28  1  0
  8 29  1  0
  8 30  1  0
 12 31  1  0
 14 32  1  0
 15 33  1  0
 16 34  1  0
 17 35  1  0
 18 36  1  0
M  END
>  <Binding energies>  (1) 
[-6.46]

>  <Ligand effiencies>  (1) 
[-0.26916666666666667]

>  <Interactions>  (1) 
["V-B:HIS:456:CE1:9041, V-A:HIS:456:CE1:4069, V-A:GLU:543:C:4902, V-B:HIS:456:CD2:9039, V-B:HIS:456:CG:9037, V-A:GLU:543:CB:4906, V-A:HIS:456:CD2:4067, V-B:TYR:484:CD1:9314, V-B:TYR:484:CE1:9316, H-B:LYS:547:NZ:9922, V-B:LYS:547:CE:9921, V-A:GLU:543:CA:4904, H-A:GLU:543:O:4903, V-B:TYR:484:CB:9312, V-A:GLY:544:CA:4914, V-B:TYR:484:C:9308, V-B:TYR:484:CA:9310"]

$$$$
4ae_Grossjean_2025
     RDKit          3D

 38 40  0  0  0  0  0  0  0  0999 V2000
  124.1680  124.0830   58.7400 C   0  0  0  0  0  0  0  0  0  0  0  0
  125.6060  123.6190   58.6200 C   0  0  0  0  0  0  0  0  0  0  0  0
  126.0530  122.9040   57.5060 C   0  0  0  0  0  0  0  0  0  0  0  0
  127.3890  122.5030   57.4670 C   0  0  0  0  0  0  0  0  0  0  0  0
  128.2360  122.8210   58.5310 C   0  0  0  0  0  0  0  0  0  0  0  0
  127.7250  123.5460   59.6130 C   0  0  0  0  0  0  0  0  0  0  0  0
  128.6200  123.8180   60.6620 N   0  0  0  0  0  0  0  0  0  0  0  0
  129.5700  123.0110   61.1980 C   0  0  0  0  0  0  0  0  0  0  0  0
  129.7850  121.8590   60.8170 O   0  0  0  0  0  0  0  0  0  0  0  0
  130.3490  123.5990   62.2890 C   0  0  0  0  0  0  0  0  0  0  0  0
  132.0590  123.2060   62.4750 S   0  0  0  0  0  0  0  0  0  0  0  0
  132.1830  124.2040   63.9060 C   0  0  0  0  0  0  0  0  0  0  0  0
  133.3260  124.3330   64.5790 N   0  0  0  0  0  0  0  0  0  0  0  0
  133.2860  125.1300   65.6730 C   0  0  0  0  0  0  0  0  0  0  0  0
  134.5960  125.2580   66.4290 C   0  0  0  0  0  0  0  0  0  0  0  0
  132.1400  125.7980   66.1050 C   0  0  0  0  0  0  0  0  0  0  0  0
  130.9420  125.6610   65.3940 C   0  0  0  0  0  0  0  0  0  0  0  0
  129.7180  126.4060   65.9060 C   0  0  0  0  0  0  0  0  0  0  0  0
  130.9450  124.8300   64.2410 C   0  0  0  0  0  0  0  0  0  0  0  0
  129.9160  124.4700   63.3020 C   0  0  0  0  0  0  0  0  0  0  0  0
  128.6330  124.9440   63.4040 N   0  0  0  0  0  0  0  0  0  0  0  0
  126.4170  123.9370   59.6610 N   0  0  0  0  0  0  0  0  0  0  0  0
  123.8983  124.1700   59.8029 H   0  0  0  0  0  0  0  0  0  0  0  0
  124.0569  125.0626   58.2521 H   0  0  0  0  0  0  0  0  0  0  0  0
  123.5053  123.3531   58.2521 H   0  0  0  0  0  0  0  0  0  0  0  0
  125.3682  122.6630   56.6796 H   0  0  0  0  0  0  0  0  0  0  0  0
  127.7727  121.9399   56.6035 H   0  0  0  0  0  0  0  0  0  0  0  0
  129.2898  122.5059   58.5185 H   0  0  0  0  0  0  0  0  0  0  0  0
  128.4970  124.7190   61.1000 H   0  0  0  0  0  0  0  0  0  0  0  0
  134.3984  125.2387   67.5109 H   0  0  0  0  0  0  0  0  0  0  0  0
  135.2568  124.4201   66.1620 H   0  0  0  0  0  0  0  0  0  0  0  0
  135.0821  126.2079   66.1620 H   0  0  0  0  0  0  0  0  0  0  0  0
  132.1777  126.4317   67.0034 H   0  0  0  0  0  0  0  0  0  0  0  0
  129.7211  126.4041   67.0060 H   0  0  0  0  0  0  0  0  0  0  0  0
  129.7410  127.4434   65.5411 H   0  0  0  0  0  0  0  0  0  0  0  0
  128.8070  125.9090   65.5411 H   0  0  0  0  0  0  0  0  0  0  0  0
  127.8580  124.3410   63.6450 H   0  0  0  0  0  0  0  0  0  0  0  0
  128.4180  125.9180   63.2410 H   0  0  0  0  0  0  0  0  0  0  0  0
  1  2  1  0
  2  3  2  0
  3  4  1  0
  4  5  2  0
  5  6  1  0
  6  7  1  0
  7  8  1  0
  8  9  2  0
  8 10  1  0
 10 11  1  0
 11 12  1  0
 12 13  2  0
 13 14  1  0
 14 15  1  0
 14 16  2  0
 16 17  1  0
 17 18  1  0
 17 19  2  0
 19 20  1  0
 20 21  1  0
  6 22  2  0
 22  2  1  0
 20 10  2  0
 19 12  1  0
  1 23  1  0
  1 24  1  0
  1 25  1  0
  3 26  1  0
  4 27  1  0
  5 28  1  0
  7 29  1  0
 15 30  1  0
 15 31  1  0
 15 32  1  0
 16 33  1  0
 18 34  1  0
 18 35  1  0
 18 36  1  0
 21 37  1  0
 21 38  1  0
M  END
>  <Binding energies>  (1) 
[-6.78]

>  <Ligand effiencies>  (1) 
[-0.2712]

>  <Interactions>  (1) 
["V-A:ARG:545:CZ:4926, V-B:GLU:543:CD:9879, V-A:GLU:543:CD:4908, V-A:GLY:453:CA:4043, V-A:GLY:454:CA:4048, V-A:HIS:456:CE1:4069, V-B:TYR:539:CD2:9845, V-B:TYR:539:CE2:9847, V-A:ARG:545:CG:4922, V-B:GLU:543:CG:9878, H-B:GLU:543:OE2:9881, V-B:TYR:539:CZ:9848, H-A:TYR:484:OH:4347, V-B:TYR:539:CE1:9846, V-B:PRO:540:N:9855, V-B:TYR:539:C:9838, V-B:PRO:540:CA:9854, H-A:GLY:454:N:4049, V-B:PRO:540:CB:9856, V-A:ARG:545:CD:4923, V-B:LEU:363:CA:8156, V-B:TYR:539:CD1:9844, V-B:TYR:539:CG:9843, V-A:GLY:453:C:4041, V-B:LEU:363:CD1:8160, V-B:PRO:540:CD:9858"]

$$$$
4af_Grossjean_2025
     RDKit          3D

 35 37  0  0  0  0  0  0  0  0999 V2000
  129.0850  124.3680   73.3300 C   0  0  0  0  0  0  0  0  0  0  0  0
  129.0570  125.8020   72.8300 C   0  0  0  0  0  0  0  0  0  0  0  0
  129.2130  126.0930   71.4770 C   0  0  0  0  0  0  0  0  0  0  0  0
  129.1860  127.4230   71.0390 C   0  0  0  0  0  0  0  0  0  0  0  0
  129.3620  127.6910   69.5530 C   0  0  0  0  0  0  0  0  0  0  0  0
  128.9980  128.4380   72.0160 C   0  0  0  0  0  0  0  0  0  0  0  0
  128.9230  129.8720   71.9220 C   0  0  0  0  0  0  0  0  0  0  0  0
  129.0360  130.5330   70.7250 N   0  0  0  0  0  0  0  0  0  0  0  0
  128.7270  130.5150   73.1540 C   0  0  0  0  0  0  0  0  0  0  0  0
  128.6350  131.9500   73.4280 C   0  0  0  0  0  0  0  0  0  0  0  0
  127.5760  132.4490   73.8110 O   0  0  0  0  0  0  0  0  0  0  0  0
  129.7820  132.6500   73.2450 N   0  0  0  0  0  0  0  0  0  0  0  0
  130.0180  134.0320   73.3740 C   0  0  0  0  0  0  0  0  0  0  0  0
  129.7610  134.8000   74.5240 C   0  0  0  0  0  0  0  0  0  0  0  0
  130.0260  136.1700   74.5120 C   0  0  0  0  0  0  0  0  0  0  0  0
  130.5370  136.7430   73.3470 C   0  0  0  0  0  0  0  0  0  0  0  0
  130.7850  136.0260   72.2220 N   0  0  0  0  0  0  0  0  0  0  0  0
  130.5230  134.6950   72.2490 C   0  0  0  0  0  0  0  0  0  0  0  0
  128.6310  129.3470   74.4740 S   0  0  0  0  0  0  0  0  0  0  0  0
  128.8510  128.0090   73.3690 C   0  0  0  0  0  0  0  0  0  0  0  0
  128.8750  126.7430   73.7890 N   0  0  0  0  0  0  0  0  0  0  0  0
  129.0851  124.3632   74.4300 H   0  0  0  0  0  0  0  0  0  0  0  0
  128.1971  123.8336   72.9611 H   0  0  0  0  0  0  0  0  0  0  0  0
  129.9931  123.8687   72.9611 H   0  0  0  0  0  0  0  0  0  0  0  0
  129.3574  125.2782   70.7523 H   0  0  0  0  0  0  0  0  0  0  0  0
  129.9609  128.6030   69.4133 H   0  0  0  0  0  0  0  0  0  0  0  0
  129.8769  126.8389   69.0852 H   0  0  0  0  0  0  0  0  0  0  0  0
  128.3755  127.8250   69.0852 H   0  0  0  0  0  0  0  0  0  0  0  0
  129.3300  131.4980   70.6730 H   0  0  0  0  0  0  0  0  0  0  0  0
  128.8300  130.0720   69.8490 H   0  0  0  0  0  0  0  0  0  0  0  0
  130.5940  132.1110   72.9840 H   0  0  0  0  0  0  0  0  0  0  0  0
  129.3534  134.3234   75.4277 H   0  0  0  0  0  0  0  0  0  0  0  0
  129.8358  136.7859   75.4033 H   0  0  0  0  0  0  0  0  0  0  0  0
  130.7479  137.8226   73.3402 H   0  0  0  0  0  0  0  0  0  0  0  0
  130.7174  134.1065   71.3402 H   0  0  0  0  0  0  0  0  0  0  0  0
  1  2  1  0
  2  3  2  0
  3  4  1  0
  4  5  1  0
  4  6  2  0
  6  7  1  0
  7  8  1  0
  7  9  2  0
  9 10  1  0
 10 11  2  0
 10 12  1  0
 12 13  1  0
 13 14  2  0
 14 15  1  0
 15 16  2  0
 16 17  1  0
 17 18  2  0
  9 19  1  0
 19 20  1  0
 20 21  2  0
 21  2  1  0
 20  6  1  0
 18 13  1  0
  1 22  1  0
  1 23  1  0
  1 24  1  0
  3 25  1  0
  5 26  1  0
  5 27  1  0
  5 28  1  0
  8 29  1  0
  8 30  1  0
 12 31  1  0
 14 32  1  0
 15 33  1  0
 16 34  1  0
 18 35  1  0
M  END
>  <Binding energies>  (1) 
[-6.28]

>  <Ligand effiencies>  (1) 
[-0.26166666666666666]

>  <Interactions>  (1) 
["V-B:HIS:456:CE1:9041, V-A:HIS:456:CE1:4069, V-A:GLU:543:C:4902, V-B:HIS:456:CD2:9039, V-B:HIS:456:CG:9037, V-A:GLU:543:CB:4906, V-A:HIS:456:CD2:4067, V-B:TYR:484:CD1:9314, V-B:TYR:484:CE1:9316, H-B:LYS:547:NZ:9922, V-B:LYS:547:CE:9921, V-A:GLU:543:CA:4904, H-A:GLU:543:O:4903, V-B:TYR:484:CG:9313, V-B:TYR:484:CB:9312, V-B:TYR:484:C:9308, V-B:TYR:484:CA:9310, H-B:TYR:484:N:9311, H-B:SER:483:OG:9305"]

$$$$
4ag_Grossjean_2025
     RDKit          3D

 39 41  0  0  0  0  0  0  0  0999 V2000
  134.5660  125.4070   66.5800 C   0  0  0  0  0  0  0  0  0  0  0  0
  133.2610  125.1510   65.8480 C   0  0  0  0  0  0  0  0  0  0  0  0
  132.0940  125.8220   66.2070 C   0  0  0  0  0  0  0  0  0  0  0  0
  130.9020  125.5720   65.5170 C   0  0  0  0  0  0  0  0  0  0  0  0
  129.6540  126.3290   65.9460 C   0  0  0  0  0  0  0  0  0  0  0  0
  130.9350  124.6250   64.4590 C   0  0  0  0  0  0  0  0  0  0  0  0
  129.9210  124.1380   63.5630 C   0  0  0  0  0  0  0  0  0  0  0  0
  128.6220  124.5790   63.6150 N   0  0  0  0  0  0  0  0  0  0  0  0
  130.3830  123.1820   62.6470 C   0  0  0  0  0  0  0  0  0  0  0  0
  129.6340  122.4920   61.5970 C   0  0  0  0  0  0  0  0  0  0  0  0
  129.8290  121.3010   61.3450 O   0  0  0  0  0  0  0  0  0  0  0  0
  128.7390  123.2400   60.9170 N   0  0  0  0  0  0  0  0  0  0  0  0
  127.8650  122.7540   59.8500 C   0  0  0  0  0  0  0  0  0  0  0  0
  126.4610  123.3460   59.8810 C   0  0  0  0  0  0  0  0  0  0  0  0
  125.7930  123.6160   58.6830 C   0  0  0  0  0  0  0  0  0  0  0  0
  124.5010  124.1330   58.7090 C   0  0  0  0  0  0  0  0  0  0  0  0
  123.8760  124.3700   59.9320 C   0  0  0  0  0  0  0  0  0  0  0  0
  124.5300  124.0890   61.1290 C   0  0  0  0  0  0  0  0  0  0  0  0
  125.8220  123.5700   61.1040 C   0  0  0  0  0  0  0  0  0  0  0  0
  132.1040  122.8650   62.8660 S   0  0  0  0  0  0  0  0  0  0  0  0
  132.1930  124.0070   64.1890 C   0  0  0  0  0  0  0  0  0  0  0  0
  133.3300  124.2440   64.8430 N   0  0  0  0  0  0  0  0  0  0  0  0
  134.3905  125.3726   67.6654 H   0  0  0  0  0  0  0  0  0  0  0  0
  135.2995  124.6356   66.3025 H   0  0  0  0  0  0  0  0  0  0  0  0
  134.9537  126.3983   66.3025 H   0  0  0  0  0  0  0  0  0  0  0  0
  132.1093  126.5484   67.0329 H   0  0  0  0  0  0  0  0  0  0  0  0
  129.6033  126.3598   67.0444 H   0  0  0  0  0  0  0  0  0  0  0  0
  129.6940  127.3552   65.5519 H   0  0  0  0  0  0  0  0  0  0  0  0
  128.7624  125.8194   65.5519 H   0  0  0  0  0  0  0  0  0  0  0  0
  128.3540  125.4880   63.2670 H   0  0  0  0  0  0  0  0  0  0  0  0
  127.8870  124.0020   64.0000 H   0  0  0  0  0  0  0  0  0  0  0  0
  128.5900  124.1930   61.2150 H   0  0  0  0  0  0  0  0  0  0  0  0
  128.3256  123.0066   58.8835 H   0  0  0  0  0  0  0  0  0  0  0  0
  127.7564  121.6693   59.9968 H   0  0  0  0  0  0  0  0  0  0  0  0
  126.2881  123.4200   57.7205 H   0  0  0  0  0  0  0  0  0  0  0  0
  123.9754  124.3536   57.7682 H   0  0  0  0  0  0  0  0  0  0  0  0
  122.8566  124.7829   59.9520 H   0  0  0  0  0  0  0  0  0  0  0  0
  124.0283  124.2762   62.0899 H   0  0  0  0  0  0  0  0  0  0  0  0
  126.3395  123.3364   62.0461 H   0  0  0  0  0  0  0  0  0  0  0  0
  1  2  1  0
  2  3  2  0
  3  4  1  0
  4  5  1  0
  4  6  2  0
  6  7  1  0
  7  8  1  0
  7  9  2  0
  9 10  1  0
 10 11  2  0
 10 12  1  0
 12 13  1  0
 13 14  1  0
 14 15  2  0
 15 16  1  0
 16 17  2  0
 17 18  1  0
 18 19  2  0
  9 20  1  0
 20 21  1  0
 21 22  2  0
 22  2  1  0
 21  6  1  0
 19 14  1  0
  1 23  1  0
  1 24  1  0
  1 25  1  0
  3 26  1  0
  5 27  1  0
  5 28  1  0
  5 29  1  0
  8 30  1  0
  8 31  1  0
 12 32  1  0
 13 33  1  0
 13 34  1  0
 15 35  1  0
 16 36  1  0
 17 37  1  0
 18 38  1  0
 19 39  1  0
M  END
>  <Binding energies>  (1) 
[-6.99]

>  <Ligand effiencies>  (1) 
[-0.2796]

>  <Interactions>  (1) 
["V-B:ASP:366:CG:8184, V-A:ARG:545:CZ:4926, V-B:GLU:543:CD:9879, V-A:GLU:543:CD:4908, V-A:GLY:453:CA:4043, V-A:HIS:456:CE1:4069, V-B:ALA:541:CB:9863, V-A:ARG:545:CG:4922, V-B:GLU:543:CG:9878, H-B:GLU:543:OE2:9881, H-A:TYR:484:OH:4347, V-B:PRO:540:CA:9854, H-A:GLY:454:N:4049, V-B:PRO:540:CB:9856, V-A:ARG:545:CD:4923, V-B:LEU:363:CA:8156, V-A:GLY:453:C:4041, V-B:ASN:362:CB:8147, V-B:ASN:362:C:8143"]

$$$$
4ah_Grossjean_2025
     RDKit          3D

 51 53  0  0  0  0  0  0  0  0999 V2000
  128.6670  123.8930   72.9230 C   0  0  0  0  0  0  0  0  0  0  0  0
  128.3420  125.2780   72.8840 O   0  0  0  0  0  0  0  0  0  0  0  0
  129.0160  126.1100   72.0080 C   0  0  0  0  0  0  0  0  0  0  0  0
  128.6130  126.3460   70.6840 C   0  0  0  0  0  0  0  0  0  0  0  0
  129.3440  127.1980   69.8550 C   0  0  0  0  0  0  0  0  0  0  0  0
  128.8650  127.4790   68.4360 C   0  0  0  0  0  0  0  0  0  0  0  0
  129.5360  126.6690   67.4200 N   0  0  0  0  0  0  0  0  0  0  0  0
  129.7210  125.3330   67.4820 C   0  0  0  0  0  0  0  0  0  0  0  0
  129.3640  124.6570   68.4480 O   0  0  0  0  0  0  0  0  0  0  0  0
  130.4160  124.7290   66.3460 C   0  0  0  0  0  0  0  0  0  0  0  0
  129.8150  123.2300   65.6340 S   0  0  0  0  0  0  0  0  0  0  0  0
  131.1320  123.1970   64.4830 C   0  0  0  0  0  0  0  0  0  0  0  0
  131.2530  122.2260   63.5780 N   0  0  0  0  0  0  0  0  0  0  0  0
  132.3170  122.3180   62.7440 C   0  0  0  0  0  0  0  0  0  0  0  0
  132.4380  121.2020   61.7240 C   0  0  0  0  0  0  0  0  0  0  0  0
  133.2520  123.3490   62.7930 C   0  0  0  0  0  0  0  0  0  0  0  0
  133.1250  124.3670   63.7460 C   0  0  0  0  0  0  0  0  0  0  0  0
  134.1710  125.4710   63.7610 C   0  0  0  0  0  0  0  0  0  0  0  0
  132.0210  124.3030   64.6400 C   0  0  0  0  0  0  0  0  0  0  0  0
  131.5960  125.1540   65.7180 C   0  0  0  0  0  0  0  0  0  0  0  0
  132.2880  126.2820   66.0790 N   0  0  0  0  0  0  0  0  0  0  0  0
  130.4740  127.8440   70.3580 C   0  0  0  0  0  0  0  0  0  0  0  0
  130.9050  127.6220   71.6750 C   0  0  0  0  0  0  0  0  0  0  0  0
  132.0230  128.2160   72.2330 O   0  0  0  0  0  0  0  0  0  0  0  0
  133.1330  127.4040   72.6010 C   0  0  0  0  0  0  0  0  0  0  0  0
  130.1700  126.7470   72.4880 C   0  0  0  0  0  0  0  0  0  0  0  0
  130.5690  126.5350   73.7860 O   0  0  0  0  0  0  0  0  0  0  0  0
  129.7660  127.1970   74.7540 C   0  0  0  0  0  0  0  0  0  0  0  0
  128.7442  123.5638   73.9697 H   0  0  0  0  0  0  0  0  0  0  0  0
  127.8796  123.3171   72.4147 H   0  0  0  0  0  0  0  0  0  0  0  0
  129.6284  123.7275   72.4147 H   0  0  0  0  0  0  0  0  0  0  0  0
  127.7097  125.8531   70.2952 H   0  0  0  0  0  0  0  0  0  0  0  0
  127.7853  127.2743   68.3866 H   0  0  0  0  0  0  0  0  0  0  0  0
  129.1021  128.5308   68.2181 H   0  0  0  0  0  0  0  0  0  0  0  0
  129.7800  127.1440   66.5640 H   0  0  0  0  0  0  0  0  0  0  0  0
  132.5424  120.2388   62.2450 H   0  0  0  0  0  0  0  0  0  0  0  0
  131.5368  121.1821   61.0936 H   0  0  0  0  0  0  0  0  0  0  0  0
  133.3226  121.3757   61.0936 H   0  0  0  0  0  0  0  0  0  0  0  0
  134.0913  123.3636   62.0821 H   0  0  0  0  0  0  0  0  0  0  0  0
  134.4161  125.7297   64.8017 H   0  0  0  0  0  0  0  0  0  0  0  0
  135.0787  125.1231   63.2461 H   0  0  0  0  0  0  0  0  0  0  0  0
  133.7747  126.3586   63.2461 H   0  0  0  0  0  0  0  0  0  0  0  0
  132.3850  127.0710   65.4580 H   0  0  0  0  0  0  0  0  0  0  0  0
  132.7310  126.3570   66.9850 H   0  0  0  0  0  0  0  0  0  0  0  0
  131.0347  128.5368   69.7133 H   0  0  0  0  0  0  0  0  0  0  0  0
  133.2025  127.3531   73.6976 H   0  0  0  0  0  0  0  0  0  0  0  0
  132.9968  126.3908   72.1949 H   0  0  0  0  0  0  0  0  0  0  0  0
  134.0573  127.8406   72.1949 H   0  0  0  0  0  0  0  0  0  0  0  0
  130.1038  126.9185   75.7631 H   0  0  0  0  0  0  0  0  0  0  0  0
  129.8577  128.2854   74.6240 H   0  0  0  0  0  0  0  0  0  0  0  0
  128.7150  126.8994   74.6240 H   0  0  0  0  0  0  0  0  0  0  0  0
  1  2  1  0
  2  3  1  0
  3  4  2  0
  4  5  1  0
  5  6  1  0
  6  7  1  0
  7  8  1  0
  8  9  2  0
  8 10  1  0
 10 11  1  0
 11 12  1  0
 12 13  2  0
 13 14  1  0
 14 15  1  0
 14 16  2  0
 16 17  1  0
 17 18  1  0
 17 19  2  0
 19 20  1  0
 20 21  1  0
  5 22  2  0
 22 23  1  0
 23 24  1  0
 24 25  1  0
 23 26  2  0
 26 27  1  0
 27 28  1  0
 26  3  1  0
 20 10  2  0
 19 12  1  0
  1 29  1  0
  1 30  1  0
  1 31  1  0
  4 32  1  0
  6 33  1  0
  6 34  1  0
  7 35  1  0
 15 36  1  0
 15 37  1  0
 15 38  1  0
 16 39  1  0
 18 40  1  0
 18 41  1  0
 18 42  1  0
 21 43  1  0
 21 44  1  0
 22 45  1  0
 25 46  1  0
 25 47  1  0
 25 48  1  0
 28 49  1  0
 28 50  1  0
 28 51  1  0
M  END
>  <Binding energies>  (1) 
[-6.66]

>  <Ligand effiencies>  (1) 
[-0.21483870967741936]

>  <Interactions>  (1) 
["V-B:HIS:456:CE1:9041, V-A:ARG:545:CZ:4926, V-B:GLU:543:CD:9879, V-A:LEU:475:CD2:4258, V-A:TYR:484:CZ:4346, V-A:GLU:543:CD:4908, V-A:ILE:369:CD1:3238, V-A:GLY:453:CA:4043, V-A:GLY:454:CA:4048, V-A:HIS:456:CE1:4069, V-A:HIS:456:CG:4065, V-A:ILE:369:CG2:3236, V-A:GLY:544:C:4912, V-A:HIS:456:CD2:4067, V-B:ALA:541:CB:9863, V-B:GLU:543:CG:9878, V-B:GLU:543:CB:9877, V-A:ARG:545:CA:4919, H-B:LYS:547:NZ:9922, V-B:LYS:547:CE:9921, V-A:HIS:456:CB:4064, H-A:LYS:547:NZ:4951, H-A:TYR:484:OH:4347, V-A:ARG:545:CD:4923, H-A:GLU:543:OE1:4909, H-A:GLU:543:OE2:4910, V-A:GLY:453:C:4041, V-A:TYR:484:CE1:4344, V-A:ARG:545:C:4917"]

$$$$
4ai_Grossjean_2025
     RDKit          3D

 32 34  0  0  0  0  0  0  0  0999 V2000
  129.2690  128.8590   73.6100 C   0  0  0  0  0  0  0  0  0  0  0  0
  129.5620  127.3900   73.8520 C   0  0  0  0  0  0  0  0  0  0  0  0
  130.5900  126.9950   74.7050 C   0  0  0  0  0  0  0  0  0  0  0  0
  130.8400  125.6340   74.9180 C   0  0  0  0  0  0  0  0  0  0  0  0
  131.9710  125.2530   75.8610 C   0  0  0  0  0  0  0  0  0  0  0  0
  130.0160  124.6950   74.2400 C   0  0  0  0  0  0  0  0  0  0  0  0
  129.9920  123.2570   74.2280 C   0  0  0  0  0  0  0  0  0  0  0  0
  130.8790  122.5040   74.9580 N   0  0  0  0  0  0  0  0  0  0  0  0
  128.9870  122.7090   73.4160 C   0  0  0  0  0  0  0  0  0  0  0  0
  128.6860  121.2980   73.1650 C   0  0  0  0  0  0  0  0  0  0  0  0
  129.3140  120.4090   73.7430 O   0  0  0  0  0  0  0  0  0  0  0  0
  127.6800  121.0660   72.2850 N   0  0  0  0  0  0  0  0  0  0  0  0
  127.1840  119.8360   71.8750 C   0  0  0  0  0  0  0  0  0  0  0  0
  126.2500  119.1070   72.6120 C   0  0  0  0  0  0  0  0  0  0  0  0
  126.0260  117.9650   71.8780 C   0  0  0  0  0  0  0  0  0  0  0  0
  126.7840  118.0040   70.7560 O   0  0  0  0  0  0  0  0  0  0  0  0
  127.5130  119.1950   70.7650 N   0  0  0  0  0  0  0  0  0  0  0  0
  128.0520  123.9760   72.6190 S   0  0  0  0  0  0  0  0  0  0  0  0
  128.9980  125.2280   73.3930 C   0  0  0  0  0  0  0  0  0  0  0  0
  128.7580  126.5240   73.1880 N   0  0  0  0  0  0  0  0  0  0  0  0
  129.1658  129.3762   74.5753 H   0  0  0  0  0  0  0  0  0  0  0  0
  130.0952  129.3086   73.0396 H   0  0  0  0  0  0  0  0  0  0  0  0
  128.3336  128.9572   73.0396 H   0  0  0  0  0  0  0  0  0  0  0  0
  131.2057  127.7528   75.2115 H   0  0  0  0  0  0  0  0  0  0  0  0
  131.6343  125.3664   76.9020 H   0  0  0  0  0  0  0  0  0  0  0  0
  132.2616  124.2074   75.6815 H   0  0  0  0  0  0  0  0  0  0  0  0
  132.8350  125.9097   75.6815 H   0  0  0  0  0  0  0  0  0  0  0  0
  130.8810  121.4960   74.9170 H   0  0  0  0  0  0  0  0  0  0  0  0
  131.5580  122.9380   75.5670 H   0  0  0  0  0  0  0  0  0  0  0  0
  127.2270  121.8730   71.8830 H   0  0  0  0  0  0  0  0  0  0  0  0
  125.7917  119.3852   73.5725 H   0  0  0  0  0  0  0  0  0  0  0  0
  125.3412  117.1508   72.1575 H   0  0  0  0  0  0  0  0  0  0  0  0
  1  2  1  0
  2  3  2  0
  3  4  1  0
  4  5  1  0
  4  6  2  0
  6  7  1  0
  7  8  1  0
  7  9  2  0
  9 10  1  0
 10 11  2  0
 10 12  1  0
 12 13  1  0
 13 14  1  0
 14 15  2  0
 15 16  1  0
 16 17  1  0
  9 18  1  0
 18 19  1  0
 19 20  2  0
 20  2  1  0
 19  6  1  0
 17 13  2  0
  1 21  1  0
  1 22  1  0
  1 23  1  0
  3 24  1  0
  5 25  1  0
  5 26  1  0
  5 27  1  0
  8 28  1  0
  8 29  1  0
 12 30  1  0
 14 31  1  0
 15 32  1  0
M  END
>  <Binding energies>  (1) 
[-6.06]

>  <Ligand effiencies>  (1) 
[-0.2634782608695652]

>  <Interactions>  (1) 
["V-B:HIS:456:CD2:9039, V-A:HIS:456:CD2:4067, V-B:GLU:543:C:9873, H-B:LYS:547:NZ:9922, V-B:LYS:547:CE:9921, V-A:LYS:547:CE:4950, H-B:GLU:543:O:9874, V-A:ASP:473:CG:4239, V-B:GLY:544:CA:9885, V-A:TYR:484:CB:4340, V-B:GLY:544:C:9883, H-A:TYR:484:N:4339, H-A:ASP:473:OD2:4241"]

$$$$
4aj_Grossjean_2025
     RDKit          3D

 32 34  0  0  0  0  0  0  0  0999 V2000
  134.4380  121.0370   62.4810 C   0  0  0  0  0  0  0  0  0  0  0  0
  133.1070  121.7540   62.6120 C   0  0  0  0  0  0  0  0  0  0  0  0
  132.8710  122.6420   63.6590 C   0  0  0  0  0  0  0  0  0  0  0  0
  131.6340  123.2880   63.7640 C   0  0  0  0  0  0  0  0  0  0  0  0
  131.4260  124.2490   64.9250 C   0  0  0  0  0  0  0  0  0  0  0  0
  130.6520  123.0050   62.7770 C   0  0  0  0  0  0  0  0  0  0  0  0
  129.3070  123.4770   62.5850 C   0  0  0  0  0  0  0  0  0  0  0  0
  128.7170  124.3750   63.4370 N   0  0  0  0  0  0  0  0  0  0  0  0
  128.6720  122.9410   61.4540 C   0  0  0  0  0  0  0  0  0  0  0  0
  127.3130  123.1910   60.9680 C   0  0  0  0  0  0  0  0  0  0  0  0
  126.3640  123.2470   61.7530 O   0  0  0  0  0  0  0  0  0  0  0  0
  127.1960  123.3630   59.6280 N   0  0  0  0  0  0  0  0  0  0  0  0
  126.0320  123.6230   58.9190 C   0  0  0  0  0  0  0  0  0  0  0  0
  125.7780  123.3540   57.6570 N   0  0  0  0  0  0  0  0  0  0  0  0
  124.5630  123.7370   57.3140 C   0  0  0  0  0  0  0  0  0  0  0  0
  123.8010  124.3340   58.3140 C   0  0  0  0  0  0  0  0  0  0  0  0
  124.7370  124.3910   59.7790 S   0  0  0  0  0  0  0  0  0  0  0  0
  129.7300  121.8140   60.6020 S   0  0  0  0  0  0  0  0  0  0  0  0
  131.0180  122.0780   61.7550 C   0  0  0  0  0  0  0  0  0  0  0  0
  132.1960  121.4600   61.6520 N   0  0  0  0  0  0  0  0  0  0  0  0
  134.8384  120.8213   63.4826 H   0  0  0  0  0  0  0  0  0  0  0  0
  134.2942  120.0943   61.9327 H   0  0  0  0  0  0  0  0  0  0  0  0
  135.1461  121.6757   61.9327 H   0  0  0  0  0  0  0  0  0  0  0  0
  133.6573  122.8355   64.4035 H   0  0  0  0  0  0  0  0  0  0  0  0
  131.5433  123.7071   65.8750 H   0  0  0  0  0  0  0  0  0  0  0  0
  132.1700  125.0574   64.8697 H   0  0  0  0  0  0  0  0  0  0  0  0
  130.4143  124.6774   64.8697 H   0  0  0  0  0  0  0  0  0  0  0  0
  127.7190  124.5290   63.4430 H   0  0  0  0  0  0  0  0  0  0  0  0
  129.2650  124.9170   64.0900 H   0  0  0  0  0  0  0  0  0  0  0  0
  128.0410  123.3030   59.0780 H   0  0  0  0  0  0  0  0  0  0  0  0
  124.1742  123.5926   56.2952 H   0  0  0  0  0  0  0  0  0  0  0  0
  122.7735  124.7090   58.1969 H   0  0  0  0  0  0  0  0  0  0  0  0
  1  2  1  0
  2  3  2  0
  3  4  1  0
  4  5  1  0
  4  6  2  0
  6  7  1  0
  7  8  1  0
  7  9  2  0
  9 10  1  0
 10 11  2  0
 10 12  1  0
 12 13  1  0
 13 14  2  0
 14 15  1  0
 15 16  2  0
 16 17  1  0
  9 18  1  0
 18 19  1  0
 19 20  2  0
 20  2  1  0
 19  6  1  0
 17 13  1  0
  1 21  1  0
  1 22  1  0
  1 23  1  0
  3 24  1  0
  5 25  1  0
  5 26  1  0
  5 27  1  0
  8 28  1  0
  8 29  1  0
 12 30  1  0
 15 31  1  0
 16 32  1  0
M  END
>  <Binding energies>  (1) 
[-6.06]

>  <Ligand effiencies>  (1) 
[-0.2634782608695652]

>  <Interactions>  (1) 
["V-B:GLU:543:CD:9879, V-A:LEU:475:CD2:4258, V-A:ILE:369:CD1:3238, V-A:GLY:454:CA:4048, V-B:TYR:539:CD2:9845, V-A:ILE:369:CG2:3236, V-B:TYR:539:CE2:9847, V-B:ALA:541:CB:9863, V-B:GLU:543:CG:9878, H-B:GLU:543:OE2:9881, V-B:PRO:540:CA:9854, H-B:ALA:541:N:9862, V-B:PRO:540:CB:9856, V-B:LEU:363:CA:8156, V-B:LEU:363:CD1:8160, V-A:ILE:369:CG1:3237, V-B:LEU:363:CB:8158"]

$$$$
4ak_Grossjean_2025
     RDKit          3D

 50 51  0  0  0  0  0  0  0  0999 V2000
  123.7560  124.3910   59.3870 C   0  0  0  0  0  0  0  0  0  0  0  0
  123.9820  123.6570   60.5810 O   0  0  0  0  0  0  0  0  0  0  0  0
  124.7160  124.3820   61.5600 C   0  0  0  0  0  0  0  0  0  0  0  0
  126.0900  123.7290   61.7560 C   0  0  0  0  0  0  0  0  0  0  0  0
  127.1010  124.6100   61.2840 O   0  0  0  0  0  0  0  0  0  0  0  0
  126.6350  125.5670   60.3430 C   0  0  0  0  0  0  0  0  0  0  0  0
  127.2070  125.2380   58.9590 C   0  0  0  0  0  0  0  0  0  0  0  0
  128.1480  124.1800   59.0790 O   0  0  0  0  0  0  0  0  0  0  0  0
  127.5880  122.8880   58.8890 C   0  0  0  0  0  0  0  0  0  0  0  0
  128.2680  121.8920   59.8460 C   0  0  0  0  0  0  0  0  0  0  0  0
  129.0730  122.5340   60.8850 N   0  0  0  0  0  0  0  0  0  0  0  0
  129.9170  121.8990   61.7230 C   0  0  0  0  0  0  0  0  0  0  0  0
  130.1060  120.6820   61.6720 O   0  0  0  0  0  0  0  0  0  0  0  0
  130.6080  122.7390   62.6990 C   0  0  0  0  0  0  0  0  0  0  0  0
  132.2820  122.4000   63.1370 S   0  0  0  0  0  0  0  0  0  0  0  0
  132.3170  123.7600   64.2370 C   0  0  0  0  0  0  0  0  0  0  0  0
  133.4040  124.0640   64.9480 N   0  0  0  0  0  0  0  0  0  0  0  0
  133.2980  125.1410   65.7650 C   0  0  0  0  0  0  0  0  0  0  0  0
  134.5450  125.4720   66.5640 C   0  0  0  0  0  0  0  0  0  0  0  0
  132.1440  125.9120   65.8850 C   0  0  0  0  0  0  0  0  0  0  0  0
  131.0050  125.5900   65.1370 C   0  0  0  0  0  0  0  0  0  0  0  0
  129.7680  126.4590   65.3060 C   0  0  0  0  0  0  0  0  0  0  0  0
  131.0780  124.4660   64.2700 C   0  0  0  0  0  0  0  0  0  0  0  0
  130.1220  123.8660   63.3790 C   0  0  0  0  0  0  0  0  0  0  0  0
  128.8530  124.3630   63.2220 N   0  0  0  0  0  0  0  0  0  0  0  0
  123.4410  125.4142   59.6397 H   0  0  0  0  0  0  0  0  0  0  0  0
  124.6843  124.4281   58.7981 H   0  0  0  0  0  0  0  0  0  0  0  0
  122.9676  123.8995   58.7981 H   0  0  0  0  0  0  0  0  0  0  0  0
  124.8484  125.4210   61.2240 H   0  0  0  0  0  0  0  0  0  0  0  0
  124.1660  124.3720   62.5126 H   0  0  0  0  0  0  0  0  0  0  0  0
  126.2505  123.5246   62.8249 H   0  0  0  0  0  0  0  0  0  0  0  0
  126.1325  122.7846   61.1936 H   0  0  0  0  0  0  0  0  0  0  0  0
  125.5361  125.5377   60.3028 H   0  0  0  0  0  0  0  0  0  0  0  0
  126.9623  126.5721   60.6472 H   0  0  0  0  0  0  0  0  0  0  0  0
  126.3915  124.9301   58.2881 H   0  0  0  0  0  0  0  0  0  0  0  0
  127.7038  126.1277   58.5447 H   0  0  0  0  0  0  0  0  0  0  0  0
  126.5088  122.9209   59.0992 H   0  0  0  0  0  0  0  0  0  0  0  0
  127.7477  122.5669   57.8491 H   0  0  0  0  0  0  0  0  0  0  0  0
  127.4871  121.2899   60.3336 H   0  0  0  0  0  0  0  0  0  0  0  0
  128.9522  121.2792   59.2407 H   0  0  0  0  0  0  0  0  0  0  0  0
  128.9680  123.5350   60.9760 H   0  0  0  0  0  0  0  0  0  0  0  0
  134.3185  125.4119   67.6388 H   0  0  0  0  0  0  0  0  0  0  0  0
  135.3406  124.7539   66.3162 H   0  0  0  0  0  0  0  0  0  0  0  0
  134.8798  126.4901   66.3162 H   0  0  0  0  0  0  0  0  0  0  0  0
  132.1276  126.7743   66.5678 H   0  0  0  0  0  0  0  0  0  0  0  0
  129.5641  126.6022   66.3774 H   0  0  0  0  0  0  0  0  0  0  0  0
  129.9390  127.4365   64.8314 H   0  0  0  0  0  0  0  0  0  0  0  0
  128.9064  125.9667   64.8314 H   0  0  0  0  0  0  0  0  0  0  0  0
  128.4530  124.5260   62.3090 H   0  0  0  0  0  0  0  0  0  0  0  0
  128.2720  124.5790   64.0200 H   0  0  0  0  0  0  0  0  0  0  0  0
  1  2  1  0
  2  3  1  0
  3  4  1  0
  4  5  1  0
  5  6  1  0
  6  7  1  0
  7  8  1  0
  8  9  1  0
  9 10  1  0
 10 11  1  0
 11 12  1  0
 12 13  2  0
 12 14  1  0
 14 15  1  0
 15 16  1  0
 16 17  2  0
 17 18  1  0
 18 19  1  0
 18 20  2  0
 20 21  1  0
 21 22  1  0
 21 23  2  0
 23 24  1  0
 24 25  1  0
 24 14  2  0
 23 16  1  0
  1 26  1  0
  1 27  1  0
  1 28  1  0
  3 29  1  0
  3 30  1  0
  4 31  1  0
  4 32  1  0
  6 33  1  0
  6 34  1  0
  7 35  1  0
  7 36  1  0
  9 37  1  0
  9 38  1  0
 10 39  1  0
 10 40  1  0
 11 41  1  0
 19 42  1  0
 19 43  1  0
 19 44  1  0
 20 45  1  0
 22 46  1  0
 22 47  1  0
 22 48  1  0
 25 49  1  0
 25 50  1  0
M  END
>  <Binding energies>  (1) 
[-4.51]

>  <Ligand effiencies>  (1) 
[-0.16107142857142856]

>  <Interactions>  (1) 
["V-B:ASP:366:CG:8184, V-A:ARG:545:CZ:4926, V-B:GLU:543:CD:9879, V-A:LEU:475:CD2:4258, V-A:GLU:543:CD:4908, V-A:GLY:453:CA:4043, V-B:TYR:539:CD2:9845, V-B:TYR:539:CE2:9847, V-B:ALA:541:CB:9863, V-A:ARG:545:CG:4922, V-B:GLU:543:CG:9878, H-B:GLU:543:OE2:9881, V-B:PRO:540:C:9852, H-A:TYR:484:OH:4347, V-B:PRO:540:N:9855, V-B:TYR:539:C:9838, V-B:PRO:540:CA:9854, H-A:GLY:454:N:4049, V-B:PRO:540:CB:9856, V-A:ARG:545:CD:4923, V-B:LEU:363:CA:8156, V-A:GLY:453:C:4041, V-B:ASN:362:CB:8147, V-B:ASN:362:C:8143, V-B:LEU:363:CB:8158, H-B:LEU:363:N:8157"]

$$$$
4al_Grossjean_2025
     RDKit          3D

 28 29  0  0  0  0  0  0  0  0999 V2000
  125.2970  124.3530   61.4010 C   0  0  0  0  0  0  0  0  0  0  0  0
  126.1670  123.2380   61.5220 O   0  0  0  0  0  0  0  0  0  0  0  0
  127.1230  122.9950   60.5890 C   0  0  0  0  0  0  0  0  0  0  0  0
  126.9080  122.9580   59.3750 O   0  0  0  0  0  0  0  0  0  0  0  0
  128.4620  122.7760   61.1790 C   0  0  0  0  0  0  0  0  0  0  0  0
  129.6640  121.8210   60.3080 S   0  0  0  0  0  0  0  0  0  0  0  0
  130.8310  122.0450   61.5900 C   0  0  0  0  0  0  0  0  0  0  0  0
  132.0550  121.5200   61.5280 N   0  0  0  0  0  0  0  0  0  0  0  0
  132.8640  121.7680   62.5880 C   0  0  0  0  0  0  0  0  0  0  0  0
  134.2520  121.1610   62.4980 C   0  0  0  0  0  0  0  0  0  0  0  0
  132.4810  122.5220   63.6960 C   0  0  0  0  0  0  0  0  0  0  0  0
  131.1960  123.0720   63.7570 C   0  0  0  0  0  0  0  0  0  0  0  0
  130.8230  123.8870   64.9850 C   0  0  0  0  0  0  0  0  0  0  0  0
  130.3200  122.8320   62.6640 C   0  0  0  0  0  0  0  0  0  0  0  0
  128.9660  123.2350   62.4010 C   0  0  0  0  0  0  0  0  0  0  0  0
  128.2400  124.0010   63.2770 N   0  0  0  0  0  0  0  0  0  0  0  0
  125.0179  124.7107   62.4031 H   0  0  0  0  0  0  0  0  0  0  0  0
  125.8075  125.1587   60.8531 H   0  0  0  0  0  0  0  0  0  0  0  0
  124.3914  124.0537   60.8531 H   0  0  0  0  0  0  0  0  0  0  0  0
  134.6437  120.9897   63.5115 H   0  0  0  0  0  0  0  0  0  0  0  0
  134.1993  120.2038   61.9586 H   0  0  0  0  0  0  0  0  0  0  0  0
  134.9191  121.8496   61.9586 H   0  0  0  0  0  0  0  0  0  0  0  0
  133.1888  122.6846   64.5222 H   0  0  0  0  0  0  0  0  0  0  0  0
  131.0817  123.3219   65.8926 H   0  0  0  0  0  0  0  0  0  0  0  0
  131.3754  124.8382   64.9755 H   0  0  0  0  0  0  0  0  0  0  0  0
  129.7421  124.0906   64.9755 H   0  0  0  0  0  0  0  0  0  0  0  0
  128.6830  124.5720   63.9820 H   0  0  0  0  0  0  0  0  0  0  0  0
  127.2290  124.0190   63.2460 H   0  0  0  0  0  0  0  0  0  0  0  0
  1  2  1  0
  2  3  1  0
  3  4  2  0
  3  5  1  0
  5  6  1  0
  6  7  1  0
  7  8  2  0
  8  9  1  0
  9 10  1  0
  9 11  2  0
 11 12  1  0
 12 13  1  0
 12 14  2  0
 14 15  1  0
 15 16  1  0
 15  5  2  0
 14  7  1  0
  1 17  1  0
  1 18  1  0
  1 19  1  0
 10 20  1  0
 10 21  1  0
 10 22  1  0
 11 23  1  0
 13 24  1  0
 13 25  1  0
 13 26  1  0
 16 27  1  0
 16 28  1  0
M  END
>  <Binding energies>  (1) 
[-4.64]

>  <Ligand effiencies>  (1) 
[-0.2577777777777778]

>  <Interactions>  (1) 
["V-B:GLU:543:CD:9879, V-A:LEU:475:CD2:4258, V-A:ILE:369:CD1:3238, V-A:GLY:454:CA:4048, V-B:TYR:539:CD2:9845, V-A:ILE:369:CG2:3236, V-B:TYR:539:CE2:9847, V-B:ALA:541:CB:9863, V-B:GLU:543:CG:9878, H-B:GLU:543:OE2:9881, V-B:PRO:540:C:9852, V-B:PRO:540:CA:9854, H-B:ALA:541:N:9862, V-B:PRO:540:CB:9856"]

$$$$
4ba_Grossjean_2025
     RDKit          3D

 44 46  0  0  0  0  0  0  0  0999 V2000
  128.1820  131.7020   73.1900 C   0  0  0  0  0  0  0  0  0  0  0  0
  128.5690  130.9510   71.9020 C   0  0  0  0  0  0  0  0  0  0  0  0
  129.7490  129.9680   72.0470 C   0  0  0  0  0  0  0  0  0  0  0  0
  130.3930  129.9440   73.0980 O   0  0  0  0  0  0  0  0  0  0  0  0
  130.0560  129.0700   70.8840 C   0  0  0  0  0  0  0  0  0  0  0  0
  129.0130  128.3800   70.2540 C   0  0  0  0  0  0  0  0  0  0  0  0
  129.2700  127.5400   69.1740 C   0  0  0  0  0  0  0  0  0  0  0  0
  130.5720  127.3750   68.7000 C   0  0  0  0  0  0  0  0  0  0  0  0
  130.7190  126.4960   67.6090 N   0  0  0  0  0  0  0  0  0  0  0  0
  130.1150  125.3090   67.3590 C   0  0  0  0  0  0  0  0  0  0  0  0
  129.3190  124.7630   68.1240 O   0  0  0  0  0  0  0  0  0  0  0  0
  130.4890  124.6720   66.0940 C   0  0  0  0  0  0  0  0  0  0  0  0
  129.6430  123.2270   65.5450 S   0  0  0  0  0  0  0  0  0  0  0  0
  130.6600  123.1130   64.1290 C   0  0  0  0  0  0  0  0  0  0  0  0
  130.5020  122.1350   63.2380 N   0  0  0  0  0  0  0  0  0  0  0  0
  131.3490  122.1500   62.1830 C   0  0  0  0  0  0  0  0  0  0  0  0
  131.1570  121.0230   61.1850 C   0  0  0  0  0  0  0  0  0  0  0  0
  132.3370  123.1130   61.9970 C   0  0  0  0  0  0  0  0  0  0  0  0
  132.5090  124.1460   62.9330 C   0  0  0  0  0  0  0  0  0  0  0  0
  133.6080  125.1840   62.6850 C   0  0  0  0  0  0  0  0  0  0  0  0
  134.4630  125.2930   63.7030 F   0  0  0  0  0  0  0  0  0  0  0  0
  134.3140  124.8460   61.6050 F   0  0  0  0  0  0  0  0  0  0  0  0
  133.0600  126.3850   62.4940 F   0  0  0  0  0  0  0  0  0  0  0  0
  131.6340  124.1550   64.0610 C   0  0  0  0  0  0  0  0  0  0  0  0
  131.5180  125.0260   65.2050 C   0  0  0  0  0  0  0  0  0  0  0  0
  132.3410  126.1060   65.4000 N   0  0  0  0  0  0  0  0  0  0  0  0
  131.6230  128.0580   69.3300 C   0  0  0  0  0  0  0  0  0  0  0  0
  131.3650  128.8980   70.4100 C   0  0  0  0  0  0  0  0  0  0  0  0
  128.4871  131.1099   74.0654 H   0  0  0  0  0  0  0  0  0  0  0  0
  128.6896  132.6776   73.2122 H   0  0  0  0  0  0  0  0  0  0  0  0
  127.0929  131.8548   73.2122 H   0  0  0  0  0  0  0  0  0  0  0  0
  127.6911  130.3818   71.5626 H   0  0  0  0  0  0  0  0  0  0  0  0
  128.8966  131.7193   71.1862 H   0  0  0  0  0  0  0  0  0  0  0  0
  127.9814  128.5028   70.6157 H   0  0  0  0  0  0  0  0  0  0  0  0
  128.4408  127.0025   68.6908 H   0  0  0  0  0  0  0  0  0  0  0  0
  131.3920  126.8020   66.9220 H   0  0  0  0  0  0  0  0  0  0  0  0
  130.9961  120.0784   61.7252 H   0  0  0  0  0  0  0  0  0  0  0  0
  130.2825  121.2377   60.5532 H   0  0  0  0  0  0  0  0  0  0  0  0
  132.0533  120.9360   60.5532 H   0  0  0  0  0  0  0  0  0  0  0  0
  132.9873  123.0646   61.1111 H   0  0  0  0  0  0  0  0  0  0  0  0
  131.9810  127.0470   65.4710 H   0  0  0  0  0  0  0  0  0  0  0  0
  133.3430  125.9960   65.4730 H   0  0  0  0  0  0  0  0  0  0  0  0
  132.6543  127.9295   68.9696 H   0  0  0  0  0  0  0  0  0  0  0  0
  132.1951  129.4316   70.8959 H   0  0  0  0  0  0  0  0  0  0  0  0
  1  2  1  0
  2  3  1  0
  3  4  2  0
  3  5  1  0
  5  6  2  0
  6  7  1  0
  7  8  2  0
  8  9  1  0
  9 10  1  0
 10 11  2  0
 10 12  1  0
 12 13  1  0
 13 14  1  0
 14 15  2  0
 15 16  1  0
 16 17  1  0
 16 18  2  0
 18 19  1  0
 19 20  1  0
 20 21  1  0
 20 22  1  0
 20 23  1  0
 19 24  2  0
 24 25  1  0
 25 26  1  0
  8 27  1  0
 27 28  2  0
 28  5  1  0
 25 12  2  0
 24 14  1  0
  1 29  1  0
  1 30  1  0
  1 31  1  0
  2 32  1  0
  2 33  1  0
  6 34  1  0
  7 35  1  0
  9 36  1  0
 17 37  1  0
 17 38  1  0
 17 39  1  0
 18 40  1  0
 26 41  1  0
 26 42  1  0
 27 43  1  0
 28 44  1  0
M  END
>  <Binding energies>  (1) 
[-6.91]

>  <Ligand effiencies>  (1) 
[-0.2229032258064516]

>  <Interactions>  (1) 
["V-B:HIS:456:CE1:9041, V-A:ARG:545:CZ:4926, V-A:ASP:366:CG:3212, V-A:LEU:475:CD2:4258, V-A:TYR:484:CZ:4346, V-A:GLU:543:CD:4908, V-A:ILE:369:CD1:3238, V-A:GLY:453:CA:4043, V-A:HIS:456:CE1:4069, V-B:TYR:539:CD2:9845, V-A:GLU:543:C:4902, V-B:HIS:456:CG:9037, V-A:GLU:543:CB:4906, V-B:TYR:539:CE2:9847, V-A:ASP:366:CA:3209, V-A:GLY:544:C:4912, V-B:ALA:541:CB:9863, V-A:ARG:545:CG:4922, V-B:TYR:484:CD1:9314, V-B:GLU:543:CG:9878, V-B:GLU:543:CB:9877, V-A:ARG:545:CA:4919, V-B:TYR:484:CE1:9316, H-A:LYS:547:NZ:4951, H-A:GLU:543:OE1:4909, H-A:GLU:543:OE2:4910, V-A:GLY:453:C:4041, V-A:TYR:484:CE1:4344"]

$$$$
4bb_Grossjean_2025
     RDKit          3D

 41 43  0  0  0  0  0  0  0  0999 V2000
  128.6460  130.8760   72.1730 C   0  0  0  0  0  0  0  0  0  0  0  0
  129.8100  129.8860   72.2640 C   0  0  0  0  0  0  0  0  0  0  0  0
  130.4650  129.8550   73.3070 O   0  0  0  0  0  0  0  0  0  0  0  0
  130.0970  129.0160   71.0770 C   0  0  0  0  0  0  0  0  0  0  0  0
  129.0620  128.2630   70.5100 C   0  0  0  0  0  0  0  0  0  0  0  0
  129.3020  127.4470   69.4090 C   0  0  0  0  0  0  0  0  0  0  0  0
  130.5780  127.3740   68.8480 C   0  0  0  0  0  0  0  0  0  0  0  0
  130.7110  126.5160   67.7380 N   0  0  0  0  0  0  0  0  0  0  0  0
  130.0920  125.3400   67.4670 C   0  0  0  0  0  0  0  0  0  0  0  0
  129.2840  124.7950   68.2180 O   0  0  0  0  0  0  0  0  0  0  0  0
  130.4720  124.7130   66.1980 C   0  0  0  0  0  0  0  0  0  0  0  0
  129.6860  123.2260   65.6730 S   0  0  0  0  0  0  0  0  0  0  0  0
  130.6730  123.1570   64.2320 C   0  0  0  0  0  0  0  0  0  0  0  0
  130.5380  122.1740   63.3440 N   0  0  0  0  0  0  0  0  0  0  0  0
  131.3590  122.2280   62.2690 C   0  0  0  0  0  0  0  0  0  0  0  0
  131.1880  121.1000   61.2680 C   0  0  0  0  0  0  0  0  0  0  0  0
  132.3030  123.2310   62.0650 C   0  0  0  0  0  0  0  0  0  0  0  0
  132.4490  124.2690   62.9980 C   0  0  0  0  0  0  0  0  0  0  0  0
  133.5010  125.3510   62.7300 C   0  0  0  0  0  0  0  0  0  0  0  0
  134.2600  125.0880   61.6630 F   0  0  0  0  0  0  0  0  0  0  0  0
  132.8990  126.5210   62.5140 F   0  0  0  0  0  0  0  0  0  0  0  0
  134.3140  125.4610   63.7800 F   0  0  0  0  0  0  0  0  0  0  0  0
  131.5980  124.2430   64.1440 C   0  0  0  0  0  0  0  0  0  0  0  0
  131.4620  125.1130   65.2850 C   0  0  0  0  0  0  0  0  0  0  0  0
  132.2310  126.2360   65.4560 N   0  0  0  0  0  0  0  0  0  0  0  0
  131.6220  128.1200   69.4150 C   0  0  0  0  0  0  0  0  0  0  0  0
  131.3800  128.9350   70.5180 C   0  0  0  0  0  0  0  0  0  0  0  0
  128.3202  131.1531   73.1865 H   0  0  0  0  0  0  0  0  0  0  0  0
  128.9726  131.7773   71.6336 H   0  0  0  0  0  0  0  0  0  0  0  0
  127.8088  130.4090   71.6336 H   0  0  0  0  0  0  0  0  0  0  0  0
  128.0504  128.3169   70.9386 H   0  0  0  0  0  0  0  0  0  0  0  0
  128.4809  126.8555   68.9778 H   0  0  0  0  0  0  0  0  0  0  0  0
  131.3890  126.8250   67.0570 H   0  0  0  0  0  0  0  0  0  0  0  0
  131.0442  120.1512   61.8057 H   0  0  0  0  0  0  0  0  0  0  0  0
  130.3099  121.3002   60.6364 H   0  0  0  0  0  0  0  0  0  0  0  0
  132.0859  121.0310   60.6364 H   0  0  0  0  0  0  0  0  0  0  0  0
  132.9381  123.2096   61.1671 H   0  0  0  0  0  0  0  0  0  0  0  0
  133.2370  126.1890   65.5350 H   0  0  0  0  0  0  0  0  0  0  0  0
  131.8140  127.1560   65.5090 H   0  0  0  0  0  0  0  0  0  0  0  0
  132.6338  128.0611   68.9875 H   0  0  0  0  0  0  0  0  0  0  0  0
  132.2028  129.5203   70.9544 H   0  0  0  0  0  0  0  0  0  0  0  0
  1  2  1  0
  2  3  2  0
  2  4  1  0
  4  5  2  0
  5  6  1  0
  6  7  2  0
  7  8  1  0
  8  9  1  0
  9 10  2  0
  9 11  1  0
 11 12  1  0
 12 13  1  0
 13 14  2  0
 14 15  1  0
 15 16  1  0
 15 17  2  0
 17 18  1  0
 18 19  1  0
 19 20  1  0
 19 21  1  0
 19 22  1  0
 18 23  2  0
 23 24  1  0
 24 25  1  0
  7 26  1  0
 26 27  2  0
 27  4  1  0
 24 11  2  0
 23 13  1  0
  1 28  1  0
  1 29  1  0
  1 30  1  0
  5 31  1  0
  6 32  1  0
  8 33  1  0
 16 34  1  0
 16 35  1  0
 16 36  1  0
 17 37  1  0
 25 38  1  0
 25 39  1  0
 26 40  1  0
 27 41  1  0
M  END
>  <Binding energies>  (1) 
[-6.76]

>  <Ligand effiencies>  (1) 
[-0.22533333333333333]

>  <Interactions>  (1) 
["V-B:HIS:456:CE1:9041, V-A:ARG:545:CZ:4926, V-A:ASP:366:CG:3212, V-A:LEU:475:CD2:4258, V-A:TYR:484:CZ:4346, V-A:GLU:543:CD:4908, V-A:ILE:369:CD1:3238, V-A:GLY:453:CA:4043, V-A:HIS:456:CE1:4069, V-B:TYR:539:CD2:9845, V-A:GLU:543:C:4902, V-B:HIS:456:CG:9037, V-A:GLU:543:CB:4906, V-B:TYR:539:CE2:9847, V-A:ASP:366:CB:3211, V-A:ASP:366:CA:3209, V-A:GLY:544:C:4912, V-B:ALA:541:CB:9863, V-A:ARG:545:CG:4922, V-B:TYR:484:CD1:9314, V-B:GLU:543:CG:9878, V-B:GLU:543:CB:9877, V-A:ARG:545:CA:4919, V-B:TYR:484:CE1:9316, H-A:LYS:547:NZ:4951, H-A:GLU:543:OE1:4909, H-A:GLU:543:OE2:4910, V-A:GLY:453:C:4041, V-A:TYR:484:CE1:4344"]

$$$$
4bc_Grossjean_2025
     RDKit          3D

 40 42  0  0  0  0  0  0  0  0999 V2000
  129.3870  129.5880   74.2440 C   0  0  0  0  0  0  0  0  0  0  0  0
  130.4070  128.7320   73.7400 O   0  0  0  0  0  0  0  0  0  0  0  0
  130.3760  128.3580   72.4110 C   0  0  0  0  0  0  0  0  0  0  0  0
  131.5050  128.6630   71.6520 C   0  0  0  0  0  0  0  0  0  0  0  0
  131.5660  128.3260   70.3020 C   0  0  0  0  0  0  0  0  0  0  0  0
  130.4950  127.6680   69.6940 C   0  0  0  0  0  0  0  0  0  0  0  0
  130.6400  127.3810   68.3240 N   0  0  0  0  0  0  0  0  0  0  0  0
  130.1050  126.3680   67.5990 C   0  0  0  0  0  0  0  0  0  0  0  0
  129.4000  125.4790   68.0770 O   0  0  0  0  0  0  0  0  0  0  0  0
  130.4270  126.3800   66.1690 C   0  0  0  0  0  0  0  0  0  0  0  0
  129.3290  127.1390   65.0190 S   0  0  0  0  0  0  0  0  0  0  0  0
  130.3760  126.7330   63.6800 C   0  0  0  0  0  0  0  0  0  0  0  0
  130.0680  127.0710   62.4280 N   0  0  0  0  0  0  0  0  0  0  0  0
  130.9550  126.7010   61.4770 C   0  0  0  0  0  0  0  0  0  0  0  0
  130.5880  127.1000   60.0600 C   0  0  0  0  0  0  0  0  0  0  0  0
  132.1330  126.0070   61.7440 C   0  0  0  0  0  0  0  0  0  0  0  0
  132.4630  125.6480   63.0610 C   0  0  0  0  0  0  0  0  0  0  0  0
  133.7680  124.8820   63.3050 C   0  0  0  0  0  0  0  0  0  0  0  0
  134.5980  125.5170   64.1350 F   0  0  0  0  0  0  0  0  0  0  0  0
  133.4980  123.6930   63.8410 F   0  0  0  0  0  0  0  0  0  0  0  0
  134.4130  124.7090   62.1510 F   0  0  0  0  0  0  0  0  0  0  0  0
  131.5480  126.0250   64.0890 C   0  0  0  0  0  0  0  0  0  0  0  0
  131.5490  125.8410   65.5200 C   0  0  0  0  0  0  0  0  0  0  0  0
  132.5620  125.1940   66.1820 N   0  0  0  0  0  0  0  0  0  0  0  0
  129.3490  127.3700   70.4470 C   0  0  0  0  0  0  0  0  0  0  0  0
  129.2930  127.7090   71.7960 C   0  0  0  0  0  0  0  0  0  0  0  0
  129.4055  129.5724   75.3437 H   0  0  0  0  0  0  0  0  0  0  0  0
  129.5611  130.6144   73.8888 H   0  0  0  0  0  0  0  0  0  0  0  0
  128.4063  129.2385   73.8888 H   0  0  0  0  0  0  0  0  0  0  0  0
  132.3563  129.1751   72.1242 H   0  0  0  0  0  0  0  0  0  0  0  0
  132.4601  128.5788   69.7133 H   0  0  0  0  0  0  0  0  0  0  0  0
  131.2550  128.0090   67.8280 H   0  0  0  0  0  0  0  0  0  0  0  0
  129.8436  127.9093   60.0881 H   0  0  0  0  0  0  0  0  0  0  0  0
  131.4882  127.4480   59.5323 H   0  0  0  0  0  0  0  0  0  0  0  0
  130.1661  126.2320   59.5323 H   0  0  0  0  0  0  0  0  0  0  0  0
  132.8086  125.7386   60.9185 H   0  0  0  0  0  0  0  0  0  0  0  0
  133.5310  125.3180   65.9290 H   0  0  0  0  0  0  0  0  0  0  0  0
  132.3690  124.5710   66.9540 H   0  0  0  0  0  0  0  0  0  0  0  0
  128.4939  126.8680   69.9708 H   0  0  0  0  0  0  0  0  0  0  0  0
  128.3952  127.4671   72.3837 H   0  0  0  0  0  0  0  0  0  0  0  0
  1  2  1  0
  2  3  1  0
  3  4  2  0
  4  5  1  0
  5  6  2  0
  6  7  1  0
  7  8  1  0
  8  9  2  0
  8 10  1  0
 10 11  1  0
 11 12  1  0
 12 13  2  0
 13 14  1  0
 14 15  1  0
 14 16  2  0
 16 17  1  0
 17 18  1  0
 18 19  1  0
 18 20  1  0
 18 21  1  0
 17 22  2  0
 22 23  1  0
 23 24  1  0
  6 25  1  0
 25 26  2  0
 26  3  1  0
 23 10  2  0
 22 12  1  0
  1 27  1  0
  1 28  1  0
  1 29  1  0
  4 30  1  0
  5 31  1  0
  7 32  1  0
 15 33  1  0
 15 34  1  0
 15 35  1  0
 16 36  1  0
 24 37  1  0
 24 38  1  0
 25 39  1  0
 26 40  1  0
M  END
>  <Binding energies>  (1) 
[-6.16]

>  <Ligand effiencies>  (1) 
[-0.21241379310344827]

>  <Interactions>  (1) 
["V-B:HIS:456:CE1:9041, V-A:ARG:545:CZ:4926, V-B:GLU:543:CD:9879, V-A:ASP:366:CG:3212, V-A:TYR:484:CZ:4346, V-A:GLU:543:CD:4908, V-A:ILE:369:CD1:3238, V-A:GLY:453:CA:4043, V-A:GLY:454:CA:4048, V-A:HIS:456:CE1:4069, V-B:HIS:456:CD2:9039, V-A:GLU:543:CB:4906, V-A:GLY:544:C:4912, V-A:ARG:545:CG:4922, V-A:ARG:545:CA:4919, H-A:LYS:547:NZ:4951, H-A:TYR:484:OH:4347, V-A:LYS:547:CE:4950, V-A:ARG:545:CD:4923, H-A:GLU:543:OE2:4910, V-A:GLY:453:C:4041"]

$$$$
4bd_Grossjean_2025
     RDKit          3D

 36 38  0  0  0  0  0  0  0  0999 V2000
  128.9590  124.0800   73.0640 C   0  0  0  0  0  0  0  0  0  0  0  0
  128.9860  125.5330   72.6240 C   0  0  0  0  0  0  0  0  0  0  0  0
  129.2430  125.8780   71.3000 C   0  0  0  0  0  0  0  0  0  0  0  0
  129.2660  127.2260   70.9080 C   0  0  0  0  0  0  0  0  0  0  0  0
  129.5570  127.5570   69.4410 C   0  0  0  0  0  0  0  0  0  0  0  0
  128.6220  128.3330   68.8860 F   0  0  0  0  0  0  0  0  0  0  0  0
  130.7190  128.2020   69.3440 F   0  0  0  0  0  0  0  0  0  0  0  0
  129.6160  126.4330   68.7280 F   0  0  0  0  0  0  0  0  0  0  0  0
  129.0170  128.2040   71.9170 C   0  0  0  0  0  0  0  0  0  0  0  0
  128.9590  129.6450   71.8950 C   0  0  0  0  0  0  0  0  0  0  0  0
  129.1560  130.3750   70.7510 N   0  0  0  0  0  0  0  0  0  0  0  0
  128.6850  130.2280   73.1440 C   0  0  0  0  0  0  0  0  0  0  0  0
  128.5740  131.6500   73.4830 C   0  0  0  0  0  0  0  0  0  0  0  0
  127.5150  132.1130   73.9090 O   0  0  0  0  0  0  0  0  0  0  0  0
  129.7030  132.3800   73.3040 N   0  0  0  0  0  0  0  0  0  0  0  0
  129.9160  133.7580   73.4930 C   0  0  0  0  0  0  0  0  0  0  0  0
  129.2870  134.3280   74.6040 C   0  0  0  0  0  0  0  0  0  0  0  0
  129.4450  135.6830   74.8820 C   0  0  0  0  0  0  0  0  0  0  0  0
  130.2410  136.4700   74.0530 C   0  0  0  0  0  0  0  0  0  0  0  0
  130.8830  135.9110   72.9510 C   0  0  0  0  0  0  0  0  0  0  0  0
  130.7270  134.5570   72.6690 C   0  0  0  0  0  0  0  0  0  0  0  0
  128.4830  128.9990   74.3900 S   0  0  0  0  0  0  0  0  0  0  0  0
  128.7680  127.7160   73.2370 C   0  0  0  0  0  0  0  0  0  0  0  0
  128.7460  126.4360   73.6030 N   0  0  0  0  0  0  0  0  0  0  0  0
  128.9581  124.0296   74.1628 H   0  0  0  0  0  0  0  0  0  0  0  0
  128.0517  123.5956   72.6740 H   0  0  0  0  0  0  0  0  0  0  0  0
  129.8477  123.5622   72.6740 H   0  0  0  0  0  0  0  0  0  0  0  0
  129.4293  125.0894   70.5561 H   0  0  0  0  0  0  0  0  0  0  0  0
  129.0970  129.9570   69.8330 H   0  0  0  0  0  0  0  0  0  0  0  0
  129.3620  131.3640   70.7870 H   0  0  0  0  0  0  0  0  0  0  0  0
  130.5210  131.8690   73.0080 H   0  0  0  0  0  0  0  0  0  0  0  0
  128.6646  133.7031   75.2613 H   0  0  0  0  0  0  0  0  0  0  0  0
  128.9433  136.1303   75.7528 H   0  0  0  0  0  0  0  0  0  0  0  0
  130.3634  137.5413   74.2705 H   0  0  0  0  0  0  0  0  0  0  0  0
  131.5129  136.5390   72.3039 H   0  0  0  0  0  0  0  0  0  0  0  0
  131.2380  134.1127   71.8021 H   0  0  0  0  0  0  0  0  0  0  0  0
  1  2  1  0
  2  3  2  0
  3  4  1  0
  4  5  1  0
  5  6  1  0
  5  7  1  0
  5  8  1  0
  4  9  2  0
  9 10  1  0
 10 11  1  0
 10 12  2  0
 12 13  1  0
 13 14  2  0
 13 15  1  0
 15 16  1  0
 16 17  2  0
 17 18  1  0
 18 19  2  0
 19 20  1  0
 20 21  2  0
 12 22  1  0
 22 23  1  0
 23 24  2  0
 24  2  1  0
 23  9  1  0
 21 16  1  0
  1 25  1  0
  1 26  1  0
  1 27  1  0
  3 28  1  0
 11 29  1  0
 11 30  1  0
 15 31  1  0
 17 32  1  0
 18 33  1  0
 19 34  1  0
 20 35  1  0
 21 36  1  0
M  END
>  <Binding energies>  (1) 
[-6.07]

>  <Ligand effiencies>  (1) 
[-0.22481481481481483]

>  <Interactions>  (1) 
["V-B:HIS:456:CE1:9041, V-A:GLU:543:CD:4908, V-A:GLU:543:CG:4907, V-A:HIS:456:CE1:4069, V-A:GLU:543:C:4902, V-B:HIS:456:CD2:9039, V-B:HIS:456:CG:9037, V-A:GLU:543:CB:4906, V-A:HIS:456:CD2:4067, V-B:TYR:484:CD1:9314, V-B:TYR:484:CE1:9316, H-B:LYS:547:NZ:9922, V-B:LYS:547:CE:9921, V-A:GLU:543:CA:4904, H-A:GLU:543:O:4903, V-B:TYR:484:CB:9312, V-A:GLY:544:CA:4914, V-B:TYR:484:C:9308, V-B:TYR:484:CA:9310"]

$$$$
4be_Grossjean_2025
     RDKit          3D

 38 40  0  0  0  0  0  0  0  0999 V2000
  131.8730  136.6170   72.1960 C   0  0  0  0  0  0  0  0  0  0  0  0
  130.9090  135.8410   73.0720 C   0  0  0  0  0  0  0  0  0  0  0  0
  130.2400  136.4480   74.1370 C   0  0  0  0  0  0  0  0  0  0  0  0
  129.3690  135.6720   74.9040 C   0  0  0  0  0  0  0  0  0  0  0  0
  129.1920  134.3220   74.5900 C   0  0  0  0  0  0  0  0  0  0  0  0
  129.8890  133.7780   73.5060 C   0  0  0  0  0  0  0  0  0  0  0  0
  129.6720  132.4130   73.2480 N   0  0  0  0  0  0  0  0  0  0  0  0
  128.5230  131.6990   73.3480 C   0  0  0  0  0  0  0  0  0  0  0  0
  127.4430  132.1820   73.6960 O   0  0  0  0  0  0  0  0  0  0  0  0
  128.6380  130.2730   73.0330 C   0  0  0  0  0  0  0  0  0  0  0  0
  128.4310  129.0660   74.3020 S   0  0  0  0  0  0  0  0  0  0  0  0
  128.7380  127.7650   73.1770 C   0  0  0  0  0  0  0  0  0  0  0  0
  128.7180  126.4910   73.5660 N   0  0  0  0  0  0  0  0  0  0  0  0
  128.9690  125.5720   72.6040 C   0  0  0  0  0  0  0  0  0  0  0  0
  128.9450  124.1270   73.0680 C   0  0  0  0  0  0  0  0  0  0  0  0
  129.2340  125.8950   71.2760 C   0  0  0  0  0  0  0  0  0  0  0  0
  129.2550  127.2350   70.8600 C   0  0  0  0  0  0  0  0  0  0  0  0
  129.5480  127.5400   69.3870 C   0  0  0  0  0  0  0  0  0  0  0  0
  129.6440  126.4400   68.6350 F   0  0  0  0  0  0  0  0  0  0  0  0
  128.5690  128.2860   68.8770 F   0  0  0  0  0  0  0  0  0  0  0  0
  130.7030  128.1980   69.2830 F   0  0  0  0  0  0  0  0  0  0  0  0
  129.0000  128.2290   71.8500 C   0  0  0  0  0  0  0  0  0  0  0  0
  128.9450  129.6700   71.8040 C   0  0  0  0  0  0  0  0  0  0  0  0
  129.1690  130.3830   70.6530 N   0  0  0  0  0  0  0  0  0  0  0  0
  130.7460  134.5310   72.7550 N   0  0  0  0  0  0  0  0  0  0  0  0
  132.5729  137.1804   72.8306 H   0  0  0  0  0  0  0  0  0  0  0  0
  132.4359  135.9172   71.5609 H   0  0  0  0  0  0  0  0  0  0  0  0
  131.3096  137.3164   71.5609 H   0  0  0  0  0  0  0  0  0  0  0  0
  130.3957  137.5125   74.3662 H   0  0  0  0  0  0  0  0  0  0  0  0
  128.8261  136.1200   75.7493 H   0  0  0  0  0  0  0  0  0  0  0  0
  128.5135  133.6953   75.1874 H   0  0  0  0  0  0  0  0  0  0  0  0
  130.5000  131.8960   72.9920 H   0  0  0  0  0  0  0  0  0  0  0  0
  128.9445  124.0949   74.1675 H   0  0  0  0  0  0  0  0  0  0  0  0
  128.0385  123.6344   72.6864 H   0  0  0  0  0  0  0  0  0  0  0  0
  129.8346  123.6045   72.6864 H   0  0  0  0  0  0  0  0  0  0  0  0
  129.4283  125.0940   70.5475 H   0  0  0  0  0  0  0  0  0  0  0  0
  129.1590  129.9460   69.7430 H   0  0  0  0  0  0  0  0  0  0  0  0
  129.3590  131.3750   70.6800 H   0  0  0  0  0  0  0  0  0  0  0  0
  1  2  1  0
  2  3  2  0
  3  4  1  0
  4  5  2  0
  5  6  1  0
  6  7  1  0
  7  8  1  0
  8  9  2  0
  8 10  1  0
 10 11  1  0
 11 12  1  0
 12 13  2  0
 13 14  1  0
 14 15  1  0
 14 16  2  0
 16 17  1  0
 17 18  1  0
 18 19  1  0
 18 20  1  0
 18 21  1  0
 17 22  2  0
 22 23  1  0
 23 24  1  0
  6 25  2  0
 25  2  1  0
 23 10  2  0
 22 12  1  0
  1 26  1  0
  1 27  1  0
  1 28  1  0
  3 29  1  0
  4 30  1  0
  5 31  1  0
  7 32  1  0
 15 33  1  0
 15 34  1  0
 15 35  1  0
 16 36  1  0
 24 37  1  0
 24 38  1  0
M  END
>  <Binding energies>  (1) 
[-6.32]

>  <Ligand effiencies>  (1) 
[-0.22571428571428573]

>  <Interactions>  (1) 
["V-B:HIS:456:CE1:9041, V-A:GLU:543:CD:4908, V-A:GLU:543:CG:4907, V-A:HIS:456:CE1:4069, V-A:GLU:543:C:4902, V-B:HIS:456:CD2:9039, V-B:HIS:456:CG:9037, V-A:GLU:543:CB:4906, V-A:HIS:456:CD2:4067, V-B:TYR:484:CD1:9314, V-B:TYR:484:CE1:9316, H-B:LYS:547:NZ:9922, V-B:LYS:547:CE:9921, V-A:GLU:543:CA:4904, H-A:GLU:543:O:4903, V-B:TYR:484:CB:9312, V-B:TYR:484:C:9308"]

$$$$
4bf_Grossjean_2025
     RDKit          3D

 35 37  0  0  0  0  0  0  0  0999 V2000
  129.0660  124.3470   73.3100 C   0  0  0  0  0  0  0  0  0  0  0  0
  129.0470  125.7790   72.8040 C   0  0  0  0  0  0  0  0  0  0  0  0
  129.2290  126.0640   71.4530 C   0  0  0  0  0  0  0  0  0  0  0  0
  129.2130  127.3910   70.9990 C   0  0  0  0  0  0  0  0  0  0  0  0
  129.4200  127.6570   69.5040 C   0  0  0  0  0  0  0  0  0  0  0  0
  128.4860  128.4560   68.9810 F   0  0  0  0  0  0  0  0  0  0  0  0
  130.6010  128.2430   69.3090 F   0  0  0  0  0  0  0  0  0  0  0  0
  129.3830  126.5060   68.8320 F   0  0  0  0  0  0  0  0  0  0  0  0
  129.0050  128.4120   71.9740 C   0  0  0  0  0  0  0  0  0  0  0  0
  128.9290  129.8500   71.8890 C   0  0  0  0  0  0  0  0  0  0  0  0
  129.0590  130.5280   70.7030 N   0  0  0  0  0  0  0  0  0  0  0  0
  128.7070  130.4880   73.1200 C   0  0  0  0  0  0  0  0  0  0  0  0
  128.6090  131.9240   73.4010 C   0  0  0  0  0  0  0  0  0  0  0  0
  127.5450  132.4190   73.7710 O   0  0  0  0  0  0  0  0  0  0  0  0
  129.7570  132.6270   73.2370 N   0  0  0  0  0  0  0  0  0  0  0  0
  129.9880  134.0090   73.3740 C   0  0  0  0  0  0  0  0  0  0  0  0
  129.7260  134.7680   74.5280 C   0  0  0  0  0  0  0  0  0  0  0  0
  129.9890  136.1400   74.5260 C   0  0  0  0  0  0  0  0  0  0  0  0
  130.5040  136.7210   73.3670 C   0  0  0  0  0  0  0  0  0  0  0  0
  130.7580  136.0110   72.2390 N   0  0  0  0  0  0  0  0  0  0  0  0
  130.4980  134.6790   72.2550 C   0  0  0  0  0  0  0  0  0  0  0  0
  128.5900  129.3170   74.4320 S   0  0  0  0  0  0  0  0  0  0  0  0
  128.8310  127.9850   73.3270 C   0  0  0  0  0  0  0  0  0  0  0  0
  128.8460  126.7220   73.7530 N   0  0  0  0  0  0  0  0  0  0  0  0
  129.0660  124.3468   74.4100 H   0  0  0  0  0  0  0  0  0  0  0  0
  128.1748  123.8167   72.9432 H   0  0  0  0  0  0  0  0  0  0  0  0
  129.9709  123.8405   72.9432 H   0  0  0  0  0  0  0  0  0  0  0  0
  129.3863  125.2434   70.7376 H   0  0  0  0  0  0  0  0  0  0  0  0
  128.8890  130.0840   69.8120 H   0  0  0  0  0  0  0  0  0  0  0  0
  129.3290  131.5020   70.6820 H   0  0  0  0  0  0  0  0  0  0  0  0
  130.5740  132.0910   72.9870 H   0  0  0  0  0  0  0  0  0  0  0  0
  129.3164  134.2845   75.4271 H   0  0  0  0  0  0  0  0  0  0  0  0
  129.7939  136.7500   75.4204 H   0  0  0  0  0  0  0  0  0  0  0  0
  130.7131  137.8009   73.3676 H   0  0  0  0  0  0  0  0  0  0  0  0
  130.6979  134.0966   71.3435 H   0  0  0  0  0  0  0  0  0  0  0  0
  1  2  1  0
  2  3  2  0
  3  4  1  0
  4  5  1  0
  5  6  1  0
  5  7  1  0
  5  8  1  0
  4  9  2  0
  9 10  1  0
 10 11  1  0
 10 12  2  0
 12 13  1  0
 13 14  2  0
 13 15  1  0
 15 16  1  0
 16 17  2  0
 17 18  1  0
 18 19  2  0
 19 20  1  0
 20 21  2  0
 12 22  1  0
 22 23  1  0
 23 24  2  0
 24  2  1  0
 23  9  1  0
 21 16  1  0
  1 25  1  0
  1 26  1  0
  1 27  1  0
  3 28  1  0
 11 29  1  0
 11 30  1  0
 15 31  1  0
 17 32  1  0
 18 33  1  0
 19 34  1  0
 21 35  1  0
M  END
>  <Binding energies>  (1) 
[-5.87]

>  <Ligand effiencies>  (1) 
[-0.2174074074074074]

>  <Interactions>  (1) 
["V-B:HIS:456:CE1:9041, V-A:GLU:543:CD:4908, V-A:GLU:543:CG:4907, V-A:HIS:456:CE1:4069, V-A:GLU:543:C:4902, V-B:HIS:456:CD2:9039, V-B:HIS:456:CG:9037, V-A:GLU:543:CB:4906, V-A:HIS:456:CD2:4067, V-B:TYR:484:CD1:9314, V-B:TYR:484:CE1:9316, H-B:LYS:547:NZ:9922, V-B:LYS:547:CE:9921, V-A:GLU:543:CA:4904, H-A:GLU:543:O:4903, V-B:TYR:484:CG:9313, V-B:TYR:484:CB:9312, V-B:TYR:484:C:9308, V-B:TYR:484:CA:9310, H-B:TYR:484:N:9311, H-B:SER:483:OG:9305"]

$$$$
4bg_Grossjean_2025
     RDKit          3D

 39 41  0  0  0  0  0  0  0  0999 V2000
  134.7820  125.4550   66.5010 C   0  0  0  0  0  0  0  0  0  0  0  0
  133.4500  125.1840   65.8260 C   0  0  0  0  0  0  0  0  0  0  0  0
  132.2720  125.7470   66.3110 C   0  0  0  0  0  0  0  0  0  0  0  0
  131.0450  125.4830   65.6810 C   0  0  0  0  0  0  0  0  0  0  0  0
  129.7760  126.1240   66.2510 C   0  0  0  0  0  0  0  0  0  0  0  0
  130.0290  127.0290   67.2000 F   0  0  0  0  0  0  0  0  0  0  0  0
  129.1070  126.7430   65.2780 F   0  0  0  0  0  0  0  0  0  0  0  0
  129.0000  125.1860   66.7920 F   0  0  0  0  0  0  0  0  0  0  0  0
  131.0700  124.6280   64.5390 C   0  0  0  0  0  0  0  0  0  0  0  0
  130.0390  124.1370   63.6590 C   0  0  0  0  0  0  0  0  0  0  0  0
  128.7130  124.4530   63.8180 N   0  0  0  0  0  0  0  0  0  0  0  0
  130.5130  123.3170   62.6230 C   0  0  0  0  0  0  0  0  0  0  0  0
  129.7510  122.6310   61.5800 C   0  0  0  0  0  0  0  0  0  0  0  0
  129.9760  121.4570   61.2850 O   0  0  0  0  0  0  0  0  0  0  0  0
  128.7690  123.3510   60.9980 N   0  0  0  0  0  0  0  0  0  0  0  0
  127.8920  122.8780   59.9260 C   0  0  0  0  0  0  0  0  0  0  0  0
  126.4710  123.4170   60.0190 C   0  0  0  0  0  0  0  0  0  0  0  0
  125.7330  123.6560   58.8550 C   0  0  0  0  0  0  0  0  0  0  0  0
  124.4210  124.1110   58.9450 C   0  0  0  0  0  0  0  0  0  0  0  0
  123.8440  124.3140   60.1960 C   0  0  0  0  0  0  0  0  0  0  0  0
  124.5660  124.0610   61.3600 C   0  0  0  0  0  0  0  0  0  0  0  0
  125.8800  123.6070   61.2720 C   0  0  0  0  0  0  0  0  0  0  0  0
  132.2570  123.0950   62.7290 S   0  0  0  0  0  0  0  0  0  0  0  0
  132.3460  124.1220   64.1400 C   0  0  0  0  0  0  0  0  0  0  0  0
  133.5070  124.3740   64.7440 N   0  0  0  0  0  0  0  0  0  0  0  0
  134.6518  125.4285   67.5929 H   0  0  0  0  0  0  0  0  0  0  0  0
  135.5089  124.6863   66.1996 H   0  0  0  0  0  0  0  0  0  0  0  0
  135.1508  126.4466   66.1996 H   0  0  0  0  0  0  0  0  0  0  0  0
  132.3030  126.4029   67.1935 H   0  0  0  0  0  0  0  0  0  0  0  0
  128.0110  123.7460   63.9800 H   0  0  0  0  0  0  0  0  0  0  0  0
  128.3920  125.4100   63.7680 H   0  0  0  0  0  0  0  0  0  0  0  0
  128.6930  124.3300   61.2320 H   0  0  0  0  0  0  0  0  0  0  0  0
  128.3204  123.1911   58.9625 H   0  0  0  0  0  0  0  0  0  0  0  0
  127.8289  121.7838   60.0197 H   0  0  0  0  0  0  0  0  0  0  0  0
  126.1895  123.4844   57.8690 H   0  0  0  0  0  0  0  0  0  0  0  0
  123.8418  124.3096   58.0312 H   0  0  0  0  0  0  0  0  0  0  0  0
  122.8082  124.6776   60.2656 H   0  0  0  0  0  0  0  0  0  0  0  0
  124.1007  124.2190   62.3442 H   0  0  0  0  0  0  0  0  0  0  0  0
  126.4525  123.3980   62.1878 H   0  0  0  0  0  0  0  0  0  0  0  0
  1  2  1  0
  2  3  2  0
  3  4  1  0
  4  5  1  0
  5  6  1  0
  5  7  1  0
  5  8  1  0
  4  9  2  0
  9 10  1  0
 10 11  1  0
 10 12  2  0
 12 13  1  0
 13 14  2  0
 13 15  1  0
 15 16  1  0
 16 17  1  0
 17 18  2  0
 18 19  1  0
 19 20  2  0
 20 21  1  0
 21 22  2  0
 12 23  1  0
 23 24  1  0
 24 25  2  0
 25  2  1  0
 24  9  1  0
 22 17  1  0
  1 26  1  0
  1 27  1  0
  1 28  1  0
  3 29  1  0
 11 30  1  0
 11 31  1  0
 15 32  1  0
 16 33  1  0
 16 34  1  0
 18 35  1  0
 19 36  1  0
 20 37  1  0
 21 38  1  0
 22 39  1  0
M  END
>  <Binding energies>  (1) 
[-6.43]

>  <Ligand effiencies>  (1) 
[-0.22964285714285712]

>  <Interactions>  (1) 
["V-B:ASP:366:CG:8184, V-A:ARG:545:CZ:4926, V-B:GLU:543:CD:9879, V-A:GLU:543:CD:4908, V-A:GLY:453:CA:4043, V-A:GLY:454:CA:4048, V-A:HIS:456:CE1:4069, V-B:ALA:541:CB:9863, V-A:ARG:545:CG:4922, V-B:GLU:543:CG:9878, V-B:GLU:543:CB:9877, H-B:GLU:543:OE2:9881, H-B:GLU:543:OE1:9880, H-A:TYR:484:OH:4347, V-B:PRO:540:CA:9854, H-A:GLY:454:N:4049, V-B:PRO:540:CB:9856, V-A:ARG:545:CD:4923, V-B:LEU:363:CA:8156, V-A:GLY:453:C:4041, V-B:ASN:362:CB:8147, V-B:GLU:543:CA:9875, V-B:ASN:362:C:8143"]

$$$$
4bh_Grossjean_2025
     RDKit          3D

 51 53  0  0  0  0  0  0  0  0999 V2000
  128.9820  123.5900   73.2240 C   0  0  0  0  0  0  0  0  0  0  0  0
  128.9650  124.9610   73.6070 O   0  0  0  0  0  0  0  0  0  0  0  0
  129.2000  125.9350   72.6530 C   0  0  0  0  0  0  0  0  0  0  0  0
  128.6670  125.9050   71.3550 C   0  0  0  0  0  0  0  0  0  0  0  0
  128.9470  126.9220   70.4420 C   0  0  0  0  0  0  0  0  0  0  0  0
  128.3230  126.8960   69.0520 C   0  0  0  0  0  0  0  0  0  0  0  0
  129.2320  126.4110   68.0130 N   0  0  0  0  0  0  0  0  0  0  0  0
  129.5550  125.1190   67.7970 C   0  0  0  0  0  0  0  0  0  0  0  0
  129.1300  124.2030   68.5040 O   0  0  0  0  0  0  0  0  0  0  0  0
  130.4820  124.8630   66.6940 C   0  0  0  0  0  0  0  0  0  0  0  0
  131.8990  125.8860   66.4790 S   0  0  0  0  0  0  0  0  0  0  0  0
  132.3750  125.0000   65.0490 C   0  0  0  0  0  0  0  0  0  0  0  0
  133.4740  125.3190   64.3670 N   0  0  0  0  0  0  0  0  0  0  0  0
  133.7390  124.5600   63.2790 C   0  0  0  0  0  0  0  0  0  0  0  0
  134.9950  124.9420   62.5160 C   0  0  0  0  0  0  0  0  0  0  0  0
  132.9410  123.4980   62.8620 C   0  0  0  0  0  0  0  0  0  0  0  0
  131.7810  123.1580   63.5750 C   0  0  0  0  0  0  0  0  0  0  0  0
  130.9360  121.9800   63.0800 C   0  0  0  0  0  0  0  0  0  0  0  0
  129.7780  122.3590   62.5350 F   0  0  0  0  0  0  0  0  0  0  0  0
  131.6090  121.3000   62.1520 F   0  0  0  0  0  0  0  0  0  0  0  0
  130.6520  121.1690   64.0990 F   0  0  0  0  0  0  0  0  0  0  0  0
  131.4700  123.9410   64.7260 C   0  0  0  0  0  0  0  0  0  0  0  0
  130.3890  123.8970   65.6800 C   0  0  0  0  0  0  0  0  0  0  0  0
  129.3680  122.9850   65.6040 N   0  0  0  0  0  0  0  0  0  0  0  0
  129.7450  127.9980   70.8350 C   0  0  0  0  0  0  0  0  0  0  0  0
  130.2980  128.0510   72.1240 C   0  0  0  0  0  0  0  0  0  0  0  0
  131.1070  129.0780   72.5770 O   0  0  0  0  0  0  0  0  0  0  0  0
  130.5120  130.3010   72.9970 C   0  0  0  0  0  0  0  0  0  0  0  0
  130.0210  127.0100   73.0220 C   0  0  0  0  0  0  0  0  0  0  0  0
  130.5410  127.0580   74.2940 O   0  0  0  0  0  0  0  0  0  0  0  0
  131.5460  126.0850   74.5450 C   0  0  0  0  0  0  0  0  0  0  0  0
  128.9898  122.9579   74.1242 H   0  0  0  0  0  0  0  0  0  0  0  0
  128.0866  123.3652   72.6259 H   0  0  0  0  0  0  0  0  0  0  0  0
  129.8827  123.3875   72.6259 H   0  0  0  0  0  0  0  0  0  0  0  0
  128.0197  125.0683   71.0535 H   0  0  0  0  0  0  0  0  0  0  0  0
  127.4417  126.2383   69.0783 H   0  0  0  0  0  0  0  0  0  0  0  0
  128.0621  127.9333   68.7951 H   0  0  0  0  0  0  0  0  0  0  0  0
  129.5490  127.0990   67.3450 H   0  0  0  0  0  0  0  0  0  0  0  0
  135.7969  125.1859   63.2284 H   0  0  0  0  0  0  0  0  0  0  0  0
  135.3103  124.0991   61.8834 H   0  0  0  0  0  0  0  0  0  0  0  0
  134.7877  125.8177   61.8834 H   0  0  0  0  0  0  0  0  0  0  0  0
  133.2215  122.9218   61.9680 H   0  0  0  0  0  0  0  0  0  0  0  0
  128.8010  122.7500   66.4080 H   0  0  0  0  0  0  0  0  0  0  0  0
  129.1520  122.5090   64.7400 H   0  0  0  0  0  0  0  0  0  0  0  0
  129.9429  128.8148   70.1253 H   0  0  0  0  0  0  0  0  0  0  0  0
  130.4926  130.3409   74.0961 H   0  0  0  0  0  0  0  0  0  0  0  0
  131.0994  131.1465   72.6097 H   0  0  0  0  0  0  0  0  0  0  0  0
  129.4842  130.3607   72.6097 H   0  0  0  0  0  0  0  0  0  0  0  0
  131.6737  125.9614   75.6305 H   0  0  0  0  0  0  0  0  0  0  0  0
  131.2464  125.1250   74.0994 H   0  0  0  0  0  0  0  0  0  0  0  0
  132.4958  126.4155   74.0994 H   0  0  0  0  0  0  0  0  0  0  0  0
  1  2  1  0
  2  3  1  0
  3  4  2  0
  4  5  1  0
  5  6  1  0
  6  7  1  0
  7  8  1  0
  8  9  2  0
  8 10  1  0
 10 11  1  0
 11 12  1  0
 12 13  2  0
 13 14  1  0
 14 15  1  0
 14 16  2  0
 16 17  1  0
 17 18  1  0
 18 19  1  0
 18 20  1  0
 18 21  1  0
 17 22  2  0
 22 23  1  0
 23 24  1  0
  5 25  2  0
 25 26  1  0
 26 27  1  0
 27 28  1  0
 26 29  2  0
 29 30  1  0
 30 31  1  0
 29  3  1  0
 23 10  2  0
 22 12  1  0
  1 32  1  0
  1 33  1  0
  1 34  1  0
  4 35  1  0
  6 36  1  0
  6 37  1  0
  7 38  1  0
 15 39  1  0
 15 40  1  0
 15 41  1  0
 16 42  1  0
 24 43  1  0
 24 44  1  0
 25 45  1  0
 28 46  1  0
 28 47  1  0
 28 48  1  0
 31 49  1  0
 31 50  1  0
 31 51  1  0
M  END
>  <Binding energies>  (1) 
[-6.08]

>  <Ligand effiencies>  (1) 
[-0.17882352941176471]

>  <Interactions>  (1) 
["V-B:HIS:456:CE1:9041, V-B:GLU:543:CD:9879, V-A:ASP:366:CG:3212, V-A:LEU:475:CD2:4258, V-A:TYR:484:CZ:4346, V-A:ILE:369:CD1:3238, V-A:GLY:453:CA:4043, H-A:ARG:545:NH2:4928, V-A:HIS:456:CE1:4069, V-A:GLU:543:C:4902, V-A:HIS:456:CG:4065, V-A:GLY:544:C:4912, V-A:HIS:456:CD2:4067, V-B:ALA:541:CB:9863, V-B:GLU:543:CG:9878, V-B:GLU:543:CB:9877, H-B:LYS:547:NZ:9922, V-B:LYS:547:CE:9921, V-A:HIS:456:CB:4064, H-A:LYS:547:NZ:4951, V-A:LYS:547:CE:4950, H-A:ARG:545:NE:4924, H-A:GLY:454:N:4049, V-A:LEU:475:CD1:4257, H-A:GLU:543:OE2:4910, H-A:ARG:545:NH1:4927, V-A:GLY:453:C:4041, V-A:TYR:484:CE1:4344, V-B:GLU:543:CA:9875, V-A:LEU:475:CG:4256"]

$$$$
4bi_Grossjean_2025
     RDKit          3D

 32 34  0  0  0  0  0  0  0  0999 V2000
  134.4480  120.9890   62.4910 C   0  0  0  0  0  0  0  0  0  0  0  0
  133.1360  121.7460   62.5860 C   0  0  0  0  0  0  0  0  0  0  0  0
  132.9470  122.7370   63.5450 C   0  0  0  0  0  0  0  0  0  0  0  0
  131.7290  123.4330   63.6190 C   0  0  0  0  0  0  0  0  0  0  0  0
  131.5710  124.5210   64.6860 C   0  0  0  0  0  0  0  0  0  0  0  0
  131.3760  125.7360   64.1690 F   0  0  0  0  0  0  0  0  0  0  0  0
  130.5220  124.2440   65.4610 F   0  0  0  0  0  0  0  0  0  0  0  0
  132.6710  124.5790   65.4380 F   0  0  0  0  0  0  0  0  0  0  0  0
  130.7160  123.0750   62.6800 C   0  0  0  0  0  0  0  0  0  0  0  0
  129.3740  123.5520   62.4560 C   0  0  0  0  0  0  0  0  0  0  0  0
  128.8010  124.5400   63.2160 N   0  0  0  0  0  0  0  0  0  0  0  0
  128.7100  122.9210   61.3910 C   0  0  0  0  0  0  0  0  0  0  0  0
  127.3470  123.1460   60.9010 C   0  0  0  0  0  0  0  0  0  0  0  0
  126.4050  123.2530   61.6890 O   0  0  0  0  0  0  0  0  0  0  0  0
  127.2210  123.2430   59.5540 N   0  0  0  0  0  0  0  0  0  0  0  0
  126.0590  123.4650   58.8270 C   0  0  0  0  0  0  0  0  0  0  0  0
  125.0750  124.3710   59.2220 C   0  0  0  0  0  0  0  0  0  0  0  0
  124.1060  124.2940   58.2480 C   0  0  0  0  0  0  0  0  0  0  0  0
  124.4860  123.3890   57.3150 O   0  0  0  0  0  0  0  0  0  0  0  0
  125.7260  122.8700   57.6940 N   0  0  0  0  0  0  0  0  0  0  0  0
  129.7290  121.6920   60.6440 S   0  0  0  0  0  0  0  0  0  0  0  0
  131.0390  122.0420   61.7470 C   0  0  0  0  0  0  0  0  0  0  0  0
  132.1970  121.3860   61.6810 N   0  0  0  0  0  0  0  0  0  0  0  0
  134.8212  120.7737   63.5031 H   0  0  0  0  0  0  0  0  0  0  0  0
  134.2880  120.0444   61.9505 H   0  0  0  0  0  0  0  0  0  0  0  0
  135.1857  121.6003   61.9505 H   0  0  0  0  0  0  0  0  0  0  0  0
  133.7569  122.9768   64.2497 H   0  0  0  0  0  0  0  0  0  0  0  0
  129.3560  125.1650   63.7850 H   0  0  0  0  0  0  0  0  0  0  0  0
  127.8000  124.6740   63.2380 H   0  0  0  0  0  0  0  0  0  0  0  0
  128.0650  123.1530   59.0060 H   0  0  0  0  0  0  0  0  0  0  0  0
  125.0738  125.0090   60.1181 H   0  0  0  0  0  0  0  0  0  0  0  0
  123.1720  124.8748   58.2301 H   0  0  0  0  0  0  0  0  0  0  0  0
  1  2  1  0
  2  3  2  0
  3  4  1  0
  4  5  1  0
  5  6  1  0
  5  7  1  0
  5  8  1  0
  4  9  2  0
  9 10  1  0
 10 11  1  0
 10 12  2  0
 12 13  1  0
 13 14  2  0
 13 15  1  0
 15 16  1  0
 16 17  1  0
 17 18  2  0
 18 19  1  0
 19 20  1  0
 12 21  1  0
 21 22  1  0
 22 23  2  0
 23  2  1  0
 22  9  1  0
 20 16  2  0
  1 24  1  0
  1 25  1  0
  1 26  1  0
  3 27  1  0
 11 28  1  0
 11 29  1  0
 15 30  1  0
 17 31  1  0
 18 32  1  0
M  END
>  <Binding energies>  (1) 
[-5.56]

>  <Ligand effiencies>  (1) 
[-0.21384615384615382]

>  <Interactions>  (1) 
["V-B:GLU:543:CD:9879, V-A:LEU:475:CD2:4258, V-A:TYR:484:CZ:4346, V-A:ILE:369:CD1:3238, V-A:GLY:454:CA:4048, V-B:TYR:539:CD2:9845, V-A:ILE:369:CG2:3236, V-B:TYR:539:CE2:9847, V-B:ALA:541:CB:9863, V-B:GLU:543:CG:9878, H-B:GLU:543:OE2:9881, V-B:PRO:540:C:9852, V-A:SER:385:C:3404, V-B:PRO:540:N:9855, V-B:PRO:540:CA:9854, H-B:ALA:541:N:9862, V-B:PRO:540:CB:9856, V-B:LEU:363:CA:8156, V-B:LEU:363:CD1:8160, V-A:ILE:369:CG1:3237"]

$$$$
4bj_Grossjean_2025
     RDKit          3D

 32 34  0  0  0  0  0  0  0  0999 V2000
  134.2620  120.7540   62.1020 C   0  0  0  0  0  0  0  0  0  0  0  0
  132.9940  121.5660   62.2970 C   0  0  0  0  0  0  0  0  0  0  0  0
  132.9030  122.5250   63.3020 C   0  0  0  0  0  0  0  0  0  0  0  0
  131.7220  123.2640   63.4750 C   0  0  0  0  0  0  0  0  0  0  0  0
  131.6690  124.3070   64.5970 C   0  0  0  0  0  0  0  0  0  0  0  0
  130.7480  124.0310   65.5220 F   0  0  0  0  0  0  0  0  0  0  0  0
  132.8490  124.3680   65.2120 F   0  0  0  0  0  0  0  0  0  0  0  0
  131.3760  125.5030   64.0850 F   0  0  0  0  0  0  0  0  0  0  0  0
  130.6440  122.9880   62.5830 C   0  0  0  0  0  0  0  0  0  0  0  0
  129.3100  123.5250   62.4580 C   0  0  0  0  0  0  0  0  0  0  0  0
  128.8250  124.5030   63.2890 N   0  0  0  0  0  0  0  0  0  0  0  0
  128.5620  122.9650   61.4110 C   0  0  0  0  0  0  0  0  0  0  0  0
  127.1850  123.2660   61.0100 C   0  0  0  0  0  0  0  0  0  0  0  0
  126.2680  123.2390   61.8340 O   0  0  0  0  0  0  0  0  0  0  0  0
  127.0140  123.5810   59.7030 N   0  0  0  0  0  0  0  0  0  0  0  0
  125.8230  123.9150   59.0740 C   0  0  0  0  0  0  0  0  0  0  0  0
  124.7000  124.3170   59.6300 N   0  0  0  0  0  0  0  0  0  0  0  0
  123.7690  124.5540   58.7280 C   0  0  0  0  0  0  0  0  0  0  0  0
  124.1300  124.3420   57.4020 C   0  0  0  0  0  0  0  0  0  0  0  0
  125.7810  123.8010   57.3440 S   0  0  0  0  0  0  0  0  0  0  0  0
  129.4830  121.7300   60.5560 S   0  0  0  0  0  0  0  0  0  0  0  0
  130.8680  121.9820   61.5930 C   0  0  0  0  0  0  0  0  0  0  0  0
  131.9900  121.2810   61.4350 N   0  0  0  0  0  0  0  0  0  0  0  0
  134.6804  120.4861   63.0834 H   0  0  0  0  0  0  0  0  0  0  0  0
  134.0278  119.8375   61.5407 H   0  0  0  0  0  0  0  0  0  0  0  0
  134.9965  121.3502   61.5407 H   0  0  0  0  0  0  0  0  0  0  0  0
  133.7622  122.7049   63.9649 H   0  0  0  0  0  0  0  0  0  0  0  0
  129.4230  125.0110   63.9240 H   0  0  0  0  0  0  0  0  0  0  0  0
  127.8440  124.7460   63.2970 H   0  0  0  0  0  0  0  0  0  0  0  0
  127.8350  123.5830   59.1150 H   0  0  0  0  0  0  0  0  0  0  0  0
  122.7631  124.9000   59.0082 H   0  0  0  0  0  0  0  0  0  0  0  0
  123.4762  124.4924   56.5302 H   0  0  0  0  0  0  0  0  0  0  0  0
  1  2  1  0
  2  3  2  0
  3  4  1  0
  4  5  1  0
  5  6  1  0
  5  7  1  0
  5  8  1  0
  4  9  2  0
  9 10  1  0
 10 11  1  0
 10 12  2  0
 12 13  1  0
 13 14  2  0
 13 15  1  0
 15 16  1  0
 16 17  2  0
 17 18  1  0
 18 19  2  0
 19 20  1  0
 12 21  1  0
 21 22  1  0
 22 23  2  0
 23  2  1  0
 22  9  1  0
 20 16  1  0
  1 24  1  0
  1 25  1  0
  1 26  1  0
  3 27  1  0
 11 28  1  0
 11 29  1  0
 15 30  1  0
 18 31  1  0
 19 32  1  0
M  END
>  <Binding energies>  (1) 
[-5.64]

>  <Ligand effiencies>  (1) 
[-0.2169230769230769]

>  <Interactions>  (1) 
["V-B:ASP:366:CG:8184, V-B:GLU:543:CD:9879, V-A:LEU:475:CD2:4258, V-A:TYR:484:CZ:4346, V-A:ILE:369:CD1:3238, V-A:GLY:454:CA:4048, V-B:TYR:539:CD2:9845, V-A:ILE:369:CG2:3236, V-B:TYR:539:CE2:9847, V-B:ALA:541:CB:9863, V-B:GLU:543:CG:9878, H-B:GLU:543:OE2:9881, V-B:ASP:366:CB:8183, V-A:SER:385:C:3404, V-B:PRO:540:CA:9854, H-B:ALA:541:N:9862, V-B:PRO:540:CB:9856, V-B:LEU:363:CA:8156, V-A:TYR:484:CE1:4344, V-B:LEU:363:CD1:8160, V-A:ILE:369:CG1:3237, V-B:ASN:362:C:8143, V-B:TYR:531:CE2:9764, V-B:LEU:363:CB:8158, V-B:TYR:531:CZ:9765"]

$$$$
4bk_Grossjean_2025
     RDKit          3D

 50 51  0  0  0  0  0  0  0  0999 V2000
  128.5640  125.1630   71.9840 C   0  0  0  0  0  0  0  0  0  0  0  0
  128.6540  125.6190   73.3250 O   0  0  0  0  0  0  0  0  0  0  0  0
  129.2540  126.9020   73.4470 C   0  0  0  0  0  0  0  0  0  0  0  0
  130.7260  126.8220   73.0220 C   0  0  0  0  0  0  0  0  0  0  0  0
  131.2550  128.1350   72.9040 O   0  0  0  0  0  0  0  0  0  0  0  0
  131.7190  128.4510   71.5980 C   0  0  0  0  0  0  0  0  0  0  0  0
  130.6320  129.2280   70.8450 C   0  0  0  0  0  0  0  0  0  0  0  0
  129.6120  128.3290   70.4330 O   0  0  0  0  0  0  0  0  0  0  0  0
  130.0600  127.3280   69.5260 C   0  0  0  0  0  0  0  0  0  0  0  0
  129.3890  127.5420   68.1580 C   0  0  0  0  0  0  0  0  0  0  0  0
  129.8820  126.6420   67.1140 N   0  0  0  0  0  0  0  0  0  0  0  0
  129.8580  125.2940   67.1720 C   0  0  0  0  0  0  0  0  0  0  0  0
  129.3850  124.6830   68.1310 O   0  0  0  0  0  0  0  0  0  0  0  0
  130.4200  124.5900   66.0180 C   0  0  0  0  0  0  0  0  0  0  0  0
  129.7230  123.0610   65.4900 S   0  0  0  0  0  0  0  0  0  0  0  0
  130.8640  122.9460   64.1710 C   0  0  0  0  0  0  0  0  0  0  0  0
  130.8510  121.9150   63.3290 N   0  0  0  0  0  0  0  0  0  0  0  0
  131.7820  121.9370   62.3470 C   0  0  0  0  0  0  0  0  0  0  0  0
  131.7480  120.7530   61.3970 C   0  0  0  0  0  0  0  0  0  0  0  0
  132.7170  122.9570   62.1890 C   0  0  0  0  0  0  0  0  0  0  0  0
  132.7370  124.0460   63.0750 C   0  0  0  0  0  0  0  0  0  0  0  0
  133.7860  125.1430   62.8640 C   0  0  0  0  0  0  0  0  0  0  0  0
  134.5130  125.3870   63.9560 F   0  0  0  0  0  0  0  0  0  0  0  0
  134.6280  124.7810   61.8960 F   0  0  0  0  0  0  0  0  0  0  0  0
  133.1860  126.2820   62.5220 F   0  0  0  0  0  0  0  0  0  0  0  0
  131.7670  124.0540   64.1210 C   0  0  0  0  0  0  0  0  0  0  0  0
  131.4830  124.9800   65.1900 C   0  0  0  0  0  0  0  0  0  0  0  0
  132.1950  126.1370   65.3780 N   0  0  0  0  0  0  0  0  0  0  0  0
  128.3510  124.0838   71.9772 H   0  0  0  0  0  0  0  0  0  0  0  0
  127.7545  125.6998   71.4677 H   0  0  0  0  0  0  0  0  0  0  0  0
  129.5168  125.3520   71.4677 H   0  0  0  0  0  0  0  0  0  0  0  0
  128.7243  127.6172   72.8006 H   0  0  0  0  0  0  0  0  0  0  0  0
  129.1926  127.2370   74.4929 H   0  0  0  0  0  0  0  0  0  0  0  0
  131.2965  126.2631   73.7784 H   0  0  0  0  0  0  0  0  0  0  0  0
  130.8012  126.3071   72.0529 H   0  0  0  0  0  0  0  0  0  0  0  0
  132.6272  129.0674   71.6704 H   0  0  0  0  0  0  0  0  0  0  0  0
  131.9493  127.5223   71.0553 H   0  0  0  0  0  0  0  0  0  0  0  0
  130.2016  129.9933   71.5076 H   0  0  0  0  0  0  0  0  0  0  0  0
  131.0720  129.7154   69.9625 H   0  0  0  0  0  0  0  0  0  0  0  0
  131.1521  127.3963   69.4140 H   0  0  0  0  0  0  0  0  0  0  0  0
  129.7941  126.3339   69.9146 H   0  0  0  0  0  0  0  0  0  0  0  0
  128.3069  127.3810   68.2729 H   0  0  0  0  0  0  0  0  0  0  0  0
  129.6290  128.5669   67.8388 H   0  0  0  0  0  0  0  0  0  0  0  0
  130.2830  127.0830   66.3000 H   0  0  0  0  0  0  0  0  0  0  0  0
  131.7212  119.8185   61.9766 H   0  0  0  0  0  0  0  0  0  0  0  0
  130.8513  120.8172   60.7631 H   0  0  0  0  0  0  0  0  0  0  0  0
  132.6469  120.7656   60.7631 H   0  0  0  0  0  0  0  0  0  0  0  0
  133.4442  122.9092   61.3651 H   0  0  0  0  0  0  0  0  0  0  0  0
  133.2050  126.1400   65.4360 H   0  0  0  0  0  0  0  0  0  0  0  0
  131.7320  127.0310   65.4590 H   0  0  0  0  0  0  0  0  0  0  0  0
  1  2  1  0
  2  3  1  0
  3  4  1  0
  4  5  1  0
  5  6  1  0
  6  7  1  0
  7  8  1  0
  8  9  1  0
  9 10  1  0
 10 11  1  0
 11 12  1  0
 12 13  2  0
 12 14  1  0
 14 15  1  0
 15 16  1  0
 16 17  2  0
 17 18  1  0
 18 19  1  0
 18 20  2  0
 20 21  1  0
 21 22  1  0
 22 23  1  0
 22 24  1  0
 22 25  1  0
 21 26  2  0
 26 27  1  0
 27 28  1  0
 27 14  2  0
 26 16  1  0
  1 29  1  0
  1 30  1  0
  1 31  1  0
  3 32  1  0
  3 33  1  0
  4 34  1  0
  4 35  1  0
  6 36  1  0
  6 37  1  0
  7 38  1  0
  7 39  1  0
  9 40  1  0
  9 41  1  0
 10 42  1  0
 10 43  1  0
 11 44  1  0
 19 45  1  0
 19 46  1  0
 19 47  1  0
 20 48  1  0
 28 49  1  0
 28 50  1  0
M  END
>  <Binding energies>  (1) 
[-5.36]

>  <Ligand effiencies>  (1) 
[-0.17290322580645162]

>  <Interactions>  (1) 
["V-A:ARG:545:CZ:4926, V-B:GLU:543:CD:9879, V-A:ASP:366:CG:3212, V-A:LEU:475:CD2:4258, V-A:TYR:484:CZ:4346, V-A:GLU:543:CD:4908, V-A:ILE:369:CD1:3238, V-A:GLY:453:CA:4043, V-A:HIS:456:CE1:4069, V-A:GLU:543:C:4902, V-A:HIS:456:CG:4065, V-A:GLU:543:CB:4906, V-A:GLY:544:C:4912, V-A:HIS:456:CD2:4067, V-B:ALA:541:CB:9863, V-B:GLU:543:CG:9878, V-B:GLU:543:CB:9877, V-A:ARG:545:CA:4919, H-B:LYS:547:NZ:9922, H-A:LYS:547:NZ:4951, H-A:GLU:543:OE1:4909, H-A:GLU:543:OE2:4910, V-A:GLY:453:C:4041, V-A:TYR:484:CE1:4344"]

$$$$
4ca_Grossjean_2025
     RDKit          3D

 52 55  0  0  0  0  0  0  0  0999 V2000
  128.9760  123.1870   73.1470 C   0  0  0  0  0  0  0  0  0  0  0  0
  129.6550  124.1910   74.0830 C   0  0  0  0  0  0  0  0  0  0  0  0
  129.1380  125.4920   73.8370 O   0  0  0  0  0  0  0  0  0  0  0  0
  129.8910  126.4430   73.2260 C   0  0  0  0  0  0  0  0  0  0  0  0
  130.8540  126.9980   73.7650 O   0  0  0  0  0  0  0  0  0  0  0  0
  129.4380  126.7500   71.8280 C   0  0  0  0  0  0  0  0  0  0  0  0
  129.8630  127.9370   71.2160 C   0  0  0  0  0  0  0  0  0  0  0  0
  129.4620  128.2470   69.9200 C   0  0  0  0  0  0  0  0  0  0  0  0
  128.6260  127.3850   69.2120 C   0  0  0  0  0  0  0  0  0  0  0  0
  128.2910  127.7930   67.9060 N   0  0  0  0  0  0  0  0  0  0  0  0
  128.0510  129.0330   67.4130 C   0  0  0  0  0  0  0  0  0  0  0  0
  128.1420  130.0680   68.0730 O   0  0  0  0  0  0  0  0  0  0  0  0
  127.6810  129.0820   65.9960 C   0  0  0  0  0  0  0  0  0  0  0  0
  126.4100  130.1730   65.4500 S   0  0  0  0  0  0  0  0  0  0  0  0
  126.6330  129.6720   63.7900 C   0  0  0  0  0  0  0  0  0  0  0  0
  125.9010  130.1890   62.8060 N   0  0  0  0  0  0  0  0  0  0  0  0
  126.1550  129.7500   61.5460 C   0  0  0  0  0  0  0  0  0  0  0  0
  125.3200  130.3580   60.4570 C   0  0  0  0  0  0  0  0  0  0  0  0
  125.6360  130.1460   59.1050 C   0  0  0  0  0  0  0  0  0  0  0  0
  124.8680  130.7120   58.0910 C   0  0  0  0  0  0  0  0  0  0  0  0
  123.7690  131.5020   58.4140 C   0  0  0  0  0  0  0  0  0  0  0  0
  123.4350  131.7290   59.7450 C   0  0  0  0  0  0  0  0  0  0  0  0
  124.2050  131.1620   60.7570 C   0  0  0  0  0  0  0  0  0  0  0  0
  127.1270  128.7780   61.2840 C   0  0  0  0  0  0  0  0  0  0  0  0
  127.9010  128.2240   62.3160 C   0  0  0  0  0  0  0  0  0  0  0  0
  128.9510  127.1660   61.9570 C   0  0  0  0  0  0  0  0  0  0  0  0
  128.7400  125.9940   62.5590 F   0  0  0  0  0  0  0  0  0  0  0  0
  128.9410  126.9470   60.6430 F   0  0  0  0  0  0  0  0  0  0  0  0
  130.1610  127.5890   62.3240 F   0  0  0  0  0  0  0  0  0  0  0  0
  127.6550  128.6910   63.6390 C   0  0  0  0  0  0  0  0  0  0  0  0
  128.2390  128.3730   64.9190 C   0  0  0  0  0  0  0  0  0  0  0  0
  129.2490  127.4570   65.0650 N   0  0  0  0  0  0  0  0  0  0  0  0
  128.1990  126.1920   69.8140 C   0  0  0  0  0  0  0  0  0  0  0  0
  128.6020  125.8820   71.1100 C   0  0  0  0  0  0  0  0  0  0  0  0
  128.4583  122.4215   73.7437 H   0  0  0  0  0  0  0  0  0  0  0  0
  128.2470  123.7123   72.5125 H   0  0  0  0  0  0  0  0  0  0  0  0
  129.7350  122.7060   72.5125 H   0  0  0  0  0  0  0  0  0  0  0  0
  129.4579  123.9095   75.1280 H   0  0  0  0  0  0  0  0  0  0  0  0
  130.7398  124.1868   73.9008 H   0  0  0  0  0  0  0  0  0  0  0  0
  130.5188  128.6292   71.7645 H   0  0  0  0  0  0  0  0  0  0  0  0
  129.8075  129.1798   69.4504 H   0  0  0  0  0  0  0  0  0  0  0  0
  128.2350  127.0370   67.2400 H   0  0  0  0  0  0  0  0  0  0  0  0
  126.5039  129.5230   58.8432 H   0  0  0  0  0  0  0  0  0  0  0  0
  125.1293  130.5351   57.0372 H   0  0  0  0  0  0  0  0  0  0  0  0
  123.1617  131.9490   57.6132 H   0  0  0  0  0  0  0  0  0  0  0  0
  122.5657  132.3542   59.9971 H   0  0  0  0  0  0  0  0  0  0  0  0
  123.9373  131.3456   61.8080 H   0  0  0  0  0  0  0  0  0  0  0  0
  127.2878  128.4414   60.2492 H   0  0  0  0  0  0  0  0  0  0  0  0
  129.0700  126.4630   65.0850 H   0  0  0  0  0  0  0  0  0  0  0  0
  130.2140  127.7470   65.1560 H   0  0  0  0  0  0  0  0  0  0  0  0
  127.5453  125.5010   69.2616 H   0  0  0  0  0  0  0  0  0  0  0  0
  128.2610  124.9459   71.5763 H   0  0  0  0  0  0  0  0  0  0  0  0
  1  2  1  0
  2  3  1  0
  3  4  1  0
  4  5  2  0
  4  6  1  0
  6  7  2  0
  7  8  1  0
  8  9  2  0
  9 10  1  0
 10 11  1  0
 11 12  2  0
 11 13  1  0
 13 14  1  0
 14 15  1  0
 15 16  2  0
 16 17  1  0
 17 18  1  0
 18 19  2  0
 19 20  1  0
 20 21  2  0
 21 22  1  0
 22 23  2  0
 17 24  2  0
 24 25  1  0
 25 26  1  0
 26 27  1  0
 26 28  1  0
 26 29  1  0
 25 30  2  0
 30 31  1  0
 31 32  1  0
  9 33  1  0
 33 34  2  0
 34  6  1  0
 31 13  2  0
 30 15  1  0
 23 18  1  0
  1 35  1  0
  1 36  1  0
  1 37  1  0
  2 38  1  0
  2 39  1  0
  7 40  1  0
  8 41  1  0
 10 42  1  0
 19 43  1  0
 20 44  1  0
 21 45  1  0
 22 46  1  0
 23 47  1  0
 24 48  1  0
 32 49  1  0
 32 50  1  0
 33 51  1  0
 34 52  1  0
M  END
>  <Binding energies>  (1) 
[-7.2]

>  <Ligand effiencies>  (1) 
[-0.1945945945945946]

>  <Interactions>  (1) 
["V-B:ASP:366:CG:8184, V-B:HIS:456:CE1:9041, V-B:GLU:543:CD:9879, V-B:ILE:369:CB:8207, V-A:GLU:543:CD:4908, V-B:ILE:369:CD1:8210, V-A:GLU:543:CG:4907, V-B:ILE:369:CG2:8208, V-A:TYR:539:CE2:4876, V-A:HIS:456:CE1:4069, V-A:GLU:543:CB:4906, V-A:HIS:456:CD2:4067, V-B:GLU:543:CB:9877, H-B:GLU:543:OE2:9881, V-B:ASP:366:CB:8183, H-B:GLU:543:OE1:9880, H-B:LYS:547:NZ:9922, V-B:LYS:547:CE:9921, H-B:TYR:484:OH:9319, H-A:LYS:547:NZ:4951, H-A:GLU:543:OE1:4909, H-A:GLU:543:OE2:4910, V-B:ASP:366:CA:8181, V-B:ASP:366:C:8179"]

$$$$
4cb_Grossjean_2025
     RDKit          3D

 49 52  0  0  0  0  0  0  0  0999 V2000
  129.4800  124.2140   73.9470 C   0  0  0  0  0  0  0  0  0  0  0  0
  129.0930  125.5790   73.8670 O   0  0  0  0  0  0  0  0  0  0  0  0
  129.8740  126.4900   73.2320 C   0  0  0  0  0  0  0  0  0  0  0  0
  130.8620  127.0200   73.7500 O   0  0  0  0  0  0  0  0  0  0  0  0
  129.4180  126.7910   71.8320 C   0  0  0  0  0  0  0  0  0  0  0  0
  129.7630  128.0170   71.2490 C   0  0  0  0  0  0  0  0  0  0  0  0
  129.3620  128.3220   69.9510 C   0  0  0  0  0  0  0  0  0  0  0  0
  128.6030  127.4130   69.2140 C   0  0  0  0  0  0  0  0  0  0  0  0
  128.2650  127.8170   67.9080 N   0  0  0  0  0  0  0  0  0  0  0  0
  128.0140  129.0550   67.4150 C   0  0  0  0  0  0  0  0  0  0  0  0
  128.0950  130.0920   68.0750 O   0  0  0  0  0  0  0  0  0  0  0  0
  127.6450  129.1000   65.9980 C   0  0  0  0  0  0  0  0  0  0  0  0
  126.3800  130.1960   65.4450 S   0  0  0  0  0  0  0  0  0  0  0  0
  126.6000  129.6880   63.7870 C   0  0  0  0  0  0  0  0  0  0  0  0
  125.8710  130.2020   62.8000 N   0  0  0  0  0  0  0  0  0  0  0  0
  126.1210  129.7520   61.5430 C   0  0  0  0  0  0  0  0  0  0  0  0
  125.2870  130.3550   60.4500 C   0  0  0  0  0  0  0  0  0  0  0  0
  125.6160  130.1510   59.1000 C   0  0  0  0  0  0  0  0  0  0  0  0
  124.8480  130.7100   58.0810 C   0  0  0  0  0  0  0  0  0  0  0  0
  123.7370  131.4840   58.4000 C   0  0  0  0  0  0  0  0  0  0  0  0
  123.3900  131.7040   59.7290 C   0  0  0  0  0  0  0  0  0  0  0  0
  124.1610  131.1440   60.7440 C   0  0  0  0  0  0  0  0  0  0  0  0
  127.0880  128.7730   61.2870 C   0  0  0  0  0  0  0  0  0  0  0  0
  127.8590  128.2220   62.3210 C   0  0  0  0  0  0  0  0  0  0  0  0
  128.9030  127.1540   61.9710 C   0  0  0  0  0  0  0  0  0  0  0  0
  128.6850  125.9900   62.5860 F   0  0  0  0  0  0  0  0  0  0  0  0
  128.8850  126.9220   60.6580 F   0  0  0  0  0  0  0  0  0  0  0  0
  130.1160  127.5740   62.3270 F   0  0  0  0  0  0  0  0  0  0  0  0
  127.6160  128.6990   63.6420 C   0  0  0  0  0  0  0  0  0  0  0  0
  128.2010  128.3860   64.9230 C   0  0  0  0  0  0  0  0  0  0  0  0
  129.2090  127.4690   65.0730 N   0  0  0  0  0  0  0  0  0  0  0  0
  128.2550  126.1810   69.7890 C   0  0  0  0  0  0  0  0  0  0  0  0
  128.6590  125.8770   71.0860 C   0  0  0  0  0  0  0  0  0  0  0  0
  129.5639  123.9180   75.0031 H   0  0  0  0  0  0  0  0  0  0  0  0
  128.7237  123.5887   73.4499 H   0  0  0  0  0  0  0  0  0  0  0  0
  130.4519  124.0787   73.4499 H   0  0  0  0  0  0  0  0  0  0  0  0
  130.3560  128.7453   71.8217 H   0  0  0  0  0  0  0  0  0  0  0  0
  129.6456  129.2862   69.5038 H   0  0  0  0  0  0  0  0  0  0  0  0
  128.2130  127.0600   67.2420 H   0  0  0  0  0  0  0  0  0  0  0  0
  126.4940  129.5402   58.8432 H   0  0  0  0  0  0  0  0  0  0  0  0
  125.1190  130.5401   57.0285 H   0  0  0  0  0  0  0  0  0  0  0  0
  123.1290  131.9249   57.5962 H   0  0  0  0  0  0  0  0  0  0  0  0
  122.5110  132.3172   59.9767 H   0  0  0  0  0  0  0  0  0  0  0  0
  123.8846  131.3218   61.7937 H   0  0  0  0  0  0  0  0  0  0  0  0
  127.2464  128.4289   60.2543 H   0  0  0  0  0  0  0  0  0  0  0  0
  130.1750  127.7480   65.1740 H   0  0  0  0  0  0  0  0  0  0  0  0
  129.0200  126.4760   65.0920 H   0  0  0  0  0  0  0  0  0  0  0  0
  127.6621  125.4545   69.2140 H   0  0  0  0  0  0  0  0  0  0  0  0
  128.3802  124.9102   71.5305 H   0  0  0  0  0  0  0  0  0  0  0  0
  1  2  1  0
  2  3  1  0
  3  4  2  0
  3  5  1  0
  5  6  2  0
  6  7  1  0
  7  8  2  0
  8  9  1  0
  9 10  1  0
 10 11  2  0
 10 12  1  0
 12 13  1  0
 13 14  1  0
 14 15  2  0
 15 16  1  0
 16 17  1  0
 17 18  2  0
 18 19  1  0
 19 20  2  0
 20 21  1  0
 21 22  2  0
 16 23  2  0
 23 24  1  0
 24 25  1  0
 25 26  1  0
 25 27  1  0
 25 28  1  0
 24 29  2  0
 29 30  1  0
 30 31  1  0
  8 32  1  0
 32 33  2  0
 33  5  1  0
 30 12  2  0
 29 14  1  0
 22 17  1  0
  1 34  1  0
  1 35  1  0
  1 36  1  0
  6 37  1  0
  7 38  1  0
  9 39  1  0
 18 40  1  0
 19 41  1  0
 20 42  1  0
 21 43  1  0
 22 44  1  0
 23 45  1  0
 31 46  1  0
 31 47  1  0
 32 48  1  0
 33 49  1  0
M  END
>  <Binding energies>  (1) 
[-7.11]

>  <Ligand effiencies>  (1) 
[-0.1975]

>  <Interactions>  (1) 
["V-B:ASP:366:CG:8184, V-B:HIS:456:CE1:9041, V-B:GLU:543:CD:9879, V-B:ILE:369:CB:8207, V-A:GLU:543:CD:4908, V-B:ILE:369:CD1:8210, V-A:GLU:543:CG:4907, V-B:ILE:369:CG2:8208, V-A:TYR:539:CE2:4876, V-A:HIS:456:CE1:4069, V-A:GLU:543:CB:4906, V-A:HIS:456:CD2:4067, V-B:GLU:543:CB:9877, H-B:GLU:543:OE2:9881, V-B:ASP:366:CB:8183, H-B:GLU:543:OE1:9880, H-B:LYS:547:NZ:9922, V-B:LYS:547:CE:9921, H-B:TYR:484:OH:9319, H-A:LYS:547:NZ:4951, H-A:GLU:543:OE1:4909, H-A:GLU:543:OE2:4910, V-B:ASP:366:CA:8181, V-B:ASP:366:C:8179"]

$$$$
4cc_Grossjean_2025
     RDKit          3D

 47 50  0  0  0  0  0  0  0  0999 V2000
  129.0320  128.9140   74.6400 C   0  0  0  0  0  0  0  0  0  0  0  0
  130.1540  128.2230   74.1020 O   0  0  0  0  0  0  0  0  0  0  0  0
  130.2760  128.1000   72.7320 C   0  0  0  0  0  0  0  0  0  0  0  0
  129.2710  127.3880   72.0790 C   0  0  0  0  0  0  0  0  0  0  0  0
  129.3070  127.2120   70.6980 C   0  0  0  0  0  0  0  0  0  0  0  0
  130.3620  127.7400   69.9500 C   0  0  0  0  0  0  0  0  0  0  0  0
  130.3050  127.5260   68.5600 N   0  0  0  0  0  0  0  0  0  0  0  0
  129.5670  126.6320   67.8600 C   0  0  0  0  0  0  0  0  0  0  0  0
  128.7590  125.8550   68.3730 O   0  0  0  0  0  0  0  0  0  0  0  0
  129.7820  126.6350   66.4100 C   0  0  0  0  0  0  0  0  0  0  0  0
  131.0590  125.6500   65.7000 S   0  0  0  0  0  0  0  0  0  0  0  0
  130.6440  126.1930   64.0910 C   0  0  0  0  0  0  0  0  0  0  0  0
  131.3080  125.7630   63.0200 N   0  0  0  0  0  0  0  0  0  0  0  0
  130.9070  126.2330   61.8110 C   0  0  0  0  0  0  0  0  0  0  0  0
  131.6760  125.7340   60.6220 C   0  0  0  0  0  0  0  0  0  0  0  0
  132.7880  124.8920   60.7880 C   0  0  0  0  0  0  0  0  0  0  0  0
  133.5070  124.4270   59.6900 C   0  0  0  0  0  0  0  0  0  0  0  0
  133.1240  124.7980   58.4060 C   0  0  0  0  0  0  0  0  0  0  0  0
  132.0290  125.6340   58.2140 C   0  0  0  0  0  0  0  0  0  0  0  0
  131.3130  126.0980   59.3140 C   0  0  0  0  0  0  0  0  0  0  0  0
  129.8540  127.1440   61.6840 C   0  0  0  0  0  0  0  0  0  0  0  0
  129.1480  127.6050   62.8070 C   0  0  0  0  0  0  0  0  0  0  0  0
  128.0000  128.5980   62.5950 C   0  0  0  0  0  0  0  0  0  0  0  0
  126.8230  128.1410   63.0290 F   0  0  0  0  0  0  0  0  0  0  0  0
  128.2550  129.7290   63.2520 F   0  0  0  0  0  0  0  0  0  0  0  0
  127.8690  128.8650   61.2950 F   0  0  0  0  0  0  0  0  0  0  0  0
  129.5540  127.1110   64.0800 C   0  0  0  0  0  0  0  0  0  0  0  0
  129.0840  127.3490   65.4230 C   0  0  0  0  0  0  0  0  0  0  0  0
  128.0430  128.1970   65.7040 N   0  0  0  0  0  0  0  0  0  0  0  0
  131.3710  128.4680   70.5980 C   0  0  0  0  0  0  0  0  0  0  0  0
  131.3290  128.6420   71.9790 C   0  0  0  0  0  0  0  0  0  0  0  0
  129.0767  128.8864   75.7387 H   0  0  0  0  0  0  0  0  0  0  0  0
  129.0470  129.9595   74.2985 H   0  0  0  0  0  0  0  0  0  0  0  0
  128.1051  128.4300   74.2985 H   0  0  0  0  0  0  0  0  0  0  0  0
  128.4409  126.9607   72.6606 H   0  0  0  0  0  0  0  0  0  0  0  0
  128.5024  126.6557   70.1948 H   0  0  0  0  0  0  0  0  0  0  0  0
  130.8800  128.1520   68.0170 H   0  0  0  0  0  0  0  0  0  0  0  0
  133.0957  124.5953   61.8015 H   0  0  0  0  0  0  0  0  0  0  0  0
  134.3753  123.7682   59.8380 H   0  0  0  0  0  0  0  0  0  0  0  0
  133.6896  124.4287   57.5378 H   0  0  0  0  0  0  0  0  0  0  0  0
  131.7300  125.9274   57.1969 H   0  0  0  0  0  0  0  0  0  0  0  0
  130.4490  126.7604   59.1568 H   0  0  0  0  0  0  0  0  0  0  0  0
  129.5729  127.5069   60.6844 H   0  0  0  0  0  0  0  0  0  0  0  0
  128.1870  129.1830   65.8720 H   0  0  0  0  0  0  0  0  0  0  0  0
  127.0910  127.8610   65.7560 H   0  0  0  0  0  0  0  0  0  0  0  0
  132.1964  128.9019   70.0145 H   0  0  0  0  0  0  0  0  0  0  0  0
  132.1263  129.2079   72.4829 H   0  0  0  0  0  0  0  0  0  0  0  0
  1  2  1  0
  2  3  1  0
  3  4  2  0
  4  5  1  0
  5  6  2  0
  6  7  1  0
  7  8  1  0
  8  9  2  0
  8 10  1  0
 10 11  1  0
 11 12  1  0
 12 13  2  0
 13 14  1  0
 14 15  1  0
 15 16  2  0
 16 17  1  0
 17 18  2  0
 18 19  1  0
 19 20  2  0
 14 21  2  0
 21 22  1  0
 22 23  1  0
 23 24  1  0
 23 25  1  0
 23 26  1  0
 22 27  2  0
 27 28  1  0
 28 29  1  0
  6 30  1  0
 30 31  2  0
 31  3  1  0
 28 10  2  0
 27 12  1  0
 20 15  1  0
  1 32  1  0
  1 33  1  0
  1 34  1  0
  4 35  1  0
  5 36  1  0
  7 37  1  0
 16 38  1  0
 17 39  1  0
 18 40  1  0
 19 41  1  0
 20 42  1  0
 21 43  1  0
 29 44  1  0
 29 45  1  0
 30 46  1  0
 31 47  1  0
M  END
>  <Binding energies>  (1) 
[-7.0]

>  <Ligand effiencies>  (1) 
[-0.20588235294117646]

>  <Interactions>  (1) 
["V-B:HIS:456:CE1:9041, V-B:GLU:543:CD:9879, V-A:ASP:366:CG:3212, V-A:GLU:543:CD:4908, V-A:ILE:369:CD1:3238, V-A:GLU:543:CG:4907, V-A:HIS:456:CE1:4069, V-B:HIS:456:CD2:9039, V-A:ILE:369:CG2:3236, V-A:GLU:543:CB:4906, V-A:ILE:369:CB:3235, V-A:ASP:366:CB:3211, V-A:ASP:366:CA:3209, V-A:GLY:544:C:4912, V-A:ARG:545:CA:4919, H-B:GLU:543:OE2:9881, H-B:GLU:543:OE1:9880, H-A:LYS:547:NZ:4951, V-A:LYS:547:CE:4950, H-A:GLU:543:OE1:4909, H-A:GLU:543:OE2:4910, V-A:ASP:366:C:3207"]

$$$$
4cd_Grossjean_2025
     RDKit          3D

 43 46  0  0  0  0  0  0  0  0999 V2000
  127.5380  128.0640   63.3350 N   0  0  0  0  0  0  0  0  0  0  0  0
  127.2750  128.5350   64.5970 C   0  0  0  0  0  0  0  0  0  0  0  0
  126.2180  129.4130   64.8850 C   0  0  0  0  0  0  0  0  0  0  0  0
  125.2390  129.9990   63.9640 C   0  0  0  0  0  0  0  0  0  0  0  0
  124.1230  130.3330   64.3620 O   0  0  0  0  0  0  0  0  0  0  0  0
  125.6610  130.1420   62.6830 N   0  0  0  0  0  0  0  0  0  0  0  0
  124.9620  130.6140   61.5570 C   0  0  0  0  0  0  0  0  0  0  0  0
  125.6350  130.5230   60.3360 C   0  0  0  0  0  0  0  0  0  0  0  0
  125.0230  130.9520   59.1620 C   0  0  0  0  0  0  0  0  0  0  0  0
  123.7300  131.4670   59.2070 C   0  0  0  0  0  0  0  0  0  0  0  0
  123.0420  131.5510   60.4150 C   0  0  0  0  0  0  0  0  0  0  0  0
  123.6520  131.1230   61.5920 C   0  0  0  0  0  0  0  0  0  0  0  0
  126.1660  129.8020   66.6030 S   0  0  0  0  0  0  0  0  0  0  0  0
  127.5600  128.7980   66.9190 C   0  0  0  0  0  0  0  0  0  0  0  0
  128.0600  128.6690   68.1460 N   0  0  0  0  0  0  0  0  0  0  0  0
  129.1540  127.8770   68.2910 C   0  0  0  0  0  0  0  0  0  0  0  0
  129.6960  127.7530   69.6860 C   0  0  0  0  0  0  0  0  0  0  0  0
  129.0930  126.8940   70.6180 C   0  0  0  0  0  0  0  0  0  0  0  0
  129.5910  126.7740   71.9130 C   0  0  0  0  0  0  0  0  0  0  0  0
  130.7050  127.5150   72.2940 C   0  0  0  0  0  0  0  0  0  0  0  0
  131.3240  128.3700   71.3900 C   0  0  0  0  0  0  0  0  0  0  0  0
  130.8240  128.4860   70.0960 C   0  0  0  0  0  0  0  0  0  0  0  0
  129.7280  127.2030   67.2090 C   0  0  0  0  0  0  0  0  0  0  0  0
  129.2060  127.3290   65.9110 C   0  0  0  0  0  0  0  0  0  0  0  0
  129.8860  126.5650   64.7700 C   0  0  0  0  0  0  0  0  0  0  0  0
  130.1770  127.3390   63.7210 F   0  0  0  0  0  0  0  0  0  0  0  0
  131.0290  126.0320   65.2010 F   0  0  0  0  0  0  0  0  0  0  0  0
  129.0830  125.5930   64.3360 F   0  0  0  0  0  0  0  0  0  0  0  0
  128.0660  128.1670   65.7450 C   0  0  0  0  0  0  0  0  0  0  0  0
  128.1510  128.5550   62.7000 H   0  0  0  0  0  0  0  0  0  0  0  0
  127.1280  127.2050   62.9980 H   0  0  0  0  0  0  0  0  0  0  0  0
  126.6200  129.8880   62.5000 H   0  0  0  0  0  0  0  0  0  0  0  0
  126.6540  130.1101   60.3024 H   0  0  0  0  0  0  0  0  0  0  0  0
  125.5580  130.8846   58.2033 H   0  0  0  0  0  0  0  0  0  0  0  0
  123.2476  131.8106   58.2800 H   0  0  0  0  0  0  0  0  0  0  0  0
  122.0190  131.9545   60.4397 H   0  0  0  0  0  0  0  0  0  0  0  0
  123.1096  131.1832   62.5471 H   0  0  0  0  0  0  0  0  0  0  0  0
  128.2124  126.3058   70.3206 H   0  0  0  0  0  0  0  0  0  0  0  0
  129.1058  126.0966   72.6311 H   0  0  0  0  0  0  0  0  0  0  0  0
  131.0984  127.4236   73.3172 H   0  0  0  0  0  0  0  0  0  0  0  0
  132.2055  128.9527   71.6957 H   0  0  0  0  0  0  0  0  0  0  0  0
  131.3190  129.1617   69.3829 H   0  0  0  0  0  0  0  0  0  0  0  0
  130.6056  126.5615   67.3774 H   0  0  0  0  0  0  0  0  0  0  0  0
  1  2  1  0
  2  3  2  0
  3  4  1  0
  4  5  2  0
  4  6  1  0
  6  7  1  0
  7  8  2  0
  8  9  1  0
  9 10  2  0
 10 11  1  0
 11 12  2  0
  3 13  1  0
 13 14  1  0
 14 15  2  0
 15 16  1  0
 16 17  1  0
 17 18  2  0
 18 19  1  0
 19 20  2  0
 20 21  1  0
 21 22  2  0
 16 23  2  0
 23 24  1  0
 24 25  1  0
 25 26  1  0
 25 27  1  0
 25 28  1  0
 24 29  2  0
 29  2  1  0
 12  7  1  0
 29 14  1  0
 22 17  1  0
  1 30  1  0
  1 31  1  0
  6 32  1  0
  8 33  1  0
  9 34  1  0
 10 35  1  0
 11 36  1  0
 12 37  1  0
 18 38  1  0
 19 39  1  0
 20 40  1  0
 21 41  1  0
 22 42  1  0
 23 43  1  0
M  END
>  <Binding energies>  (1) 
[-7.12]

>  <Ligand effiencies>  (1) 
[-0.2225]

>  <Interactions>  (1) 
["V-B:ASP:366:CG:8184, V-B:HIS:456:CE1:9041, V-B:GLU:543:CD:9879, V-B:ILE:369:CB:8207, V-A:GLU:543:CD:4908, V-B:ILE:369:CD1:8210, V-A:GLU:543:CG:4907, V-B:ILE:369:CG2:8208, V-A:HIS:456:CE1:4069, V-A:GLU:543:CB:4906, V-A:GLY:544:C:4912, V-A:HIS:456:CD2:4067, V-B:GLU:543:CG:9878, H-B:GLY:454:N:9021, H-B:GLU:543:OE2:9881, V-B:ASP:366:CB:8183, H-B:ARG:545:NH2:9899, H-B:GLU:543:OE1:9880, V-B:ARG:545:CZ:9897, V-B:ASP:366:CA:8181, V-B:ASP:366:C:8179, V-B:ILE:369:CG1:8209"]

$$$$
4ce_Grossjean_2025
     RDKit          3D

 45 48  0  0  0  0  0  0  0  0999 V2000
  131.8370  136.6330   72.1170 C   0  0  0  0  0  0  0  0  0  0  0  0
  130.9020  135.8600   73.0270 C   0  0  0  0  0  0  0  0  0  0  0  0
  130.2030  136.4890   74.0610 C   0  0  0  0  0  0  0  0  0  0  0  0
  129.3540  135.7150   74.8540 C   0  0  0  0  0  0  0  0  0  0  0  0
  129.2230  134.3500   74.5970 C   0  0  0  0  0  0  0  0  0  0  0  0
  129.9570  133.7820   73.5480 C   0  0  0  0  0  0  0  0  0  0  0  0
  129.7650  132.4070   73.3230 N   0  0  0  0  0  0  0  0  0  0  0  0
  128.6160  131.6890   73.3890 C   0  0  0  0  0  0  0  0  0  0  0  0
  127.5170  132.1780   73.6530 O   0  0  0  0  0  0  0  0  0  0  0  0
  128.7540  130.2560   73.1170 C   0  0  0  0  0  0  0  0  0  0  0  0
  128.6540  129.0910   74.4350 S   0  0  0  0  0  0  0  0  0  0  0  0
  128.8550  127.7540   73.3280 C   0  0  0  0  0  0  0  0  0  0  0  0
  128.8620  126.4940   73.7560 N   0  0  0  0  0  0  0  0  0  0  0  0
  129.0090  125.5210   72.8180 C   0  0  0  0  0  0  0  0  0  0  0  0
  129.0070  124.1120   73.3320 C   0  0  0  0  0  0  0  0  0  0  0  0
  130.0460  123.6480   74.1550 C   0  0  0  0  0  0  0  0  0  0  0  0
  130.0550  122.3380   74.6300 C   0  0  0  0  0  0  0  0  0  0  0  0
  129.0200  121.4740   74.2890 C   0  0  0  0  0  0  0  0  0  0  0  0
  127.9790  121.9080   73.4750 C   0  0  0  0  0  0  0  0  0  0  0  0
  127.9760  123.2170   73.0000 C   0  0  0  0  0  0  0  0  0  0  0  0
  129.1690  125.8190   71.4610 C   0  0  0  0  0  0  0  0  0  0  0  0
  129.1690  127.1450   71.0000 C   0  0  0  0  0  0  0  0  0  0  0  0
  129.3480  127.4010   69.5000 C   0  0  0  0  0  0  0  0  0  0  0  0
  128.3650  128.1330   68.9730 F   0  0  0  0  0  0  0  0  0  0  0  0
  130.4910  128.0540   69.2870 F   0  0  0  0  0  0  0  0  0  0  0  0
  129.3760  126.2400   68.8460 F   0  0  0  0  0  0  0  0  0  0  0  0
  129.0000  128.1730   71.9730 C   0  0  0  0  0  0  0  0  0  0  0  0
  128.9400  129.6110   71.8830 C   0  0  0  0  0  0  0  0  0  0  0  0
  129.0530  130.2860   70.6940 N   0  0  0  0  0  0  0  0  0  0  0  0
  130.7870  134.5320   72.7650 N   0  0  0  0  0  0  0  0  0  0  0  0
  132.5427  137.2164   72.7266 H   0  0  0  0  0  0  0  0  0  0  0  0
  132.3955  135.9294   71.4822 H   0  0  0  0  0  0  0  0  0  0  0  0
  131.2510  137.3138   71.4822 H   0  0  0  0  0  0  0  0  0  0  0  0
  130.3190  137.5672   74.2454 H   0  0  0  0  0  0  0  0  0  0  0  0
  128.7911  136.1790   75.6773 H   0  0  0  0  0  0  0  0  0  0  0  0
  128.5529  133.7288   75.2094 H   0  0  0  0  0  0  0  0  0  0  0  0
  130.5940  131.9060   73.0390 H   0  0  0  0  0  0  0  0  0  0  0  0
  130.8652  124.3291   74.4289 H   0  0  0  0  0  0  0  0  0  0  0  0
  130.8772  121.9888   75.2719 H   0  0  0  0  0  0  0  0  0  0  0  0
  129.0246  120.4405   74.6655 H   0  0  0  0  0  0  0  0  0  0  0  0
  127.1625  121.2209   73.2079 H   0  0  0  0  0  0  0  0  0  0  0  0
  127.1527  123.5560   72.3541 H   0  0  0  0  0  0  0  0  0  0  0  0
  129.2974  124.9979   70.7404 H   0  0  0  0  0  0  0  0  0  0  0  0
  128.8160  129.8560   69.8110 H   0  0  0  0  0  0  0  0  0  0  0  0
  129.3820  131.2410   70.6610 H   0  0  0  0  0  0  0  0  0  0  0  0
  1  2  1  0
  2  3  2  0
  3  4  1  0
  4  5  2  0
  5  6  1  0
  6  7  1  0
  7  8  1  0
  8  9  2  0
  8 10  1  0
 10 11  1  0
 11 12  1  0
 12 13  2  0
 13 14  1  0
 14 15  1  0
 15 16  2  0
 16 17  1  0
 17 18  2  0
 18 19  1  0
 19 20  2  0
 14 21  2  0
 21 22  1  0
 22 23  1  0
 23 24  1  0
 23 25  1  0
 23 26  1  0
 22 27  2  0
 27 28  1  0
 28 29  1  0
  6 30  2  0
 30  2  1  0
 28 10  2  0
 27 12  1  0
 20 15  1  0
  1 31  1  0
  1 32  1  0
  1 33  1  0
  3 34  1  0
  4 35  1  0
  5 36  1  0
  7 37  1  0
 16 38  1  0
 17 39  1  0
 18 40  1  0
 19 41  1  0
 20 42  1  0
 21 43  1  0
 29 44  1  0
 29 45  1  0
M  END
>  <Binding energies>  (1) 
[-7.25]

>  <Ligand effiencies>  (1) 
[-0.2196969696969697]

>  <Interactions>  (1) 
["V-B:HIS:456:CE1:9041, V-A:GLU:543:CG:4907, V-A:HIS:456:CE1:4069, V-A:GLU:543:C:4902, V-B:HIS:456:CD2:9039, V-B:HIS:456:CG:9037, V-A:GLU:543:CB:4906, V-A:HIS:456:CD2:4067, V-B:TYR:484:CD1:9314, V-B:GLU:543:C:9873, V-B:GLU:543:CB:9877, V-B:TYR:484:CE1:9316, H-B:LYS:547:NZ:9922, V-B:LYS:547:CE:9921, V-A:GLU:543:CA:4904, H-A:GLU:543:O:4903, H-A:GLY:544:O:4913, V-B:TYR:484:CB:9312, V-B:GLY:544:CA:9885, V-B:TYR:484:C:9308, V-B:TYR:484:CA:9310"]

$$$$
4cf_Grossjean_2025
     RDKit          3D

 42 45  0  0  0  0  0  0  0  0999 V2000
  127.5060  128.0620   63.3170 N   0  0  0  0  0  0  0  0  0  0  0  0
  127.2450  128.5220   64.5820 C   0  0  0  0  0  0  0  0  0  0  0  0
  126.1860  129.3960   64.8790 C   0  0  0  0  0  0  0  0  0  0  0  0
  125.2150  130.0000   63.9630 C   0  0  0  0  0  0  0  0  0  0  0  0
  124.1090  130.3600   64.3690 O   0  0  0  0  0  0  0  0  0  0  0  0
  125.6310  130.1330   62.6800 N   0  0  0  0  0  0  0  0  0  0  0  0
  124.9370  130.6200   61.5560 C   0  0  0  0  0  0  0  0  0  0  0  0
  123.6250  131.1300   61.5650 C   0  0  0  0  0  0  0  0  0  0  0  0
  123.0470  131.5680   60.3710 C   0  0  0  0  0  0  0  0  0  0  0  0
  123.7940  131.4850   59.1960 C   0  0  0  0  0  0  0  0  0  0  0  0
  125.0580  130.9910   59.1600 N   0  0  0  0  0  0  0  0  0  0  0  0
  125.6060  130.5680   60.3280 C   0  0  0  0  0  0  0  0  0  0  0  0
  126.1390  129.7760   66.5990 S   0  0  0  0  0  0  0  0  0  0  0  0
  127.5370  128.7730   66.9050 C   0  0  0  0  0  0  0  0  0  0  0  0
  128.0450  128.6420   68.1290 N   0  0  0  0  0  0  0  0  0  0  0  0
  129.1430  127.8530   68.2640 C   0  0  0  0  0  0  0  0  0  0  0  0
  129.6970  127.7300   69.6540 C   0  0  0  0  0  0  0  0  0  0  0  0
  129.0600  126.9270   70.6120 C   0  0  0  0  0  0  0  0  0  0  0  0
  129.5680  126.8070   71.9030 C   0  0  0  0  0  0  0  0  0  0  0  0
  130.7270  127.4900   72.2530 C   0  0  0  0  0  0  0  0  0  0  0  0
  131.3820  128.2910   71.3230 C   0  0  0  0  0  0  0  0  0  0  0  0
  130.8700  128.4070   70.0340 C   0  0  0  0  0  0  0  0  0  0  0  0
  129.7100  127.1820   67.1770 C   0  0  0  0  0  0  0  0  0  0  0  0
  129.1800  127.3090   65.8840 C   0  0  0  0  0  0  0  0  0  0  0  0
  129.8550  126.5490   64.7360 C   0  0  0  0  0  0  0  0  0  0  0  0
  129.0830  125.5930   64.2150 F   0  0  0  0  0  0  0  0  0  0  0  0
  130.1590  127.3950   63.7520 F   0  0  0  0  0  0  0  0  0  0  0  0
  130.9700  125.9650   65.1740 F   0  0  0  0  0  0  0  0  0  0  0  0
  128.0390  128.1480   65.7260 C   0  0  0  0  0  0  0  0  0  0  0  0
  127.0590  127.2360   62.9460 H   0  0  0  0  0  0  0  0  0  0  0  0
  128.1590  128.5380   62.7080 H   0  0  0  0  0  0  0  0  0  0  0  0
  126.5810  129.8480   62.4900 H   0  0  0  0  0  0  0  0  0  0  0  0
  123.0584  131.1833   62.5063 H   0  0  0  0  0  0  0  0  0  0  0  0
  122.0233  131.9703   60.3577 H   0  0  0  0  0  0  0  0  0  0  0  0
  123.3391  131.8351   58.2576 H   0  0  0  0  0  0  0  0  0  0  0  0
  126.6287  130.1635   60.3080 H   0  0  0  0  0  0  0  0  0  0  0  0
  128.1438  126.3830   70.3387 H   0  0  0  0  0  0  0  0  0  0  0  0
  129.0546  126.1747   72.6423 H   0  0  0  0  0  0  0  0  0  0  0  0
  131.1291  127.3965   73.2726 H   0  0  0  0  0  0  0  0  0  0  0  0
  132.2990  128.8294   71.6047 H   0  0  0  0  0  0  0  0  0  0  0  0
  131.3915  129.0388   69.2999 H   0  0  0  0  0  0  0  0  0  0  0  0
  130.5895  126.5414   67.3384 H   0  0  0  0  0  0  0  0  0  0  0  0
  1  2  1  0
  2  3  2  0
  3  4  1  0
  4  5  2  0
  4  6  1  0
  6  7  1  0
  7  8  2  0
  8  9  1  0
  9 10  2  0
 10 11  1  0
 11 12  2  0
  3 13  1  0
 13 14  1  0
 14 15  2  0
 15 16  1  0
 16 17  1  0
 17 18  2  0
 18 19  1  0
 19 20  2  0
 20 21  1  0
 21 22  2  0
 16 23  2  0
 23 24  1  0
 24 25  1  0
 25 26  1  0
 25 27  1  0
 25 28  1  0
 24 29  2  0
 29  2  1  0
 12  7  1  0
 29 14  1  0
 22 17  1  0
  1 30  1  0
  1 31  1  0
  6 32  1  0
  8 33  1  0
  9 34  1  0
 10 35  1  0
 12 36  1  0
 18 37  1  0
 19 38  1  0
 20 39  1  0
 21 40  1  0
 22 41  1  0
 23 42  1  0
M  END
>  <Binding energies>  (1) 
[-6.83]

>  <Ligand effiencies>  (1) 
[-0.2134375]

>  <Interactions>  (1) 
["V-B:ASP:366:CG:8184, V-B:HIS:456:CE1:9041, V-B:GLU:543:CD:9879, V-B:ILE:369:CB:8207, V-A:GLU:543:CD:4908, V-B:ILE:369:CD1:8210, V-A:GLU:543:CG:4907, V-B:ILE:369:CG2:8208, V-A:HIS:456:CE1:4069, V-A:GLU:543:CB:4906, V-A:GLY:544:C:4912, V-A:HIS:456:CD2:4067, V-B:GLU:543:CG:9878, V-A:ARG:545:CA:4919, H-B:GLY:454:N:9021, H-B:GLU:543:OE2:9881, V-B:ASP:366:CB:8183, H-B:ARG:545:NH2:9899, H-B:GLU:543:OE1:9880, V-B:ARG:545:CZ:9897, V-B:ASP:366:CA:8181, V-B:ILE:369:CG1:8209"]

$$$$
4cg_Grossjean_2025
     RDKit          3D

 46 49  0  0  0  0  0  0  0  0999 V2000
  127.2790  128.1820   63.2700 N   0  0  0  0  0  0  0  0  0  0  0  0
  127.0490  128.6150   64.5510 C   0  0  0  0  0  0  0  0  0  0  0  0
  125.9890  129.4670   64.8940 C   0  0  0  0  0  0  0  0  0  0  0  0
  124.9370  130.0060   64.0340 C   0  0  0  0  0  0  0  0  0  0  0  0
  123.7700  130.0900   64.4230 O   0  0  0  0  0  0  0  0  0  0  0  0
  125.3150  130.3630   62.7890 N   0  0  0  0  0  0  0  0  0  0  0  0
  124.4410  130.9430   61.7710 C   0  0  0  0  0  0  0  0  0  0  0  0
  124.3930  132.4660   61.8100 C   0  0  0  0  0  0  0  0  0  0  0  0
  124.9320  133.2050   60.7520 C   0  0  0  0  0  0  0  0  0  0  0  0
  124.8620  134.5960   60.7690 C   0  0  0  0  0  0  0  0  0  0  0  0
  124.2450  135.2420   61.8370 C   0  0  0  0  0  0  0  0  0  0  0  0
  123.6910  134.5110   62.8860 C   0  0  0  0  0  0  0  0  0  0  0  0
  123.7590  133.1210   62.8690 C   0  0  0  0  0  0  0  0  0  0  0  0
  125.9730  129.8070   66.6230 S   0  0  0  0  0  0  0  0  0  0  0  0
  127.3980  128.8260   66.8700 C   0  0  0  0  0  0  0  0  0  0  0  0
  127.9340  128.6720   68.0780 N   0  0  0  0  0  0  0  0  0  0  0  0
  129.0380  127.8870   68.1750 C   0  0  0  0  0  0  0  0  0  0  0  0
  129.6200  127.7360   69.5520 C   0  0  0  0  0  0  0  0  0  0  0  0
  129.0050  126.9100   70.5080 C   0  0  0  0  0  0  0  0  0  0  0  0
  129.5390  126.7670   71.7850 C   0  0  0  0  0  0  0  0  0  0  0  0
  130.7000  127.4520   72.1280 C   0  0  0  0  0  0  0  0  0  0  0  0
  131.3280  128.2790   71.2030 C   0  0  0  0  0  0  0  0  0  0  0  0
  130.7900  128.4190   69.9270 C   0  0  0  0  0  0  0  0  0  0  0  0
  129.6100  127.2750   67.0540 C   0  0  0  0  0  0  0  0  0  0  0  0
  129.0530  127.4310   65.7750 C   0  0  0  0  0  0  0  0  0  0  0  0
  129.7300  126.7330   64.5890 C   0  0  0  0  0  0  0  0  0  0  0  0
  129.0200  125.7120   64.1080 F   0  0  0  0  0  0  0  0  0  0  0  0
  129.9050  127.6030   63.5940 F   0  0  0  0  0  0  0  0  0  0  0  0
  130.9140  126.2530   64.9650 F   0  0  0  0  0  0  0  0  0  0  0  0
  127.8860  128.2410   65.6650 C   0  0  0  0  0  0  0  0  0  0  0  0
  127.9320  128.6490   62.6570 H   0  0  0  0  0  0  0  0  0  0  0  0
  126.8060  127.3700   62.8970 H   0  0  0  0  0  0  0  0  0  0  0  0
  126.2990  130.3350   62.5650 H   0  0  0  0  0  0  0  0  0  0  0  0
  124.8043  130.6309   60.7807 H   0  0  0  0  0  0  0  0  0  0  0  0
  123.4222  130.5809   61.9735 H   0  0  0  0  0  0  0  0  0  0  0  0
  125.4108  132.6882   59.9072 H   0  0  0  0  0  0  0  0  0  0  0  0
  125.2920  135.1812   59.9428 H   0  0  0  0  0  0  0  0  0  0  0  0
  124.1944  136.3407   61.8528 H   0  0  0  0  0  0  0  0  0  0  0  0
  123.2022  135.0301   63.7236 H   0  0  0  0  0  0  0  0  0  0  0  0
  123.3138  132.5383   63.6889 H   0  0  0  0  0  0  0  0  0  0  0  0
  128.0858  126.3672   70.2424 H   0  0  0  0  0  0  0  0  0  0  0  0
  129.0450  126.1149   72.5203 H   0  0  0  0  0  0  0  0  0  0  0  0
  131.1238  127.3389   73.1367 H   0  0  0  0  0  0  0  0  0  0  0  0
  132.2454  128.8198   71.4784 H   0  0  0  0  0  0  0  0  0  0  0  0
  131.2891  129.0756   69.1992 H   0  0  0  0  0  0  0  0  0  0  0  0
  130.5135  126.6598   67.1775 H   0  0  0  0  0  0  0  0  0  0  0  0
  1  2  1  0
  2  3  2  0
  3  4  1  0
  4  5  2  0
  4  6  1  0
  6  7  1  0
  7  8  1  0
  8  9  2  0
  9 10  1  0
 10 11  2  0
 11 12  1  0
 12 13  2  0
  3 14  1  0
 14 15  1  0
 15 16  2  0
 16 17  1  0
 17 18  1  0
 18 19  2  0
 19 20  1  0
 20 21  2  0
 21 22  1  0
 22 23  2  0
 17 24  2  0
 24 25  1  0
 25 26  1  0
 26 27  1  0
 26 28  1  0
 26 29  1  0
 25 30  2  0
 30  2  1  0
 13  8  1  0
 30 15  1  0
 23 18  1  0
  1 31  1  0
  1 32  1  0
  6 33  1  0
  7 34  1  0
  7 35  1  0
  9 36  1  0
 10 37  1  0
 11 38  1  0
 12 39  1  0
 13 40  1  0
 19 41  1  0
 20 42  1  0
 21 43  1  0
 22 44  1  0
 23 45  1  0
 24 46  1  0
M  END
>  <Binding energies>  (1) 
[-7.48]

>  <Ligand effiencies>  (1) 
[-0.22666666666666668]

>  <Interactions>  (1) 
["V-B:ASP:366:CG:8184, V-B:HIS:456:CE1:9041, V-B:GLU:543:CD:9879, V-A:GLU:543:CD:4908, V-B:GLY:454:CA:9020, V-B:TRP:381:CZ2:8341, V-B:ILE:369:CD1:8210, V-A:GLU:543:CG:4907, V-B:LEU:475:CD1:9229, V-B:ILE:369:CG2:8208, V-B:TRP:381:CH2:8343, V-A:TYR:539:CE2:4876, V-A:TYR:539:CD2:4874, V-A:HIS:456:CE1:4069, V-A:GLU:543:CB:4906, V-A:GLY:544:C:4912, V-A:HIS:456:CD2:4067, V-B:GLU:543:CG:9878, H-B:GLY:454:N:9021, H-B:GLU:543:OE2:9881, H-B:ARG:545:NH2:9899, H-B:GLU:543:OE1:9880, H-B:ARG:545:NE:9895, H-B:ARG:545:NH1:9898, V-B:ARG:545:CZ:9897, H-B:ASP:366:OD2:8186"]

$$$$
4ch_Grossjean_2025
     RDKit          3D

 58 61  0  0  0  0  0  0  0  0999 V2000
  128.2030  131.4000   72.9560 C   0  0  0  0  0  0  0  0  0  0  0  0
  128.4760  130.2340   73.7260 O   0  0  0  0  0  0  0  0  0  0  0  0
  129.0320  129.1280   73.1100 C   0  0  0  0  0  0  0  0  0  0  0  0
  129.8340  129.1930   71.9590 C   0  0  0  0  0  0  0  0  0  0  0  0
  130.3640  128.0340   71.3900 C   0  0  0  0  0  0  0  0  0  0  0  0
  131.2090  128.1210   70.1240 C   0  0  0  0  0  0  0  0  0  0  0  0
  130.4330  128.2820   68.8940 N   0  0  0  0  0  0  0  0  0  0  0  0
  129.1910  127.7990   68.6810 C   0  0  0  0  0  0  0  0  0  0  0  0
  128.5640  127.1800   69.5430 O   0  0  0  0  0  0  0  0  0  0  0  0
  128.6080  128.0850   67.3700 C   0  0  0  0  0  0  0  0  0  0  0  0
  127.2350  129.1790   67.2340 S   0  0  0  0  0  0  0  0  0  0  0  0
  127.2040  128.9940   65.4970 C   0  0  0  0  0  0  0  0  0  0  0  0
  126.3030  129.6230   64.7480 N   0  0  0  0  0  0  0  0  0  0  0  0
  126.3600  129.4220   63.4050 C   0  0  0  0  0  0  0  0  0  0  0  0
  125.3240  130.1410   62.5890 C   0  0  0  0  0  0  0  0  0  0  0  0
  125.5690  130.4700   61.2450 C   0  0  0  0  0  0  0  0  0  0  0  0
  124.6140  131.1380   60.4830 C   0  0  0  0  0  0  0  0  0  0  0  0
  123.3960  131.4870   61.0550 C   0  0  0  0  0  0  0  0  0  0  0  0
  123.1290  131.1770   62.3840 C   0  0  0  0  0  0  0  0  0  0  0  0
  124.0880  130.5120   63.1430 C   0  0  0  0  0  0  0  0  0  0  0  0
  127.3110  128.5780   62.8250 C   0  0  0  0  0  0  0  0  0  0  0  0
  128.2670  127.9080   63.6060 C   0  0  0  0  0  0  0  0  0  0  0  0
  129.2810  126.9980   62.9050 C   0  0  0  0  0  0  0  0  0  0  0  0
  129.2670  125.7450   63.3650 F   0  0  0  0  0  0  0  0  0  0  0  0
  129.0160  126.9460   61.6010 F   0  0  0  0  0  0  0  0  0  0  0  0
  130.5140  127.4730   63.0840 F   0  0  0  0  0  0  0  0  0  0  0  0
  128.2240  128.1220   65.0130 C   0  0  0  0  0  0  0  0  0  0  0  0
  129.0200  127.6250   66.1090 C   0  0  0  0  0  0  0  0  0  0  0  0
  130.0790  126.7720   65.9320 N   0  0  0  0  0  0  0  0  0  0  0  0
  130.0800  126.7940   71.9630 C   0  0  0  0  0  0  0  0  0  0  0  0
  129.2800  126.6990   73.1130 C   0  0  0  0  0  0  0  0  0  0  0  0
  128.9600  125.5060   73.7340 O   0  0  0  0  0  0  0  0  0  0  0  0
  128.9510  124.3020   72.9740 C   0  0  0  0  0  0  0  0  0  0  0  0
  128.7680  127.8750   73.6810 C   0  0  0  0  0  0  0  0  0  0  0  0
  127.9710  127.7960   74.7970 O   0  0  0  0  0  0  0  0  0  0  0  0
  128.6070  128.2230   75.9940 C   0  0  0  0  0  0  0  0  0  0  0  0
  128.0048  132.2464   73.6300 H   0  0  0  0  0  0  0  0  0  0  0  0
  129.0711  131.6320   72.3215 H   0  0  0  0  0  0  0  0  0  0  0  0
  127.3221  131.2225   72.3215 H   0  0  0  0  0  0  0  0  0  0  0  0
  130.0472  130.1697   71.5001 H   0  0  0  0  0  0  0  0  0  0  0  0
  131.8860  128.9826   70.2198 H   0  0  0  0  0  0  0  0  0  0  0  0
  131.7454  127.1647   70.0360 H   0  0  0  0  0  0  0  0  0  0  0  0
  130.9080  128.7330   68.1250 H   0  0  0  0  0  0  0  0  0  0  0  0
  126.5309  130.1954   60.7874 H   0  0  0  0  0  0  0  0  0  0  0  0
  124.8226  131.3886   59.4324 H   0  0  0  0  0  0  0  0  0  0  0  0
  122.6392  132.0113   60.4530 H   0  0  0  0  0  0  0  0  0  0  0  0
  122.1645  131.4559   62.8335 H   0  0  0  0  0  0  0  0  0  0  0  0
  123.8739  130.2729   64.1951 H   0  0  0  0  0  0  0  0  0  0  0  0
  127.3108  128.4355   61.7343 H   0  0  0  0  0  0  0  0  0  0  0  0
  131.0320  127.1060   65.8760 H   0  0  0  0  0  0  0  0  0  0  0  0
  129.9420  125.7740   65.8550 H   0  0  0  0  0  0  0  0  0  0  0  0
  130.4879  125.8793   71.5081 H   0  0  0  0  0  0  0  0  0  0  0  0
  128.9445  123.4384   73.6553 H   0  0  0  0  0  0  0  0  0  0  0  0
  128.0526  124.2754   72.3398 H   0  0  0  0  0  0  0  0  0  0  0  0
  129.8489  124.2620   72.3398 H   0  0  0  0  0  0  0  0  0  0  0  0
  128.0459  127.8463   76.8619 H   0  0  0  0  0  0  0  0  0  0  0  0
  129.6343  127.8310   76.0233 H   0  0  0  0  0  0  0  0  0  0  0  0
  128.6331  129.3223   76.0233 H   0  0  0  0  0  0  0  0  0  0  0  0
  1  2  1  0
  2  3  1  0
  3  4  2  0
  4  5  1  0
  5  6  1  0
  6  7  1  0
  7  8  1  0
  8  9  2  0
  8 10  1  0
 10 11  1  0
 11 12  1  0
 12 13  2  0
 13 14  1  0
 14 15  1  0
 15 16  2  0
 16 17  1  0
 17 18  2  0
 18 19  1  0
 19 20  2  0
 14 21  2  0
 21 22  1  0
 22 23  1  0
 23 24  1  0
 23 25  1  0
 23 26  1  0
 22 27  2  0
 27 28  1  0
 28 29  1  0
  5 30  2  0
 30 31  1  0
 31 32  1  0
 32 33  1  0
 31 34  2  0
 34 35  1  0
 35 36  1  0
 34  3  1  0
 28 10  2  0
 27 12  1  0
 20 15  1  0
  1 37  1  0
  1 38  1  0
  1 39  1  0
  4 40  1  0
  6 41  1  0
  6 42  1  0
  7 43  1  0
 16 44  1  0
 17 45  1  0
 18 46  1  0
 19 47  1  0
 20 48  1  0
 21 49  1  0
 29 50  1  0
 29 51  1  0
 30 52  1  0
 33 53  1  0
 33 54  1  0
 33 55  1  0
 36 56  1  0
 36 57  1  0
 36 58  1  0
M  END
>  <Binding energies>  (1) 
[-7.02]

>  <Ligand effiencies>  (1) 
[-0.18]

>  <Interactions>  (1) 
["V-B:ASP:366:CG:8184, V-B:HIS:456:CE1:9041, V-B:GLU:543:CD:9879, V-B:ILE:369:CB:8207, V-A:GLU:543:CD:4908, V-B:ILE:369:CD1:8210, V-A:GLU:543:CG:4907, V-B:ILE:369:CG2:8208, V-A:HIS:456:CE1:4069, V-B:HIS:456:CD2:9039, V-A:HIS:456:CG:4065, V-B:HIS:456:CG:9037, V-A:GLU:543:CB:4906, V-A:HIS:456:CD2:4067, V-B:TYR:484:CD1:9314, V-B:ASP:366:CB:8183, H-B:LYS:547:NZ:9922, V-B:LYS:547:CE:9921, V-B:ARG:545:CZ:9897, H-A:GLU:543:OE1:4909, H-A:GLU:543:OE2:4910, V-B:ASP:366:CA:8181"]

$$$$
4ci_Grossjean_2025
     RDKit          3D

 39 42  0  0  0  0  0  0  0  0999 V2000
  131.1730  122.8790   74.8580 N   0  0  0  0  0  0  0  0  0  0  0  0
  130.2080  123.5640   74.1660 C   0  0  0  0  0  0  0  0  0  0  0  0
  129.2490  122.9340   73.3560 C   0  0  0  0  0  0  0  0  0  0  0  0
  129.0700  121.5030   73.0970 C   0  0  0  0  0  0  0  0  0  0  0  0
  129.8860  120.6800   73.5200 O   0  0  0  0  0  0  0  0  0  0  0  0
  127.9750  121.1740   72.3660 N   0  0  0  0  0  0  0  0  0  0  0  0
  127.5690  119.9050   71.9760 C   0  0  0  0  0  0  0  0  0  0  0  0
  127.1750  118.9180   72.8790 C   0  0  0  0  0  0  0  0  0  0  0  0
  126.8570  117.8280   72.1030 C   0  0  0  0  0  0  0  0  0  0  0  0
  127.0480  118.1420   70.7990 O   0  0  0  0  0  0  0  0  0  0  0  0
  127.5000  119.4610   70.7310 N   0  0  0  0  0  0  0  0  0  0  0  0
  128.1600  124.1110   72.6270 S   0  0  0  0  0  0  0  0  0  0  0  0
  128.9990  125.4350   73.4010 C   0  0  0  0  0  0  0  0  0  0  0  0
  128.6170  126.6980   73.2260 N   0  0  0  0  0  0  0  0  0  0  0  0
  129.3280  127.6590   73.8720 C   0  0  0  0  0  0  0  0  0  0  0  0
  128.8760  129.0740   73.6510 C   0  0  0  0  0  0  0  0  0  0  0  0
  128.2910  129.8140   74.6920 C   0  0  0  0  0  0  0  0  0  0  0  0
  127.8720  131.1270   74.4940 C   0  0  0  0  0  0  0  0  0  0  0  0
  128.0300  131.7200   73.2460 C   0  0  0  0  0  0  0  0  0  0  0  0
  128.6000  131.0100   72.1960 C   0  0  0  0  0  0  0  0  0  0  0  0
  129.0180  129.6970   72.3990 C   0  0  0  0  0  0  0  0  0  0  0  0
  130.4290  127.3460   74.6760 C   0  0  0  0  0  0  0  0  0  0  0  0
  130.8410  126.0170   74.8680 C   0  0  0  0  0  0  0  0  0  0  0  0
  132.0560  125.7470   75.7620 C   0  0  0  0  0  0  0  0  0  0  0  0
  132.4890  126.8360   76.4000 F   0  0  0  0  0  0  0  0  0  0  0  0
  131.7400  124.8420   76.6880 F   0  0  0  0  0  0  0  0  0  0  0  0
  133.0670  125.2870   75.0240 F   0  0  0  0  0  0  0  0  0  0  0  0
  130.0940  125.0020   74.2050 C   0  0  0  0  0  0  0  0  0  0  0  0
  131.9170  123.3540   75.3510 H   0  0  0  0  0  0  0  0  0  0  0  0
  131.1700  121.8690   74.9030 H   0  0  0  0  0  0  0  0  0  0  0  0
  127.3800  121.9310   72.0640 H   0  0  0  0  0  0  0  0  0  0  0  0
  127.1286  118.9947   73.9753 H   0  0  0  0  0  0  0  0  0  0  0  0
  126.5042  116.8569   72.4805 H   0  0  0  0  0  0  0  0  0  0  0  0
  128.1618  129.3483   75.6802 H   0  0  0  0  0  0  0  0  0  0  0  0
  127.4180  131.6927   75.3210 H   0  0  0  0  0  0  0  0  0  0  0  0
  127.7016  132.7580   73.0889 H   0  0  0  0  0  0  0  0  0  0  0  0
  128.7204  131.4825   71.2100 H   0  0  0  0  0  0  0  0  0  0  0  0
  129.4671  129.1378   71.5650 H   0  0  0  0  0  0  0  0  0  0  0  0
  130.9840  128.1580   75.1684 H   0  0  0  0  0  0  0  0  0  0  0  0
  1  2  1  0
  2  3  2  0
  3  4  1  0
  4  5  2  0
  4  6  1  0
  6  7  1  0
  7  8  1  0
  8  9  2  0
  9 10  1  0
 10 11  1  0
  3 12  1  0
 12 13  1  0
 13 14  2  0
 14 15  1  0
 15 16  1  0
 16 17  2  0
 17 18  1  0
 18 19  2  0
 19 20  1  0
 20 21  2  0
 15 22  2  0
 22 23  1  0
 23 24  1  0
 24 25  1  0
 24 26  1  0
 24 27  1  0
 23 28  2  0
 28  2  1  0
 11  7  2  0
 28 13  1  0
 21 16  1  0
  1 29  1  0
  1 30  1  0
  6 31  1  0
  8 32  1  0
  9 33  1  0
 17 34  1  0
 18 35  1  0
 19 36  1  0
 20 37  1  0
 21 38  1  0
 22 39  1  0
M  END
>  <Binding energies>  (1) 
[-6.93]

>  <Ligand effiencies>  (1) 
[-0.2235483870967742]

>  <Interactions>  (1) 
["V-B:HIS:456:CE1:9041, V-B:HIS:456:CD2:9039, V-A:HIS:456:CG:4065, V-B:HIS:456:CG:9037, V-A:HIS:456:CD2:4067, V-B:TYR:484:CD1:9314, V-B:GLU:543:C:9873, V-B:TYR:484:CE1:9316, H-B:LYS:547:NZ:9922, V-B:LYS:547:CE:9921, V-A:HIS:456:CB:4064, V-A:LYS:547:CE:4950, V-B:HIS:456:CB:9036, H-B:GLU:543:O:9874, V-A:ASP:473:CG:4239, V-B:GLY:544:CA:9885, V-A:TYR:484:CB:4340, V-A:LYS:547:CD:4949, V-B:GLY:544:C:9883, V-A:TYR:484:CD1:4342, H-A:TYR:484:N:4339, H-A:ASP:473:OD2:4241"]

$$$$
4cj_Grossjean_2025
     RDKit          3D

 39 42  0  0  0  0  0  0  0  0999 V2000
  128.9890  130.4800   70.6220 N   0  0  0  0  0  0  0  0  0  0  0  0
  128.9160  129.8250   71.8250 C   0  0  0  0  0  0  0  0  0  0  0  0
  128.7430  130.4860   73.0510 C   0  0  0  0  0  0  0  0  0  0  0  0
  128.6030  131.9220   73.3030 C   0  0  0  0  0  0  0  0  0  0  0  0
  127.4990  132.4150   73.5490 O   0  0  0  0  0  0  0  0  0  0  0  0
  129.7510  132.6400   73.2350 N   0  0  0  0  0  0  0  0  0  0  0  0
  129.8920  134.0080   73.4310 C   0  0  0  0  0  0  0  0  0  0  0  0
  129.4230  134.7330   74.4240 N   0  0  0  0  0  0  0  0  0  0  0  0
  129.7500  136.0030   74.2920 C   0  0  0  0  0  0  0  0  0  0  0  0
  130.5050  136.3320   73.1700 C   0  0  0  0  0  0  0  0  0  0  0  0
  130.7980  134.8900   72.2430 S   0  0  0  0  0  0  0  0  0  0  0  0
  128.6800  129.3400   74.3890 S   0  0  0  0  0  0  0  0  0  0  0  0
  128.8880  127.9900   73.2990 C   0  0  0  0  0  0  0  0  0  0  0  0
  128.9210  126.7370   73.7460 N   0  0  0  0  0  0  0  0  0  0  0  0
  129.0780  125.7520   72.8250 C   0  0  0  0  0  0  0  0  0  0  0  0
  129.0980  124.3490   73.3610 C   0  0  0  0  0  0  0  0  0  0  0  0
  128.1100  123.4240   72.9890 C   0  0  0  0  0  0  0  0  0  0  0  0
  128.1190  122.1230   73.4870 C   0  0  0  0  0  0  0  0  0  0  0  0
  129.1200  121.7290   74.3690 C   0  0  0  0  0  0  0  0  0  0  0  0
  130.1100  122.6260   74.7550 C   0  0  0  0  0  0  0  0  0  0  0  0
  130.0970  123.9240   74.2540 C   0  0  0  0  0  0  0  0  0  0  0  0
  129.2260  126.0320   71.4620 C   0  0  0  0  0  0  0  0  0  0  0  0
  129.1950  127.3500   70.9800 C   0  0  0  0  0  0  0  0  0  0  0  0
  129.3600  127.5850   69.4740 C   0  0  0  0  0  0  0  0  0  0  0  0
  128.3460  128.2650   68.9360 F   0  0  0  0  0  0  0  0  0  0  0  0
  130.4730  128.2820   69.2480 F   0  0  0  0  0  0  0  0  0  0  0  0
  129.4380  126.4150   68.8400 F   0  0  0  0  0  0  0  0  0  0  0  0
  129.0110  128.3890   71.9360 C   0  0  0  0  0  0  0  0  0  0  0  0
  128.6990  130.0450   69.7570 H   0  0  0  0  0  0  0  0  0  0  0  0
  129.3330  131.4290   70.5610 H   0  0  0  0  0  0  0  0  0  0  0  0
  130.5980  132.1400   73.0090 H   0  0  0  0  0  0  0  0  0  0  0  0
  129.4432  136.7609   75.0278 H   0  0  0  0  0  0  0  0  0  0  0  0
  130.8591  137.3408   72.9114 H   0  0  0  0  0  0  0  0  0  0  0  0
  127.3157  123.7314   72.2929 H   0  0  0  0  0  0  0  0  0  0  0  0
  127.3378  121.4102   73.1841 H   0  0  0  0  0  0  0  0  0  0  0  0
  129.1285  120.7021   74.7633 H   0  0  0  0  0  0  0  0  0  0  0  0
  130.8996  122.3109   75.4530 H   0  0  0  0  0  0  0  0  0  0  0  0
  130.8823  124.6300   74.5621 H   0  0  0  0  0  0  0  0  0  0  0  0
  129.3695  125.2025   70.7539 H   0  0  0  0  0  0  0  0  0  0  0  0
  1  2  1  0
  2  3  2  0
  3  4  1  0
  4  5  2  0
  4  6  1  0
  6  7  1  0
  7  8  2  0
  8  9  1  0
  9 10  2  0
 10 11  1  0
  3 12  1  0
 12 13  1  0
 13 14  2  0
 14 15  1  0
 15 16  1  0
 16 17  2  0
 17 18  1  0
 18 19  2  0
 19 20  1  0
 20 21  2  0
 15 22  2  0
 22 23  1  0
 23 24  1  0
 24 25  1  0
 24 26  1  0
 24 27  1  0
 23 28  2  0
 28  2  1  0
 11  7  1  0
 28 13  1  0
 21 16  1  0
  1 29  1  0
  1 30  1  0
  6 31  1  0
  9 32  1  0
 10 33  1  0
 17 34  1  0
 18 35  1  0
 19 36  1  0
 20 37  1  0
 21 38  1  0
 22 39  1  0
M  END
>  <Binding energies>  (1) 
[-6.53]

>  <Ligand effiencies>  (1) 
[-0.2106451612903226]

>  <Interactions>  (1) 
["V-B:HIS:456:CE1:9041, V-A:GLU:543:CD:4908, V-A:GLU:543:CG:4907, V-A:HIS:456:CE1:4069, V-A:GLU:543:C:4902, V-B:HIS:456:CD2:9039, V-B:HIS:456:CG:9037, V-A:GLU:543:CB:4906, V-A:HIS:456:CD2:4067, V-B:TYR:484:CD1:9314, V-B:GLU:543:C:9873, V-B:TYR:484:CE1:9316, H-B:LYS:547:NZ:9922, V-B:LYS:547:CE:9921, V-A:GLU:543:CA:4904, H-A:GLU:543:O:4903, V-B:TYR:484:CG:9313, V-B:TYR:484:CB:9312, V-B:GLY:544:CA:9885, V-A:GLY:544:CA:4914, V-B:TYR:484:C:9308, V-B:TYR:484:CA:9310"]

$$$$
4ck_Grossjean_2025
     RDKit          3D

 57 59  0  0  0  0  0  0  0  0999 V2000
  125.5530  123.6260   62.1320 C   0  0  0  0  0  0  0  0  0  0  0  0
  126.7330  122.9330   61.7560 O   0  0  0  0  0  0  0  0  0  0  0  0
  127.9020  123.7390   61.8060 C   0  0  0  0  0  0  0  0  0  0  0  0
  128.4670  123.7130   63.2320 C   0  0  0  0  0  0  0  0  0  0  0  0
  129.8680  123.4820   63.1720 O   0  0  0  0  0  0  0  0  0  0  0  0
  130.2300  122.1290   63.4130 C   0  0  0  0  0  0  0  0  0  0  0  0
  130.4820  121.4300   62.0710 C   0  0  0  0  0  0  0  0  0  0  0  0
  131.1920  122.3180   61.2190 O   0  0  0  0  0  0  0  0  0  0  0  0
  132.5960  122.0900   61.1920 C   0  0  0  0  0  0  0  0  0  0  0  0
  133.3290  123.3230   61.7420 C   0  0  0  0  0  0  0  0  0  0  0  0
  132.4290  124.2200   62.4680 N   0  0  0  0  0  0  0  0  0  0  0  0
  132.7540  124.9620   63.5460 C   0  0  0  0  0  0  0  0  0  0  0  0
  133.8900  124.9780   64.0250 O   0  0  0  0  0  0  0  0  0  0  0  0
  131.6740  125.7670   64.1180 C   0  0  0  0  0  0  0  0  0  0  0  0
  130.8290  126.9470   63.1200 S   0  0  0  0  0  0  0  0  0  0  0  0
  129.7650  127.3670   64.4410 C   0  0  0  0  0  0  0  0  0  0  0  0
  128.8140  128.2860   64.3030 N   0  0  0  0  0  0  0  0  0  0  0  0
  128.0360  128.5460   65.3860 C   0  0  0  0  0  0  0  0  0  0  0  0
  126.9610  129.5760   65.1910 C   0  0  0  0  0  0  0  0  0  0  0  0
  127.2830  130.8920   64.8250 C   0  0  0  0  0  0  0  0  0  0  0  0
  126.2900  131.8530   64.6450 C   0  0  0  0  0  0  0  0  0  0  0  0
  124.9550  131.5080   64.8290 C   0  0  0  0  0  0  0  0  0  0  0  0
  124.6080  130.2100   65.1880 C   0  0  0  0  0  0  0  0  0  0  0  0
  125.6040  129.2520   65.3650 C   0  0  0  0  0  0  0  0  0  0  0  0
  128.2120  127.8750   66.6000 C   0  0  0  0  0  0  0  0  0  0  0  0
  129.2140  126.9040   66.7580 C   0  0  0  0  0  0  0  0  0  0  0  0
  129.3540  126.2090   68.1180 C   0  0  0  0  0  0  0  0  0  0  0  0
  128.2690  126.3320   68.8830 F   0  0  0  0  0  0  0  0  0  0  0  0
  129.5710  124.9060   67.9390 F   0  0  0  0  0  0  0  0  0  0  0  0
  130.3780  126.7370   68.7890 F   0  0  0  0  0  0  0  0  0  0  0  0
  130.0360  126.6250   65.6290 C   0  0  0  0  0  0  0  0  0  0  0  0
  131.1310  125.7100   65.4100 C   0  0  0  0  0  0  0  0  0  0  0  0
  131.5990  124.8650   66.3840 N   0  0  0  0  0  0  0  0  0  0  0  0
  125.4851  123.6659   63.2292 H   0  0  0  0  0  0  0  0  0  0  0  0
  125.5845  124.6491   61.7291 H   0  0  0  0  0  0  0  0  0  0  0  0
  124.6748  123.1002   61.7291 H   0  0  0  0  0  0  0  0  0  0  0  0
  128.6522  123.3443   61.1050 H   0  0  0  0  0  0  0  0  0  0  0  0
  127.6526  124.7726   61.5242 H   0  0  0  0  0  0  0  0  0  0  0  0
  128.2733  124.6782   63.7228 H   0  0  0  0  0  0  0  0  0  0  0  0
  127.9831  122.9107   63.8082 H   0  0  0  0  0  0  0  0  0  0  0  0
  131.1446  122.0955   64.0232 H   0  0  0  0  0  0  0  0  0  0  0  0
  129.4173  121.6180   63.9501 H   0  0  0  0  0  0  0  0  0  0  0  0
  131.0770  120.5194   62.2344 H   0  0  0  0  0  0  0  0  0  0  0  0
  129.5235  121.1535   61.6076 H   0  0  0  0  0  0  0  0  0  0  0  0
  132.8366  121.2141   61.8124 H   0  0  0  0  0  0  0  0  0  0  0  0
  132.9164  121.9066   60.1558 H   0  0  0  0  0  0  0  0  0  0  0  0
  134.1232  122.9880   62.4254 H   0  0  0  0  0  0  0  0  0  0  0  0
  133.7450  123.8785   60.8885 H   0  0  0  0  0  0  0  0  0  0  0  0
  131.5040  124.3270   62.0790 H   0  0  0  0  0  0  0  0  0  0  0  0
  128.3371  131.1697   64.6777 H   0  0  0  0  0  0  0  0  0  0  0  0
  126.5607  132.8800   64.3586 H   0  0  0  0  0  0  0  0  0  0  0  0
  124.1698  132.2657   64.6898 H   0  0  0  0  0  0  0  0  0  0  0  0
  123.5512  129.9407   65.3317 H   0  0  0  0  0  0  0  0  0  0  0  0
  125.3242  128.2258   65.6454 H   0  0  0  0  0  0  0  0  0  0  0  0
  127.5526  128.1124   67.4479 H   0  0  0  0  0  0  0  0  0  0  0  0
  132.3810  125.1090   66.9760 H   0  0  0  0  0  0  0  0  0  0  0  0
  131.1700  123.9640   66.5480 H   0  0  0  0  0  0  0  0  0  0  0  0
  1  2  1  0
  2  3  1  0
  3  4  1  0
  4  5  1  0
  5  6  1  0
  6  7  1  0
  7  8  1  0
  8  9  1  0
  9 10  1  0
 10 11  1  0
 11 12  1  0
 12 13  2  0
 12 14  1  0
 14 15  1  0
 15 16  1  0
 16 17  2  0
 17 18  1  0
 18 19  1  0
 19 20  2  0
 20 21  1  0
 21 22  2  0
 22 23  1  0
 23 24  2  0
 18 25  2  0
 25 26  1  0
 26 27  1  0
 27 28  1  0
 27 29  1  0
 27 30  1  0
 26 31  2  0
 31 32  1  0
 32 33  1  0
 32 14  2  0
 31 16  1  0
 24 19  1  0
  1 34  1  0
  1 35  1  0
  1 36  1  0
  3 37  1  0
  3 38  1  0
  4 39  1  0
  4 40  1  0
  6 41  1  0
  6 42  1  0
  7 43  1  0
  7 44  1  0
  9 45  1  0
  9 46  1  0
 10 47  1  0
 10 48  1  0
 11 49  1  0
 20 50  1  0
 21 51  1  0
 22 52  1  0
 23 53  1  0
 24 54  1  0
 25 55  1  0
 33 56  1  0
 33 57  1  0
M  END
>  <Binding energies>  (1) 
[-5.45]

>  <Ligand effiencies>  (1) 
[-0.1513888888888889]

>  <Interactions>  (1) 
["V-B:HIS:456:CE1:9041, V-B:GLU:543:CD:9879, V-A:LEU:475:CD2:4258, V-A:TYR:484:CZ:4346, V-A:GLU:543:CD:4908, V-A:ILE:369:CD1:3238, V-B:GLY:454:CA:9020, V-A:GLU:543:CG:4907, V-B:LEU:475:CD1:9229, V-A:HIS:456:CE1:4069, V-A:ILE:369:CG2:3236, V-B:ALA:541:CB:9863, V-B:GLU:543:CG:9878, V-B:GLU:543:CB:9877, H-A:TYR:484:OH:4347, V-B:ARG:545:CZ:9897, H-B:ALA:541:N:9862, H-A:GLY:454:N:4049, H-A:ARG:545:NH1:4927, V-B:ASN:362:CB:8147, V-A:TYR:484:CE1:4344, V-B:GLU:543:CA:9875"]

$$$$
4dd_Grossjean_2025
     RDKit          3D

 43 46  0  0  0  0  0  0  0  0999 V2000
  133.8850  125.4950   64.0800 C   0  0  0  0  0  0  0  0  0  0  0  0
  132.6960  124.5480   64.1490 C   0  0  0  0  0  0  0  0  0  0  0  0
  132.6130  123.5230   63.2000 C   0  0  0  0  0  0  0  0  0  0  0  0
  131.5440  122.6180   63.2100 C   0  0  0  0  0  0  0  0  0  0  0  0
  131.4260  121.5140   62.2010 C   0  0  0  0  0  0  0  0  0  0  0  0
  132.5250  121.1400   61.4110 C   0  0  0  0  0  0  0  0  0  0  0  0
  132.4230  120.1140   60.4750 C   0  0  0  0  0  0  0  0  0  0  0  0
  131.2140  119.4450   60.3150 C   0  0  0  0  0  0  0  0  0  0  0  0
  130.1100  119.7930   61.0850 C   0  0  0  0  0  0  0  0  0  0  0  0
  130.2170  120.8180   62.0220 C   0  0  0  0  0  0  0  0  0  0  0  0
  130.5410  122.7000   64.1270 N   0  0  0  0  0  0  0  0  0  0  0  0
  130.6230  123.6710   65.0350 C   0  0  0  0  0  0  0  0  0  0  0  0
  129.4140  123.8810   66.2810 S   0  0  0  0  0  0  0  0  0  0  0  0
  130.2760  125.2680   66.9500 C   0  0  0  0  0  0  0  0  0  0  0  0
  129.7560  125.9660   68.1290 C   0  0  0  0  0  0  0  0  0  0  0  0
  128.9590  125.4100   68.8860 O   0  0  0  0  0  0  0  0  0  0  0  0
  130.2210  127.2260   68.3090 N   0  0  0  0  0  0  0  0  0  0  0  0
  129.8870  128.1720   69.2950 C   0  0  0  0  0  0  0  0  0  0  0  0
  130.5340  128.0260   70.5260 C   0  0  0  0  0  0  0  0  0  0  0  0
  130.2830  128.9210   71.5620 C   0  0  0  0  0  0  0  0  0  0  0  0
  129.3870  129.9690   71.3660 C   0  0  0  0  0  0  0  0  0  0  0  0
  128.7450  130.1340   70.1410 C   0  0  0  0  0  0  0  0  0  0  0  0
  128.9950  129.2400   69.1030 C   0  0  0  0  0  0  0  0  0  0  0  0
  131.4420  125.5390   66.2190 C   0  0  0  0  0  0  0  0  0  0  0  0
  132.3060  126.5660   66.5110 N   0  0  0  0  0  0  0  0  0  0  0  0
  131.6650  124.6380   65.1190 C   0  0  0  0  0  0  0  0  0  0  0  0
  134.2083  125.7525   65.0994 H   0  0  0  0  0  0  0  0  0  0  0  0
  134.7127  125.0060   63.5454 H   0  0  0  0  0  0  0  0  0  0  0  0
  133.5936  126.4111   63.5454 H   0  0  0  0  0  0  0  0  0  0  0  0
  133.3981  123.4267   62.4356 H   0  0  0  0  0  0  0  0  0  0  0  0
  133.4830  121.6665   61.5336 H   0  0  0  0  0  0  0  0  0  0  0  0
  133.2945  119.8339   59.8650 H   0  0  0  0  0  0  0  0  0  0  0  0
  131.1309  118.6356   59.5747 H   0  0  0  0  0  0  0  0  0  0  0  0
  129.1560  119.2611   60.9548 H   0  0  0  0  0  0  0  0  0  0  0  0
  129.3420  121.0874   62.6317 H   0  0  0  0  0  0  0  0  0  0  0  0
  130.9200  127.5390   67.6520 H   0  0  0  0  0  0  0  0  0  0  0  0
  131.2447  127.2000   70.6763 H   0  0  0  0  0  0  0  0  0  0  0  0
  130.7899  128.8011   72.5309 H   0  0  0  0  0  0  0  0  0  0  0  0
  129.1844  130.6732   72.1864 H   0  0  0  0  0  0  0  0  0  0  0  0
  128.0428  130.9678   69.9940 H   0  0  0  0  0  0  0  0  0  0  0  0
  128.4938  129.3702   68.1325 H   0  0  0  0  0  0  0  0  0  0  0  0
  132.4160  126.9200   67.4500 H   0  0  0  0  0  0  0  0  0  0  0  0
  132.8660  127.0000   65.7910 H   0  0  0  0  0  0  0  0  0  0  0  0
  1  2  1  0
  2  3  2  0
  3  4  1  0
  4  5  1  0
  5  6  2  0
  6  7  1  0
  7  8  2  0
  8  9  1  0
  9 10  2  0
  4 11  2  0
 11 12  1  0
 12 13  1  0
 13 14  1  0
 14 15  1  0
 15 16  2  0
 15 17  1  0
 17 18  1  0
 18 19  2  0
 19 20  1  0
 20 21  2  0
 21 22  1  0
 22 23  2  0
 14 24  2  0
 24 25  1  0
 24 26  1  0
 26  2  1  0
 10  5  1  0
 26 12  2  0
 23 18  1  0
  1 27  1  0
  1 28  1  0
  1 29  1  0
  3 30  1  0
  6 31  1  0
  7 32  1  0
  8 33  1  0
  9 34  1  0
 10 35  1  0
 17 36  1  0
 19 37  1  0
 20 38  1  0
 21 39  1  0
 22 40  1  0
 23 41  1  0
 25 42  1  0
 25 43  1  0
M  END
>  <Binding energies>  (1) 
[-7.46]

>  <Ligand effiencies>  (1) 
[-0.25724137931034485]

>  <Interactions>  (1) 
["V-B:HIS:456:CE1:9041, V-A:ARG:545:CZ:4926, V-B:GLU:543:CD:9879, V-A:LEU:475:CD2:4258, V-A:TYR:484:CZ:4346, V-A:GLU:543:CD:4908, V-A:GLU:543:CG:4907, V-A:GLY:453:CA:4043, V-A:HIS:456:CE1:4069, V-B:TYR:539:CD2:9845, V-A:GLU:543:C:4902, V-A:ILE:369:CG2:3236, V-A:GLU:543:CB:4906, V-B:TYR:539:CE2:9847, V-B:ALA:541:CB:9863, V-A:ARG:545:CG:4922, V-B:GLU:543:CG:9878, V-B:GLU:543:CB:9877, V-B:TYR:484:CE1:9316, V-A:TRP:381:CZ2:3369, V-A:TRP:381:CH2:3371, V-A:GLU:543:CA:4904, V-A:ARG:545:CD:4923, H-A:GLU:543:OE1:4909, H-A:GLU:543:OE2:4910, V-A:TYR:484:CE1:4344, V-B:GLU:543:CA:9875, V-A:PRO:482:CB:4325, V-A:PRO:482:CG:4326, V-A:TRP:381:CZ3:3370"]

$$$$
4dg_Grossjean_2025
     RDKit          3D

 46 49  0  0  0  0  0  0  0  0999 V2000
  133.9350  125.5000   64.0630 C   0  0  0  0  0  0  0  0  0  0  0  0
  132.7340  124.5670   64.1200 C   0  0  0  0  0  0  0  0  0  0  0  0
  132.6480  123.5440   63.1680 C   0  0  0  0  0  0  0  0  0  0  0  0
  131.5680  122.6520   63.1670 C   0  0  0  0  0  0  0  0  0  0  0  0
  131.4490  121.5430   62.1600 C   0  0  0  0  0  0  0  0  0  0  0  0
  132.5570  121.1380   61.3980 C   0  0  0  0  0  0  0  0  0  0  0  0
  132.4510  120.1140   60.4600 C   0  0  0  0  0  0  0  0  0  0  0  0
  131.2300  119.4760   60.2700 C   0  0  0  0  0  0  0  0  0  0  0  0
  130.1140  119.8590   61.0080 C   0  0  0  0  0  0  0  0  0  0  0  0
  130.2250  120.8840   61.9430 C   0  0  0  0  0  0  0  0  0  0  0  0
  130.5740  122.7270   64.0920 N   0  0  0  0  0  0  0  0  0  0  0  0
  130.6540  123.7010   64.9980 C   0  0  0  0  0  0  0  0  0  0  0  0
  129.4410  123.9150   66.2390 S   0  0  0  0  0  0  0  0  0  0  0  0
  130.3030  125.3010   66.9050 C   0  0  0  0  0  0  0  0  0  0  0  0
  129.7470  126.0350   68.0400 C   0  0  0  0  0  0  0  0  0  0  0  0
  129.0270  125.4810   68.8720 O   0  0  0  0  0  0  0  0  0  0  0  0
  130.0420  127.3510   68.0910 N   0  0  0  0  0  0  0  0  0  0  0  0
  129.6150  128.2740   69.1430 C   0  0  0  0  0  0  0  0  0  0  0  0
  130.1850  127.9320   70.5150 C   0  0  0  0  0  0  0  0  0  0  0  0
  129.3770  127.3000   71.4650 C   0  0  0  0  0  0  0  0  0  0  0  0
  129.9020  126.9590   72.7080 C   0  0  0  0  0  0  0  0  0  0  0  0
  131.2370  127.2400   72.9940 C   0  0  0  0  0  0  0  0  0  0  0  0
  132.0520  127.8540   72.0460 C   0  0  0  0  0  0  0  0  0  0  0  0
  131.5270  128.1950   70.8020 C   0  0  0  0  0  0  0  0  0  0  0  0
  131.4670  125.5770   66.1720 C   0  0  0  0  0  0  0  0  0  0  0  0
  132.3230  126.6100   66.4600 N   0  0  0  0  0  0  0  0  0  0  0  0
  131.6970  124.6670   65.0830 C   0  0  0  0  0  0  0  0  0  0  0  0
  134.2550  125.7486   65.0856 H   0  0  0  0  0  0  0  0  0  0  0  0
  134.7600  125.0036   63.5311 H   0  0  0  0  0  0  0  0  0  0  0  0
  133.6580  126.4221   63.5311 H   0  0  0  0  0  0  0  0  0  0  0  0
  133.4390  123.4394   62.4108 H   0  0  0  0  0  0  0  0  0  0  0  0
  133.5256  121.6384   61.5446 H   0  0  0  0  0  0  0  0  0  0  0  0
  133.3297  119.8110   59.8717 H   0  0  0  0  0  0  0  0  0  0  0  0
  131.1459  118.6643   59.5324 H   0  0  0  0  0  0  0  0  0  0  0  0
  129.1490  119.3542   60.8531 H   0  0  0  0  0  0  0  0  0  0  0  0
  129.3398  121.1843   62.5228 H   0  0  0  0  0  0  0  0  0  0  0  0
  130.7010  127.7180   67.4210 H   0  0  0  0  0  0  0  0  0  0  0  0
  129.9434  129.2882   68.8717 H   0  0  0  0  0  0  0  0  0  0  0  0
  128.5202  128.1981   69.2176 H   0  0  0  0  0  0  0  0  0  0  0  0
  128.3268  127.0724   71.2301 H   0  0  0  0  0  0  0  0  0  0  0  0
  129.2665  126.4701   73.4611 H   0  0  0  0  0  0  0  0  0  0  0  0
  131.6509  126.9743   73.9779 H   0  0  0  0  0  0  0  0  0  0  0  0
  133.1054  128.0686   72.2788 H   0  0  0  0  0  0  0  0  0  0  0  0
  132.1684  128.6711   70.0458 H   0  0  0  0  0  0  0  0  0  0  0  0
  132.9120  127.0280   65.7550 H   0  0  0  0  0  0  0  0  0  0  0  0
  132.3860  126.9930   67.3930 H   0  0  0  0  0  0  0  0  0  0  0  0
  1  2  1  0
  2  3  2  0
  3  4  1  0
  4  5  1  0
  5  6  2  0
  6  7  1  0
  7  8  2  0
  8  9  1  0
  9 10  2  0
  4 11  2  0
 11 12  1  0
 12 13  1  0
 13 14  1  0
 14 15  1  0
 15 16  2  0
 15 17  1  0
 17 18  1  0
 18 19  1  0
 19 20  2  0
 20 21  1  0
 21 22  2  0
 22 23  1  0
 23 24  2  0
 14 25  2  0
 25 26  1  0
 25 27  1  0
 27  2  1  0
 10  5  1  0
 27 12  2  0
 24 19  1  0
  1 28  1  0
  1 29  1  0
  1 30  1  0
  3 31  1  0
  6 32  1  0
  7 33  1  0
  8 34  1  0
  9 35  1  0
 10 36  1  0
 17 37  1  0
 18 38  1  0
 18 39  1  0
 20 40  1  0
 21 41  1  0
 22 42  1  0
 23 43  1  0
 24 44  1  0
 26 45  1  0
 26 46  1  0
M  END
>  <Binding energies>  (1) 
[-7.75]

>  <Ligand effiencies>  (1) 
[-0.25833333333333336]

>  <Interactions>  (1) 
["V-B:HIS:456:CE1:9041, V-A:ARG:545:CZ:4926, V-B:GLU:543:CD:9879, V-A:LEU:475:CD2:4258, V-A:TYR:484:CZ:4346, V-A:GLU:543:CD:4908, V-A:GLU:543:CG:4907, V-A:GLY:453:CA:4043, V-A:HIS:456:CE1:4069, V-B:TYR:539:CD2:9845, V-A:HIS:456:CG:4065, V-A:ILE:369:CG2:3236, V-A:GLU:543:CB:4906, V-B:TYR:539:CE2:9847, V-A:GLY:544:C:4912, V-A:HIS:456:CD2:4067, V-B:ALA:541:CB:9863, V-A:ARG:545:CG:4922, V-B:GLU:543:CG:9878, V-B:GLU:543:CB:9877, V-A:ARG:545:CA:4919, V-A:TRP:381:CZ2:3369, V-A:TRP:381:CH2:3371, V-A:ARG:545:CD:4923, H-A:GLU:543:OE1:4909, H-A:GLU:543:OE2:4910, V-A:TYR:484:CE1:4344, V-B:GLU:543:CA:9875, V-A:PRO:482:CB:4325, V-A:TRP:381:CZ3:3370"]

$$$$
4dj_Grossjean_2025
     RDKit          3D

 39 42  0  0  0  0  0  0  0  0999 V2000
  129.3090  127.6220   69.4910 C   0  0  0  0  0  0  0  0  0  0  0  0
  129.1930  127.3740   70.9870 C   0  0  0  0  0  0  0  0  0  0  0  0
  129.2570  126.0520   71.4430 C   0  0  0  0  0  0  0  0  0  0  0  0
  129.1550  125.7550   72.8070 C   0  0  0  0  0  0  0  0  0  0  0  0
  129.2250  124.3470   73.3260 C   0  0  0  0  0  0  0  0  0  0  0  0
  128.6150  123.2910   72.6280 C   0  0  0  0  0  0  0  0  0  0  0  0
  128.6760  121.9840   73.1030 C   0  0  0  0  0  0  0  0  0  0  0  0
  129.3470  121.7130   74.2910 C   0  0  0  0  0  0  0  0  0  0  0  0
  129.9560  122.7390   75.0050 C   0  0  0  0  0  0  0  0  0  0  0  0
  129.8940  124.0440   74.5260 C   0  0  0  0  0  0  0  0  0  0  0  0
  129.0080  126.7300   73.7450 N   0  0  0  0  0  0  0  0  0  0  0  0
  128.9470  127.9890   73.3130 C   0  0  0  0  0  0  0  0  0  0  0  0
  128.7520  129.3380   74.4090 S   0  0  0  0  0  0  0  0  0  0  0  0
  128.7770  130.4890   73.0710 C   0  0  0  0  0  0  0  0  0  0  0  0
  128.6370  131.9230   73.3260 C   0  0  0  0  0  0  0  0  0  0  0  0
  127.5350  132.4110   73.5930 O   0  0  0  0  0  0  0  0  0  0  0  0
  129.7800  132.6470   73.2390 N   0  0  0  0  0  0  0  0  0  0  0  0
  129.9200  134.0140   73.4310 C   0  0  0  0  0  0  0  0  0  0  0  0
  129.4260  134.7470   74.4060 N   0  0  0  0  0  0  0  0  0  0  0  0
  129.7600  136.0170   74.2740 C   0  0  0  0  0  0  0  0  0  0  0  0
  130.5440  136.3360   73.1700 C   0  0  0  0  0  0  0  0  0  0  0  0
  130.8560  134.8870   72.2610 S   0  0  0  0  0  0  0  0  0  0  0  0
  128.9270  129.8310   71.8410 C   0  0  0  0  0  0  0  0  0  0  0  0
  128.9760  130.4770   70.6310 N   0  0  0  0  0  0  0  0  0  0  0  0
  129.0290  128.4010   71.9520 C   0  0  0  0  0  0  0  0  0  0  0  0
  129.7692  128.6059   69.3170 H   0  0  0  0  0  0  0  0  0  0  0  0
  129.9344  126.8392   69.0370 H   0  0  0  0  0  0  0  0  0  0  0  0
  128.3073  127.6003   69.0370 H   0  0  0  0  0  0  0  0  0  0  0  0
  129.3894  125.2347   70.7188 H   0  0  0  0  0  0  0  0  0  0  0  0
  128.0800  123.5008   71.6900 H   0  0  0  0  0  0  0  0  0  0  0  0
  128.1958  121.1691   72.5415 H   0  0  0  0  0  0  0  0  0  0  0  0
  129.3961  120.6807   74.6679 H   0  0  0  0  0  0  0  0  0  0  0  0
  130.4845  122.5200   75.9445 H   0  0  0  0  0  0  0  0  0  0  0  0
  130.3762  124.8524   75.0952 H   0  0  0  0  0  0  0  0  0  0  0  0
  130.6270  132.1480   73.0050 H   0  0  0  0  0  0  0  0  0  0  0  0
  129.4365  136.7806   74.9966 H   0  0  0  0  0  0  0  0  0  0  0  0
  130.9076  137.3420   72.9136 H   0  0  0  0  0  0  0  0  0  0  0  0
  128.6190  130.0560   69.7860 H   0  0  0  0  0  0  0  0  0  0  0  0
  129.3750  131.4010   70.5460 H   0  0  0  0  0  0  0  0  0  0  0  0
  1  2  1  0
  2  3  2  0
  3  4  1  0
  4  5  1  0
  5  6  2  0
  6  7  1  0
  7  8  2  0
  8  9  1  0
  9 10  2  0
  4 11  2  0
 11 12  1  0
 12 13  1  0
 13 14  1  0
 14 15  1  0
 15 16  2  0
 15 17  1  0
 17 18  1  0
 18 19  2  0
 19 20  1  0
 20 21  2  0
 21 22  1  0
 14 23  2  0
 23 24  1  0
 23 25  1  0
 25  2  1  0
 10  5  1  0
 25 12  2  0
 22 18  1  0
  1 26  1  0
  1 27  1  0
  1 28  1  0
  3 29  1  0
  6 30  1  0
  7 31  1  0
  8 32  1  0
  9 33  1  0
 10 34  1  0
 17 35  1  0
 20 36  1  0
 21 37  1  0
 24 38  1  0
 24 39  1  0
M  END
>  <Binding energies>  (1) 
[-6.96]

>  <Ligand effiencies>  (1) 
[-0.24857142857142858]

>  <Interactions>  (1) 
["V-B:HIS:456:CE1:9041, V-A:HIS:456:CE1:4069, V-A:GLU:543:C:4902, V-B:HIS:456:CD2:9039, V-B:HIS:456:CG:9037, V-A:GLU:543:CB:4906, V-A:HIS:456:CD2:4067, V-B:TYR:484:CD1:9314, V-B:GLU:543:C:9873, V-B:TYR:484:CE1:9316, H-B:LYS:547:NZ:9922, V-B:LYS:547:CE:9921, V-A:GLU:543:CA:4904, H-A:GLU:543:O:4903, V-B:TYR:484:CG:9313, V-B:TYR:484:CB:9312, V-A:GLY:544:CA:4914, V-B:TYR:484:C:9308, V-B:TYR:484:CA:9310"]

$$$$
4ea_Grossjean_2025
     RDKit          3D

 52 55  0  0  0  0  0  0  0  0999 V2000
  128.8760  130.5350   72.4540 C   0  0  0  0  0  0  0  0  0  0  0  0
  129.5620  129.9930   73.7100 C   0  0  0  0  0  0  0  0  0  0  0  0
  130.1280  128.7200   73.4270 O   0  0  0  0  0  0  0  0  0  0  0  0
  129.3540  127.6820   73.0170 C   0  0  0  0  0  0  0  0  0  0  0  0
  128.5930  127.0640   73.7690 O   0  0  0  0  0  0  0  0  0  0  0  0
  129.5150  127.3620   71.5590 C   0  0  0  0  0  0  0  0  0  0  0  0
  130.4920  128.0360   70.8160 C   0  0  0  0  0  0  0  0  0  0  0  0
  130.6670  127.7620   69.4620 C   0  0  0  0  0  0  0  0  0  0  0  0
  129.8690  126.8110   68.8240 C   0  0  0  0  0  0  0  0  0  0  0  0
  130.1350  126.6180   67.4550 N   0  0  0  0  0  0  0  0  0  0  0  0
  130.1780  125.4790   66.7210 C   0  0  0  0  0  0  0  0  0  0  0  0
  129.9750  124.3530   67.1760 O   0  0  0  0  0  0  0  0  0  0  0  0
  130.4900  125.6630   65.3010 C   0  0  0  0  0  0  0  0  0  0  0  0
  130.0980  127.1810   64.4890 S   0  0  0  0  0  0  0  0  0  0  0  0
  130.7470  126.5950   62.9750 C   0  0  0  0  0  0  0  0  0  0  0  0
  130.7450  127.3440   61.8710 N   0  0  0  0  0  0  0  0  0  0  0  0
  131.2770  126.7720   60.7630 C   0  0  0  0  0  0  0  0  0  0  0  0
  131.2650  127.6410   59.5180 C   0  0  0  0  0  0  0  0  0  0  0  0
  131.8060  125.4840   60.7330 C   0  0  0  0  0  0  0  0  0  0  0  0
  131.8060  124.7020   61.8930 C   0  0  0  0  0  0  0  0  0  0  0  0
  132.3710  123.3350   61.8460 C   0  0  0  0  0  0  0  0  0  0  0  0
  133.5780  123.0500   62.4930 C   0  0  0  0  0  0  0  0  0  0  0  0
  134.1090  121.7640   62.4510 C   0  0  0  0  0  0  0  0  0  0  0  0
  133.4340  120.7620   61.7570 C   0  0  0  0  0  0  0  0  0  0  0  0
  132.2340  121.0350   61.1050 C   0  0  0  0  0  0  0  0  0  0  0  0
  131.7040  122.3220   61.1480 C   0  0  0  0  0  0  0  0  0  0  0  0
  131.2560  125.2650   63.0780 C   0  0  0  0  0  0  0  0  0  0  0  0
  131.0970  124.7570   64.4160 C   0  0  0  0  0  0  0  0  0  0  0  0
  131.5070  123.4990   64.7740 N   0  0  0  0  0  0  0  0  0  0  0  0
  128.8870  126.1320   69.5610 C   0  0  0  0  0  0  0  0  0  0  0  0
  128.7140  126.4070   70.9150 C   0  0  0  0  0  0  0  0  0  0  0  0
  128.0438  131.1925   72.7456 H   0  0  0  0  0  0  0  0  0  0  0  0
  129.6024  131.1058   71.8568 H   0  0  0  0  0  0  0  0  0  0  0  0
  128.4888  129.6963   71.8568 H   0  0  0  0  0  0  0  0  0  0  0  0
  130.3565  130.6866   74.0225 H   0  0  0  0  0  0  0  0  0  0  0  0
  128.8230  129.8949   74.5189 H   0  0  0  0  0  0  0  0  0  0  0  0
  131.1269  128.7886   71.3063 H   0  0  0  0  0  0  0  0  0  0  0  0
  131.4393  128.2986   68.8914 H   0  0  0  0  0  0  0  0  0  0  0  0
  130.3220  127.4710   66.9500 H   0  0  0  0  0  0  0  0  0  0  0  0
  131.2504  128.7012   59.8110 H   0  0  0  0  0  0  0  0  0  0  0  0
  132.1660  127.4381   58.9205 H   0  0  0  0  0  0  0  0  0  0  0  0
  130.3699  127.4133   58.9205 H   0  0  0  0  0  0  0  0  0  0  0  0
  132.2234  125.0820   59.7981 H   0  0  0  0  0  0  0  0  0  0  0  0
  134.1094  123.8449   63.0369 H   0  0  0  0  0  0  0  0  0  0  0  0
  135.0565  121.5400   62.9630 H   0  0  0  0  0  0  0  0  0  0  0  0
  133.8529  119.7454   61.7237 H   0  0  0  0  0  0  0  0  0  0  0  0
  131.7077  120.2382   60.5590 H   0  0  0  0  0  0  0  0  0  0  0  0
  130.7582  122.5430   60.6317 H   0  0  0  0  0  0  0  0  0  0  0  0
  131.9400  122.8700   64.1110 H   0  0  0  0  0  0  0  0  0  0  0  0
  131.3910  123.1560   65.7180 H   0  0  0  0  0  0  0  0  0  0  0  0
  128.2524  125.3808   69.0681 H   0  0  0  0  0  0  0  0  0  0  0  0
  127.9417  125.8702   71.4854 H   0  0  0  0  0  0  0  0  0  0  0  0
  1  2  1  0
  2  3  1  0
  3  4  1  0
  4  5  2  0
  4  6  1  0
  6  7  2  0
  7  8  1  0
  8  9  2  0
  9 10  1  0
 10 11  1  0
 11 12  2  0
 11 13  1  0
 13 14  1  0
 14 15  1  0
 15 16  2  0
 16 17  1  0
 17 18  1  0
 17 19  2  0
 19 20  1  0
 20 21  1  0
 21 22  2  0
 22 23  1  0
 23 24  2  0
 24 25  1  0
 25 26  2  0
 20 27  2  0
 27 28  1  0
 28 29  1  0
  9 30  1  0
 30 31  2  0
 31  6  1  0
 28 13  2  0
 27 15  1  0
 26 21  1  0
  1 32  1  0
  1 33  1  0
  1 34  1  0
  2 35  1  0
  2 36  1  0
  7 37  1  0
  8 38  1  0
 10 39  1  0
 18 40  1  0
 18 41  1  0
 18 42  1  0
 19 43  1  0
 22 44  1  0
 23 45  1  0
 24 46  1  0
 25 47  1  0
 26 48  1  0
 29 49  1  0
 29 50  1  0
 30 51  1  0
 31 52  1  0
M  END
>  <Binding energies>  (1) 
[-7.47]

>  <Ligand effiencies>  (1) 
[-0.21970588235294117]

>  <Interactions>  (1) 
["V-B:HIS:456:CE1:9041, V-A:ASP:366:CG:3212, V-A:LEU:475:CD2:4258, V-A:TYR:484:CZ:4346, V-A:GLU:543:CD:4908, V-A:ILE:369:CD1:3238, H-A:ARG:545:NH2:4928, V-A:GLY:454:CA:4048, V-A:HIS:456:CE1:4069, V-A:ILE:369:CG2:3236, V-B:HIS:456:CG:9037, V-A:GLU:543:CB:4906, V-B:TYR:539:CE2:9847, V-A:ASP:366:CB:3211, V-B:GLU:543:CG:9878, V-B:GLU:543:CB:9877, H-B:LYS:547:NZ:9922, H-A:LYS:547:NZ:4951, H-A:TYR:484:OH:4347, V-A:LYS:547:CE:4950, H-A:GLU:543:OE2:4910"]

$$$$
4eb_Grossjean_2025
     RDKit          3D

 49 52  0  0  0  0  0  0  0  0999 V2000
  129.7210  129.9850   73.3480 C   0  0  0  0  0  0  0  0  0  0  0  0
  130.1490  128.6340   73.4440 O   0  0  0  0  0  0  0  0  0  0  0  0
  129.3520  127.6180   73.0210 C   0  0  0  0  0  0  0  0  0  0  0  0
  128.5730  127.0120   73.7610 O   0  0  0  0  0  0  0  0  0  0  0  0
  129.5150  127.3050   71.5610 C   0  0  0  0  0  0  0  0  0  0  0  0
  130.4660  128.0110   70.8130 C   0  0  0  0  0  0  0  0  0  0  0  0
  130.6410  127.7450   69.4580 C   0  0  0  0  0  0  0  0  0  0  0  0
  129.8720  126.7690   68.8230 C   0  0  0  0  0  0  0  0  0  0  0  0
  130.1350  126.5850   67.4520 N   0  0  0  0  0  0  0  0  0  0  0  0
  130.1530  125.4530   66.7050 C   0  0  0  0  0  0  0  0  0  0  0  0
  129.9230  124.3270   67.1470 O   0  0  0  0  0  0  0  0  0  0  0  0
  130.4710  125.6450   65.2880 C   0  0  0  0  0  0  0  0  0  0  0  0
  130.0730  127.1630   64.4810 S   0  0  0  0  0  0  0  0  0  0  0  0
  130.7340  126.5880   62.9670 C   0  0  0  0  0  0  0  0  0  0  0  0
  130.7330  127.3420   61.8660 N   0  0  0  0  0  0  0  0  0  0  0  0
  131.2740  126.7790   60.7590 C   0  0  0  0  0  0  0  0  0  0  0  0
  131.2630  127.6540   59.5180 C   0  0  0  0  0  0  0  0  0  0  0  0
  131.8110  125.4940   60.7260 C   0  0  0  0  0  0  0  0  0  0  0  0
  131.8100  124.7070   61.8840 C   0  0  0  0  0  0  0  0  0  0  0  0
  132.3850  123.3430   61.8330 C   0  0  0  0  0  0  0  0  0  0  0  0
  131.7210  122.3270   61.1390 C   0  0  0  0  0  0  0  0  0  0  0  0
  132.2620  121.0440   61.0890 C   0  0  0  0  0  0  0  0  0  0  0  0
  133.4660  120.7780   61.7370 C   0  0  0  0  0  0  0  0  0  0  0  0
  134.1330  121.7840   62.4340 C   0  0  0  0  0  0  0  0  0  0  0  0
  133.5910  123.0650   62.4820 C   0  0  0  0  0  0  0  0  0  0  0  0
  131.2510  125.2620   63.0670 C   0  0  0  0  0  0  0  0  0  0  0  0
  131.0880  124.7480   64.4020 C   0  0  0  0  0  0  0  0  0  0  0  0
  131.5050  123.4900   64.7580 N   0  0  0  0  0  0  0  0  0  0  0  0
  128.9170  126.0560   69.5650 C   0  0  0  0  0  0  0  0  0  0  0  0
  128.7430  126.3240   70.9200 C   0  0  0  0  0  0  0  0  0  0  0  0
  129.5893  130.4006   74.3579 H   0  0  0  0  0  0  0  0  0  0  0  0
  130.4773  130.5716   72.8059 H   0  0  0  0  0  0  0  0  0  0  0  0
  128.7649  130.0291   72.8059 H   0  0  0  0  0  0  0  0  0  0  0  0
  131.0799  128.7825   71.3008 H   0  0  0  0  0  0  0  0  0  0  0  0
  131.3911  128.3083   68.8835 H   0  0  0  0  0  0  0  0  0  0  0  0
  130.3420  127.4390   66.9570 H   0  0  0  0  0  0  0  0  0  0  0  0
  131.2497  128.7128   59.8160 H   0  0  0  0  0  0  0  0  0  0  0  0
  132.1637  127.4528   58.9195 H   0  0  0  0  0  0  0  0  0  0  0  0
  130.3676  127.4302   58.9195 H   0  0  0  0  0  0  0  0  0  0  0  0
  132.2352  125.0982   59.7915 H   0  0  0  0  0  0  0  0  0  0  0  0
  130.7690  122.5411   60.6312 H   0  0  0  0  0  0  0  0  0  0  0  0
  131.7410  120.2453   60.5407 H   0  0  0  0  0  0  0  0  0  0  0  0
  133.8940  119.7654   61.6983 H   0  0  0  0  0  0  0  0  0  0  0  0
  135.0832  121.5665   62.9437 H   0  0  0  0  0  0  0  0  0  0  0  0
  134.1136  123.8611   63.0325 H   0  0  0  0  0  0  0  0  0  0  0  0
  131.9460  122.8690   64.0940 H   0  0  0  0  0  0  0  0  0  0  0  0
  131.3840  123.1410   65.6990 H   0  0  0  0  0  0  0  0  0  0  0  0
  128.3052  125.2843   69.0749 H   0  0  0  0  0  0  0  0  0  0  0  0
  127.9925  125.7609   71.4942 H   0  0  0  0  0  0  0  0  0  0  0  0
  1  2  1  0
  2  3  1  0
  3  4  2  0
  3  5  1  0
  5  6  2  0
  6  7  1  0
  7  8  2  0
  8  9  1  0
  9 10  1  0
 10 11  2  0
 10 12  1  0
 12 13  1  0
 13 14  1  0
 14 15  2  0
 15 16  1  0
 16 17  1  0
 16 18  2  0
 18 19  1  0
 19 20  1  0
 20 21  2  0
 21 22  1  0
 22 23  2  0
 23 24  1  0
 24 25  2  0
 19 26  2  0
 26 27  1  0
 27 28  1  0
  8 29  1  0
 29 30  2  0
 30  5  1  0
 27 12  2  0
 26 14  1  0
 25 20  1  0
  1 31  1  0
  1 32  1  0
  1 33  1  0
  6 34  1  0
  7 35  1  0
  9 36  1  0
 17 37  1  0
 17 38  1  0
 17 39  1  0
 18 40  1  0
 21 41  1  0
 22 42  1  0
 23 43  1  0
 24 44  1  0
 25 45  1  0
 28 46  1  0
 28 47  1  0
 29 48  1  0
 30 49  1  0
M  END
>  <Binding energies>  (1) 
[-7.4]

>  <Ligand effiencies>  (1) 
[-0.22424242424242424]

>  <Interactions>  (1) 
["V-B:HIS:456:CE1:9041, V-A:ASP:366:CG:3212, V-A:LEU:475:CD2:4258, V-A:TYR:484:CZ:4346, V-A:GLU:543:CD:4908, V-A:ILE:369:CD1:3238, V-A:GLY:454:CA:4048, V-A:HIS:456:CE1:4069, V-A:ILE:369:CG2:3236, V-A:GLU:543:CB:4906, V-B:TYR:539:CE2:9847, V-A:ASP:366:CB:3211, V-B:GLU:543:CG:9878, V-B:GLU:543:CB:9877, H-B:LYS:547:NZ:9922, H-A:LYS:547:NZ:4951, H-A:TYR:484:OH:4347, H-A:GLU:543:OE2:4910, V-A:ILE:369:CG1:3237"]

$$$$
8a_Ghoteimi_2023
     RDKit          3D

 67 71  0  0  0  0  0  0  0  0999 V2000
  126.4940  136.7450   63.0190 C   0  0  0  0  0  0  0  0  0  0  0  0
  127.2980  136.6430   61.7200 C   0  0  0  0  0  0  0  0  0  0  0  0
  126.4170  136.3680   60.6380 O   0  0  0  0  0  0  0  0  0  0  0  0
  125.5740  135.3020   60.6740 C   0  0  0  0  0  0  0  0  0  0  0  0
  124.5050  135.2600   60.0590 O   0  0  0  0  0  0  0  0  0  0  0  0
  126.0710  134.1820   61.5420 C   0  0  0  0  0  0  0  0  0  0  0  0
  125.4240  133.9180   62.7550 C   0  0  0  0  0  0  0  0  0  0  0  0
  125.8610  132.8880   63.5820 C   0  0  0  0  0  0  0  0  0  0  0  0
  126.9530  132.1000   63.2160 C   0  0  0  0  0  0  0  0  0  0  0  0
  127.3080  131.0900   64.1320 N   0  0  0  0  0  0  0  0  0  0  0  0
  126.8840  129.8060   64.2300 C   0  0  0  0  0  0  0  0  0  0  0  0
  126.0590  129.2880   63.4770 O   0  0  0  0  0  0  0  0  0  0  0  0
  127.4870  129.0310   65.3190 C   0  0  0  0  0  0  0  0  0  0  0  0
  126.8120  129.1060   66.9460 S   0  0  0  0  0  0  0  0  0  0  0  0
  128.0280  128.0050   67.5520 C   0  0  0  0  0  0  0  0  0  0  0  0
  128.0740  127.6500   68.8360 N   0  0  0  0  0  0  0  0  0  0  0  0
  129.0630  126.7930   69.2040 C   0  0  0  0  0  0  0  0  0  0  0  0
  129.1080  126.4250   70.6520 C   0  0  0  0  0  0  0  0  0  0  0  0
  129.6410  127.3040   71.6060 C   0  0  0  0  0  0  0  0  0  0  0  0
  129.6910  126.9510   72.9510 C   0  0  0  0  0  0  0  0  0  0  0  0
  129.2090  125.7150   73.3780 C   0  0  0  0  0  0  0  0  0  0  0  0
  129.3020  125.4490   74.7310 O   0  0  0  0  0  0  0  0  0  0  0  0
  130.2430  124.4830   75.1850 C   0  0  0  0  0  0  0  0  0  0  0  0
  128.6690  124.8310   72.4330 C   0  0  0  0  0  0  0  0  0  0  0  0
  128.6230  125.1860   71.0870 C   0  0  0  0  0  0  0  0  0  0  0  0
  129.9920  126.2900   68.2910 C   0  0  0  0  0  0  0  0  0  0  0  0
  129.9370  126.6470   66.9390 C   0  0  0  0  0  0  0  0  0  0  0  0
  130.9300  126.0570   66.0040 C   0  0  0  0  0  0  0  0  0  0  0  0
  132.2880  126.0570   66.3310 C   0  0  0  0  0  0  0  0  0  0  0  0
  133.2200  125.4880   65.4670 C   0  0  0  0  0  0  0  0  0  0  0  0
  132.8110  124.9050   64.2670 C   0  0  0  0  0  0  0  0  0  0  0  0
  133.8050  124.3640   63.4740 O   0  0  0  0  0  0  0  0  0  0  0  0
  133.8580  124.7100   62.0960 C   0  0  0  0  0  0  0  0  0  0  0  0
  131.4460  124.8970   63.9410 C   0  0  0  0  0  0  0  0  0  0  0  0
  130.5160  125.4660   64.8080 C   0  0  0  0  0  0  0  0  0  0  0  0
  128.9240  127.5610   66.5350 C   0  0  0  0  0  0  0  0  0  0  0  0
  128.6020  128.1780   65.2720 C   0  0  0  0  0  0  0  0  0  0  0  0
  129.3380  127.9570   64.1350 N   0  0  0  0  0  0  0  0  0  0  0  0
  127.6050  132.3530   61.9990 C   0  0  0  0  0  0  0  0  0  0  0  0
  127.1660  133.3850   61.1730 C   0  0  0  0  0  0  0  0  0  0  0  0
  127.1743  136.6587   63.8790 H   0  0  0  0  0  0  0  0  0  0  0  0
  125.9780  137.7158   63.0556 H   0  0  0  0  0  0  0  0  0  0  0  0
  125.7520  135.9338   63.0556 H   0  0  0  0  0  0  0  0  0  0  0  0
  127.8194  137.5939   61.5358 H   0  0  0  0  0  0  0  0  0  0  0  0
  128.0355  135.8316   61.8078 H   0  0  0  0  0  0  0  0  0  0  0  0
  124.5619  134.5307   63.0572 H   0  0  0  0  0  0  0  0  0  0  0  0
  125.3416  132.6933   64.5319 H   0  0  0  0  0  0  0  0  0  0  0  0
  127.9960  131.3770   64.8130 H   0  0  0  0  0  0  0  0  0  0  0  0
  130.0242  128.2845   71.2871 H   0  0  0  0  0  0  0  0  0  0  0  0
  130.1147  127.6536   73.6837 H   0  0  0  0  0  0  0  0  0  0  0  0
  130.2546  124.4711   76.2849 H   0  0  0  0  0  0  0  0  0  0  0  0
  129.9576  123.4889   74.8105 H   0  0  0  0  0  0  0  0  0  0  0  0
  131.2443  124.7423   74.8105 H   0  0  0  0  0  0  0  0  0  0  0  0
  128.2804  123.8539   72.7558 H   0  0  0  0  0  0  0  0  0  0  0  0
  128.1994  124.4825   70.3551 H   0  0  0  0  0  0  0  0  0  0  0  0
  130.7779  125.6037   68.6393 H   0  0  0  0  0  0  0  0  0  0  0  0
  132.6230  126.5090   67.2762 H   0  0  0  0  0  0  0  0  0  0  0  0
  134.2874  125.4982   65.7326 H   0  0  0  0  0  0  0  0  0  0  0  0
  134.0239  125.7928   61.9960 H   0  0  0  0  0  0  0  0  0  0  0  0
  134.6834  124.1665   61.6130 H   0  0  0  0  0  0  0  0  0  0  0  0
  132.9078  124.4384   61.6130 H   0  0  0  0  0  0  0  0  0  0  0  0
  131.1097  124.4403   62.9985 H   0  0  0  0  0  0  0  0  0  0  0  0
  129.4471  125.4498   64.5487 H   0  0  0  0  0  0  0  0  0  0  0  0
  130.2130  128.4370   63.9730 H   0  0  0  0  0  0  0  0  0  0  0  0
  129.0360  127.3080   63.4240 H   0  0  0  0  0  0  0  0  0  0  0  0
  128.4638  131.7354   61.6972 H   0  0  0  0  0  0  0  0  0  0  0  0
  127.6829  133.5775   60.2213 H   0  0  0  0  0  0  0  0  0  0  0  0
  1  2  1  0
  2  3  1  0
  3  4  1  0
  4  5  2  0
  4  6  1  0
  6  7  2  0
  7  8  1  0
  8  9  2  0
  9 10  1  0
 10 11  1  0
 11 12  2  0
 11 13  1  0
 13 14  1  0
 14 15  1  0
 15 16  2  0
 16 17  1  0
 17 18  1  0
 18 19  2  0
 19 20  1  0
 20 21  2  0
 21 22  1  0
 22 23  1  0
 21 24  1  0
 24 25  2  0
 17 26  2  0
 26 27  1  0
 27 28  1  0
 28 29  2  0
 29 30  1  0
 30 31  2  0
 31 32  1  0
 32 33  1  0
 31 34  1  0
 34 35  2  0
 27 36  2  0
 36 37  1  0
 37 38  1  0
  9 39  1  0
 39 40  2  0
 40  6  1  0
 37 13  2  0
 36 15  1  0
 25 18  1  0
 35 28  1  0
  1 41  1  0
  1 42  1  0
  1 43  1  0
  2 44  1  0
  2 45  1  0
  7 46  1  0
  8 47  1  0
 10 48  1  0
 19 49  1  0
 20 50  1  0
 23 51  1  0
 23 52  1  0
 23 53  1  0
 24 54  1  0
 25 55  1  0
 26 56  1  0
 29 57  1  0
 30 58  1  0
 33 59  1  0
 33 60  1  0
 33 61  1  0
 34 62  1  0
 35 63  1  0
 38 64  1  0
 38 65  1  0
 39 66  1  0
 40 67  1  0
M  END
>  <Binding energies>  (1) 
[-8.28]

>  <Ligand effiencies>  (1) 
[-0.1925581395348837]

>  <Interactions>  (1) 
["V-B:HIS:456:CE1:9041, V-A:ARG:545:CZ:4926, V-B:GLU:543:CD:9879, V-A:ASP:366:CG:3212, V-A:GLU:543:CD:4908, V-A:ILE:369:CD1:3238, V-B:TRP:381:CZ2:8341, V-A:GLU:543:CG:4907, V-B:PRO:482:CB:9297, V-B:PRO:482:CG:9298, V-B:LEU:475:CD1:9229, V-B:TRP:381:CH2:8343, V-A:TYR:539:CE2:4876, V-A:TYR:539:CD2:4874, V-A:HIS:456:CE1:4069, V-A:HIS:456:CD2:4067, V-B:GLU:543:C:9873, H-B:GLU:543:OE2:9881, H-B:ARG:545:NH2:9899, H-B:LYS:547:NZ:9922, H-A:GLY:454:N:4049, V-A:ARG:545:CD:4923, H-A:GLU:543:OE1:4909, H-A:GLU:543:OE2:4910, V-B:TRP:381:CZ3:8342"]

$$$$
8b_Ghoteimi_2023
     RDKit          3D

 54 58  0  0  0  0  0  0  0  0999 V2000
  129.0850  129.3040   75.3590 C   0  0  0  0  0  0  0  0  0  0  0  0
  130.1180  128.8670   74.4820 O   0  0  0  0  0  0  0  0  0  0  0  0
  129.8580  128.7780   73.1280 C   0  0  0  0  0  0  0  0  0  0  0  0
  129.8340  127.4970   72.5810 C   0  0  0  0  0  0  0  0  0  0  0  0
  129.5820  127.3110   71.2260 C   0  0  0  0  0  0  0  0  0  0  0  0
  129.3470  128.4040   70.3790 C   0  0  0  0  0  0  0  0  0  0  0  0
  129.0770  128.2100   68.9210 C   0  0  0  0  0  0  0  0  0  0  0  0
  128.2690  129.0940   68.1970 C   0  0  0  0  0  0  0  0  0  0  0  0
  128.0330  128.8900   66.8340 C   0  0  0  0  0  0  0  0  0  0  0  0
  127.1650  129.8390   66.0990 C   0  0  0  0  0  0  0  0  0  0  0  0
  125.7880  129.6210   66.0270 C   0  0  0  0  0  0  0  0  0  0  0  0
  124.9730  130.5200   65.3430 C   0  0  0  0  0  0  0  0  0  0  0  0
  125.5200  131.6430   64.7220 C   0  0  0  0  0  0  0  0  0  0  0  0
  124.6350  132.4800   64.0690 O   0  0  0  0  0  0  0  0  0  0  0  0
  123.9280  131.9930   62.9330 C   0  0  0  0  0  0  0  0  0  0  0  0
  126.9050  131.8570   64.7930 C   0  0  0  0  0  0  0  0  0  0  0  0
  127.7200  130.9590   65.4770 C   0  0  0  0  0  0  0  0  0  0  0  0
  128.6420  127.7680   66.2100 C   0  0  0  0  0  0  0  0  0  0  0  0
  128.6200  127.2710   64.8590 C   0  0  0  0  0  0  0  0  0  0  0  0
  127.9180  127.8940   63.8590 N   0  0  0  0  0  0  0  0  0  0  0  0
  129.3790  126.1050   64.6700 C   0  0  0  0  0  0  0  0  0  0  0  0
  129.5820  125.3400   63.4380 C   0  0  0  0  0  0  0  0  0  0  0  0
  130.5800  125.5260   62.7390 O   0  0  0  0  0  0  0  0  0  0  0  0
  128.6080  124.4420   63.1440 N   0  0  0  0  0  0  0  0  0  0  0  0
  128.5470  123.5890   62.0510 C   0  0  0  0  0  0  0  0  0  0  0  0
  129.6190  123.3860   61.1820 C   0  0  0  0  0  0  0  0  0  0  0  0
  129.1570  122.4890   60.2470 C   0  0  0  0  0  0  0  0  0  0  0  0
  127.8760  122.1640   60.5390 O   0  0  0  0  0  0  0  0  0  0  0  0
  127.5000  122.8660   61.6850 N   0  0  0  0  0  0  0  0  0  0  0  0
  130.1450  125.5930   66.1750 S   0  0  0  0  0  0  0  0  0  0  0  0
  129.4470  126.9400   67.0440 C   0  0  0  0  0  0  0  0  0  0  0  0
  129.6710  127.1310   68.3440 N   0  0  0  0  0  0  0  0  0  0  0  0
  129.3700  129.6900   70.9360 C   0  0  0  0  0  0  0  0  0  0  0  0
  129.6230  129.8800   72.2920 C   0  0  0  0  0  0  0  0  0  0  0  0
  129.4073  129.1677   76.4018 H   0  0  0  0  0  0  0  0  0  0  0  0
  128.8747  130.3682   75.1764 H   0  0  0  0  0  0  0  0  0  0  0  0
  128.1749  128.7138   75.1764 H   0  0  0  0  0  0  0  0  0  0  0  0
  130.0160  126.6251   73.2264 H   0  0  0  0  0  0  0  0  0  0  0  0
  129.5668  126.2918   70.8125 H   0  0  0  0  0  0  0  0  0  0  0  0
  127.8152  129.9576   68.7051 H   0  0  0  0  0  0  0  0  0  0  0  0
  125.3458  128.7378   66.5112 H   0  0  0  0  0  0  0  0  0  0  0  0
  123.8886  130.3429   65.2921 H   0  0  0  0  0  0  0  0  0  0  0  0
  123.0646  131.3982   63.2658 H   0  0  0  0  0  0  0  0  0  0  0  0
  123.5771  132.8419   62.3278 H   0  0  0  0  0  0  0  0  0  0  0  0
  124.5961  131.3626   62.3278 H   0  0  0  0  0  0  0  0  0  0  0  0
  127.3487  132.7380   64.3062 H   0  0  0  0  0  0  0  0  0  0  0  0
  128.8050  131.1326   65.5275 H   0  0  0  0  0  0  0  0  0  0  0  0
  128.3420  128.6120   63.2880 H   0  0  0  0  0  0  0  0  0  0  0  0
  126.9550  127.6610   63.6610 H   0  0  0  0  0  0  0  0  0  0  0  0
  127.8350  124.3760   63.7900 H   0  0  0  0  0  0  0  0  0  0  0  0
  130.6178  123.8441   61.2333 H   0  0  0  0  0  0  0  0  0  0  0  0
  129.7363  122.0982   59.3975 H   0  0  0  0  0  0  0  0  0  0  0  0
  129.1854  130.5625   70.2921 H   0  0  0  0  0  0  0  0  0  0  0  0
  129.6387  130.8977   72.7093 H   0  0  0  0  0  0  0  0  0  0  0  0
  1  2  1  0
  2  3  1  0
  3  4  2  0
  4  5  1  0
  5  6  2  0
  6  7  1  0
  7  8  2  0
  8  9  1  0
  9 10  1  0
 10 11  2  0
 11 12  1  0
 12 13  2  0
 13 14  1  0
 14 15  1  0
 13 16  1  0
 16 17  2  0
  9 18  2  0
 18 19  1  0
 19 20  1  0
 19 21  2  0
 21 22  1  0
 22 23  2  0
 22 24  1  0
 24 25  1  0
 25 26  1  0
 26 27  2  0
 27 28  1  0
 28 29  1  0
 21 30  1  0
 30 31  1  0
 31 32  2  0
  6 33  1  0
 33 34  2  0
 34  3  1  0
 32  7  1  0
 17 10  1  0
 31 18  1  0
 29 25  2  0
  1 35  1  0
  1 36  1  0
  1 37  1  0
  4 38  1  0
  5 39  1  0
  8 40  1  0
 11 41  1  0
 12 42  1  0
 15 43  1  0
 15 44  1  0
 15 45  1  0
 16 46  1  0
 17 47  1  0
 20 48  1  0
 20 49  1  0
 24 50  1  0
 26 51  1  0
 27 52  1  0
 33 53  1  0
 34 54  1  0
M  END
>  <Binding energies>  (1) 
[-8.53]

>  <Ligand effiencies>  (1) 
[-0.23054054054054052]

>  <Interactions>  (1) 
["V-B:HIS:456:CE1:9041, V-B:GLU:543:CD:9879, V-A:GLU:543:CD:4908, V-B:GLY:454:CA:9020, V-B:ILE:369:CD1:8210, V-A:GLU:543:CG:4907, V-B:LEU:475:CD1:9229, V-A:HIS:456:CE1:4069, V-B:TYR:539:CD2:9845, V-A:GLU:543:C:4902, V-A:GLU:543:CB:4906, V-B:TYR:539:CE2:9847, V-B:ALA:541:CB:9863, V-B:GLU:543:CG:9878, H-B:GLY:454:N:9021, H-B:GLU:543:OE2:9881, H-B:GLU:543:OE1:9880, H-A:LYS:547:NZ:4951, V-A:LYS:547:CE:4950, H-B:ALA:541:N:9862"]

$$$$
8c_Ghoteimi_2023
     RDKit          3D

 54 58  0  0  0  0  0  0  0  0999 V2000
  129.1990  129.6600   75.1510 C   0  0  0  0  0  0  0  0  0  0  0  0
  130.1230  128.8740   74.4080 O   0  0  0  0  0  0  0  0  0  0  0  0
  129.8820  128.6360   73.0680 C   0  0  0  0  0  0  0  0  0  0  0  0
  129.6330  129.7530   72.2720 C   0  0  0  0  0  0  0  0  0  0  0  0
  129.3760  129.6080   70.9120 C   0  0  0  0  0  0  0  0  0  0  0  0
  129.3630  128.3410   70.3110 C   0  0  0  0  0  0  0  0  0  0  0  0
  129.0850  128.1800   68.8500 C   0  0  0  0  0  0  0  0  0  0  0  0
  128.2350  129.0490   68.1610 C   0  0  0  0  0  0  0  0  0  0  0  0
  127.9930  128.8770   66.7940 C   0  0  0  0  0  0  0  0  0  0  0  0
  127.0810  129.8110   66.0950 C   0  0  0  0  0  0  0  0  0  0  0  0
  127.5780  130.9810   65.5180 C   0  0  0  0  0  0  0  0  0  0  0  0
  126.7210  131.8530   64.8530 C   0  0  0  0  0  0  0  0  0  0  0  0
  125.3570  131.5720   64.7580 C   0  0  0  0  0  0  0  0  0  0  0  0
  124.5830  132.4920   64.0780 O   0  0  0  0  0  0  0  0  0  0  0  0
  123.8590  132.0750   62.9260 C   0  0  0  0  0  0  0  0  0  0  0  0
  124.8580  130.3970   65.3420 C   0  0  0  0  0  0  0  0  0  0  0  0
  125.7170  129.5250   66.0060 C   0  0  0  0  0  0  0  0  0  0  0  0
  128.6400  127.8000   66.1320 C   0  0  0  0  0  0  0  0  0  0  0  0
  128.6230  127.3420   64.7680 C   0  0  0  0  0  0  0  0  0  0  0  0
  127.8840  127.9630   63.7920 N   0  0  0  0  0  0  0  0  0  0  0  0
  129.4260  126.2130   64.5360 C   0  0  0  0  0  0  0  0  0  0  0  0
  129.6450  125.4920   63.2810 C   0  0  0  0  0  0  0  0  0  0  0  0
  130.7190  125.5830   62.6810 O   0  0  0  0  0  0  0  0  0  0  0  0
  128.6000  124.7440   62.8500 N   0  0  0  0  0  0  0  0  0  0  0  0
  128.5470  123.9670   61.7010 C   0  0  0  0  0  0  0  0  0  0  0  0
  127.8370  122.8800   61.4930 N   0  0  0  0  0  0  0  0  0  0  0  0
  128.0280  122.4000   60.2800 C   0  0  0  0  0  0  0  0  0  0  0  0
  128.9150  123.1050   59.4720 C   0  0  0  0  0  0  0  0  0  0  0  0
  129.5260  124.4690   60.3610 S   0  0  0  0  0  0  0  0  0  0  0  0
  130.2310  125.6910   66.0160 S   0  0  0  0  0  0  0  0  0  0  0  0
  129.4880  126.9810   66.9320 C   0  0  0  0  0  0  0  0  0  0  0  0
  129.7170  127.1430   68.2350 N   0  0  0  0  0  0  0  0  0  0  0  0
  129.6170  127.2240   71.1180 C   0  0  0  0  0  0  0  0  0  0  0  0
  129.8730  127.3640   72.4790 C   0  0  0  0  0  0  0  0  0  0  0  0
  129.3734  129.5116   76.2269 H   0  0  0  0  0  0  0  0  0  0  0  0
  129.3365  130.7222   74.9003 H   0  0  0  0  0  0  0  0  0  0  0  0
  128.1726  129.3540   74.9003 H   0  0  0  0  0  0  0  0  0  0  0  0
  129.6397  130.7566   72.7223 H   0  0  0  0  0  0  0  0  0  0  0  0
  129.1802  130.5004   70.2994 H   0  0  0  0  0  0  0  0  0  0  0  0
  127.7510  129.8772   68.6993 H   0  0  0  0  0  0  0  0  0  0  0  0
  128.6506  131.2145   65.5892 H   0  0  0  0  0  0  0  0  0  0  0  0
  127.1218  132.7711   64.3986 H   0  0  0  0  0  0  0  0  0  0  0  0
  122.9450  131.5485   63.2381 H   0  0  0  0  0  0  0  0  0  0  0  0
  123.5879  132.9553   62.3247 H   0  0  0  0  0  0  0  0  0  0  0  0
  124.4845  131.3988   62.3247 H   0  0  0  0  0  0  0  0  0  0  0  0
  123.7850  130.1644   65.2749 H   0  0  0  0  0  0  0  0  0  0  0  0
  125.3193  128.6066   66.4625 H   0  0  0  0  0  0  0  0  0  0  0  0
  126.9240  127.7030   63.6130 H   0  0  0  0  0  0  0  0  0  0  0  0
  128.2720  128.6990   63.2200 H   0  0  0  0  0  0  0  0  0  0  0  0
  127.7670  124.7410   63.4210 H   0  0  0  0  0  0  0  0  0  0  0  0
  127.5151  121.4933   59.9265 H   0  0  0  0  0  0  0  0  0  0  0  0
  129.1857  122.8421   58.4387 H   0  0  0  0  0  0  0  0  0  0  0  0
  129.6140  126.2200   70.6686 H   0  0  0  0  0  0  0  0  0  0  0  0
  130.0689  126.4735   73.0944 H   0  0  0  0  0  0  0  0  0  0  0  0
  1  2  1  0
  2  3  1  0
  3  4  2  0
  4  5  1  0
  5  6  2  0
  6  7  1  0
  7  8  2  0
  8  9  1  0
  9 10  1  0
 10 11  2  0
 11 12  1  0
 12 13  2  0
 13 14  1  0
 14 15  1  0
 13 16  1  0
 16 17  2  0
  9 18  2  0
 18 19  1  0
 19 20  1  0
 19 21  2  0
 21 22  1  0
 22 23  2  0
 22 24  1  0
 24 25  1  0
 25 26  2  0
 26 27  1  0
 27 28  2  0
 28 29  1  0
 21 30  1  0
 30 31  1  0
 31 32  2  0
  6 33  1  0
 33 34  2  0
 34  3  1  0
 32  7  1  0
 17 10  1  0
 31 18  1  0
 29 25  1  0
  1 35  1  0
  1 36  1  0
  1 37  1  0
  4 38  1  0
  5 39  1  0
  8 40  1  0
 11 41  1  0
 12 42  1  0
 15 43  1  0
 15 44  1  0
 15 45  1  0
 16 46  1  0
 17 47  1  0
 20 48  1  0
 20 49  1  0
 24 50  1  0
 27 51  1  0
 28 52  1  0
 33 53  1  0
 34 54  1  0
M  END
>  <Binding energies>  (1) 
[-8.29]

>  <Ligand effiencies>  (1) 
[-0.22405405405405404]

>  <Interactions>  (1) 
["V-B:HIS:456:CE1:9041, V-B:GLU:543:CD:9879, V-A:GLU:543:CD:4908, V-B:GLY:454:CA:9020, V-B:ILE:369:CD1:8210, V-A:GLU:543:CG:4907, V-B:LEU:475:CD1:9229, V-A:HIS:456:CE1:4069, V-B:TYR:539:CD2:9845, V-A:GLU:543:C:4902, V-A:GLU:543:CB:4906, V-B:TYR:539:CE2:9847, V-B:GLU:543:CG:9878, H-B:GLY:454:N:9021, H-B:GLU:543:OE2:9881, H-B:GLU:543:OE1:9880, H-A:LYS:547:NZ:4951, V-B:PRO:540:C:9852, V-A:LYS:547:CE:4950, V-B:PRO:540:CA:9854, H-B:ALA:541:N:9862"]

$$$$
8d_Ghoteimi_2023
     RDKit          3D

 50 53  0  0  0  0  0  0  0  0999 V2000
  124.5040  129.5810   66.9560 C   0  0  0  0  0  0  0  0  0  0  0  0
  125.0080  130.3600   65.8800 O   0  0  0  0  0  0  0  0  0  0  0  0
  126.3050  130.7640   65.8610 C   0  0  0  0  0  0  0  0  0  0  0  0
  126.6600  131.9390   65.7340 O   0  0  0  0  0  0  0  0  0  0  0  0
  127.2600  129.6440   66.0090 C   0  0  0  0  0  0  0  0  0  0  0  0
  127.6980  128.6700   64.6040 S   0  0  0  0  0  0  0  0  0  0  0  0
  128.7570  127.6750   65.5770 C   0  0  0  0  0  0  0  0  0  0  0  0
  129.4500  126.6630   65.0520 N   0  0  0  0  0  0  0  0  0  0  0  0
  130.2460  125.9540   65.8970 C   0  0  0  0  0  0  0  0  0  0  0  0
  131.0080  124.8220   65.2840 C   0  0  0  0  0  0  0  0  0  0  0  0
  132.3370  124.9830   64.8700 C   0  0  0  0  0  0  0  0  0  0  0  0
  133.0420  123.9270   64.3000 C   0  0  0  0  0  0  0  0  0  0  0  0
  132.4370  122.6830   64.1280 C   0  0  0  0  0  0  0  0  0  0  0  0
  133.2110  121.6930   63.5540 O   0  0  0  0  0  0  0  0  0  0  0  0
  133.4830  121.7460   62.1580 C   0  0  0  0  0  0  0  0  0  0  0  0
  131.1080  122.5090   64.5400 C   0  0  0  0  0  0  0  0  0  0  0  0
  130.4070  123.5690   65.1110 C   0  0  0  0  0  0  0  0  0  0  0  0
  130.3410  126.2530   67.2590 C   0  0  0  0  0  0  0  0  0  0  0  0
  129.6170  127.3160   67.8080 C   0  0  0  0  0  0  0  0  0  0  0  0
  129.7460  127.6130   69.2540 C   0  0  0  0  0  0  0  0  0  0  0  0
  130.7230  128.5030   69.7030 C   0  0  0  0  0  0  0  0  0  0  0  0
  130.8500  128.7760   71.0630 C   0  0  0  0  0  0  0  0  0  0  0  0
  130.0030  128.1680   71.9900 C   0  0  0  0  0  0  0  0  0  0  0  0
  130.2030  128.4970   73.3160 O   0  0  0  0  0  0  0  0  0  0  0  0
  129.4060  129.5180   73.9060 C   0  0  0  0  0  0  0  0  0  0  0  0
  129.0180  127.2750   71.5350 C   0  0  0  0  0  0  0  0  0  0  0  0
  128.8930  127.0030   70.1750 C   0  0  0  0  0  0  0  0  0  0  0  0
  128.7820  128.0710   66.9440 C   0  0  0  0  0  0  0  0  0  0  0  0
  127.9170  129.1980   67.1620 C   0  0  0  0  0  0  0  0  0  0  0  0
  127.7520  129.7760   68.3950 N   0  0  0  0  0  0  0  0  0  0  0  0
  124.8006  130.0394   67.9109 H   0  0  0  0  0  0  0  0  0  0  0  0
  123.4065  129.5381   66.8951 H   0  0  0  0  0  0  0  0  0  0  0  0
  124.9147  128.5624   66.8951 H   0  0  0  0  0  0  0  0  0  0  0  0
  132.8301  125.9580   64.9973 H   0  0  0  0  0  0  0  0  0  0  0  0
  134.0848  124.0752   63.9827 H   0  0  0  0  0  0  0  0  0  0  0  0
  134.5515  121.9542   62.0003 H   0  0  0  0  0  0  0  0  0  0  0  0
  133.2256  120.7808   61.6974 H   0  0  0  0  0  0  0  0  0  0  0  0
  132.8821  122.5439   61.6974 H   0  0  0  0  0  0  0  0  0  0  0  0
  130.6175  121.5328   64.4120 H   0  0  0  0  0  0  0  0  0  0  0  0
  129.3652  123.4194   65.4309 H   0  0  0  0  0  0  0  0  0  0  0  0
  130.9918  125.6461   67.9056 H   0  0  0  0  0  0  0  0  0  0  0  0
  131.3946  128.9902   68.9808 H   0  0  0  0  0  0  0  0  0  0  0  0
  131.6243  129.4766   71.4089 H   0  0  0  0  0  0  0  0  0  0  0  0
  129.4652  129.4421   75.0018 H   0  0  0  0  0  0  0  0  0  0  0  0
  129.7764  130.5031   73.5861 H   0  0  0  0  0  0  0  0  0  0  0  0
  128.3604  129.3978   73.5861 H   0  0  0  0  0  0  0  0  0  0  0  0
  128.3435  126.7892   72.2555 H   0  0  0  0  0  0  0  0  0  0  0  0
  128.1187  126.3044   69.8251 H   0  0  0  0  0  0  0  0  0  0  0  0
  127.1180  130.5500   68.5340 H   0  0  0  0  0  0  0  0  0  0  0  0
  128.2530  129.4450   69.2070 H   0  0  0  0  0  0  0  0  0  0  0  0
  1  2  1  0
  2  3  1  0
  3  4  2  0
  3  5  1  0
  5  6  1  0
  6  7  1  0
  7  8  2  0
  8  9  1  0
  9 10  1  0
 10 11  2  0
 11 12  1  0
 12 13  2  0
 13 14  1  0
 14 15  1  0
 13 16  1  0
 16 17  2  0
  9 18  2  0
 18 19  1  0
 19 20  1  0
 20 21  2  0
 21 22  1  0
 22 23  2  0
 23 24  1  0
 24 25  1  0
 23 26  1  0
 26 27  2  0
 19 28  2  0
 28 29  1  0
 29 30  1  0
 29  5  2  0
 28  7  1  0
 17 10  1  0
 27 20  1  0
  1 31  1  0
  1 32  1  0
  1 33  1  0
 11 34  1  0
 12 35  1  0
 15 36  1  0
 15 37  1  0
 15 38  1  0
 16 39  1  0
 17 40  1  0
 18 41  1  0
 21 42  1  0
 22 43  1  0
 25 44  1  0
 25 45  1  0
 25 46  1  0
 26 47  1  0
 27 48  1  0
 30 49  1  0
 30 50  1  0
M  END
>  <Binding energies>  (1) 
[-7.05]

>  <Ligand effiencies>  (1) 
[-0.2203125]

>  <Interactions>  (1) 
["V-B:HIS:456:CE1:9041, V-B:GLU:543:CD:9879, V-A:LEU:475:CD2:4258, V-A:TYR:484:CZ:4346, V-A:GLU:543:CD:4908, V-A:ILE:369:CD1:3238, V-A:GLU:543:CG:4907, V-A:GLY:454:CA:4048, V-A:HIS:456:CE1:4069, V-A:GLU:543:C:4902, V-B:HIS:456:CD2:9039, V-A:ILE:369:CG2:3236, V-A:GLU:543:CB:4906, V-B:GLU:543:CG:9878, V-B:TYR:484:CE1:9316, H-B:GLY:454:N:9021, H-B:TYR:484:OH:9319, H-A:LYS:547:NZ:4951, V-A:LYS:547:CE:4950, H-B:HIS:456:NE2:9042, V-B:TYR:484:CZ:9318, V-B:ARG:545:CG:9893, H-A:GLY:454:N:4049, V-B:ARG:545:CD:9894, V-A:TYR:484:CE1:4344"]

$$$$
9a_Ghoteimi_2023
     RDKit          3D

 85 91  0  0  0  0  0  0  0  0999 V2000
  127.6920  136.3900   75.6320 C   0  0  0  0  0  0  0  0  0  0  0  0
  129.0500  135.9920   75.0450 C   0  0  0  0  0  0  0  0  0  0  0  0
  129.4690  134.7580   75.6140 O   0  0  0  0  0  0  0  0  0  0  0  0
  128.6210  133.7020   75.7010 C   0  0  0  0  0  0  0  0  0  0  0  0
  127.9230  133.4700   76.6940 O   0  0  0  0  0  0  0  0  0  0  0  0
  128.6190  132.8380   74.4730 C   0  0  0  0  0  0  0  0  0  0  0  0
  129.5880  131.8360   74.3390 C   0  0  0  0  0  0  0  0  0  0  0  0
  129.6140  131.0200   73.2110 C   0  0  0  0  0  0  0  0  0  0  0  0
  128.6720  131.1870   72.1960 C   0  0  0  0  0  0  0  0  0  0  0  0
  128.7950  130.3060   71.1040 N   0  0  0  0  0  0  0  0  0  0  0  0
  128.9880  128.9640   71.0750 C   0  0  0  0  0  0  0  0  0  0  0  0
  129.0920  128.2580   72.0780 O   0  0  0  0  0  0  0  0  0  0  0  0
  129.0620  128.3710   69.7360 C   0  0  0  0  0  0  0  0  0  0  0  0
  129.8140  126.7920   69.5020 S   0  0  0  0  0  0  0  0  0  0  0  0
  129.4880  126.8420   67.7850 C   0  0  0  0  0  0  0  0  0  0  0  0
  129.8270  125.8360   66.9800 N   0  0  0  0  0  0  0  0  0  0  0  0
  129.5180  125.9680   65.6630 C   0  0  0  0  0  0  0  0  0  0  0  0
  129.8980  124.8230   64.7810 C   0  0  0  0  0  0  0  0  0  0  0  0
  130.9670  123.9870   65.1220 C   0  0  0  0  0  0  0  0  0  0  0  0
  131.3270  122.9170   64.3070 C   0  0  0  0  0  0  0  0  0  0  0  0
  130.6230  122.6350   63.1260 C   0  0  0  0  0  0  0  0  0  0  0  0
  130.9850  121.5760   62.2880 N   0  0  0  0  0  0  0  0  0  0  0  0
  129.9850  120.8650   61.4660 C   0  0  0  0  0  0  0  0  0  0  0  0
  130.4870  119.5210   60.8970 C   0  0  0  0  0  0  0  0  0  0  0  0
  131.6910  119.7190   60.1750 O   0  0  0  0  0  0  0  0  0  0  0  0
  132.7130  120.2510   61.0030 C   0  0  0  0  0  0  0  0  0  0  0  0
  132.2750  121.6170   61.5680 C   0  0  0  0  0  0  0  0  0  0  0  0
  129.5620  123.4850   62.7810 C   0  0  0  0  0  0  0  0  0  0  0  0
  129.2040  124.5560   63.5950 C   0  0  0  0  0  0  0  0  0  0  0  0
  128.9000  127.1120   65.1530 C   0  0  0  0  0  0  0  0  0  0  0  0
  128.5600  128.1790   65.9920 C   0  0  0  0  0  0  0  0  0  0  0  0
  127.9360  129.3870   65.3930 C   0  0  0  0  0  0  0  0  0  0  0  0
  128.5890  130.0980   64.3820 C   0  0  0  0  0  0  0  0  0  0  0  0
  127.9980  131.2210   63.8120 C   0  0  0  0  0  0  0  0  0  0  0  0
  126.7270  131.6540   64.2250 C   0  0  0  0  0  0  0  0  0  0  0  0
  126.1180  132.7850   63.6760 N   0  0  0  0  0  0  0  0  0  0  0  0
  124.6850  132.7320   63.3270 C   0  0  0  0  0  0  0  0  0  0  0  0
  124.0600  134.1250   63.0970 C   0  0  0  0  0  0  0  0  0  0  0  0
  124.7960  134.8310   62.1100 O   0  0  0  0  0  0  0  0  0  0  0  0
  126.1480  135.0170   62.4970 C   0  0  0  0  0  0  0  0  0  0  0  0
  126.8290  133.6470   62.7110 C   0  0  0  0  0  0  0  0  0  0  0  0
  126.0800  130.9310   65.2380 C   0  0  0  0  0  0  0  0  0  0  0  0
  126.6740  129.8110   65.8110 C   0  0  0  0  0  0  0  0  0  0  0  0
  128.8410  128.0470   67.3820 C   0  0  0  0  0  0  0  0  0  0  0  0
  128.5890  128.8930   68.5220 C   0  0  0  0  0  0  0  0  0  0  0  0
  127.9300  130.0910   68.4200 N   0  0  0  0  0  0  0  0  0  0  0  0
  127.6950  132.1860   72.3230 C   0  0  0  0  0  0  0  0  0  0  0  0
  127.6710  133.0020   73.4510 C   0  0  0  0  0  0  0  0  0  0  0  0
  127.7483  136.3735   76.7304 H   0  0  0  0  0  0  0  0  0  0  0  0
  127.4289  137.4030   75.2935 H   0  0  0  0  0  0  0  0  0  0  0  0
  126.9237  135.6792   75.2935 H   0  0  0  0  0  0  0  0  0  0  0  0
  128.9597  135.8810   73.9544 H   0  0  0  0  0  0  0  0  0  0  0  0
  129.7912  136.7718   75.2740 H   0  0  0  0  0  0  0  0  0  0  0  0
  130.3360  131.6921   75.1326 H   0  0  0  0  0  0  0  0  0  0  0  0
  130.3826  130.2384   73.1198 H   0  0  0  0  0  0  0  0  0  0  0  0
  128.7230  130.7570   70.2040 H   0  0  0  0  0  0  0  0  0  0  0  0
  131.5309  124.1778   66.0470 H   0  0  0  0  0  0  0  0  0  0  0  0
  132.1780  122.2817   64.5937 H   0  0  0  0  0  0  0  0  0  0  0  0
  129.1002  120.6687   62.0894 H   0  0  0  0  0  0  0  0  0  0  0  0
  129.7593  121.5123   60.6058 H   0  0  0  0  0  0  0  0  0  0  0  0
  130.6700  118.8205   61.7252 H   0  0  0  0  0  0  0  0  0  0  0  0
  129.7242  119.1081   60.2204 H   0  0  0  0  0  0  0  0  0  0  0  0
  132.9060  119.5575   61.8348 H   0  0  0  0  0  0  0  0  0  0  0  0
  133.6285  120.3828   60.4076 H   0  0  0  0  0  0  0  0  0  0  0  0
  133.0502  121.9696   62.2642 H   0  0  0  0  0  0  0  0  0  0  0  0
  132.1429  122.2924   60.7099 H   0  0  0  0  0  0  0  0  0  0  0  0
  129.0032  123.3022   61.8513 H   0  0  0  0  0  0  0  0  0  0  0  0
  128.3633  125.2020   63.3019 H   0  0  0  0  0  0  0  0  0  0  0  0
  128.6776  127.1750   64.0776 H   0  0  0  0  0  0  0  0  0  0  0  0
  129.5786  129.7667   64.0342 H   0  0  0  0  0  0  0  0  0  0  0  0
  128.5328  131.7770   63.0279 H   0  0  0  0  0  0  0  0  0  0  0  0
  124.5718  132.1422   62.4054 H   0  0  0  0  0  0  0  0  0  0  0  0
  124.1591  132.2758   64.1787 H   0  0  0  0  0  0  0  0  0  0  0  0
  123.0197  134.0062   62.7599 H   0  0  0  0  0  0  0  0  0  0  0  0
  124.0847  134.6916   64.0395 H   0  0  0  0  0  0  0  0  0  0  0  0
  126.6801  135.5692   61.7083 H   0  0  0  0  0  0  0  0  0  0  0  0
  126.1795  135.5870   63.4373 H   0  0  0  0  0  0  0  0  0  0  0  0
  126.8742  133.1248   61.7439 H   0  0  0  0  0  0  0  0  0  0  0  0
  127.8296  133.8419   63.1244 H   0  0  0  0  0  0  0  0  0  0  0  0
  125.0875  131.2546   65.5848 H   0  0  0  0  0  0  0  0  0  0  0  0
  126.1449  129.2556   66.5994 H   0  0  0  0  0  0  0  0  0  0  0  0
  128.4240  130.9600   68.2710 H   0  0  0  0  0  0  0  0  0  0  0  0
  126.9230  130.1460   68.4910 H   0  0  0  0  0  0  0  0  0  0  0  0
  126.9461  132.3249   71.5294 H   0  0  0  0  0  0  0  0  0  0  0  0
  126.9016  133.7828   73.5421 H   0  0  0  0  0  0  0  0  0  0  0  0
  1  2  1  0
  2  3  1  0
  3  4  1  0
  4  5  2  0
  4  6  1  0
  6  7  2  0
  7  8  1  0
  8  9  2  0
  9 10  1  0
 10 11  1  0
 11 12  2  0
 11 13  1  0
 13 14  1  0
 14 15  1  0
 15 16  2  0
 16 17  1  0
 17 18  1  0
 18 19  2  0
 19 20  1  0
 20 21  2  0
 21 22  1  0
 22 23  1  0
 23 24  1  0
 24 25  1  0
 25 26  1  0
 26 27  1  0
 21 28  1  0
 28 29  2  0
 17 30  2  0
 30 31  1  0
 31 32  1  0
 32 33  2  0
 33 34  1  0
 34 35  2  0
 35 36  1  0
 36 37  1  0
 37 38  1  0
 38 39  1  0
 39 40  1  0
 40 41  1  0
 35 42  1  0
 42 43  2  0
 31 44  2  0
 44 45  1  0
 45 46  1  0
  9 47  1  0
 47 48  2  0
 48  6  1  0
 45 13  2  0
 44 15  1  0
 29 18  1  0
 43 32  1  0
 27 22  1  0
 41 36  1  0
  1 49  1  0
  1 50  1  0
  1 51  1  0
  2 52  1  0
  2 53  1  0
  7 54  1  0
  8 55  1  0
 10 56  1  0
 19 57  1  0
 20 58  1  0
 23 59  1  0
 23 60  1  0
 24 61  1  0
 24 62  1  0
 26 63  1  0
 26 64  1  0
 27 65  1  0
 27 66  1  0
 28 67  1  0
 29 68  1  0
 30 69  1  0
 33 70  1  0
 34 71  1  0
 37 72  1  0
 37 73  1  0
 38 74  1  0
 38 75  1  0
 40 76  1  0
 40 77  1  0
 41 78  1  0
 41 79  1  0
 42 80  1  0
 43 81  1  0
 46 82  1  0
 46 83  1  0
 47 84  1  0
 48 85  1  0
M  END
>  <Binding energies>  (1) 
[-8.54]

>  <Ligand effiencies>  (1) 
[-0.16745098039215683]

>  <Interactions>  (1) 
["V-B:HIS:456:CE1:9041, V-B:GLU:543:CD:9879, V-A:LEU:475:CD2:4258, V-A:TYR:484:CZ:4346, V-A:GLU:543:CD:4908, V-B:GLY:454:CA:9020, V-A:ALA:541:CB:4892, V-A:GLU:543:CG:4907, V-B:LEU:475:CD1:9229, V-A:HIS:456:CE1:4069, V-B:TYR:539:CD2:9845, V-A:GLU:543:C:4902, V-B:HIS:456:CD2:9039, V-A:ILE:369:CG2:3236, V-B:HIS:456:CG:9037, V-A:GLU:543:CB:4906, V-B:ALA:541:CB:9863, V-B:TYR:484:CD1:9314, V-B:GLU:543:CG:9878, V-B:TYR:484:CE1:9316, H-B:TYR:484:OH:9319, V-A:TRP:381:CZ2:3369, V-A:TRP:381:CH2:3371, V-B:TYR:484:CZ:9318, V-B:HIS:456:CB:9036, H-A:GLU:543:O:4903, V-B:ASP:473:CG:9211, V-B:TYR:484:CG:9313, V-B:TYR:484:CB:9312, V-A:PRO:482:CB:4325, V-A:PRO:482:CG:4326, V-B:TYR:484:CD2:9315, V-B:ASP:473:CB:9210, V-B:ASP:485:CA:9324, V-B:TYR:484:C:9308, V-B:TYR:484:CE2:9317, V-B:PRO:486:CD:9337, V-B:ASP:485:C:9322"]

$$$$
9b_Ghoteimi_2023
     RDKit          3D

 72 78  0  0  0  0  0  0  0  0999 V2000
  127.8980  130.5360   67.8040 N   0  0  0  0  0  0  0  0  0  0  0  0
  128.4910  129.3130   67.9870 C   0  0  0  0  0  0  0  0  0  0  0  0
  128.9970  128.8750   69.2200 C   0  0  0  0  0  0  0  0  0  0  0  0
  128.9840  129.5690   70.5110 C   0  0  0  0  0  0  0  0  0  0  0  0
  128.5260  130.7090   70.6080 O   0  0  0  0  0  0  0  0  0  0  0  0
  129.5070  128.8730   71.5520 N   0  0  0  0  0  0  0  0  0  0  0  0
  129.6310  129.2890   72.8710 C   0  0  0  0  0  0  0  0  0  0  0  0
  129.2320  130.5490   73.3130 C   0  0  0  0  0  0  0  0  0  0  0  0
  129.5160  130.5630   74.6590 C   0  0  0  0  0  0  0  0  0  0  0  0
  130.0590  129.3730   75.0090 O   0  0  0  0  0  0  0  0  0  0  0  0
  130.1270  128.5740   73.8680 N   0  0  0  0  0  0  0  0  0  0  0  0
  129.7180  127.2710   69.0820 S   0  0  0  0  0  0  0  0  0  0  0  0
  129.3530  127.2060   67.3740 C   0  0  0  0  0  0  0  0  0  0  0  0
  129.7020  126.1610   66.6260 N   0  0  0  0  0  0  0  0  0  0  0  0
  129.3880  126.2160   65.3050 C   0  0  0  0  0  0  0  0  0  0  0  0
  129.8090  125.0400   64.4840 C   0  0  0  0  0  0  0  0  0  0  0  0
  129.2550  124.8050   63.2190 C   0  0  0  0  0  0  0  0  0  0  0  0
  129.6410  123.7010   62.4650 C   0  0  0  0  0  0  0  0  0  0  0  0
  130.5830  122.7820   62.9540 C   0  0  0  0  0  0  0  0  0  0  0  0
  130.9820  121.6690   62.2060 N   0  0  0  0  0  0  0  0  0  0  0  0
  132.2560  121.6610   61.4590 C   0  0  0  0  0  0  0  0  0  0  0  0
  132.6940  120.2590   60.9890 C   0  0  0  0  0  0  0  0  0  0  0  0
  131.6580  119.6560   60.2320 O   0  0  0  0  0  0  0  0  0  0  0  0
  130.4740  119.5030   60.9980 C   0  0  0  0  0  0  0  0  0  0  0  0
  129.9680  120.8810   61.4740 C   0  0  0  0  0  0  0  0  0  0  0  0
  131.1480  123.0340   64.2120 C   0  0  0  0  0  0  0  0  0  0  0  0
  130.7660  124.1410   64.9650 C   0  0  0  0  0  0  0  0  0  0  0  0
  128.7050  127.2990   64.7440 C   0  0  0  0  0  0  0  0  0  0  0  0
  128.3190  128.3900   65.5310 C   0  0  0  0  0  0  0  0  0  0  0  0
  127.5690  129.5020   64.8940 C   0  0  0  0  0  0  0  0  0  0  0  0
  126.1890  129.6120   65.0680 C   0  0  0  0  0  0  0  0  0  0  0  0
  125.4870  130.6640   64.4880 C   0  0  0  0  0  0  0  0  0  0  0  0
  126.1450  131.6350   63.7170 C   0  0  0  0  0  0  0  0  0  0  0  0
  125.4620  132.7070   63.1380 N   0  0  0  0  0  0  0  0  0  0  0  0
  126.1060  133.4730   62.0540 C   0  0  0  0  0  0  0  0  0  0  0  0
  125.4350  134.8390   61.7920 C   0  0  0  0  0  0  0  0  0  0  0  0
  124.0520  134.6560   61.5250 O   0  0  0  0  0  0  0  0  0  0  0  0
  123.3840  134.0390   62.6150 C   0  0  0  0  0  0  0  0  0  0  0  0
  124.0060  132.6560   62.9010 C   0  0  0  0  0  0  0  0  0  0  0  0
  127.5350  131.5230   63.5640 C   0  0  0  0  0  0  0  0  0  0  0  0
  128.2380  130.4710   64.1450 C   0  0  0  0  0  0  0  0  0  0  0  0
  128.6680  128.3690   66.9110 C   0  0  0  0  0  0  0  0  0  0  0  0
  127.5720  131.0920   68.5820 H   0  0  0  0  0  0  0  0  0  0  0  0
  127.7650  130.9240   66.8800 H   0  0  0  0  0  0  0  0  0  0  0  0
  129.8460  127.9420   71.3570 H   0  0  0  0  0  0  0  0  0  0  0  0
  128.7863  131.3575   72.7149 H   0  0  0  0  0  0  0  0  0  0  0  0
  129.3315  131.4058   75.3415 H   0  0  0  0  0  0  0  0  0  0  0  0
  128.5053  125.5021   62.8166 H   0  0  0  0  0  0  0  0  0  0  0  0
  129.2006  123.5457   61.4690 H   0  0  0  0  0  0  0  0  0  0  0  0
  132.1427  122.3038   60.5736 H   0  0  0  0  0  0  0  0  0  0  0  0
  133.0329  122.0250   62.1474 H   0  0  0  0  0  0  0  0  0  0  0  0
  133.5958  120.3490   60.3655 H   0  0  0  0  0  0  0  0  0  0  0  0
  132.9094  119.6342   61.8683 H   0  0  0  0  0  0  0  0  0  0  0  0
  129.6999  119.0250   60.3796 H   0  0  0  0  0  0  0  0  0  0  0  0
  130.6917  118.8768   61.8757 H   0  0  0  0  0  0  0  0  0  0  0  0
  129.6510  121.4574   60.5924 H   0  0  0  0  0  0  0  0  0  0  0  0
  129.1409  120.6939   62.1746 H   0  0  0  0  0  0  0  0  0  0  0  0
  131.9067  122.3448   64.6113 H   0  0  0  0  0  0  0  0  0  0  0  0
  131.2229  124.3106   65.9511 H   0  0  0  0  0  0  0  0  0  0  0  0
  128.4678  127.2936   63.6699 H   0  0  0  0  0  0  0  0  0  0  0  0
  125.6525  128.8620   65.6677 H   0  0  0  0  0  0  0  0  0  0  0  0
  124.3994  130.7359   64.6360 H   0  0  0  0  0  0  0  0  0  0  0  0
  127.1577  133.6466   62.3258 H   0  0  0  0  0  0  0  0  0  0  0  0
  126.0095  132.8796   61.1328 H   0  0  0  0  0  0  0  0  0  0  0  0
  125.5535  135.4794   62.6785 H   0  0  0  0  0  0  0  0  0  0  0  0
  125.9114  135.3152   60.9223 H   0  0  0  0  0  0  0  0  0  0  0  0
  123.4811  134.6738   63.5081 H   0  0  0  0  0  0  0  0  0  0  0  0
  122.3212  133.9114   62.3615 H   0  0  0  0  0  0  0  0  0  0  0  0
  123.5218  132.2335   63.7938 H   0  0  0  0  0  0  0  0  0  0  0  0
  123.8435  132.0352   62.0076 H   0  0  0  0  0  0  0  0  0  0  0  0
  128.0778  132.2778   62.9761 H   0  0  0  0  0  0  0  0  0  0  0  0
  129.3279  130.4032   64.0128 H   0  0  0  0  0  0  0  0  0  0  0  0
  1  2  1  0
  2  3  2  0
  3  4  1  0
  4  5  2  0
  4  6  1  0
  6  7  1  0
  7  8  1  0
  8  9  2  0
  9 10  1  0
 10 11  1  0
  3 12  1  0
 12 13  1  0
 13 14  2  0
 14 15  1  0
 15 16  1  0
 16 17  2  0
 17 18  1  0
 18 19  2  0
 19 20  1  0
 20 21  1  0
 21 22  1  0
 22 23  1  0
 23 24  1  0
 24 25  1  0
 19 26  1  0
 26 27  2  0
 15 28  2  0
 28 29  1  0
 29 30  1  0
 30 31  2  0
 31 32  1  0
 32 33  2  0
 33 34  1  0
 34 35  1  0
 35 36  1  0
 36 37  1  0
 37 38  1  0
 38 39  1  0
 33 40  1  0
 40 41  2  0
 29 42  2  0
 42  2  1  0
 11  7  2  0
 42 13  1  0
 27 16  1  0
 41 30  1  0
 25 20  1  0
 39 34  1  0
  1 43  1  0
  1 44  1  0
  6 45  1  0
  8 46  1  0
  9 47  1  0
 17 48  1  0
 18 49  1  0
 21 50  1  0
 21 51  1  0
 22 52  1  0
 22 53  1  0
 24 54  1  0
 24 55  1  0
 25 56  1  0
 25 57  1  0
 26 58  1  0
 27 59  1  0
 28 60  1  0
 31 61  1  0
 32 62  1  0
 35 63  1  0
 35 64  1  0
 36 65  1  0
 36 66  1  0
 38 67  1  0
 38 68  1  0
 39 69  1  0
 39 70  1  0
 40 71  1  0
 41 72  1  0
M  END
>  <Binding energies>  (1) 
[-9.25]

>  <Ligand effiencies>  (1) 
[-0.20555555555555555]

>  <Interactions>  (1) 
["V-B:HIS:456:CE1:9041, V-B:GLU:543:CD:9879, V-A:LEU:475:CD2:4258, V-A:GLU:543:CD:4908, V-B:GLY:454:CA:9020, V-B:ILE:369:CD1:8210, V-A:GLU:543:CG:4907, V-B:LEU:475:CD1:9229, V-B:ILE:369:CG2:8208, V-A:HIS:456:CE1:4069, V-B:TYR:539:CD2:9845, V-A:ILE:369:CG2:3236, V-A:GLU:543:CB:4906, V-B:ALA:541:CB:9863, V-B:GLU:543:CG:9878, V-B:TYR:484:CE1:9316, H-B:TYR:484:OH:9319, H-A:LYS:547:NZ:4951, V-A:TRP:381:CZ2:3369, V-A:LYS:547:CE:4950, V-A:TRP:381:CH2:3371, H-B:HIS:456:ND1:9038, V-B:TYR:484:CZ:9318, V-A:PRO:482:CB:4325, V-A:PRO:482:CG:4326"]

$$$$
9c_Ghoteimi_2023
     RDKit          3D

 72 78  0  0  0  0  0  0  0  0999 V2000
  127.9940  130.5040   68.3440 N   0  0  0  0  0  0  0  0  0  0  0  0
  128.5700  129.2670   68.4860 C   0  0  0  0  0  0  0  0  0  0  0  0
  129.0740  128.7840   69.7030 C   0  0  0  0  0  0  0  0  0  0  0  0
  129.0800  129.4390   71.0140 C   0  0  0  0  0  0  0  0  0  0  0  0
  129.7280  128.9700   71.9520 O   0  0  0  0  0  0  0  0  0  0  0  0
  128.3310  130.5660   71.1040 N   0  0  0  0  0  0  0  0  0  0  0  0
  128.1530  131.3630   72.2270 C   0  0  0  0  0  0  0  0  0  0  0  0
  127.1130  132.1070   72.5340 N   0  0  0  0  0  0  0  0  0  0  0  0
  127.2890  132.7370   73.6790 C   0  0  0  0  0  0  0  0  0  0  0  0
  128.4990  132.5090   74.3280 C   0  0  0  0  0  0  0  0  0  0  0  0
  129.4500  131.4060   73.3780 S   0  0  0  0  0  0  0  0  0  0  0  0
  129.7680  127.1740   69.5120 S   0  0  0  0  0  0  0  0  0  0  0  0
  129.3960  127.1670   67.8040 C   0  0  0  0  0  0  0  0  0  0  0  0
  129.7240  126.1390   67.0230 N   0  0  0  0  0  0  0  0  0  0  0  0
  129.4050  126.2400   65.7060 C   0  0  0  0  0  0  0  0  0  0  0  0
  129.8040  125.0830   64.8480 C   0  0  0  0  0  0  0  0  0  0  0  0
  130.1280  123.8430   65.4090 C   0  0  0  0  0  0  0  0  0  0  0  0
  130.5080  122.7710   64.6070 C   0  0  0  0  0  0  0  0  0  0  0  0
  130.5890  122.9050   63.2120 C   0  0  0  0  0  0  0  0  0  0  0  0
  130.9620  121.8350   62.3900 N   0  0  0  0  0  0  0  0  0  0  0  0
  132.2360  121.8470   61.6430 C   0  0  0  0  0  0  0  0  0  0  0  0
  132.6430  120.4680   61.0820 C   0  0  0  0  0  0  0  0  0  0  0  0
  131.5940  119.9410   60.2860 O   0  0  0  0  0  0  0  0  0  0  0  0
  130.4070  119.7650   61.0420 C   0  0  0  0  0  0  0  0  0  0  0  0
  129.9320  121.1210   61.6080 C   0  0  0  0  0  0  0  0  0  0  0  0
  130.2440  124.1440   62.6530 C   0  0  0  0  0  0  0  0  0  0  0  0
  129.8610  125.2140   63.4570 C   0  0  0  0  0  0  0  0  0  0  0  0
  128.7380  127.3500   65.1820 C   0  0  0  0  0  0  0  0  0  0  0  0
  128.3720  128.4220   66.0040 C   0  0  0  0  0  0  0  0  0  0  0  0
  127.6360  129.5640   65.4060 C   0  0  0  0  0  0  0  0  0  0  0  0
  128.2490  130.3740   64.4490 C   0  0  0  0  0  0  0  0  0  0  0  0
  127.5570  131.4360   63.8740 C   0  0  0  0  0  0  0  0  0  0  0  0
  126.2320  131.7170   64.2420 C   0  0  0  0  0  0  0  0  0  0  0  0
  125.5140  132.7710   63.6690 N   0  0  0  0  0  0  0  0  0  0  0  0
  126.1990  133.6830   62.7310 C   0  0  0  0  0  0  0  0  0  0  0  0
  125.4260  134.9970   62.4880 C   0  0  0  0  0  0  0  0  0  0  0  0
  124.1100  134.7120   62.0390 O   0  0  0  0  0  0  0  0  0  0  0  0
  123.3860  133.9470   62.9910 C   0  0  0  0  0  0  0  0  0  0  0  0
  124.1080  132.6070   63.2530 C   0  0  0  0  0  0  0  0  0  0  0  0
  125.6190  130.8840   65.1900 C   0  0  0  0  0  0  0  0  0  0  0  0
  126.3120  129.8220   65.7650 C   0  0  0  0  0  0  0  0  0  0  0  0
  128.7270  128.3540   67.3820 C   0  0  0  0  0  0  0  0  0  0  0  0
  127.0000  130.6460   68.4630 H   0  0  0  0  0  0  0  0  0  0  0  0
  128.5450  131.3180   68.1140 H   0  0  0  0  0  0  0  0  0  0  0  0
  127.8460  130.8690   70.2720 H   0  0  0  0  0  0  0  0  0  0  0  0
  126.5223  133.4054   74.0978 H   0  0  0  0  0  0  0  0  0  0  0  0
  128.8042  132.9543   75.2864 H   0  0  0  0  0  0  0  0  0  0  0  0
  130.0817  123.7134   66.5004 H   0  0  0  0  0  0  0  0  0  0  0  0
  130.7485  121.8042   65.0732 H   0  0  0  0  0  0  0  0  0  0  0  0
  132.1378  122.5484   60.8013 H   0  0  0  0  0  0  0  0  0  0  0  0
  133.0205  122.1479   62.3530 H   0  0  0  0  0  0  0  0  0  0  0  0
  133.5480  120.5775   60.4664 H   0  0  0  0  0  0  0  0  0  0  0  0
  132.8424  119.7817   61.9182 H   0  0  0  0  0  0  0  0  0  0  0  0
  129.6223  119.3460   60.3949 H   0  0  0  0  0  0  0  0  0  0  0  0
  130.6104  119.0780   61.8767 H   0  0  0  0  0  0  0  0  0  0  0  0
  129.6300  121.7614   60.7662 H   0  0  0  0  0  0  0  0  0  0  0  0
  129.0996  120.9074   62.2947 H   0  0  0  0  0  0  0  0  0  0  0  0
  130.2766  124.2725   61.5610 H   0  0  0  0  0  0  0  0  0  0  0  0
  129.5996  126.1758   62.9916 H   0  0  0  0  0  0  0  0  0  0  0  0
  128.4973  127.3819   64.1091 H   0  0  0  0  0  0  0  0  0  0  0  0
  129.2871  130.1716   64.1468 H   0  0  0  0  0  0  0  0  0  0  0  0
  128.0555  132.0638   63.1207 H   0  0  0  0  0  0  0  0  0  0  0  0
  127.1883  133.9303   63.1433 H   0  0  0  0  0  0  0  0  0  0  0  0
  126.2729  133.1632   61.7644 H   0  0  0  0  0  0  0  0  0  0  0  0
  125.3746  135.5680   63.4268 H   0  0  0  0  0  0  0  0  0  0  0  0
  125.9490  135.5861   61.7203 H   0  0  0  0  0  0  0  0  0  0  0  0
  123.3134  134.5115   63.9323 H   0  0  0  0  0  0  0  0  0  0  0  0
  122.3787  133.7432   62.5988 H   0  0  0  0  0  0  0  0  0  0  0  0
  123.5694  132.0703   64.0479 H   0  0  0  0  0  0  0  0  0  0  0  0
  124.1126  132.0496   62.3047 H   0  0  0  0  0  0  0  0  0  0  0  0
  124.5757  131.0726   65.4833 H   0  0  0  0  0  0  0  0  0  0  0  0
  125.8127  129.1819   66.5073 H   0  0  0  0  0  0  0  0  0  0  0  0
  1  2  1  0
  2  3  2  0
  3  4  1  0
  4  5  2  0
  4  6  1  0
  6  7  1  0
  7  8  2  0
  8  9  1  0
  9 10  2  0
 10 11  1  0
  3 12  1  0
 12 13  1  0
 13 14  2  0
 14 15  1  0
 15 16  1  0
 16 17  2  0
 17 18  1  0
 18 19  2  0
 19 20  1  0
 20 21  1  0
 21 22  1  0
 22 23  1  0
 23 24  1  0
 24 25  1  0
 19 26  1  0
 26 27  2  0
 15 28  2  0
 28 29  1  0
 29 30  1  0
 30 31  2  0
 31 32  1  0
 32 33  2  0
 33 34  1  0
 34 35  1  0
 35 36  1  0
 36 37  1  0
 37 38  1  0
 38 39  1  0
 33 40  1  0
 40 41  2  0
 29 42  2  0
 42  2  1  0
 11  7  1  0
 42 13  1  0
 27 16  1  0
 41 30  1  0
 25 20  1  0
 39 34  1  0
  1 43  1  0
  1 44  1  0
  6 45  1  0
  9 46  1  0
 10 47  1  0
 17 48  1  0
 18 49  1  0
 21 50  1  0
 21 51  1  0
 22 52  1  0
 22 53  1  0
 24 54  1  0
 24 55  1  0
 25 56  1  0
 25 57  1  0
 26 58  1  0
 27 59  1  0
 28 60  1  0
 31 61  1  0
 32 62  1  0
 35 63  1  0
 35 64  1  0
 36 65  1  0
 36 66  1  0
 38 67  1  0
 38 68  1  0
 39 69  1  0
 39 70  1  0
 40 71  1  0
 41 72  1  0
M  END
>  <Binding energies>  (1) 
[-9.35]

>  <Ligand effiencies>  (1) 
[-0.20777777777777778]

>  <Interactions>  (1) 
["V-B:HIS:456:CE1:9041, V-B:GLU:543:CD:9879, V-A:LEU:475:CD2:4258, V-A:GLU:543:CD:4908, V-B:GLY:454:CA:9020, V-B:ILE:369:CD1:8210, V-A:GLU:543:CG:4907, V-B:LEU:475:CD1:9229, V-A:HIS:456:CE1:4069, V-B:TYR:539:CD2:9845, V-B:HIS:456:CD2:9039, V-A:ILE:369:CG2:3236, V-B:HIS:456:CG:9037, V-A:GLU:543:CB:4906, V-B:ALA:541:CB:9863, V-B:TYR:484:CD1:9314, V-B:GLU:543:CG:9878, V-B:TYR:484:CE1:9316, H-B:TYR:484:OH:9319, V-A:TRP:381:CH2:3371, H-B:HIS:456:ND1:9038, H-B:HIS:456:NE2:9042, V-A:GLU:543:CA:4904, V-B:TYR:484:CZ:9318, V-B:HIS:456:CB:9036, H-A:GLU:543:O:4903, V-B:ASP:473:CG:9211, V-B:TYR:484:CG:9313, V-B:TYR:484:CB:9312, V-A:TYR:484:CE1:4344, V-A:PRO:482:CB:4325, V-B:TYR:484:CD2:9315, V-B:ASP:473:CB:9210"]

$$$$
9d_Ghoteimi_2023
     RDKit          3D

 68 73  0  0  0  0  0  0  0  0999 V2000
  133.5790  125.1390   65.3230 C   0  0  0  0  0  0  0  0  0  0  0  0
  133.1160  124.0120   64.5930 O   0  0  0  0  0  0  0  0  0  0  0  0
  131.7870  123.7920   64.4210 C   0  0  0  0  0  0  0  0  0  0  0  0
  131.3080  122.7150   64.0550 O   0  0  0  0  0  0  0  0  0  0  0  0
  130.9630  124.9850   64.7120 C   0  0  0  0  0  0  0  0  0  0  0  0
  130.4540  126.0440   63.3960 S   0  0  0  0  0  0  0  0  0  0  0  0
  129.5840  127.0740   64.5080 C   0  0  0  0  0  0  0  0  0  0  0  0
  128.8950  128.1320   64.0850 N   0  0  0  0  0  0  0  0  0  0  0  0
  128.2390  128.8590   65.0270 C   0  0  0  0  0  0  0  0  0  0  0  0
  127.4510  130.0270   64.5260 C   0  0  0  0  0  0  0  0  0  0  0  0
  126.1100  129.8730   64.1600 C   0  0  0  0  0  0  0  0  0  0  0  0
  125.3680  130.9540   63.6900 C   0  0  0  0  0  0  0  0  0  0  0  0
  125.9380  132.2320   63.5810 C   0  0  0  0  0  0  0  0  0  0  0  0
  125.2110  133.3240   63.0940 N   0  0  0  0  0  0  0  0  0  0  0  0
  125.8550  134.3750   62.2810 C   0  0  0  0  0  0  0  0  0  0  0  0
  125.0060  135.6540   62.1290 C   0  0  0  0  0  0  0  0  0  0  0  0
  123.7250  135.3290   61.6160 O   0  0  0  0  0  0  0  0  0  0  0  0
  123.0280  134.4480   62.4820 C   0  0  0  0  0  0  0  0  0  0  0  0
  123.8150  133.1310   62.6480 C   0  0  0  0  0  0  0  0  0  0  0  0
  127.2880  132.3770   63.9350 C   0  0  0  0  0  0  0  0  0  0  0  0
  128.0300  131.2950   64.4020 C   0  0  0  0  0  0  0  0  0  0  0  0
  128.3010  128.5450   66.3880 C   0  0  0  0  0  0  0  0  0  0  0  0
  129.0400  127.4460   66.8390 C   0  0  0  0  0  0  0  0  0  0  0  0
  129.0950  127.1740   68.3000 C   0  0  0  0  0  0  0  0  0  0  0  0
  128.2870  126.1890   68.8730 C   0  0  0  0  0  0  0  0  0  0  0  0
  128.3560  125.9250   70.2380 C   0  0  0  0  0  0  0  0  0  0  0  0
  129.2480  126.6290   71.0640 C   0  0  0  0  0  0  0  0  0  0  0  0
  129.3290  126.3890   72.4380 N   0  0  0  0  0  0  0  0  0  0  0  0
  129.0700  125.0280   72.9450 C   0  0  0  0  0  0  0  0  0  0  0  0
  129.5660  124.8120   74.3910 C   0  0  0  0  0  0  0  0  0  0  0  0
  129.0010  125.7900   75.2510 O   0  0  0  0  0  0  0  0  0  0  0  0
  129.3570  127.1060   74.8540 C   0  0  0  0  0  0  0  0  0  0  0  0
  128.8510  127.3790   73.4220 C   0  0  0  0  0  0  0  0  0  0  0  0
  130.0530  127.6160   70.4770 C   0  0  0  0  0  0  0  0  0  0  0  0
  129.9820  127.8800   69.1130 C   0  0  0  0  0  0  0  0  0  0  0  0
  129.7000  126.6470   65.8650 C   0  0  0  0  0  0  0  0  0  0  0  0
  130.4790  125.4390   65.9450 C   0  0  0  0  0  0  0  0  0  0  0  0
  130.7070  124.7770   67.1250 N   0  0  0  0  0  0  0  0  0  0  0  0
  133.4960  124.9369   66.4011 H   0  0  0  0  0  0  0  0  0  0  0  0
  134.6306  125.3352   65.0666 H   0  0  0  0  0  0  0  0  0  0  0  0
  132.9690  126.0178   65.0666 H   0  0  0  0  0  0  0  0  0  0  0  0
  125.6347  128.8846   64.2445 H   0  0  0  0  0  0  0  0  0  0  0  0
  124.3178  130.8036   63.3994 H   0  0  0  0  0  0  0  0  0  0  0  0
  126.8084  134.6465   62.7577 H   0  0  0  0  0  0  0  0  0  0  0  0
  125.9915  133.9599   61.2715 H   0  0  0  0  0  0  0  0  0  0  0  0
  124.8932  136.1350   63.1118 H   0  0  0  0  0  0  0  0  0  0  0  0
  125.5097  136.3404   61.4325 H   0  0  0  0  0  0  0  0  0  0  0  0
  122.9070  134.9255   63.4656 H   0  0  0  0  0  0  0  0  0  0  0  0
  122.0417  134.2248   62.0492 H   0  0  0  0  0  0  0  0  0  0  0  0
  123.2961  132.5080   63.3914 H   0  0  0  0  0  0  0  0  0  0  0  0
  123.8574  132.6553   61.6571 H   0  0  0  0  0  0  0  0  0  0  0  0
  127.7684  133.3622   63.8421 H   0  0  0  0  0  0  0  0  0  0  0  0
  129.0853  131.4390   64.6771 H   0  0  0  0  0  0  0  0  0  0  0  0
  127.7613  129.1706   67.1142 H   0  0  0  0  0  0  0  0  0  0  0  0
  127.5911  125.6178   68.2409 H   0  0  0  0  0  0  0  0  0  0  0  0
  127.7035  125.1551   70.6756 H   0  0  0  0  0  0  0  0  0  0  0  0
  127.9857  124.8450   72.9165 H   0  0  0  0  0  0  0  0  0  0  0  0
  129.6246  124.3290   72.3018 H   0  0  0  0  0  0  0  0  0  0  0  0
  129.2665  123.8102   74.7327 H   0  0  0  0  0  0  0  0  0  0  0  0
  130.6620  124.9025   74.4133 H   0  0  0  0  0  0  0  0  0  0  0  0
  128.9026  127.8308   75.5455 H   0  0  0  0  0  0  0  0  0  0  0  0
  130.4522  127.2065   74.8758 H   0  0  0  0  0  0  0  0  0  0  0  0
  127.7512  127.3606   73.4304 H   0  0  0  0  0  0  0  0  0  0  0  0
  129.2456  128.3595   73.1173 H   0  0  0  0  0  0  0  0  0  0  0  0
  130.7509  128.1899   71.1044 H   0  0  0  0  0  0  0  0  0  0  0  0
  130.6303  128.6515   68.6720 H   0  0  0  0  0  0  0  0  0  0  0  0
  129.9780  124.6460   67.8110 H   0  0  0  0  0  0  0  0  0  0  0  0
  131.6150  124.3920   67.3460 H   0  0  0  0  0  0  0  0  0  0  0  0
  1  2  1  0
  2  3  1  0
  3  4  2  0
  3  5  1  0
  5  6  1  0
  6  7  1  0
  7  8  2  0
  8  9  1  0
  9 10  1  0
 10 11  2  0
 11 12  1  0
 12 13  2  0
 13 14  1  0
 14 15  1  0
 15 16  1  0
 16 17  1  0
 17 18  1  0
 18 19  1  0
 13 20  1  0
 20 21  2  0
  9 22  2  0
 22 23  1  0
 23 24  1  0
 24 25  2  0
 25 26  1  0
 26 27  2  0
 27 28  1  0
 28 29  1  0
 29 30  1  0
 30 31  1  0
 31 32  1  0
 32 33  1  0
 27 34  1  0
 34 35  2  0
 23 36  2  0
 36 37  1  0
 37 38  1  0
 37  5  2  0
 36  7  1  0
 21 10  1  0
 35 24  1  0
 19 14  1  0
 33 28  1  0
  1 39  1  0
  1 40  1  0
  1 41  1  0
 11 42  1  0
 12 43  1  0
 15 44  1  0
 15 45  1  0
 16 46  1  0
 16 47  1  0
 18 48  1  0
 18 49  1  0
 19 50  1  0
 19 51  1  0
 20 52  1  0
 21 53  1  0
 22 54  1  0
 25 55  1  0
 26 56  1  0
 29 57  1  0
 29 58  1  0
 30 59  1  0
 30 60  1  0
 32 61  1  0
 32 62  1  0
 33 63  1  0
 33 64  1  0
 34 65  1  0
 35 66  1  0
 38 67  1  0
 38 68  1  0
M  END
>  <Binding energies>  (1) 
[-8.53]

>  <Ligand effiencies>  (1) 
[-0.21325]

>  <Interactions>  (1) 
["V-B:HIS:456:CE1:9041, V-A:ARG:545:CZ:4926, V-B:GLU:543:CD:9879, V-A:TYR:484:CZ:4346, V-A:GLU:543:CD:4908, V-B:GLY:454:CA:9020, V-A:ALA:541:CB:4892, V-B:TRP:381:CZ2:8341, V-B:ILE:369:CD1:8210, V-A:GLU:543:CG:4907, V-B:LEU:475:CD1:9229, V-B:ILE:369:CG2:8208, V-B:TRP:381:CH2:8343, V-A:GLY:454:CA:4048, V-A:HIS:456:CE1:4069, V-B:HIS:456:CD2:9039, V-A:GLU:543:CB:4906, V-A:HIS:456:CD2:4067, V-B:GLU:543:C:9873, V-B:GLU:543:CG:9878, V-B:GLU:543:CB:9877, V-B:SER:385:C:8376, H-B:LYS:547:NZ:9922, V-B:LYS:547:CE:9921, H-A:TYR:484:OH:4347, H-A:GLY:454:N:4049, V-A:ARG:545:CD:4923, V-A:TYR:484:CE1:4344, H-A:HIS:456:NE2:4070, V-B:ILE:369:CG1:8209"]

$$$$
RR10_Rahimova_2017
     RDKit          3D

 66 70  0  0  0  0  0  0  0  0999 V2000
  127.2700  128.9670   58.0310 C   0  0  0  0  0  0  0  0  0  0  0  0
  128.3860  130.0180   57.9020 C   0  0  1  0  0  0  0  0  0  0  0  0
  127.8380  131.3870   57.4370 C   0  0  0  0  0  0  0  0  0  0  0  0
  128.9800  132.4170   57.2800 C   0  0  0  0  0  0  0  0  0  0  0  0
  129.7790  132.6090   58.5950 C   0  0  1  0  0  0  0  0  0  0  0  0
  128.9520  133.2660   59.6160 N   0  0  0  0  0  0  0  0  0  0  0  0
  129.2350  133.3260   60.9300 C   0  0  0  0  0  0  0  0  0  0  0  0
  130.2570  132.8390   61.4190 O   0  0  0  0  0  0  0  0  0  0  0  0
  128.2010  134.0310   61.8310 C   0  0  1  0  0  0  0  0  0  0  0  0
  128.0600  135.5120   61.3910 C   0  0  0  0  0  0  0  0  0  0  0  0
  126.9570  136.1980   62.2320 C   0  0  0  0  0  0  0  0  0  0  0  0
  125.6270  135.4100   62.2220 C   0  0  0  0  0  0  0  0  0  0  0  0
  125.8570  133.9870   62.5920 N   0  0  0  0  0  0  0  0  0  0  0  0
  124.3780  133.0620   62.9030 S   0  0  0  0  0  0  0  0  0  0  0  0
  123.9780  132.4070   61.6520 O   0  0  0  0  0  0  0  0  0  0  0  0
  123.4380  133.9390   63.6120 O   0  0  0  0  0  0  0  0  0  0  0  0
  124.8730  131.7590   64.0310 C   0  0  0  0  0  0  0  0  0  0  0  0
  124.0990  130.5970   64.1170 C   0  0  0  0  0  0  0  0  0  0  0  0
  124.4280  129.5460   64.9780 C   0  0  0  0  0  0  0  0  0  0  0  0
  125.5790  129.7110   65.7520 C   0  0  0  0  0  0  0  0  0  0  0  0
  126.2150  128.9350   66.6920 N   0  0  0  0  0  0  0  0  0  0  0  0
  127.3270  129.6240   67.1310 C   0  0  0  0  0  0  0  0  0  0  0  0
  128.2720  129.0970   68.1720 C   0  0  0  0  0  0  0  0  0  0  0  0
  128.6570  129.9020   69.2530 C   0  0  0  0  0  0  0  0  0  0  0  0
  129.5310  129.4140   70.2210 C   0  0  0  0  0  0  0  0  0  0  0  0
  130.0270  128.1180   70.1120 C   0  0  0  0  0  0  0  0  0  0  0  0
  129.6550  127.3060   69.0440 C   0  0  0  0  0  0  0  0  0  0  0  0
  128.7810  127.7950   68.0770 C   0  0  0  0  0  0  0  0  0  0  0  0
  127.4530  130.7880   66.5330 N   0  0  0  0  0  0  0  0  0  0  0  0
  126.3860  130.8720   65.6770 C   0  0  0  0  0  0  0  0  0  0  0  0
  126.0310  131.9090   64.8020 C   0  0  0  0  0  0  0  0  0  0  0  0
  126.8410  133.3000   61.7170 C   0  0  0  0  0  0  0  0  0  0  0  0
  130.3080  131.2240   59.0580 C   0  0  0  0  0  0  0  0  0  0  0  0
  129.1680  130.1940   59.2240 C   0  0  0  0  0  0  0  0  0  0  0  0
  127.0673  128.7761   59.0952 H   0  0  0  0  0  0  0  0  0  0  0  0
  126.3566  129.3405   57.5450 H   0  0  0  0  0  0  0  0  0  0  0  0
  127.5881  128.0329   57.5450 H   0  0  0  0  0  0  0  0  0  0  0  0
  129.0763  129.6379   57.1345 H   0  0  0  0  0  0  0  0  0  0  0  0
  127.3313  131.2615   56.4688 H   0  0  0  0  0  0  0  0  0  0  0  0
  127.1333  131.7582   58.1957 H   0  0  0  0  0  0  0  0  0  0  0  0
  129.6673  132.0674   56.4955 H   0  0  0  0  0  0  0  0  0  0  0  0
  128.5288  133.3843   57.0142 H   0  0  0  0  0  0  0  0  0  0  0  0
  130.6400  133.2723   58.4257 H   0  0  0  0  0  0  0  0  0  0  0  0
  128.0480  133.5930   59.3070 H   0  0  0  0  0  0  0  0  0  0  0  0
  128.5336  134.0029   62.8791 H   0  0  0  0  0  0  0  0  0  0  0  0
  129.0163  136.0330   61.5459 H   0  0  0  0  0  0  0  0  0  0  0  0
  127.7877  135.5534   60.3260 H   0  0  0  0  0  0  0  0  0  0  0  0
  127.3080  136.2839   63.2709 H   0  0  0  0  0  0  0  0  0  0  0  0
  126.7634  137.1851   61.7869 H   0  0  0  0  0  0  0  0  0  0  0  0
  124.9329  135.8636   62.9448 H   0  0  0  0  0  0  0  0  0  0  0  0
  125.2006  135.4479   61.2087 H   0  0  0  0  0  0  0  0  0  0  0  0
  123.2021  130.5073   63.4865 H   0  0  0  0  0  0  0  0  0  0  0  0
  123.8126  128.6365   65.0426 H   0  0  0  0  0  0  0  0  0  0  0  0
  125.9540  128.0220   67.0370 H   0  0  0  0  0  0  0  0  0  0  0  0
  128.2659  130.9267   69.3373 H   0  0  0  0  0  0  0  0  0  0  0  0
  129.8281  130.0498   71.0680 H   0  0  0  0  0  0  0  0  0  0  0  0
  130.7184  127.7323   70.8757 H   0  0  0  0  0  0  0  0  0  0  0  0
  130.0500  126.2824   68.9646 H   0  0  0  0  0  0  0  0  0  0  0  0
  128.4878  127.1545   67.2321 H   0  0  0  0  0  0  0  0  0  0  0  0
  126.6471  132.8169   64.7238 H   0  0  0  0  0  0  0  0  0  0  0  0
  126.9548  132.2540   62.0378 H   0  0  0  0  0  0  0  0  0  0  0  0
  126.4920  133.3177   60.6740 H   0  0  0  0  0  0  0  0  0  0  0  0
  131.0203  130.8476   58.3090 H   0  0  0  0  0  0  0  0  0  0  0  0
  130.7919  131.3555   60.0371 H   0  0  0  0  0  0  0  0  0  0  0  0
  129.5979  129.2256   59.5197 H   0  0  0  0  0  0  0  0  0  0  0  0
  128.4748  130.5588   59.9963 H   0  0  0  0  0  0  0  0  0  0  0  0
  1  2  1  0
  2  3  1  0
  3  4  1  0
  4  5  1  0
  5  6  1  0
  6  7  1  0
  7  8  2  0
  7  9  1  0
  9 10  1  0
 10 11  1  0
 11 12  1  0
 12 13  1  0
 13 14  1  0
 14 15  2  0
 14 16  2  0
 14 17  1  0
 17 18  2  0
 18 19  1  0
 19 20  2  0
 20 21  1  0
 21 22  1  0
 22 23  1  0
 23 24  2  0
 24 25  1  0
 25 26  2  0
 26 27  1  0
 27 28  2  0
 22 29  2  0
 29 30  1  0
 30 31  2  0
 13 32  1  0
  5 33  1  0
 33 34  1  0
 34  2  1  0
 32  9  1  0
 31 17  1  0
 30 20  1  0
 28 23  1  0
  1 35  1  0
  1 36  1  0
  1 37  1  0
  2 38  1  6
  3 39  1  0
  3 40  1  0
  4 41  1  0
  4 42  1  0
  5 43  1  6
  6 44  1  0
  9 45  1  1
 10 46  1  0
 10 47  1  0
 11 48  1  0
 11 49  1  0
 12 50  1  0
 12 51  1  0
 18 52  1  0
 19 53  1  0
 21 54  1  0
 24 55  1  0
 25 56  1  0
 26 57  1  0
 27 58  1  0
 28 59  1  0
 31 60  1  0
 32 61  1  0
 32 62  1  0
 33 63  1  0
 33 64  1  0
 34 65  1  0
 34 66  1  0
M  END
>  <Binding energies>  (1) 
[-9.27]

>  <Ligand effiencies>  (1) 
[-0.2575]

>  <Interactions>  (1) 
["V-B:HIS:456:CE1:9041, V-B:GLU:543:CD:9879, V-A:GLU:543:CD:4908, V-B:GLY:454:CA:9020, V-A:ALA:541:CB:4892, V-A:GLU:543:CG:4907, V-B:PRO:482:CB:9297, V-B:PRO:482:CG:9298, V-B:LEU:475:CD1:9229, V-A:TYR:539:CE2:4876, V-A:TYR:539:CD2:4874, V-A:HIS:456:CE1:4069, V-A:GLU:543:C:4902, V-A:GLU:543:CB:4906, V-B:TYR:484:CE1:9316, H-B:GLY:454:N:9021, H-B:GLU:543:OE2:9881, H-B:GLU:543:OE1:9880, V-A:PRO:540:C:4881, V-A:PRO:540:CA:4883, H-B:TYR:484:OH:9319, V-B:ARG:545:CZ:9897, V-A:GLU:543:CA:4904, V-A:TYR:539:C:4867, H-A:TYR:539:O:4868, H-A:ALA:541:N:4891, V-B:ARG:545:CD:9894, V-B:GLY:453:C:9013, V-A:PRO:540:N:4884, V-A:TYR:539:CZ:4877"]

$$$$
RR11_Rahimova_2017
     RDKit          3D

 55 60  0  0  0  0  0  0  0  0999 V2000
  132.7470  120.5580   60.9800 N   0  0  0  0  0  0  0  0  0  0  0  0
  132.2100  121.4150   61.9380 C   0  0  0  0  0  0  0  0  0  0  0  0
  130.8290  121.5840   62.0210 C   0  0  0  0  0  0  0  0  0  0  0  0
  130.2930  122.4380   62.9810 C   0  0  0  0  0  0  0  0  0  0  0  0
  131.1310  123.1300   63.8650 C   0  0  0  0  0  0  0  0  0  0  0  0
  130.5510  124.0460   64.9030 C   0  0  0  0  0  0  0  0  0  0  0  0
  130.1880  125.2900   64.6770 N   0  0  0  0  0  0  0  0  0  0  0  0
  129.7070  125.7500   65.8740 C   0  0  0  0  0  0  0  0  0  0  0  0
  129.1820  127.0100   66.1930 C   0  0  0  0  0  0  0  0  0  0  0  0
  128.7340  127.2330   67.5010 C   0  0  0  0  0  0  0  0  0  0  0  0
  128.1650  128.5940   67.8780 C   0  0  0  0  0  0  0  0  0  0  0  0
  127.0860  129.0730   66.9170 C   0  0  0  0  0  0  0  0  0  0  0  0
  125.7760  129.2420   67.3800 C   0  0  0  0  0  0  0  0  0  0  0  0
  124.7540  129.6880   66.5390 C   0  0  0  0  0  0  0  0  0  0  0  0
  125.0740  129.9730   65.2050 C   0  0  0  0  0  0  0  0  0  0  0  0
  124.2620  130.4120   64.1920 N   0  0  0  0  0  0  0  0  0  0  0  0
  125.0450  130.5190   63.1400 C   0  0  0  0  0  0  0  0  0  0  0  0
  124.5840  130.9570   61.7800 C   0  0  0  0  0  0  0  0  0  0  0  0
  123.2170  131.0700   61.4950 C   0  0  0  0  0  0  0  0  0  0  0  0
  122.7890  131.4660   60.2300 C   0  0  0  0  0  0  0  0  0  0  0  0
  123.7270  131.7510   59.2400 C   0  0  0  0  0  0  0  0  0  0  0  0
  123.2990  132.1430   57.9720 N   0  0  0  0  0  0  0  0  0  0  0  0
  125.0890  131.6470   59.5100 C   0  0  0  0  0  0  0  0  0  0  0  0
  125.5150  131.2510   60.7750 C   0  0  0  0  0  0  0  0  0  0  0  0
  126.3480  130.1730   63.4290 N   0  0  0  0  0  0  0  0  0  0  0  0
  126.4060  129.8110   64.7540 C   0  0  0  0  0  0  0  0  0  0  0  0
  127.4340  129.3700   65.5920 C   0  0  0  0  0  0  0  0  0  0  0  0
  128.8330  126.2280   68.4700 C   0  0  0  0  0  0  0  0  0  0  0  0
  129.3550  124.9640   68.1850 C   0  0  0  0  0  0  0  0  0  0  0  0
  129.7830  124.7500   66.8730 C   0  0  0  0  0  0  0  0  0  0  0  0
  130.3320  123.6750   66.2130 N   0  0  0  0  0  0  0  0  0  0  0  0
  132.5170  122.9520   63.7700 C   0  0  0  0  0  0  0  0  0  0  0  0
  133.0560  122.0980   62.8110 C   0  0  0  0  0  0  0  0  0  0  0  0
  132.1710  120.2520   60.2080 H   0  0  0  0  0  0  0  0  0  0  0  0
  133.7170  120.2860   61.0450 H   0  0  0  0  0  0  0  0  0  0  0  0
  130.1646  121.0443   61.3301 H   0  0  0  0  0  0  0  0  0  0  0  0
  129.2029  122.5704   63.0459 H   0  0  0  0  0  0  0  0  0  0  0  0
  129.1233  127.8043   65.4343 H   0  0  0  0  0  0  0  0  0  0  0  0
  127.7313  128.5257   68.8866 H   0  0  0  0  0  0  0  0  0  0  0  0
  128.9905  129.3198   67.8350 H   0  0  0  0  0  0  0  0  0  0  0  0
  125.5457  129.0181   68.4321 H   0  0  0  0  0  0  0  0  0  0  0  0
  123.7271  129.8120   66.9133 H   0  0  0  0  0  0  0  0  0  0  0  0
  122.4761  130.8443   62.2761 H   0  0  0  0  0  0  0  0  0  0  0  0
  121.7141  131.5534   60.0134 H   0  0  0  0  0  0  0  0  0  0  0  0
  122.9610  131.4450   57.3240 H   0  0  0  0  0  0  0  0  0  0  0  0
  123.2990  133.1230   57.7280 H   0  0  0  0  0  0  0  0  0  0  0  0
  125.8260  131.8769   58.7265 H   0  0  0  0  0  0  0  0  0  0  0  0
  126.5912  131.1683   60.9871 H   0  0  0  0  0  0  0  0  0  0  0  0
  127.0920  130.1930   62.7470 H   0  0  0  0  0  0  0  0  0  0  0  0
  128.4667  129.2612   65.2291 H   0  0  0  0  0  0  0  0  0  0  0  0
  128.4875  126.4410   69.4924 H   0  0  0  0  0  0  0  0  0  0  0  0
  129.4252  124.1794   68.9528 H   0  0  0  0  0  0  0  0  0  0  0  0
  130.5500  122.7580   66.5740 H   0  0  0  0  0  0  0  0  0  0  0  0
  133.1849  123.4909   64.4581 H   0  0  0  0  0  0  0  0  0  0  0  0
  134.1455  121.9627   62.7424 H   0  0  0  0  0  0  0  0  0  0  0  0
  1  2  1  0
  2  3  2  0
  3  4  1  0
  4  5  2  0
  5  6  1  0
  6  7  2  0
  7  8  1  0
  8  9  2  0
  9 10  1  0
 10 11  1  0
 11 12  1  0
 12 13  2  0
 13 14  1  0
 14 15  2  0
 15 16  1  0
 16 17  2  0
 17 18  1  0
 18 19  2  0
 19 20  1  0
 20 21  2  0
 21 22  1  0
 21 23  1  0
 23 24  2  0
 17 25  1  0
 25 26  1  0
 26 27  2  0
 10 28  2  0
 28 29  1  0
 29 30  2  0
 30 31  1  0
  5 32  1  0
 32 33  2  0
 33  2  1  0
 31  6  1  0
 30  8  1  0
 27 12  1  0
 26 15  1  0
 24 18  1  0
  1 34  1  0
  1 35  1  0
  3 36  1  0
  4 37  1  0
  9 38  1  0
 11 39  1  0
 11 40  1  0
 13 41  1  0
 14 42  1  0
 19 43  1  0
 20 44  1  0
 22 45  1  0
 22 46  1  0
 23 47  1  0
 24 48  1  0
 25 49  1  0
 27 50  1  0
 28 51  1  0
 29 52  1  0
 31 53  1  0
 32 54  1  0
 33 55  1  0
M  END
>  <Binding energies>  (1) 
[-8.4]

>  <Ligand effiencies>  (1) 
[-0.2153846153846154]

>  <Interactions>  (1) 
["V-B:ASP:366:CG:8184, V-B:HIS:456:CE1:9041, V-B:GLU:543:CD:9879, V-B:ILE:369:CB:8207, V-A:LEU:475:CD2:4258, V-A:TYR:484:CZ:4346, V-A:GLU:543:CD:4908, V-B:ILE:369:CD1:8210, V-A:GLU:543:CG:4907, V-B:ILE:369:CG2:8208, V-A:TYR:539:CE2:4876, V-A:GLY:454:CA:4048, V-A:HIS:456:CE1:4069, V-A:ILE:369:CG2:3236, V-A:GLU:543:CB:4906, V-B:ALA:541:CB:9863, V-B:GLU:543:CG:9878, V-B:GLU:543:CB:9877, H-B:GLY:454:N:9021, V-B:ASP:366:CB:8183, H-B:ARG:545:NH2:9899, H-A:TYR:484:OH:4347, V-B:ARG:545:CZ:9897, V-B:ARG:545:CG:9893, V-B:ARG:545:CD:9894, V-B:ASP:366:CA:8181, V-A:TYR:484:CE1:4344, H-A:SER:385:O:3405, V-B:GLU:543:CA:9875, V-A:TYR:539:CZ:4877, V-B:ASP:366:C:8179, H-A:TYR:539:OH:4878, V-B:ILE:369:CG1:8209, H-B:ASP:366:O:8180, V-B:ILE:369:C:8203, V-B:ASN:370:CB:8216, V-B:ASN:370:CA:8214"]

$$$$
RR11_Rahimova_2017-again1
     RDKit          3D

 56 61  0  0  0  0  0  0  0  0999 V2000
  128.0720  118.3760   73.9100 N   0  0  0  0  0  0  0  0  0  0  0  0
  128.2760  119.7330   73.6650 C   0  0  0  0  0  0  0  0  0  0  0  0
  127.1970  120.5490   73.3330 C   0  0  0  0  0  0  0  0  0  0  0  0
  127.4040  121.9040   73.0850 C   0  0  0  0  0  0  0  0  0  0  0  0
  128.6900  122.4530   73.1650 C   0  0  0  0  0  0  0  0  0  0  0  0
  128.9130  123.9120   72.8890 C   0  0  0  0  0  0  0  0  0  0  0  0
  129.0400  124.8320   73.8190 N   0  0  0  0  0  0  0  0  0  0  0  0
  129.2040  126.0120   73.1410 C   0  0  0  0  0  0  0  0  0  0  0  0
  129.3780  127.3080   73.6450 C   0  0  0  0  0  0  0  0  0  0  0  0
  129.5100  128.3560   72.7320 C   0  0  0  0  0  0  0  0  0  0  0  0
  129.4700  128.1350   71.3510 C   0  0  0  0  0  0  0  0  0  0  0  0
  129.6150  129.3150   70.4000 C   0  0  0  0  0  0  0  0  0  0  0  0
  129.0190  129.0390   69.0270 C   0  0  0  0  0  0  0  0  0  0  0  0
  129.4110  127.8950   68.3220 C   0  0  0  0  0  0  0  0  0  0  0  0
  128.9010  127.5900   67.0570 C   0  0  0  0  0  0  0  0  0  0  0  0
  127.9680  128.4850   66.5250 C   0  0  0  0  0  0  0  0  0  0  0  0
  127.2830  128.4990   65.3180 N   0  0  0  0  0  0  0  0  0  0  0  0
  126.4690  129.6070   65.2490 C   0  0  0  0  0  0  0  0  0  0  0  0
  125.5820  130.0010   64.1140 C   0  0  0  0  0  0  0  0  0  0  0  0
  124.1930  130.0360   64.2880 C   0  0  0  0  0  0  0  0  0  0  0  0
  123.3610  130.4110   63.2360 C   0  0  0  0  0  0  0  0  0  0  0  0
  123.9150  130.7510   62.0030 C   0  0  0  0  0  0  0  0  0  0  0  0
  123.0820  131.1300   60.9510 N   0  0  0  0  0  0  0  0  0  0  0  0
  125.2970  130.7170   61.8180 C   0  0  0  0  0  0  0  0  0  0  0  0
  126.1270  130.3430   62.8710 C   0  0  0  0  0  0  0  0  0  0  0  0
  126.6420  130.2890   66.4320 N   0  0  0  0  0  0  0  0  0  0  0  0
  127.5600  129.6270   67.2350 C   0  0  0  0  0  0  0  0  0  0  0  0
  128.0690  129.9240   68.5020 C   0  0  0  0  0  0  0  0  0  0  0  0
  129.3210  126.8450   70.8240 C   0  0  0  0  0  0  0  0  0  0  0  0
  129.1810  125.8020   71.7420 C   0  0  0  0  0  0  0  0  0  0  0  0
  129.0000  124.4440   71.6200 N   0  0  0  0  0  0  0  0  0  0  0  0
  129.7660  121.6210   73.5010 C   0  0  0  0  0  0  0  0  0  0  0  0
  129.5610  120.2660   73.7500 C   0  0  0  0  0  0  0  0  0  0  0  0
  127.4070  118.0940   74.6160 H   0  0  0  0  0  0  0  0  0  0  0  0
  128.6200  117.6920   73.4080 H   0  0  0  0  0  0  0  0  0  0  0  0
  126.1843  120.1246   73.2669 H   0  0  0  0  0  0  0  0  0  0  0  0
  126.5510  122.5477   72.8243 H   0  0  0  0  0  0  0  0  0  0  0  0
  129.4097  127.4942   74.7287 H   0  0  0  0  0  0  0  0  0  0  0  0
  129.6488  129.3805   73.1076 H   0  0  0  0  0  0  0  0  0  0  0  0
  129.1030  130.1847   70.8376 H   0  0  0  0  0  0  0  0  0  0  0  0
  130.6904  129.5022   70.2641 H   0  0  0  0  0  0  0  0  0  0  0  0
  130.1443  127.2139   68.7785 H   0  0  0  0  0  0  0  0  0  0  0  0
  129.2177  126.6911   66.5077 H   0  0  0  0  0  0  0  0  0  0  0  0
  127.3440  127.8250   64.5690 H   0  0  0  0  0  0  0  0  0  0  0  0
  123.7566  129.7658   65.2609 H   0  0  0  0  0  0  0  0  0  0  0  0
  122.2705  130.4388   63.3776 H   0  0  0  0  0  0  0  0  0  0  0  0
  122.3600  130.4970   60.6350 H   0  0  0  0  0  0  0  0  0  0  0  0
  123.2270  132.0200   60.4980 H   0  0  0  0  0  0  0  0  0  0  0  0
  125.7298  130.9849   60.8428 H   0  0  0  0  0  0  0  0  0  0  0  0
  127.2170  130.3161   62.7255 H   0  0  0  0  0  0  0  0  0  0  0  0
  126.1530  131.1470   66.6350 H   0  0  0  0  0  0  0  0  0  0  0  0
  127.7388  130.8119   69.0612 H   0  0  0  0  0  0  0  0  0  0  0  0
  129.3146  126.6628   69.7392 H   0  0  0  0  0  0  0  0  0  0  0  0
  128.9250  123.8900   70.7800 H   0  0  0  0  0  0  0  0  0  0  0  0
  130.7804  122.0411   73.5687 H   0  0  0  0  0  0  0  0  0  0  0  0
  130.4106  119.6186   74.0129 H   0  0  0  0  0  0  0  0  0  0  0  0
  1  2  1  0
  2  3  2  0
  3  4  1  0
  4  5  2  0
  5  6  1  0
  6  7  2  0
  7  8  1  0
  8  9  2  0
  9 10  1  0
 10 11  2  0
 11 12  1  0
 12 13  1  0
 13 14  2  0
 14 15  1  0
 15 16  2  0
 16 17  1  0
 17 18  1  0
 18 19  1  0
 19 20  2  0
 20 21  1  0
 21 22  2  0
 22 23  1  0
 22 24  1  0
 24 25  2  0
 18 26  2  0
 26 27  1  0
 27 28  2  0
 11 29  1  0
 29 30  2  0
 30 31  1  0
  5 32  1  0
 32 33  2  0
 33  2  1  0
 31  6  1  0
 30  8  1  0
 28 13  1  0
 27 16  1  0
 25 19  1  0
  1 34  1  0
  1 35  1  0
  3 36  1  0
  4 37  1  0
  9 38  1  0
 10 39  1  0
 12 40  1  0
 12 41  1  0
 14 42  1  0
 15 43  1  0
 17 44  1  0
 20 45  1  0
 21 46  1  0
 23 47  1  0
 23 48  1  0
 24 49  1  0
 25 50  1  0
 26 51  1  0
 28 52  1  0
 29 53  1  0
 31 54  1  0
 32 55  1  0
 33 56  1  0
M  CHG  1  26   1
M  END
>  <Binding energies>  (1) 
[-9.62]

>  <Ligand effiencies>  (1) 
[-0.2405]

>  <Interactions>  (1) 
["V-B:ASP:366:CG:8184, V-B:HIS:456:CE1:9041, V-B:GLU:543:CD:9879, V-B:ILE:369:CB:8207, V-A:GLU:543:CD:4908, V-B:ILE:369:CD1:8210, V-A:GLU:543:CG:4907, V-B:ILE:369:CG2:8208, V-A:HIS:456:CE1:4069, V-A:GLU:543:C:4902, V-A:GLU:543:CB:4906, V-A:HIS:456:CD2:4067, V-B:GLU:543:C:9873, V-B:TYR:484:CE1:9316, H-B:GLU:543:OE2:9881, V-B:ASP:366:CB:8183, H-B:GLU:543:OE1:9880, H-B:LYS:547:NZ:9922, V-B:LYS:547:CE:9921, H-B:TYR:484:OH:9319, V-B:ARG:545:CZ:9897, H-B:ASP:366:OD1:8185, H-B:ASP:366:OD2:8186, V-B:TYR:484:CZ:9318, V-B:GLY:453:CA:9015, V-B:GLY:453:C:9013, V-B:ASP:366:CA:8181, H-B:GLU:543:O:9874, H-A:HIS:456:NE2:4070, V-B:GLY:544:CA:9885, V-A:TYR:484:CB:4340, V-A:TYR:484:CG:4341, H-A:TYR:484:O:4337"]

$$$$
RR11_Rahimova_2017-again2
     RDKit          3D

 57 62  0  0  0  0  0  0  0  0999 V2000
  132.3870  120.3140   60.2470 N   0  0  0  0  0  0  0  0  0  0  0  0
  131.9590  121.1700   61.2600 C   0  0  0  0  0  0  0  0  0  0  0  0
  132.8900  121.7440   62.1230 C   0  0  0  0  0  0  0  0  0  0  0  0
  132.4610  122.5950   63.1390 C   0  0  0  0  0  0  0  0  0  0  0  0
  131.0980  122.8760   63.2970 C   0  0  0  0  0  0  0  0  0  0  0  0
  130.6360  123.7800   64.3930 C   0  0  0  0  0  0  0  0  0  0  0  0
  130.2260  125.0880   64.2640 N   0  0  0  0  0  0  0  0  0  0  0  0
  129.8510  125.5940   65.5010 C   0  0  0  0  0  0  0  0  0  0  0  0
  129.3640  126.8460   65.8840 C   0  0  0  0  0  0  0  0  0  0  0  0
  129.0600  127.0210   67.2400 C   0  0  0  0  0  0  0  0  0  0  0  0
  128.5190  128.3630   67.7170 C   0  0  0  0  0  0  0  0  0  0  0  0
  127.4060  128.9000   66.8280 C   0  0  0  0  0  0  0  0  0  0  0  0
  126.1390  129.1360   67.3750 C   0  0  0  0  0  0  0  0  0  0  0  0
  125.0790  129.6280   66.6100 C   0  0  0  0  0  0  0  0  0  0  0  0
  125.3440  129.8790   65.2610 C   0  0  0  0  0  0  0  0  0  0  0  0
  124.5380  130.3500   64.2340 N   0  0  0  0  0  0  0  0  0  0  0  0
  125.2590  130.4270   63.0640 C   0  0  0  0  0  0  0  0  0  0  0  0
  124.7560  130.8680   61.7280 C   0  0  0  0  0  0  0  0  0  0  0  0
  123.3910  131.0970   61.5280 C   0  0  0  0  0  0  0  0  0  0  0  0
  122.9230  131.5180   60.2850 C   0  0  0  0  0  0  0  0  0  0  0  0
  123.8200  131.7120   59.2370 C   0  0  0  0  0  0  0  0  0  0  0  0
  123.3540  132.1400   57.9940 N   0  0  0  0  0  0  0  0  0  0  0  0
  125.1830  131.4830   59.4240 C   0  0  0  0  0  0  0  0  0  0  0  0
  125.6490  131.0630   60.6670 C   0  0  0  0  0  0  0  0  0  0  0  0
  126.5330  130.0060   63.3670 N   0  0  0  0  0  0  0  0  0  0  0  0
  126.6160  129.6580   64.7090 C   0  0  0  0  0  0  0  0  0  0  0  0
  127.6750  129.1720   65.4800 C   0  0  0  0  0  0  0  0  0  0  0  0
  129.2670  125.9930   68.1680 C   0  0  0  0  0  0  0  0  0  0  0  0
  129.7610  124.7420   67.7920 C   0  0  0  0  0  0  0  0  0  0  0  0
  130.0450  124.5630   66.4350 C   0  0  0  0  0  0  0  0  0  0  0  0
  130.5260  123.4680   65.7280 N   0  0  0  0  0  0  0  0  0  0  0  0
  130.1720  122.2960   62.4210 C   0  0  0  0  0  0  0  0  0  0  0  0
  130.6010  121.4460   61.4050 C   0  0  0  0  0  0  0  0  0  0  0  0
  131.7440  120.0500   59.5140 H   0  0  0  0  0  0  0  0  0  0  0  0
  133.3140  119.9140   60.2910 H   0  0  0  0  0  0  0  0  0  0  0  0
  133.9614  121.5257   62.0024 H   0  0  0  0  0  0  0  0  0  0  0  0
  133.1960  123.0484   63.8203 H   0  0  0  0  0  0  0  0  0  0  0  0
  130.2110  125.5640   63.3740 H   0  0  0  0  0  0  0  0  0  0  0  0
  129.2256  127.6572   65.1541 H   0  0  0  0  0  0  0  0  0  0  0  0
  128.1260  128.2410   68.7371 H   0  0  0  0  0  0  0  0  0  0  0  0
  129.3479  129.0853   67.6827 H   0  0  0  0  0  0  0  0  0  0  0  0
  125.9729  128.9271   68.4421 H   0  0  0  0  0  0  0  0  0  0  0  0
  124.0859  129.8087   67.0472 H   0  0  0  0  0  0  0  0  0  0  0  0
  123.5630  130.6060   64.2850 H   0  0  0  0  0  0  0  0  0  0  0  0
  122.6833  130.9440   62.3561 H   0  0  0  0  0  0  0  0  0  0  0  0
  121.8485  131.6966   60.1317 H   0  0  0  0  0  0  0  0  0  0  0  0
  123.4740  133.1040   57.7220 H   0  0  0  0  0  0  0  0  0  0  0  0
  122.8430  131.4960   57.4080 H   0  0  0  0  0  0  0  0  0  0  0  0
  125.8872  131.6336   58.5925 H   0  0  0  0  0  0  0  0  0  0  0  0
  126.7239  130.8835   60.8164 H   0  0  0  0  0  0  0  0  0  0  0  0
  127.2680  129.9670   62.6750 H   0  0  0  0  0  0  0  0  0  0  0  0
  128.6739  129.0103   65.0487 H   0  0  0  0  0  0  0  0  0  0  0  0
  129.0330  126.1767   69.2270 H   0  0  0  0  0  0  0  0  0  0  0  0
  129.9186  123.9383   68.5264 H   0  0  0  0  0  0  0  0  0  0  0  0
  130.7680  122.5590   66.0920 H   0  0  0  0  0  0  0  0  0  0  0  0
  129.0998  122.5131   62.5362 H   0  0  0  0  0  0  0  0  0  0  0  0
  129.8699  120.9937   60.7188 H   0  0  0  0  0  0  0  0  0  0  0  0
  1  2  1  0
  2  3  2  0
  3  4  1  0
  4  5  2  0
  5  6  1  0
  6  7  1  0
  7  8  1  0
  8  9  2  0
  9 10  1  0
 10 11  1  0
 11 12  1  0
 12 13  2  0
 13 14  1  0
 14 15  2  0
 15 16  1  0
 16 17  1  0
 17 18  1  0
 18 19  2  0
 19 20  1  0
 20 21  2  0
 21 22  1  0
 21 23  1  0
 23 24  2  0
 17 25  2  0
 25 26  1  0
 26 27  2  0
 10 28  2  0
 28 29  1  0
 29 30  2  0
 30 31  1  0
  5 32  1  0
 32 33  2  0
 33  2  1  0
 31  6  2  0
 30  8  1  0
 27 12  1  0
 26 15  1  0
 24 18  1  0
  1 34  1  0
  1 35  1  0
  3 36  1  0
  4 37  1  0
  7 38  1  0
  9 39  1  0
 11 40  1  0
 11 41  1  0
 13 42  1  0
 14 43  1  0
 16 44  1  0
 19 45  1  0
 20 46  1  0
 22 47  1  0
 22 48  1  0
 23 49  1  0
 24 50  1  0
 25 51  1  0
 27 52  1  0
 28 53  1  0
 29 54  1  0
 31 55  1  0
 32 56  1  0
 33 57  1  0
M  CHG  2  25   1  31   1
M  END
>  <Binding energies>  (1) 
[-8.78]

>  <Ligand effiencies>  (1) 
[-0.21414634146341463]

>  <Interactions>  (1) 
["V-B:ASP:366:CG:8184, V-B:HIS:456:CE1:9041, V-B:GLU:543:CD:9879, V-B:ILE:369:CB:8207, V-A:LEU:475:CD2:4258, V-A:TYR:484:CZ:4346, V-A:GLU:543:CD:4908, V-B:ILE:369:CD1:8210, V-A:GLU:543:CG:4907, V-B:ILE:369:CG2:8208, V-A:TYR:539:CE2:4876, V-A:HIS:456:CE1:4069, V-B:TYR:539:CD2:9845, V-A:ILE:369:CG2:3236, V-A:GLU:543:CB:4906, V-B:TYR:539:CE2:9847, V-B:ALA:541:CB:9863, V-B:GLU:543:CG:9878, V-B:GLU:543:CB:9877, V-B:ASP:366:CB:8183, H-A:TYR:484:OH:4347, V-A:TRP:381:CH2:3371, V-B:ARG:545:CZ:9897, V-B:ASP:366:CA:8181, V-A:TYR:484:CE1:4344, V-B:GLU:543:CA:9875, V-A:TYR:539:CZ:4877, V-B:ASP:366:C:8179, H-A:TYR:539:OH:4878, V-B:ILE:369:CG1:8209, H-B:ASP:366:O:8180, V-B:ILE:369:C:8203, V-B:ASN:370:CB:8216, V-B:ASN:370:CA:8214"]

$$$$
RR12_Rahimova_2017
     RDKit          3D

 51 53  0  0  0  0  0  0  0  0999 V2000
  127.5060  122.1350   57.5620 C   0  0  0  0  0  0  0  0  0  0  0  0
  128.0590  123.5650   57.5210 C   0  0  0  0  0  0  0  0  0  0  0  0
  128.7050  123.9880   58.8530 C   0  0  0  0  0  0  0  0  0  0  0  0
  127.8080  123.7150   59.9730 N   0  0  0  0  0  0  0  0  0  0  0  0
  128.1540  123.2880   61.2460 C   0  0  0  0  0  0  0  0  0  0  0  0
  129.5770  122.9800   61.6790 C   0  0  0  0  0  0  0  0  0  0  0  0
  130.2220  121.8680   60.8310 C   0  0  0  0  0  0  0  0  0  0  0  0
  131.6390  121.5010   61.3080 C   0  0  0  0  0  0  0  0  0  0  0  0
  132.3700  122.6200   61.9040 N   0  0  0  0  0  0  0  0  0  0  0  0
  132.8500  123.6770   61.2250 C   0  0  0  0  0  0  0  0  0  0  0  0
  132.7220  123.8120   60.0050 O   0  0  0  0  0  0  0  0  0  0  0  0
  133.5760  124.7330   62.0670 C   0  0  0  0  0  0  0  0  0  0  0  0
  133.8020  124.2210   63.3810 O   0  0  0  0  0  0  0  0  0  0  0  0
  133.1170  124.7700   64.4490 C   0  0  0  0  0  0  0  0  0  0  0  0
  131.7230  124.7670   64.3590 C   0  0  0  0  0  0  0  0  0  0  0  0
  130.9470  125.2950   65.3880 C   0  0  0  0  0  0  0  0  0  0  0  0
  131.5670  125.8300   66.5130 C   0  0  0  0  0  0  0  0  0  0  0  0
  132.9560  125.8430   66.6180 C   0  0  0  0  0  0  0  0  0  0  0  0
  133.7320  125.3160   65.5890 C   0  0  0  0  0  0  0  0  0  0  0  0
  127.1260  123.1550   62.0470 N   0  0  0  0  0  0  0  0  0  0  0  0
  126.0460  123.5300   61.2970 C   0  0  0  0  0  0  0  0  0  0  0  0
  124.6930  123.5900   61.6650 C   0  0  0  0  0  0  0  0  0  0  0  0
  123.7710  124.0170   60.7090 C   0  0  0  0  0  0  0  0  0  0  0  0
  124.1740  124.3770   59.4230 C   0  0  0  0  0  0  0  0  0  0  0  0
  125.5110  124.3260   59.0250 C   0  0  0  0  0  0  0  0  0  0  0  0
  126.4370  123.8960   59.9840 C   0  0  0  0  0  0  0  0  0  0  0  0
  127.3838  121.8190   58.6085 H   0  0  0  0  0  0  0  0  0  0  0  0
  126.5311  122.1042   57.0534 H   0  0  0  0  0  0  0  0  0  0  0  0
  128.2065  121.4563   57.0534 H   0  0  0  0  0  0  0  0  0  0  0  0
  128.8171  123.6270   56.7264 H   0  0  0  0  0  0  0  0  0  0  0  0
  127.2146  124.2436   57.3297 H   0  0  0  0  0  0  0  0  0  0  0  0
  129.6403  123.4267   58.9947 H   0  0  0  0  0  0  0  0  0  0  0  0
  128.9088  125.0684   58.8191 H   0  0  0  0  0  0  0  0  0  0  0  0
  130.1814  123.8939   61.5815 H   0  0  0  0  0  0  0  0  0  0  0  0
  129.5416  122.6289   62.7209 H   0  0  0  0  0  0  0  0  0  0  0  0
  129.5885  120.9705   60.8876 H   0  0  0  0  0  0  0  0  0  0  0  0
  130.3060  122.2434   59.8005 H   0  0  0  0  0  0  0  0  0  0  0  0
  131.5559  120.7017   62.0591 H   0  0  0  0  0  0  0  0  0  0  0  0
  132.2048  121.1861   60.4188 H   0  0  0  0  0  0  0  0  0  0  0  0
  132.5110  122.5800   62.9030 H   0  0  0  0  0  0  0  0  0  0  0  0
  134.5405  124.9767   61.5975 H   0  0  0  0  0  0  0  0  0  0  0  0
  132.9583  125.6411   62.1285 H   0  0  0  0  0  0  0  0  0  0  0  0
  131.2344  124.3444   63.4686 H   0  0  0  0  0  0  0  0  0  0  0  0
  129.8497  125.2891   65.3118 H   0  0  0  0  0  0  0  0  0  0  0  0
  130.9549  126.2463   67.3266 H   0  0  0  0  0  0  0  0  0  0  0  0
  133.4381  126.2681   67.5107 H   0  0  0  0  0  0  0  0  0  0  0  0
  134.8291  125.3270   65.6684 H   0  0  0  0  0  0  0  0  0  0  0  0
  124.3689  123.3085   62.6778 H   0  0  0  0  0  0  0  0  0  0  0  0
  122.7049  124.0709   60.9746 H   0  0  0  0  0  0  0  0  0  0  0  0
  123.4150  124.7113   58.7004 H   0  0  0  0  0  0  0  0  0  0  0  0
  125.8220  124.6094   58.0087 H   0  0  0  0  0  0  0  0  0  0  0  0
  1  2  1  0
  2  3  1  0
  3  4  1  0
  4  5  1  0
  5  6  1  0
  6  7  1  0
  7  8  1  0
  8  9  1  0
  9 10  1  0
 10 11  2  0
 10 12  1  0
 12 13  1  0
 13 14  1  0
 14 15  2  0
 15 16  1  0
 16 17  2  0
 17 18  1  0
 18 19  2  0
  5 20  2  0
 20 21  1  0
 21 22  2  0
 22 23  1  0
 23 24  2  0
 24 25  1  0
 25 26  2  0
 26  4  1  0
 19 14  1  0
 26 21  1  0
  1 27  1  0
  1 28  1  0
  1 29  1  0
  2 30  1  0
  2 31  1  0
  3 32  1  0
  3 33  1  0
  6 34  1  0
  6 35  1  0
  7 36  1  0
  7 37  1  0
  8 38  1  0
  8 39  1  0
  9 40  1  0
 12 41  1  0
 12 42  1  0
 15 43  1  0
 16 44  1  0
 17 45  1  0
 18 46  1  0
 19 47  1  0
 22 48  1  0
 23 49  1  0
 24 50  1  0
 25 51  1  0
M  END
>  <Binding energies>  (1) 
[-6.89]

>  <Ligand effiencies>  (1) 
[-0.2551851851851852]

>  <Interactions>  (1) 
["V-B:ASP:366:CG:8184, V-A:ARG:545:CZ:4926, V-A:ASP:366:CG:3212, V-A:LEU:475:CD2:4258, V-A:ILE:369:CD1:3238, V-A:HIS:456:CE1:4069, V-B:TYR:539:CD2:9845, V-A:ILE:369:CG2:3236, V-B:TYR:539:CE2:9847, V-B:ALA:541:CB:9863, V-A:ARG:545:CG:4922, V-B:TYR:539:CZ:9848, V-B:TYR:539:CE1:9846, V-B:PRO:540:N:9855, V-B:TYR:539:C:9838, V-B:PRO:540:CA:9854, H-B:ALA:541:N:9862, H-A:GLY:454:N:4049, V-B:PRO:540:CB:9856, V-A:ARG:545:CD:4923, V-B:LEU:363:CA:8156, V-B:TYR:539:CD1:9844, V-B:TYR:539:CG:9843, V-B:ASN:362:CB:8147, V-B:ASN:362:C:8143, V-B:ASN:362:CA:8145, V-B:TYR:539:CA:9840"]

$$$$
RR13_Rahimova_2017
     RDKit          3D

 84 90  0  0  0  0  0  0  0  0999 V2000
  127.8580  124.2550   62.1020 Cl  0  0  0  0  0  0  0  0  0  0  0  0
  129.2130  123.2080   61.8490 C   0  0  0  0  0  0  0  0  0  0  0  0
  129.0360  122.1070   61.0080 C   0  0  0  0  0  0  0  0  0  0  0  0
  130.0800  121.2150   60.7810 C   0  0  0  0  0  0  0  0  0  0  0  0
  131.3120  121.4180   61.3970 C   0  0  0  0  0  0  0  0  0  0  0  0
  131.4980  122.5150   62.2370 C   0  0  0  0  0  0  0  0  0  0  0  0
  130.4600  123.4320   62.4690 C   0  0  0  0  0  0  0  0  0  0  0  0
  130.6830  124.6250   63.4240 C   0  0  1  0  0  0  0  0  0  0  0  0
  132.1810  124.8720   63.6590 C   0  0  0  0  0  0  0  0  0  0  0  0
  133.1650  124.5610   62.8440 N   0  0  0  0  0  0  0  0  0  0  0  0
  134.3330  124.9490   63.4920 N   0  0  0  0  0  0  0  0  0  0  0  0
  134.0330  125.4850   64.7290 N   0  0  0  0  0  0  0  0  0  0  0  0
  132.7010  125.4040   64.8190 N   0  0  0  0  0  0  0  0  0  0  0  0
  132.0080  125.9190   65.9940 C   0  0  0  0  0  0  0  0  0  0  0  0
  130.8380  124.9920   66.3720 C   0  0  0  0  0  0  0  0  0  0  0  0
  129.8980  125.6350   67.3800 C   0  0  0  0  0  0  0  0  0  0  0  0
  129.3660  124.8730   68.4230 C   0  0  0  0  0  0  0  0  0  0  0  0
  128.5000  125.4610   69.3410 C   0  0  0  0  0  0  0  0  0  0  0  0
  128.1690  126.8090   69.2130 C   0  0  0  0  0  0  0  0  0  0  0  0
  128.6950  127.5730   68.1740 C   0  0  0  0  0  0  0  0  0  0  0  0
  129.5610  126.9860   67.2550 C   0  0  0  0  0  0  0  0  0  0  0  0
  129.9660  125.8560   63.0080 N   0  0  0  0  0  0  0  0  0  0  0  0
  130.8840  126.7780   62.3140 C   0  0  0  0  0  0  0  0  0  0  0  0
  130.1160  128.0020   61.7620 C   0  0  0  0  0  0  0  0  0  0  0  0
  129.4830  128.7560   62.8570 N   0  0  0  0  0  0  0  0  0  0  0  0
  128.8040  129.9840   62.3820 C   0  0  1  0  0  0  0  0  0  0  0  0
  127.7470  130.5740   63.3400 C   0  0  0  0  0  0  0  0  0  0  0  0
  128.2170  131.2490   64.4750 C   0  0  0  0  0  0  0  0  0  0  0  0
  127.3350  131.8280   65.3860 C   0  0  0  0  0  0  0  0  0  0  0  0
  125.9620  131.7350   65.1780 C   0  0  0  0  0  0  0  0  0  0  0  0
  125.4740  131.0550   64.0660 C   0  0  0  0  0  0  0  0  0  0  0  0
  126.3490  130.4680   63.1490 C   0  0  0  0  0  0  0  0  0  0  0  0
  125.6430  129.5860   61.8370 Cl  0  0  0  0  0  0  0  0  0  0  0  0
  129.7800  131.0760   61.9380 C   0  0  0  0  0  0  0  0  0  0  0  0
  131.0840  131.0380   62.0850 N   0  0  0  0  0  0  0  0  0  0  0  0
  131.5660  132.2190   61.5300 N   0  0  0  0  0  0  0  0  0  0  0  0
  130.5210  132.9670   61.0280 N   0  0  0  0  0  0  0  0  0  0  0  0
  129.4290  132.2310   61.2720 N   0  0  0  0  0  0  0  0  0  0  0  0
  128.1120  132.7290   60.8890 C   0  0  0  0  0  0  0  0  0  0  0  0
  127.9040  134.1600   61.4190 C   0  0  0  0  0  0  0  0  0  0  0  0
  126.4460  134.4440   61.7450 C   0  0  0  0  0  0  0  0  0  0  0  0
  126.0650  135.7130   62.1890 C   0  0  0  0  0  0  0  0  0  0  0  0
  124.7290  135.9760   62.4810 C   0  0  0  0  0  0  0  0  0  0  0  0
  123.7780  134.9680   62.3270 C   0  0  0  0  0  0  0  0  0  0  0  0
  124.1530  133.7000   61.8840 C   0  0  0  0  0  0  0  0  0  0  0  0
  125.4880  133.4380   61.5910 C   0  0  0  0  0  0  0  0  0  0  0  0
  128.5630  127.8310   63.5440 C   0  0  0  0  0  0  0  0  0  0  0  0
  129.3370  126.6150   64.1030 C   0  0  0  0  0  0  0  0  0  0  0  0
  128.0633  121.9435   60.5210 H   0  0  0  0  0  0  0  0  0  0  0  0
  129.9320  120.3512   60.1162 H   0  0  0  0  0  0  0  0  0  0  0  0
  132.1381  120.7133   61.2210 H   0  0  0  0  0  0  0  0  0  0  0  0
  132.4723  122.6645   62.7253 H   0  0  0  0  0  0  0  0  0  0  0  0
  130.2338  124.3436   64.3879 H   0  0  0  0  0  0  0  0  0  0  0  0
  132.7135  125.9751   66.8361 H   0  0  0  0  0  0  0  0  0  0  0  0
  131.6129  126.9202   65.7668 H   0  0  0  0  0  0  0  0  0  0  0  0
  130.2696  124.7499   65.4619 H   0  0  0  0  0  0  0  0  0  0  0  0
  131.2598  124.0868   66.8333 H   0  0  0  0  0  0  0  0  0  0  0  0
  129.6310  123.8097   68.5189 H   0  0  0  0  0  0  0  0  0  0  0  0
  128.0789  124.8644   70.1637 H   0  0  0  0  0  0  0  0  0  0  0  0
  127.4860  127.2737   69.9393 H   0  0  0  0  0  0  0  0  0  0  0  0
  128.4274  128.6358   68.0798 H   0  0  0  0  0  0  0  0  0  0  0  0
  129.9792  127.5843   66.4321 H   0  0  0  0  0  0  0  0  0  0  0  0
  131.6524  127.1229   63.0215 H   0  0  0  0  0  0  0  0  0  0  0  0
  131.3513  126.2450   61.4728 H   0  0  0  0  0  0  0  0  0  0  0  0
  130.8192  128.6597   61.2300 H   0  0  0  0  0  0  0  0  0  0  0  0
  129.3318  127.6480   61.0767 H   0  0  0  0  0  0  0  0  0  0  0  0
  128.2488  129.6239   61.5033 H   0  0  0  0  0  0  0  0  0  0  0  0
  129.3005  131.3231   64.6498 H   0  0  0  0  0  0  0  0  0  0  0  0
  127.7237  132.3578   66.2682 H   0  0  0  0  0  0  0  0  0  0  0  0
  125.2640  132.1980   65.8910 H   0  0  0  0  0  0  0  0  0  0  0  0
  124.3881  130.9791   63.9077 H   0  0  0  0  0  0  0  0  0  0  0  0
  128.0312  132.7335   59.7920 H   0  0  0  0  0  0  0  0  0  0  0  0
  127.3427  132.0728   61.3221 H   0  0  0  0  0  0  0  0  0  0  0  0
  128.5034  134.2905   62.3321 H   0  0  0  0  0  0  0  0  0  0  0  0
  128.2175  134.8613   60.6316 H   0  0  0  0  0  0  0  0  0  0  0  0
  126.8201  136.5040   62.3078 H   0  0  0  0  0  0  0  0  0  0  0  0
  124.4256  136.9736   62.8313 H   0  0  0  0  0  0  0  0  0  0  0  0
  122.7224  135.1749   62.5570 H   0  0  0  0  0  0  0  0  0  0  0  0
  123.3966  132.9100   61.7666 H   0  0  0  0  0  0  0  0  0  0  0  0
  125.7889  132.4404   61.2386 H   0  0  0  0  0  0  0  0  0  0  0  0
  128.0707  128.3595   64.3736 H   0  0  0  0  0  0  0  0  0  0  0  0
  127.8122  127.4747   62.8233 H   0  0  0  0  0  0  0  0  0  0  0  0
  130.1172  126.9686   64.7931 H   0  0  0  0  0  0  0  0  0  0  0  0
  128.6320  125.9574   64.6326 H   0  0  0  0  0  0  0  0  0  0  0  0
  1  2  1  0
  2  3  2  0
  3  4  1  0
  4  5  2  0
  5  6  1  0
  6  7  2  0
  7  8  1  0
  8  9  1  0
  9 10  2  0
 10 11  1  0
 11 12  2  0
 12 13  1  0
 13 14  1  0
 14 15  1  0
 15 16  1  0
 16 17  2  0
 17 18  1  0
 18 19  2  0
 19 20  1  0
 20 21  2  0
  8 22  1  0
 22 23  1  0
 23 24  1  0
 24 25  1  0
 25 26  1  0
 26 27  1  0
 27 28  2  0
 28 29  1  0
 29 30  2  0
 30 31  1  0
 31 32  2  0
 32 33  1  0
 26 34  1  0
 34 35  2  0
 35 36  1  0
 36 37  2  0
 37 38  1  0
 38 39  1  0
 39 40  1  0
 40 41  1  0
 41 42  2  0
 42 43  1  0
 43 44  2  0
 44 45  1  0
 45 46  2  0
 25 47  1  0
 47 48  1  0
  7  2  1  0
 13  9  1  0
 21 16  1  0
 48 22  1  0
 32 27  1  0
 38 34  1  0
 46 41  1  0
  3 49  1  0
  4 50  1  0
  5 51  1  0
  6 52  1  0
  8 53  1  1
 14 54  1  0
 14 55  1  0
 15 56  1  0
 15 57  1  0
 17 58  1  0
 18 59  1  0
 19 60  1  0
 20 61  1  0
 21 62  1  0
 23 63  1  0
 23 64  1  0
 24 65  1  0
 24 66  1  0
 26 67  1  6
 28 68  1  0
 29 69  1  0
 30 70  1  0
 31 71  1  0
 39 72  1  0
 39 73  1  0
 40 74  1  0
 40 75  1  0
 42 76  1  0
 43 77  1  0
 44 78  1  0
 45 79  1  0
 46 80  1  0
 47 81  1  0
 47 82  1  0
 48 83  1  0
 48 84  1  0
M  END
>  <Binding energies>  (1) 
[-12.11]

>  <Ligand effiencies>  (1) 
[-0.25229166666666664]

>  <Interactions>  (1) 
["V-B:ASP:366:CG:8184, V-B:HIS:456:CE1:9041, V-A:ARG:545:CZ:4926, V-B:GLU:543:CD:9879, V-A:LEU:475:CD2:4258, V-A:TYR:484:CZ:4346, V-A:GLU:543:CD:4908, V-A:ALA:541:CB:4892, V-B:TRP:381:CZ2:8341, V-B:ILE:369:CD1:8210, V-A:GLU:543:CG:4907, V-B:LEU:475:CD1:9229, V-B:ILE:369:CG2:8208, V-B:TRP:381:CH2:8343, H-A:ARG:545:NH2:4928, V-A:TYR:539:CD2:4874, V-A:HIS:456:CE1:4069, V-B:TYR:539:CD2:9845, V-B:TYR:539:CE2:9847, V-B:ALA:541:CB:9863, V-B:GLU:543:C:9873, V-B:GLU:543:CG:9878, V-B:GLU:543:CB:9877, H-A:ARG:545:NE:4924, H-A:ALA:541:N:4891, H-A:GLY:454:N:4049, H-A:ARG:545:NH1:4927, V-A:TYR:484:CE1:4344, V-B:GLU:543:CA:9875"]

$$$$
RR14_Rahimova_2017
     RDKit          3D

 76 80  0  0  0  0  0  0  0  0999 V2000
  130.3660  119.2380   61.0030 C   0  0  0  0  0  0  0  0  0  0  0  0
  131.6560  119.7930   60.7690 O   0  0  0  0  0  0  0  0  0  0  0  0
  131.8850  121.1180   61.0860 C   0  0  0  0  0  0  0  0  0  0  0  0
  133.0700  121.3990   61.7670 C   0  0  0  0  0  0  0  0  0  0  0  0
  133.3760  122.7010   62.1490 C   0  0  0  0  0  0  0  0  0  0  0  0
  132.4900  123.7410   61.8570 C   0  0  0  0  0  0  0  0  0  0  0  0
  132.7890  125.1580   62.3310 C   0  0  0  0  0  0  0  0  0  0  0  0
  133.2510  125.2180   63.7180 N   0  0  0  0  0  0  0  0  0  0  0  0
  134.5370  125.4640   63.9920 N   0  0  0  0  0  0  0  0  0  0  0  0
  134.6170  125.4180   65.3710 N   0  0  0  0  0  0  0  0  0  0  0  0
  133.3670  125.1360   65.9130 N   0  0  0  0  0  0  0  0  0  0  0  0
  132.5550  125.0120   64.8900 C   0  0  0  0  0  0  0  0  0  0  0  0
  131.0730  124.6760   64.9820 C   0  0  0  0  0  0  0  0  0  0  0  0
  130.2640  125.8200   65.4320 N   0  0  0  0  0  0  0  0  0  0  0  0
  130.6030  126.2280   66.8020 C   0  0  0  0  0  0  0  0  0  0  0  0
  129.3820  126.2830   67.7450 C   0  0  0  0  0  0  0  0  0  0  0  0
  129.4120  127.4710   68.7300 C   0  0  0  0  0  0  0  0  0  0  0  0
  128.7780  127.1740   70.0180 N   0  0  0  0  0  0  0  0  0  0  0  0
  129.6140  127.6590   71.1230 C   0  0  0  0  0  0  0  0  0  0  0  0
  128.9990  127.3160   72.4960 C   0  0  0  0  0  0  0  0  0  0  0  0
  128.7470  125.9170   72.5840 O   0  0  0  0  0  0  0  0  0  0  0  0
  127.8460  125.4680   71.5790 C   0  0  0  0  0  0  0  0  0  0  0  0
  128.4270  125.7540   70.1780 C   0  0  0  0  0  0  0  0  0  0  0  0
  130.4240  126.9490   64.5040 C   0  0  0  0  0  0  0  0  0  0  0  0
  129.1580  127.7440   64.1900 C   0  0  0  0  0  0  0  0  0  0  0  0
  128.3560  128.2020   65.1820 C   0  0  0  0  0  0  0  0  0  0  0  0
  127.1060  128.9390   64.9050 C   0  0  0  0  0  0  0  0  0  0  0  0
  126.2620  129.4440   65.9080 C   0  0  0  0  0  0  0  0  0  0  0  0
  126.5820  129.2660   67.3860 C   0  0  0  0  0  0  0  0  0  0  0  0
  125.1020  130.1300   65.5370 C   0  0  0  0  0  0  0  0  0  0  0  0
  124.7810  130.3130   64.1930 C   0  0  0  0  0  0  0  0  0  0  0  0
  125.6160  129.8160   63.1880 C   0  0  0  0  0  0  0  0  0  0  0  0
  125.2390  130.0340   61.7280 C   0  0  0  0  0  0  0  0  0  0  0  0
  126.7840  129.1250   63.5480 C   0  0  0  0  0  0  0  0  0  0  0  0
  127.6540  128.6030   62.5690 N   0  0  0  0  0  0  0  0  0  0  0  0
  128.8090  127.9220   62.7770 C   0  0  0  0  0  0  0  0  0  0  0  0
  129.4680  127.5070   61.8240 O   0  0  0  0  0  0  0  0  0  0  0  0
  131.3160  123.4750   61.1500 C   0  0  0  0  0  0  0  0  0  0  0  0
  131.0110  122.1710   60.7690 C   0  0  0  0  0  0  0  0  0  0  0  0
  130.1903  119.1624   62.0863 H   0  0  0  0  0  0  0  0  0  0  0  0
  129.6005  119.8864   60.5518 H   0  0  0  0  0  0  0  0  0  0  0  0
  130.3104  118.2363   60.5518 H   0  0  0  0  0  0  0  0  0  0  0  0
  133.7688  120.5832   62.0040 H   0  0  0  0  0  0  0  0  0  0  0  0
  134.3155  122.9118   62.6809 H   0  0  0  0  0  0  0  0  0  0  0  0
  133.5693  125.5854   61.6841 H   0  0  0  0  0  0  0  0  0  0  0  0
  131.8485  125.7258   62.2756 H   0  0  0  0  0  0  0  0  0  0  0  0
  130.7197  124.3628   63.9885 H   0  0  0  0  0  0  0  0  0  0  0  0
  130.9574  123.8718   65.7236 H   0  0  0  0  0  0  0  0  0  0  0  0
  131.3274  125.5083   67.2110 H   0  0  0  0  0  0  0  0  0  0  0  0
  131.0155  127.2461   66.7450 H   0  0  0  0  0  0  0  0  0  0  0  0
  128.4726  126.3635   67.1314 H   0  0  0  0  0  0  0  0  0  0  0  0
  129.4006  125.3639   68.3491 H   0  0  0  0  0  0  0  0  0  0  0  0
  130.4612  127.7463   68.9128 H   0  0  0  0  0  0  0  0  0  0  0  0
  128.8421  128.2908   68.2683 H   0  0  0  0  0  0  0  0  0  0  0  0
  130.6072  127.1919   71.0504 H   0  0  0  0  0  0  0  0  0  0  0  0
  129.6869  128.7537   71.0434 H   0  0  0  0  0  0  0  0  0  0  0  0
  129.6990  127.6103   73.2919 H   0  0  0  0  0  0  0  0  0  0  0  0
  128.0503  127.8605   72.6115 H   0  0  0  0  0  0  0  0  0  0  0  0
  127.6853  124.3857   71.6920 H   0  0  0  0  0  0  0  0  0  0  0  0
  126.8906  126.0022   71.6879 H   0  0  0  0  0  0  0  0  0  0  0  0
  129.3313  125.1442   70.0350 H   0  0  0  0  0  0  0  0  0  0  0  0
  127.6615  125.5018   69.4294 H   0  0  0  0  0  0  0  0  0  0  0  0
  131.1569  127.6428   64.9417 H   0  0  0  0  0  0  0  0  0  0  0  0
  130.7389  126.5043   63.5484 H   0  0  0  0  0  0  0  0  0  0  0  0
  128.6453  128.0190   66.2274 H   0  0  0  0  0  0  0  0  0  0  0  0
  125.7793  129.7125   67.9913 H   0  0  0  0  0  0  0  0  0  0  0  0
  126.6623  128.1936   67.6172 H   0  0  0  0  0  0  0  0  0  0  0  0
  127.5355  129.7634   67.6172 H   0  0  0  0  0  0  0  0  0  0  0  0
  124.4348  130.5300   66.3147 H   0  0  0  0  0  0  0  0  0  0  0  0
  123.8624  130.8534   63.9207 H   0  0  0  0  0  0  0  0  0  0  0  0
  124.2879  130.5840   61.6731 H   0  0  0  0  0  0  0  0  0  0  0  0
  126.0280  130.6152   61.2284 H   0  0  0  0  0  0  0  0  0  0  0  0
  125.1288  129.0602   61.2284 H   0  0  0  0  0  0  0  0  0  0  0  0
  127.4120  128.7310   61.5990 H   0  0  0  0  0  0  0  0  0  0  0  0
  130.6310  124.2966   60.8936 H   0  0  0  0  0  0  0  0  0  0  0  0
  130.0819  121.9645   60.2175 H   0  0  0  0  0  0  0  0  0  0  0  0
  1  2  1  0
  2  3  1  0
  3  4  2  0
  4  5  1  0
  5  6  2  0
  6  7  1  0
  7  8  1  0
  8  9  1  0
  9 10  2  0
 10 11  1  0
 11 12  2  0
 12 13  1  0
 13 14  1  0
 14 15  1  0
 15 16  1  0
 16 17  1  0
 17 18  1  0
 18 19  1  0
 19 20  1  0
 20 21  1  0
 21 22  1  0
 22 23  1  0
 14 24  1  0
 24 25  1  0
 25 26  2  0
 26 27  1  0
 27 28  2  0
 28 29  1  0
 28 30  1  0
 30 31  2  0
 31 32  1  0
 32 33  1  0
 32 34  2  0
 34 35  1  0
 35 36  1  0
 36 37  2  0
  6 38  1  0
 38 39  2  0
 39  3  1  0
 12  8  1  0
 23 18  1  0
 36 25  1  0
 34 27  1  0
  1 40  1  0
  1 41  1  0
  1 42  1  0
  4 43  1  0
  5 44  1  0
  7 45  1  0
  7 46  1  0
 13 47  1  0
 13 48  1  0
 15 49  1  0
 15 50  1  0
 16 51  1  0
 16 52  1  0
 17 53  1  0
 17 54  1  0
 19 55  1  0
 19 56  1  0
 20 57  1  0
 20 58  1  0
 22 59  1  0
 22 60  1  0
 23 61  1  0
 23 62  1  0
 24 63  1  0
 24 64  1  0
 26 65  1  0
 29 66  1  0
 29 67  1  0
 29 68  1  0
 30 69  1  0
 31 70  1  0
 33 71  1  0
 33 72  1  0
 33 73  1  0
 35 74  1  0
 38 75  1  0
 39 76  1  0
M  END
>  <Binding energies>  (1) 
[-9.21]

>  <Ligand effiencies>  (1) 
[-0.23025]

>  <Interactions>  (1) 
["V-B:ASP:366:CG:8184, V-B:HIS:456:CE1:9041, V-A:ARG:545:CZ:4926, V-B:GLU:543:CD:9879, V-A:ASP:366:CG:3212, V-A:LEU:475:CD2:4258, V-A:GLU:543:CD:4908, V-A:ILE:369:CD1:3238, V-A:GLU:543:CG:4907, H-A:ARG:545:NH2:4928, V-A:HIS:456:CE1:4069, V-B:TYR:539:CD2:9845, V-B:HIS:456:CD2:9039, V-A:ILE:369:CG2:3236, V-B:TYR:539:CE2:9847, V-B:GLU:543:C:9873, V-B:GLU:543:CG:9878, V-B:GLU:543:CB:9877, H-B:LYS:547:NZ:9922, H-A:TYR:484:OH:4347, V-A:TRP:381:CZ2:3369, V-A:TRP:381:CH2:3371, V-B:ARG:545:CZ:9897, H-A:ARG:545:NE:4924, H-A:GLY:454:N:4049, H-A:ARG:545:NH1:4927, V-A:PRO:482:CB:4325, V-A:PRO:482:CG:4326, V-B:GLY:544:C:9883"]

$$$$
RR15_Rahimova_2017
     RDKit          3D

 85 89  0  0  0  0  0  0  0  0999 V2000
  129.0500  129.1700   74.6350 C   0  0  0  0  0  0  0  0  0  0  0  0
  130.1220  128.4920   73.9880 O   0  0  0  0  0  0  0  0  0  0  0  0
  129.9910  128.1200   72.6610 C   0  0  0  0  0  0  0  0  0  0  0  0
  130.4520  128.8970   71.5870 C   0  0  0  0  0  0  0  0  0  0  0  0
  130.2860  128.4650   70.2730 C   0  0  0  0  0  0  0  0  0  0  0  0
  129.6540  127.2490   69.9940 C   0  0  0  0  0  0  0  0  0  0  0  0
  129.4690  126.7860   68.5750 C   0  0  0  0  0  0  0  0  0  0  0  0
  129.4000  125.5060   68.2380 N   0  0  0  0  0  0  0  0  0  0  0  0
  129.2390  125.4790   66.8680 N   0  0  0  0  0  0  0  0  0  0  0  0
  129.1880  126.7690   66.5330 N   0  0  0  0  0  0  0  0  0  0  0  0
  129.1850  127.2080   65.1390 C   0  0  0  0  0  0  0  0  0  0  0  0
  128.2650  128.4180   64.8400 C   0  0  0  0  0  0  0  0  0  0  0  0
  127.7660  129.0190   65.7940 O   0  0  0  0  0  0  0  0  0  0  0  0
  128.0550  128.8060   63.5450 N   0  0  0  0  0  0  0  0  0  0  0  0
  128.9800  129.7330   62.8620 C   0  0  0  0  0  0  0  0  0  0  0  0
  128.9550  131.1660   63.4370 C   0  0  0  0  0  0  0  0  0  0  0  0
  128.9610  132.2910   62.3760 C   0  0  0  0  0  0  0  0  0  0  0  0
  130.2550  132.4670   61.7090 N   0  0  0  0  0  0  0  0  0  0  0  0
  131.4000  132.0360   62.5240 C   0  0  0  0  0  0  0  0  0  0  0  0
  132.7270  132.1610   61.7450 C   0  0  0  0  0  0  0  0  0  0  0  0
  132.6430  131.4490   60.5150 O   0  0  0  0  0  0  0  0  0  0  0  0
  131.5990  131.9340   59.6780 C   0  0  0  0  0  0  0  0  0  0  0  0
  130.2410  131.7990   60.4000 C   0  0  0  0  0  0  0  0  0  0  0  0
  127.0150  128.1960   62.6620 C   0  0  2  0  0  0  0  0  0  0  0  0
  127.5880  127.2380   61.5710 C   0  0  0  0  0  0  0  0  0  0  0  0
  128.3190  127.6610   60.6750 O   0  0  0  0  0  0  0  0  0  0  0  0
  127.2630  125.9410   61.7070 N   0  0  0  0  0  0  0  0  0  0  0  0
  127.7620  124.8540   60.8720 C   0  0  0  0  0  0  0  0  0  0  0  0
  126.7700  123.6760   60.8390 C   0  0  2  0  0  0  0  0  0  0  0  0
  125.4650  123.9350   60.0660 C   0  0  0  0  0  0  0  0  0  0  0  0
  124.4400  124.2150   61.1380 C   0  0  0  0  0  0  0  0  0  0  0  0
  124.9280  123.3160   62.2610 C   0  0  0  0  0  0  0  0  0  0  0  0
  126.3400  123.4790   62.1930 O   0  0  0  0  0  0  0  0  0  0  0  0
  126.0060  129.2470   62.2130 C   0  0  0  0  0  0  0  0  0  0  0  0
  126.0320  129.6580   60.8750 C   0  0  0  0  0  0  0  0  0  0  0  0
  125.1350  130.6150   60.4090 C   0  0  0  0  0  0  0  0  0  0  0  0
  124.2010  131.1680   61.2810 C   0  0  0  0  0  0  0  0  0  0  0  0
  123.3290  132.0970   60.8280 F   0  0  0  0  0  0  0  0  0  0  0  0
  124.1590  130.7700   62.6140 C   0  0  0  0  0  0  0  0  0  0  0  0
  125.0570  129.8140   63.0790 C   0  0  0  0  0  0  0  0  0  0  0  0
  129.3650  127.6160   67.5540 N   0  0  0  0  0  0  0  0  0  0  0  0
  129.1960  126.4750   71.0680 C   0  0  0  0  0  0  0  0  0  0  0  0
  129.3590  126.8950   72.3990 C   0  0  0  0  0  0  0  0  0  0  0  0
  128.9280  126.1650   73.4930 O   0  0  0  0  0  0  0  0  0  0  0  0
  129.7200  125.0850   73.9750 C   0  0  0  0  0  0  0  0  0  0  0  0
  129.1722  129.0927   75.7255 H   0  0  0  0  0  0  0  0  0  0  0  0
  129.0549  130.2296   74.3397 H   0  0  0  0  0  0  0  0  0  0  0  0
  128.0947  128.7115   74.3397 H   0  0  0  0  0  0  0  0  0  0  0  0
  130.9499  129.8577   71.7849 H   0  0  0  0  0  0  0  0  0  0  0  0
  130.6563  129.0876   69.4452 H   0  0  0  0  0  0  0  0  0  0  0  0
  130.2138  127.4847   64.8654 H   0  0  0  0  0  0  0  0  0  0  0  0
  128.7903  126.3666   64.5506 H   0  0  0  0  0  0  0  0  0  0  0  0
  130.0021  129.3377   62.9575 H   0  0  0  0  0  0  0  0  0  0  0  0
  128.6539  129.8002   61.8136 H   0  0  0  0  0  0  0  0  0  0  0  0
  128.0452  131.2746   64.0457 H   0  0  0  0  0  0  0  0  0  0  0  0
  129.8821  131.2829   64.0173 H   0  0  0  0  0  0  0  0  0  0  0  0
  128.2065  132.0516   61.6121 H   0  0  0  0  0  0  0  0  0  0  0  0
  128.7415  133.2309   62.9036 H   0  0  0  0  0  0  0  0  0  0  0  0
  131.4540  132.6642   63.4254 H   0  0  0  0  0  0  0  0  0  0  0  0
  131.2549  130.9790   62.7919 H   0  0  0  0  0  0  0  0  0  0  0  0
  132.9282  133.2224   61.5376 H   0  0  0  0  0  0  0  0  0  0  0  0
  133.5408  131.7364   62.3511 H   0  0  0  0  0  0  0  0  0  0  0  0
  131.7829  132.9925   59.4418 H   0  0  0  0  0  0  0  0  0  0  0  0
  131.5757  131.3444   58.7496 H   0  0  0  0  0  0  0  0  0  0  0  0
  129.4580  132.2539   59.7755 H   0  0  0  0  0  0  0  0  0  0  0  0
  130.0425  130.7292   60.5620 H   0  0  0  0  0  0  0  0  0  0  0  0
  126.4238  127.4830   63.2554 H   0  0  0  0  0  0  0  0  0  0  0  0
  126.6800  125.6700   62.4860 H   0  0  0  0  0  0  0  0  0  0  0  0
  127.9100  125.2272   59.8479 H   0  0  0  0  0  0  0  0  0  0  0  0
  128.7122  124.4972   61.2960 H   0  0  0  0  0  0  0  0  0  0  0  0
  127.2982  122.8421   60.3536 H   0  0  0  0  0  0  0  0  0  0  0  0
  125.5747  124.8014   59.3971 H   0  0  0  0  0  0  0  0  0  0  0  0
  125.1813  123.0853   59.4277 H   0  0  0  0  0  0  0  0  0  0  0  0
  124.4494  125.2735   61.4370 H   0  0  0  0  0  0  0  0  0  0  0  0
  123.4018  124.0246   60.8283 H   0  0  0  0  0  0  0  0  0  0  0  0
  124.5359  123.6467   63.2341 H   0  0  0  0  0  0  0  0  0  0  0  0
  124.6014  122.2705   62.1597 H   0  0  0  0  0  0  0  0  0  0  0  0
  126.7686  129.2204   60.1851 H   0  0  0  0  0  0  0  0  0  0  0  0
  125.1639  130.9330   59.3564 H   0  0  0  0  0  0  0  0  0  0  0  0
  123.4182  131.2098   63.2979 H   0  0  0  0  0  0  0  0  0  0  0  0
  125.0232  129.5001   64.1327 H   0  0  0  0  0  0  0  0  0  0  0  0
  128.6971  125.5160   70.8647 H   0  0  0  0  0  0  0  0  0  0  0  0
  129.7163  125.0900   75.0750 H   0  0  0  0  0  0  0  0  0  0  0  0
  129.3036  124.1341   73.6113 H   0  0  0  0  0  0  0  0  0  0  0  0
  130.7521  125.1963   73.6113 H   0  0  0  0  0  0  0  0  0  0  0  0
  1  2  1  0
  2  3  1  0
  3  4  2  0
  4  5  1  0
  5  6  2  0
  6  7  1  0
  7  8  1  0
  8  9  2  0
  9 10  1  0
 10 11  1  0
 11 12  1  0
 12 13  2  0
 12 14  1  0
 14 15  1  0
 15 16  1  0
 16 17  1  0
 17 18  1  0
 18 19  1  0
 19 20  1  0
 20 21  1  0
 21 22  1  0
 22 23  1  0
 14 24  1  0
 24 25  1  0
 25 26  2  0
 25 27  1  0
 27 28  1  0
 28 29  1  0
 29 30  1  0
 30 31  1  0
 31 32  1  0
 32 33  1  0
 24 34  1  0
 34 35  2  0
 35 36  1  0
 36 37  2  0
 37 38  1  0
 37 39  1  0
 39 40  2  0
 10 41  1  0
  6 42  1  0
 42 43  2  0
 43 44  1  0
 44 45  1  0
 43  3  1  0
 41  7  2  0
 23 18  1  0
 33 29  1  0
 40 34  1  0
  1 46  1  0
  1 47  1  0
  1 48  1  0
  4 49  1  0
  5 50  1  0
 11 51  1  0
 11 52  1  0
 15 53  1  0
 15 54  1  0
 16 55  1  0
 16 56  1  0
 17 57  1  0
 17 58  1  0
 19 59  1  0
 19 60  1  0
 20 61  1  0
 20 62  1  0
 22 63  1  0
 22 64  1  0
 23 65  1  0
 23 66  1  0
 24 67  1  1
 27 68  1  0
 28 69  1  0
 28 70  1  0
 29 71  1  6
 30 72  1  0
 30 73  1  0
 31 74  1  0
 31 75  1  0
 32 76  1  0
 32 77  1  0
 35 78  1  0
 36 79  1  0
 39 80  1  0
 40 81  1  0
 42 82  1  0
 45 83  1  0
 45 84  1  0
 45 85  1  0
M  END
>  <Binding energies>  (1) 
[-9.7]

>  <Ligand effiencies>  (1) 
[-0.21086956521739128]

>  <Interactions>  (1) 
["V-B:ASP:366:CG:8184, V-B:HIS:456:CE1:9041, V-B:GLU:543:CD:9879, V-B:ILE:369:CB:8207, V-A:GLU:543:CD:4908, V-A:ALA:541:CB:4892, V-B:ILE:369:CD1:8210, V-A:GLU:543:CG:4907, V-B:ILE:369:CG2:8208, V-A:HIS:456:CE1:4069, V-A:GLU:543:CB:4906, V-A:HIS:456:CD2:4067, V-B:GLU:543:CG:9878, H-B:GLU:543:OE2:9881, V-B:ASP:366:CB:8183, H-B:LYS:547:NZ:9922, V-A:ASN:362:CB:3175, V-A:PRO:540:C:4881, V-A:ALA:541:CA:4890, V-A:PRO:540:CB:4885, V-A:PRO:540:CA:4883, V-B:LYS:547:CE:9921, H-A:LYS:547:NZ:4951, V-A:LYS:547:CE:4950, V-B:PRO:540:CA:9854, V-B:ARG:545:CZ:9897, H-B:ALA:541:N:9862, H-B:ASP:366:OD2:8186, H-A:ALA:541:N:4891, V-B:PRO:540:CB:9856, V-B:ASN:362:CB:8147, V-B:ALA:541:C:9859, V-B:ASN:362:C:8143, V-B:ILE:369:CG1:8209"]

$$$$
RR16_Rahimova_2017
     RDKit          3D

 80 85  0  0  0  0  0  0  0  0999 V2000
  133.8450  124.2970   63.3810 O   0  0  0  0  0  0  0  0  0  0  0  0
  132.7780  123.3750   63.7870 S   0  0  0  0  0  0  0  0  0  0  0  0
  133.0880  122.0070   64.2190 O   0  0  0  0  0  0  0  0  0  0  0  0
  131.6230  123.2800   62.4550 N   0  0  0  0  0  0  0  0  0  0  0  0
  131.9880  122.6250   61.1770 C   0  0  0  0  0  0  0  0  0  0  0  0
  132.7000  121.2810   61.4790 C   0  0  0  0  0  0  0  0  0  0  0  0
  132.3180  120.0670   60.6090 C   0  0  0  0  0  0  0  0  0  0  0  0
  130.9390  119.4710   60.9410 C   0  0  0  0  0  0  0  0  0  0  0  0
  129.9510  120.4180   61.6510 C   0  0  0  0  0  0  0  0  0  0  0  0
  129.5650  121.7160   60.9150 C   0  0  0  0  0  0  0  0  0  0  0  0
  130.7190  122.5280   60.2970 C   0  0  0  0  0  0  0  0  0  0  0  0
  131.8730  124.1770   65.1050 C   0  0  0  0  0  0  0  0  0  0  0  0
  130.5630  123.7920   65.3960 C   0  0  0  0  0  0  0  0  0  0  0  0
  129.8290  124.5050   66.3400 C   0  0  0  0  0  0  0  0  0  0  0  0
  130.4080  125.5980   66.9880 C   0  0  0  0  0  0  0  0  0  0  0  0
  129.4220  126.6020   68.0970 S   0  0  0  0  0  0  0  0  0  0  0  0
  130.3460  127.4500   68.8610 O   0  0  0  0  0  0  0  0  0  0  0  0
  128.4920  125.7040   68.7930 O   0  0  0  0  0  0  0  0  0  0  0  0
  128.4770  127.6440   67.0140 N   0  0  0  0  0  0  0  0  0  0  0  0
  128.0570  128.9360   67.6160 C   0  0  0  0  0  0  0  0  0  0  0  0
  126.9960  129.6230   66.7320 C   0  0  0  0  0  0  0  0  0  0  0  0
  127.4750  129.7650   65.2660 C   0  0  0  0  0  0  0  0  0  0  0  0
  126.4170  130.4040   64.3610 C   0  0  0  0  0  0  0  0  0  0  0  0
  125.0990  129.9260   64.3880 C   0  0  0  0  0  0  0  0  0  0  0  0
  124.1010  130.4830   63.5870 C   0  0  0  0  0  0  0  0  0  0  0  0
  122.8160  130.0060   63.6300 O   0  0  0  0  0  0  0  0  0  0  0  0
  124.4480  131.5480   62.7420 C   0  0  0  0  0  0  0  0  0  0  0  0
  123.6950  132.2880   61.8770 N   0  0  0  0  0  0  0  0  0  0  0  0
  124.5220  133.2360   61.3140 N   0  0  0  0  0  0  0  0  0  0  0  0
  125.7680  133.0520   61.7920 N   0  0  0  0  0  0  0  0  0  0  0  0
  126.8360  133.9740   61.4290 C   0  0  0  0  0  0  0  0  0  0  0  0
  128.0420  133.2680   60.8260 C   0  0  0  0  0  0  0  0  0  0  0  0
  128.0730  132.9760   59.4580 C   0  0  0  0  0  0  0  0  0  0  0  0
  129.1880  132.3480   58.9000 C   0  0  0  0  0  0  0  0  0  0  0  0
  130.2760  132.0110   59.7050 C   0  0  0  0  0  0  0  0  0  0  0  0
  130.2520  132.3010   61.0690 C   0  0  0  0  0  0  0  0  0  0  0  0
  131.6000  131.8940   62.0660 Cl  0  0  0  0  0  0  0  0  0  0  0  0
  129.1350  132.9250   61.6290 C   0  0  0  0  0  0  0  0  0  0  0  0
  125.7820  132.0190   62.7150 C   0  0  0  0  0  0  0  0  0  0  0  0
  126.7840  131.4590   63.5140 C   0  0  0  0  0  0  0  0  0  0  0  0
  128.0280  128.4330   64.6960 C   0  0  0  0  0  0  0  0  0  0  0  0
  129.0480  127.7790   65.6490 C   0  0  0  0  0  0  0  0  0  0  0  0
  131.7320  125.9560   66.7250 C   0  0  0  0  0  0  0  0  0  0  0  0
  132.4640  125.2460   65.7800 C   0  0  0  0  0  0  0  0  0  0  0  0
  130.6300  123.2840   62.7000 H   0  0  0  0  0  0  0  0  0  0  0  0
  132.7147  123.2082   60.5924 H   0  0  0  0  0  0  0  0  0  0  0  0
  133.7810  121.4458   61.3598 H   0  0  0  0  0  0  0  0  0  0  0  0
  132.3768  121.0126   62.4956 H   0  0  0  0  0  0  0  0  0  0  0  0
  132.3139  120.3835   59.5555 H   0  0  0  0  0  0  0  0  0  0  0  0
  133.0619  119.2824   60.8116 H   0  0  0  0  0  0  0  0  0  0  0  0
  130.4760  119.1461   59.9976 H   0  0  0  0  0  0  0  0  0  0  0  0
  131.1306  118.6530   61.6510 H   0  0  0  0  0  0  0  0  0  0  0  0
  129.0248  119.8533   61.8333 H   0  0  0  0  0  0  0  0  0  0  0  0
  130.4800  120.7523   62.5556 H   0  0  0  0  0  0  0  0  0  0  0  0
  128.8744  121.4461   60.1025 H   0  0  0  0  0  0  0  0  0  0  0  0
  129.1318  122.3691   61.6869 H   0  0  0  0  0  0  0  0  0  0  0  0
  130.9986  122.0547   59.3442 H   0  0  0  0  0  0  0  0  0  0  0  0
  130.3454  123.5557   60.1778 H   0  0  0  0  0  0  0  0  0  0  0  0
  130.1131  122.9298   64.8821 H   0  0  0  0  0  0  0  0  0  0  0  0
  128.7961  124.2082   66.5747 H   0  0  0  0  0  0  0  0  0  0  0  0
  127.6320  128.7497   68.6133 H   0  0  0  0  0  0  0  0  0  0  0  0
  128.9348  129.5941   67.6954 H   0  0  0  0  0  0  0  0  0  0  0  0
  126.0747  129.0222   66.7492 H   0  0  0  0  0  0  0  0  0  0  0  0
  126.8171  130.6316   67.1330 H   0  0  0  0  0  0  0  0  0  0  0  0
  128.3217  130.4671   65.2815 H   0  0  0  0  0  0  0  0  0  0  0  0
  124.8453  129.0909   65.0575 H   0  0  0  0  0  0  0  0  0  0  0  0
  122.5270  129.6230   62.7980 H   0  0  0  0  0  0  0  0  0  0  0  0
  126.4454  134.6931   60.6940 H   0  0  0  0  0  0  0  0  0  0  0  0
  127.1701  134.4744   62.3499 H   0  0  0  0  0  0  0  0  0  0  0  0
  127.2168  133.2419   58.8207 H   0  0  0  0  0  0  0  0  0  0  0  0
  129.2085  132.1187   57.8244 H   0  0  0  0  0  0  0  0  0  0  0  0
  131.1537  131.5161   59.2637 H   0  0  0  0  0  0  0  0  0  0  0  0
  129.1146  133.1477   62.7060 H   0  0  0  0  0  0  0  0  0  0  0  0
  127.8185  131.8314   63.4792 H   0  0  0  0  0  0  0  0  0  0  0  0
  127.1900  127.7376   64.5406 H   0  0  0  0  0  0  0  0  0  0  0  0
  128.5406  128.6546   63.7483 H   0  0  0  0  0  0  0  0  0  0  0  0
  129.3115  126.7816   65.2672 H   0  0  0  0  0  0  0  0  0  0  0  0
  129.9435  128.4157   65.7008 H   0  0  0  0  0  0  0  0  0  0  0  0
  132.1940  126.7966   67.2635 H   0  0  0  0  0  0  0  0  0  0  0  0
  133.5058  125.5260   65.5650 H   0  0  0  0  0  0  0  0  0  0  0  0
  1  2  2  0
  2  3  2  0
  2  4  1  0
  4  5  1  0
  5  6  1  0
  6  7  1  0
  7  8  1  0
  8  9  1  0
  9 10  1  0
 10 11  1  0
  2 12  1  0
 12 13  2  0
 13 14  1  0
 14 15  2  0
 15 16  1  0
 16 17  2  0
 16 18  2  0
 16 19  1  0
 19 20  1  0
 20 21  1  0
 21 22  1  0
 22 23  1  0
 23 24  2  0
 24 25  1  0
 25 26  1  0
 25 27  2  0
 27 28  1  0
 28 29  2  0
 29 30  1  0
 30 31  1  0
 31 32  1  0
 32 33  2  0
 33 34  1  0
 34 35  2  0
 35 36  1  0
 36 37  1  0
 36 38  2  0
 30 39  1  0
 39 40  2  0
 22 41  1  0
 41 42  1  0
 15 43  1  0
 43 44  2  0
 11  5  1  0
 44 12  1  0
 42 19  1  0
 40 23  1  0
 39 27  1  0
 38 32  1  0
  4 45  1  0
  5 46  1  0
  6 47  1  0
  6 48  1  0
  7 49  1  0
  7 50  1  0
  8 51  1  0
  8 52  1  0
  9 53  1  0
  9 54  1  0
 10 55  1  0
 10 56  1  0
 11 57  1  0
 11 58  1  0
 13 59  1  0
 14 60  1  0
 20 61  1  0
 20 62  1  0
 21 63  1  0
 21 64  1  0
 22 65  1  0
 24 66  1  0
 26 67  1  0
 31 68  1  0
 31 69  1  0
 33 70  1  0
 34 71  1  0
 35 72  1  0
 38 73  1  0
 40 74  1  0
 41 75  1  0
 41 76  1  0
 42 77  1  0
 42 78  1  0
 43 79  1  0
 44 80  1  0
M  END
>  <Binding energies>  (1) 
[-10.66]

>  <Ligand effiencies>  (1) 
[-0.22208333333333333]

>  <Interactions>  (1) 
["V-B:HIS:456:CE1:9041, V-B:GLU:543:CD:9879, V-A:LEU:475:CD2:4258, V-A:TYR:484:CZ:4346, V-A:GLU:543:CD:4908, V-A:ALA:541:CB:4892, V-A:GLU:543:CG:4907, V-A:TYR:539:CE2:4876, V-A:TYR:539:CD2:4874, V-A:GLY:454:CA:4048, V-A:HIS:456:CE1:4069, V-B:TYR:539:CD2:9845, V-A:ILE:369:CG2:3236, V-A:GLU:543:CB:4906, V-B:TYR:539:CE2:9847, V-B:ALA:541:CB:9863, V-B:GLU:543:CG:9878, V-B:GLU:543:CB:9877, H-B:GLY:454:N:9021, H-B:ARG:545:NH2:9899, V-A:PRO:540:CA:4883, H-A:TYR:484:OH:4347, V-B:ALA:541:CA:9861, V-A:TRP:381:CZ2:3369, V-A:TRP:381:CH2:3371, H-B:ARG:545:NH1:9898, V-B:ARG:545:CZ:9897, H-B:ASP:366:OD1:8185, H-B:ASP:366:OD2:8186, H-A:GLY:454:N:4049, V-A:TYR:484:CE1:4344"]

$$$$
RR17_Rahimova_2017
     RDKit          3D

 63 66  0  0  0  0  0  0  0  0999 V2000
  130.7900  132.9840   57.2930 C   0  0  0  0  0  0  0  0  0  0  0  0
  130.7180  131.9420   58.4130 C   0  0  0  0  0  0  0  0  0  0  0  0
  129.7320  130.9710   58.0710 O   0  0  0  0  0  0  0  0  0  0  0  0
  128.4050  131.2190   58.3680 C   0  0  0  0  0  0  0  0  0  0  0  0
  127.4630  130.4110   57.7330 C   0  0  0  0  0  0  0  0  0  0  0  0
  126.1040  130.5860   57.9680 C   0  0  0  0  0  0  0  0  0  0  0  0
  125.6550  131.5820   58.8490 C   0  0  0  0  0  0  0  0  0  0  0  0
  124.1820  131.7470   59.0840 C   0  0  0  0  0  0  0  0  0  0  0  0
  123.4250  132.2200   58.2310 O   0  0  0  0  0  0  0  0  0  0  0  0
  123.6380  131.3120   60.4630 C   0  0  0  0  0  0  0  0  0  0  0  0
  124.1020  132.4840   61.7880 S   0  0  0  0  0  0  0  0  0  0  0  0
  124.4030  131.3450   63.1100 C   0  0  0  0  0  0  0  0  0  0  0  0
  123.4790  130.7310   63.8100 N   0  0  0  0  0  0  0  0  0  0  0  0
  124.1170  129.9220   64.7420 N   0  0  0  0  0  0  0  0  0  0  0  0
  125.4060  130.0760   64.5670 C   0  0  0  0  0  0  0  0  0  0  0  0
  126.4780  129.3600   65.3750 C   0  0  0  0  0  0  0  0  0  0  0  0
  126.8300  130.0380   66.6210 N   0  0  0  0  0  0  0  0  0  0  0  0
  127.7440  129.5240   67.5580 C   0  0  0  0  0  0  0  0  0  0  0  0
  128.0820  130.3390   68.6380 C   0  0  0  0  0  0  0  0  0  0  0  0
  128.9850  129.8950   69.5990 C   0  0  0  0  0  0  0  0  0  0  0  0
  129.5590  128.6250   69.4930 C   0  0  0  0  0  0  0  0  0  0  0  0
  130.5540  128.1540   70.5540 C   0  0  0  0  0  0  0  0  0  0  0  0
  130.7400  129.0660   71.5120 F   0  0  0  0  0  0  0  0  0  0  0  0
  130.1220  127.0330   71.1330 F   0  0  0  0  0  0  0  0  0  0  0  0
  131.7290  127.9110   69.9740 F   0  0  0  0  0  0  0  0  0  0  0  0
  129.2150  127.8030   68.4150 C   0  0  0  0  0  0  0  0  0  0  0  0
  128.3110  128.2470   67.4550 C   0  0  0  0  0  0  0  0  0  0  0  0
  125.6580  130.9770   63.5530 N   0  0  0  0  0  0  0  0  0  0  0  0
  126.9040  131.3950   63.0640 C   0  0  0  0  0  0  0  0  0  0  0  0
  127.1810  132.7580   62.9640 C   0  0  0  0  0  0  0  0  0  0  0  0
  128.4170  133.1730   62.4750 C   0  0  0  0  0  0  0  0  0  0  0  0
  129.3780  132.2260   62.0860 C   0  0  0  0  0  0  0  0  0  0  0  0
  130.6290  132.5450   61.5920 O   0  0  0  0  0  0  0  0  0  0  0  0
  131.7430  131.7310   61.9420 C   0  0  0  0  0  0  0  0  0  0  0  0
  129.0820  130.8650   62.1920 C   0  0  0  0  0  0  0  0  0  0  0  0
  127.8490  130.4440   62.6800 C   0  0  0  0  0  0  0  0  0  0  0  0
  126.6030  132.3940   59.4880 C   0  0  0  0  0  0  0  0  0  0  0  0
  127.9640  132.2150   59.2520 C   0  0  0  0  0  0  0  0  0  0  0  0
  130.8595  133.9901   57.7322 H   0  0  0  0  0  0  0  0  0  0  0  0
  131.6771  132.7932   56.6712 H   0  0  0  0  0  0  0  0  0  0  0  0
  129.8851  132.9171   56.6712 H   0  0  0  0  0  0  0  0  0  0  0  0
  131.6963  131.4521   58.5263 H   0  0  0  0  0  0  0  0  0  0  0  0
  130.4505  132.4296   59.3620 H   0  0  0  0  0  0  0  0  0  0  0  0
  127.7986  129.6266   57.0386 H   0  0  0  0  0  0  0  0  0  0  0  0
  125.3746  129.9385   57.4593 H   0  0  0  0  0  0  0  0  0  0  0  0
  122.5408  131.2542   60.4091 H   0  0  0  0  0  0  0  0  0  0  0  0
  124.0783  130.3340   60.7071 H   0  0  0  0  0  0  0  0  0  0  0  0
  126.1119  128.3521   65.6202 H   0  0  0  0  0  0  0  0  0  0  0  0
  127.3860  129.3392   64.7544 H   0  0  0  0  0  0  0  0  0  0  0  0
  126.2390  130.8010   66.9150 H   0  0  0  0  0  0  0  0  0  0  0  0
  127.6322  131.3385   68.7307 H   0  0  0  0  0  0  0  0  0  0  0  0
  129.2482  130.5461   70.4456 H   0  0  0  0  0  0  0  0  0  0  0  0
  129.6609  126.8014   68.3258 H   0  0  0  0  0  0  0  0  0  0  0  0
  128.0407  127.5934   66.6126 H   0  0  0  0  0  0  0  0  0  0  0  0
  126.4285  133.5000   63.2692 H   0  0  0  0  0  0  0  0  0  0  0  0
  128.6414  134.2468   62.3931 H   0  0  0  0  0  0  0  0  0  0  0  0
  131.8241  131.6718   63.0374 H   0  0  0  0  0  0  0  0  0  0  0  0
  131.6030  130.7209   61.5295 H   0  0  0  0  0  0  0  0  0  0  0  0
  132.6628  132.1713   61.5295 H   0  0  0  0  0  0  0  0  0  0  0  0
  129.8307  130.1192   61.8868 H   0  0  0  0  0  0  0  0  0  0  0  0
  127.6216  129.3709   62.7622 H   0  0  0  0  0  0  0  0  0  0  0  0
  126.2688  133.1794   60.1819 H   0  0  0  0  0  0  0  0  0  0  0  0
  128.6968  132.8580   59.7614 H   0  0  0  0  0  0  0  0  0  0  0  0
  1  2  1  0
  2  3  1  0
  3  4  1  0
  4  5  2  0
  5  6  1  0
  6  7  2  0
  7  8  1  0
  8  9  2  0
  8 10  1  0
 10 11  1  0
 11 12  1  0
 12 13  2  0
 13 14  1  0
 14 15  2  0
 15 16  1  0
 16 17  1  0
 17 18  1  0
 18 19  2  0
 19 20  1  0
 20 21  2  0
 21 22  1  0
 22 23  1  0
 22 24  1  0
 22 25  1  0
 21 26  1  0
 26 27  2  0
 15 28  1  0
 28 29  1  0
 29 30  2  0
 30 31  1  0
 31 32  2  0
 32 33  1  0
 33 34  1  0
 32 35  1  0
 35 36  2  0
  7 37  1  0
 37 38  2  0
 38  4  1  0
 28 12  1  0
 36 29  1  0
 27 18  1  0
  1 39  1  0
  1 40  1  0
  1 41  1  0
  2 42  1  0
  2 43  1  0
  5 44  1  0
  6 45  1  0
 10 46  1  0
 10 47  1  0
 16 48  1  0
 16 49  1  0
 17 50  1  0
 19 51  1  0
 20 52  1  0
 26 53  1  0
 27 54  1  0
 30 55  1  0
 31 56  1  0
 34 57  1  0
 34 58  1  0
 34 59  1  0
 35 60  1  0
 36 61  1  0
 37 62  1  0
 38 63  1  0
M  END
>  <Binding energies>  (1) 
[-8.42]

>  <Ligand effiencies>  (1) 
[-0.2158974358974359]

>  <Interactions>  (1) 
["V-B:ASP:366:CG:8184, V-B:HIS:456:CE1:9041, V-B:GLU:543:CD:9879, V-B:ILE:369:CB:8207, V-A:GLU:543:CD:4908, V-A:ALA:541:CB:4892, V-B:ILE:369:CD1:8210, V-A:GLU:543:CG:4907, V-B:LEU:475:CD1:9229, V-B:ILE:369:CG2:8208, V-A:TYR:539:CE2:4876, V-A:TYR:539:CD2:4874, V-A:HIS:456:CE1:4069, V-A:GLU:543:C:4902, V-A:GLU:543:CB:4906, V-A:GLY:544:C:4912, V-A:HIS:456:CD2:4067, V-A:ARG:545:CG:4922, V-A:ARG:545:CA:4919, V-B:TYR:484:CE1:9316, H-B:GLY:454:N:9021, V-B:ASP:366:CB:8183, H-B:ARG:545:NH2:9899, V-A:PRO:540:CA:4883, H-B:TYR:484:OH:9319, H-B:ARG:545:NE:9895, H-B:ARG:545:NH1:9898, V-B:ARG:545:CZ:9897, V-A:GLU:543:CA:4904, V-B:TYR:484:CZ:9318, V-A:TYR:539:C:4867, H-A:ALA:541:N:4891, V-B:ASP:366:CA:8181, V-A:PRO:540:N:4884, V-A:TYR:539:CZ:4877, V-A:PRO:540:CD:4887, H-A:TYR:539:OH:4878, H-B:ASN:370:N:8215"]

$$$$
RR18_Rahimova_2017
     RDKit          3D

 56 61  0  0  0  0  0  0  0  0999 V2000
  134.4000  125.1250   62.9690 C   0  0  0  0  0  0  0  0  0  0  0  0
  132.9740  125.5800   62.7850 C   0  0  0  0  0  0  0  0  0  0  0  0
  132.3340  126.4100   61.8780 C   0  0  0  0  0  0  0  0  0  0  0  0
  130.9870  126.4370   62.2370 C   0  0  0  0  0  0  0  0  0  0  0  0
  130.8520  125.6220   63.3490 C   0  0  0  0  0  0  0  0  0  0  0  0
  129.6690  125.2120   64.2230 C   0  0  1  0  0  0  0  0  0  0  0  0
  130.0110  123.9740   65.1050 C   0  0  0  0  0  0  0  0  0  0  0  0
  130.2920  122.6820   64.4880 C   0  0  0  0  0  0  0  0  0  0  0  0
  130.1840  121.6250   65.1130 O   0  0  0  0  0  0  0  0  0  0  0  0
  130.6590  122.7560   63.1870 N   0  0  0  0  0  0  0  0  0  0  0  0
  131.0210  121.7370   62.2810 C   0  0  0  0  0  0  0  0  0  0  0  0
  130.0860  120.9710   61.5610 C   0  0  0  0  0  0  0  0  0  0  0  0
  130.5110  119.9730   60.6860 C   0  0  0  0  0  0  0  0  0  0  0  0
  131.8690  119.7190   60.5210 C   0  0  0  0  0  0  0  0  0  0  0  0
  132.8060  120.4610   61.2360 C   0  0  0  0  0  0  0  0  0  0  0  0
  132.3950  121.4670   62.1170 C   0  0  0  0  0  0  0  0  0  0  0  0
  133.4610  122.2480   62.8800 C   0  0  0  0  0  0  0  0  0  0  0  0
  130.1430  124.1520   66.4460 C   0  0  0  0  0  0  0  0  0  0  0  0
  129.8810  125.3150   67.1050 N   0  0  0  0  0  0  0  0  0  0  0  0
  129.4000  126.3120   66.4580 C   0  0  0  0  0  0  0  0  0  0  0  0
  128.8760  127.8100   67.1900 S   0  0  0  0  0  0  0  0  0  0  0  0
  128.3760  128.4720   65.6020 C   0  0  0  0  0  0  0  0  0  0  0  0
  127.8200  129.7080   65.3530 C   0  0  0  0  0  0  0  0  0  0  0  0
  127.4990  130.6150   66.4650 C   0  0  0  0  0  0  0  0  0  0  0  0
  127.6700  130.4750   67.6750 O   0  0  0  0  0  0  0  0  0  0  0  0
  126.9280  131.7040   65.9390 N   0  0  0  0  0  0  0  0  0  0  0  0
  126.8520  131.6600   64.5800 C   0  0  0  0  0  0  0  0  0  0  0  0
  126.3320  132.6280   63.7210 C   0  0  0  0  0  0  0  0  0  0  0  0
  126.3770  132.4030   62.3480 C   0  0  0  0  0  0  0  0  0  0  0  0
  126.9450  131.2270   61.8610 C   0  0  0  0  0  0  0  0  0  0  0  0
  127.4590  130.2720   62.7410 C   0  0  0  0  0  0  0  0  0  0  0  0
  127.4020  130.4710   64.1340 C   0  0  0  0  0  0  0  0  0  0  0  0
  128.6460  127.4560   64.5840 C   0  0  0  0  0  0  0  0  0  0  0  0
  128.3850  127.5350   63.3870 O   0  0  0  0  0  0  0  0  0  0  0  0
  129.2250  126.3430   65.1120 N   0  0  0  0  0  0  0  0  0  0  0  0
  132.0660  125.1050   63.6770 O   0  0  0  0  0  0  0  0  0  0  0  0
  134.6262  125.0528   64.0431 H   0  0  0  0  0  0  0  0  0  0  0  0
  134.5340  124.1395   62.4991 H   0  0  0  0  0  0  0  0  0  0  0  0
  135.0800  125.8508   62.4991 H   0  0  0  0  0  0  0  0  0  0  0  0
  132.7993  126.9446   61.0367 H   0  0  0  0  0  0  0  0  0  0  0  0
  130.1855  126.9977   61.7339 H   0  0  0  0  0  0  0  0  0  0  0  0
  128.8494  124.9481   63.5384 H   0  0  0  0  0  0  0  0  0  0  0  0
  130.6250  123.6760   62.7740 H   0  0  0  0  0  0  0  0  0  0  0  0
  129.0103  121.1614   61.6898 H   0  0  0  0  0  0  0  0  0  0  0  0
  129.7707  119.3844   60.1242 H   0  0  0  0  0  0  0  0  0  0  0  0
  132.2021  118.9333   59.8269 H   0  0  0  0  0  0  0  0  0  0  0  0
  133.8786  120.2542   61.1069 H   0  0  0  0  0  0  0  0  0  0  0  0
  133.2988  122.1292   63.9615 H   0  0  0  0  0  0  0  0  0  0  0  0
  134.4571  121.8644   62.6143 H   0  0  0  0  0  0  0  0  0  0  0  0
  133.3955  123.3134   62.6143 H   0  0  0  0  0  0  0  0  0  0  0  0
  130.4865  123.2942   67.0427 H   0  0  0  0  0  0  0  0  0  0  0  0
  126.6090  132.4830   66.4960 H   0  0  0  0  0  0  0  0  0  0  0  0
  125.8936  133.5538   64.1218 H   0  0  0  0  0  0  0  0  0  0  0  0
  125.9667  133.1490   61.6514 H   0  0  0  0  0  0  0  0  0  0  0  0
  126.9887  131.0499   60.7762 H   0  0  0  0  0  0  0  0  0  0  0  0
  127.9137  129.3536   62.3413 H   0  0  0  0  0  0  0  0  0  0  0  0
  1  2  1  0
  2  3  2  0
  3  4  1  0
  4  5  2  0
  5  6  1  0
  6  7  1  0
  7  8  1  0
  8  9  2  0
  8 10  1  0
 10 11  1  0
 11 12  2  0
 12 13  1  0
 13 14  2  0
 14 15  1  0
 15 16  2  0
 16 17  1  0
  7 18  2  0
 18 19  1  0
 19 20  2  0
 20 21  1  0
 21 22  1  0
 22 23  2  0
 23 24  1  0
 24 25  2  0
 24 26  1  0
 26 27  1  0
 27 28  2  0
 28 29  1  0
 29 30  2  0
 30 31  1  0
 31 32  2  0
 22 33  1  0
 33 34  2  0
 33 35  1  0
  5 36  1  0
 36  2  1  0
 35  6  1  0
 16 11  1  0
 35 20  1  0
 32 23  1  0
 32 27  1  0
  1 37  1  0
  1 38  1  0
  1 39  1  0
  3 40  1  0
  4 41  1  0
  6 42  1  6
 10 43  1  0
 12 44  1  0
 13 45  1  0
 14 46  1  0
 15 47  1  0
 17 48  1  0
 17 49  1  0
 17 50  1  0
 18 51  1  0
 26 52  1  0
 28 53  1  0
 29 54  1  0
 30 55  1  0
 31 56  1  0
M  END
>  <Binding energies>  (1) 
[-8.1]

>  <Ligand effiencies>  (1) 
[-0.2131578947368421]

>  <Interactions>  (1) 
["V-A:ARG:545:CZ:4926, V-B:GLU:543:CD:9879, V-A:ASP:366:CG:3212, V-A:LEU:475:CD2:4258, V-A:TYR:484:CZ:4346, V-A:GLU:543:CD:4908, V-A:ILE:369:CD1:3238, V-A:GLU:543:CG:4907, V-B:LEU:475:CD1:9229, V-A:GLY:453:CA:4043, V-A:GLY:454:CA:4048, V-A:HIS:456:CE1:4069, V-B:TYR:539:CD2:9845, V-A:ILE:369:CG2:3236, V-B:TYR:539:CE2:9847, V-B:ALA:541:CB:9863, V-B:GLU:543:CG:9878, V-B:GLU:543:CB:9877, V-B:TYR:484:CE1:9316, H-B:TYR:484:OH:9319, H-A:TYR:484:OH:4347, V-A:TRP:381:CZ2:3369, V-A:TRP:381:CH2:3371, V-B:TYR:484:CZ:9318, V-A:GLY:453:C:4041, V-A:TYR:484:CE1:4344, V-A:TRP:381:CZ3:3370"]

$$$$
RR19_Rahimova_2017
     RDKit          3D

 72 77  0  0  0  0  0  0  0  0999 V2000
  124.9180  130.0150   59.5230 O   0  0  0  0  0  0  0  0  0  0  0  0
  125.6230  129.9990   60.5370 C   0  0  0  0  0  0  0  0  0  0  0  0
  126.5360  129.0470   60.8580 N   0  0  0  0  0  0  0  0  0  0  0  0
  127.1020  128.0160   60.1490 C   0  0  0  0  0  0  0  0  0  0  0  0
  126.9680  127.7790   58.4780 S   0  0  0  0  0  0  0  0  0  0  0  0
  127.7930  127.2120   61.0200 N   0  0  0  0  0  0  0  0  0  0  0  0
  128.6340  126.1610   60.8390 C   0  0  0  0  0  0  0  0  0  0  0  0
  129.1230  125.7910   59.7690 O   0  0  0  0  0  0  0  0  0  0  0  0
  128.9520  125.3810   62.1390 C   0  0  2  0  0  0  0  0  0  0  0  0
  129.8160  126.1590   63.1730 C   0  0  0  0  0  0  0  0  0  0  0  0
  129.7330  125.6480   64.6030 C   0  0  0  0  0  0  0  0  0  0  0  0
  129.8280  124.2680   64.8850 C   0  0  0  0  0  0  0  0  0  0  0  0
  129.8290  123.8270   66.2010 C   0  0  0  0  0  0  0  0  0  0  0  0
  129.7550  124.7390   67.2460 C   0  0  0  0  0  0  0  0  0  0  0  0
  129.6910  126.1020   66.9850 C   0  0  0  0  0  0  0  0  0  0  0  0
  129.6910  126.5640   65.6750 C   0  0  0  0  0  0  0  0  0  0  0  0
  129.5330  124.0440   61.8380 N   0  0  0  0  0  0  0  0  0  0  0  0
  128.7430  122.9400   61.7120 C   0  0  0  0  0  0  0  0  0  0  0  0
  127.5190  122.8780   61.8470 O   0  0  0  0  0  0  0  0  0  0  0  0
  129.6650  121.8280   61.3720 C   0  0  0  0  0  0  0  0  0  0  0  0
  129.4190  120.4760   61.1330 C   0  0  0  0  0  0  0  0  0  0  0  0
  130.5000  119.6430   60.8210 C   0  0  0  0  0  0  0  0  0  0  0  0
  131.7980  120.1670   60.7510 C   0  0  0  0  0  0  0  0  0  0  0  0
  132.0230  121.5270   60.9930 C   0  0  0  0  0  0  0  0  0  0  0  0
  130.9330  122.3400   61.3040 C   0  0  0  0  0  0  0  0  0  0  0  0
  130.8540  123.7930   61.5970 C   0  0  0  0  0  0  0  0  0  0  0  0
  131.7860  124.5990   61.6090 O   0  0  0  0  0  0  0  0  0  0  0  0
  125.4870  131.1380   61.5820 C   0  0  2  0  0  0  0  0  0  0  0  0
  126.4960  132.3050   61.3780 C   0  0  0  0  0  0  0  0  0  0  0  0
  125.9810  133.6540   61.8480 C   0  0  0  0  0  0  0  0  0  0  0  0
  126.8330  134.7790   61.8380 C   0  0  0  0  0  0  0  0  0  0  0  0
  126.3320  136.0310   62.1720 C   0  0  0  0  0  0  0  0  0  0  0  0
  124.9900  136.1870   62.4900 C   0  0  0  0  0  0  0  0  0  0  0  0
  124.1310  135.0950   62.4660 C   0  0  0  0  0  0  0  0  0  0  0  0
  124.6120  133.8340   62.1360 C   0  0  0  0  0  0  0  0  0  0  0  0
  125.4930  130.6510   62.9910 N   0  0  0  0  0  0  0  0  0  0  0  0
  126.6550  130.3940   63.6550 C   0  0  0  0  0  0  0  0  0  0  0  0
  127.8020  130.4980   63.2200 O   0  0  0  0  0  0  0  0  0  0  0  0
  126.2430  129.9620   65.0140 C   0  0  0  0  0  0  0  0  0  0  0  0
  127.0020  129.5680   66.1170 C   0  0  0  0  0  0  0  0  0  0  0  0
  126.3360  129.2090   67.2950 C   0  0  0  0  0  0  0  0  0  0  0  0
  124.9370  129.2510   67.3560 C   0  0  0  0  0  0  0  0  0  0  0  0
  124.1940  129.6510   66.2390 C   0  0  0  0  0  0  0  0  0  0  0  0
  124.8770  130.0030   65.0740 C   0  0  0  0  0  0  0  0  0  0  0  0
  124.3770  130.4620   63.7550 C   0  0  0  0  0  0  0  0  0  0  0  0
  123.2040  130.6360   63.4210 O   0  0  0  0  0  0  0  0  0  0  0  0
  126.9500  129.1830   61.7680 H   0  0  0  0  0  0  0  0  0  0  0  0
  127.5600  127.3720   61.9890 H   0  0  0  0  0  0  0  0  0  0  0  0
  127.9795  125.2426   62.6341 H   0  0  0  0  0  0  0  0  0  0  0  0
  130.8663  126.1003   62.8513 H   0  0  0  0  0  0  0  0  0  0  0  0
  129.4183  127.1844   63.1923 H   0  0  0  0  0  0  0  0  0  0  0  0
  129.9012  123.5422   64.0617 H   0  0  0  0  0  0  0  0  0  0  0  0
  129.8887  122.7502   66.4174 H   0  0  0  0  0  0  0  0  0  0  0  0
  129.7470  124.3801   68.2858 H   0  0  0  0  0  0  0  0  0  0  0  0
  129.6401  126.8179   67.8186 H   0  0  0  0  0  0  0  0  0  0  0  0
  129.6582  127.6449   65.4734 H   0  0  0  0  0  0  0  0  0  0  0  0
  128.3971  120.0728   61.1885 H   0  0  0  0  0  0  0  0  0  0  0  0
  130.3300  118.5731   60.6301 H   0  0  0  0  0  0  0  0  0  0  0  0
  132.6429  119.5070   60.5050 H   0  0  0  0  0  0  0  0  0  0  0  0
  133.0386  121.9462   60.9391 H   0  0  0  0  0  0  0  0  0  0  0  0
  124.4880  131.5575   61.3922 H   0  0  0  0  0  0  0  0  0  0  0  0
  127.4138  132.0708   61.9373 H   0  0  0  0  0  0  0  0  0  0  0  0
  126.6707  132.3899   60.2953 H   0  0  0  0  0  0  0  0  0  0  0  0
  127.8927  134.6647   61.5660 H   0  0  0  0  0  0  0  0  0  0  0  0
  127.0023  136.9031   62.1845 H   0  0  0  0  0  0  0  0  0  0  0  0
  124.6043  137.1805   62.7625 H   0  0  0  0  0  0  0  0  0  0  0  0
  123.0666  135.2294   62.7091 H   0  0  0  0  0  0  0  0  0  0  0  0
  123.9250  132.9757   62.0993 H   0  0  0  0  0  0  0  0  0  0  0  0
  128.1003  129.5401   66.0619 H   0  0  0  0  0  0  0  0  0  0  0  0
  126.9135  128.8927   68.1762 H   0  0  0  0  0  0  0  0  0  0  0  0
  124.4204  128.9686   68.2852 H   0  0  0  0  0  0  0  0  0  0  0  0
  123.0953  129.6871   66.2787 H   0  0  0  0  0  0  0  0  0  0  0  0
  1  2  2  0
  2  3  1  0
  3  4  1  0
  4  5  2  0
  4  6  1  0
  6  7  1  0
  7  8  2  0
  7  9  1  0
  9 10  1  0
 10 11  1  0
 11 12  2  0
 12 13  1  0
 13 14  2  0
 14 15  1  0
 15 16  2  0
  9 17  1  0
 17 18  1  0
 18 19  2  0
 18 20  1  0
 20 21  2  0
 21 22  1  0
 22 23  2  0
 23 24  1  0
 24 25  2  0
 25 26  1  0
 26 27  2  0
  2 28  1  0
 28 29  1  0
 29 30  1  0
 30 31  2  0
 31 32  1  0
 32 33  2  0
 33 34  1  0
 34 35  2  0
 28 36  1  0
 36 37  1  0
 37 38  2  0
 37 39  1  0
 39 40  2  0
 40 41  1  0
 41 42  2  0
 42 43  1  0
 43 44  2  0
 44 45  1  0
 45 46  2  0
 16 11  1  0
 26 17  1  0
 35 30  1  0
 45 36  1  0
 25 20  1  0
 44 39  1  0
  3 47  1  0
  6 48  1  0
  9 49  1  1
 10 50  1  0
 10 51  1  0
 12 52  1  0
 13 53  1  0
 14 54  1  0
 15 55  1  0
 16 56  1  0
 21 57  1  0
 22 58  1  0
 23 59  1  0
 24 60  1  0
 28 61  1  6
 29 62  1  0
 29 63  1  0
 31 64  1  0
 32 65  1  0
 33 66  1  0
 34 67  1  0
 35 68  1  0
 40 69  1  0
 41 70  1  0
 42 71  1  0
 43 72  1  0
M  END
>  <Binding energies>  (1) 
[-10.73]

>  <Ligand effiencies>  (1) 
[-0.22354166666666667]

>  <Interactions>  (1) 
["V-B:ASP:366:CG:8184, V-B:HIS:456:CE1:9041, V-B:GLU:543:CD:9879, V-A:LEU:475:CD2:4258, V-A:TYR:484:CZ:4346, V-A:GLU:543:CD:4908, V-B:TRP:381:CZ2:8341, V-B:LEU:475:CD1:9229, V-B:ILE:369:CG2:8208, V-B:TRP:381:CH2:8343, V-A:TYR:539:CD2:4874, V-A:HIS:456:CE1:4069, V-B:TYR:539:CD2:9845, V-A:ILE:369:CG2:3236, V-B:TYR:539:CE2:9847, V-B:ALA:541:CB:9863, V-B:GLU:543:CG:9878, V-B:GLU:543:CB:9877, H-B:GLY:454:N:9021, H-B:GLU:543:OE2:9881, V-B:PRO:540:C:9852, V-B:ALA:541:CA:9861, V-B:TYR:539:C:9838, V-A:TRP:381:CH2:3371, H-B:ARG:545:NH1:9898, V-B:ARG:545:CZ:9897, H-B:ALA:541:N:9862, V-B:ARG:545:CG:9893, V-B:ARG:545:CD:9894, V-A:TYR:484:CE1:4344"]

$$$$
RR19_Rahimova_2017-again1
     RDKit          3D

 71 76  0  0  0  0  0  0  0  0999 V2000
  127.6340  132.5870   63.7000 O   0  0  0  0  0  0  0  0  0  0  0  0
  128.1040  132.1640   62.6400 C   0  0  0  0  0  0  0  0  0  0  0  0
  128.4800  130.8860   62.3950 N   0  0  0  0  0  0  0  0  0  0  0  0
  128.3420  129.7260   63.1040 C   0  0  0  0  0  0  0  0  0  0  0  0
  127.7310  129.4630   64.6470 S   0  0  0  0  0  0  0  0  0  0  0  0
  128.7410  128.7000   62.2650 N   0  0  0  0  0  0  0  0  0  0  0  0
  128.9520  128.7220   60.9890 C   0  0  0  0  0  0  0  0  0  0  0  0
  128.9370  129.6750   60.1840 O   0  0  0  0  0  0  0  0  0  0  0  0
  129.2610  127.3340   60.3350 C   0  0  2  0  0  0  0  0  0  0  0  0
  130.2880  127.4710   59.1630 C   0  0  0  0  0  0  0  0  0  0  0  0
  131.4160  126.4410   59.1840 C   0  0  0  0  0  0  0  0  0  0  0  0
  131.9890  126.0610   60.4000 C   0  0  0  0  0  0  0  0  0  0  0  0
  133.0070  125.1110   60.4220 C   0  0  0  0  0  0  0  0  0  0  0  0
  133.4510  124.5470   59.2270 C   0  0  0  0  0  0  0  0  0  0  0  0
  132.8860  124.9260   58.0100 C   0  0  0  0  0  0  0  0  0  0  0  0
  131.8690  125.8760   57.9890 C   0  0  0  0  0  0  0  0  0  0  0  0
  128.0320  126.5420   59.9990 N   0  0  0  0  0  0  0  0  0  0  0  0
  127.4170  125.7500   60.9230 C   0  0  0  0  0  0  0  0  0  0  0  0
  127.7570  125.5620   62.0910 O   0  0  0  0  0  0  0  0  0  0  0  0
  126.2500  125.1580   60.2200 C   0  0  0  0  0  0  0  0  0  0  0  0
  125.2690  124.2700   60.6650 C   0  0  0  0  0  0  0  0  0  0  0  0
  124.2700  123.8740   59.7700 C   0  0  0  0  0  0  0  0  0  0  0  0
  124.2610  124.3650   58.4570 C   0  0  0  0  0  0  0  0  0  0  0  0
  125.2530  125.2540   58.0310 C   0  0  0  0  0  0  0  0  0  0  0  0
  126.2420  125.6360   58.9390 C   0  0  0  0  0  0  0  0  0  0  0  0
  127.4010  126.5470   58.7840 C   0  0  0  0  0  0  0  0  0  0  0  0
  127.7230  127.1730   57.7760 O   0  0  0  0  0  0  0  0  0  0  0  0
  128.3070  133.1390   61.4440 C   0  0  2  0  0  0  0  0  0  0  0  0
  126.9950  133.4740   60.6790 C   0  0  0  0  0  0  0  0  0  0  0  0
  126.1610  134.5630   61.3300 C   0  0  0  0  0  0  0  0  0  0  0  0
  124.8040  134.3270   61.6360 C   0  0  0  0  0  0  0  0  0  0  0  0
  124.0690  135.2860   62.3210 C   0  0  0  0  0  0  0  0  0  0  0  0
  124.6720  136.4690   62.7320 C   0  0  0  0  0  0  0  0  0  0  0  0
  126.0170  136.6980   62.4710 C   0  0  0  0  0  0  0  0  0  0  0  0
  126.7690  135.7520   61.7880 C   0  0  0  0  0  0  0  0  0  0  0  0
  129.4110  132.7450   60.5170 N   0  0  0  0  0  0  0  0  0  0  0  0
  130.6150  132.3090   60.9850 C   0  0  0  0  0  0  0  0  0  0  0  0
  130.9860  132.2550   62.1580 O   0  0  0  0  0  0  0  0  0  0  0  0
  131.3830  131.9040   59.7820 C   0  0  0  0  0  0  0  0  0  0  0  0
  132.6680  131.3720   59.6540 C   0  0  0  0  0  0  0  0  0  0  0  0
  133.1370  131.0580   58.3740 C   0  0  0  0  0  0  0  0  0  0  0  0
  132.3280  131.2780   57.2510 C   0  0  0  0  0  0  0  0  0  0  0  0
  131.0450  131.8150   57.4000 C   0  0  0  0  0  0  0  0  0  0  0  0
  130.5940  132.1190   58.6850 C   0  0  0  0  0  0  0  0  0  0  0  0
  129.2960  132.6600   59.1580 C   0  0  0  0  0  0  0  0  0  0  0  0
  128.3190  132.9580   58.4700 O   0  0  0  0  0  0  0  0  0  0  0  0
  128.8630  130.7440   61.4730 H   0  0  0  0  0  0  0  0  0  0  0  0
  129.7572  126.7189   61.1001 H   0  0  0  0  0  0  0  0  0  0  0  0
  129.7423  127.3633   58.2140 H   0  0  0  0  0  0  0  0  0  0  0  0
  130.7628  128.4566   59.2774 H   0  0  0  0  0  0  0  0  0  0  0  0
  131.6364  126.5118   61.3394 H   0  0  0  0  0  0  0  0  0  0  0  0
  133.4586  124.8071   61.3779 H   0  0  0  0  0  0  0  0  0  0  0  0
  134.2545  123.7960   59.2443 H   0  0  0  0  0  0  0  0  0  0  0  0
  133.2422  124.4765   57.0713 H   0  0  0  0  0  0  0  0  0  0  0  0
  131.4219  126.1820   57.0317 H   0  0  0  0  0  0  0  0  0  0  0  0
  125.2815  123.8900   61.6972 H   0  0  0  0  0  0  0  0  0  0  0  0
  123.4875  123.1739   60.0979 H   0  0  0  0  0  0  0  0  0  0  0  0
  123.4710  124.0500   57.7594 H   0  0  0  0  0  0  0  0  0  0  0  0
  125.2539  125.6439   57.0024 H   0  0  0  0  0  0  0  0  0  0  0  0
  128.6334  134.0750   61.9208 H   0  0  0  0  0  0  0  0  0  0  0  0
  127.2611  133.8027   59.6635 H   0  0  0  0  0  0  0  0  0  0  0  0
  126.3829  132.5600   60.6819 H   0  0  0  0  0  0  0  0  0  0  0  0
  124.3280  133.3831   61.3319 H   0  0  0  0  0  0  0  0  0  0  0  0
  123.0055  135.1086   62.5391 H   0  0  0  0  0  0  0  0  0  0  0  0
  124.0813  137.2275   63.2665 H   0  0  0  0  0  0  0  0  0  0  0  0
  126.4884  137.6333   62.8071 H   0  0  0  0  0  0  0  0  0  0  0  0
  127.8389  135.9288   61.6036 H   0  0  0  0  0  0  0  0  0  0  0  0
  133.2975  131.2036   60.5402 H   0  0  0  0  0  0  0  0  0  0  0  0
  134.1453  130.6365   58.2484 H   0  0  0  0  0  0  0  0  0  0  0  0
  132.7036  131.0273   56.2480 H   0  0  0  0  0  0  0  0  0  0  0  0
  130.4054  131.9938   56.5231 H   0  0  0  0  0  0  0  0  0  0  0  0
  1  2  2  0
  2  3  1  0
  3  4  1  0
  4  5  2  0
  4  6  1  0
  6  7  2  0
  7  8  1  0
  7  9  1  0
  9 10  1  0
 10 11  1  0
 11 12  2  0
 12 13  1  0
 13 14  2  0
 14 15  1  0
 15 16  2  0
  9 17  1  0
 17 18  1  0
 18 19  2  0
 18 20  1  0
 20 21  2  0
 21 22  1  0
 22 23  2  0
 23 24  1  0
 24 25  2  0
 25 26  1  0
 26 27  2  0
  2 28  1  0
 28 29  1  0
 29 30  1  0
 30 31  2  0
 31 32  1  0
 32 33  2  0
 33 34  1  0
 34 35  2  0
 28 36  1  0
 36 37  1  0
 37 38  2  0
 37 39  1  0
 39 40  2  0
 40 41  1  0
 41 42  2  0
 42 43  1  0
 43 44  2  0
 44 45  1  0
 45 46  2  0
 16 11  1  0
 26 17  1  0
 35 30  1  0
 45 36  1  0
 25 20  1  0
 44 39  1  0
  3 47  1  0
  9 48  1  1
 10 49  1  0
 10 50  1  0
 12 51  1  0
 13 52  1  0
 14 53  1  0
 15 54  1  0
 16 55  1  0
 21 56  1  0
 22 57  1  0
 23 58  1  0
 24 59  1  0
 28 60  1  1
 29 61  1  0
 29 62  1  0
 31 63  1  0
 32 64  1  0
 33 65  1  0
 34 66  1  0
 35 67  1  0
 40 68  1  0
 41 69  1  0
 42 70  1  0
 43 71  1  0
M  CHG  1   8  -1
M  END
>  <Binding energies>  (1) 
[-9.55]

>  <Ligand effiencies>  (1) 
[-0.20319148936170214]

>  <Interactions>  (1) 
["V-A:ASP:366:CG:3212, V-A:GLU:543:CD:4908, V-A:ALA:541:CB:4892, V-B:TRP:381:CZ2:8341, V-A:GLU:543:CG:4907, V-B:PRO:482:CB:9297, V-B:LEU:475:CD1:9229, V-B:ILE:369:CG2:8208, V-B:TRP:381:CH2:8343, V-A:TYR:539:CE2:4876, V-A:TYR:539:CD2:4874, V-A:ILE:369:CG2:3236, V-A:ILE:369:CB:3235, V-A:ASP:366:CB:3211, V-A:ASP:366:CA:3209, V-B:SER:385:CB:8380, V-A:PRO:540:C:4881, V-A:PRO:540:CB:4885, V-A:PRO:540:CA:4883, V-B:TYR:539:CZ:9848, V-B:PRO:540:CA:9854, V-A:TYR:539:C:4867, H-A:ALA:541:N:4891, V-B:PRO:540:CB:9856, H-B:TYR:531:OH:9766, V-B:LEU:363:CA:8156, V-B:LEU:363:CD1:8160, V-A:ASP:366:C:3207, V-B:ASN:362:C:8143, V-A:LEU:363:CA:3184, V-A:PRO:540:N:4884, V-A:LEU:363:CD1:3188, V-A:TYR:531:CE2:4793, V-B:TRP:381:CE2:8338"]

$$$$
RR1_Rahimova_2017
     RDKit          3D

 68 71  0  0  0  0  0  0  0  0999 V2000
  130.5520  118.6170   75.2260 C   0  0  0  0  0  0  0  0  0  0  0  0
  129.5780  119.6040   75.5490 O   0  0  0  0  0  0  0  0  0  0  0  0
  129.4030  120.6800   74.7010 C   0  0  0  0  0  0  0  0  0  0  0  0
  128.9140  120.5830   73.3890 C   0  0  0  0  0  0  0  0  0  0  0  0
  128.7780  121.7250   72.6040 C   0  0  0  0  0  0  0  0  0  0  0  0
  129.1200  122.9780   73.1150 C   0  0  0  0  0  0  0  0  0  0  0  0
  128.9910  124.0650   72.2300 N   0  0  0  0  0  0  0  0  0  0  0  0
  128.9620  125.3880   72.4990 C   0  0  0  0  0  0  0  0  0  0  0  0
  128.9780  125.8750   73.6300 O   0  0  0  0  0  0  0  0  0  0  0  0
  128.9000  126.2920   71.2570 C   0  0  0  0  0  0  0  0  0  0  0  0
  127.6860  125.7940   69.9860 S   0  0  0  0  0  0  0  0  0  0  0  0
  128.6930  126.0770   68.5680 C   0  0  0  0  0  0  0  0  0  0  0  0
  129.5430  125.2070   68.0830 N   0  0  0  0  0  0  0  0  0  0  0  0
  130.0620  125.8240   67.0270 C   0  0  0  0  0  0  0  0  0  0  0  0
  131.0920  125.1790   66.1450 C   0  0  0  0  0  0  0  0  0  0  0  0
  130.7470  124.1760   65.2250 C   0  0  0  0  0  0  0  0  0  0  0  0
  131.7270  123.5920   64.4200 C   0  0  0  0  0  0  0  0  0  0  0  0
  133.0440  124.0280   64.5540 C   0  0  0  0  0  0  0  0  0  0  0  0
  133.4130  124.9950   65.4330 N   0  0  0  0  0  0  0  0  0  0  0  0
  132.4450  125.5500   66.2050 C   0  0  0  0  0  0  0  0  0  0  0  0
  129.6070  127.0430   66.8040 N   0  0  0  0  0  0  0  0  0  0  0  0
  128.7260  127.2090   67.7950 N   0  0  0  0  0  0  0  0  0  0  0  0
  127.9580  128.4480   67.9070 C   0  0  0  0  0  0  0  0  0  0  0  0
  127.6950  129.1730   66.5750 C   0  0  0  0  0  0  0  0  0  0  0  0
  128.4360  128.9950   65.6020 O   0  0  0  0  0  0  0  0  0  0  0  0
  126.6250  129.9910   66.5750 N   0  0  0  0  0  0  0  0  0  0  0  0
  126.2400  130.5630   65.3700 N   0  0  0  0  0  0  0  0  0  0  0  0
  124.9350  130.4950   65.0280 C   0  0  0  0  0  0  0  0  0  0  0  0
  124.0490  130.0480   65.7640 O   0  0  0  0  0  0  0  0  0  0  0  0
  124.5880  131.0370   63.6570 C   0  0  0  0  0  0  0  0  0  0  0  0
  124.7480  130.2310   62.5250 C   0  0  0  0  0  0  0  0  0  0  0  0
  124.4470  130.7130   61.2560 C   0  0  0  0  0  0  0  0  0  0  0  0
  123.9800  132.0250   61.0780 C   0  0  0  0  0  0  0  0  0  0  0  0
  123.6750  132.5700   59.8430 O   0  0  0  0  0  0  0  0  0  0  0  0
  123.6420  131.7300   58.6950 C   0  0  0  0  0  0  0  0  0  0  0  0
  123.8190  132.8510   62.1980 C   0  0  0  0  0  0  0  0  0  0  0  0
  123.3760  134.1430   61.9670 O   0  0  0  0  0  0  0  0  0  0  0  0
  124.3200  135.1760   61.7100 C   0  0  0  0  0  0  0  0  0  0  0  0
  124.1210  132.3500   63.4770 C   0  0  0  0  0  0  0  0  0  0  0  0
  129.6080  123.0790   74.4270 C   0  0  0  0  0  0  0  0  0  0  0  0
  129.7420  121.9350   75.2090 C   0  0  0  0  0  0  0  0  0  0  0  0
  130.9681  118.1954   76.1529 H   0  0  0  0  0  0  0  0  0  0  0  0
  130.0809  117.8157   74.6378 H   0  0  0  0  0  0  0  0  0  0  0  0
  131.3595  119.0774   74.6378 H   0  0  0  0  0  0  0  0  0  0  0  0
  128.6370  119.6005   72.9791 H   0  0  0  0  0  0  0  0  0  0  0  0
  128.3988  121.6391   71.5750 H   0  0  0  0  0  0  0  0  0  0  0  0
  128.8700  123.8020   71.2620 H   0  0  0  0  0  0  0  0  0  0  0  0
  128.6452  127.3090   71.5898 H   0  0  0  0  0  0  0  0  0  0  0  0
  129.8877  126.2182   70.7785 H   0  0  0  0  0  0  0  0  0  0  0  0
  129.7003  123.8490   65.1381 H   0  0  0  0  0  0  0  0  0  0  0  0
  131.4656  122.8057   63.6965 H   0  0  0  0  0  0  0  0  0  0  0  0
  133.8175  123.5692   63.9207 H   0  0  0  0  0  0  0  0  0  0  0  0
  132.7366  126.3350   66.9182 H   0  0  0  0  0  0  0  0  0  0  0  0
  126.9860  128.2070   68.3620 H   0  0  0  0  0  0  0  0  0  0  0  0
  128.5670  129.1332   68.5149 H   0  0  0  0  0  0  0  0  0  0  0  0
  125.8980  129.9910   67.2770 H   0  0  0  0  0  0  0  0  0  0  0  0
  126.9690  130.4870   64.6760 H   0  0  0  0  0  0  0  0  0  0  0  0
  125.1172  129.2012   62.6404 H   0  0  0  0  0  0  0  0  0  0  0  0
  124.5763  130.0587   60.3813 H   0  0  0  0  0  0  0  0  0  0  0  0
  123.6006  130.6774   59.0119 H   0  0  0  0  0  0  0  0  0  0  0  0
  122.7525  131.9668   58.0928 H   0  0  0  0  0  0  0  0  0  0  0  0
  124.5474  131.8963   58.0928 H   0  0  0  0  0  0  0  0  0  0  0  0
  124.6897  135.5805   62.6638 H   0  0  0  0  0  0  0  0  0  0  0  0
  125.1631  134.7672   61.1338 H   0  0  0  0  0  0  0  0  0  0  0  0
  123.8371  135.9790   61.1338 H   0  0  0  0  0  0  0  0  0  0  0  0
  123.9889  132.9996   64.3548 H   0  0  0  0  0  0  0  0  0  0  0  0
  129.8845  124.0615   74.8372 H   0  0  0  0  0  0  0  0  0  0  0  0
  130.1192  122.0212   76.2387 H   0  0  0  0  0  0  0  0  0  0  0  0
  1  2  1  0
  2  3  1  0
  3  4  2  0
  4  5  1  0
  5  6  2  0
  6  7  1  0
  7  8  1  0
  8  9  2  0
  8 10  1  0
 10 11  1  0
 11 12  1  0
 12 13  2  0
 13 14  1  0
 14 15  1  0
 15 16  2  0
 16 17  1  0
 17 18  2  0
 18 19  1  0
 19 20  2  0
 14 21  2  0
 21 22  1  0
 22 23  1  0
 23 24  1  0
 24 25  2  0
 24 26  1  0
 26 27  1  0
 27 28  1  0
 28 29  2  0
 28 30  1  0
 30 31  2  0
 31 32  1  0
 32 33  2  0
 33 34  1  0
 34 35  1  0
 33 36  1  0
 36 37  1  0
 37 38  1  0
 36 39  2  0
  6 40  1  0
 40 41  2  0
 41  3  1  0
 22 12  1  0
 39 30  1  0
 20 15  1  0
  1 42  1  0
  1 43  1  0
  1 44  1  0
  4 45  1  0
  5 46  1  0
  7 47  1  0
 10 48  1  0
 10 49  1  0
 16 50  1  0
 17 51  1  0
 18 52  1  0
 20 53  1  0
 23 54  1  0
 23 55  1  0
 26 56  1  0
 27 57  1  0
 31 58  1  0
 32 59  1  0
 35 60  1  0
 35 61  1  0
 35 62  1  0
 38 63  1  0
 38 64  1  0
 38 65  1  0
 39 66  1  0
 40 67  1  0
 41 68  1  0
M  END
>  <Binding energies>  (1) 
[-9.24]

>  <Ligand effiencies>  (1) 
[-0.21]

>  <Interactions>  (1) 
["V-B:ASP:366:CG:8184, V-B:HIS:456:CE1:9041, V-B:GLU:543:CD:9879, V-B:ILE:369:CB:8207, V-A:GLU:543:CD:4908, V-B:GLY:454:CA:9020, V-B:ILE:369:CD1:8210, V-A:GLU:543:CG:4907, V-B:LEU:475:CD1:9229, V-B:ILE:369:CG2:8208, V-B:TRP:381:CH2:8343, V-A:TYR:539:CE2:4876, V-A:GLY:454:CA:4048, V-A:HIS:456:CE1:4069, V-A:HIS:456:CD2:4067, V-B:GLU:543:C:9873, V-B:GLU:543:CG:9878, V-B:GLU:543:CB:9877, H-B:GLY:454:N:9021, V-B:ASP:366:CB:8183, H-B:LYS:547:NZ:9922, V-B:LYS:547:CE:9921, H-B:TYR:484:OH:9319, H-A:TYR:484:OH:4347, H-B:ARG:545:NE:9895, V-B:TYR:484:CZ:9318, H-A:GLY:454:N:4049, V-B:ASP:366:CA:8181, H-B:GLU:543:O:9874, H-A:HIS:456:NE2:4070, V-B:ASP:366:C:8179, V-A:ASP:473:CG:4239, V-A:TYR:484:CB:4340, V-A:TYR:484:CD1:4342, V-A:TYR:484:CG:4341"]

$$$$
RR20_Rahimova_2017
     RDKit          3D

 68 73  0  0  0  0  0  0  0  0999 V2000
  127.1510  133.0240   73.7920 C   0  0  0  0  0  0  0  0  0  0  0  0
  127.8060  131.6950   73.4650 C   0  0  0  0  0  0  0  0  0  0  0  0
  128.3750  131.4910   72.2070 C   0  0  0  0  0  0  0  0  0  0  0  0
  128.9850  130.2760   71.9080 C   0  0  0  0  0  0  0  0  0  0  0  0
  129.0200  129.2500   72.8600 C   0  0  0  0  0  0  0  0  0  0  0  0
  129.7060  127.9450   72.5220 C   0  0  0  0  0  0  0  0  0  0  0  0
  130.6760  127.6150   73.2080 O   0  0  0  0  0  0  0  0  0  0  0  0
  129.2260  127.1830   71.4960 N   0  0  0  0  0  0  0  0  0  0  0  0
  128.3850  125.9990   71.7410 C   0  0  0  0  0  0  0  0  0  0  0  0
  127.9250  125.5120   70.3770 C   0  0  0  0  0  0  0  0  0  0  0  0
  128.2300  126.6760   69.4860 C   0  0  0  0  0  0  0  0  0  0  0  0
  127.9460  126.8440   68.1300 C   0  0  0  0  0  0  0  0  0  0  0  0
  128.4580  127.9390   67.4240 C   0  0  0  0  0  0  0  0  0  0  0  0
  128.1450  128.1250   65.9650 C   0  0  0  0  0  0  0  0  0  0  0  0
  127.0400  128.7770   65.6380 N   0  0  0  0  0  0  0  0  0  0  0  0
  126.8780  128.8970   64.3450 C   0  0  0  0  0  0  0  0  0  0  0  0
  125.8420  129.5230   63.6680 N   0  0  0  0  0  0  0  0  0  0  0  0
  124.7610  130.1310   64.2150 C   0  0  0  0  0  0  0  0  0  0  0  0
  124.5660  130.2270   65.4280 O   0  0  0  0  0  0  0  0  0  0  0  0
  123.7230  130.7650   63.2600 C   0  0  0  0  0  0  0  0  0  0  0  0
  124.1890  132.0290   62.6590 N   0  0  0  0  0  0  0  0  0  0  0  0
  123.3750  133.1810   63.0730 C   0  0  0  0  0  0  0  0  0  0  0  0
  123.7310  134.4190   62.2190 C   0  0  0  0  0  0  0  0  0  0  0  0
  125.2380  134.6280   62.0690 C   0  0  0  0  0  0  0  0  0  0  0  0
  125.7540  135.8280   61.5670 C   0  0  0  0  0  0  0  0  0  0  0  0
  127.1240  136.0040   61.3940 C   0  0  0  0  0  0  0  0  0  0  0  0
  128.0010  134.9760   61.7280 C   0  0  0  0  0  0  0  0  0  0  0  0
  127.5020  133.7800   62.2380 C   0  0  0  0  0  0  0  0  0  0  0  0
  126.1270  133.5890   62.4150 C   0  0  0  0  0  0  0  0  0  0  0  0
  125.5840  132.2990   63.0290 C   0  0  0  0  0  0  0  0  0  0  0  0
  128.1220  128.1740   63.4020 S   0  0  0  0  0  0  0  0  0  0  0  0
  128.9130  127.6650   64.8740 C   0  0  0  0  0  0  0  0  0  0  0  0
  130.1870  126.8510   64.8180 C   0  0  0  0  0  0  0  0  0  0  0  0
  129.3080  128.8310   68.0960 C   0  0  0  0  0  0  0  0  0  0  0  0
  129.6090  128.6560   69.4460 C   0  0  0  0  0  0  0  0  0  0  0  0
  129.0220  127.6040   70.1620 C   0  0  0  0  0  0  0  0  0  0  0  0
  128.4730  129.4720   74.1300 C   0  0  0  0  0  0  0  0  0  0  0  0
  127.8640  130.6880   74.4300 C   0  0  0  0  0  0  0  0  0  0  0  0
  127.0915  133.1447   74.8837 H   0  0  0  0  0  0  0  0  0  0  0  0
  127.7489  133.8425   73.3647 H   0  0  0  0  0  0  0  0  0  0  0  0
  126.1377  133.0484   73.3647 H   0  0  0  0  0  0  0  0  0  0  0  0
  128.3414  132.2902   71.4519 H   0  0  0  0  0  0  0  0  0  0  0  0
  129.4416  130.1213   70.9193 H   0  0  0  0  0  0  0  0  0  0  0  0
  128.9681  125.2161   72.2481 H   0  0  0  0  0  0  0  0  0  0  0  0
  127.5292  126.2437   72.3873 H   0  0  0  0  0  0  0  0  0  0  0  0
  128.4856  124.6181   70.0662 H   0  0  0  0  0  0  0  0  0  0  0  0
  126.8661  125.2147   70.3562 H   0  0  0  0  0  0  0  0  0  0  0  0
  127.3136  126.1088   67.6109 H   0  0  0  0  0  0  0  0  0  0  0  0
  125.9020  129.5130   62.6600 H   0  0  0  0  0  0  0  0  0  0  0  0
  123.5084  130.0507   62.4515 H   0  0  0  0  0  0  0  0  0  0  0  0
  122.8262  130.9943   63.8543 H   0  0  0  0  0  0  0  0  0  0  0  0
  122.3100  132.9407   62.9387 H   0  0  0  0  0  0  0  0  0  0  0  0
  123.5787  133.4034   64.1308 H   0  0  0  0  0  0  0  0  0  0  0  0
  123.2934  134.2918   61.2178 H   0  0  0  0  0  0  0  0  0  0  0  0
  123.3261  135.3021   62.7350 H   0  0  0  0  0  0  0  0  0  0  0  0
  125.0660  136.6453   61.3049 H   0  0  0  0  0  0  0  0  0  0  0  0
  127.5123  136.9525   60.9946 H   0  0  0  0  0  0  0  0  0  0  0  0
  129.0843  135.1078   61.5896 H   0  0  0  0  0  0  0  0  0  0  0  0
  128.1996  132.9728   62.5059 H   0  0  0  0  0  0  0  0  0  0  0  0
  126.2061  131.4590   62.6864 H   0  0  0  0  0  0  0  0  0  0  0  0
  125.6171  132.4162   64.1222 H   0  0  0  0  0  0  0  0  0  0  0  0
  130.5281  126.6330   65.8408 H   0  0  0  0  0  0  0  0  0  0  0  0
  129.9960  125.9072   64.2862 H   0  0  0  0  0  0  0  0  0  0  0  0
  130.9632  127.4209   64.2862 H   0  0  0  0  0  0  0  0  0  0  0  0
  129.7431  129.6807   67.5495 H   0  0  0  0  0  0  0  0  0  0  0  0
  130.3062  129.3427   69.9484 H   0  0  0  0  0  0  0  0  0  0  0  0
  128.5246  128.6823   74.8940 H   0  0  0  0  0  0  0  0  0  0  0  0
  127.4291  130.8548   75.4265 H   0  0  0  0  0  0  0  0  0  0  0  0
  1  2  1  0
  2  3  2  0
  3  4  1  0
  4  5  2  0
  5  6  1  0
  6  7  2  0
  6  8  1  0
  8  9  1  0
  9 10  1  0
 10 11  1  0
 11 12  2  0
 12 13  1  0
 13 14  1  0
 14 15  1  0
 15 16  2  0
 16 17  1  0
 17 18  1  0
 18 19  2  0
 18 20  1  0
 20 21  1  0
 21 22  1  0
 22 23  1  0
 23 24  1  0
 24 25  2  0
 25 26  1  0
 26 27  2  0
 27 28  1  0
 28 29  2  0
 29 30  1  0
 16 31  1  0
 31 32  1  0
 32 33  1  0
 13 34  2  0
 34 35  1  0
 35 36  2  0
  5 37  1  0
 37 38  2  0
 38  2  1  0
 36  8  1  0
 36 11  1  0
 32 14  2  0
 30 21  1  0
 29 24  1  0
  1 39  1  0
  1 40  1  0
  1 41  1  0
  3 42  1  0
  4 43  1  0
  9 44  1  0
  9 45  1  0
 10 46  1  0
 10 47  1  0
 12 48  1  0
 17 49  1  0
 20 50  1  0
 20 51  1  0
 22 52  1  0
 22 53  1  0
 23 54  1  0
 23 55  1  0
 25 56  1  0
 26 57  1  0
 27 58  1  0
 28 59  1  0
 30 60  1  0
 30 61  1  0
 33 62  1  0
 33 63  1  0
 33 64  1  0
 34 65  1  0
 35 66  1  0
 37 67  1  0
 38 68  1  0
M  END
>  <Binding energies>  (1) 
[-10.06]

>  <Ligand effiencies>  (1) 
[-0.257948717948718]

>  <Interactions>  (1) 
["V-B:HIS:456:CE1:9041, V-B:GLU:543:CD:9879, V-A:GLU:543:CD:4908, V-B:GLY:454:CA:9020, V-A:ALA:541:CB:4892, V-B:TRP:381:CZ2:8341, V-B:ILE:369:CD1:8210, V-A:GLU:543:CG:4907, V-B:LEU:475:CD1:9229, V-B:ILE:369:CG2:8208, V-B:TRP:381:CH2:8343, V-A:TYR:539:CD2:4874, V-B:HIS:456:CD2:9039, V-B:HIS:456:CG:9037, V-A:GLU:543:CB:4906, V-B:TYR:484:CD1:9314, V-B:GLU:543:C:9873, V-B:GLU:543:CG:9878, V-B:GLU:543:CB:9877, V-B:TYR:484:CE1:9316, H-B:GLY:454:N:9021, V-A:ALA:541:CA:4890, H-B:TYR:484:OH:9319, H-A:LYS:547:NZ:4951, V-B:ARG:545:CZ:9897, H-B:ASP:366:OD2:8186, V-B:HIS:456:CB:9036, V-B:ASP:473:CG:9211, V-B:TYR:484:CG:9313, V-B:TYR:484:CB:9312, V-B:GLY:453:C:9013, V-B:TYR:484:CD2:9315, V-B:GLY:544:C:9883, V-B:ASP:473:CB:9210"]

$$$$
RR20_Rahimova_2017-again1
     RDKit          3D

 68 73  0  0  0  0  0  0  0  0999 V2000
  130.5040  119.1550   60.7050 C   0  0  0  0  0  0  0  0  0  0  0  0
  131.1110  120.3910   61.3430 C   0  0  0  0  0  0  0  0  0  0  0  0
  130.3010  121.2760   62.0560 C   0  0  0  0  0  0  0  0  0  0  0  0
  130.8580  122.4060   62.6480 C   0  0  0  0  0  0  0  0  0  0  0  0
  132.2280  122.6670   62.5230 C   0  0  0  0  0  0  0  0  0  0  0  0
  132.8180  123.8910   63.1880 C   0  0  0  0  0  0  0  0  0  0  0  0
  133.8040  123.7310   63.9100 O   0  0  0  0  0  0  0  0  0  0  0  0
  132.2630  125.1150   62.9450 N   0  0  0  0  0  0  0  0  0  0  0  0
  132.2410  125.6930   61.5910 C   0  0  0  0  0  0  0  0  0  0  0  0
  131.4220  126.9700   61.6830 C   0  0  0  0  0  0  0  0  0  0  0  0
  130.7270  126.8230   63.0030 C   0  0  0  0  0  0  0  0  0  0  0  0
  129.7740  127.6570   63.5910 C   0  0  0  0  0  0  0  0  0  0  0  0
  129.3580  127.4440   64.9150 C   0  0  0  0  0  0  0  0  0  0  0  0
  128.3380  128.3450   65.5500 C   0  0  0  0  0  0  0  0  0  0  0  0
  127.7410  129.2490   64.7890 N   0  0  0  0  0  0  0  0  0  0  0  0
  126.8730  129.9960   65.4270 C   0  0  0  0  0  0  0  0  0  0  0  0
  126.1210  131.0390   64.9550 N   0  0  0  0  0  0  0  0  0  0  0  0
  124.8920  130.9530   64.5720 C   0  0  0  0  0  0  0  0  0  0  0  0
  124.0850  130.0040   64.5930 O   0  0  0  0  0  0  0  0  0  0  0  0
  124.3230  132.2660   63.9960 C   0  0  0  0  0  0  0  0  0  0  0  0
  124.3700  132.2270   62.4410 N   0  0  2  0  0  0  0  0  0  0  0  0
  125.6580  131.5700   61.9040 C   0  0  0  0  0  0  0  0  0  0  0  0
  126.8810  132.4310   62.2700 C   0  0  0  0  0  0  0  0  0  0  0  0
  126.7010  133.9070   61.9270 C   0  0  0  0  0  0  0  0  0  0  0  0
  127.8240  134.7330   61.8020 C   0  0  0  0  0  0  0  0  0  0  0  0
  127.6950  136.0940   61.5360 C   0  0  0  0  0  0  0  0  0  0  0  0
  126.4300  136.6490   61.3890 C   0  0  0  0  0  0  0  0  0  0  0  0
  125.3040  135.8380   61.4970 C   0  0  0  0  0  0  0  0  0  0  0  0
  125.4120  134.4670   61.7550 C   0  0  0  0  0  0  0  0  0  0  0  0
  124.1350  133.6200   61.8090 C   0  0  0  0  0  0  0  0  0  0  0  0
  126.7560  129.6200   67.1060 S   0  0  0  0  0  0  0  0  0  0  0  0
  127.9290  128.3420   66.8990 C   0  0  0  0  0  0  0  0  0  0  0  0
  128.3150  127.4560   68.0650 C   0  0  0  0  0  0  0  0  0  0  0  0
  129.9560  126.4080   65.6430 C   0  0  0  0  0  0  0  0  0  0  0  0
  130.9220  125.5840   65.0640 C   0  0  0  0  0  0  0  0  0  0  0  0
  131.2710  125.7560   63.7190 C   0  0  0  0  0  0  0  0  0  0  0  0
  133.0400  121.7580   61.8320 C   0  0  0  0  0  0  0  0  0  0  0  0
  132.4830  120.6280   61.2400 C   0  0  0  0  0  0  0  0  0  0  0  0
  130.1652  118.4650   61.4919 H   0  0  0  0  0  0  0  0  0  0  0  0
  129.6473  119.4480   60.0804 H   0  0  0  0  0  0  0  0  0  0  0  0
  131.2596  118.6561   60.0804 H   0  0  0  0  0  0  0  0  0  0  0  0
  129.2226  121.0806   62.1501 H   0  0  0  0  0  0  0  0  0  0  0  0
  130.2188  123.0973   63.2168 H   0  0  0  0  0  0  0  0  0  0  0  0
  133.2643  125.9205   61.2578 H   0  0  0  0  0  0  0  0  0  0  0  0
  131.8052  124.9911   60.8647 H   0  0  0  0  0  0  0  0  0  0  0  0
  132.0705  127.8584   61.6732 H   0  0  0  0  0  0  0  0  0  0  0  0
  130.7301  127.1059   60.8387 H   0  0  0  0  0  0  0  0  0  0  0  0
  129.3454  128.4882   63.0119 H   0  0  0  0  0  0  0  0  0  0  0  0
  123.2809  132.3877   64.3264 H   0  0  0  0  0  0  0  0  0  0  0  0
  124.9284  133.1112   64.3553 H   0  0  0  0  0  0  0  0  0  0  0  0
  123.6040  131.6320   62.1540 H   0  0  0  0  0  0  0  0  0  0  0  0
  125.7699  130.5704   62.3493 H   0  0  0  0  0  0  0  0  0  0  0  0
  125.5907  131.4856   60.8093 H   0  0  0  0  0  0  0  0  0  0  0  0
  127.0597  132.3427   63.3518 H   0  0  0  0  0  0  0  0  0  0  0  0
  127.7312  132.0593   61.6792 H   0  0  0  0  0  0  0  0  0  0  0  0
  128.8282  134.2987   61.9161 H   0  0  0  0  0  0  0  0  0  0  0  0
  128.5903  136.7263   61.4428 H   0  0  0  0  0  0  0  0  0  0  0  0
  126.3187  137.7248   61.1881 H   0  0  0  0  0  0  0  0  0  0  0  0
  124.3062  136.2852   61.3768 H   0  0  0  0  0  0  0  0  0  0  0  0
  123.3824  134.1553   62.4065 H   0  0  0  0  0  0  0  0  0  0  0  0
  123.7957  133.4631   60.7745 H   0  0  0  0  0  0  0  0  0  0  0  0
  128.0895  127.9735   69.0091 H   0  0  0  0  0  0  0  0  0  0  0  0
  127.7445  126.5168   68.0164 H   0  0  0  0  0  0  0  0  0  0  0  0
  129.3913  127.2342   68.0164 H   0  0  0  0  0  0  0  0  0  0  0  0
  129.6593  126.2409   66.6890 H   0  0  0  0  0  0  0  0  0  0  0  0
  131.4086  124.8005   65.6634 H   0  0  0  0  0  0  0  0  0  0  0  0
  134.1226  121.9381   61.7570 H   0  0  0  0  0  0  0  0  0  0  0  0
  133.1236  119.9220   60.6912 H   0  0  0  0  0  0  0  0  0  0  0  0
  1  2  1  0
  2  3  2  0
  3  4  1  0
  4  5  2  0
  5  6  1  0
  6  7  2  0
  6  8  1  0
  8  9  1  0
  9 10  1  0
 10 11  1  0
 11 12  2  0
 12 13  1  0
 13 14  1  0
 14 15  1  0
 15 16  2  0
 16 17  1  0
 17 18  2  0
 18 19  1  0
 18 20  1  0
 20 21  1  0
 21 22  1  0
 22 23  1  0
 23 24  1  0
 24 25  2  0
 25 26  1  0
 26 27  2  0
 27 28  1  0
 28 29  2  0
 29 30  1  0
 16 31  1  0
 31 32  1  0
 32 33  1  0
 13 34  2  0
 34 35  1  0
 35 36  2  0
  5 37  1  0
 37 38  2  0
 38  2  1  0
 36  8  1  0
 36 11  1  0
 32 14  2  0
 30 21  1  0
 29 24  1  0
  1 39  1  0
  1 40  1  0
  1 41  1  0
  3 42  1  0
  4 43  1  0
  9 44  1  0
  9 45  1  0
 10 46  1  0
 10 47  1  0
 12 48  1  0
 20 49  1  0
 20 50  1  0
 21 51  1  6
 22 52  1  0
 22 53  1  0
 23 54  1  0
 23 55  1  0
 25 56  1  0
 26 57  1  0
 27 58  1  0
 28 59  1  0
 30 60  1  0
 30 61  1  0
 33 62  1  0
 33 63  1  0
 33 64  1  0
 34 65  1  0
 35 66  1  0
 37 67  1  0
 38 68  1  0
M  CHG  2  19  -1  21   1
M  END
>  <Binding energies>  (1) 
[-9.47]

>  <Ligand effiencies>  (1) 
[-0.24282051282051284]

>  <Interactions>  (1) 
["V-B:HIS:456:CE1:9041, V-B:GLU:543:CD:9879, V-A:ASP:366:CG:3212, V-A:LEU:475:CD2:4258, V-A:GLU:543:CD:4908, V-B:GLY:454:CA:9020, V-A:ALA:541:CB:4892, V-B:TRP:381:CZ2:8341, V-B:ILE:369:CD1:8210, V-A:GLU:543:CG:4907, V-B:PRO:482:CB:9297, V-B:PRO:482:CG:9298, V-B:LEU:475:CD1:9229, V-B:ILE:369:CG2:8208, V-B:TRP:381:CH2:8343, V-A:TYR:539:CD2:4874, V-B:TYR:539:CD2:9845, V-A:ILE:369:CG2:3236, V-B:ALA:541:CB:9863, H-B:GLY:454:N:9021, H-B:ARG:545:NH2:9899, H-B:TYR:484:OH:9319, V-A:TRP:381:CZ2:3369, V-A:TRP:381:CH2:3371, H-B:ARG:545:NE:9895, H-B:ARG:545:NH1:9898, H-B:ASP:366:OD1:8185, H-A:GLY:454:N:4049, V-A:PRO:482:CB:4325, V-A:PRO:482:CG:4326, V-B:TRP:381:CZ3:8342, V-A:TRP:381:CZ3:3370, V-B:TRP:381:CE2:8338"]

$$$$
RR21_Rahimova_2017
     RDKit          3D

 62 67  0  0  0  0  0  0  0  0999 V2000
  123.7450  131.3650   62.7900 C   0  0  0  0  0  0  0  0  0  0  0  0
  124.1350  131.9460   64.0300 O   0  0  0  0  0  0  0  0  0  0  0  0
  125.0180  131.2660   64.8470 C   0  0  0  0  0  0  0  0  0  0  0  0
  124.6500  130.2150   65.7050 C   0  0  0  0  0  0  0  0  0  0  0  0
  125.6050  129.5770   66.4960 C   0  0  0  0  0  0  0  0  0  0  0  0
  126.9480  129.9680   66.4490 C   0  0  0  0  0  0  0  0  0  0  0  0
  127.9730  129.2780   67.2960 C   0  0  0  0  0  0  0  0  0  0  0  0
  128.1920  129.6940   68.5290 N   0  0  0  0  0  0  0  0  0  0  0  0
  129.1460  128.9000   69.0390 N   0  0  0  0  0  0  0  0  0  0  0  0
  129.6100  129.0610   70.3700 C   0  0  0  0  0  0  0  0  0  0  0  0
  128.9800  129.9570   71.2470 C   0  0  0  0  0  0  0  0  0  0  0  0
  129.4420  130.1030   72.5520 C   0  0  0  0  0  0  0  0  0  0  0  0
  130.5340  129.3560   72.9850 C   0  0  0  0  0  0  0  0  0  0  0  0
  131.1710  128.4650   72.1240 C   0  0  0  0  0  0  0  0  0  0  0  0
  130.7110  128.3170   70.8180 C   0  0  0  0  0  0  0  0  0  0  0  0
  129.5210  127.9570   68.1150 C   0  0  0  0  0  0  0  0  0  0  0  0
  128.7910  128.1760   66.9570 C   0  0  0  0  0  0  0  0  0  0  0  0
  128.8090  127.4050   65.7230 C   0  0  0  0  0  0  0  0  0  0  0  0
  129.7050  126.4690   65.3340 C   0  0  0  0  0  0  0  0  0  0  0  0
  131.1430  125.9020   66.2120 S   0  0  0  0  0  0  0  0  0  0  0  0
  131.4830  124.7800   64.9030 C   0  0  0  0  0  0  0  0  0  0  0  0
  132.4560  123.9260   64.8180 N   0  0  0  0  0  0  0  0  0  0  0  0
  132.6110  123.0610   63.7010 C   0  0  0  0  0  0  0  0  0  0  0  0
  133.4910  122.2130   63.5550 O   0  0  0  0  0  0  0  0  0  0  0  0
  131.5610  123.2460   62.6390 C   0  0  0  0  0  0  0  0  0  0  0  0
  131.6370  122.3800   61.3750 C   0  0  0  0  0  0  0  0  0  0  0  0
  130.4580  122.5550   60.4200 C   0  0  0  0  0  0  0  0  0  0  0  0
  129.3960  121.6470   60.4450 C   0  0  0  0  0  0  0  0  0  0  0  0
  128.3140  121.8170   59.5860 C   0  0  0  0  0  0  0  0  0  0  0  0
  128.2890  122.8970   58.7010 C   0  0  0  0  0  0  0  0  0  0  0  0
  127.1010  123.0840   57.7750 C   0  0  0  0  0  0  0  0  0  0  0  0
  129.3440  123.8120   58.6830 C   0  0  0  0  0  0  0  0  0  0  0  0
  130.4260  123.6420   59.5410 C   0  0  0  0  0  0  0  0  0  0  0  0
  130.6000  124.1050   62.7340 N   0  0  0  0  0  0  0  0  0  0  0  0
  130.5600  124.8870   63.8960 N   0  0  0  0  0  0  0  0  0  0  0  0
  129.5620  125.7900   64.0540 C   0  0  0  0  0  0  0  0  0  0  0  0
  128.6610  125.9970   63.2310 O   0  0  0  0  0  0  0  0  0  0  0  0
  127.3130  131.0180   65.6010 C   0  0  0  0  0  0  0  0  0  0  0  0
  126.3600  131.6580   64.8080 C   0  0  0  0  0  0  0  0  0  0  0  0
  126.7460  132.6700   63.9970 F   0  0  0  0  0  0  0  0  0  0  0  0
  123.1412  130.4655   62.9804 H   0  0  0  0  0  0  0  0  0  0  0  0
  123.1505  132.0909   62.2158 H   0  0  0  0  0  0  0  0  0  0  0  0
  124.6420  131.0898   62.2158 H   0  0  0  0  0  0  0  0  0  0  0  0
  123.5993  129.8930   65.7529 H   0  0  0  0  0  0  0  0  0  0  0  0
  125.2996  128.7580   67.1638 H   0  0  0  0  0  0  0  0  0  0  0  0
  128.1177  130.5463   70.9020 H   0  0  0  0  0  0  0  0  0  0  0  0
  128.9464  130.8056   73.2381 H   0  0  0  0  0  0  0  0  0  0  0  0
  130.8974  129.4703   74.0169 H   0  0  0  0  0  0  0  0  0  0  0  0
  132.0343  127.8804   72.4746 H   0  0  0  0  0  0  0  0  0  0  0  0
  131.2126  127.6147   70.1360 H   0  0  0  0  0  0  0  0  0  0  0  0
  130.2699  127.1657   68.2668 H   0  0  0  0  0  0  0  0  0  0  0  0
  127.9904  127.6091   65.0171 H   0  0  0  0  0  0  0  0  0  0  0  0
  132.5592  122.6398   60.8346 H   0  0  0  0  0  0  0  0  0  0  0  0
  131.6176  121.3324   61.7099 H   0  0  0  0  0  0  0  0  0  0  0  0
  129.4151  120.7977   61.1437 H   0  0  0  0  0  0  0  0  0  0  0  0
  127.4791  121.1010   59.6042 H   0  0  0  0  0  0  0  0  0  0  0  0
  126.1890  123.2276   58.3730 H   0  0  0  0  0  0  0  0  0  0  0  0
  127.2662  123.9672   57.1404 H   0  0  0  0  0  0  0  0  0  0  0  0
  126.9869  122.1928   57.1404 H   0  0  0  0  0  0  0  0  0  0  0  0
  129.3195  124.6666   57.9909 H   0  0  0  0  0  0  0  0  0  0  0  0
  131.2566  124.3630   59.5279 H   0  0  0  0  0  0  0  0  0  0  0  0
  128.3630  131.3431   65.5586 H   0  0  0  0  0  0  0  0  0  0  0  0
  1  2  1  0
  2  3  1  0
  3  4  2  0
  4  5  1  0
  5  6  2  0
  6  7  1  0
  7  8  2  0
  8  9  1  0
  9 10  1  0
 10 11  2  0
 11 12  1  0
 12 13  2  0
 13 14  1  0
 14 15  2  0
  9 16  1  0
 16 17  2  0
 17 18  1  0
 18 19  2  0
 19 20  1  0
 20 21  1  0
 21 22  2  0
 22 23  1  0
 23 24  2  0
 23 25  1  0
 25 26  1  0
 26 27  1  0
 27 28  2  0
 28 29  1  0
 29 30  2  0
 30 31  1  0
 30 32  1  0
 32 33  2  0
 25 34  2  0
 34 35  1  0
 35 36  1  0
 36 37  2  0
  6 38  1  0
 38 39  2  0
 39 40  1  0
 39  3  1  0
 17  7  1  0
 36 19  1  0
 15 10  1  0
 35 21  1  0
 33 27  1  0
  1 41  1  0
  1 42  1  0
  1 43  1  0
  4 44  1  0
  5 45  1  0
 11 46  1  0
 12 47  1  0
 13 48  1  0
 14 49  1  0
 15 50  1  0
 16 51  1  0
 18 52  1  0
 26 53  1  0
 26 54  1  0
 28 55  1  0
 29 56  1  0
 31 57  1  0
 31 58  1  0
 31 59  1  0
 32 60  1  0
 33 61  1  0
 38 62  1  0
M  END
>  <Binding energies>  (1) 
[-9.02]

>  <Ligand effiencies>  (1) 
[-0.22549999999999998]

>  <Interactions>  (1) 
["V-B:HIS:456:CE1:9041, V-B:GLU:543:CD:9879, V-A:GLU:543:CD:4908, V-B:GLY:454:CA:9020, V-B:ILE:369:CD1:8210, V-A:GLU:543:CG:4907, V-B:LEU:475:CD1:9229, V-A:GLY:454:CA:4048, V-A:HIS:456:CE1:4069, V-B:TYR:539:CD2:9845, V-A:GLU:543:CB:4906, V-B:TYR:539:CE2:9847, V-A:GLY:544:C:4912, V-B:GLU:543:CG:9878, H-B:GLY:454:N:9021, H-B:TYR:484:OH:9319, V-B:TYR:539:CZ:9848, V-B:PRO:540:C:9852, H-A:TYR:484:OH:4347, V-B:PRO:540:N:9855, V-A:LYS:547:CE:4950, V-B:TYR:539:C:9838, V-B:PRO:540:CA:9854, H-B:HIS:456:ND1:9038, V-B:ARG:545:CZ:9897, H-A:GLY:454:N:4049"]

$$$$
RR22_Rahimova_2017
     RDKit          3D

 49 54  0  0  0  0  0  0  0  0999 V2000
  134.4660  125.4950   64.4410 O   0  0  0  0  0  0  0  0  0  0  0  0
  133.2600  125.5590   64.2150 C   0  0  0  0  0  0  0  0  0  0  0  0
  132.3330  126.3990   64.8080 N   0  0  0  0  0  0  0  0  0  0  0  0
  130.9660  126.3910   64.3850 C   0  0  1  0  0  0  0  0  0  0  0  0
  130.2080  126.1390   65.5710 O   0  0  0  0  0  0  0  0  0  0  0  0
  129.2690  127.0900   65.9720 C   0  0  0  0  0  0  0  0  0  0  0  0
  128.8230  127.0060   67.2910 C   0  0  0  0  0  0  0  0  0  0  0  0
  127.8550  127.8980   67.7540 C   0  0  0  0  0  0  0  0  0  0  0  0
  127.3300  128.8650   66.8970 C   0  0  0  0  0  0  0  0  0  0  0  0
  127.7750  128.9480   65.5760 C   0  0  0  0  0  0  0  0  0  0  0  0
  128.7630  128.0770   65.1060 C   0  0  0  0  0  0  0  0  0  0  0  0
  129.2810  128.0580   63.6850 C   0  0  1  0  0  0  0  0  0  0  0  0
  129.3750  129.3090   62.8350 C   0  0  0  0  0  0  0  0  0  0  0  0
  130.5700  128.9380   61.9540 C   0  0  0  0  0  0  0  0  0  0  0  0
  130.8690  129.6260   60.6820 C   0  0  0  0  0  0  0  0  0  0  0  0
  131.2310  130.9810   60.6720 C   0  0  0  0  0  0  0  0  0  0  0  0
  131.5130  131.6250   59.4710 C   0  0  0  0  0  0  0  0  0  0  0  0
  131.4340  130.9200   58.2730 C   0  0  0  0  0  0  0  0  0  0  0  0
  131.0760  129.5740   58.2660 C   0  0  0  0  0  0  0  0  0  0  0  0
  130.7950  128.9280   59.4670 C   0  0  0  0  0  0  0  0  0  0  0  0
  131.2580  127.9950   62.4810 N   0  0  0  0  0  0  0  0  0  0  0  0
  130.6550  127.6570   63.7040 N   0  0  0  0  0  0  0  0  0  0  0  0
  130.7980  125.1780   63.4810 C   0  0  0  0  0  0  0  0  0  0  0  0
  129.5900  124.6520   63.1700 C   0  0  0  0  0  0  0  0  0  0  0  0
  129.2850  123.5010   62.2990 C   0  0  0  0  0  0  0  0  0  0  0  0
  130.1450  122.4050   62.1460 C   0  0  0  0  0  0  0  0  0  0  0  0
  129.7900  121.3510   61.3030 C   0  0  0  0  0  0  0  0  0  0  0  0
  128.5750  121.4250   60.6220 C   0  0  0  0  0  0  0  0  0  0  0  0
  127.7260  122.4760   60.7440 N   0  0  0  0  0  0  0  0  0  0  0  0
  128.0890  123.4910   61.5700 C   0  0  0  0  0  0  0  0  0  0  0  0
  132.3750  124.5280   63.0060 S   0  0  0  0  0  0  0  0  0  0  0  0
  132.5960  126.9980   65.5760 H   0  0  0  0  0  0  0  0  0  0  0  0
  129.2332  126.2388   67.9642 H   0  0  0  0  0  0  0  0  0  0  0  0
  127.5058  127.8385   68.7954 H   0  0  0  0  0  0  0  0  0  0  0  0
  126.5634  129.5641   67.2626 H   0  0  0  0  0  0  0  0  0  0  0  0
  127.3458  129.7031   64.9010 H   0  0  0  0  0  0  0  0  0  0  0  0
  128.5045  127.4203   63.2372 H   0  0  0  0  0  0  0  0  0  0  0  0
  128.4632  129.4691   62.2409 H   0  0  0  0  0  0  0  0  0  0  0  0
  129.4869  130.2467   63.3991 H   0  0  0  0  0  0  0  0  0  0  0  0
  131.2923  131.5377   61.6187 H   0  0  0  0  0  0  0  0  0  0  0  0
  131.7974  132.6876   59.4682 H   0  0  0  0  0  0  0  0  0  0  0  0
  131.6562  131.4303   57.3242 H   0  0  0  0  0  0  0  0  0  0  0  0
  131.0155  129.0236   57.3155 H   0  0  0  0  0  0  0  0  0  0  0  0
  130.5135  127.8646   59.4633 H   0  0  0  0  0  0  0  0  0  0  0  0
  128.7212  125.1483   63.6270 H   0  0  0  0  0  0  0  0  0  0  0  0
  131.1003  122.3755   62.6906 H   0  0  0  0  0  0  0  0  0  0  0  0
  130.4530  120.4821   61.1785 H   0  0  0  0  0  0  0  0  0  0  0  0
  128.2930  120.5952   59.9572 H   0  0  0  0  0  0  0  0  0  0  0  0
  127.4088  124.3495   61.6718 H   0  0  0  0  0  0  0  0  0  0  0  0
  1  2  2  0
  2  3  1  0
  3  4  1  0
  4  5  1  1
  5  6  1  0
  6  7  2  0
  7  8  1  0
  8  9  2  0
  9 10  1  0
 10 11  2  0
 11 12  1  0
 12 13  1  0
 13 14  1  0
 14 15  1  0
 15 16  2  0
 16 17  1  0
 17 18  2  0
 18 19  1  0
 19 20  2  0
 14 21  2  0
 21 22  1  0
  4 23  1  0
 23 24  2  0
 24 25  1  0
 25 26  2  0
 26 27  1  0
 27 28  2  0
 28 29  1  0
 29 30  2  0
 23 31  1  0
 31  2  1  0
 22  4  1  0
 30 25  1  0
 11  6  1  0
 22 12  1  0
 20 15  1  0
  3 32  1  0
  7 33  1  0
  8 34  1  0
  9 35  1  0
 10 36  1  0
 12 37  1  6
 13 38  1  0
 13 39  1  0
 16 40  1  0
 17 41  1  0
 18 42  1  0
 19 43  1  0
 20 44  1  0
 24 45  1  0
 26 46  1  0
 27 47  1  0
 28 48  1  0
 30 49  1  0
M  END
>  <Binding energies>  (1) 
[-8.2]

>  <Ligand effiencies>  (1) 
[-0.25625]

>  <Interactions>  (1) 
["V-B:HIS:456:CE1:9041, V-A:ARG:545:CZ:4926, V-B:GLU:543:CD:9879, V-A:GLU:543:CD:4908, V-A:GLU:543:CG:4907, H-A:ARG:545:NH2:4928, V-B:TYR:539:CD2:9845, V-B:ALA:541:CB:9863, V-B:GLU:543:CG:9878, V-B:GLU:543:CB:9877, V-A:PRO:540:CB:4885, V-A:PRO:540:CA:4883, V-B:PRO:540:C:9852, V-B:ALA:541:CA:9861, V-B:PRO:540:N:9855, V-B:TYR:539:C:9838, V-B:PRO:540:CA:9854, H-B:ALA:541:N:9862, H-A:ARG:545:NE:4924, H-A:GLY:454:N:4049, H-A:GLU:543:OE1:4909, H-A:GLU:543:OE2:4910, H-A:ARG:545:NH1:4927"]

$$$$
RR23_Rahimova_2017
     RDKit          3D

 65 70  0  0  0  0  0  0  0  0999 V2000
  132.1380  126.0470   66.2930 C   0  0  0  0  0  0  0  0  0  0  0  0
  132.2640  125.0300   65.1730 C   0  0  0  0  0  0  0  0  0  0  0  0
  133.3350  125.1030   64.2810 C   0  0  0  0  0  0  0  0  0  0  0  0
  133.4540  124.1640   63.2590 C   0  0  0  0  0  0  0  0  0  0  0  0
  132.4980  123.1530   63.1150 C   0  0  0  0  0  0  0  0  0  0  0  0
  132.6580  122.1310   62.0110 C   0  0  0  0  0  0  0  0  0  0  0  0
  133.8040  121.7910   61.7090 O   0  0  0  0  0  0  0  0  0  0  0  0
  131.5450  121.6170   61.4080 N   0  0  0  0  0  0  0  0  0  0  0  0
  131.0330  120.2790   61.7470 C   0  0  0  0  0  0  0  0  0  0  0  0
  129.7220  120.1190   60.9950 C   0  0  0  0  0  0  0  0  0  0  0  0
  129.4000  121.5230   60.5830 C   0  0  0  0  0  0  0  0  0  0  0  0
  128.2650  122.0110   59.9350 C   0  0  0  0  0  0  0  0  0  0  0  0
  128.2200  123.3400   59.4870 C   0  0  0  0  0  0  0  0  0  0  0  0
  126.9900  123.9170   58.7700 C   0  0  2  0  0  0  0  0  0  0  0  0
  127.1490  125.3210   58.4580 N   0  0  0  0  0  0  0  0  0  0  0  0
  126.0390  125.9430   58.4920 C   0  0  0  0  0  0  0  0  0  0  0  0
  125.8120  127.2670   58.2810 N   0  0  0  0  0  0  0  0  0  0  0  0
  126.7180  128.2610   58.1220 C   0  0  0  0  0  0  0  0  0  0  0  0
  127.9430  128.1190   58.1030 O   0  0  0  0  0  0  0  0  0  0  0  0
  126.1310  129.6730   57.9600 C   0  0  0  0  0  0  0  0  0  0  0  0
  125.7660  130.2020   59.2940 N   0  0  0  0  0  0  0  0  0  0  0  0
  126.3220  129.5300   60.3750 N   0  0  0  0  0  0  0  0  0  0  0  0
  126.0810  129.8930   61.5940 N   0  0  0  0  0  0  0  0  0  0  0  0
  125.2460  130.9850   61.8410 C   0  0  0  0  0  0  0  0  0  0  0  0
  125.0050  131.3490   63.1680 C   0  0  0  0  0  0  0  0  0  0  0  0
  124.1740  132.4360   63.4460 C   0  0  0  0  0  0  0  0  0  0  0  0
  123.5860  133.1560   62.4050 C   0  0  0  0  0  0  0  0  0  0  0  0
  123.8250  132.7930   61.0780 C   0  0  0  0  0  0  0  0  0  0  0  0
  124.6600  131.7040   60.7980 C   0  0  0  0  0  0  0  0  0  0  0  0
  124.9290  131.2930   59.3690 C   0  0  0  0  0  0  0  0  0  0  0  0
  124.4430  131.8630   58.3880 O   0  0  0  0  0  0  0  0  0  0  0  0
  124.5830  124.9800   58.8800 S   0  0  0  0  0  0  0  0  0  0  0  0
  125.6510  123.6700   59.5020 C   0  0  2  0  0  0  0  0  0  0  0  0
  125.6830  123.7360   61.0440 C   0  0  0  0  0  0  0  0  0  0  0  0
  129.3490  124.1490   59.6590 C   0  0  0  0  0  0  0  0  0  0  0  0
  130.4930  123.6560   60.2880 C   0  0  0  0  0  0  0  0  0  0  0  0
  130.5010  122.3530   60.8040 C   0  0  0  0  0  0  0  0  0  0  0  0
  131.4410  123.0690   64.0310 C   0  0  0  0  0  0  0  0  0  0  0  0
  131.3230  124.0070   65.0520 C   0  0  0  0  0  0  0  0  0  0  0  0
  132.2016  125.5333   67.2636 H   0  0  0  0  0  0  0  0  0  0  0  0
  132.9519  126.7827   66.2135 H   0  0  0  0  0  0  0  0  0  0  0  0
  131.1692  126.5619   66.2135 H   0  0  0  0  0  0  0  0  0  0  0  0
  134.0845  125.9014   64.3850 H   0  0  0  0  0  0  0  0  0  0  0  0
  134.3034  124.2177   62.5622 H   0  0  0  0  0  0  0  0  0  0  0  0
  131.7494  119.5062   61.4316 H   0  0  0  0  0  0  0  0  0  0  0  0
  130.8867  120.1707   62.8318 H   0  0  0  0  0  0  0  0  0  0  0  0
  129.8459  119.4674   60.1174 H   0  0  0  0  0  0  0  0  0  0  0  0
  128.9298  119.6501   61.5972 H   0  0  0  0  0  0  0  0  0  0  0  0
  127.4004  121.3502   59.7743 H   0  0  0  0  0  0  0  0  0  0  0  0
  126.9323  123.3517   57.8281 H   0  0  0  0  0  0  0  0  0  0  0  0
  124.8450  127.5560   58.2880 H   0  0  0  0  0  0  0  0  0  0  0  0
  126.8790  130.3317   57.4946 H   0  0  0  0  0  0  0  0  0  0  0  0
  125.2370  129.6315   57.3205 H   0  0  0  0  0  0  0  0  0  0  0  0
  125.4675  130.7822   63.9895 H   0  0  0  0  0  0  0  0  0  0  0  0
  123.9820  132.7260   64.4896 H   0  0  0  0  0  0  0  0  0  0  0  0
  122.9326  134.0117   62.6305 H   0  0  0  0  0  0  0  0  0  0  0  0
  123.3602  133.3591   60.2573 H   0  0  0  0  0  0  0  0  0  0  0  0
  125.3250  122.6386   59.3024 H   0  0  0  0  0  0  0  0  0  0  0  0
  125.2387  122.8195   61.4595 H   0  0  0  0  0  0  0  0  0  0  0  0
  126.7247  123.8259   61.3856 H   0  0  0  0  0  0  0  0  0  0  0  0
  125.1084  124.6096   61.3856 H   0  0  0  0  0  0  0  0  0  0  0  0
  129.3344  125.1865   59.2938 H   0  0  0  0  0  0  0  0  0  0  0  0
  131.3877  124.2895   60.3787 H   0  0  0  0  0  0  0  0  0  0  0  0
  130.7021  122.2589   63.9427 H   0  0  0  0  0  0  0  0  0  0  0  0
  130.4872  123.9419   65.7642 H   0  0  0  0  0  0  0  0  0  0  0  0
  1  2  1  0
  2  3  2  0
  3  4  1  0
  4  5  2  0
  5  6  1  0
  6  7  2  0
  6  8  1  0
  8  9  1  0
  9 10  1  0
 10 11  1  0
 11 12  2  0
 12 13  1  0
 13 14  1  0
 14 15  1  0
 15 16  2  0
 16 17  1  0
 17 18  1  0
 18 19  2  0
 18 20  1  0
 20 21  1  0
 21 22  1  0
 22 23  2  0
 23 24  1  0
 24 25  2  0
 25 26  1  0
 26 27  2  0
 27 28  1  0
 28 29  2  0
 29 30  1  0
 30 31  2  0
 16 32  1  0
 32 33  1  0
 33 34  1  0
 13 35  2  0
 35 36  1  0
 36 37  2  0
  5 38  1  0
 38 39  2  0
 39  2  1  0
 37  8  1  0
 37 11  1  0
 33 14  1  0
 30 21  1  0
 29 24  1  0
  1 40  1  0
  1 41  1  0
  1 42  1  0
  3 43  1  0
  4 44  1  0
  9 45  1  0
  9 46  1  0
 10 47  1  0
 10 48  1  0
 12 49  1  0
 14 50  1  6
 17 51  1  0
 20 52  1  0
 20 53  1  0
 25 54  1  0
 26 55  1  0
 27 56  1  0
 28 57  1  0
 33 58  1  1
 34 59  1  0
 34 60  1  0
 34 61  1  0
 35 62  1  0
 36 63  1  0
 38 64  1  0
 39 65  1  0
M  END
>  <Binding energies>  (1) 
[-9.56]

>  <Ligand effiencies>  (1) 
[-0.23900000000000002]

>  <Interactions>  (1) 
["V-B:ASP:366:CG:8184, V-A:ARG:545:CZ:4926, V-B:ILE:369:CB:8207, V-A:LEU:475:CD2:4258, V-A:TYR:484:CZ:4346, V-A:GLU:543:CD:4908, V-B:GLY:454:CA:9020, V-B:ILE:369:CD1:8210, V-B:LEU:475:CD1:9229, V-B:ILE:369:CG2:8208, V-A:TYR:539:CE2:4876, V-A:GLY:454:CA:4048, V-A:HIS:456:CE1:4069, V-B:TYR:539:CD2:9845, V-A:ILE:369:CG2:3236, V-B:TYR:539:CE2:9847, V-B:ALA:541:CB:9863, V-B:ASP:366:CB:8183, V-B:PRO:540:C:9852, V-B:PRO:540:N:9855, V-B:TYR:539:C:9838, V-B:PRO:540:CA:9854, H-B:ASP:366:OD2:8186, V-B:PRO:540:CB:9856, H-B:TYR:531:OH:9766, V-B:TYR:531:CZ:9765, H-A:TYR:539:OH:4878"]

$$$$
RR24_Rahimova_2017
     RDKit          3D

 65 71  0  0  0  0  0  0  0  0999 V2000
  131.4460  128.4430   70.3600 C   0  0  0  0  0  0  0  0  0  0  0  0
  130.3120  127.9100   71.2470 C   0  0  2  0  0  0  0  0  0  0  0  0
  129.2510  127.0870   70.4580 C   0  0  0  0  0  0  0  0  0  0  0  0
  129.0780  125.8800   70.6550 O   0  0  0  0  0  0  0  0  0  0  0  0
  128.5830  127.8420   69.5370 O   0  0  0  0  0  0  0  0  0  0  0  0
  128.8120  127.6360   68.1950 C   0  0  0  0  0  0  0  0  0  0  0  0
  128.0140  128.2930   67.2560 C   0  0  0  0  0  0  0  0  0  0  0  0
  128.2430  128.1000   65.8960 C   0  0  0  0  0  0  0  0  0  0  0  0
  129.2740  127.2570   65.4700 C   0  0  0  0  0  0  0  0  0  0  0  0
  129.5080  127.0330   63.9720 C   0  0  1  0  0  0  0  0  0  0  0  0
  129.5790  128.3670   63.1920 C   0  0  0  0  0  0  0  0  0  0  0  0
  130.5860  128.6660   62.3510 C   0  0  0  0  0  0  0  0  0  0  0  0
  131.6300  127.8050   62.1230 N   0  0  0  0  0  0  0  0  0  0  0  0
  131.6990  126.5830   62.7510 C   0  0  0  0  0  0  0  0  0  0  0  0
  132.7880  125.8480   62.4110 N   0  0  0  0  0  0  0  0  0  0  0  0
  133.0650  124.6470   62.9890 C   0  0  0  0  0  0  0  0  0  0  0  0
  134.2010  124.1790   62.8890 O   0  0  0  0  0  0  0  0  0  0  0  0
  132.0450  124.1550   63.7870 N   0  0  0  0  0  0  0  0  0  0  0  0
  132.2570  122.8120   64.3670 C   0  0  0  0  0  0  0  0  0  0  0  0
  130.9000  124.8160   64.1970 C   0  0  0  0  0  0  0  0  0  0  0  0
  130.0540  124.3320   64.9560 O   0  0  0  0  0  0  0  0  0  0  0  0
  130.7520  126.1600   63.6290 C   0  0  0  0  0  0  0  0  0  0  0  0
  130.3940  129.9810   61.7610 C   0  0  0  0  0  0  0  0  0  0  0  0
  131.1390  130.7340   60.8530 C   0  0  0  0  0  0  0  0  0  0  0  0
  130.6760  131.9960   60.4720 C   0  0  0  0  0  0  0  0  0  0  0  0
  129.4780  132.4940   60.9950 C   0  0  0  0  0  0  0  0  0  0  0  0
  128.7360  131.7350   61.9040 C   0  0  0  0  0  0  0  0  0  0  0  0
  129.2050  130.4750   62.2820 C   0  0  0  0  0  0  0  0  0  0  0  0
  128.6300  129.4760   63.2070 C   0  0  0  0  0  0  0  0  0  0  0  0
  127.5920  129.5180   63.8650 O   0  0  0  0  0  0  0  0  0  0  0  0
  130.0830  126.6150   66.4140 C   0  0  0  0  0  0  0  0  0  0  0  0
  129.8560  126.8090   67.7730 C   0  0  0  0  0  0  0  0  0  0  0  0
  129.6940  128.9880   72.0750 N   0  0  0  0  0  0  0  0  0  0  0  0
  129.0820  130.0630   71.5050 C   0  0  0  0  0  0  0  0  0  0  0  0
  128.9580  130.3030   70.3020 O   0  0  0  0  0  0  0  0  0  0  0  0
  128.5940  130.8870   72.6390 C   0  0  0  0  0  0  0  0  0  0  0  0
  127.8990  132.0980   72.6560 C   0  0  0  0  0  0  0  0  0  0  0  0
  127.5590  132.6560   73.8930 C   0  0  0  0  0  0  0  0  0  0  0  0
  127.9110  132.0060   75.0820 C   0  0  0  0  0  0  0  0  0  0  0  0
  128.6070  130.7930   75.0440 C   0  0  0  0  0  0  0  0  0  0  0  0
  128.9380  130.2520   73.8010 C   0  0  0  0  0  0  0  0  0  0  0  0
  129.6560  129.0040   73.4430 C   0  0  0  0  0  0  0  0  0  0  0  0
  130.1150  128.1600   74.2140 O   0  0  0  0  0  0  0  0  0  0  0  0
  132.2591  128.8252   70.9946 H   0  0  0  0  0  0  0  0  0  0  0  0
  131.8277  127.6300   69.7249 H   0  0  0  0  0  0  0  0  0  0  0  0
  131.0637  129.2557   69.7249 H   0  0  0  0  0  0  0  0  0  0  0  0
  130.7806  127.1992   71.9435 H   0  0  0  0  0  0  0  0  0  0  0  0
  127.2066  128.9613   67.5898 H   0  0  0  0  0  0  0  0  0  0  0  0
  127.6113  128.6119   65.1551 H   0  0  0  0  0  0  0  0  0  0  0  0
  128.6255  126.4612   63.6492 H   0  0  0  0  0  0  0  0  0  0  0  0
  132.3640  128.0680   61.4800 H   0  0  0  0  0  0  0  0  0  0  0  0
  133.4490  126.1870   61.7280 H   0  0  0  0  0  0  0  0  0  0  0  0
  132.2461  122.8808   65.4648 H   0  0  0  0  0  0  0  0  0  0  0  0
  131.4542  122.1378   64.0339 H   0  0  0  0  0  0  0  0  0  0  0  0
  133.2285  122.4179   64.0339 H   0  0  0  0  0  0  0  0  0  0  0  0
  132.0797  130.3388   60.4420 H   0  0  0  0  0  0  0  0  0  0  0  0
  131.2555  132.6000   59.7583 H   0  0  0  0  0  0  0  0  0  0  0  0
  129.1183  133.4876   60.6894 H   0  0  0  0  0  0  0  0  0  0  0  0
  127.7940  132.1252   62.3168 H   0  0  0  0  0  0  0  0  0  0  0  0
  130.8990  125.9565   66.0815 H   0  0  0  0  0  0  0  0  0  0  0  0
  130.4982  126.3115   68.5147 H   0  0  0  0  0  0  0  0  0  0  0  0
  127.6249  132.6021   71.7175 H   0  0  0  0  0  0  0  0  0  0  0  0
  127.0126  133.6099   73.9316 H   0  0  0  0  0  0  0  0  0  0  0  0
  127.6391  132.4511   76.0505 H   0  0  0  0  0  0  0  0  0  0  0  0
  128.8873  130.2768   75.9740 H   0  0  0  0  0  0  0  0  0  0  0  0
  1  2  1  0
  2  3  1  0
  3  4  2  0
  3  5  1  0
  5  6  1  0
  6  7  2  0
  7  8  1  0
  8  9  2  0
  9 10  1  0
 10 11  1  0
 11 12  2  0
 12 13  1  0
 13 14  1  0
 14 15  1  0
 15 16  1  0
 16 17  2  0
 16 18  1  0
 18 19  1  0
 18 20  1  0
 20 21  2  0
 20 22  1  0
 12 23  1  0
 23 24  2  0
 24 25  1  0
 25 26  2  0
 26 27  1  0
 27 28  2  0
 28 29  1  0
 29 30  2  0
  9 31  1  0
 31 32  2  0
  2 33  1  0
 33 34  1  0
 34 35  2  0
 34 36  1  0
 36 37  2  0
 37 38  1  0
 38 39  2  0
 39 40  1  0
 40 41  2  0
 41 42  1  0
 42 43  2  0
 32  6  1  0
 42 33  1  0
 22 10  1  0
 28 23  1  0
 41 36  1  0
 29 11  1  0
 22 14  2  0
  1 44  1  0
  1 45  1  0
  1 46  1  0
  2 47  1  1
  7 48  1  0
  8 49  1  0
 10 50  1  6
 13 51  1  0
 15 52  1  0
 19 53  1  0
 19 54  1  0
 19 55  1  0
 24 56  1  0
 25 57  1  0
 26 58  1  0
 27 59  1  0
 31 60  1  0
 32 61  1  0
 37 62  1  0
 38 63  1  0
 39 64  1  0
 40 65  1  0
M  END
>  <Binding energies>  (1) 
[-10.06]

>  <Ligand effiencies>  (1) 
[-0.22355555555555556]

>  <Interactions>  (1) 
["V-B:HIS:456:CE1:9041, V-A:ARG:545:CZ:4926, V-B:GLU:543:CD:9879, V-A:ASP:366:CG:3212, V-A:LEU:475:CD2:4258, V-A:GLU:543:CD:4908, V-A:GLU:543:CG:4907, V-A:GLY:454:CA:4048, V-A:HIS:456:CE1:4069, V-A:GLU:543:C:4902, V-B:HIS:456:CD2:9039, V-B:HIS:456:CG:9037, V-A:GLU:543:CB:4906, V-A:GLY:544:C:4912, V-A:ARG:545:CG:4922, V-B:TYR:484:CD1:9314, V-A:ARG:545:CA:4919, V-B:TYR:484:CE1:9316, V-A:PRO:540:CA:4883, H-A:LYS:547:NZ:4951, H-B:HIS:456:ND1:9038, V-B:HIS:456:CB:9036, H-A:ASP:366:OD1:3213, H-A:ASP:366:OD2:3214, V-B:ASP:473:CG:9211, H-A:GLY:454:N:4049, V-B:TYR:484:CG:9313, V-B:TYR:484:CB:9312, V-B:TYR:484:CD2:9315, V-B:ASP:473:CB:9210"]

$$$$
RR24_Rahimova_2017-again1
     RDKit          3D

 63 69  0  0  0  0  0  0  0  0999 V2000
  124.9170  130.0130   61.6040 C   0  0  0  0  0  0  0  0  0  0  0  0
  125.2990  130.6950   62.9250 C   0  0  2  0  0  0  0  0  0  0  0  0
  124.2850  130.4240   64.0750 C   0  0  0  0  0  0  0  0  0  0  0  0
  123.1400  130.0120   63.8550 O   0  0  0  0  0  0  0  0  0  0  0  0
  124.7960  130.7160   65.3070 O   0  0  0  0  0  0  0  0  0  0  0  0
  125.9020  130.0360   65.7630 C   0  0  0  0  0  0  0  0  0  0  0  0
  125.8030  129.2560   66.9160 C   0  0  0  0  0  0  0  0  0  0  0  0
  126.9110  128.5490   67.3740 C   0  0  0  0  0  0  0  0  0  0  0  0
  128.1220  128.6120   66.6770 C   0  0  0  0  0  0  0  0  0  0  0  0
  129.3470  127.8340   67.1770 C   0  0  1  0  0  0  0  0  0  0  0  0
  129.2700  127.5840   68.7010 C   0  0  0  0  0  0  0  0  0  0  0  0
  129.2720  128.4230   69.7610 C   0  0  0  0  0  0  0  0  0  0  0  0
  129.3850  129.7050   69.6870 O   0  0  0  0  0  0  0  0  0  0  0  0
  129.1000  127.6710   71.0040 C   0  0  0  0  0  0  0  0  0  0  0  0
  129.0240  128.0670   72.3450 C   0  0  0  0  0  0  0  0  0  0  0  0
  128.8470  127.1040   73.3390 C   0  0  0  0  0  0  0  0  0  0  0  0
  128.7470  125.7540   72.9960 C   0  0  0  0  0  0  0  0  0  0  0  0
  128.8260  125.3640   71.6580 C   0  0  0  0  0  0  0  0  0  0  0  0
  129.0000  126.3300   70.6640 C   0  0  0  0  0  0  0  0  0  0  0  0
  129.1310  126.2340   69.2210 C   0  0  0  0  0  0  0  0  0  0  0  0
  129.1460  125.2020   68.4630 N   0  0  0  0  0  0  0  0  0  0  0  0
  129.4040  125.2980   67.1280 C   0  0  0  0  0  0  0  0  0  0  0  0
  129.5390  124.0830   66.5200 N   0  0  0  0  0  0  0  0  0  0  0  0
  129.7670  124.0340   65.2560 C   0  0  0  0  0  0  0  0  0  0  0  0
  129.8660  122.8780   64.8100 O   0  0  0  0  0  0  0  0  0  0  0  0
  129.8930  125.1810   64.4750 N   0  0  0  0  0  0  0  0  0  0  0  0
  130.1550  125.1560   63.0160 C   0  0  0  0  0  0  0  0  0  0  0  0
  129.7900  126.4520   65.0070 C   0  0  0  0  0  0  0  0  0  0  0  0
  129.9190  127.4930   64.3560 O   0  0  0  0  0  0  0  0  0  0  0  0
  129.5160  126.4810   66.4470 C   0  0  0  0  0  0  0  0  0  0  0  0
  128.2140  129.3840   65.5150 C   0  0  0  0  0  0  0  0  0  0  0  0
  127.1060  130.0900   65.0550 C   0  0  0  0  0  0  0  0  0  0  0  0
  125.5760  132.1500   62.7440 N   0  0  0  0  0  0  0  0  0  0  0  0
  124.5690  133.0680   62.7050 C   0  0  0  0  0  0  0  0  0  0  0  0
  123.3590  132.8570   62.8010 O   0  0  0  0  0  0  0  0  0  0  0  0
  125.2390  134.3800   62.5200 C   0  0  0  0  0  0  0  0  0  0  0  0
  124.7120  135.6680   62.4050 C   0  0  0  0  0  0  0  0  0  0  0  0
  125.5950  136.7390   62.2340 C   0  0  0  0  0  0  0  0  0  0  0  0
  126.9770  136.5150   62.1820 C   0  0  0  0  0  0  0  0  0  0  0  0
  127.4860  135.2180   62.2990 C   0  0  0  0  0  0  0  0  0  0  0  0
  126.5890  134.1610   62.4670 C   0  0  0  0  0  0  0  0  0  0  0  0
  126.8210  132.7030   62.6200 C   0  0  0  0  0  0  0  0  0  0  0  0
  127.9040  132.1180   62.6350 O   0  0  0  0  0  0  0  0  0  0  0  0
  124.3896  129.0714   61.8166 H   0  0  0  0  0  0  0  0  0  0  0  0
  124.2602  130.6783   61.0244 H   0  0  0  0  0  0  0  0  0  0  0  0
  125.8274  129.8005   61.0244 H   0  0  0  0  0  0  0  0  0  0  0  0
  126.2404  130.2250   63.2456 H   0  0  0  0  0  0  0  0  0  0  0  0
  124.8500  129.2000   67.4625 H   0  0  0  0  0  0  0  0  0  0  0  0
  126.8341  127.9393   68.2863 H   0  0  0  0  0  0  0  0  0  0  0  0
  130.2224  128.4617   66.9544 H   0  0  0  0  0  0  0  0  0  0  0  0
  129.1034  129.1309   72.6131 H   0  0  0  0  0  0  0  0  0  0  0  0
  128.7861  127.4086   74.3942 H   0  0  0  0  0  0  0  0  0  0  0  0
  128.6058  124.9968   73.7813 H   0  0  0  0  0  0  0  0  0  0  0  0
  128.7515  124.3004   71.3875 H   0  0  0  0  0  0  0  0  0  0  0  0
  131.2358  125.0529   62.8393 H   0  0  0  0  0  0  0  0  0  0  0  0
  129.6265  124.3042   62.5631 H   0  0  0  0  0  0  0  0  0  0  0  0
  129.7971  126.0924   62.5631 H   0  0  0  0  0  0  0  0  0  0  0  0
  129.1642  129.4336   64.9630 H   0  0  0  0  0  0  0  0  0  0  0  0
  127.1778  130.6896   64.1356 H   0  0  0  0  0  0  0  0  0  0  0  0
  123.6258  135.8366   62.4480 H   0  0  0  0  0  0  0  0  0  0  0  0
  125.2025  137.7623   62.1399 H   0  0  0  0  0  0  0  0  0  0  0  0
  127.6646  137.3632   62.0485 H   0  0  0  0  0  0  0  0  0  0  0  0
  128.5698  135.0342   62.2596 H   0  0  0  0  0  0  0  0  0  0  0  0
  1  2  1  0
  2  3  1  0
  3  4  2  0
  3  5  1  0
  5  6  1  0
  6  7  2  0
  7  8  1  0
  8  9  2  0
  9 10  1  0
 10 11  1  0
 11 12  2  0
 12 13  1  0
 12 14  1  0
 14 15  2  0
 15 16  1  0
 16 17  2  0
 17 18  1  0
 18 19  2  0
 19 20  1  0
 20 21  2  0
 21 22  1  0
 22 23  1  0
 23 24  2  0
 24 25  1  0
 24 26  1  0
 26 27  1  0
 26 28  1  0
 28 29  2  0
 28 30  1  0
  9 31  1  0
 31 32  2  0
  2 33  1  0
 33 34  1  0
 34 35  2  0
 34 36  1  0
 36 37  2  0
 37 38  1  0
 38 39  2  0
 39 40  1  0
 40 41  2  0
 41 42  1  0
 42 43  2  0
 32  6  1  0
 42 33  1  0
 30 10  1  0
 41 36  1  0
 20 11  1  0
 30 22  2  0
 19 14  1  0
  1 44  1  0
  1 45  1  0
  1 46  1  0
  2 47  1  1
  7 48  1  0
  8 49  1  0
 10 50  1  1
 15 51  1  0
 16 52  1  0
 17 53  1  0
 18 54  1  0
 27 55  1  0
 27 56  1  0
 27 57  1  0
 31 58  1  0
 32 59  1  0
 37 60  1  0
 38 61  1  0
 39 62  1  0
 40 63  1  0
M  CHG  2  13  -1  25  -1
M  END
>  <Binding energies>  (1) 
[-8.29]

>  <Ligand effiencies>  (1) 
[-0.1927906976744186]

>  <Interactions>  (1) 
["V-B:ASP:366:CG:8184, V-B:HIS:456:CE1:9041, V-B:GLU:543:CD:9879, V-A:GLU:543:CD:4908, V-B:GLY:454:CA:9020, V-A:ALA:541:CB:4892, V-B:TRP:381:CZ2:8341, V-A:GLU:543:CG:4907, V-B:PRO:482:CB:9297, V-B:PRO:482:CG:9298, V-B:LEU:475:CD1:9229, V-B:TRP:381:CH2:8343, V-A:HIS:456:CE1:4069, V-B:HIS:456:CD2:9039, V-A:GLU:543:CB:4906, V-A:HIS:456:CD2:4067, V-B:GLU:543:CG:9878, V-B:GLU:543:CB:9877, H-B:GLY:454:N:9021, H-B:ARG:545:NH2:9899, V-B:LYS:547:CE:9921, H-B:TYR:484:OH:9319, H-A:TYR:484:OH:4347, H-B:ARG:545:NH1:9898, V-B:ARG:545:CZ:9897, V-B:TRP:381:CE2:8338"]

$$$$
RR25_Rahimova_2017
     RDKit          3D

 63 68  0  0  0  0  0  0  0  0999 V2000
  124.8090  129.5640   67.7270 O   0  0  0  0  0  0  0  0  0  0  0  0
  125.7580  129.1600   67.0530 C   0  0  0  0  0  0  0  0  0  0  0  0
  126.8720  128.7650   67.7510 O   0  0  0  0  0  0  0  0  0  0  0  0
  127.8970  128.0670   67.1390 C   0  0  0  0  0  0  0  0  0  0  0  0
  128.6760  127.2500   67.9570 C   0  0  0  0  0  0  0  0  0  0  0  0
  129.7310  126.5250   67.4070 C   0  0  0  0  0  0  0  0  0  0  0  0
  130.0250  126.6080   66.0380 C   0  0  0  0  0  0  0  0  0  0  0  0
  131.1440  125.8280   65.4550 N   0  0  0  0  0  0  0  0  0  0  0  0
  130.9200  125.1220   64.4750 O   0  0  0  0  0  0  0  0  0  0  0  0
  132.2540  125.9170   65.9710 O   0  0  0  0  0  0  0  0  0  0  0  0
  129.2360  127.4470   65.2340 C   0  0  0  0  0  0  0  0  0  0  0  0
  128.1800  128.1870   65.7700 C   0  0  0  0  0  0  0  0  0  0  0  0
  127.2920  129.0980   64.9410 C   0  0  0  0  0  0  0  0  0  0  0  0
  125.8420  129.0670   65.5020 C   0  0  2  0  0  0  0  0  0  0  0  0
  124.9240  130.0650   64.7370 C   0  0  0  0  0  0  0  0  0  0  0  0
  124.1860  130.7660   65.4350 O   0  0  0  0  0  0  0  0  0  0  0  0
  125.0170  130.2510   63.3860 N   0  0  0  0  0  0  0  0  0  0  0  0
  125.6320  129.2560   62.4820 C   0  0  0  0  0  0  0  0  0  0  0  0
  126.3930  129.9980   61.3630 C   0  0  0  0  0  0  0  0  0  0  0  0
  125.5220  130.9440   60.6600 N   0  0  0  0  0  0  0  0  0  0  0  0
  126.2050  131.5530   59.5110 C   0  0  0  0  0  0  0  0  0  0  0  0
  127.0760  132.7760   59.9070 C   0  0  0  0  0  0  0  0  0  0  0  0
  128.5500  132.5490   59.9350 N   0  0  0  0  0  0  0  0  0  0  0  0
  129.1160  132.5050   61.1920 C   0  0  0  0  0  0  0  0  0  0  0  0
  128.4680  132.6760   62.2310 O   0  0  0  0  0  0  0  0  0  0  0  0
  130.6030  132.2090   61.2060 C   0  0  0  0  0  0  0  0  0  0  0  0
  131.2740  132.1160   62.4320 C   0  0  0  0  0  0  0  0  0  0  0  0
  132.6390  131.8370   62.4820 C   0  0  0  0  0  0  0  0  0  0  0  0
  133.3730  131.6400   61.3140 C   0  0  0  0  0  0  0  0  0  0  0  0
  132.7370  131.7250   60.0520 C   0  0  0  0  0  0  0  0  0  0  0  0
  133.4220  131.5340   58.8280 C   0  0  0  0  0  0  0  0  0  0  0  0
  132.7340  131.6280   57.6190 C   0  0  0  0  0  0  0  0  0  0  0  0
  131.3700  131.9110   57.5920 C   0  0  0  0  0  0  0  0  0  0  0  0
  130.6510  132.1070   58.7790 C   0  0  0  0  0  0  0  0  0  0  0  0
  131.3440  132.0120   60.0130 C   0  0  0  0  0  0  0  0  0  0  0  0
  129.1650  132.4040   58.7080 C   0  0  0  0  0  0  0  0  0  0  0  0
  128.5650  132.4900   57.6320 O   0  0  0  0  0  0  0  0  0  0  0  0
  125.0290  131.9570   61.5950 C   0  0  0  0  0  0  0  0  0  0  0  0
  124.2170  131.3220   62.7490 C   0  0  0  0  0  0  0  0  0  0  0  0
  128.4585  127.1780   69.0329 H   0  0  0  0  0  0  0  0  0  0  0  0
  130.3415  125.8789   68.0550 H   0  0  0  0  0  0  0  0  0  0  0  0
  129.4547  127.5228   64.1586 H   0  0  0  0  0  0  0  0  0  0  0  0
  127.6797  130.1264   64.9858 H   0  0  0  0  0  0  0  0  0  0  0  0
  127.2867  128.7509   63.8972 H   0  0  0  0  0  0  0  0  0  0  0  0
  125.4397  128.0632   65.3006 H   0  0  0  0  0  0  0  0  0  0  0  0
  126.3325  128.6255   63.0492 H   0  0  0  0  0  0  0  0  0  0  0  0
  124.8500  128.6200   62.0416 H   0  0  0  0  0  0  0  0  0  0  0  0
  127.2349  130.5491   61.8074 H   0  0  0  0  0  0  0  0  0  0  0  0
  126.7530  129.2540   60.6372 H   0  0  0  0  0  0  0  0  0  0  0  0
  126.8533  130.7958   59.0459 H   0  0  0  0  0  0  0  0  0  0  0  0
  125.4302  131.9095   58.8163 H   0  0  0  0  0  0  0  0  0  0  0  0
  126.8734  133.5810   59.1852 H   0  0  0  0  0  0  0  0  0  0  0  0
  126.7940  133.0173   60.9425 H   0  0  0  0  0  0  0  0  0  0  0  0
  130.7162  132.2652   63.3683 H   0  0  0  0  0  0  0  0  0  0  0  0
  133.1437  131.7714   63.4572 H   0  0  0  0  0  0  0  0  0  0  0  0
  134.4488  131.4180   61.3726 H   0  0  0  0  0  0  0  0  0  0  0  0
  134.4992  131.3110   58.8307 H   0  0  0  0  0  0  0  0  0  0  0  0
  133.2755  131.4767   56.6735 H   0  0  0  0  0  0  0  0  0  0  0  0
  130.8500  131.9816   56.6252 H   0  0  0  0  0  0  0  0  0  0  0  0
  125.8872  132.4990   62.0188 H   0  0  0  0  0  0  0  0  0  0  0  0
  124.3658  132.6396   61.0435 H   0  0  0  0  0  0  0  0  0  0  0  0
  123.9767  132.0932   63.4956 H   0  0  0  0  0  0  0  0  0  0  0  0
  123.2854  130.8948   62.3494 H   0  0  0  0  0  0  0  0  0  0  0  0
  1  2  2  0
  2  3  1  0
  3  4  1  0
  4  5  2  0
  5  6  1  0
  6  7  2  0
  7  8  1  0
  8  9  2  0
  8 10  1  0
  7 11  1  0
 11 12  2  0
 12 13  1  0
 13 14  1  0
 14 15  1  0
 15 16  2  0
 15 17  1  0
 17 18  1  0
 18 19  1  0
 19 20  1  0
 20 21  1  0
 21 22  1  0
 22 23  1  0
 23 24  1  0
 24 25  2  0
 24 26  1  0
 26 27  2  0
 27 28  1  0
 28 29  2  0
 29 30  1  0
 30 31  2  0
 31 32  1  0
 32 33  2  0
 33 34  1  0
 34 35  2  0
 34 36  1  0
 36 37  2  0
 20 38  1  0
 38 39  1  0
 14  2  1  0
 39 17  1  0
 12  4  1  0
 36 23  1  0
 35 26  1  0
 35 30  1  0
  5 40  1  0
  6 41  1  0
 11 42  1  0
 13 43  1  0
 13 44  1  0
 14 45  1  1
 18 46  1  0
 18 47  1  0
 19 48  1  0
 19 49  1  0
 21 50  1  0
 21 51  1  0
 22 52  1  0
 22 53  1  0
 27 54  1  0
 28 55  1  0
 29 56  1  0
 31 57  1  0
 32 58  1  0
 33 59  1  0
 38 60  1  0
 38 61  1  0
 39 62  1  0
 39 63  1  0
M  CHG  2   8   1  10  -1
M  END
>  <Binding energies>  (1) 
[-10.22]

>  <Ligand effiencies>  (1) 
[-0.2620512820512821]

>  <Interactions>  (1) 
["V-B:ASP:366:CG:8184, V-B:HIS:456:CE1:9041, V-B:GLU:543:CD:9879, V-A:ASP:366:CG:3212, V-A:GLU:543:CD:4908, V-A:ALA:541:CB:4892, V-A:GLU:543:CG:4907, V-A:TYR:539:CE2:4876, V-A:TYR:539:CD2:4874, V-A:HIS:456:CE1:4069, V-A:ASP:366:CB:3211, H-B:GLY:454:N:9021, V-A:ASN:362:CB:3175, V-A:PRO:540:C:4881, V-A:ALA:541:CA:4890, V-A:PRO:540:CB:4885, V-A:PRO:540:CA:4883, H-B:TYR:484:OH:9319, H-A:TYR:484:OH:4347, H-B:HIS:456:ND1:9038, V-B:ARG:545:CZ:9897, V-A:TYR:539:C:4867, H-A:ARG:545:NE:4924, V-B:ARG:545:CG:9893, V-A:LEU:363:CA:3184, V-A:PRO:540:N:4884, V-A:LEU:363:CD1:3188, V-A:ASN:362:C:3171"]

$$$$
RR26_Rahimova_2017
     RDKit          3D

 59 65  0  0  0  0  0  0  0  0999 V2000
  127.6690  134.3520   61.8720 C   0  0  0  0  0  0  0  0  0  0  0  0
  126.1700  134.4250   62.1390 C   0  0  0  0  0  0  0  0  0  0  0  0
  125.4510  135.4920   61.5910 C   0  0  0  0  0  0  0  0  0  0  0  0
  124.0730  135.5870   61.7700 C   0  0  0  0  0  0  0  0  0  0  0  0
  123.3980  134.6090   62.4950 C   0  0  0  0  0  0  0  0  0  0  0  0
  124.1040  133.5410   63.0450 C   0  0  0  0  0  0  0  0  0  0  0  0
  125.4930  133.4330   62.8830 C   0  0  0  0  0  0  0  0  0  0  0  0
  126.1780  132.2590   63.5210 C   0  0  0  0  0  0  0  0  0  0  0  0
  126.1490  132.0450   64.8340 N   0  0  0  0  0  0  0  0  0  0  0  0
  126.8400  130.9430   64.9440 C   0  0  0  0  0  0  0  0  0  0  0  0
  127.3380  129.9200   66.2400 S   0  0  0  0  0  0  0  0  0  0  0  0
  128.1600  128.8470   65.0460 C   0  0  0  0  0  0  0  0  0  0  0  0
  128.8580  127.7160   65.2930 C   0  0  0  0  0  0  0  0  0  0  0  0
  129.1130  127.0820   66.5760 C   0  0  0  0  0  0  0  0  0  0  0  0
  128.7210  127.5090   67.8350 C   0  0  0  0  0  0  0  0  0  0  0  0
  129.1460  126.5770   68.7480 N   0  0  0  0  0  0  0  0  0  0  0  0
  128.9700  126.5840   70.1560 C   0  0  0  0  0  0  0  0  0  0  0  0
  128.2830  125.5430   70.7990 C   0  0  0  0  0  0  0  0  0  0  0  0
  128.1140  125.5640   72.1810 C   0  0  0  0  0  0  0  0  0  0  0  0
  128.6330  126.6210   72.9240 C   0  0  0  0  0  0  0  0  0  0  0  0
  129.3190  127.6590   72.2980 C   0  0  0  0  0  0  0  0  0  0  0  0
  129.4880  127.6430   70.9170 C   0  0  0  0  0  0  0  0  0  0  0  0
  129.7660  125.5640   68.1250 N   0  0  0  0  0  0  0  0  0  0  0  0
  129.7590  125.8520   66.8380 C   0  0  0  0  0  0  0  0  0  0  0  0
  130.3910  124.9110   65.8600 C   0  0  0  0  0  0  0  0  0  0  0  0
  129.7270  123.7370   65.4720 C   0  0  0  0  0  0  0  0  0  0  0  0
  130.3100  122.8520   64.5640 C   0  0  0  0  0  0  0  0  0  0  0  0
  131.5670  123.1360   64.0340 C   0  0  0  0  0  0  0  0  0  0  0  0
  132.2330  124.3150   64.3990 C   0  0  0  0  0  0  0  0  0  0  0  0
  131.6510  125.1940   65.3120 C   0  0  0  0  0  0  0  0  0  0  0  0
  133.4990  124.6160   63.9340 O   0  0  0  0  0  0  0  0  0  0  0  0
  133.8750  123.8960   62.7560 C   0  0  0  0  0  0  0  0  0  0  0  0
  133.4940  122.4010   62.8880 C   0  0  0  0  0  0  0  0  0  0  0  0
  132.0860  122.2590   63.1030 O   0  0  0  0  0  0  0  0  0  0  0  0
  128.0200  129.3310   63.6760 C   0  0  0  0  0  0  0  0  0  0  0  0
  128.4580  128.8460   62.6310 O   0  0  0  0  0  0  0  0  0  0  0  0
  127.2610  130.5090   63.7420 N   0  0  0  0  0  0  0  0  0  0  0  0
  126.8310  131.3580   62.8030 N   0  0  0  0  0  0  0  0  0  0  0  0
  128.2110  134.3256   62.8288 H   0  0  0  0  0  0  0  0  0  0  0  0
  127.8952  133.4418   61.2972 H   0  0  0  0  0  0  0  0  0  0  0  0
  127.9825  135.2359   61.2972 H   0  0  0  0  0  0  0  0  0  0  0  0
  125.9792  136.2643   61.0126 H   0  0  0  0  0  0  0  0  0  0  0  0
  123.5188  136.4338   61.3390 H   0  0  0  0  0  0  0  0  0  0  0  0
  122.3090  134.6792   62.6335 H   0  0  0  0  0  0  0  0  0  0  0  0
  123.5637  132.7708   63.6150 H   0  0  0  0  0  0  0  0  0  0  0  0
  129.2863  127.2128   64.4136 H   0  0  0  0  0  0  0  0  0  0  0  0
  128.1671  128.4318   68.0621 H   0  0  0  0  0  0  0  0  0  0  0  0
  127.8767  124.7079   70.2095 H   0  0  0  0  0  0  0  0  0  0  0  0
  127.5727  124.7489   72.6837 H   0  0  0  0  0  0  0  0  0  0  0  0
  128.5000  126.6364   74.0158 H   0  0  0  0  0  0  0  0  0  0  0  0
  129.7261  128.4892   72.8938 H   0  0  0  0  0  0  0  0  0  0  0  0
  130.0288  128.4623   70.4207 H   0  0  0  0  0  0  0  0  0  0  0  0
  128.7344  123.5115   65.8889 H   0  0  0  0  0  0  0  0  0  0  0  0
  129.7798  121.9347   64.2681 H   0  0  0  0  0  0  0  0  0  0  0  0
  132.1817  126.1124   65.6034 H   0  0  0  0  0  0  0  0  0  0  0  0
  133.3551  124.3265   61.8875 H   0  0  0  0  0  0  0  0  0  0  0  0
  134.9642  123.9747   62.6240 H   0  0  0  0  0  0  0  0  0  0  0  0
  133.7741  121.8733   61.9644 H   0  0  0  0  0  0  0  0  0  0  0  0
  134.0299  121.9721   63.7476 H   0  0  0  0  0  0  0  0  0  0  0  0
  1  2  1  0
  2  3  2  0
  3  4  1  0
  4  5  2  0
  5  6  1  0
  6  7  2  0
  7  8  1  0
  8  9  1  0
  9 10  2  0
 10 11  1  0
 11 12  1  0
 12 13  2  0
 13 14  1  0
 14 15  2  0
 15 16  1  0
 16 17  1  0
 17 18  2  0
 18 19  1  0
 19 20  2  0
 20 21  1  0
 21 22  2  0
 16 23  1  0
 23 24  2  0
 24 25  1  0
 25 26  2  0
 26 27  1  0
 27 28  2  0
 28 29  1  0
 29 30  2  0
 29 31  1  0
 31 32  1  0
 32 33  1  0
 33 34  1  0
 12 35  1  0
 35 36  2  0
 35 37  1  0
 37 38  1  0
  7  2  1  0
 38  8  2  0
 37 10  1  0
 24 14  1  0
 30 25  1  0
 22 17  1  0
 34 28  1  0
  1 39  1  0
  1 40  1  0
  1 41  1  0
  3 42  1  0
  4 43  1  0
  5 44  1  0
  6 45  1  0
 13 46  1  0
 15 47  1  0
 18 48  1  0
 19 49  1  0
 20 50  1  0
 21 51  1  0
 22 52  1  0
 26 53  1  0
 27 54  1  0
 30 55  1  0
 32 56  1  0
 32 57  1  0
 33 58  1  0
 33 59  1  0
M  END
>  <Binding energies>  (1) 
[-9.81]

>  <Ligand effiencies>  (1) 
[-0.25815789473684214]

>  <Interactions>  (1) 
["V-B:HIS:456:CE1:9041, V-B:GLU:543:CD:9879, V-A:LEU:475:CD2:4258, V-A:GLU:543:CD:4908, V-A:ILE:369:CD1:3238, V-B:GLY:454:CA:9020, V-A:ALA:541:CB:4892, V-B:TRP:381:CZ2:8341, V-B:ILE:369:CD1:8210, V-A:GLU:543:CG:4907, V-B:LEU:475:CD1:9229, V-B:ILE:369:CG2:8208, V-B:TRP:381:CH2:8343, V-A:TYR:539:CD2:4874, V-A:GLY:454:CA:4048, V-A:HIS:456:CE1:4069, V-B:HIS:456:CD2:9039, V-B:ALA:541:CB:9863, V-B:GLU:543:C:9873, V-B:GLU:543:CG:9878, V-B:GLU:543:CB:9877, V-B:SER:385:C:8376, H-B:TYR:484:OH:9319, H-A:GLY:454:N:4049, V-A:TYR:484:CE1:4344"]

$$$$
RR27_Rahimova_2017
     RDKit          3D

 66 71  0  0  0  0  0  0  0  0999 V2000
  123.9890  131.1540   62.7580 O   0  0  0  0  0  0  0  0  0  0  0  0
  125.0530  131.7460   62.9600 C   0  0  0  0  0  0  0  0  0  0  0  0
  125.8020  132.3570   61.7390 C   0  0  0  0  0  0  0  0  0  0  0  0
  126.0050  133.8790   61.8540 C   0  0  0  0  0  0  0  0  0  0  0  0
  127.2510  134.4800   61.6170 C   0  0  0  0  0  0  0  0  0  0  0  0
  127.3990  135.8590   61.7280 C   0  0  0  0  0  0  0  0  0  0  0  0
  126.3040  136.6440   62.0760 C   0  0  0  0  0  0  0  0  0  0  0  0
  125.0630  136.0630   62.3180 C   0  0  0  0  0  0  0  0  0  0  0  0
  124.9150  134.6830   62.2070 C   0  0  0  0  0  0  0  0  0  0  0  0
  125.1990  131.8820   60.4030 C   0  0  0  0  0  0  0  0  0  0  0  0
  123.9130  132.2640   59.9970 C   0  0  0  0  0  0  0  0  0  0  0  0
  123.3940  131.8070   58.7880 C   0  0  0  0  0  0  0  0  0  0  0  0
  124.1560  130.9630   57.9840 C   0  0  0  0  0  0  0  0  0  0  0  0
  125.4310  130.5670   58.3810 C   0  0  0  0  0  0  0  0  0  0  0  0
  125.9480  131.0230   59.5890 C   0  0  0  0  0  0  0  0  0  0  0  0
  125.5000  132.0030   64.2220 N   0  0  0  0  0  0  0  0  0  0  0  0
  126.8630  132.4690   64.5210 C   0  0  0  0  0  0  0  0  0  0  0  0
  127.7450  131.2090   64.6680 C   0  0  0  0  0  0  0  0  0  0  0  0
  127.1920  130.2060   65.7290 C   0  0  0  0  0  0  0  0  0  0  0  0
  127.9720  128.8820   65.8340 C   0  0  0  0  0  0  0  0  0  0  0  0
  128.6020  128.4570   64.7000 N   0  0  0  0  0  0  0  0  0  0  0  0
  129.3280  127.3060   64.7470 C   0  0  0  0  0  0  0  0  0  0  0  0
  130.0060  126.7810   63.6790 O   0  0  0  0  0  0  0  0  0  0  0  0
  129.3980  126.6000   65.9630 C   0  0  0  0  0  0  0  0  0  0  0  0
  130.0220  125.4500   66.3500 N   0  0  0  0  0  0  0  0  0  0  0  0
  129.7200  125.2460   67.6830 N   0  0  0  0  0  0  0  0  0  0  0  0
  128.9310  126.2550   68.1100 N   0  0  0  0  0  0  0  0  0  0  0  0
  128.4370  126.2790   69.4850 C   0  0  0  0  0  0  0  0  0  0  0  0
  129.3650  126.9960   70.4560 C   0  0  0  0  0  0  0  0  0  0  0  0
  130.0600  128.1400   70.0520 C   0  0  0  0  0  0  0  0  0  0  0  0
  130.9020  128.8030   70.9470 C   0  0  0  0  0  0  0  0  0  0  0  0
  131.0490  128.3290   72.2500 C   0  0  0  0  0  0  0  0  0  0  0  0
  130.3510  127.1930   72.6620 C   0  0  0  0  0  0  0  0  0  0  0  0
  130.5110  126.6200   74.2830 Cl  0  0  0  0  0  0  0  0  0  0  0  0
  129.5150  126.5250   71.7660 C   0  0  0  0  0  0  0  0  0  0  0  0
  128.6940  127.1330   67.0650 C   0  0  0  0  0  0  0  0  0  0  0  0
  127.9690  128.2540   67.0450 N   0  0  0  0  0  0  0  0  0  0  0  0
  125.6510  130.0060   65.5930 C   0  0  0  0  0  0  0  0  0  0  0  0
  124.8800  131.3330   65.3760 C   0  0  0  0  0  0  0  0  0  0  0  0
  126.8272  131.9585   61.7505 H   0  0  0  0  0  0  0  0  0  0  0  0
  128.1152  133.8574   61.3420 H   0  0  0  0  0  0  0  0  0  0  0  0
  128.3771  136.3265   61.5415 H   0  0  0  0  0  0  0  0  0  0  0  0
  126.4206  137.7345   62.1606 H   0  0  0  0  0  0  0  0  0  0  0  0
  124.2034  136.6907   62.5956 H   0  0  0  0  0  0  0  0  0  0  0  0
  123.9349  134.2215   62.3980 H   0  0  0  0  0  0  0  0  0  0  0  0
  123.3113  132.9273   60.6357 H   0  0  0  0  0  0  0  0  0  0  0  0
  122.3861  132.1115   58.4695 H   0  0  0  0  0  0  0  0  0  0  0  0
  123.7474  130.6060   57.0271 H   0  0  0  0  0  0  0  0  0  0  0  0
  126.0258  129.8972   57.7426 H   0  0  0  0  0  0  0  0  0  0  0  0
  126.9523  130.7067   59.9073 H   0  0  0  0  0  0  0  0  0  0  0  0
  127.2363  133.0986   63.6999 H   0  0  0  0  0  0  0  0  0  0  0  0
  126.8805  133.0718   65.4410 H   0  0  0  0  0  0  0  0  0  0  0  0
  127.7952  130.6992   63.6946 H   0  0  0  0  0  0  0  0  0  0  0  0
  128.7385  131.5370   65.0075 H   0  0  0  0  0  0  0  0  0  0  0  0
  127.3693  130.6871   66.7022 H   0  0  0  0  0  0  0  0  0  0  0  0
  130.4530  125.9580   63.8910 H   0  0  0  0  0  0  0  0  0  0  0  0
  127.4625  126.7891   69.4951 H   0  0  0  0  0  0  0  0  0  0  0  0
  128.3668  125.2335   69.8198 H   0  0  0  0  0  0  0  0  0  0  0  0
  129.9431  128.5188   69.0259 H   0  0  0  0  0  0  0  0  0  0  0  0
  131.4500  129.7003   70.6238 H   0  0  0  0  0  0  0  0  0  0  0  0
  131.7151  128.8504   72.9531 H   0  0  0  0  0  0  0  0  0  0  0  0
  128.9719  125.6251   72.0902 H   0  0  0  0  0  0  0  0  0  0  0  0
  125.4586  129.3455   64.7347 H   0  0  0  0  0  0  0  0  0  0  0  0
  125.2932  129.5707   66.5377 H   0  0  0  0  0  0  0  0  0  0  0  0
  123.8200  131.1251   65.1683 H   0  0  0  0  0  0  0  0  0  0  0  0
  124.9283  131.9679   66.2730 H   0  0  0  0  0  0  0  0  0  0  0  0
  1  2  2  0
  2  3  1  0
  3  4  1  0
  4  5  2  0
  5  6  1  0
  6  7  2  0
  7  8  1  0
  8  9  2  0
  3 10  1  0
 10 11  2  0
 11 12  1  0
 12 13  2  0
 13 14  1  0
 14 15  2  0
  2 16  1  0
 16 17  1  0
 17 18  1  0
 18 19  1  0
 19 20  1  0
 20 21  2  0
 21 22  1  0
 22 23  1  0
 22 24  2  0
 24 25  1  0
 25 26  2  0
 26 27  1  0
 27 28  1  0
 28 29  1  0
 29 30  2  0
 30 31  1  0
 31 32  2  0
 32 33  1  0
 33 34  1  0
 33 35  2  0
 27 36  1  0
 36 37  2  0
 19 38  1  0
 38 39  1  0
  9  4  1  0
 15 10  1  0
 39 16  1  0
 37 20  1  0
 36 24  1  0
 35 29  1  0
  3 40  1  0
  5 41  1  0
  6 42  1  0
  7 43  1  0
  8 44  1  0
  9 45  1  0
 11 46  1  0
 12 47  1  0
 13 48  1  0
 14 49  1  0
 15 50  1  0
 17 51  1  0
 17 52  1  0
 18 53  1  0
 18 54  1  0
 19 55  1  0
 23 56  1  0
 28 57  1  0
 28 58  1  0
 30 59  1  0
 31 60  1  0
 32 61  1  0
 35 62  1  0
 38 63  1  0
 38 64  1  0
 39 65  1  0
 39 66  1  0
M  END
>  <Binding energies>  (1) 
[-10.28]

>  <Ligand effiencies>  (1) 
[-0.257]

>  <Interactions>  (1) 
["V-B:HIS:456:CE1:9041, V-B:GLU:543:CD:9879, V-B:ILE:369:CB:8207, V-A:GLU:543:CD:4908, V-B:GLY:454:CA:9020, V-A:ALA:541:CB:4892, V-B:TRP:381:CZ2:8341, V-B:ILE:369:CD1:8210, V-A:GLU:543:CG:4907, V-B:PRO:482:CB:9297, V-B:PRO:482:CG:9298, V-B:LEU:475:CD1:9229, V-B:ILE:369:CG2:8208, V-B:TRP:381:CH2:8343, V-A:TYR:539:CE2:4876, V-A:TYR:539:CD2:4874, V-A:HIS:456:CE1:4069, V-A:GLU:543:C:4902, V-A:GLU:543:CB:4906, V-A:HIS:456:CD2:4067, V-B:GLU:543:CG:9878, V-B:GLU:543:CB:9877, H-B:GLY:454:N:9021, V-B:ASP:366:CB:8183, V-B:ASP:366:CA:8181, V-B:ASP:366:C:8179, V-B:TRP:381:CE2:8338"]

$$$$
RR27_Rahimova_2017-again1
     RDKit          3D

 66 71  0  0  0  0  0  0  0  0999 V2000
  127.5480  130.2560   61.7040 O   0  0  0  0  0  0  0  0  0  0  0  0
  127.2480  131.2250   62.4090 C   0  0  0  0  0  0  0  0  0  0  0  0
  128.1470  132.4960   62.3340 C   0  0  0  0  0  0  0  0  0  0  0  0
  127.3640  133.7480   61.8970 C   0  0  0  0  0  0  0  0  0  0  0  0
  127.8730  135.0440   62.0710 C   0  0  0  0  0  0  0  0  0  0  0  0
  127.1350  136.1510   61.6610 C   0  0  0  0  0  0  0  0  0  0  0  0
  125.8850  135.9700   61.0770 C   0  0  0  0  0  0  0  0  0  0  0  0
  125.3670  134.6920   60.8970 C   0  0  0  0  0  0  0  0  0  0  0  0
  126.1040  133.5840   61.3060 C   0  0  0  0  0  0  0  0  0  0  0  0
  129.4290  132.2500   61.5160 C   0  0  0  0  0  0  0  0  0  0  0  0
  130.6220  131.8420   62.1290 C   0  0  0  0  0  0  0  0  0  0  0  0
  131.7740  131.6460   61.3710 C   0  0  0  0  0  0  0  0  0  0  0  0
  131.7370  131.8550   59.9950 C   0  0  0  0  0  0  0  0  0  0  0  0
  130.5610  132.2620   59.3720 C   0  0  0  0  0  0  0  0  0  0  0  0
  129.4110  132.4650   60.1310 C   0  0  0  0  0  0  0  0  0  0  0  0
  126.0770  131.2550   63.1100 N   0  0  0  0  0  0  0  0  0  0  0  0
  125.7850  132.2290   64.1700 C   0  0  0  0  0  0  0  0  0  0  0  0
  126.3780  131.6810   65.4890 C   0  0  0  0  0  0  0  0  0  0  0  0
  126.1290  130.1620   65.7650 C   0  0  0  0  0  0  0  0  0  0  0  0
  127.1820  129.5270   66.6790 C   0  0  0  0  0  0  0  0  0  0  0  0
  127.7710  128.4230   66.3400 N   0  0  0  0  0  0  0  0  0  0  0  0
  128.6840  127.9480   67.2310 C   0  0  0  0  0  0  0  0  0  0  0  0
  129.0270  128.5260   68.4430 C   0  0  0  0  0  0  0  0  0  0  0  0
  129.9390  127.7950   69.0610 N   0  0  0  0  0  0  0  0  0  0  0  0
  130.2180  126.7020   68.2470 N   0  0  0  0  0  0  0  0  0  0  0  0
  129.4620  126.8230   67.1420 N   0  0  0  0  0  0  0  0  0  0  0  0
  129.5060  125.8150   66.0900 C   0  0  0  0  0  0  0  0  0  0  0  0
  130.8800  125.6660   65.4540 C   0  0  0  0  0  0  0  0  0  0  0  0
  131.0160  125.6950   64.0620 C   0  0  0  0  0  0  0  0  0  0  0  0
  132.2740  125.5490   63.4760 C   0  0  0  0  0  0  0  0  0  0  0  0
  133.4020  125.3760   64.2780 C   0  0  0  0  0  0  0  0  0  0  0  0
  133.2740  125.3510   65.6670 C   0  0  0  0  0  0  0  0  0  0  0  0
  134.6690  125.1330   66.6580 Cl  0  0  0  0  0  0  0  0  0  0  0  0
  132.0170  125.4980   66.2540 C   0  0  0  0  0  0  0  0  0  0  0  0
  128.3820  129.7760   68.8470 C   0  0  0  0  0  0  0  0  0  0  0  0
  128.5570  130.4330   69.8710 O   0  0  0  0  0  0  0  0  0  0  0  0
  127.4850  130.1690   67.8760 N   0  0  0  0  0  0  0  0  0  0  0  0
  125.8240  129.2790   64.5130 C   0  0  0  0  0  0  0  0  0  0  0  0
  125.2860  130.0260   63.2670 C   0  0  0  0  0  0  0  0  0  0  0  0
  128.4850  132.7126   63.3581 H   0  0  0  0  0  0  0  0  0  0  0  0
  128.8607  135.1861   62.5339 H   0  0  0  0  0  0  0  0  0  0  0  0
  127.5386  137.1651   61.7982 H   0  0  0  0  0  0  0  0  0  0  0  0
  125.3016  136.8452   60.7550 H   0  0  0  0  0  0  0  0  0  0  0  0
  124.3787  134.5571   60.4332 H   0  0  0  0  0  0  0  0  0  0  0  0
  125.6945  132.5729   61.1643 H   0  0  0  0  0  0  0  0  0  0  0  0
  130.6485  131.6755   63.2160 H   0  0  0  0  0  0  0  0  0  0  0  0
  132.7081  131.3278   61.8570 H   0  0  0  0  0  0  0  0  0  0  0  0
  132.6453  131.6970   59.3950 H   0  0  0  0  0  0  0  0  0  0  0  0
  130.5398  132.4228   58.2840 H   0  0  0  0  0  0  0  0  0  0  0  0
  128.4835  132.7959   59.6409 H   0  0  0  0  0  0  0  0  0  0  0  0
  126.2459  133.1976   63.9260 H   0  0  0  0  0  0  0  0  0  0  0  0
  124.6995  132.3775   64.2682 H   0  0  0  0  0  0  0  0  0  0  0  0
  127.4652  131.8464   65.4651 H   0  0  0  0  0  0  0  0  0  0  0  0
  125.8623  132.2210   66.2967 H   0  0  0  0  0  0  0  0  0  0  0  0
  125.1799  130.1742   66.3209 H   0  0  0  0  0  0  0  0  0  0  0  0
  129.2150  124.8464   66.5226 H   0  0  0  0  0  0  0  0  0  0  0  0
  128.8151  126.1409   65.2985 H   0  0  0  0  0  0  0  0  0  0  0  0
  130.1283  125.8334   63.4273 H   0  0  0  0  0  0  0  0  0  0  0  0
  132.3761  125.5704   62.3810 H   0  0  0  0  0  0  0  0  0  0  0  0
  134.3930  125.2592   63.8151 H   0  0  0  0  0  0  0  0  0  0  0  0
  131.9186  125.4819   67.3495 H   0  0  0  0  0  0  0  0  0  0  0  0
  126.9920  131.0260   68.0790 H   0  0  0  0  0  0  0  0  0  0  0  0
  126.7564  128.7718   64.2242 H   0  0  0  0  0  0  0  0  0  0  0  0
  125.0166  128.5984   64.8210 H   0  0  0  0  0  0  0  0  0  0  0  0
  125.3951  129.3930   62.3740 H   0  0  0  0  0  0  0  0  0  0  0  0
  124.2197  130.2659   63.3908 H   0  0  0  0  0  0  0  0  0  0  0  0
  1  2  2  0
  2  3  1  0
  3  4  1  0
  4  5  2  0
  5  6  1  0
  6  7  2  0
  7  8  1  0
  8  9  2  0
  3 10  1  0
 10 11  2  0
 11 12  1  0
 12 13  2  0
 13 14  1  0
 14 15  2  0
  2 16  1  0
 16 17  1  0
 17 18  1  0
 18 19  1  0
 19 20  1  0
 20 21  2  0
 21 22  1  0
 22 23  2  0
 23 24  1  0
 24 25  2  0
 25 26  1  0
 26 27  1  0
 27 28  1  0
 28 29  2  0
 29 30  1  0
 30 31  2  0
 31 32  1  0
 32 33  1  0
 32 34  2  0
 23 35  1  0
 35 36  2  0
 35 37  1  0
 19 38  1  0
 38 39  1  0
  9  4  1  0
 15 10  1  0
 39 16  1  0
 37 20  1  0
 26 22  1  0
 34 28  1  0
  3 40  1  0
  5 41  1  0
  6 42  1  0
  7 43  1  0
  8 44  1  0
  9 45  1  0
 11 46  1  0
 12 47  1  0
 13 48  1  0
 14 49  1  0
 15 50  1  0
 17 51  1  0
 17 52  1  0
 18 53  1  0
 18 54  1  0
 19 55  1  0
 27 56  1  0
 27 57  1  0
 29 58  1  0
 30 59  1  0
 31 60  1  0
 34 61  1  0
 37 62  1  0
 38 63  1  0
 38 64  1  0
 39 65  1  0
 39 66  1  0
M  END
>  <Binding energies>  (1) 
[-10.59]

>  <Ligand effiencies>  (1) 
[-0.26475]

>  <Interactions>  (1) 
["V-B:HIS:456:CE1:9041, V-A:ARG:545:CZ:4926, V-B:GLU:543:CD:9879, V-A:GLU:543:CD:4908, V-A:ALA:541:CB:4892, V-B:TRP:381:CZ2:8341, V-A:GLU:543:CG:4907, V-B:PRO:482:CB:9297, V-B:PRO:482:CG:9298, V-B:LEU:475:CD1:9229, V-B:TRP:381:CH2:8343, V-A:TYR:539:CE2:4876, V-A:GLY:453:CA:4043, V-A:TYR:539:CD2:4874, V-A:GLY:454:CA:4048, V-A:HIS:456:CE1:4069, V-A:GLU:543:CB:4906, V-A:ARG:545:CG:4922, V-B:GLU:543:CG:9878, V-B:GLU:543:CB:9877, V-B:TYR:484:CE1:9316, V-A:ALA:541:CA:4890, V-A:PRO:540:CB:4885, V-A:PRO:540:CA:4883, H-B:TYR:484:OH:9319, H-B:HIS:456:ND1:9038, V-B:ARG:545:CZ:9897, V-B:TYR:484:CZ:9318, V-A:TYR:539:C:4867, V-A:ARG:545:CD:4923, V-A:GLY:453:C:4041, V-A:PRO:540:N:4884, V-B:TRP:381:CZ3:8342, V-A:GLY:454:C:4046, V-A:ILE:455:C:4051"]

$$$$
RR28_Rahimova_2017
     RDKit          3D

 82 85  0  0  0  0  0  0  0  0999 V2000
  132.7310  119.8980   59.9330 C   0  0  0  0  0  0  0  0  0  0  0  0
  131.7230  120.6020   60.8360 C   0  0  0  0  0  0  0  0  0  0  0  0
  130.9950  119.9350   61.5680 O   0  0  0  0  0  0  0  0  0  0  0  0
  131.6980  121.9480   60.7670 N   0  0  0  0  0  0  0  0  0  0  0  0
  130.8280  122.8870   61.5120 C   0  0  0  0  0  0  0  0  0  0  0  0
  131.6680  123.5250   62.6550 C   0  0  0  0  0  0  0  0  0  0  0  0
  131.1810  123.4860   63.9710 C   0  0  0  0  0  0  0  0  0  0  0  0
  131.9030  124.0490   65.0180 C   0  0  0  0  0  0  0  0  0  0  0  0
  133.1310  124.6670   64.7740 C   0  0  0  0  0  0  0  0  0  0  0  0
  133.9080  125.2850   65.9360 C   0  0  0  0  0  0  0  0  0  0  0  0
  134.2670  124.3760   66.8450 F   0  0  0  0  0  0  0  0  0  0  0  0
  135.0140  125.8800   65.4890 F   0  0  0  0  0  0  0  0  0  0  0  0
  133.1440  126.1970   66.5380 F   0  0  0  0  0  0  0  0  0  0  0  0
  133.6270  124.7140   63.4680 C   0  0  0  0  0  0  0  0  0  0  0  0
  132.9030  124.1500   62.4210 C   0  0  0  0  0  0  0  0  0  0  0  0
  129.5310  122.1570   62.0120 C   0  0  0  0  0  0  0  0  0  0  0  0
  128.6060  121.6900   60.8590 C   0  0  0  0  0  0  0  0  0  0  0  0
  128.2500  122.8980   60.0970 N   0  0  0  0  0  0  0  0  0  0  0  0
  127.1070  123.5790   60.3810 C   0  0  0  0  0  0  0  0  0  0  0  0
  126.2550  123.1320   61.1530 O   0  0  0  0  0  0  0  0  0  0  0  0
  126.7890  124.8710   59.5910 C   0  0  0  0  0  0  0  0  0  0  0  0
  126.3750  126.1030   60.4420 C   0  0  0  0  0  0  0  0  0  0  0  0
  127.5500  126.9200   61.0290 C   0  0  0  0  0  0  0  0  0  0  0  0
  128.5330  126.3010   61.4470 O   0  0  0  0  0  0  0  0  0  0  0  0
  127.5360  128.2800   60.9450 N   0  0  0  0  0  0  0  0  0  0  0  0
  126.3090  129.0650   60.7610 C   0  0  0  0  0  0  0  0  0  0  0  0
  125.7110  129.2860   62.1680 C   0  0  0  0  0  0  0  0  0  0  0  0
  126.6780  129.9800   63.1900 C   0  0  0  0  0  0  0  0  0  0  0  0
  126.1640  129.7730   64.5600 N   0  0  0  0  0  0  0  0  0  0  0  0
  124.8930  129.8850   64.9970 C   0  0  0  0  0  0  0  0  0  0  0  0
  124.6650  129.6280   66.4830 C   0  0  0  0  0  0  0  0  0  0  0  0
  123.9400  130.1770   64.2770 O   0  0  0  0  0  0  0  0  0  0  0  0
  126.6430  131.5150   62.8990 C   0  0  0  0  0  0  0  0  0  0  0  0
  125.4450  132.2350   62.7550 C   0  0  0  0  0  0  0  0  0  0  0  0
  125.4580  133.6040   62.4970 C   0  0  0  0  0  0  0  0  0  0  0  0
  126.6690  134.2870   62.3740 C   0  0  0  0  0  0  0  0  0  0  0  0
  126.7000  135.7890   62.0950 C   0  0  0  0  0  0  0  0  0  0  0  0
  125.4880  136.2280   61.7490 F   0  0  0  0  0  0  0  0  0  0  0  0
  127.0860  136.4310   63.1970 F   0  0  0  0  0  0  0  0  0  0  0  0
  127.5450  136.1010   61.1110 F   0  0  0  0  0  0  0  0  0  0  0  0
  127.8680  133.5840   62.5060 C   0  0  0  0  0  0  0  0  0  0  0  0
  127.8520  132.2170   62.7640 C   0  0  0  0  0  0  0  0  0  0  0  0
  128.1180  129.3520   63.0420 C   0  0  0  0  0  0  0  0  0  0  0  0
  128.5930  129.0690   61.5910 C   0  0  0  0  0  0  0  0  0  0  0  0
  129.3990  123.5230   59.4260 C   0  0  0  0  0  0  0  0  0  0  0  0
  130.3600  124.0180   60.5390 C   0  0  0  0  0  0  0  0  0  0  0  0
  133.4766  119.3773   60.5518 H   0  0  0  0  0  0  0  0  0  0  0  0
  132.2074  119.1682   59.2980 H   0  0  0  0  0  0  0  0  0  0  0  0
  133.2359  120.6409   59.2980 H   0  0  0  0  0  0  0  0  0  0  0  0
  132.3290  122.3860   60.1130 H   0  0  0  0  0  0  0  0  0  0  0  0
  130.2144  123.0032   64.1772 H   0  0  0  0  0  0  0  0  0  0  0  0
  131.5049  124.0072   66.0426 H   0  0  0  0  0  0  0  0  0  0  0  0
  134.5937  125.1988   63.2665 H   0  0  0  0  0  0  0  0  0  0  0  0
  133.3038  124.1947   61.3976 H   0  0  0  0  0  0  0  0  0  0  0  0
  129.8305  121.2755   62.5979 H   0  0  0  0  0  0  0  0  0  0  0  0
  128.9614  122.8809   62.6133 H   0  0  0  0  0  0  0  0  0  0  0  0
  129.1354  120.9746   60.2125 H   0  0  0  0  0  0  0  0  0  0  0  0
  127.7094  121.1843   61.2468 H   0  0  0  0  0  0  0  0  0  0  0  0
  127.6866  125.1444   59.0169 H   0  0  0  0  0  0  0  0  0  0  0  0
  125.9138  124.6315   58.9692 H   0  0  0  0  0  0  0  0  0  0  0  0
  125.7792  126.7728   59.8045 H   0  0  0  0  0  0  0  0  0  0  0  0
  125.8171  125.7068   61.3032 H   0  0  0  0  0  0  0  0  0  0  0  0
  126.5439  130.0320   60.2923 H   0  0  0  0  0  0  0  0  0  0  0  0
  125.5976  128.5412   60.1055 H   0  0  0  0  0  0  0  0  0  0  0  0
  124.8140  129.9142   62.0642 H   0  0  0  0  0  0  0  0  0  0  0  0
  125.4951  128.2868   62.5741 H   0  0  0  0  0  0  0  0  0  0  0  0
  126.8690  129.5590   65.2490 H   0  0  0  0  0  0  0  0  0  0  0  0
  125.2808  130.3221   67.0738 H   0  0  0  0  0  0  0  0  0  0  0  0
  123.6030  129.7843   66.7234 H   0  0  0  0  0  0  0  0  0  0  0  0
  124.9468  128.5922   66.7234 H   0  0  0  0  0  0  0  0  0  0  0  0
  124.4828  131.7100   62.8473 H   0  0  0  0  0  0  0  0  0  0  0  0
  124.5089  134.1495   62.3897 H   0  0  0  0  0  0  0  0  0  0  0  0
  128.8276  134.1122   62.4058 H   0  0  0  0  0  0  0  0  0  0  0  0
  128.8043  131.6757   62.8642 H   0  0  0  0  0  0  0  0  0  0  0  0
  128.8366  130.0465   63.5016 H   0  0  0  0  0  0  0  0  0  0  0  0
  128.0639  128.3690   63.5327 H   0  0  0  0  0  0  0  0  0  0  0  0
  128.7434  130.0151   61.0504 H   0  0  0  0  0  0  0  0  0  0  0  0
  129.5493  128.5255   61.5876 H   0  0  0  0  0  0  0  0  0  0  0  0
  129.9088  122.7876   58.7863 H   0  0  0  0  0  0  0  0  0  0  0  0
  129.0743  124.3580   58.7877 H   0  0  0  0  0  0  0  0  0  0  0  0
  131.2491  124.4554   60.0613 H   0  0  0  0  0  0  0  0  0  0  0  0
  129.8044  124.7517   61.1415 H   0  0  0  0  0  0  0  0  0  0  0  0
  1  2  1  0
  2  3  2  0
  2  4  1  0
  4  5  1  0
  5  6  1  0
  6  7  2  0
  7  8  1  0
  8  9  2  0
  9 10  1  0
 10 11  1  0
 10 12  1  0
 10 13  1  0
  9 14  1  0
 14 15  2  0
  5 16  1  0
 16 17  1  0
 17 18  1  0
 18 19  1  0
 19 20  2  0
 19 21  1  0
 21 22  1  0
 22 23  1  0
 23 24  2  0
 23 25  1  0
 25 26  1  0
 26 27  1  0
 27 28  1  0
 28 29  1  0
 29 30  1  0
 30 31  1  0
 30 32  2  0
 28 33  1  0
 33 34  2  0
 34 35  1  0
 35 36  2  0
 36 37  1  0
 37 38  1  0
 37 39  1  0
 37 40  1  0
 36 41  1  0
 41 42  2  0
 28 43  1  0
 43 44  1  0
 18 45  1  0
 45 46  1  0
 46  5  1  0
 15  6  1  0
 44 25  1  0
 42 33  1  0
  1 47  1  0
  1 48  1  0
  1 49  1  0
  4 50  1  0
  7 51  1  0
  8 52  1  0
 14 53  1  0
 15 54  1  0
 16 55  1  0
 16 56  1  0
 17 57  1  0
 17 58  1  0
 21 59  1  0
 21 60  1  0
 22 61  1  0
 22 62  1  0
 26 63  1  0
 26 64  1  0
 27 65  1  0
 27 66  1  0
 29 67  1  0
 31 68  1  0
 31 69  1  0
 31 70  1  0
 34 71  1  0
 35 72  1  0
 41 73  1  0
 42 74  1  0
 43 75  1  0
 43 76  1  0
 44 77  1  0
 44 78  1  0
 45 79  1  0
 45 80  1  0
 46 81  1  0
 46 82  1  0
M  END
>  <Binding energies>  (1) 
[-8.51]

>  <Ligand effiencies>  (1) 
[-0.17729166666666665]

>  <Interactions>  (1) 
["V-B:ASP:366:CG:8184, V-A:ARG:545:CZ:4926, V-A:LEU:475:CD2:4258, V-A:TYR:484:CZ:4346, V-A:ALA:541:CB:4892, V-B:TRP:381:CZ2:8341, V-B:PRO:482:CB:9297, V-B:PRO:482:CG:9298, V-B:LEU:475:CD1:9229, V-B:TRP:381:CH2:8343, V-A:GLY:453:CA:4043, V-A:TYR:539:CD2:4874, V-A:GLY:454:CA:4048, V-A:HIS:456:CE1:4069, V-B:TYR:539:CD2:9845, V-A:ILE:369:CG2:3236, V-B:TYR:539:CE2:9847, V-B:ALA:541:CB:9863, V-A:ARG:545:CG:4922, H-B:GLY:454:N:9021, H-B:ARG:545:NH2:9899, H-B:GLU:543:OE1:9880, V-B:TYR:539:CZ:9848, V-B:PRO:540:C:9852, V-B:ALA:541:CA:9861, V-A:TRP:381:CZ2:3369, V-B:PRO:540:CA:9854, V-A:TRP:381:CH2:3371, H-B:ARG:545:NH1:9898, V-B:ARG:545:CZ:9897, H-B:ALA:541:N:9862, V-A:TYR:539:C:4867, V-B:ARG:545:CG:9893, V-A:ARG:545:CD:4923, V-B:ARG:545:CD:9894, V-A:GLY:453:C:4041, V-B:TRP:381:CZ3:8342, V-A:GLY:454:C:4046, V-A:ILE:455:C:4051, V-A:ILE:455:CA:4053"]

$$$$
RR29_Rahimova_2017
     RDKit          3D

 35 36  0  0  0  0  0  0  0  0999 V2000
  129.7500  124.4660   67.4520 C   0  0  0  0  0  0  0  0  0  0  0  0
  129.9060  125.7820   66.7040 C   0  0  0  0  0  0  0  0  0  0  0  0
  129.3310  126.9880   67.4810 C   0  0  0  0  0  0  0  0  0  0  0  0
  128.4430  126.5370   68.6590 C   0  0  0  0  0  0  0  0  0  0  0  0
  129.0440  126.9010   70.0080 C   0  0  0  0  0  0  0  0  0  0  0  0
  130.0190  127.9150   70.0920 C   0  0  0  0  0  0  0  0  0  0  0  0
  130.5860  128.2680   71.3250 C   0  0  0  0  0  0  0  0  0  0  0  0
  130.1590  127.5730   72.4510 C   0  0  0  0  0  0  0  0  0  0  0  0
  129.2150  126.5880   72.3750 C   0  0  0  0  0  0  0  0  0  0  0  0
  128.6280  126.2240   71.1670 C   0  0  0  0  0  0  0  0  0  0  0  0
  128.9650  126.1070   73.6210 O   0  0  0  0  0  0  0  0  0  0  0  0
  129.9420  126.6800   74.4510 C   0  0  0  0  0  0  0  0  0  0  0  0
  130.5290  127.7420   73.7480 O   0  0  0  0  0  0  0  0  0  0  0  0
  130.4630  125.7710   65.5510 N   0  0  0  0  0  0  0  0  0  0  0  0
  130.5280  126.9460   64.8350 N   0  0  0  0  0  0  0  0  0  0  0  0
  129.6660  127.2830   63.8620 C   0  0  0  0  0  0  0  0  0  0  0  0
  128.6280  126.5400   63.4730 N   0  0  0  0  0  0  0  0  0  0  0  0
  129.8560  128.4380   63.2420 N   0  0  0  0  0  0  0  0  0  0  0  0
  129.7724  124.6551   68.5354 H   0  0  0  0  0  0  0  0  0  0  0  0
  128.7905  124.0015   67.1807 H   0  0  0  0  0  0  0  0  0  0  0  0
  130.5743  123.7901   67.1807 H   0  0  0  0  0  0  0  0  0  0  0  0
  130.1643  127.5897   67.8728 H   0  0  0  0  0  0  0  0  0  0  0  0
  128.7104  127.5769   66.7896 H   0  0  0  0  0  0  0  0  0  0  0  0
  127.4602  127.0225   68.5671 H   0  0  0  0  0  0  0  0  0  0  0  0
  128.3559  125.4414   68.6143 H   0  0  0  0  0  0  0  0  0  0  0  0
  130.3396  128.4366   69.1781 H   0  0  0  0  0  0  0  0  0  0  0  0
  131.3405  129.0651   71.3986 H   0  0  0  0  0  0  0  0  0  0  0  0
  127.8645  125.4334   71.1209 H   0  0  0  0  0  0  0  0  0  0  0  0
  129.4764  127.0541   75.3747 H   0  0  0  0  0  0  0  0  0  0  0  0
  130.7014  125.9328   74.7249 H   0  0  0  0  0  0  0  0  0  0  0  0
  131.2950  127.5670   65.0530 H   0  0  0  0  0  0  0  0  0  0  0  0
  127.8560  126.9650   62.9800 H   0  0  0  0  0  0  0  0  0  0  0  0
  128.6170  125.5530   63.6850 H   0  0  0  0  0  0  0  0  0  0  0  0
  130.7660  128.8760   63.2580 H   0  0  0  0  0  0  0  0  0  0  0  0
  129.0920  128.8750   62.7480 H   0  0  0  0  0  0  0  0  0  0  0  0
  1  2  1  0
  2  3  1  0
  3  4  1  0
  4  5  1  0
  5  6  2  0
  6  7  1  0
  7  8  2  0
  8  9  1  0
  9 10  2  0
  9 11  1  0
 11 12  1  0
 12 13  1  0
  2 14  2  0
 14 15  1  0
 15 16  1  0
 16 17  1  0
 16 18  2  0
 10  5  1  0
 13  8  1  0
  1 19  1  0
  1 20  1  0
  1 21  1  0
  3 22  1  0
  3 23  1  0
  4 24  1  0
  4 25  1  0
  6 26  1  0
  7 27  1  0
 10 28  1  0
 12 29  1  0
 12 30  1  0
 15 31  1  0
 17 32  1  0
 17 33  1  0
 18 34  1  0
 18 35  1  0
M  CHG  1  18   1
M  END
>  <Binding energies>  (1) 
[-7.44]

>  <Ligand effiencies>  (1) 
[-0.3234782608695652]

>  <Interactions>  (1) 
["V-B:HIS:456:CE1:9041, V-B:GLU:543:CD:9879, V-A:TYR:484:CZ:4346, V-A:GLU:543:CD:4908, V-A:HIS:456:CE1:4069, V-A:GLU:543:CB:4906, V-B:GLU:543:CG:9878, V-B:GLU:543:CB:9877, H-B:GLU:543:OE2:9881, H-B:LYS:547:NZ:9922, H-A:LYS:547:NZ:4951, H-A:GLU:543:OE1:4909, H-A:GLU:543:OE2:4910, V-A:TYR:484:CE1:4344, V-B:GLU:543:CA:9875"]

$$$$
RR29_Rahimova_2017-again1
     RDKit          3D

 34 35  0  0  0  0  0  0  0  0999 V2000
  123.7680  124.9420   57.7350 C   0  0  0  0  0  0  0  0  0  0  0  0
  124.3210  124.1310   58.8970 C   0  0  0  0  0  0  0  0  0  0  0  0
  125.5420  123.2700   58.5170 C   0  0  0  0  0  0  0  0  0  0  0  0
  126.8190  124.1260   58.3840 C   0  0  0  0  0  0  0  0  0  0  0  0
  127.9990  123.5210   59.1300 C   0  0  0  0  0  0  0  0  0  0  0  0
  129.2090  124.2360   59.2280 C   0  0  0  0  0  0  0  0  0  0  0  0
  130.3080  123.6980   59.9110 C   0  0  0  0  0  0  0  0  0  0  0  0
  130.1610  122.4360   60.4760 C   0  0  0  0  0  0  0  0  0  0  0  0
  128.9890  121.7380   60.3820 C   0  0  0  0  0  0  0  0  0  0  0  0
  127.8800  122.2510   59.7190 C   0  0  0  0  0  0  0  0  0  0  0  0
  129.1150  120.5600   61.0470 O   0  0  0  0  0  0  0  0  0  0  0  0
  130.4740  120.4530   61.3750 C   0  0  0  0  0  0  0  0  0  0  0  0
  131.0550  121.7180   61.2040 O   0  0  0  0  0  0  0  0  0  0  0  0
  123.7470  124.2070   60.0450 N   0  0  0  0  0  0  0  0  0  0  0  0
  124.2320  123.4790   60.9990 N   0  0  0  0  0  0  0  0  0  0  0  0
  125.0940  124.0240   61.7770 C   0  0  0  0  0  0  0  0  0  0  0  0
  125.6030  125.3510   61.7280 N   0  0  0  0  0  0  0  0  0  0  0  0
  125.6710  123.3070   62.8470 N   0  0  0  0  0  0  0  0  0  0  0  0
  123.1884  125.7921   58.1242 H   0  0  0  0  0  0  0  0  0  0  0  0
  124.5999  125.3162   57.1203 H   0  0  0  0  0  0  0  0  0  0  0  0
  123.1158  124.3042   57.1203 H   0  0  0  0  0  0  0  0  0  0  0  0
  125.7004  122.5107   59.2969 H   0  0  0  0  0  0  0  0  0  0  0  0
  125.3411  122.7969   57.5445 H   0  0  0  0  0  0  0  0  0  0  0  0
  127.0793  124.2100   57.3186 H   0  0  0  0  0  0  0  0  0  0  0  0
  126.6111  125.1119   58.8253 H   0  0  0  0  0  0  0  0  0  0  0  0
  129.2921  125.2292   58.7625 H   0  0  0  0  0  0  0  0  0  0  0  0
  131.2531  124.2541   59.9971 H   0  0  0  0  0  0  0  0  0  0  0  0
  126.9408  121.6817   59.6576 H   0  0  0  0  0  0  0  0  0  0  0  0
  130.5826  120.1291   62.4206 H   0  0  0  0  0  0  0  0  0  0  0  0
  130.9686  119.7116   60.7303 H   0  0  0  0  0  0  0  0  0  0  0  0
  125.3090  126.0120   61.0230 H   0  0  0  0  0  0  0  0  0  0  0  0
  126.2880  125.6940   62.3840 H   0  0  0  0  0  0  0  0  0  0  0  0
  125.4340  122.3440   63.0380 H   0  0  0  0  0  0  0  0  0  0  0  0
  126.3530  123.7150   63.4680 H   0  0  0  0  0  0  0  0  0  0  0  0
  1  2  1  0
  2  3  1  0
  3  4  1  0
  4  5  1  0
  5  6  2  0
  6  7  1  0
  7  8  2  0
  8  9  1  0
  9 10  2  0
  9 11  1  0
 11 12  1  0
 12 13  1  0
  2 14  2  0
 14 15  1  0
 15 16  2  0
 16 17  1  0
 16 18  1  0
 10  5  1  0
 13  8  1  0
  1 19  1  0
  1 20  1  0
  1 21  1  0
  3 22  1  0
  3 23  1  0
  4 24  1  0
  4 25  1  0
  6 26  1  0
  7 27  1  0
 10 28  1  0
 12 29  1  0
 12 30  1  0
 17 31  1  0
 17 32  1  0
 18 33  1  0
 18 34  1  0
M  END
>  <Binding energies>  (1) 
[-6.41]

>  <Ligand effiencies>  (1) 
[-0.2913636363636364]

>  <Interactions>  (1) 
["V-B:ASP:366:CG:8184, V-B:GLU:543:CD:9879, V-A:LEU:475:CD2:4258, V-B:TYR:539:CD2:9845, V-B:TYR:539:CE2:9847, V-B:ALA:541:CB:9863, V-B:GLU:543:CG:9878, H-B:GLU:543:OE2:9881, V-B:ASP:366:CB:8183, V-B:PRO:540:C:9852, V-B:ALA:541:CA:9861, V-B:PRO:540:N:9855, V-B:TYR:539:C:9838, V-B:PRO:540:CA:9854, V-B:ARG:545:CZ:9897, H-B:ALA:541:N:9862, H-B:ASP:366:OD2:8186, V-B:PRO:540:CB:9856, V-B:LEU:363:CA:8156, V-B:ASN:362:CB:8147, V-B:ALA:541:C:9859, H-B:ALA:541:O:9860, V-B:LEU:363:CD1:8160, V-B:TYR:531:CE2:9764, V-B:TYR:531:CZ:9765, H-B:LEU:363:N:8157"]

$$$$
RR2_Rahimova_2017
     RDKit          3D

 76 80  0  0  0  0  0  0  0  0999 V2000
  133.1470  124.7090   58.4970 C   0  0  0  0  0  0  0  0  0  0  0  0
  132.2730  125.5470   57.7490 O   0  0  0  0  0  0  0  0  0  0  0  0
  131.0820  125.9580   58.3190 C   0  0  0  0  0  0  0  0  0  0  0  0
  129.8320  125.3880   58.0380 C   0  0  0  0  0  0  0  0  0  0  0  0
  128.6840  125.8720   58.6590 C   0  0  0  0  0  0  0  0  0  0  0  0
  128.7560  126.9360   59.5690 C   0  0  0  0  0  0  0  0  0  0  0  0
  127.4890  127.4490   60.2260 C   0  0  0  0  0  0  0  0  0  0  0  0
  126.7510  126.6750   60.8460 O   0  0  0  0  0  0  0  0  0  0  0  0
  127.2370  128.7700   60.0700 N   0  0  0  0  0  0  0  0  0  0  0  0
  126.0420  129.2730   60.5730 N   0  0  0  0  0  0  0  0  0  0  0  0
  125.5480  130.4050   60.0310 C   0  0  0  0  0  0  0  0  0  0  0  0
  126.1580  131.1340   59.2430 O   0  0  0  0  0  0  0  0  0  0  0  0
  124.1110  130.7600   60.4350 C   0  0  0  0  0  0  0  0  0  0  0  0
  123.9670  131.9930   61.7800 S   0  0  0  0  0  0  0  0  0  0  0  0
  124.4270  131.0100   63.1740 C   0  0  0  0  0  0  0  0  0  0  0  0
  123.5530  130.4200   63.9510 N   0  0  0  0  0  0  0  0  0  0  0  0
  124.2560  129.8020   64.9760 N   0  0  0  0  0  0  0  0  0  0  0  0
  125.5320  130.0160   64.7630 C   0  0  0  0  0  0  0  0  0  0  0  0
  126.6130  129.4900   65.6520 C   0  0  0  0  0  0  0  0  0  0  0  0
  126.6850  129.9110   66.9820 C   0  0  0  0  0  0  0  0  0  0  0  0
  127.6920  129.4320   67.8140 C   0  0  0  0  0  0  0  0  0  0  0  0
  128.6280  128.5120   67.3280 C   0  0  0  0  0  0  0  0  0  0  0  0
  129.6700  128.0040   68.1180 N   0  0  0  0  0  0  0  0  0  0  0  0
  130.0500  128.5520   69.7660 S   0  0  0  0  0  0  0  0  0  0  0  0
  129.0930  129.6230   70.0660 O   0  0  0  0  0  0  0  0  0  0  0  0
  131.4960  128.7910   69.8450 O   0  0  0  0  0  0  0  0  0  0  0  0
  129.6290  127.1720   70.8270 C   0  0  0  0  0  0  0  0  0  0  0  0
  128.6740  126.2330   70.4290 C   0  0  0  0  0  0  0  0  0  0  0  0
  128.3500  125.1770   71.2750 C   0  0  0  0  0  0  0  0  0  0  0  0
  128.9820  125.0550   72.5150 C   0  0  0  0  0  0  0  0  0  0  0  0
  128.6160  123.9110   73.4420 C   0  0  0  0  0  0  0  0  0  0  0  0
  129.9330  125.9980   72.9120 C   0  0  0  0  0  0  0  0  0  0  0  0
  130.2580  127.0550   72.0680 C   0  0  0  0  0  0  0  0  0  0  0  0
  128.5530  128.0900   66.0000 C   0  0  0  0  0  0  0  0  0  0  0  0
  127.5500  128.5730   65.1650 C   0  0  0  0  0  0  0  0  0  0  0  0
  125.7140  130.7880   63.6270 N   0  0  0  0  0  0  0  0  0  0  0  0
  126.9210  131.2740   63.0820 C   0  0  0  0  0  0  0  0  0  0  0  0
  127.9390  130.3840   62.7400 C   0  0  0  0  0  0  0  0  0  0  0  0
  129.1250  130.8700   62.1970 C   0  0  0  0  0  0  0  0  0  0  0  0
  129.3050  132.2390   61.9940 C   0  0  0  0  0  0  0  0  0  0  0  0
  130.5160  132.6260   61.4520 O   0  0  0  0  0  0  0  0  0  0  0  0
  131.6640  131.8090   61.6610 C   0  0  0  0  0  0  0  0  0  0  0  0
  128.2740  133.1280   62.3410 C   0  0  0  0  0  0  0  0  0  0  0  0
  127.0860  132.6470   62.8820 C   0  0  0  0  0  0  0  0  0  0  0  0
  130.0110  127.4970   59.8490 C   0  0  0  0  0  0  0  0  0  0  0  0
  131.1580  127.0110   59.2280 C   0  0  0  0  0  0  0  0  0  0  0  0
  132.9787  124.8703   59.5720 H   0  0  0  0  0  0  0  0  0  0  0  0
  132.9473  123.6562   58.2486 H   0  0  0  0  0  0  0  0  0  0  0  0
  134.1905  124.9528   58.2486 H   0  0  0  0  0  0  0  0  0  0  0  0
  129.7583  124.5547   57.3237 H   0  0  0  0  0  0  0  0  0  0  0  0
  127.7095  125.4145   58.4332 H   0  0  0  0  0  0  0  0  0  0  0  0
  127.5360  129.2700   59.2460 H   0  0  0  0  0  0  0  0  0  0  0  0
  125.4660  128.5700   61.0140 H   0  0  0  0  0  0  0  0  0  0  0  0
  123.5965  131.1602   59.5489 H   0  0  0  0  0  0  0  0  0  0  0  0
  123.6620  129.8323   60.8194 H   0  0  0  0  0  0  0  0  0  0  0  0
  125.9434  130.6233   67.3727 H   0  0  0  0  0  0  0  0  0  0  0  0
  127.7527  129.7773   68.8566 H   0  0  0  0  0  0  0  0  0  0  0  0
  130.2290  127.2560   67.7340 H   0  0  0  0  0  0  0  0  0  0  0  0
  128.1802  126.3282   69.4507 H   0  0  0  0  0  0  0  0  0  0  0  0
  127.5958  124.4377   70.9674 H   0  0  0  0  0  0  0  0  0  0  0  0
  128.7206  124.2380   74.4870 H   0  0  0  0  0  0  0  0  0  0  0  0
  127.5756  123.6065   73.2555 H   0  0  0  0  0  0  0  0  0  0  0  0
  129.2864  123.0591   73.2555 H   0  0  0  0  0  0  0  0  0  0  0  0
  130.4247  125.9048   73.8916 H   0  0  0  0  0  0  0  0  0  0  0  0
  131.0088  127.7969   72.3776 H   0  0  0  0  0  0  0  0  0  0  0  0
  129.2903  127.3721   65.6113 H   0  0  0  0  0  0  0  0  0  0  0  0
  127.4940  128.2330   64.1203 H   0  0  0  0  0  0  0  0  0  0  0  0
  127.8053  129.3037   62.8985 H   0  0  0  0  0  0  0  0  0  0  0  0
  129.9277  130.1686   61.9254 H   0  0  0  0  0  0  0  0  0  0  0  0
  131.8355  131.6869   62.7407 H   0  0  0  0  0  0  0  0  0  0  0  0
  131.5007  130.8228   61.2019 H   0  0  0  0  0  0  0  0  0  0  0  0
  132.5423  132.2863   61.2019 H   0  0  0  0  0  0  0  0  0  0  0  0
  128.4066  134.2087   62.1843 H   0  0  0  0  0  0  0  0  0  0  0  0
  126.2796  133.3450   63.1513 H   0  0  0  0  0  0  0  0  0  0  0  0
  130.0893  128.3280   60.5654 H   0  0  0  0  0  0  0  0  0  0  0  0
  132.1343  127.4629   59.4573 H   0  0  0  0  0  0  0  0  0  0  0  0
  1  2  1  0
  2  3  1  0
  3  4  2  0
  4  5  1  0
  5  6  2  0
  6  7  1  0
  7  8  2  0
  7  9  1  0
  9 10  1  0
 10 11  1  0
 11 12  2  0
 11 13  1  0
 13 14  1  0
 14 15  1  0
 15 16  2  0
 16 17  1  0
 17 18  2  0
 18 19  1  0
 19 20  2  0
 20 21  1  0
 21 22  2  0
 22 23  1  0
 23 24  1  0
 24 25  2  0
 24 26  2  0
 24 27  1  0
 27 28  2  0
 28 29  1  0
 29 30  2  0
 30 31  1  0
 30 32  1  0
 32 33  2  0
 22 34  1  0
 34 35  2  0
 18 36  1  0
 36 37  1  0
 37 38  2  0
 38 39  1  0
 39 40  2  0
 40 41  1  0
 41 42  1  0
 40 43  1  0
 43 44  2  0
  6 45  1  0
 45 46  2  0
 46  3  1  0
 36 15  1  0
 44 37  1  0
 35 19  1  0
 33 27  1  0
  1 47  1  0
  1 48  1  0
  1 49  1  0
  4 50  1  0
  5 51  1  0
  9 52  1  0
 10 53  1  0
 13 54  1  0
 13 55  1  0
 20 56  1  0
 21 57  1  0
 23 58  1  0
 28 59  1  0
 29 60  1  0
 31 61  1  0
 31 62  1  0
 31 63  1  0
 32 64  1  0
 33 65  1  0
 34 66  1  0
 35 67  1  0
 38 68  1  0
 39 69  1  0
 42 70  1  0
 42 71  1  0
 42 72  1  0
 43 73  1  0
 44 74  1  0
 45 75  1  0
 46 76  1  0
M  END
>  <Binding energies>  (1) 
[-9.08]

>  <Ligand effiencies>  (1) 
[-0.1853061224489796]

>  <Interactions>  (1) 
["V-B:ASP:366:CG:8184, V-B:HIS:456:CE1:9041, V-B:GLU:543:CD:9879, V-A:ASP:366:CG:3212, V-A:GLU:543:CD:4908, V-A:ALA:541:CB:4892, V-A:GLU:543:CG:4907, V-A:HIS:456:CE1:4069, V-A:HIS:456:CG:4065, V-A:ILE:369:CG2:3236, V-A:GLU:543:CB:4906, V-A:ILE:369:CB:3235, V-A:ASP:366:CB:3211, V-A:ASP:366:CA:3209, V-A:HIS:456:CD2:4067, V-B:GLU:543:C:9873, H-B:GLY:454:N:9021, V-B:ASP:366:CB:8183, H-B:ARG:545:NH2:9899, V-A:PRO:540:CA:4883, V-B:LYS:547:CE:9921, V-B:TYR:539:CZ:9848, H-B:ARG:545:NE:9895, H-B:ARG:545:NH1:9898, H-B:ASP:366:OD1:8185, H-B:ASP:366:OD2:8186, V-B:TYR:484:CZ:9318, H-A:ALA:541:N:4891, H-A:GLU:543:OE2:4910, V-B:ASP:366:CA:8181, V-A:ASP:366:C:3207, H-B:TYR:539:OH:9849, H-A:TYR:531:OH:4795"]

$$$$
RR30_Rahimova_2017
     RDKit          3D

 29 30  0  0  0  0  0  0  0  0999 V2000
  127.6300  130.6570   57.4080 C   0  0  0  0  0  0  0  0  0  0  0  0
  126.2000  130.1130   57.2780 C   0  0  0  0  0  0  0  0  0  0  0  0
  125.1780  131.0280   57.9170 C   0  0  0  0  0  0  0  0  0  0  0  0
  124.0620  131.4810   57.4010 N   0  0  0  0  0  0  0  0  0  0  0  0
  123.4890  132.2880   58.3810 N   0  0  0  0  0  0  0  0  0  0  0  0
  124.3110  132.2610   59.3990 C   0  0  0  0  0  0  0  0  0  0  0  0
  124.1290  133.0790   60.9510 S   0  0  0  0  0  0  0  0  0  0  0  0
  125.6290  134.1100   60.9400 C   0  0  0  0  0  0  0  0  0  0  0  0
  126.8960  133.2910   61.2030 C   0  0  0  0  0  0  0  0  0  0  0  0
  126.8540  132.3600   62.0100 O   0  0  0  0  0  0  0  0  0  0  0  0
  128.0040  133.6850   60.5350 N   0  0  0  0  0  0  0  0  0  0  0  0
  129.2610  133.1050   60.6120 C   0  0  0  0  0  0  0  0  0  0  0  0
  129.9860  132.8710   61.6820 N   0  0  0  0  0  0  0  0  0  0  0  0
  131.2030  132.2740   61.3770 N   0  0  0  0  0  0  0  0  0  0  0  0
  131.3730  132.0680   60.0910 C   0  0  0  0  0  0  0  0  0  0  0  0
  132.6170  131.4350   59.5120 C   0  0  0  0  0  0  0  0  0  0  0  0
  130.0190  132.6020   59.1330 S   0  0  0  0  0  0  0  0  0  0  0  0
  125.4000  131.4800   59.1770 O   0  0  0  0  0  0  0  0  0  0  0  0
  127.8894  130.7557   58.4724 H   0  0  0  0  0  0  0  0  0  0  0  0
  128.3319  129.9631   56.9224 H   0  0  0  0  0  0  0  0  0  0  0  0
  127.6932  131.6420   56.9224 H   0  0  0  0  0  0  0  0  0  0  0  0
  125.9586  130.0037   56.2104 H   0  0  0  0  0  0  0  0  0  0  0  0
  126.1589  129.1455   57.7998 H   0  0  0  0  0  0  0  0  0  0  0  0
  125.7184  134.5948   59.9567 H   0  0  0  0  0  0  0  0  0  0  0  0
  125.5339  134.8530   61.7456 H   0  0  0  0  0  0  0  0  0  0  0  0
  127.9220  134.4820   59.9210 H   0  0  0  0  0  0  0  0  0  0  0  0
  133.2730  131.1012   60.3295 H   0  0  0  0  0  0  0  0  0  0  0  0
  132.3345  130.5710   58.8925 H   0  0  0  0  0  0  0  0  0  0  0  0
  133.1491  132.1720   58.8925 H   0  0  0  0  0  0  0  0  0  0  0  0
  1  2  1  0
  2  3  1  0
  3  4  2  0
  4  5  1  0
  5  6  2  0
  6  7  1  0
  7  8  1  0
  8  9  1  0
  9 10  2  0
  9 11  1  0
 11 12  1  0
 12 13  2  0
 13 14  1  0
 14 15  2  0
 15 16  1  0
 15 17  1  0
  6 18  1  0
 18  3  1  0
 17 12  1  0
  1 19  1  0
  1 20  1  0
  1 21  1  0
  2 22  1  0
  2 23  1  0
  8 24  1  0
  8 25  1  0
 11 26  1  0
 16 27  1  0
 16 28  1  0
 16 29  1  0
M  END
>  <Binding energies>  (1) 
[-6.01]

>  <Ligand effiencies>  (1) 
[-0.3163157894736842]

>  <Interactions>  (1) 
["V-B:ILE:369:CB:8207, V-B:ILE:369:CG2:8208, V-A:TYR:539:CE2:4876, V-A:TYR:539:CD2:4874, V-A:PRO:540:CB:4885, V-A:PRO:540:CA:4883, V-A:TYR:539:C:4867, H-A:TYR:539:O:4868, H-A:ALA:541:N:4891, V-A:PRO:540:N:4884, V-A:TYR:539:CZ:4877, H-A:TYR:539:OH:4878, H-B:ASN:370:N:8215"]

$$$$
RR31_Rahimova_2017
     RDKit          3D

 44 45  0  0  0  0  0  0  0  0999 V2000
  134.2460  119.7040   61.3920 C   0  0  0  0  0  0  0  0  0  0  0  0
  132.9050  120.4240   61.3300 C   0  0  0  0  0  0  0  0  0  0  0  0
  131.8230  119.7950   60.7130 C   0  0  0  0  0  0  0  0  0  0  0  0
  130.5820  120.4250   60.6430 C   0  0  0  0  0  0  0  0  0  0  0  0
  130.3840  121.7010   61.1950 C   0  0  0  0  0  0  0  0  0  0  0  0
  129.1490  122.3500   61.1240 N   0  0  0  0  0  0  0  0  0  0  0  0
  128.1200  121.9660   60.1400 C   0  0  0  0  0  0  0  0  0  0  0  0
  127.0170  123.0310   59.9320 C   0  0  0  0  0  0  0  0  0  0  0  0
  126.3750  123.3750   61.2030 N   0  0  0  0  0  0  0  0  0  0  0  0
  125.3000  124.3570   61.0330 C   0  0  0  0  0  0  0  0  0  0  0  0
  124.3510  124.0170   59.8670 C   0  0  0  0  0  0  0  0  0  0  0  0
  124.9130  124.4670   58.5090 C   0  0  0  0  0  0  0  0  0  0  0  0
  124.7650  125.9860   58.3580 N   0  0  0  0  0  0  0  0  0  0  0  0
  127.4090  123.9220   62.0810 C   0  0  0  0  0  0  0  0  0  0  0  0
  128.5130  122.8740   62.3490 C   0  0  0  0  0  0  0  0  0  0  0  0
  131.4830  122.3260   61.8040 C   0  0  0  0  0  0  0  0  0  0  0  0
  132.7340  121.7040   61.8800 C   0  0  0  0  0  0  0  0  0  0  0  0
  133.8890  122.4370   62.5520 C   0  0  0  0  0  0  0  0  0  0  0  0
  134.5316  119.5507   62.4432 H   0  0  0  0  0  0  0  0  0  0  0  0
  134.1625  118.7294   60.8888 H   0  0  0  0  0  0  0  0  0  0  0  0
  135.0122  120.3120   60.8888 H   0  0  0  0  0  0  0  0  0  0  0  0
  131.9508  118.7928   60.2779 H   0  0  0  0  0  0  0  0  0  0  0  0
  129.7434  119.9143   60.1471 H   0  0  0  0  0  0  0  0  0  0  0  0
  128.6150  121.7880   59.1739 H   0  0  0  0  0  0  0  0  0  0  0  0
  127.6232  121.0673   60.5344 H   0  0  0  0  0  0  0  0  0  0  0  0
  127.4678  123.9365   59.4997 H   0  0  0  0  0  0  0  0  0  0  0  0
  126.2550  122.6194   59.2539 H   0  0  0  0  0  0  0  0  0  0  0  0
  124.7127  124.3979   61.9622 H   0  0  0  0  0  0  0  0  0  0  0  0
  125.7715  125.3235   60.8017 H   0  0  0  0  0  0  0  0  0  0  0  0
  124.1960  122.9283   59.8427 H   0  0  0  0  0  0  0  0  0  0  0  0
  123.4053  124.5531   60.0348 H   0  0  0  0  0  0  0  0  0  0  0  0
  125.9775  124.1967   58.4476 H   0  0  0  0  0  0  0  0  0  0  0  0
  124.3545  123.9677   57.7035 H   0  0  0  0  0  0  0  0  0  0  0  0
  125.4410  126.3360   57.6940 H   0  0  0  0  0  0  0  0  0  0  0  0
  124.9170  126.4400   59.2470 H   0  0  0  0  0  0  0  0  0  0  0  0
  123.8380  126.2150   58.0300 H   0  0  0  0  0  0  0  0  0  0  0  0
  127.8583  124.8047   61.6025 H   0  0  0  0  0  0  0  0  0  0  0  0
  126.9465  124.1996   63.0397 H   0  0  0  0  0  0  0  0  0  0  0  0
  129.2909  123.3414   62.9706 H   0  0  0  0  0  0  0  0  0  0  0  0
  128.0299  122.0212   62.8484 H   0  0  0  0  0  0  0  0  0  0  0  0
  131.3577  123.3312   62.2328 H   0  0  0  0  0  0  0  0  0  0  0  0
  133.7808  122.3683   63.6445 H   0  0  0  0  0  0  0  0  0  0  0  0
  134.8412  121.9775   62.2482 H   0  0  0  0  0  0  0  0  0  0  0  0
  133.8787  123.4942   62.2482 H   0  0  0  0  0  0  0  0  0  0  0  0
  1  2  1  0
  2  3  2  0
  3  4  1  0
  4  5  2  0
  5  6  1  0
  6  7  1  0
  7  8  1  0
  8  9  1  0
  9 10  1  0
 10 11  1  0
 11 12  1  0
 12 13  1  0
  9 14  1  0
 14 15  1  0
  5 16  1  0
 16 17  2  0
 17 18  1  0
 17  2  1  0
 15  6  1  0
  1 19  1  0
  1 20  1  0
  1 21  1  0
  3 22  1  0
  4 23  1  0
  7 24  1  0
  7 25  1  0
  8 26  1  0
  8 27  1  0
 10 28  1  0
 10 29  1  0
 11 30  1  0
 11 31  1  0
 12 32  1  0
 12 33  1  0
 13 34  1  0
 13 35  1  0
 13 36  1  0
 14 37  1  0
 14 38  1  0
 15 39  1  0
 15 40  1  0
 16 41  1  0
 18 42  1  0
 18 43  1  0
 18 44  1  0
M  CHG  1  13   1
M  END
>  <Binding energies>  (1) 
[-6.98]

>  <Ligand effiencies>  (1) 
[-0.3323809523809524]

>  <Interactions>  (1) 
["V-B:ASP:366:CG:8184, V-B:GLU:543:CD:9879, V-A:LEU:475:CD2:4258, V-A:ILE:369:CD1:3238, V-A:GLY:454:CA:4048, V-B:TYR:539:CD2:9845, V-A:ILE:369:CG2:3236, V-B:TYR:539:CE2:9847, V-B:ALA:541:CB:9863, V-B:ASP:366:CB:8183, V-B:PRO:540:C:9852, V-B:ALA:541:CA:9861, V-A:SER:385:C:3404, V-A:SER:385:CB:3408, V-B:PRO:540:N:9855, V-A:TRP:381:CZ2:3369, V-A:SER:385:CA:3406, V-B:TYR:539:C:9838, V-B:PRO:540:CA:9854, V-A:TRP:381:CH2:3371, H-B:ALA:541:N:9862, H-B:ASP:366:OD2:8186, V-B:PRO:540:CB:9856, H-B:TYR:531:OH:9766, V-B:LEU:363:CA:8156, V-B:ASN:362:C:8143, V-B:TYR:531:CE2:9764, V-B:TYR:531:CZ:9765"]

$$$$
RR32_Rahimova_2017
     RDKit          3D

 37 39  0  0  0  0  0  0  0  0999 V2000
  126.7160  123.0740   57.2650 C   0  0  0  0  0  0  0  0  0  0  0  0
  127.0350  122.9760   58.7530 C   0  0  0  0  0  0  0  0  0  0  0  0
  128.2580  122.4210   59.1300 C   0  0  0  0  0  0  0  0  0  0  0  0
  128.5850  122.3190   60.4790 C   0  0  0  0  0  0  0  0  0  0  0  0
  129.7990  121.7670   60.8500 N   0  0  0  0  0  0  0  0  0  0  0  0
  129.9580  120.3110   60.6840 C   0  0  0  0  0  0  0  0  0  0  0  0
  131.2730  119.7670   61.2910 C   0  0  0  0  0  0  0  0  0  0  0  0
  132.4240  120.4340   60.6830 N   0  0  0  0  0  0  0  0  0  0  0  0
  133.6650  119.8980   61.2330 C   0  0  0  0  0  0  0  0  0  0  0  0
  132.3190  121.8630   60.9680 C   0  0  0  0  0  0  0  0  0  0  0  0
  131.0190  122.4380   60.3590 C   0  0  0  0  0  0  0  0  0  0  0  0
  127.7540  122.7390   61.4680 N   0  0  0  0  0  0  0  0  0  0  0  0
  126.5530  123.2830   61.1320 C   0  0  0  0  0  0  0  0  0  0  0  0
  125.7060  123.7110   62.1830 C   0  0  0  0  0  0  0  0  0  0  0  0
  124.4670  124.2740   61.8990 C   0  0  0  0  0  0  0  0  0  0  0  0
  124.0460  124.4240   60.5830 C   0  0  0  0  0  0  0  0  0  0  0  0
  124.8540  124.0140   59.5270 C   0  0  0  0  0  0  0  0  0  0  0  0
  126.1320  123.4310   59.7700 C   0  0  0  0  0  0  0  0  0  0  0  0
  125.6720  123.3947   57.1342 H   0  0  0  0  0  0  0  0  0  0  0  0
  127.3867  123.8075   56.7937 H   0  0  0  0  0  0  0  0  0  0  0  0
  126.8592  122.0904   56.7937 H   0  0  0  0  0  0  0  0  0  0  0  0
  128.9619  122.0650   58.3633 H   0  0  0  0  0  0  0  0  0  0  0  0
  129.1121  119.8088   61.1762 H   0  0  0  0  0  0  0  0  0  0  0  0
  129.9886  120.1072   59.6035 H   0  0  0  0  0  0  0  0  0  0  0  0
  131.2766  119.9523   62.3753 H   0  0  0  0  0  0  0  0  0  0  0  0
  131.3391  118.6867   61.0944 H   0  0  0  0  0  0  0  0  0  0  0  0
  133.6180  119.9183   62.3318 H   0  0  0  0  0  0  0  0  0  0  0  0
  133.8001  118.8613   60.8909 H   0  0  0  0  0  0  0  0  0  0  0  0
  134.5123  120.5104   60.8909 H   0  0  0  0  0  0  0  0  0  0  0  0
  132.3079  122.0159   62.0573 H   0  0  0  0  0  0  0  0  0  0  0  0
  133.1817  122.3807   60.5234 H   0  0  0  0  0  0  0  0  0  0  0  0
  130.9567  123.5063   60.6135 H   0  0  0  0  0  0  0  0  0  0  0  0
  131.0671  122.2736   59.2724 H   0  0  0  0  0  0  0  0  0  0  0  0
  126.0296  123.5976   63.2282 H   0  0  0  0  0  0  0  0  0  0  0  0
  123.8152  124.6031   62.7217 H   0  0  0  0  0  0  0  0  0  0  0  0
  123.0632  124.8718   60.3740 H   0  0  0  0  0  0  0  0  0  0  0  0
  124.5025  124.1412   58.4925 H   0  0  0  0  0  0  0  0  0  0  0  0
  1  2  1  0
  2  3  2  0
  3  4  1  0
  4  5  1  0
  5  6  1  0
  6  7  1  0
  7  8  1  0
  8  9  1  0
  8 10  1  0
 10 11  1  0
  4 12  2  0
 12 13  1  0
 13 14  2  0
 14 15  1  0
 15 16  2  0
 16 17  1  0
 17 18  2  0
 18  2  1  0
 11  5  1  0
 18 13  1  0
  1 19  1  0
  1 20  1  0
  1 21  1  0
  3 22  1  0
  6 23  1  0
  6 24  1  0
  7 25  1  0
  7 26  1  0
  9 27  1  0
  9 28  1  0
  9 29  1  0
 10 30  1  0
 10 31  1  0
 11 32  1  0
 11 33  1  0
 14 34  1  0
 15 35  1  0
 16 36  1  0
 17 37  1  0
M  END
>  <Binding energies>  (1) 
[-6.52]

>  <Ligand effiencies>  (1) 
[-0.3622222222222222]

>  <Interactions>  (1) 
["V-B:ASP:366:CG:8184, V-B:GLU:543:CD:9879, V-A:LEU:475:CD2:4258, V-B:TYR:539:CD2:9845, V-A:ILE:369:CG2:3236, V-B:TYR:539:CE2:9847, V-B:ALA:541:CB:9863, V-B:GLU:543:CG:9878, V-B:PRO:540:C:9852, V-B:PRO:540:N:9855, V-A:TRP:381:CZ2:3369, V-B:TYR:539:C:9838, V-B:PRO:540:CA:9854, V-A:TRP:381:CH2:3371, V-B:ARG:545:CZ:9897, H-B:ALA:541:N:9862, V-B:PRO:540:CB:9856, V-B:LEU:363:CA:8156, V-B:ASN:362:CB:8147, V-B:ASN:362:C:8143"]

$$$$
RR32_Rahimova_2017-again1
     RDKit          3D

 38 40  0  0  0  0  0  0  0  0999 V2000
  125.5950  131.9580   59.8270 C   0  0  0  0  0  0  0  0  0  0  0  0
  126.7850  132.7310   60.3780 C   0  0  0  0  0  0  0  0  0  0  0  0
  128.0720  132.2000   60.2870 C   0  0  0  0  0  0  0  0  0  0  0  0
  129.1640  132.9150   60.7910 C   0  0  0  0  0  0  0  0  0  0  0  0
  130.4620  132.3980   60.7190 N   0  0  0  0  0  0  0  0  0  0  0  0
  131.0090  131.5980   61.8330 C   0  0  0  0  0  0  0  0  0  0  0  0
  130.6430  130.0980   61.7240 C   0  0  0  0  0  0  0  0  0  0  0  0
  131.2360  129.5420   60.4150 N   0  0  0  0  0  0  0  0  0  0  0  0
  130.8870  128.0510   60.2460 C   0  0  0  0  0  0  0  0  0  0  0  0
  130.6880  130.3680   59.2330 C   0  0  0  0  0  0  0  0  0  0  0  0
  131.0370  131.8570   59.4690 C   0  0  0  0  0  0  0  0  0  0  0  0
  129.0010  134.1210   61.4010 N   0  0  0  0  0  0  0  0  0  0  0  0
  127.7580  134.6650   61.5020 C   0  0  0  0  0  0  0  0  0  0  0  0
  127.6280  135.9270   62.1300 C   0  0  0  0  0  0  0  0  0  0  0  0
  126.3750  136.5220   62.2520 C   0  0  0  0  0  0  0  0  0  0  0  0
  125.2390  135.8860   61.7630 C   0  0  0  0  0  0  0  0  0  0  0  0
  125.3350  134.6420   61.1430 C   0  0  0  0  0  0  0  0  0  0  0  0
  126.5970  134.0030   60.9980 C   0  0  0  0  0  0  0  0  0  0  0  0
  124.9936  131.5673   60.6610 H   0  0  0  0  0  0  0  0  0  0  0  0
  124.9765  132.6272   59.2109 H   0  0  0  0  0  0  0  0  0  0  0  0
  125.9550  131.1209   59.2109 H   0  0  0  0  0  0  0  0  0  0  0  0
  128.2285  131.2173   59.8181 H   0  0  0  0  0  0  0  0  0  0  0  0
  132.1048  131.6944   61.8312 H   0  0  0  0  0  0  0  0  0  0  0  0
  130.5697  131.9813   62.7658 H   0  0  0  0  0  0  0  0  0  0  0  0
  131.0610  129.5511   62.5820 H   0  0  0  0  0  0  0  0  0  0  0  0
  129.5497  129.9767   61.7230 H   0  0  0  0  0  0  0  0  0  0  0  0
  132.2400  129.6530   60.4460 H   0  0  0  0  0  0  0  0  0  0  0  0
  130.7780  127.5854   61.2366 H   0  0  0  0  0  0  0  0  0  0  0  0
  129.9424  127.9562   59.6904 H   0  0  0  0  0  0  0  0  0  0  0  0
  131.6914  127.5468   59.6904 H   0  0  0  0  0  0  0  0  0  0  0  0
  131.1480  130.0235   58.2951 H   0  0  0  0  0  0  0  0  0  0  0  0
  129.5974  130.2440   59.1609 H   0  0  0  0  0  0  0  0  0  0  0  0
  132.1315  131.9566   59.5157 H   0  0  0  0  0  0  0  0  0  0  0  0
  130.6056  132.4304   58.6353 H   0  0  0  0  0  0  0  0  0  0  0  0
  128.5190  136.4389   62.5226 H   0  0  0  0  0  0  0  0  0  0  0  0
  126.2829  137.5038   62.7395 H   0  0  0  0  0  0  0  0  0  0  0  0
  124.2563  136.3692   61.8666 H   0  0  0  0  0  0  0  0  0  0  0  0
  124.4275  134.1503   60.7627 H   0  0  0  0  0  0  0  0  0  0  0  0
  1  2  1  0
  2  3  2  0
  3  4  1  0
  4  5  1  0
  5  6  1  0
  6  7  1  0
  7  8  1  0
  8  9  1  0
  8 10  1  0
 10 11  1  0
  4 12  2  0
 12 13  1  0
 13 14  2  0
 14 15  1  0
 15 16  2  0
 16 17  1  0
 17 18  2  0
 18  2  1  0
 11  5  1  0
 18 13  1  0
  1 19  1  0
  1 20  1  0
  1 21  1  0
  3 22  1  0
  6 23  1  0
  6 24  1  0
  7 25  1  0
  7 26  1  0
  8 27  1  0
  9 28  1  0
  9 29  1  0
  9 30  1  0
 10 31  1  0
 10 32  1  0
 11 33  1  0
 11 34  1  0
 14 35  1  0
 15 36  1  0
 16 37  1  0
 17 38  1  0
M  CHG  1   8   1
M  END
>  <Binding energies>  (1) 
[-6.55]

>  <Ligand effiencies>  (1) 
[-0.3447368421052632]

>  <Interactions>  (1) 
["V-A:ASP:366:CG:3212, V-A:ALA:541:CB:4892, V-B:TRP:381:CZ2:8341, V-B:PRO:482:CB:9297, V-B:PRO:482:CG:9298, V-B:LEU:475:CD1:9229, V-B:TRP:381:CH2:8343, V-A:TYR:539:CE2:4876, V-A:TYR:539:CD2:4874, V-A:PRO:540:C:4881, V-A:PRO:540:CB:4885, V-A:PRO:540:CA:4883, H-A:ASP:366:OD2:3214, H-A:ALA:541:N:4891"]

$$$$
RR32_Rahimova_2017-again2
     RDKit          3D

 39 41  0  0  0  0  0  0  0  0999 V2000
  125.5290  131.5530   61.3620 C   0  0  0  0  0  0  0  0  0  0  0  0
  126.7190  132.5030   61.3690 C   0  0  0  0  0  0  0  0  0  0  0  0
  128.0070  132.0170   61.1250 C   0  0  0  0  0  0  0  0  0  0  0  0
  129.1150  132.8750   61.1340 C   0  0  0  0  0  0  0  0  0  0  0  0
  130.4600  132.4270   60.8740 N   0  0  0  0  0  0  0  0  0  0  0  0
  131.2080  131.6340   61.8860 C   0  0  0  0  0  0  0  0  0  0  0  0
  130.8720  130.1240   61.7580 C   0  0  0  0  0  0  0  0  0  0  0  0
  131.2460  129.6310   60.3400 N   0  0  0  0  0  0  0  0  0  0  0  0
  130.8740  128.1470   60.1560 C   0  0  0  0  0  0  0  0  0  0  0  0
  130.5590  130.5110   59.2690 C   0  0  0  0  0  0  0  0  0  0  0  0
  130.9140  132.0000   59.5260 C   0  0  0  0  0  0  0  0  0  0  0  0
  128.8970  134.1840   61.3760 N   0  0  0  0  0  0  0  0  0  0  0  0
  127.6690  134.7510   61.6240 C   0  0  0  0  0  0  0  0  0  0  0  0
  127.5530  136.1380   61.8680 C   0  0  0  0  0  0  0  0  0  0  0  0
  126.2930  136.6790   62.1120 C   0  0  0  0  0  0  0  0  0  0  0  0
  125.1610  135.8680   62.1180 C   0  0  0  0  0  0  0  0  0  0  0  0
  125.2620  134.4970   61.8790 C   0  0  0  0  0  0  0  0  0  0  0  0
  126.5270  133.8970   61.6240 C   0  0  0  0  0  0  0  0  0  0  0  0
  125.2387  131.3213   62.3974 H   0  0  0  0  0  0  0  0  0  0  0  0
  124.6840  132.0276   60.8418 H   0  0  0  0  0  0  0  0  0  0  0  0
  125.8047  130.6238   60.8418 H   0  0  0  0  0  0  0  0  0  0  0  0
  128.1528  130.9456   60.9230 H   0  0  0  0  0  0  0  0  0  0  0  0
  132.2875  131.7780   61.7316 H   0  0  0  0  0  0  0  0  0  0  0  0
  130.9168  131.9771   62.8897 H   0  0  0  0  0  0  0  0  0  0  0  0
  131.4443  129.5563   62.5064 H   0  0  0  0  0  0  0  0  0  0  0  0
  129.7957  129.9722   61.9270 H   0  0  0  0  0  0  0  0  0  0  0  0
  132.2460  129.7370   60.2300 H   0  0  0  0  0  0  0  0  0  0  0  0
  130.7554  127.6738   61.1419 H   0  0  0  0  0  0  0  0  0  0  0  0
  129.9293  128.0723   59.5974 H   0  0  0  0  0  0  0  0  0  0  0  0
  131.6717  127.6356   59.5974 H   0  0  0  0  0  0  0  0  0  0  0  0
  130.9114  130.2162   58.2695 H   0  0  0  0  0  0  0  0  0  0  0  0
  129.4687  130.3765   59.3247 H   0  0  0  0  0  0  0  0  0  0  0  0
  132.0043  132.1278   59.4557 H   0  0  0  0  0  0  0  0  0  0  0  0
  130.4058  132.6182   58.7713 H   0  0  0  0  0  0  0  0  0  0  0  0
  129.7000  134.7950   61.3680 H   0  0  0  0  0  0  0  0  0  0  0  0
  128.4452  136.7813   61.8653 H   0  0  0  0  0  0  0  0  0  0  0  0
  126.1910  137.7577   62.3019 H   0  0  0  0  0  0  0  0  0  0  0  0
  124.1746  136.3139   62.3136 H   0  0  0  0  0  0  0  0  0  0  0  0
  124.3554  133.8741   61.8878 H   0  0  0  0  0  0  0  0  0  0  0  0
  1  2  1  0
  2  3  2  0
  3  4  1  0
  4  5  1  0
  5  6  1  0
  6  7  1  0
  7  8  1  0
  8  9  1  0
  8 10  1  0
 10 11  1  0
  4 12  2  0
 12 13  1  0
 13 14  2  0
 14 15  1  0
 15 16  2  0
 16 17  1  0
 17 18  2  0
 18  2  1  0
 11  5  1  0
 18 13  1  0
  1 19  1  0
  1 20  1  0
  1 21  1  0
  3 22  1  0
  6 23  1  0
  6 24  1  0
  7 25  1  0
  7 26  1  0
  8 27  1  0
  9 28  1  0
  9 29  1  0
  9 30  1  0
 10 31  1  0
 10 32  1  0
 11 33  1  0
 11 34  1  0
 12 35  1  0
 14 36  1  0
 15 37  1  0
 16 38  1  0
 17 39  1  0
M  CHG  2   8   1  12   1
M  END
>  <Binding energies>  (1) 
[-6.86]

>  <Ligand effiencies>  (1) 
[-0.343]

>  <Interactions>  (1) 
["V-A:ASP:366:CG:3212, V-A:ALA:541:CB:4892, V-B:TRP:381:CZ2:8341, V-B:PRO:482:CB:9297, V-B:PRO:482:CG:9298, V-B:LEU:475:CD1:9229, V-B:TRP:381:CH2:8343, V-A:TYR:539:CD2:4874, V-A:PRO:540:C:4881, V-A:ALA:541:CA:4890, V-A:PRO:540:CB:4885, V-A:PRO:540:CA:4883, V-A:TYR:539:C:4867, H-A:TYR:539:O:4868, H-A:ASP:366:OD2:3214, V-B:TRP:381:CE2:8338, H-A:PRO:540:O:4882"]

$$$$
RR33_Rahimova_2017
     RDKit          3D

 36 37  0  0  0  0  0  0  0  0999 V2000
  130.2960  124.6230   74.4930 C   0  0  0  0  0  0  0  0  0  0  0  0
  129.7470  126.0120   74.8300 C   0  0  0  0  0  0  0  0  0  0  0  0
  128.6290  126.2790   73.9880 O   0  0  0  0  0  0  0  0  0  0  0  0
  128.8190  126.3900   72.6240 C   0  0  0  0  0  0  0  0  0  0  0  0
  128.1400  125.4720   71.8250 C   0  0  0  0  0  0  0  0  0  0  0  0
  128.2730  125.5050   70.4390 C   0  0  0  0  0  0  0  0  0  0  0  0
  129.0900  126.4610   69.8310 C   0  0  0  0  0  0  0  0  0  0  0  0
  129.2330  126.4950   68.3430 C   0  0  0  0  0  0  0  0  0  0  0  0
  129.8330  125.6140   67.5740 N   0  0  0  0  0  0  0  0  0  0  0  0
  129.6950  126.0750   66.3400 C   0  0  0  0  0  0  0  0  0  0  0  0
  130.2560  125.3140   65.1580 C   0  0  0  0  0  0  0  0  0  0  0  0
  130.7290  124.0010   65.5710 N   0  0  0  0  0  0  0  0  0  0  0  0
  129.7510  122.9770   65.2400 C   0  0  0  0  0  0  0  0  0  0  0  0
  128.9900  127.2720   66.3660 C   0  0  0  0  0  0  0  0  0  0  0  0
  128.5160  128.2600   65.3280 C   0  0  0  0  0  0  0  0  0  0  0  0
  128.6950  127.5390   67.6590 O   0  0  0  0  0  0  0  0  0  0  0  0
  129.7700  127.3870   70.6280 C   0  0  0  0  0  0  0  0  0  0  0  0
  129.6380  127.3540   72.0150 C   0  0  0  0  0  0  0  0  0  0  0  0
  130.5114  124.0781   75.4240 H   0  0  0  0  0  0  0  0  0  0  0  0
  129.5503  124.0664   73.9065 H   0  0  0  0  0  0  0  0  0  0  0  0
  131.2208  124.7266   73.9065 H   0  0  0  0  0  0  0  0  0  0  0  0
  129.4317  126.0396   75.8835 H   0  0  0  0  0  0  0  0  0  0  0  0
  130.5263  126.7716   74.6696 H   0  0  0  0  0  0  0  0  0  0  0  0
  127.4936  124.7150   72.2930 H   0  0  0  0  0  0  0  0  0  0  0  0
  127.7318  124.7744   69.8199 H   0  0  0  0  0  0  0  0  0  0  0  0
  129.4684  125.1924   64.3998 H   0  0  0  0  0  0  0  0  0  0  0  0
  131.1019  125.8803   64.7411 H   0  0  0  0  0  0  0  0  0  0  0  0
  130.8780  124.0000   66.5700 H   0  0  0  0  0  0  0  0  0  0  0  0
  129.3414  122.5481   66.1664 H   0  0  0  0  0  0  0  0  0  0  0  0
  128.9364  123.4245   64.6516 H   0  0  0  0  0  0  0  0  0  0  0  0
  130.2354  122.1838   64.6516 H   0  0  0  0  0  0  0  0  0  0  0  0
  128.0924  129.1430   65.8288 H   0  0  0  0  0  0  0  0  0  0  0  0
  129.3649  128.5670   64.6994 H   0  0  0  0  0  0  0  0  0  0  0  0
  127.7453  127.7900   64.6994 H   0  0  0  0  0  0  0  0  0  0  0  0
  130.4127  128.1457   70.1576 H   0  0  0  0  0  0  0  0  0  0  0  0
  130.1773  128.0856   72.6346 H   0  0  0  0  0  0  0  0  0  0  0  0
  1  2  1  0
  2  3  1  0
  3  4  1  0
  4  5  2  0
  5  6  1  0
  6  7  2  0
  7  8  1  0
  8  9  2  0
  9 10  1  0
 10 11  1  0
 11 12  1  0
 12 13  1  0
 10 14  2  0
 14 15  1  0
 14 16  1  0
  7 17  1  0
 17 18  2  0
 18  4  1  0
 16  8  1  0
  1 19  1  0
  1 20  1  0
  1 21  1  0
  2 22  1  0
  2 23  1  0
  5 24  1  0
  6 25  1  0
 11 26  1  0
 11 27  1  0
 12 28  1  0
 13 29  1  0
 13 30  1  0
 13 31  1  0
 15 32  1  0
 15 33  1  0
 15 34  1  0
 17 35  1  0
 18 36  1  0
M  END
>  <Binding energies>  (1) 
[-4.61]

>  <Ligand effiencies>  (1) 
[-0.24263157894736845]

>  <Interactions>  (1) 
["V-B:HIS:456:CE1:9041, V-B:GLU:543:CD:9879, V-A:GLU:543:CD:4908, V-A:GLU:543:CG:4907, V-A:HIS:456:CE1:4069, V-B:HIS:456:CD2:9039, V-A:HIS:456:CD2:4067, V-B:ALA:541:CB:9863, V-B:GLU:543:C:9873, V-B:GLU:543:CG:9878, V-B:GLU:543:CB:9877, H-B:LYS:547:NZ:9922, H-A:TYR:484:OH:4347, V-A:TYR:484:CE1:4344, V-B:GLY:544:C:9883"]

$$$$
RR33_Rahimova_2017-again1
     RDKit          3D

 37 38  0  0  0  0  0  0  0  0999 V2000
  130.1070  124.5250   74.5160 C   0  0  0  0  0  0  0  0  0  0  0  0
  129.7940  126.0240   74.5350 C   0  0  0  0  0  0  0  0  0  0  0  0
  128.6300  126.2590   73.7500 O   0  0  0  0  0  0  0  0  0  0  0  0
  128.7380  126.3080   72.3730 C   0  0  0  0  0  0  0  0  0  0  0  0
  129.6540  127.2230   71.8530 C   0  0  0  0  0  0  0  0  0  0  0  0
  129.8340  127.3440   70.4780 C   0  0  0  0  0  0  0  0  0  0  0  0
  129.0940  126.5470   69.5980 C   0  0  0  0  0  0  0  0  0  0  0  0
  129.2840  126.6730   68.1210 C   0  0  0  0  0  0  0  0  0  0  0  0
  128.6180  127.4440   67.2890 N   0  0  0  0  0  0  0  0  0  0  0  0
  129.1450  127.2110   66.0950 C   0  0  0  0  0  0  0  0  0  0  0  0
  128.6250  127.9160   64.8580 C   0  0  0  0  0  0  0  0  0  0  0  0
  127.1250  128.2040   65.0360 N   0  0  0  0  0  0  0  0  0  0  0  0
  126.7530  129.6790   64.8260 C   0  0  0  0  0  0  0  0  0  0  0  0
  130.1560  126.2650   66.2110 C   0  0  0  0  0  0  0  0  0  0  0  0
  131.1080  125.5860   65.2570 C   0  0  0  0  0  0  0  0  0  0  0  0
  130.2420  125.9240   67.5190 O   0  0  0  0  0  0  0  0  0  0  0  0
  128.1740  125.6290   70.1160 C   0  0  0  0  0  0  0  0  0  0  0  0
  127.9960  125.5080   71.4910 C   0  0  0  0  0  0  0  0  0  0  0  0
  130.1846  124.1535   75.5485 H   0  0  0  0  0  0  0  0  0  0  0  0
  129.3014  123.9888   73.9929 H   0  0  0  0  0  0  0  0  0  0  0  0
  131.0598  124.3560   73.9929 H   0  0  0  0  0  0  0  0  0  0  0  0
  129.6145  126.3512   75.5697 H   0  0  0  0  0  0  0  0  0  0  0  0
  130.6433  126.5886   74.1229 H   0  0  0  0  0  0  0  0  0  0  0  0
  130.2398  127.8551   72.5365 H   0  0  0  0  0  0  0  0  0  0  0  0
  130.5606  128.0688   70.0820 H   0  0  0  0  0  0  0  0  0  0  0  0
  129.1677  128.8625   64.7180 H   0  0  0  0  0  0  0  0  0  0  0  0
  128.7775  127.2770   63.9757 H   0  0  0  0  0  0  0  0  0  0  0  0
  126.6040  127.6380   64.3820 H   0  0  0  0  0  0  0  0  0  0  0  0
  126.8530  127.9300   65.9700 H   0  0  0  0  0  0  0  0  0  0  0  0
  126.6295  130.1687   65.8032 H   0  0  0  0  0  0  0  0  0  0  0  0
  127.5524  130.1821   64.2622 H   0  0  0  0  0  0  0  0  0  0  0  0
  125.8106  129.7428   64.2622 H   0  0  0  0  0  0  0  0  0  0  0  0
  131.8731  125.0403   65.8288 H   0  0  0  0  0  0  0  0  0  0  0  0
  130.5509  124.8802   64.6234 H   0  0  0  0  0  0  0  0  0  0  0  0
  131.5940  126.3426   64.6234 H   0  0  0  0  0  0  0  0  0  0  0  0
  127.5873  124.9985   69.4317 H   0  0  0  0  0  0  0  0  0  0  0  0
  127.2708  124.7823   71.8878 H   0  0  0  0  0  0  0  0  0  0  0  0
  1  2  1  0
  2  3  1  0
  3  4  1  0
  4  5  2  0
  5  6  1  0
  6  7  2  0
  7  8  1  0
  8  9  2  0
  9 10  1  0
 10 11  1  0
 11 12  1  0
 12 13  1  0
 10 14  2  0
 14 15  1  0
 14 16  1  0
  7 17  1  0
 17 18  2  0
 18  4  1  0
 16  8  1  0
  1 19  1  0
  1 20  1  0
  1 21  1  0
  2 22  1  0
  2 23  1  0
  5 24  1  0
  6 25  1  0
 11 26  1  0
 11 27  1  0
 12 28  1  0
 12 29  1  0
 13 30  1  0
 13 31  1  0
 13 32  1  0
 15 33  1  0
 15 34  1  0
 15 35  1  0
 17 36  1  0
 18 37  1  0
M  CHG  1  12   1
M  END
>  <Binding energies>  (1) 
[-5.99]

>  <Ligand effiencies>  (1) 
[-0.2995]

>  <Interactions>  (1) 
["V-B:HIS:456:CE1:9041, V-B:GLU:543:CD:9879, V-A:GLU:543:CD:4908, V-A:HIS:456:CE1:4069, V-B:HIS:456:CD2:9039, V-A:HIS:456:CD2:4067, V-B:GLU:543:C:9873, V-B:GLU:543:CB:9877, H-B:GLU:543:OE2:9881, H-B:GLU:543:OE1:9880, H-B:LYS:547:NZ:9922, V-B:GLY:544:C:9883"]

$$$$
RR3_Rahimova_2017
     RDKit          3D

 63 69  0  0  0  0  0  0  0  0999 V2000
  131.4960  121.3390   61.6090 C   0  0  0  0  0  0  0  0  0  0  0  0
  130.1740  121.7490   61.7450 C   0  0  0  0  0  0  0  0  0  0  0  0
  129.8390  122.6850   62.7190 C   0  0  0  0  0  0  0  0  0  0  0  0
  130.8180  123.2240   63.5680 C   0  0  0  0  0  0  0  0  0  0  0  0
  130.4560  124.2310   64.6140 C   0  0  0  0  0  0  0  0  0  0  0  0
  130.0920  123.8290   65.9060 C   0  0  0  0  0  0  0  0  0  0  0  0
  129.7520  124.7660   66.8780 C   0  0  0  0  0  0  0  0  0  0  0  0
  129.7620  126.1310   66.5760 C   0  0  0  0  0  0  0  0  0  0  0  0
  129.3920  127.1430   67.6140 C   0  0  0  0  0  0  0  0  0  0  0  0
  129.8940  127.0510   68.8410 N   0  0  0  0  0  0  0  0  0  0  0  0
  129.4390  128.0820   69.5100 C   0  0  0  0  0  0  0  0  0  0  0  0
  129.7400  128.3770   70.9090 C   0  0  0  0  0  0  0  0  0  0  0  0
  130.4820  127.5790   71.7630 C   0  0  0  0  0  0  0  0  0  0  0  0
  130.5730  128.1660   72.9980 N   0  0  0  0  0  0  0  0  0  0  0  0
  129.8950  129.3650   72.9990 C   0  0  0  0  0  0  0  0  0  0  0  0
  129.7090  130.3090   74.0150 C   0  0  0  0  0  0  0  0  0  0  0  0
  128.9590  131.4410   73.6980 C   0  0  0  0  0  0  0  0  0  0  0  0
  128.4160  131.6300   72.4310 C   0  0  0  0  0  0  0  0  0  0  0  0
  128.6020  130.6910   71.4190 C   0  0  0  0  0  0  0  0  0  0  0  0
  129.3510  129.5310   71.6860 C   0  0  0  0  0  0  0  0  0  0  0  0
  128.6280  128.8550   68.7260 N   0  0  0  0  0  0  0  0  0  0  0  0
  128.5540  128.2650   67.4910 C   0  0  0  0  0  0  0  0  0  0  0  0
  127.7050  128.8010   66.3860 C   0  0  0  0  0  0  0  0  0  0  0  0
  126.4140  129.2570   66.6530 C   0  0  0  0  0  0  0  0  0  0  0  0
  125.6150  129.7450   65.6240 C   0  0  0  0  0  0  0  0  0  0  0  0
  126.0880  129.7930   64.3050 C   0  0  0  0  0  0  0  0  0  0  0  0
  125.2200  130.3000   63.1970 C   0  0  0  0  0  0  0  0  0  0  0  0
  123.8790  130.6410   63.4330 C   0  0  0  0  0  0  0  0  0  0  0  0
  123.0710  131.1170   62.4020 C   0  0  0  0  0  0  0  0  0  0  0  0
  123.5980  131.2590   61.1230 C   0  0  0  0  0  0  0  0  0  0  0  0
  124.9250  130.9280   60.8670 C   0  0  0  0  0  0  0  0  0  0  0  0
  125.7290  130.4510   61.8980 C   0  0  0  0  0  0  0  0  0  0  0  0
  127.3930  129.3480   64.0520 C   0  0  0  0  0  0  0  0  0  0  0  0
  128.1950  128.8590   65.0790 C   0  0  0  0  0  0  0  0  0  0  0  0
  130.1360  126.5420   65.2950 C   0  0  0  0  0  0  0  0  0  0  0  0
  130.4750  125.6020   64.3250 C   0  0  0  0  0  0  0  0  0  0  0  0
  132.1440  122.7950   63.4130 C   0  0  0  0  0  0  0  0  0  0  0  0
  132.4840  121.8590   62.4400 C   0  0  0  0  0  0  0  0  0  0  0  0
  131.7624  120.5991   60.8398 H   0  0  0  0  0  0  0  0  0  0  0  0
  129.3967  121.3354   61.0857 H   0  0  0  0  0  0  0  0  0  0  0  0
  128.7925  123.0068   62.8249 H   0  0  0  0  0  0  0  0  0  0  0  0
  130.0746  122.7579   66.1559 H   0  0  0  0  0  0  0  0  0  0  0  0
  129.4742  124.4308   67.8882 H   0  0  0  0  0  0  0  0  0  0  0  0
  130.9331  126.6137   71.4898 H   0  0  0  0  0  0  0  0  0  0  0  0
  131.0760  127.7430   73.7640 H   0  0  0  0  0  0  0  0  0  0  0  0
  130.1353  130.1646   75.0187 H   0  0  0  0  0  0  0  0  0  0  0  0
  128.7920  132.2057   74.4709 H   0  0  0  0  0  0  0  0  0  0  0  0
  127.8292  132.5373   72.2247 H   0  0  0  0  0  0  0  0  0  0  0  0
  128.1677  130.8550   70.4218 H   0  0  0  0  0  0  0  0  0  0  0  0
  128.1470  129.6950   69.0140 H   0  0  0  0  0  0  0  0  0  0  0  0
  126.0259  129.2306   67.6819 H   0  0  0  0  0  0  0  0  0  0  0  0
  124.5977  130.0982   65.8484 H   0  0  0  0  0  0  0  0  0  0  0  0
  123.4606  130.5312   64.4444 H   0  0  0  0  0  0  0  0  0  0  0  0
  122.0211  131.3792   62.5991 H   0  0  0  0  0  0  0  0  0  0  0  0
  122.9617  131.6354   60.3085 H   0  0  0  0  0  0  0  0  0  0  0  0
  125.3370  131.0429   59.8536 H   0  0  0  0  0  0  0  0  0  0  0  0
  126.7773  130.1889   61.6919 H   0  0  0  0  0  0  0  0  0  0  0  0
  127.7891  129.3859   63.0265 H   0  0  0  0  0  0  0  0  0  0  0  0
  129.2176  128.5172   64.8610 H   0  0  0  0  0  0  0  0  0  0  0  0
  130.1630  127.6142   65.0507 H   0  0  0  0  0  0  0  0  0  0  0  0
  130.7616  125.9404   63.3183 H   0  0  0  0  0  0  0  0  0  0  0  0
  132.9265  123.2037   64.0693 H   0  0  0  0  0  0  0  0  0  0  0  0
  133.5284  121.5321   62.3286 H   0  0  0  0  0  0  0  0  0  0  0  0
  1  2  2  0
  2  3  1  0
  3  4  2  0
  4  5  1  0
  5  6  2  0
  6  7  1  0
  7  8  2  0
  8  9  1  0
  9 10  1  0
 10 11  2  0
 11 12  1  0
 12 13  2  0
 13 14  1  0
 14 15  1  0
 15 16  2  0
 16 17  1  0
 17 18  2  0
 18 19  1  0
 19 20  2  0
 11 21  1  0
 21 22  1  0
 22 23  1  0
 23 24  2  0
 24 25  1  0
 25 26  2  0
 26 27  1  0
 27 28  2  0
 28 29  1  0
 29 30  2  0
 30 31  1  0
 31 32  2  0
 26 33  1  0
 33 34  2  0
  8 35  1  0
 35 36  2  0
  4 37  1  0
 37 38  2  0
 38  1  1  0
 36  5  1  0
 22  9  2  0
 34 23  1  0
 20 12  1  0
 32 27  1  0
 20 15  1  0
  1 39  1  0
  2 40  1  0
  3 41  1  0
  6 42  1  0
  7 43  1  0
 13 44  1  0
 14 45  1  0
 16 46  1  0
 17 47  1  0
 18 48  1  0
 19 49  1  0
 21 50  1  0
 24 51  1  0
 25 52  1  0
 28 53  1  0
 29 54  1  0
 30 55  1  0
 31 56  1  0
 32 57  1  0
 33 58  1  0
 34 59  1  0
 35 60  1  0
 36 61  1  0
 37 62  1  0
 38 63  1  0
M  END
>  <Binding energies>  (1) 
[-9.73]

>  <Ligand effiencies>  (1) 
[-0.24325000000000002]

>  <Interactions>  (1) 
["V-B:ASP:366:CG:8184, V-B:HIS:456:CE1:9041, V-B:GLU:543:CD:9879, V-A:LEU:475:CD2:4258, V-A:TYR:484:CZ:4346, V-A:GLU:543:CD:4908, V-B:GLY:454:CA:9020, V-B:ILE:369:CD1:8210, V-A:GLU:543:CG:4907, V-A:HIS:456:CE1:4069, V-A:GLU:543:C:4902, V-B:HIS:456:CG:9037, V-A:GLU:543:CB:4906, V-B:ALA:541:CB:9863, V-B:TYR:484:CD1:9314, V-B:GLU:543:CG:9878, V-B:GLU:543:CB:9877, V-B:TYR:484:CE1:9316, V-B:ASP:366:CB:8183, H-B:TYR:484:OH:9319, V-A:LYS:547:CE:4950, V-B:ARG:545:CZ:9897, H-B:HIS:456:NE2:9042, V-B:TYR:484:CG:9313, V-B:GLY:453:CA:9015, V-B:GLY:453:C:9013, V-B:ASP:366:CA:8181, V-A:TYR:484:CE1:4344"]

$$$$
RR4_Rahimova_2017
     RDKit          3D

 66 70  0  0  0  0  0  0  0  0999 V2000
  130.1810  125.2790   74.6940 C   0  0  0  0  0  0  0  0  0  0  0  0
  129.0240  125.9020   74.1460 O   0  0  0  0  0  0  0  0  0  0  0  0
  128.9580  126.1190   72.7830 C   0  0  0  0  0  0  0  0  0  0  0  0
  129.6570  127.2190   72.2910 C   0  0  0  0  0  0  0  0  0  0  0  0
  129.6480  127.5150   70.9310 C   0  0  0  0  0  0  0  0  0  0  0  0
  128.9360  126.7190   70.0210 C   0  0  0  0  0  0  0  0  0  0  0  0
  128.9270  127.0420   68.5550 C   0  0  0  0  0  0  0  0  0  0  0  0
  129.6370  126.2930   67.6100 C   0  0  0  0  0  0  0  0  0  0  0  0
  129.5940  126.6320   66.2520 C   0  0  0  0  0  0  0  0  0  0  0  0
  130.3540  125.7690   65.2980 C   0  0  0  0  0  0  0  0  0  0  0  0
  131.5380  126.2360   64.7190 C   0  0  0  0  0  0  0  0  0  0  0  0
  132.2590  125.4350   63.8380 C   0  0  0  0  0  0  0  0  0  0  0  0
  131.8140  124.1510   63.5240 C   0  0  0  0  0  0  0  0  0  0  0  0
  132.5940  123.4280   62.6410 O   0  0  0  0  0  0  0  0  0  0  0  0
  133.5300  124.1150   61.8170 C   0  0  0  0  0  0  0  0  0  0  0  0
  130.6300  123.6760   64.1060 C   0  0  0  0  0  0  0  0  0  0  0  0
  129.9110  124.4800   64.9870 C   0  0  0  0  0  0  0  0  0  0  0  0
  128.8390  127.7670   65.8630 C   0  0  0  0  0  0  0  0  0  0  0  0
  128.7600  128.1650   64.4540 C   0  0  0  0  0  0  0  0  0  0  0  0
  128.6970  128.4800   63.3430 N   0  0  0  0  0  0  0  0  0  0  0  0
  128.1710  128.4950   66.8730 C   0  0  0  0  0  0  0  0  0  0  0  0
  127.1910  129.9490   66.5700 S   0  0  0  0  0  0  0  0  0  0  0  0
  125.4720  129.4110   66.2790 C   0  0  0  0  0  0  0  0  0  0  0  0
  124.9430  129.7040   64.8680 C   0  0  0  0  0  0  0  0  0  0  0  0
  123.7530  129.9700   64.6880 O   0  0  0  0  0  0  0  0  0  0  0  0
  125.8730  129.6270   63.8880 N   0  0  0  0  0  0  0  0  0  0  0  0
  125.7090  129.8390   62.5170 C   0  0  0  0  0  0  0  0  0  0  0  0
  126.3880  128.7840   61.3060 S   0  0  0  0  0  0  0  0  0  0  0  0
  125.7350  129.7490   60.0180 C   0  0  0  0  0  0  0  0  0  0  0  0
  125.0190  130.8520   60.5110 C   0  0  0  0  0  0  0  0  0  0  0  0
  124.9930  130.8920   61.9270 C   0  0  0  0  0  0  0  0  0  0  0  0
  124.2990  131.9260   62.6890 C   0  0  0  0  0  0  0  0  0  0  0  0
  123.7500  132.7460   63.2920 N   0  0  0  0  0  0  0  0  0  0  0  0
  124.3130  131.8360   59.5710 C   0  0  0  0  0  0  0  0  0  0  0  0
  124.1690  131.2310   58.1560 C   0  0  0  0  0  0  0  0  0  0  0  0
  125.4740  130.5750   57.6700 C   0  0  0  0  0  0  0  0  0  0  0  0
  125.8800  129.3730   58.5490 C   0  0  0  0  0  0  0  0  0  0  0  0
  128.2040  128.1260   68.1750 N   0  0  0  0  0  0  0  0  0  0  0  0
  128.2380  125.6110   70.5270 C   0  0  0  0  0  0  0  0  0  0  0  0
  128.2440  125.3120   71.8860 C   0  0  0  0  0  0  0  0  0  0  0  0
  130.1275  125.3078   75.7923 H   0  0  0  0  0  0  0  0  0  0  0  0
  130.2289  124.2331   74.3565 H   0  0  0  0  0  0  0  0  0  0  0  0
  131.0805  125.8147   74.3565 H   0  0  0  0  0  0  0  0  0  0  0  0
  130.2216  127.8599   72.9841 H   0  0  0  0  0  0  0  0  0  0  0  0
  130.2083  128.3874   70.5636 H   0  0  0  0  0  0  0  0  0  0  0  0
  130.2348  125.4295   67.9371 H   0  0  0  0  0  0  0  0  0  0  0  0
  131.9028  127.2450   64.9618 H   0  0  0  0  0  0  0  0  0  0  0  0
  133.1862  125.8174   63.3863 H   0  0  0  0  0  0  0  0  0  0  0  0
  134.2549  124.6471   62.4505 H   0  0  0  0  0  0  0  0  0  0  0  0
  134.0606  123.3903   61.1819 H   0  0  0  0  0  0  0  0  0  0  0  0
  132.9977  124.8384   61.1819 H   0  0  0  0  0  0  0  0  0  0  0  0
  130.2680  122.6654   63.8660 H   0  0  0  0  0  0  0  0  0  0  0  0
  128.9858  124.0972   65.4425 H   0  0  0  0  0  0  0  0  0  0  0  0
  125.4188  128.3252   66.4472 H   0  0  0  0  0  0  0  0  0  0  0  0
  124.8426  129.9856   66.9744 H   0  0  0  0  0  0  0  0  0  0  0  0
  126.8140  129.4000   64.1730 H   0  0  0  0  0  0  0  0  0  0  0  0
  123.3135  132.0630   59.9702 H   0  0  0  0  0  0  0  0  0  0  0  0
  124.9144  132.7546   59.5037 H   0  0  0  0  0  0  0  0  0  0  0  0
  123.3752  130.4697   58.1751 H   0  0  0  0  0  0  0  0  0  0  0  0
  123.9224  132.0482   57.4622 H   0  0  0  0  0  0  0  0  0  0  0  0
  125.3328  130.2271   56.6361 H   0  0  0  0  0  0  0  0  0  0  0  0
  126.2750  131.3264   57.7315 H   0  0  0  0  0  0  0  0  0  0  0  0
  125.2279  128.5164   58.3233 H   0  0  0  0  0  0  0  0  0  0  0  0
  126.9254  129.1017   58.3405 H   0  0  0  0  0  0  0  0  0  0  0  0
  127.6753  124.9665   69.8356 H   0  0  0  0  0  0  0  0  0  0  0  0
  127.6867  124.4395   72.2578 H   0  0  0  0  0  0  0  0  0  0  0  0
  1  2  1  0
  2  3  1  0
  3  4  2  0
  4  5  1  0
  5  6  2  0
  6  7  1  0
  7  8  2  0
  8  9  1  0
  9 10  1  0
 10 11  2  0
 11 12  1  0
 12 13  2  0
 13 14  1  0
 14 15  1  0
 13 16  1  0
 16 17  2  0
  9 18  2  0
 18 19  1  0
 19 20  3  0
 18 21  1  0
 21 22  1  0
 22 23  1  0
 23 24  1  0
 24 25  2  0
 24 26  1  0
 26 27  1  0
 27 28  1  0
 28 29  1  0
 29 30  2  0
 30 31  1  0
 31 32  1  0
 32 33  3  0
 30 34  1  0
 34 35  1  0
 35 36  1  0
 36 37  1  0
 21 38  2  0
  6 39  1  0
 39 40  2  0
 40  3  1  0
 38  7  1  0
 17 10  1  0
 31 27  2  0
 37 29  1  0
  1 41  1  0
  1 42  1  0
  1 43  1  0
  4 44  1  0
  5 45  1  0
  8 46  1  0
 11 47  1  0
 12 48  1  0
 15 49  1  0
 15 50  1  0
 15 51  1  0
 16 52  1  0
 17 53  1  0
 23 54  1  0
 23 55  1  0
 26 56  1  0
 34 57  1  0
 34 58  1  0
 35 59  1  0
 35 60  1  0
 36 61  1  0
 36 62  1  0
 37 63  1  0
 37 64  1  0
 39 65  1  0
 40 66  1  0
M  END
>  <Binding energies>  (1) 
[-10.49]

>  <Ligand effiencies>  (1) 
[-0.25585365853658537]

>  <Interactions>  (1) 
["V-B:ASP:366:CG:8184, V-B:HIS:456:CE1:9041, V-A:ARG:545:CZ:4926, V-B:GLU:543:CD:9879, V-A:GLU:543:CD:4908, V-A:ILE:369:CD1:3238, V-A:GLU:543:CG:4907, V-B:ILE:369:CG2:8208, V-A:TYR:539:CE2:4876, V-A:HIS:456:CE1:4069, V-A:ILE:369:CG2:3236, V-A:HIS:456:CD2:4067, V-B:GLU:543:C:9873, V-B:GLU:543:CG:9878, V-B:GLU:543:CB:9877, H-B:GLY:454:N:9021, H-B:GLU:543:OE2:9881, V-B:ASP:366:CB:8183, H-B:ARG:545:NH2:9899, H-B:LYS:547:NZ:9922, H-B:TYR:484:OH:9319, H-B:ARG:545:NE:9895, H-B:ARG:545:NH1:9898, V-B:ARG:545:CZ:9897, V-B:ASP:366:CA:8181, V-B:ASP:366:C:8179"]

$$$$
RR5_Rahimova_2017
     RDKit          3D

 77 82  0  0  0  0  0  0  0  0999 V2000
  128.2820  122.4530   58.8420 O   0  0  0  0  0  0  0  0  0  0  0  0
  127.8750  123.3250   59.6070 C   0  0  0  0  0  0  0  0  0  0  0  0
  126.4350  123.8550   59.4650 C   0  0  0  0  0  0  0  0  0  0  0  0
  125.8460  124.4640   60.7870 C   0  0  2  0  0  0  0  0  0  0  0  0
  126.5070  125.7000   61.2520 N   0  0  0  0  0  0  0  0  0  0  0  0
  126.9110  126.6870   60.3640 C   0  0  0  0  0  0  0  0  0  0  0  0
  126.7430  126.6920   59.1420 O   0  0  0  0  0  0  0  0  0  0  0  0
  127.5420  127.6500   61.0590 O   0  0  0  0  0  0  0  0  0  0  0  0
  127.3800  127.7760   62.4690 C   0  0  0  0  0  0  0  0  0  0  0  0
  127.0940  129.2430   62.8590 C   0  0  0  0  0  0  0  0  0  0  0  0
  126.0470  129.9120   61.9870 C   0  0  0  0  0  0  0  0  0  0  0  0
  126.0320  130.1020   60.6020 C   0  0  0  0  0  0  0  0  0  0  0  0
  124.9420  130.7310   59.9980 C   0  0  0  0  0  0  0  0  0  0  0  0
  123.8690  131.1720   60.7740 C   0  0  0  0  0  0  0  0  0  0  0  0
  123.8820  130.9850   62.1570 C   0  0  0  0  0  0  0  0  0  0  0  0
  124.9730  130.3560   62.7590 C   0  0  0  0  0  0  0  0  0  0  0  0
  125.2520  130.0410   64.1690 C   0  0  0  0  0  0  0  0  0  0  0  0
  124.5130  130.2850   65.3290 C   0  0  0  0  0  0  0  0  0  0  0  0
  125.0250  129.8960   66.5680 C   0  0  0  0  0  0  0  0  0  0  0  0
  126.2690  129.2660   66.6460 C   0  0  0  0  0  0  0  0  0  0  0  0
  127.0020  129.0210   65.4840 C   0  0  0  0  0  0  0  0  0  0  0  0
  126.4920  129.4050   64.2420 C   0  0  0  0  0  0  0  0  0  0  0  0
  125.8450  123.4140   61.9250 C   0  0  0  0  0  0  0  0  0  0  0  0
  124.9670  122.5940   62.1100 O   0  0  0  0  0  0  0  0  0  0  0  0
  126.9840  123.5400   62.6670 O   0  0  0  0  0  0  0  0  0  0  0  0
  128.5950  123.8590   60.6200 N   0  0  0  0  0  0  0  0  0  0  0  0
  129.9880  123.6470   61.1140 C   0  0  0  0  0  0  0  0  0  0  0  0
  130.8350  124.4200   60.0470 C   0  0  0  0  0  0  0  0  0  0  0  0
  132.2390  124.3960   60.0680 C   0  0  0  0  0  0  0  0  0  0  0  0
  132.9810  125.0860   59.1130 C   0  0  0  0  0  0  0  0  0  0  0  0
  132.3310  125.8190   58.1270 C   0  0  0  0  0  0  0  0  0  0  0  0
  130.9430  125.8590   58.0800 C   0  0  0  0  0  0  0  0  0  0  0  0
  130.2020  125.1610   59.0290 C   0  0  0  0  0  0  0  0  0  0  0  0
  130.0820  124.2910   62.5380 C   0  0  0  0  0  0  0  0  0  0  0  0
  130.0810  123.5080   63.7030 C   0  0  0  0  0  0  0  0  0  0  0  0
  130.1460  124.1040   64.9610 C   0  0  0  0  0  0  0  0  0  0  0  0
  130.2100  125.4890   65.0690 C   0  0  0  0  0  0  0  0  0  0  0  0
  130.2160  126.2850   63.9280 C   0  0  0  0  0  0  0  0  0  0  0  0
  130.1600  125.6890   62.6730 C   0  0  0  0  0  0  0  0  0  0  0  0
  130.2310  122.1000   61.0790 C   0  0  0  0  0  0  0  0  0  0  0  0
  129.1950  121.1980   61.3820 C   0  0  0  0  0  0  0  0  0  0  0  0
  129.4060  119.8220   61.3610 C   0  0  0  0  0  0  0  0  0  0  0  0
  130.6600  119.3220   61.0300 C   0  0  0  0  0  0  0  0  0  0  0  0
  131.7000  120.1880   60.7120 C   0  0  0  0  0  0  0  0  0  0  0  0
  131.4840  121.5630   60.7340 C   0  0  0  0  0  0  0  0  0  0  0  0
  126.4288  124.6367   58.6911 H   0  0  0  0  0  0  0  0  0  0  0  0
  125.8032  122.9939   59.2019 H   0  0  0  0  0  0  0  0  0  0  0  0
  124.8165  124.7508   60.5266 H   0  0  0  0  0  0  0  0  0  0  0  0
  126.8190  125.7430   62.2110 H   0  0  0  0  0  0  0  0  0  0  0  0
  126.5385  127.1460   62.7931 H   0  0  0  0  0  0  0  0  0  0  0  0
  128.3101  127.4551   62.9610 H   0  0  0  0  0  0  0  0  0  0  0  0
  128.0949  129.6896   62.7649 H   0  0  0  0  0  0  0  0  0  0  0  0
  126.8777  129.7564   59.9893 H   0  0  0  0  0  0  0  0  0  0  0  0
  124.9287  130.8794   58.9081 H   0  0  0  0  0  0  0  0  0  0  0  0
  123.0118  131.6677   60.2949 H   0  0  0  0  0  0  0  0  0  0  0  0
  123.0367  131.3316   62.7696 H   0  0  0  0  0  0  0  0  0  0  0  0
  123.5331  130.7809   65.2665 H   0  0  0  0  0  0  0  0  0  0  0  0
  124.4475  130.0860   67.4847 H   0  0  0  0  0  0  0  0  0  0  0  0
  126.6713  128.9627   67.6239 H   0  0  0  0  0  0  0  0  0  0  0  0
  127.9819  128.5252   65.5464 H   0  0  0  0  0  0  0  0  0  0  0  0
  126.9540  124.2990   63.2520 H   0  0  0  0  0  0  0  0  0  0  0  0
  128.1400  124.6320   61.0850 H   0  0  0  0  0  0  0  0  0  0  0  0
  132.7599  123.8240   60.8500 H   0  0  0  0  0  0  0  0  0  0  0  0
  134.0801  125.0511   59.1388 H   0  0  0  0  0  0  0  0  0  0  0  0
  132.9193  126.3709   57.3791 H   0  0  0  0  0  0  0  0  0  0  0  0
  130.4326  126.4391   57.2971 H   0  0  0  0  0  0  0  0  0  0  0  0
  129.1033  125.1882   58.9837 H   0  0  0  0  0  0  0  0  0  0  0  0
  130.0283  122.4122   63.6221 H   0  0  0  0  0  0  0  0  0  0  0  0
  130.1467  123.4801   65.8669 H   0  0  0  0  0  0  0  0  0  0  0  0
  130.2562  125.9581   66.0629 H   0  0  0  0  0  0  0  0  0  0  0  0
  130.2648  127.3802   64.0182 H   0  0  0  0  0  0  0  0  0  0  0  0
  130.1769  126.3202   61.7723 H   0  0  0  0  0  0  0  0  0  0  0  0
  128.1992  121.5872   61.6405 H   0  0  0  0  0  0  0  0  0  0  0  0
  128.5837  119.1334   61.6053 H   0  0  0  0  0  0  0  0  0  0  0  0
  130.8304  118.2353   61.0196 H   0  0  0  0  0  0  0  0  0  0  0  0
  132.6892  119.7884   60.4442 H   0  0  0  0  0  0  0  0  0  0  0  0
  132.3096  122.2428   60.4765 H   0  0  0  0  0  0  0  0  0  0  0  0
  1  2  2  0
  2  3  1  0
  3  4  1  0
  4  5  1  0
  5  6  1  0
  6  7  2  0
  6  8  1  0
  8  9  1  0
  9 10  1  0
 10 11  1  0
 11 12  2  0
 12 13  1  0
 13 14  2  0
 14 15  1  0
 15 16  2  0
 16 17  1  0
 17 18  2  0
 18 19  1  0
 19 20  2  0
 20 21  1  0
 21 22  2  0
  4 23  1  0
 23 24  2  0
 23 25  1  0
  2 26  1  0
 26 27  1  0
 27 28  1  0
 28 29  2  0
 29 30  1  0
 30 31  2  0
 31 32  1  0
 32 33  2  0
 27 34  1  0
 34 35  2  0
 35 36  1  0
 36 37  2  0
 37 38  1  0
 38 39  2  0
 27 40  1  0
 40 41  2  0
 41 42  1  0
 42 43  2  0
 43 44  1  0
 44 45  2  0
 22 10  1  0
 33 28  1  0
 39 34  1  0
 45 40  1  0
 16 11  1  0
 22 17  1  0
  3 46  1  0
  3 47  1  0
  4 48  1  6
  5 49  1  0
  9 50  1  0
  9 51  1  0
 10 52  1  0
 12 53  1  0
 13 54  1  0
 14 55  1  0
 15 56  1  0
 18 57  1  0
 19 58  1  0
 20 59  1  0
 21 60  1  0
 25 61  1  0
 26 62  1  0
 29 63  1  0
 30 64  1  0
 31 65  1  0
 32 66  1  0
 33 67  1  0
 35 68  1  0
 36 69  1  0
 37 70  1  0
 38 71  1  0
 39 72  1  0
 41 73  1  0
 42 74  1  0
 43 75  1  0
 44 76  1  0
 45 77  1  0
M  END
>  <Binding energies>  (1) 
[-10.44]

>  <Ligand effiencies>  (1) 
[-0.2175]

>  <Interactions>  (1) 
["V-B:ASP:366:CG:8184, V-B:HIS:456:CE1:9041, V-B:GLU:543:CD:9879, V-A:ASP:366:CG:3212, V-A:LEU:475:CD2:4258, V-B:GLY:454:CA:9020, V-B:ILE:369:CD1:8210, V-B:TYR:539:CD2:9845, V-A:ILE:369:CG2:3236, V-B:TYR:539:CE2:9847, V-A:ASP:366:CB:3211, V-A:ASP:366:CA:3209, V-B:ALA:541:CB:9863, V-B:GLU:543:CG:9878, H-B:GLU:543:OE2:9881, V-B:ASP:366:CB:8183, V-B:PRO:540:C:9852, V-B:ALA:541:CA:9861, V-A:TRP:381:CZ2:3369, V-B:TYR:539:C:9838, V-B:PRO:540:CA:9854, V-A:TRP:381:CH2:3371, V-B:ARG:545:CZ:9897, H-B:ALA:541:N:9862, H-B:ASP:366:OD2:8186, V-B:PRO:540:CB:9856, V-B:ASP:366:CA:8181, V-A:ASP:366:C:3207, V-A:PRO:482:CB:4325, V-A:PRO:482:CG:4326"]

$$$$
RR5_Rahimova_2017-again1
     RDKit          3D

 76 81  0  0  0  0  0  0  0  0999 V2000
  128.6460  122.8850   58.7570 O   0  0  0  0  0  0  0  0  0  0  0  0
  128.0980  123.4730   59.6880 C   0  0  0  0  0  0  0  0  0  0  0  0
  126.6220  123.8950   59.5360 C   0  0  0  0  0  0  0  0  0  0  0  0
  125.9290  124.4960   60.8020 C   0  0  2  0  0  0  0  0  0  0  0  0
  126.7680  125.5870   61.3410 N   0  0  0  0  0  0  0  0  0  0  0  0
  127.1520  126.6690   60.5570 C   0  0  0  0  0  0  0  0  0  0  0  0
  126.8790  126.8460   59.3660 O   0  0  0  0  0  0  0  0  0  0  0  0
  127.8810  127.5120   61.3120 O   0  0  0  0  0  0  0  0  0  0  0  0
  127.5350  128.8890   61.4140 C   0  0  0  0  0  0  0  0  0  0  0  0
  126.0210  129.0360   61.6650 C   0  0  0  0  0  0  0  0  0  0  0  0
  125.6870  129.6370   63.0190 C   0  0  0  0  0  0  0  0  0  0  0  0
  125.9990  129.1760   64.3000 C   0  0  0  0  0  0  0  0  0  0  0  0
  125.5980  129.9070   65.4210 C   0  0  0  0  0  0  0  0  0  0  0  0
  124.8820  131.0950   65.2630 C   0  0  0  0  0  0  0  0  0  0  0  0
  124.5640  131.5550   63.9850 C   0  0  0  0  0  0  0  0  0  0  0  0
  124.9670  130.8230   62.8660 C   0  0  0  0  0  0  0  0  0  0  0  0
  124.7630  131.0630   61.4290 C   0  0  0  0  0  0  0  0  0  0  0  0
  124.1040  132.0920   60.7530 C   0  0  0  0  0  0  0  0  0  0  0  0
  124.0430  132.0740   59.3590 C   0  0  0  0  0  0  0  0  0  0  0  0
  124.6380  131.0320   58.6440 C   0  0  0  0  0  0  0  0  0  0  0  0
  125.2980  130.0050   59.3230 C   0  0  0  0  0  0  0  0  0  0  0  0
  125.3640  130.0220   60.7190 C   0  0  0  0  0  0  0  0  0  0  0  0
  125.6260  123.3920   61.8930 C   0  0  0  0  0  0  0  0  0  0  0  0
  126.5690  123.1820   62.6920 O   0  0  0  0  0  0  0  0  0  0  0  0
  124.4820  122.8760   61.8740 O   0  0  0  0  0  0  0  0  0  0  0  0
  128.6900  123.6590   60.8880 N   0  0  0  0  0  0  0  0  0  0  0  0
  130.0740  123.3380   61.3190 C   0  0  0  0  0  0  0  0  0  0  0  0
  130.3370  121.8050   61.1820 C   0  0  0  0  0  0  0  0  0  0  0  0
  131.5990  121.3200   60.7950 C   0  0  0  0  0  0  0  0  0  0  0  0
  131.8400  119.9530   60.6840 C   0  0  0  0  0  0  0  0  0  0  0  0
  130.8200  119.0490   60.9630 C   0  0  0  0  0  0  0  0  0  0  0  0
  129.5630  119.5020   61.3520 C   0  0  0  0  0  0  0  0  0  0  0  0
  129.3240  120.8690   61.4620 C   0  0  0  0  0  0  0  0  0  0  0  0
  131.2070  123.9830   60.4580 C   0  0  0  0  0  0  0  0  0  0  0  0
  132.4940  124.1780   60.9880 C   0  0  0  0  0  0  0  0  0  0  0  0
  133.5060  124.7540   60.2250 C   0  0  0  0  0  0  0  0  0  0  0  0
  133.2440  125.1390   58.9140 C   0  0  0  0  0  0  0  0  0  0  0  0
  131.9810  124.9480   58.3610 C   0  0  0  0  0  0  0  0  0  0  0  0
  130.9730  124.3720   59.1280 C   0  0  0  0  0  0  0  0  0  0  0  0
  130.1180  123.7720   62.8250 C   0  0  0  0  0  0  0  0  0  0  0  0
  130.4190  122.8590   63.8500 C   0  0  0  0  0  0  0  0  0  0  0  0
  130.4720  123.2640   65.1800 C   0  0  0  0  0  0  0  0  0  0  0  0
  130.2370  124.5950   65.5050 C   0  0  0  0  0  0  0  0  0  0  0  0
  129.9600  125.5250   64.5090 C   0  0  0  0  0  0  0  0  0  0  0  0
  129.9070  125.1170   63.1800 C   0  0  0  0  0  0  0  0  0  0  0  0
  126.5720  124.6508   58.7384 H   0  0  0  0  0  0  0  0  0  0  0  0
  126.0760  122.9643   59.3223 H   0  0  0  0  0  0  0  0  0  0  0  0
  124.9514  124.9070   60.5099 H   0  0  0  0  0  0  0  0  0  0  0  0
  127.0110  125.5710   62.3220 H   0  0  0  0  0  0  0  0  0  0  0  0
  128.0883  129.3425   62.2495 H   0  0  0  0  0  0  0  0  0  0  0  0
  127.7958  129.3970   60.4738 H   0  0  0  0  0  0  0  0  0  0  0  0
  125.6634  128.0020   61.5509 H   0  0  0  0  0  0  0  0  0  0  0  0
  126.5599  128.2382   64.4261 H   0  0  0  0  0  0  0  0  0  0  0  0
  125.8468  129.5459   66.4298 H   0  0  0  0  0  0  0  0  0  0  0  0
  124.5682  131.6690   66.1473 H   0  0  0  0  0  0  0  0  0  0  0  0
  123.9984  132.4900   63.8592 H   0  0  0  0  0  0  0  0  0  0  0  0
  123.6355  132.9124   61.3164 H   0  0  0  0  0  0  0  0  0  0  0  0
  123.5251  132.8823   58.8220 H   0  0  0  0  0  0  0  0  0  0  0  0
  124.5868  131.0201   57.5453 H   0  0  0  0  0  0  0  0  0  0  0  0
  125.7652  129.1838   58.7596 H   0  0  0  0  0  0  0  0  0  0  0  0
  128.1710  124.2090   61.5560 H   0  0  0  0  0  0  0  0  0  0  0  0
  132.4087  122.0318   60.5765 H   0  0  0  0  0  0  0  0  0  0  0  0
  132.8319  119.5897   60.3772 H   0  0  0  0  0  0  0  0  0  0  0  0
  131.0084  117.9688   60.8755 H   0  0  0  0  0  0  0  0  0  0  0  0
  128.7608  118.7822   61.5719 H   0  0  0  0  0  0  0  0  0  0  0  0
  128.3296  121.2225   61.7721 H   0  0  0  0  0  0  0  0  0  0  0  0
  132.7052  123.8704   62.0228 H   0  0  0  0  0  0  0  0  0  0  0  0
  134.5068  124.9038   60.6561 H   0  0  0  0  0  0  0  0  0  0  0  0
  134.0408  125.5977   58.3101 H   0  0  0  0  0  0  0  0  0  0  0  0
  131.7807  125.2509   57.3227 H   0  0  0  0  0  0  0  0  0  0  0  0
  129.9773  124.2187   58.6864 H   0  0  0  0  0  0  0  0  0  0  0  0
  130.6159  121.8068   63.5966 H   0  0  0  0  0  0  0  0  0  0  0  0
  130.6989  122.5341   65.9710 H   0  0  0  0  0  0  0  0  0  0  0  0
  130.2704  124.9147   66.5570 H   0  0  0  0  0  0  0  0  0  0  0  0
  129.7835  126.5787   64.7708 H   0  0  0  0  0  0  0  0  0  0  0  0
  129.6968  125.8577   62.3943 H   0  0  0  0  0  0  0  0  0  0  0  0
  1  2  2  0
  2  3  1  0
  3  4  1  0
  4  5  1  0
  5  6  1  0
  6  7  2  0
  6  8  1  0
  8  9  1  0
  9 10  1  0
 10 11  1  0
 11 12  2  0
 12 13  1  0
 13 14  2  0
 14 15  1  0
 15 16  2  0
 16 17  1  0
 17 18  2  0
 18 19  1  0
 19 20  2  0
 20 21  1  0
 21 22  2  0
  4 23  1  0
 23 24  2  0
 23 25  1  0
  2 26  1  0
 26 27  1  0
 27 28  1  0
 28 29  2  0
 29 30  1  0
 30 31  2  0
 31 32  1  0
 32 33  2  0
 27 34  1  0
 34 35  2  0
 35 36  1  0
 36 37  2  0
 37 38  1  0
 38 39  2  0
 27 40  1  0
 40 41  2  0
 41 42  1  0
 42 43  2  0
 43 44  1  0
 44 45  2  0
 22 10  1  0
 33 28  1  0
 39 34  1  0
 45 40  1  0
 16 11  1  0
 22 17  1  0
  3 46  1  0
  3 47  1  0
  4 48  1  6
  5 49  1  0
  9 50  1  0
  9 51  1  0
 10 52  1  0
 12 53  1  0
 13 54  1  0
 14 55  1  0
 15 56  1  0
 18 57  1  0
 19 58  1  0
 20 59  1  0
 21 60  1  0
 26 61  1  0
 29 62  1  0
 30 63  1  0
 31 64  1  0
 32 65  1  0
 33 66  1  0
 35 67  1  0
 36 68  1  0
 37 69  1  0
 38 70  1  0
 39 71  1  0
 41 72  1  0
 42 73  1  0
 43 74  1  0
 44 75  1  0
 45 76  1  0
M  CHG  1  25  -1
M  END
>  <Binding energies>  (1) 
[-9.55]

>  <Ligand effiencies>  (1) 
[-0.20319148936170214]

>  <Interactions>  (1) 
["V-B:ASP:366:CG:8184, V-B:GLU:543:CD:9879, V-B:ILE:369:CB:8207, V-A:ASP:366:CG:3212, V-A:LEU:475:CD2:4258, V-A:TYR:484:CZ:4346, V-A:ILE:369:CD1:3238, V-B:GLY:454:CA:9020, V-B:ILE:369:CD1:8210, V-B:ILE:369:CG2:8208, V-A:TYR:539:CE2:4876, V-B:TYR:539:CD2:9845, V-A:ILE:369:CG2:3236, V-B:TYR:539:CE2:9847, V-A:ILE:369:CB:3235, V-A:ASP:366:CB:3211, V-A:ASP:366:CA:3209, V-B:ALA:541:CB:9863, V-B:GLU:543:CG:9878, H-B:GLU:543:OE2:9881, V-B:ASP:366:CB:8183, V-B:TYR:539:CZ:9848, V-B:PRO:540:C:9852, V-B:ALA:541:CA:9861, V-A:TRP:381:CZ2:3369, V-B:TYR:539:C:9838, V-B:PRO:540:CA:9854, V-A:TRP:381:CH2:3371, V-B:ARG:545:CZ:9897, H-B:ALA:541:N:9862, V-B:PRO:540:CB:9856, V-A:TYR:484:CE1:4344, V-A:ASP:366:C:3207, V-A:PRO:482:CB:4325, V-A:PRO:482:CG:4326, V-A:TRP:381:CZ3:3370"]

$$$$
RR6_Rahimova_2017
     RDKit          3D

 63 66  0  0  0  0  0  0  0  0999 V2000
  125.5290  130.1890   57.2880 C   0  0  0  0  0  0  0  0  0  0  0  0
  125.4460  131.4300   57.9740 O   0  0  0  0  0  0  0  0  0  0  0  0
  124.3970  131.7080   58.7900 C   0  0  0  0  0  0  0  0  0  0  0  0
  123.3560  132.2470   58.4000 O   0  0  0  0  0  0  0  0  0  0  0  0
  124.6280  131.2940   60.2150 C   0  0  0  0  0  0  0  0  0  0  0  0
  123.7270  131.6210   61.2390 C   0  0  0  0  0  0  0  0  0  0  0  0
  123.9730  131.2290   62.5530 C   0  0  0  0  0  0  0  0  0  0  0  0
  125.1330  130.5040   62.8650 C   0  0  0  0  0  0  0  0  0  0  0  0
  125.4930  130.0840   64.1590 N   0  0  0  0  0  0  0  0  0  0  0  0
  124.7040  129.6680   65.1750 C   0  0  0  0  0  0  0  0  0  0  0  0
  123.4770  129.5720   65.1320 O   0  0  0  0  0  0  0  0  0  0  0  0
  125.4270  129.3580   66.4900 C   0  0  0  0  0  0  0  0  0  0  0  0
  127.1380  129.9870   66.5520 S   0  0  0  0  0  0  0  0  0  0  0  0
  128.1840  128.5940   66.9210 C   0  0  0  0  0  0  0  0  0  0  0  0
  128.3900  128.3860   68.2440 N   0  0  0  0  0  0  0  0  0  0  0  0
  129.1470  127.3360   68.6500 C   0  0  0  0  0  0  0  0  0  0  0  0
  129.2750  127.1400   70.1320 C   0  0  0  0  0  0  0  0  0  0  0  0
  130.0650  128.0010   70.9090 C   0  0  0  0  0  0  0  0  0  0  0  0
  130.1940  127.8110   72.2820 C   0  0  0  0  0  0  0  0  0  0  0  0
  129.5300  126.7560   72.9060 C   0  0  0  0  0  0  0  0  0  0  0  0
  129.6810  126.5470   74.4020 C   0  0  0  0  0  0  0  0  0  0  0  0
  128.7390  125.8910   72.1530 C   0  0  0  0  0  0  0  0  0  0  0  0
  128.6130  126.0860   70.7820 C   0  0  0  0  0  0  0  0  0  0  0  0
  129.7300  126.4720   67.7170 C   0  0  0  0  0  0  0  0  0  0  0  0
  129.5360  126.6690   66.3430 C   0  0  0  0  0  0  0  0  0  0  0  0
  130.1720  125.6980   65.4040 C   0  0  0  0  0  0  0  0  0  0  0  0
  131.1630  126.1260   64.5150 C   0  0  0  0  0  0  0  0  0  0  0  0
  131.7730  125.2240   63.6470 C   0  0  0  0  0  0  0  0  0  0  0  0
  131.4100  123.8780   63.6540 C   0  0  0  0  0  0  0  0  0  0  0  0
  132.0690  123.0570   62.7600 O   0  0  0  0  0  0  0  0  0  0  0  0
  133.0290  123.6230   61.8760 C   0  0  0  0  0  0  0  0  0  0  0  0
  130.4200  123.4420   64.5480 C   0  0  0  0  0  0  0  0  0  0  0  0
  129.8120  124.3470   65.4150 C   0  0  0  0  0  0  0  0  0  0  0  0
  128.7440  127.7670   65.9260 C   0  0  0  0  0  0  0  0  0  0  0  0
  128.5240  128.0480   64.5040 C   0  0  0  0  0  0  0  0  0  0  0  0
  128.3490  128.2680   63.3810 N   0  0  0  0  0  0  0  0  0  0  0  0
  126.0230  130.1630   61.8460 C   0  0  0  0  0  0  0  0  0  0  0  0
  125.7760  130.5580   60.5340 C   0  0  0  0  0  0  0  0  0  0  0  0
  125.5838  129.3689   58.0190 H   0  0  0  0  0  0  0  0  0  0  0  0
  124.6376  130.0586   56.6569 H   0  0  0  0  0  0  0  0  0  0  0  0
  126.4299  130.1785   56.6569 H   0  0  0  0  0  0  0  0  0  0  0  0
  122.8174  132.1925   61.0023 H   0  0  0  0  0  0  0  0  0  0  0  0
  123.2570  131.4882   63.3468 H   0  0  0  0  0  0  0  0  0  0  0  0
  126.4730  130.1920   64.3740 H   0  0  0  0  0  0  0  0  0  0  0  0
  124.8592  129.8141   67.3144 H   0  0  0  0  0  0  0  0  0  0  0  0
  125.4839  128.2628   66.5751 H   0  0  0  0  0  0  0  0  0  0  0  0
  130.5900  128.8383   70.4261 H   0  0  0  0  0  0  0  0  0  0  0  0
  130.8203  128.4938   72.8749 H   0  0  0  0  0  0  0  0  0  0  0  0
  129.1189  127.3249   74.9395 H   0  0  0  0  0  0  0  0  0  0  0  0
  129.2887  125.5563   74.6753 H   0  0  0  0  0  0  0  0  0  0  0  0
  130.7448  126.6083   74.6753 H   0  0  0  0  0  0  0  0  0  0  0  0
  128.2155  125.0560   72.6417 H   0  0  0  0  0  0  0  0  0  0  0  0
  127.9827  125.4015   70.1954 H   0  0  0  0  0  0  0  0  0  0  0  0
  130.3465  125.6301   68.0650 H   0  0  0  0  0  0  0  0  0  0  0  0
  131.4632  127.1842   64.5013 H   0  0  0  0  0  0  0  0  0  0  0  0
  132.5477  125.5764   62.9501 H   0  0  0  0  0  0  0  0  0  0  0  0
  133.8316  124.0962   62.4606 H   0  0  0  0  0  0  0  0  0  0  0  0
  133.4550  122.8315   61.2419 H   0  0  0  0  0  0  0  0  0  0  0  0
  132.5427  124.3789   61.2419 H   0  0  0  0  0  0  0  0  0  0  0  0
  130.1234  122.3829   64.5641 H   0  0  0  0  0  0  0  0  0  0  0  0
  129.0405  123.9951   66.1157 H   0  0  0  0  0  0  0  0  0  0  0  0
  126.9250  129.5787   62.0806 H   0  0  0  0  0  0  0  0  0  0  0  0
  126.4891  130.2895   59.7407 H   0  0  0  0  0  0  0  0  0  0  0  0
  1  2  1  0
  2  3  1  0
  3  4  2  0
  3  5  1  0
  5  6  2  0
  6  7  1  0
  7  8  2  0
  8  9  1  0
  9 10  1  0
 10 11  2  0
 10 12  1  0
 12 13  1  0
 13 14  1  0
 14 15  2  0
 15 16  1  0
 16 17  1  0
 17 18  2  0
 18 19  1  0
 19 20  2  0
 20 21  1  0
 20 22  1  0
 22 23  2  0
 16 24  2  0
 24 25  1  0
 25 26  1  0
 26 27  2  0
 27 28  1  0
 28 29  2  0
 29 30  1  0
 30 31  1  0
 29 32  1  0
 32 33  2  0
 25 34  2  0
 34 35  1  0
 35 36  3  0
  8 37  1  0
 37 38  2  0
 38  5  1  0
 34 14  1  0
 23 17  1  0
 33 26  1  0
  1 39  1  0
  1 40  1  0
  1 41  1  0
  6 42  1  0
  7 43  1  0
  9 44  1  0
 12 45  1  0
 12 46  1  0
 18 47  1  0
 19 48  1  0
 21 49  1  0
 21 50  1  0
 21 51  1  0
 22 52  1  0
 23 53  1  0
 24 54  1  0
 27 55  1  0
 28 56  1  0
 31 57  1  0
 31 58  1  0
 31 59  1  0
 32 60  1  0
 33 61  1  0
 37 62  1  0
 38 63  1  0
M  END
>  <Binding energies>  (1) 
[-9.16]

>  <Ligand effiencies>  (1) 
[-0.23487179487179488]

>  <Interactions>  (1) 
["V-B:ASP:366:CG:8184, V-B:HIS:456:CE1:9041, V-B:GLU:543:CD:9879, V-A:GLU:543:CD:4908, V-A:ILE:369:CD1:3238, V-B:ILE:369:CD1:8210, V-A:GLU:543:CG:4907, V-A:TYR:539:CE2:4876, V-A:HIS:456:CE1:4069, V-A:ILE:369:CG2:3236, V-A:HIS:456:CD2:4067, V-B:GLU:543:CG:9878, H-B:GLY:454:N:9021, H-B:ARG:545:NH2:9899, H-B:TYR:484:OH:9319, H-B:ARG:545:NE:9895, H-B:ARG:545:NH1:9898, V-B:ARG:545:CZ:9897, V-A:TYR:539:CZ:4877, V-B:TYR:531:CZ:9765, H-A:TYR:539:OH:4878, H-B:ASN:370:N:8215"]

$$$$
RR7_Rahimova_2017
     RDKit          3D

 80 86  0  0  0  0  0  0  0  0999 V2000
  133.1730  131.2630   58.6700 C   0  0  0  0  0  0  0  0  0  0  0  0
  132.2420  132.2880   58.3380 O   0  0  0  0  0  0  0  0  0  0  0  0
  130.9870  132.2710   58.9160 C   0  0  0  0  0  0  0  0  0  0  0  0
  129.9290  132.7070   58.1210 C   0  0  0  0  0  0  0  0  0  0  0  0
  128.6290  132.7200   58.6160 C   0  0  0  0  0  0  0  0  0  0  0  0
  128.3570  132.3070   59.9290 C   0  0  0  0  0  0  0  0  0  0  0  0
  126.9040  132.2800   60.4990 C   0  0  0  0  0  0  0  0  0  0  0  0
  126.9180  131.3470   61.6030 O   0  0  0  0  0  0  0  0  0  0  0  0
  126.5350  129.9840   61.3950 C   0  0  0  0  0  0  0  0  0  0  0  0
  125.2250  129.7110   62.1510 C   0  0  1  0  0  0  0  0  0  0  0  0
  125.5600  128.9110   63.2820 O   0  0  0  0  0  0  0  0  0  0  0  0
  125.1950  129.5250   64.4840 C   0  0  1  0  0  0  0  0  0  0  0  0
  126.1390  129.1790   65.5290 N   0  0  0  0  0  0  0  0  0  0  0  0
  126.1090  129.5500   66.8620 C   0  0  0  0  0  0  0  0  0  0  0  0
  127.1200  129.1320   67.5830 N   0  0  0  0  0  0  0  0  0  0  0  0
  127.9130  128.4740   66.6830 C   0  0  0  0  0  0  0  0  0  0  0  0
  129.1490  127.8120   66.8230 C   0  0  0  0  0  0  0  0  0  0  0  0
  129.7460  127.7590   68.0960 N   0  0  0  0  0  0  0  0  0  0  0  0
  129.2380  127.2800   69.2570 C   0  0  0  0  0  0  0  0  0  0  0  0
  128.1040  126.8100   69.3760 O   0  0  0  0  0  0  0  0  0  0  0  0
  130.1490  127.3800   70.4620 C   0  0  0  0  0  0  0  0  0  0  0  0
  131.3400  128.1160   70.3720 C   0  0  0  0  0  0  0  0  0  0  0  0
  132.1900  128.2250   71.4690 C   0  0  0  0  0  0  0  0  0  0  0  0
  131.8540  127.6030   72.6670 C   0  0  0  0  0  0  0  0  0  0  0  0
  130.6740  126.8720   72.7780 C   0  0  0  0  0  0  0  0  0  0  0  0
  129.8240  126.7610   71.6800 C   0  0  0  0  0  0  0  0  0  0  0  0
  129.7320  127.2470   65.7230 N   0  0  0  0  0  0  0  0  0  0  0  0
  129.0810  127.3550   64.5350 C   0  0  0  0  0  0  0  0  0  0  0  0
  127.8910  127.9650   64.2890 N   0  0  0  0  0  0  0  0  0  0  0  0
  127.3400  128.5030   65.3860 C   0  0  0  0  0  0  0  0  0  0  0  0
  125.1070  131.0130   64.1640 C   0  0  0  0  0  0  0  0  0  0  0  0
  124.5510  130.9530   62.7520 C   0  0  2  0  0  0  0  0  0  0  0  0
  123.1370  130.8610   62.7400 O   0  0  0  0  0  0  0  0  0  0  0  0
  126.4700  133.6550   61.0730 C   0  0  0  0  0  0  0  0  0  0  0  0
  127.1990  134.8140   60.7630 C   0  0  0  0  0  0  0  0  0  0  0  0
  126.8270  136.0490   61.2830 C   0  0  0  0  0  0  0  0  0  0  0  0
  125.7200  136.1390   62.1220 C   0  0  0  0  0  0  0  0  0  0  0  0
  124.9840  135.0030   62.4430 C   0  0  0  0  0  0  0  0  0  0  0  0
  125.3570  133.7670   61.9230 C   0  0  0  0  0  0  0  0  0  0  0  0
  125.7890  131.8760   59.4930 C   0  0  0  0  0  0  0  0  0  0  0  0
  126.1000  131.1100   58.3580 C   0  0  0  0  0  0  0  0  0  0  0  0
  125.1110  130.7520   57.4470 C   0  0  0  0  0  0  0  0  0  0  0  0
  123.7990  131.1660   57.6570 C   0  0  0  0  0  0  0  0  0  0  0  0
  123.4710  131.9380   58.7670 C   0  0  0  0  0  0  0  0  0  0  0  0
  124.4610  132.2940   59.6770 C   0  0  0  0  0  0  0  0  0  0  0  0
  129.4230  131.8560   60.7190 C   0  0  0  0  0  0  0  0  0  0  0  0
  130.7240  131.8410   60.2240 C   0  0  0  0  0  0  0  0  0  0  0  0
  133.2502  131.1781   59.7640 H   0  0  0  0  0  0  0  0  0  0  0  0
  132.8292  130.3057   58.2512 H   0  0  0  0  0  0  0  0  0  0  0  0
  134.1589  131.5134   58.2512 H   0  0  0  0  0  0  0  0  0  0  0  0
  130.1236  133.0441   57.0922 H   0  0  0  0  0  0  0  0  0  0  0  0
  127.8048  133.0580   57.9706 H   0  0  0  0  0  0  0  0  0  0  0  0
  126.3852  129.8030   60.3204 H   0  0  0  0  0  0  0  0  0  0  0  0
  127.3250  129.3152   61.7672 H   0  0  0  0  0  0  0  0  0  0  0  0
  124.5391  129.2613   61.4180 H   0  0  0  0  0  0  0  0  0  0  0  0
  124.2260  129.1867   64.8798 H   0  0  0  0  0  0  0  0  0  0  0  0
  125.2933  130.1537   67.2865 H   0  0  0  0  0  0  0  0  0  0  0  0
  130.6820  128.1360   68.1360 H   0  0  0  0  0  0  0  0  0  0  0  0
  131.6045  128.6114   69.4261 H   0  0  0  0  0  0  0  0  0  0  0  0
  133.1238  128.8008   71.3888 H   0  0  0  0  0  0  0  0  0  0  0  0
  132.5259  127.6893   73.5337 H   0  0  0  0  0  0  0  0  0  0  0  0
  130.4141  126.3841   73.7290 H   0  0  0  0  0  0  0  0  0  0  0  0
  128.8914  126.1843   71.7676 H   0  0  0  0  0  0  0  0  0  0  0  0
  129.5764  126.8934   63.6681 H   0  0  0  0  0  0  0  0  0  0  0  0
  124.4240  131.5371   64.8487 H   0  0  0  0  0  0  0  0  0  0  0  0
  126.0546  131.5627   64.2633 H   0  0  0  0  0  0  0  0  0  0  0  0
  124.7617  131.8643   62.1731 H   0  0  0  0  0  0  0  0  0  0  0  0
  122.8910  129.9510   62.5520 H   0  0  0  0  0  0  0  0  0  0  0  0
  128.0747  134.7445   60.1010 H   0  0  0  0  0  0  0  0  0  0  0  0
  127.4050  136.9507   61.0324 H   0  0  0  0  0  0  0  0  0  0  0  0
  125.4251  137.1153   62.5341 H   0  0  0  0  0  0  0  0  0  0  0  0
  124.1097  135.0813   63.1059 H   0  0  0  0  0  0  0  0  0  0  0  0
  124.7750  132.8696   62.1799 H   0  0  0  0  0  0  0  0  0  0  0  0
  127.1381  130.7890   58.1869 H   0  0  0  0  0  0  0  0  0  0  0  0
  125.3648  130.1450   56.5655 H   0  0  0  0  0  0  0  0  0  0  0  0
  123.0153  130.8806   56.9398 H   0  0  0  0  0  0  0  0  0  0  0  0
  122.4328  132.2656   58.9244 H   0  0  0  0  0  0  0  0  0  0  0  0
  124.2008  132.9098   60.5505 H   0  0  0  0  0  0  0  0  0  0  0  0
  129.2290  131.5090   61.7446 H   0  0  0  0  0  0  0  0  0  0  0  0
  131.5488  131.4904   60.8617 H   0  0  0  0  0  0  0  0  0  0  0  0
  1  2  1  0
  2  3  1  0
  3  4  2  0
  4  5  1  0
  5  6  2  0
  6  7  1  0
  7  8  1  0
  8  9  1  0
  9 10  1  0
 10 11  1  0
 11 12  1  0
 12 13  1  0
 13 14  1  0
 14 15  2  0
 15 16  1  0
 16 17  2  0
 17 18  1  0
 18 19  1  0
 19 20  2  0
 19 21  1  0
 21 22  2  0
 22 23  1  0
 23 24  2  0
 24 25  1  0
 25 26  2  0
 17 27  1  0
 27 28  2  0
 28 29  1  0
 29 30  2  0
 12 31  1  0
 31 32  1  0
 32 33  1  0
  7 34  1  0
 34 35  2  0
 35 36  1  0
 36 37  2  0
 37 38  1  0
 38 39  2  0
  7 40  1  0
 40 41  2  0
 41 42  1  0
 42 43  2  0
 43 44  1  0
 44 45  2  0
  6 46  1  0
 46 47  2  0
 47  3  1  0
 32 10  1  0
 39 34  1  0
 45 40  1  0
 30 13  1  0
 30 16  1  0
 26 21  1  0
  1 48  1  0
  1 49  1  0
  1 50  1  0
  4 51  1  0
  5 52  1  0
  9 53  1  0
  9 54  1  0
 10 55  1  6
 12 56  1  1
 14 57  1  0
 18 58  1  0
 22 59  1  0
 23 60  1  0
 24 61  1  0
 25 62  1  0
 26 63  1  0
 28 64  1  0
 31 65  1  0
 31 66  1  0
 32 67  1  6
 33 68  1  0
 35 69  1  0
 36 70  1  0
 37 71  1  0
 38 72  1  0
 39 73  1  0
 41 74  1  0
 42 75  1  0
 43 76  1  0
 44 77  1  0
 45 78  1  0
 46 79  1  0
 47 80  1  0
M  END
>  <Binding energies>  (1) 
[-10.12]

>  <Ligand effiencies>  (1) 
[-0.20653061224489794]

>  <Interactions>  (1) 
["V-B:ASP:366:CG:8184, V-B:HIS:456:CE1:9041, V-B:GLU:543:CD:9879, V-B:ILE:369:CB:8207, V-A:ASP:366:CG:3212, V-A:GLU:543:CD:4908, V-B:TRP:381:CZ2:8341, V-A:GLU:543:CG:4907, V-B:LEU:475:CD1:9229, V-B:ILE:369:CG2:8208, V-B:TRP:381:CH2:8343, V-A:TYR:539:CE2:4876, V-A:TYR:539:CD2:4874, V-A:HIS:456:CE1:4069, V-A:HIS:456:CG:4065, V-A:GLU:543:CB:4906, V-A:ASP:366:CB:3211, V-A:GLY:544:C:4912, V-A:HIS:456:CD2:4067, V-A:ARG:545:CA:4919, H-B:GLY:454:N:9021, V-B:ASP:366:CB:8183, H-B:ARG:545:NH2:9899, V-A:PRO:540:CB:4885, V-A:PRO:540:CA:4883, H-B:TYR:484:OH:9319, V-B:ARG:545:CZ:9897, H-B:ASP:366:OD1:8185, H-B:ASP:366:OD2:8186, V-A:TYR:539:C:4867, H-A:GLU:543:OE2:4910, V-B:ASP:366:CA:8181, V-A:LEU:363:CA:3184, V-A:PRO:540:N:4884, V-A:LEU:363:CD1:3188, V-A:TYR:539:CZ:4877, V-B:ASP:366:C:8179, V-B:ASN:370:CB:8216"]

$$$$
RR8_A_Rahimova_2017
     RDKit          3D

 73 77  0  0  0  0  0  0  0  0999 V2000
  129.6170  128.9720   62.2040 O   0  0  0  0  0  0  0  0  0  0  0  0
  129.2920  128.2960   63.1870 C   0  0  0  0  0  0  0  0  0  0  0  0
  129.9570  127.1760   63.6090 O   0  0  0  0  0  0  0  0  0  0  0  0
  129.2340  125.9780   63.6710 C   0  0  1  0  0  0  0  0  0  0  0  0
  129.0900  125.3970   62.4070 O   0  0  0  0  0  0  0  0  0  0  0  0
  129.1960  123.9770   62.4620 C   0  0  2  0  0  0  0  0  0  0  0  0
  127.9280  123.3660   61.8410 C   0  0  0  0  0  0  0  0  0  0  0  0
  126.9130  124.3600   61.8000 O   0  0  0  0  0  0  0  0  0  0  0  0
  125.6170  123.8520   61.5150 C   0  0  0  0  0  0  0  0  0  0  0  0
  125.3700  123.8800   60.0140 C   0  0  0  0  0  0  0  0  0  0  0  0
  124.1610  124.3730   59.5150 C   0  0  0  0  0  0  0  0  0  0  0  0
  123.9360  124.4050   58.1410 C   0  0  0  0  0  0  0  0  0  0  0  0
  124.9210  123.9490   57.2680 C   0  0  0  0  0  0  0  0  0  0  0  0
  126.1320  123.4610   57.7570 C   0  0  0  0  0  0  0  0  0  0  0  0
  126.3580  123.4300   59.1300 C   0  0  0  0  0  0  0  0  0  0  0  0
  129.4080  123.6840   63.9530 C   0  0  1  0  0  0  0  0  0  0  0  0
  130.3370  122.6280   64.1910 O   0  0  0  0  0  0  0  0  0  0  0  0
  131.5020  122.6370   63.3730 C   0  0  0  0  0  0  0  0  0  0  0  0
  131.4080  121.5370   62.3250 C   0  0  0  0  0  0  0  0  0  0  0  0
  132.5270  121.2230   61.5470 C   0  0  0  0  0  0  0  0  0  0  0  0
  132.4460  120.2250   60.5800 C   0  0  0  0  0  0  0  0  0  0  0  0
  131.2440  119.5450   60.3890 C   0  0  0  0  0  0  0  0  0  0  0  0
  130.1230  119.8560   61.1540 C   0  0  0  0  0  0  0  0  0  0  0  0
  130.2040  120.8550   62.1210 C   0  0  0  0  0  0  0  0  0  0  0  0
  130.0350  124.9630   64.4750 C   0  0  2  0  0  0  0  0  0  0  0  0
  129.8490  125.0750   65.8840 O   0  0  0  0  0  0  0  0  0  0  0  0
  130.4600  126.2040   66.4990 C   0  0  0  0  0  0  0  0  0  0  0  0
  129.8390  126.4480   67.8660 C   0  0  0  0  0  0  0  0  0  0  0  0
  130.0620  127.6570   68.5350 C   0  0  0  0  0  0  0  0  0  0  0  0
  129.4840  127.8790   69.7820 C   0  0  0  0  0  0  0  0  0  0  0  0
  128.6810  126.8960   70.3560 C   0  0  0  0  0  0  0  0  0  0  0  0
  128.4500  125.6920   69.6940 C   0  0  0  0  0  0  0  0  0  0  0  0
  129.0280  125.4680   68.4460 C   0  0  0  0  0  0  0  0  0  0  0  0
  128.1170  128.6340   64.0570 C   0  0  0  0  0  0  0  0  0  0  0  0
  128.2120  128.6550   65.4580 C   0  0  0  0  0  0  0  0  0  0  0  0
  127.1040  128.9710   66.2380 C   0  0  0  0  0  0  0  0  0  0  0  0
  125.8720  129.2720   65.6410 C   0  0  0  0  0  0  0  0  0  0  0  0
  124.6920  129.6100   66.4730 N   0  0  0  0  0  0  0  0  0  0  0  0
  124.7940  129.5380   67.6950 O   0  0  0  0  0  0  0  0  0  0  0  0
  123.6550  129.9500   65.9120 O   0  0  0  0  0  0  0  0  0  0  0  0
  125.7770  129.2480   64.2440 C   0  0  0  0  0  0  0  0  0  0  0  0
  126.8840  128.9320   63.4620 C   0  0  0  0  0  0  0  0  0  0  0  0
  128.2533  126.2147   64.1095 H   0  0  0  0  0  0  0  0  0  0  0  0
  130.0220  123.5334   61.8867 H   0  0  0  0  0  0  0  0  0  0  0  0
  128.1467  123.0187   60.8204 H   0  0  0  0  0  0  0  0  0  0  0  0
  127.5901  122.5117   62.4460 H   0  0  0  0  0  0  0  0  0  0  0  0
  125.5431  122.8162   61.8778 H   0  0  0  0  0  0  0  0  0  0  0  0
  124.8639  124.4762   62.0183 H   0  0  0  0  0  0  0  0  0  0  0  0
  123.3872  124.7357   60.2076 H   0  0  0  0  0  0  0  0  0  0  0  0
  122.9837  124.7891   57.7465 H   0  0  0  0  0  0  0  0  0  0  0  0
  124.7418  123.9742   56.1830 H   0  0  0  0  0  0  0  0  0  0  0  0
  126.9049  123.1023   57.0613 H   0  0  0  0  0  0  0  0  0  0  0  0
  127.3140  123.0515   59.5210 H   0  0  0  0  0  0  0  0  0  0  0  0
  128.4606  123.3836   64.4243 H   0  0  0  0  0  0  0  0  0  0  0  0
  131.5879  123.6122   62.8714 H   0  0  0  0  0  0  0  0  0  0  0  0
  132.3874  122.4630   64.0021 H   0  0  0  0  0  0  0  0  0  0  0  0
  133.4719  121.7651   61.6994 H   0  0  0  0  0  0  0  0  0  0  0  0
  133.3260  119.9741   59.9696 H   0  0  0  0  0  0  0  0  0  0  0  0
  131.1806  118.7549   59.6263 H   0  0  0  0  0  0  0  0  0  0  0  0
  129.1782  119.3154   60.9954 H   0  0  0  0  0  0  0  0  0  0  0  0
  129.3201  121.1080   62.7250 H   0  0  0  0  0  0  0  0  0  0  0  0
  131.1241  125.0626   64.3567 H   0  0  0  0  0  0  0  0  0  0  0  0
  131.5376  126.0169   66.6161 H   0  0  0  0  0  0  0  0  0  0  0  0
  130.3031  127.0902   65.8665 H   0  0  0  0  0  0  0  0  0  0  0  0
  130.6937  128.4316   68.0757 H   0  0  0  0  0  0  0  0  0  0  0  0
  129.6607  128.8267   70.3118 H   0  0  0  0  0  0  0  0  0  0  0  0
  128.2249  127.0720   71.3414 H   0  0  0  0  0  0  0  0  0  0  0  0
  127.8141  124.9216   70.1545 H   0  0  0  0  0  0  0  0  0  0  0  0
  128.8463  124.5206   67.9175 H   0  0  0  0  0  0  0  0  0  0  0  0
  129.1708  128.4195   65.9430 H   0  0  0  0  0  0  0  0  0  0  0  0
  127.1958  128.9848   67.3341 H   0  0  0  0  0  0  0  0  0  0  0  0
  124.8173  129.4814   63.7597 H   0  0  0  0  0  0  0  0  0  0  0  0
  126.7900  128.9160   62.3661 H   0  0  0  0  0  0  0  0  0  0  0  0
  1  2  2  0
  2  3  1  0
  3  4  1  0
  4  5  1  0
  5  6  1  0
  6  7  1  0
  7  8  1  0
  8  9  1  0
  9 10  1  0
 10 11  2  0
 11 12  1  0
 12 13  2  0
 13 14  1  0
 14 15  2  0
  6 16  1  0
 16 17  1  0
 17 18  1  0
 18 19  1  0
 19 20  2  0
 20 21  1  0
 21 22  2  0
 22 23  1  0
 23 24  2  0
 16 25  1  0
 25 26  1  0
 26 27  1  0
 27 28  1  0
 28 29  2  0
 29 30  1  0
 30 31  2  0
 31 32  1  0
 32 33  2  0
  2 34  1  0
 34 35  2  0
 35 36  1  0
 36 37  2  0
 37 38  1  0
 38 39  2  0
 38 40  1  0
 37 41  1  0
 41 42  2  0
 25  4  1  0
 33 28  1  0
 42 34  1  0
 15 10  1  0
 24 19  1  0
  4 43  1  1
  6 44  1  6
  7 45  1  0
  7 46  1  0
  9 47  1  0
  9 48  1  0
 11 49  1  0
 12 50  1  0
 13 51  1  0
 14 52  1  0
 15 53  1  0
 16 54  1  1
 18 55  1  0
 18 56  1  0
 20 57  1  0
 21 58  1  0
 22 59  1  0
 23 60  1  0
 24 61  1  0
 25 62  1  1
 27 63  1  0
 27 64  1  0
 29 65  1  0
 30 66  1  0
 31 67  1  0
 32 68  1  0
 33 69  1  0
 35 70  1  0
 36 71  1  0
 41 72  1  0
 42 73  1  0
M  CHG  2  38   1  40  -1
M  END
>  <Binding energies>  (1) 
[-9.22]

>  <Ligand effiencies>  (1) 
[-0.21952380952380954]

>  <Interactions>  (1) 
["V-B:ASP:366:CG:8184, V-B:HIS:456:CE1:9041, V-B:GLU:543:CD:9879, V-A:LEU:475:CD2:4258, V-A:GLU:543:CD:4908, V-A:GLU:543:CG:4907, V-A:HIS:456:CE1:4069, V-B:TYR:539:CD2:9845, V-A:ILE:369:CG2:3236, V-A:GLU:543:CB:4906, V-B:TYR:539:CE2:9847, V-B:ALA:541:CB:9863, V-B:GLU:543:C:9873, V-B:GLU:543:CG:9878, V-B:GLU:543:CB:9877, H-B:GLY:454:N:9021, H-B:TYR:484:OH:9319, V-B:PRO:540:N:9855, V-A:TRP:381:CZ2:3369, V-B:PRO:540:CA:9854, V-A:TRP:381:CH2:3371, H-B:ARG:545:NE:9895, H-B:HIS:456:ND1:9038, V-B:ARG:545:CZ:9897, V-B:ARG:545:CG:9893, V-B:PRO:540:CB:9856, V-B:LEU:363:CA:8156, V-B:ARG:545:CD:9894, V-B:LEU:363:CD1:8160, V-B:GLU:543:CA:9875, V-A:PRO:482:CB:4325, V-A:PRO:482:CG:4326, V-B:ASN:362:C:8143, V-B:TYR:531:CE2:9764, V-B:LEU:363:CB:8158, V-A:TRP:381:CZ3:3370"]

$$$$
RR8_B_Rahimova_2017
     RDKit          3D

 73 77  0  0  0  0  0  0  0  0999 V2000
  129.3050  125.5650   67.2860 O   0  0  0  0  0  0  0  0  0  0  0  0
  128.7400  126.4350   67.9550 C   0  0  0  0  0  0  0  0  0  0  0  0
  127.8730  127.3610   67.4440 O   0  0  0  0  0  0  0  0  0  0  0  0
  128.4080  128.5440   66.9030 C   0  0  2  0  0  0  0  0  0  0  0  0
  127.5100  129.6140   66.9980 O   0  0  0  0  0  0  0  0  0  0  0  0
  126.6980  129.7180   65.8290 C   0  0  2  0  0  0  0  0  0  0  0  0
  125.2140  129.6160   66.2240 C   0  0  0  0  0  0  0  0  0  0  0  0
  124.4450  130.4620   65.3770 O   0  0  0  0  0  0  0  0  0  0  0  0
  124.3080  130.0030   64.0400 C   0  0  0  0  0  0  0  0  0  0  0  0
  124.2190  131.2010   63.1070 C   0  0  0  0  0  0  0  0  0  0  0  0
  124.2210  131.0040   61.7230 C   0  0  0  0  0  0  0  0  0  0  0  0
  124.1640  132.0970   60.8620 C   0  0  0  0  0  0  0  0  0  0  0  0
  124.1020  133.3860   61.3900 C   0  0  0  0  0  0  0  0  0  0  0  0
  124.0930  133.5900   62.7680 C   0  0  0  0  0  0  0  0  0  0  0  0
  124.1530  132.4960   63.6280 C   0  0  0  0  0  0  0  0  0  0  0  0
  127.2130  128.6060   64.9080 C   0  0  1  0  0  0  0  0  0  0  0  0
  127.1530  129.0370   63.5460 O   0  0  0  0  0  0  0  0  0  0  0  0
  128.3050  129.7030   63.0230 C   0  0  0  0  0  0  0  0  0  0  0  0
  128.0320  131.1710   62.7100 C   0  0  0  0  0  0  0  0  0  0  0  0
  127.6920  132.0550   63.7370 C   0  0  0  0  0  0  0  0  0  0  0  0
  127.4740  133.4010   63.4530 C   0  0  0  0  0  0  0  0  0  0  0  0
  127.5930  133.8560   62.1420 C   0  0  0  0  0  0  0  0  0  0  0  0
  127.9270  132.9800   61.1120 C   0  0  0  0  0  0  0  0  0  0  0  0
  128.1480  131.6340   61.3960 C   0  0  0  0  0  0  0  0  0  0  0  0
  128.6350  128.3620   65.4030 C   0  0  2  0  0  0  0  0  0  0  0  0
  129.0690  127.0530   65.0420 O   0  0  0  0  0  0  0  0  0  0  0  0
  129.9640  126.9850   63.9420 C   0  0  0  0  0  0  0  0  0  0  0  0
  131.2430  126.3150   64.4110 C   0  0  0  0  0  0  0  0  0  0  0  0
  131.5190  126.1980   65.7760 C   0  0  0  0  0  0  0  0  0  0  0  0
  132.7050  125.5990   66.1940 C   0  0  0  0  0  0  0  0  0  0  0  0
  133.6090  125.1210   65.2490 C   0  0  0  0  0  0  0  0  0  0  0  0
  133.3390  125.2340   63.8860 C   0  0  0  0  0  0  0  0  0  0  0  0
  132.1540  125.8310   63.4670 C   0  0  0  0  0  0  0  0  0  0  0  0
  128.9640  126.6120   69.4290 C   0  0  0  0  0  0  0  0  0  0  0  0
  129.7640  127.6470   69.9360 C   0  0  0  0  0  0  0  0  0  0  0  0
  129.9610  127.7810   71.3060 C   0  0  0  0  0  0  0  0  0  0  0  0
  129.3730  126.8820   72.2030 C   0  0  0  0  0  0  0  0  0  0  0  0
  129.6060  127.0110   73.6630 N   0  0  0  0  0  0  0  0  0  0  0  0
  129.0110  126.2520   74.4240 O   0  0  0  0  0  0  0  0  0  0  0  0
  130.3890  127.8710   74.0600 O   0  0  0  0  0  0  0  0  0  0  0  0
  128.5680  125.8520   71.6970 C   0  0  0  0  0  0  0  0  0  0  0  0
  128.3650  125.7210   70.3270 C   0  0  0  0  0  0  0  0  0  0  0  0
  129.3318  128.7513   67.4629 H   0  0  0  0  0  0  0  0  0  0  0  0
  126.7640  130.6803   65.3003 H   0  0  0  0  0  0  0  0  0  0  0  0
  124.8741  128.5759   66.1117 H   0  0  0  0  0  0  0  0  0  0  0  0
  125.0881  129.9285   67.2711 H   0  0  0  0  0  0  0  0  0  0  0  0
  125.1808  129.3904   63.7700 H   0  0  0  0  0  0  0  0  0  0  0  0
  123.3956  129.3952   63.9494 H   0  0  0  0  0  0  0  0  0  0  0  0
  124.2677  129.9841   61.3135 H   0  0  0  0  0  0  0  0  0  0  0  0
  124.1679  131.9445   59.7726 H   0  0  0  0  0  0  0  0  0  0  0  0
  124.0598  134.2507   60.7114 H   0  0  0  0  0  0  0  0  0  0  0  0
  124.0388  134.6105   63.1751 H   0  0  0  0  0  0  0  0  0  0  0  0
  124.1484  132.6513   64.7170 H   0  0  0  0  0  0  0  0  0  0  0  0
  126.6206  127.6796   64.9371 H   0  0  0  0  0  0  0  0  0  0  0  0
  129.1150  129.6441   63.7649 H   0  0  0  0  0  0  0  0  0  0  0  0
  128.5845  129.2045   62.0831 H   0  0  0  0  0  0  0  0  0  0  0  0
  127.5965  131.6881   64.7696 H   0  0  0  0  0  0  0  0  0  0  0  0
  127.2094  134.1007   64.2595 H   0  0  0  0  0  0  0  0  0  0  0  0
  127.4213  134.9191   61.9176 H   0  0  0  0  0  0  0  0  0  0  0  0
  128.0159  133.3490   60.0795 H   0  0  0  0  0  0  0  0  0  0  0  0
  128.4133  130.9368   60.5876 H   0  0  0  0  0  0  0  0  0  0  0  0
  129.4230  129.0108   64.9930 H   0  0  0  0  0  0  0  0  0  0  0  0
  129.5118  126.3967   63.1300 H   0  0  0  0  0  0  0  0  0  0  0  0
  130.1807  127.9957   63.5658 H   0  0  0  0  0  0  0  0  0  0  0  0
  130.8016  126.5779   66.5183 H   0  0  0  0  0  0  0  0  0  0  0  0
  132.9267  125.5039   67.2672 H   0  0  0  0  0  0  0  0  0  0  0  0
  134.5456  124.6495   65.5813 H   0  0  0  0  0  0  0  0  0  0  0  0
  134.0585  124.8534   63.1461 H   0  0  0  0  0  0  0  0  0  0  0  0
  131.9339  125.9222   62.3931 H   0  0  0  0  0  0  0  0  0  0  0  0
  130.2392  128.3582   69.2443 H   0  0  0  0  0  0  0  0  0  0  0  0
  130.5853  128.6019   71.6886 H   0  0  0  0  0  0  0  0  0  0  0  0
  128.0928  125.1413   72.3891 H   0  0  0  0  0  0  0  0  0  0  0  0
  127.7277  124.9095   69.9458 H   0  0  0  0  0  0  0  0  0  0  0  0
  1  2  2  0
  2  3  1  0
  3  4  1  0
  4  5  1  0
  5  6  1  0
  6  7  1  0
  7  8  1  0
  8  9  1  0
  9 10  1  0
 10 11  2  0
 11 12  1  0
 12 13  2  0
 13 14  1  0
 14 15  2  0
  6 16  1  0
 16 17  1  0
 17 18  1  0
 18 19  1  0
 19 20  2  0
 20 21  1  0
 21 22  2  0
 22 23  1  0
 23 24  2  0
 16 25  1  0
 25 26  1  0
 26 27  1  0
 27 28  1  0
 28 29  2  0
 29 30  1  0
 30 31  2  0
 31 32  1  0
 32 33  2  0
  2 34  1  0
 34 35  2  0
 35 36  1  0
 36 37  2  0
 37 38  1  0
 38 39  2  0
 38 40  1  0
 37 41  1  0
 41 42  2  0
 25  4  1  0
 33 28  1  0
 42 34  1  0
 15 10  1  0
 24 19  1  0
  4 43  1  1
  6 44  1  6
  7 45  1  0
  7 46  1  0
  9 47  1  0
  9 48  1  0
 11 49  1  0
 12 50  1  0
 13 51  1  0
 14 52  1  0
 15 53  1  0
 16 54  1  6
 18 55  1  0
 18 56  1  0
 20 57  1  0
 21 58  1  0
 22 59  1  0
 23 60  1  0
 24 61  1  0
 25 62  1  6
 27 63  1  0
 27 64  1  0
 29 65  1  0
 30 66  1  0
 31 67  1  0
 32 68  1  0
 33 69  1  0
 35 70  1  0
 36 71  1  0
 41 72  1  0
 42 73  1  0
M  CHG  2  38   1  40  -1
M  END
>  <Binding energies>  (1) 
[-9.02]

>  <Ligand effiencies>  (1) 
[-0.21476190476190476]

>  <Interactions>  (1) 
["V-B:ASP:366:CG:8184, V-B:HIS:456:CE1:9041, V-A:ARG:545:CZ:4926, V-B:GLU:543:CD:9879, V-A:GLU:543:CD:4908, V-B:GLY:454:CA:9020, V-A:ALA:541:CB:4892, V-B:ILE:369:CD1:8210, V-A:GLU:543:CG:4907, V-B:LEU:475:CD1:9229, V-B:ILE:369:CG2:8208, V-A:GLY:454:CA:4048, V-A:HIS:456:CE1:4069, V-B:GLU:543:C:9873, V-B:GLU:543:CG:9878, V-B:GLU:543:CB:9877, H-B:GLY:454:N:9021, H-B:LYS:547:NZ:9922, H-B:TYR:484:OH:9319, H-A:LYS:547:NZ:4951, V-B:ARG:545:CZ:9897, V-A:ARG:545:CD:4923"]

$$$$
RR9_Rahimova_2017
     RDKit          3D

 64 68  0  0  0  0  0  0  0  0999 V2000
  128.7400  131.0630   72.6890 C   0  0  0  0  0  0  0  0  0  0  0  0
  128.6560  130.3820   71.3190 C   0  0  0  0  0  0  0  0  0  0  0  0
  128.9800  129.0030   71.4730 O   0  0  0  0  0  0  0  0  0  0  0  0
  129.5190  128.3100   70.4060 C   0  0  0  0  0  0  0  0  0  0  0  0
  128.6650  127.4410   69.7310 C   0  0  0  0  0  0  0  0  0  0  0  0
  129.1210  126.6990   68.6460 C   0  0  0  0  0  0  0  0  0  0  0  0
  130.4480  126.8060   68.2040 C   0  0  0  0  0  0  0  0  0  0  0  0
  130.9460  126.0050   67.0380 C   0  0  0  0  0  0  0  0  0  0  0  0
  130.1340  125.0570   66.3950 C   0  0  0  0  0  0  0  0  0  0  0  0
  130.6020  124.3180   65.2940 C   0  0  0  0  0  0  0  0  0  0  0  0
  129.6510  123.3920   64.5860 C   0  0  0  0  0  0  0  0  0  0  0  0
  129.7480  122.1730   64.7270 O   0  0  0  0  0  0  0  0  0  0  0  0
  128.7350  123.9860   63.7950 N   0  0  0  0  0  0  0  0  0  0  0  0
  127.7910  123.2990   62.9070 C   0  0  0  0  0  0  0  0  0  0  0  0
  127.9110  123.7480   61.4320 C   0  0  0  0  0  0  0  0  0  0  0  0
  126.5820  123.8720   60.6950 C   0  0  0  0  0  0  0  0  0  0  0  0
  126.5550  123.8910   59.2960 C   0  0  0  0  0  0  0  0  0  0  0  0
  125.3370  123.9700   58.6260 C   0  0  0  0  0  0  0  0  0  0  0  0
  124.1520  124.0360   59.3550 C   0  0  0  0  0  0  0  0  0  0  0  0
  124.1720  124.0220   60.7480 C   0  0  0  0  0  0  0  0  0  0  0  0
  125.3900  123.9420   61.4190 C   0  0  0  0  0  0  0  0  0  0  0  0
  131.9400  124.5610   64.8980 C   0  0  0  0  0  0  0  0  0  0  0  0
  132.8870  124.0860   63.9170 C   0  0  0  0  0  0  0  0  0  0  0  0
  132.7460  122.9830   62.9200 C   0  0  0  0  0  0  0  0  0  0  0  0
  133.7410  122.0080   62.8050 C   0  0  0  0  0  0  0  0  0  0  0  0
  133.6160  120.9890   61.8630 C   0  0  0  0  0  0  0  0  0  0  0  0
  132.4930  120.9400   61.0360 C   0  0  0  0  0  0  0  0  0  0  0  0
  132.3640  119.8410   59.9970 C   0  0  0  0  0  0  0  0  0  0  0  0
  131.4980  121.9130   61.1470 C   0  0  0  0  0  0  0  0  0  0  0  0
  131.6240  122.9290   62.0900 C   0  0  0  0  0  0  0  0  0  0  0  0
  134.0120  124.7590   63.9970 N   0  0  0  0  0  0  0  0  0  0  0  0
  133.9030  125.6270   65.0160 N   0  0  0  0  0  0  0  0  0  0  0  0
  132.6660  125.5440   65.6120 C   0  0  0  0  0  0  0  0  0  0  0  0
  132.2280  126.2560   66.6490 N   0  0  0  0  0  0  0  0  0  0  0  0
  131.3020  127.6810   68.8900 C   0  0  0  0  0  0  0  0  0  0  0  0
  130.8480  128.4260   69.9760 C   0  0  0  0  0  0  0  0  0  0  0  0
  128.6466  130.3057   73.4813 H   0  0  0  0  0  0  0  0  0  0  0  0
  129.7083  131.5762   72.7846 H   0  0  0  0  0  0  0  0  0  0  0  0
  127.9255  131.7961   72.7846 H   0  0  0  0  0  0  0  0  0  0  0  0
  127.6360  130.4800   70.9190 H   0  0  0  0  0  0  0  0  0  0  0  0
  129.3612  130.8567   70.6209 H   0  0  0  0  0  0  0  0  0  0  0  0
  127.6199  127.3404   70.0590 H   0  0  0  0  0  0  0  0  0  0  0  0
  128.4304  126.0181   68.1269 H   0  0  0  0  0  0  0  0  0  0  0  0
  129.1101  124.8889   66.7602 H   0  0  0  0  0  0  0  0  0  0  0  0
  128.6750  124.9930   63.8090 H   0  0  0  0  0  0  0  0  0  0  0  0
  127.9834  122.2173   62.9607 H   0  0  0  0  0  0  0  0  0  0  0  0
  126.7761  123.5535   63.2464 H   0  0  0  0  0  0  0  0  0  0  0  0
  128.4073  124.7295   61.4116 H   0  0  0  0  0  0  0  0  0  0  0  0
  128.4825  122.9641   60.9135 H   0  0  0  0  0  0  0  0  0  0  0  0
  127.4948  123.8436   58.7264 H   0  0  0  0  0  0  0  0  0  0  0  0
  125.3107  123.9802   57.5264 H   0  0  0  0  0  0  0  0  0  0  0  0
  123.1901  124.0999   58.8252 H   0  0  0  0  0  0  0  0  0  0  0  0
  123.2308  124.0739   61.3150 H   0  0  0  0  0  0  0  0  0  0  0  0
  125.4129  123.9340   62.5187 H   0  0  0  0  0  0  0  0  0  0  0  0
  134.6244  122.0453   63.4594 H   0  0  0  0  0  0  0  0  0  0  0  0
  134.4014  120.2243   61.7713 H   0  0  0  0  0  0  0  0  0  0  0  0
  132.2501  118.8705   60.5021 H   0  0  0  0  0  0  0  0  0  0  0  0
  131.4822  120.0328   59.3680 H   0  0  0  0  0  0  0  0  0  0  0  0
  133.2662  119.8233   59.3680 H   0  0  0  0  0  0  0  0  0  0  0  0
  130.6161  121.8768   60.4905 H   0  0  0  0  0  0  0  0  0  0  0  0
  130.8371  123.6921   62.1819 H   0  0  0  0  0  0  0  0  0  0  0  0
  134.6710  126.2360   65.2580 H   0  0  0  0  0  0  0  0  0  0  0  0
  132.3482  127.7809   68.5652 H   0  0  0  0  0  0  0  0  0  0  0  0
  131.5352  129.1080   70.4981 H   0  0  0  0  0  0  0  0  0  0  0  0
  1  2  1  0
  2  3  1  0
  3  4  1  0
  4  5  2  0
  5  6  1  0
  6  7  2  0
  7  8  1  0
  8  9  2  0
  9 10  1  0
 10 11  1  0
 11 12  2  0
 11 13  1  0
 13 14  1  0
 14 15  1  0
 15 16  1  0
 16 17  2  0
 17 18  1  0
 18 19  2  0
 19 20  1  0
 20 21  2  0
 10 22  2  0
 22 23  1  0
 23 24  1  0
 24 25  2  0
 25 26  1  0
 26 27  2  0
 27 28  1  0
 27 29  1  0
 29 30  2  0
 23 31  2  0
 31 32  1  0
 32 33  1  0
 33 34  2  0
  7 35  1  0
 35 36  2  0
 36  4  1  0
 34  8  1  0
 21 16  1  0
 33 22  1  0
 30 24  1  0
  1 37  1  0
  1 38  1  0
  1 39  1  0
  2 40  1  0
  2 41  1  0
  5 42  1  0
  6 43  1  0
  9 44  1  0
 13 45  1  0
 14 46  1  0
 14 47  1  0
 15 48  1  0
 15 49  1  0
 17 50  1  0
 18 51  1  0
 19 52  1  0
 20 53  1  0
 21 54  1  0
 25 55  1  0
 26 56  1  0
 28 57  1  0
 28 58  1  0
 28 59  1  0
 29 60  1  0
 30 61  1  0
 32 62  1  0
 35 63  1  0
 36 64  1  0
M  END
>  <Binding energies>  (1) 
[-9.22]

>  <Ligand effiencies>  (1) 
[-0.24263157894736845]

>  <Interactions>  (1) 
["V-B:HIS:456:CE1:9041, V-A:ARG:545:CZ:4926, V-B:GLU:543:CD:9879, V-A:LEU:475:CD2:4258, V-A:GLU:543:CD:4908, V-A:ILE:369:CD1:3238, V-A:GLY:453:CA:4043, V-A:GLY:454:CA:4048, V-A:HIS:456:CE1:4069, V-B:TYR:539:CD2:9845, V-B:HIS:456:CD2:9039, V-A:ILE:369:CG2:3236, V-B:HIS:456:CG:9037, V-A:GLU:543:CB:4906, V-B:TYR:539:CE2:9847, V-B:ALA:541:CB:9863, V-A:ARG:545:CG:4922, V-B:GLU:543:CG:9878, V-B:TYR:484:CE1:9316, H-B:GLU:543:OE2:9881, H-A:TYR:484:OH:4347, V-B:ALA:541:CA:9861, V-A:TRP:381:CZ2:3369, V-B:PRO:540:CA:9854, V-A:TRP:381:CH2:3371, H-A:ARG:545:NE:4924, H-A:GLY:454:N:4049, V-B:PRO:540:CB:9856, V-A:ARG:545:CD:4923, V-B:LEU:363:CA:8156, V-B:ASN:362:CB:8147, V-B:ASN:362:C:8143, V-A:TRP:381:CZ3:3370"]

$$$$
