1a_Grossjean_2025
     RDKit          3D

 26 27  0  0  0  0  0  0  0  0999 V2000
  127.8300  131.9320   72.9090 C   0  0  0  0  0  0  0  0  0  0  0  0
  128.6160  130.8690   72.1360 C   0  0  0  0  0  0  0  0  0  0  0  0
  128.6590  129.6660   72.8940 O   0  0  0  0  0  0  0  0  0  0  0  0
  129.7080  128.8090   72.7890 C   0  0  0  0  0  0  0  0  0  0  0  0
  130.4970  128.5860   73.7120 O   0  0  0  0  0  0  0  0  0  0  0  0
  129.8210  128.1720   71.4340 C   0  0  0  0  0  0  0  0  0  0  0  0
  130.7840  128.6460   70.5340 C   0  0  0  0  0  0  0  0  0  0  0  0
  130.9100  128.0790   69.2690 C   0  0  0  0  0  0  0  0  0  0  0  0
  130.0780  127.0310   68.8770 C   0  0  0  0  0  0  0  0  0  0  0  0
  130.2920  126.5360   67.5750 N   0  0  0  0  0  0  0  0  0  0  0  0
  129.9690  125.3410   67.0370 C   0  0  0  0  0  0  0  0  0  0  0  0
  129.3960  124.4230   67.6250 O   0  0  0  0  0  0  0  0  0  0  0  0
  130.3660  125.1530   65.5710 C   0  0  0  0  0  0  0  0  0  0  0  0
  130.5130  123.3980   65.1200 S   0  0  0  0  0  0  0  0  0  0  0  0
  130.9270  123.3240   63.3920 C   0  0  0  0  0  0  0  0  0  0  0  0
  129.9790  122.7250   62.6270 N   0  0  0  0  0  0  0  0  0  0  0  0
  130.1950  122.6100   61.2960 C   0  0  0  0  0  0  0  0  0  0  0  0
  129.0980  121.9180   60.5080 C   0  0  0  0  0  0  0  0  0  0  0  0
  131.3460  123.0910   60.6750 C   0  0  0  0  0  0  0  0  0  0  0  0
  132.3190  123.7290   61.4510 C   0  0  0  0  0  0  0  0  0  0  0  0
  133.5660  124.2630   60.7480 C   0  0  0  0  0  0  0  0  0  0  0  0
  132.1150  123.8640   62.8440 C   0  0  0  0  0  0  0  0  0  0  0  0
  133.0980  124.5720   63.6690 C   0  0  0  0  0  0  0  0  0  0  0  0
  133.8750  125.1310   64.3180 N   0  0  0  0  0  0  0  0  0  0  0  0
  129.1160  126.5440   69.7750 C   0  0  0  0  0  0  0  0  0  0  0  0
  128.9900  127.1120   71.0390 C   0  0  0  0  0  0  0  0  0  0  0  0
  1  2  1  0
  2  3  1  0
  3  4  1  0
  4  5  2  0
  4  6  1  0
  6  7  2  0
  7  8  1  0
  8  9  2  0
  9 10  1  0
 10 11  1  0
 11 12  2  0
 11 13  1  0
 13 14  1  0
 14 15  1  0
 15 16  2  0
 16 17  1  0
 17 18  1  0
 17 19  2  0
 19 20  1  0
 20 21  1  0
 20 22  2  0
 22 23  1  0
 23 24  3  0
  9 25  1  0
 25 26  2  0
 26  6  1  0
 22 15  1  0
M  END
>  <Binding energies>  (1) 
[-7.3]

>  <Ligand effiencies>  (1) 
[-0.27037037037037037]

>  <Interactions>  (1) 
["V-B:HIS:456:CE1:9041, V-B:GLU:543:CD:9879, V-A:ASP:366:CG:3212, V-A:GLU:543:CD:4908, V-A:ILE:369:CD1:3238, V-A:GLU:543:CG:4907, H-A:ARG:545:NH2:4928, V-A:HIS:456:CE1:4069, V-B:TYR:539:CD2:9845, V-A:ILE:369:CG2:3236, V-B:HIS:456:CG:9037, V-A:GLU:543:CB:4906, V-B:TYR:539:CE2:9847, V-A:ILE:369:CB:3235, V-B:ALA:541:CB:9863, V-B:TYR:484:CD1:9314, V-B:GLU:543:CG:9878, V-B:GLU:543:CB:9877, V-B:TYR:484:CE1:9316, H-A:LYS:547:NZ:4951, H-A:TYR:484:OH:4347, V-B:HIS:456:CB:9036, H-A:GLY:454:N:4049, V-B:TYR:484:CG:9313, H-A:GLU:543:OE2:4910, H-A:ARG:545:NH1:4927"]

$$$$
1aa_Ghoteimi_2023
     RDKit          3D

 40 43  0  0  0  0  0  0  0  0999 V2000
  128.8530  131.1910   73.5200 C   0  0  0  0  0  0  0  0  0  0  0  0
  129.3710  130.0400   72.6530 C   0  0  0  0  0  0  0  0  0  0  0  0
  130.1800  129.1780   73.4450 O   0  0  0  0  0  0  0  0  0  0  0  0
  130.5120  127.9350   73.0110 C   0  0  0  0  0  0  0  0  0  0  0  0
  130.8980  127.0330   73.7620 O   0  0  0  0  0  0  0  0  0  0  0  0
  130.3640  127.7640   71.5270 C   0  0  0  0  0  0  0  0  0  0  0  0
  131.3110  128.2680   70.6230 C   0  0  0  0  0  0  0  0  0  0  0  0
  131.1480  128.0940   69.2510 C   0  0  0  0  0  0  0  0  0  0  0  0
  130.0290  127.4070   68.7570 C   0  0  0  0  0  0  0  0  0  0  0  0
  129.7590  127.1720   67.3960 N   0  0  0  0  0  0  0  0  0  0  0  0
  129.7520  126.0170   66.6910 C   0  0  0  0  0  0  0  0  0  0  0  0
  129.9930  124.9050   67.1590 O   0  0  0  0  0  0  0  0  0  0  0  0
  129.4170  126.1090   65.1940 C   0  0  0  0  0  0  0  0  0  0  0  0
  130.5030  125.6090   64.4040 O   0  0  0  0  0  0  0  0  0  0  0  0
  130.2800  124.6390   63.4370 C   0  0  0  0  0  0  0  0  0  0  0  0
  129.0950  124.6620   62.7680 N   0  0  0  0  0  0  0  0  0  0  0  0
  128.8330  123.7200   61.8240 C   0  0  0  0  0  0  0  0  0  0  0  0
  127.5050  123.8170   61.1290 C   0  0  0  0  0  0  0  0  0  0  0  0
  126.3140  123.9320   61.8620 C   0  0  0  0  0  0  0  0  0  0  0  0
  125.0810  124.0200   61.2210 C   0  0  0  0  0  0  0  0  0  0  0  0
  125.0000  123.9970   59.8300 C   0  0  0  0  0  0  0  0  0  0  0  0
  123.7350  124.0880   59.2820 O   0  0  0  0  0  0  0  0  0  0  0  0
  123.4980  125.0240   58.2350 C   0  0  0  0  0  0  0  0  0  0  0  0
  126.1820  123.8870   59.0840 C   0  0  0  0  0  0  0  0  0  0  0  0
  127.4130  123.8000   59.7280 C   0  0  0  0  0  0  0  0  0  0  0  0
  129.7790  122.7350   61.5170 C   0  0  0  0  0  0  0  0  0  0  0  0
  131.0120  122.6950   62.1840 C   0  0  0  0  0  0  0  0  0  0  0  0
  131.9820  121.6260   61.8040 C   0  0  0  0  0  0  0  0  0  0  0  0
  131.5680  120.5480   61.0160 C   0  0  0  0  0  0  0  0  0  0  0  0
  132.4690  119.5520   60.6490 C   0  0  0  0  0  0  0  0  0  0  0  0
  133.8010  119.6150   61.0560 C   0  0  0  0  0  0  0  0  0  0  0  0
  134.6230  118.5830   60.6450 O   0  0  0  0  0  0  0  0  0  0  0  0
  135.1740  118.6150   59.3340 C   0  0  0  0  0  0  0  0  0  0  0  0
  134.2230  120.7000   61.8400 C   0  0  0  0  0  0  0  0  0  0  0  0
  133.3200  121.6940   62.2060 C   0  0  0  0  0  0  0  0  0  0  0  0
  131.2640  123.6690   63.1770 C   0  0  0  0  0  0  0  0  0  0  0  0
  132.5030  123.6810   63.9560 C   0  0  0  0  0  0  0  0  0  0  0  0
  133.4820  123.6920   64.5730 N   0  0  0  0  0  0  0  0  0  0  0  0
  129.0840  126.9060   69.6530 C   0  0  0  0  0  0  0  0  0  0  0  0
  129.2480  127.0810   71.0240 C   0  0  0  0  0  0  0  0  0  0  0  0
  1  2  1  0
  2  3  1  0
  3  4  1  0
  4  5  2  0
  4  6  1  0
  6  7  2  0
  7  8  1  0
  8  9  2  0
  9 10  1  0
 10 11  1  0
 11 12  2  0
 11 13  1  0
 13 14  1  0
 14 15  1  0
 15 16  2  0
 16 17  1  0
 17 18  1  0
 18 19  2  0
 19 20  1  0
 20 21  2  0
 21 22  1  0
 22 23  1  0
 21 24  1  0
 24 25  2  0
 17 26  2  0
 26 27  1  0
 27 28  1  0
 28 29  2  0
 29 30  1  0
 30 31  2  0
 31 32  1  0
 32 33  1  0
 31 34  1  0
 34 35  2  0
 27 36  2  0
 36 37  1  0
 37 38  3  0
  9 39  1  0
 39 40  2  0
 40  6  1  0
 36 15  1  0
 25 18  1  0
 35 28  1  0
M  END
>  <Binding energies>  (2) 
[-9.12]

>  <Ligand effiencies>  (2) 
[-0.22243902439024388]

>  <Interactions>  (2) 
["V-B:ASP:366:CG:8184, V-B:HIS:456:CE1:9041, V-B:GLU:543:CD:9879, V-A:LEU:475:CD2:4258, V-A:GLU:543:CD:4908, V-A:ILE:369:CD1:3238, V-A:GLU:543:CG:4907, V-A:GLY:454:CA:4048, V-A:HIS:456:CE1:4069, V-B:TYR:539:CD2:9845, V-A:ILE:369:CG2:3236, V-A:GLU:543:CB:4906, V-B:TYR:539:CE2:9847, V-B:ALA:541:CB:9863, V-A:ARG:545:CG:4922, V-B:GLU:543:CG:9878, V-B:ASP:366:CB:8183, H-A:LYS:547:NZ:4951, H-A:TYR:484:OH:4347, V-A:SER:385:C:3404, V-A:TRP:381:CZ2:3369, V-A:SER:385:CA:3406, V-B:PRO:540:CA:9854, V-A:TRP:381:CH2:3371, H-A:GLY:454:N:4049, V-B:PRO:540:CB:9856, H-A:GLU:543:OE1:4909, H-A:GLU:543:OE2:4910, V-B:LEU:363:CA:8156, V-B:ASN:362:CB:8147, V-B:LEU:363:CD1:8160, V-A:ILE:369:CG1:3237, V-B:LEU:363:C:8154, V-B:TYR:531:CE2:9764, V-B:LEU:363:CB:8158, V-A:TRP:381:CZ3:3370, V-B:TYR:531:CZ:9765, H-B:LEU:363:N:8157"]

$$$$
1b_Grossjean_2025
     RDKit          3D

 25 26  0  0  0  0  0  0  0  0999 V2000
  128.6300  130.8600   72.1350 C   0  0  0  0  0  0  0  0  0  0  0  0
  129.8710  130.4320   72.6790 O   0  0  0  0  0  0  0  0  0  0  0  0
  130.2050  129.1170   72.7070 C   0  0  0  0  0  0  0  0  0  0  0  0
  130.4120  128.4890   73.7510 O   0  0  0  0  0  0  0  0  0  0  0  0
  130.2890  128.4960   71.3420 C   0  0  0  0  0  0  0  0  0  0  0  0
  129.2410  127.7310   70.8080 C   0  0  0  0  0  0  0  0  0  0  0  0
  129.3510  127.1690   69.5400 C   0  0  0  0  0  0  0  0  0  0  0  0
  130.5060  127.3570   68.7800 C   0  0  0  0  0  0  0  0  0  0  0  0
  130.5080  126.7410   67.5140 N   0  0  0  0  0  0  0  0  0  0  0  0
  130.0340  125.5350   67.1310 C   0  0  0  0  0  0  0  0  0  0  0  0
  129.4790  124.7190   67.8660 O   0  0  0  0  0  0  0  0  0  0  0  0
  130.2120  125.2010   65.6490 C   0  0  0  0  0  0  0  0  0  0  0  0
  130.4660  123.4230   65.3730 S   0  0  0  0  0  0  0  0  0  0  0  0
  130.9900  123.2180   63.6840 C   0  0  0  0  0  0  0  0  0  0  0  0
  130.1460  122.4620   62.9380 N   0  0  0  0  0  0  0  0  0  0  0  0
  130.4480  122.2430   61.6370 C   0  0  0  0  0  0  0  0  0  0  0  0
  129.4510  121.4020   60.8600 C   0  0  0  0  0  0  0  0  0  0  0  0
  131.5960  122.7530   61.0350 C   0  0  0  0  0  0  0  0  0  0  0  0
  132.4840  123.5150   61.8020 C   0  0  0  0  0  0  0  0  0  0  0  0
  133.7440  124.0500   61.1250 C   0  0  0  0  0  0  0  0  0  0  0  0
  132.1900  123.7570   63.1630 C   0  0  0  0  0  0  0  0  0  0  0  0
  133.1260  124.5150   63.9970 C   0  0  0  0  0  0  0  0  0  0  0  0
  133.8680  125.1130   64.6520 N   0  0  0  0  0  0  0  0  0  0  0  0
  131.5580  128.1200   69.3060 C   0  0  0  0  0  0  0  0  0  0  0  0
  131.4470  128.6830   70.5740 C   0  0  0  0  0  0  0  0  0  0  0  0
  1  2  1  0
  2  3  1  0
  3  4  2  0
  3  5  1  0
  5  6  2  0
  6  7  1  0
  7  8  2  0
  8  9  1  0
  9 10  1  0
 10 11  2  0
 10 12  1  0
 12 13  1  0
 13 14  1  0
 14 15  2  0
 15 16  1  0
 16 17  1  0
 16 18  2  0
 18 19  1  0
 19 20  1  0
 19 21  2  0
 21 22  1  0
 22 23  3  0
  8 24  1  0
 24 25  2  0
 25  5  1  0
 21 14  1  0
M  END
>  <Binding energies>  (3) 
[-7.23]

>  <Ligand effiencies>  (3) 
[-0.2780769230769231]

>  <Interactions>  (3) 
["V-B:HIS:456:CE1:9041, V-B:GLU:543:CD:9879, V-A:GLU:543:CD:4908, V-A:ILE:369:CD1:3238, V-A:HIS:456:CE1:4069, V-B:TYR:539:CD2:9845, V-A:GLU:543:C:4902, V-A:ILE:369:CG2:3236, V-B:HIS:456:CG:9037, V-A:GLU:543:CB:4906, V-B:TYR:539:CE2:9847, V-A:ILE:369:CB:3235, V-A:GLY:544:C:4912, V-B:ALA:541:CB:9863, V-A:ARG:545:CG:4922, V-B:TYR:484:CD1:9314, V-B:GLU:543:CG:9878, V-B:GLU:543:CB:9877, V-A:ARG:545:CA:4919, V-B:TYR:484:CE1:9316, H-A:LYS:547:NZ:4951, H-A:TYR:484:OH:4347, H-A:ARG:545:NE:4924, H-A:GLY:454:N:4049, H-A:GLU:543:OE1:4909, H-A:GLU:543:OE2:4910, H-A:ARG:545:NH1:4927"]

$$$$
1c_Grossjean_2025
     RDKit          3D

 23 24  0  0  0  0  0  0  0  0999 V2000
  129.7410  130.5390   73.5010 C   0  0  0  0  0  0  0  0  0  0  0  0
  130.5040  129.3600   73.2690 O   0  0  0  0  0  0  0  0  0  0  0  0
  130.5470  128.8240   71.9960 C   0  0  0  0  0  0  0  0  0  0  0  0
  129.3360  128.3770   71.4690 C   0  0  0  0  0  0  0  0  0  0  0  0
  129.2760  127.8230   70.1930 C   0  0  0  0  0  0  0  0  0  0  0  0
  130.4420  127.7160   69.4200 C   0  0  0  0  0  0  0  0  0  0  0  0
  130.4970  127.1640   68.1250 N   0  0  0  0  0  0  0  0  0  0  0  0
  129.8560  126.0860   67.6250 C   0  0  0  0  0  0  0  0  0  0  0  0
  129.0610  125.3780   68.2430 O   0  0  0  0  0  0  0  0  0  0  0  0
  130.1670  125.7590   66.1630 C   0  0  0  0  0  0  0  0  0  0  0  0
  130.1720  123.9670   65.8580 S   0  0  0  0  0  0  0  0  0  0  0  0
  130.8120  123.6780   64.2210 C   0  0  0  0  0  0  0  0  0  0  0  0
  129.9350  123.0430   63.4030 N   0  0  0  0  0  0  0  0  0  0  0  0
  130.3120  122.7680   62.1320 C   0  0  0  0  0  0  0  0  0  0  0  0
  129.2750  122.0660   61.2750 C   0  0  0  0  0  0  0  0  0  0  0  0
  131.5680  123.1010   61.6320 C   0  0  0  0  0  0  0  0  0  0  0  0
  132.4890  123.7330   62.4730 C   0  0  0  0  0  0  0  0  0  0  0  0
  133.8660  124.0730   61.9060 C   0  0  0  0  0  0  0  0  0  0  0  0
  132.1180  124.0290   63.8050 C   0  0  0  0  0  0  0  0  0  0  0  0
  133.0880  124.6410   64.7170 C   0  0  0  0  0  0  0  0  0  0  0  0
  133.8540  125.1260   65.4360 N   0  0  0  0  0  0  0  0  0  0  0  0
  131.6580  128.1530   69.9490 C   0  0  0  0  0  0  0  0  0  0  0  0
  131.7130  128.7060   71.2250 C   0  0  0  0  0  0  0  0  0  0  0  0
  1  2  1  0
  2  3  1  0
  3  4  2  0
  4  5  1  0
  5  6  2  0
  6  7  1  0
  7  8  1  0
  8  9  2  0
  8 10  1  0
 10 11  1  0
 11 12  1  0
 12 13  2  0
 13 14  1  0
 14 15  1  0
 14 16  2  0
 16 17  1  0
 17 18  1  0
 17 19  2  0
 19 20  1  0
 20 21  3  0
  6 22  1  0
 22 23  2  0
 23  3  1  0
 19 12  1  0
M  END
>  <Binding energies>  (4) 
[-6.93]

>  <Ligand effiencies>  (4) 
[-0.28875]

>  <Interactions>  (4) 
["V-B:HIS:456:CE1:9041, V-B:GLU:543:CD:9879, V-A:GLU:543:CD:4908, V-A:ILE:369:CD1:3238, V-A:GLY:454:CA:4048, V-A:HIS:456:CE1:4069, V-A:GLU:543:C:4902, V-A:ILE:369:CG2:3236, V-A:GLU:543:CB:4906, V-A:GLY:544:C:4912, V-B:ALA:541:CB:9863, V-A:ARG:545:CG:4922, V-B:GLU:543:CG:9878, V-A:ARG:545:CA:4919, H-A:LYS:547:NZ:4951, H-A:TYR:484:OH:4347, V-A:LYS:547:CE:4950, H-A:ARG:545:NE:4924, H-A:GLY:454:N:4049, H-A:GLU:543:OE2:4910"]

$$$$
1d_Grossjean_2025
     RDKit          3D

 21 22  0  0  0  0  0  0  0  0999 V2000
  128.5960  128.7290   67.9000 C   0  0  0  0  0  0  0  0  0  0  0  0
  127.4880  129.1960   66.9770 C   0  0  0  0  0  0  0  0  0  0  0  0
  126.1530  129.1850   67.3740 C   0  0  0  0  0  0  0  0  0  0  0  0
  125.1740  129.6370   66.4830 C   0  0  0  0  0  0  0  0  0  0  0  0
  123.7190  129.6310   66.9480 C   0  0  0  0  0  0  0  0  0  0  0  0
  125.5620  130.0850   65.1990 C   0  0  0  0  0  0  0  0  0  0  0  0
  124.5600  130.6070   64.2670 C   0  0  0  0  0  0  0  0  0  0  0  0
  123.7660  131.0200   63.5330 N   0  0  0  0  0  0  0  0  0  0  0  0
  126.9370  130.0370   64.8720 C   0  0  0  0  0  0  0  0  0  0  0  0
  127.6000  130.5590   63.3050 S   0  0  0  0  0  0  0  0  0  0  0  0
  128.4750  132.1290   63.5820 C   0  0  0  0  0  0  0  0  0  0  0  0
  129.4810  132.4320   62.4700 C   0  0  0  0  0  0  0  0  0  0  0  0
  129.2710  133.3800   61.7120 O   0  0  0  0  0  0  0  0  0  0  0  0
  130.5600  131.6210   62.4300 N   0  0  0  0  0  0  0  0  0  0  0  0
  131.6490  131.6120   61.5390 C   0  0  0  0  0  0  0  0  0  0  0  0
  131.3380  131.3370   60.2050 C   0  0  0  0  0  0  0  0  0  0  0  0
  132.3410  131.3090   59.2400 C   0  0  0  0  0  0  0  0  0  0  0  0
  133.6590  131.5640   59.6080 C   0  0  0  0  0  0  0  0  0  0  0  0
  133.9820  131.8490   60.9330 C   0  0  0  0  0  0  0  0  0  0  0  0
  132.9810  131.8760   61.9000 C   0  0  0  0  0  0  0  0  0  0  0  0
  127.8820  129.6170   65.7520 N   0  0  0  0  0  0  0  0  0  0  0  0
  1  2  1  0
  2  3  2  0
  3  4  1  0
  4  5  1  0
  4  6  2  0
  6  7  1  0
  7  8  3  0
  6  9  1  0
  9 10  1  0
 10 11  1  0
 11 12  1  0
 12 13  2  0
 12 14  1  0
 14 15  1  0
 15 16  2  0
 16 17  1  0
 17 18  2  0
 18 19  1  0
 19 20  2  0
  9 21  2  0
 21  2  1  0
 20 15  1  0
M  END
>  <Binding energies>  (5) 
[-7.27]

>  <Ligand effiencies>  (5) 
[-0.33045454545454545]

>  <Interactions>  (5) 
["V-B:HIS:456:CE1:9041, V-A:ASP:366:CG:3212, V-A:GLU:543:CD:4908, V-B:GLY:454:CA:9020, V-A:ALA:541:CB:4892, V-A:GLU:543:CG:4907, V-A:GLU:543:CB:4906, V-A:ASP:366:CB:3211, H-B:GLY:454:N:9021, V-A:ASN:362:CB:3175, V-A:ALA:541:CA:4890, V-A:PRO:540:CB:4885, V-A:PRO:540:CA:4883, V-B:ARG:545:CZ:9897, V-B:ARG:545:CG:9893, H-A:ALA:541:N:4891, H-A:GLU:543:OE1:4909, V-B:ARG:545:CD:9894, V-A:LEU:363:CA:3184, V-A:ASN:362:C:3171, V-A:ASN:362:CA:3173"]

$$$$
1e_Grossjean_2025
     RDKit          3D

 22 23  0  0  0  0  0  0  0  0999 V2000
  131.9760  130.9060   57.5840 C   0  0  0  0  0  0  0  0  0  0  0  0
  132.3860  131.2440   59.0050 C   0  0  0  0  0  0  0  0  0  0  0  0
  133.7050  131.5790   59.3250 C   0  0  0  0  0  0  0  0  0  0  0  0
  134.0090  131.8760   60.6540 C   0  0  0  0  0  0  0  0  0  0  0  0
  133.0020  131.8310   61.6200 C   0  0  0  0  0  0  0  0  0  0  0  0
  131.7000  131.4930   61.2300 C   0  0  0  0  0  0  0  0  0  0  0  0
  130.7310  131.4530   62.2490 N   0  0  0  0  0  0  0  0  0  0  0  0
  129.6610  132.2580   62.4230 C   0  0  0  0  0  0  0  0  0  0  0  0
  129.3600  133.2020   61.6910 O   0  0  0  0  0  0  0  0  0  0  0  0
  128.7980  131.9620   63.6510 C   0  0  0  0  0  0  0  0  0  0  0  0
  127.6080  130.6230   63.3400 S   0  0  0  0  0  0  0  0  0  0  0  0
  126.9530  130.0670   64.9010 C   0  0  0  0  0  0  0  0  0  0  0  0
  127.8940  129.5360   65.7220 N   0  0  0  0  0  0  0  0  0  0  0  0
  127.5160  129.0760   66.9380 C   0  0  0  0  0  0  0  0  0  0  0  0
  128.6220  128.5060   67.8030 C   0  0  0  0  0  0  0  0  0  0  0  0
  126.1940  129.1140   67.3760 C   0  0  0  0  0  0  0  0  0  0  0  0
  125.2110  129.6350   66.5290 C   0  0  0  0  0  0  0  0  0  0  0  0
  123.7670  129.6480   67.0260 C   0  0  0  0  0  0  0  0  0  0  0  0
  125.5830  130.1190   65.2530 C   0  0  0  0  0  0  0  0  0  0  0  0
  124.5580  130.6140   64.3310 C   0  0  0  0  0  0  0  0  0  0  0  0
  123.7470  131.0050   63.6040 N   0  0  0  0  0  0  0  0  0  0  0  0
  131.3960  131.1970   59.9320 N   0  0  0  0  0  0  0  0  0  0  0  0
  1  2  1  0
  2  3  2  0
  3  4  1  0
  4  5  2  0
  5  6  1  0
  6  7  1  0
  7  8  1  0
  8  9  2  0
  8 10  1  0
 10 11  1  0
 11 12  1  0
 12 13  2  0
 13 14  1  0
 14 15  1  0
 14 16  2  0
 16 17  1  0
 17 18  1  0
 17 19  2  0
 19 20  1  0
 20 21  3  0
  6 22  2  0
 22  2  1  0
 19 12  1  0
M  END
>  <Binding energies>  (6) 
[-7.57]

>  <Ligand effiencies>  (6) 
[-0.3291304347826087]

>  <Interactions>  (6) 
["V-B:HIS:456:CE1:9041, V-A:ASP:366:CG:3212, V-A:GLU:543:CD:4908, V-B:GLY:454:CA:9020, V-A:ALA:541:CB:4892, V-A:GLU:543:CG:4907, V-A:GLU:543:CB:4906, V-A:ASP:366:CB:3211, H-B:GLY:454:N:9021, V-A:ASN:362:CB:3175, V-A:PRO:540:CB:4885, V-A:PRO:540:CA:4883, V-B:ARG:545:CZ:9897, V-B:ARG:545:CG:9893, H-A:ALA:541:N:4891, H-A:GLU:543:OE1:4909, V-B:ARG:545:CD:9894, V-A:LEU:363:CA:3184, V-A:LEU:363:CB:3186, V-A:LEU:363:CD1:3188, V-A:ASN:362:C:3171"]

$$$$
1f_Grossjean_2025
     RDKit          3D

 21 22  0  0  0  0  0  0  0  0999 V2000
  128.5600  128.4900   67.8390 C   0  0  0  0  0  0  0  0  0  0  0  0
  127.4630  129.0290   66.9400 C   0  0  0  0  0  0  0  0  0  0  0  0
  126.1380  129.0870   67.3620 C   0  0  0  0  0  0  0  0  0  0  0  0
  125.1670  129.5830   66.4850 C   0  0  0  0  0  0  0  0  0  0  0  0
  123.7170  129.6200   66.9640 C   0  0  0  0  0  0  0  0  0  0  0  0
  125.5560  130.0190   65.1970 C   0  0  0  0  0  0  0  0  0  0  0  0
  124.5460  130.4880   64.2450 C   0  0  0  0  0  0  0  0  0  0  0  0
  123.7480  130.8590   63.4940 N   0  0  0  0  0  0  0  0  0  0  0  0
  126.9290  129.9490   64.8640 C   0  0  0  0  0  0  0  0  0  0  0  0
  127.6040  130.4510   63.2930 S   0  0  0  0  0  0  0  0  0  0  0  0
  128.5510  131.9930   63.5390 C   0  0  0  0  0  0  0  0  0  0  0  0
  129.5110  132.3520   62.3960 C   0  0  0  0  0  0  0  0  0  0  0  0
  129.2920  133.3300   61.6800 O   0  0  0  0  0  0  0  0  0  0  0  0
  130.5530  131.5050   62.2510 N   0  0  0  0  0  0  0  0  0  0  0  0
  131.6130  131.5350   61.3260 C   0  0  0  0  0  0  0  0  0  0  0  0
  131.4950  131.3330   59.9370 C   0  0  0  0  0  0  0  0  0  0  0  0
  132.6350  131.3950   59.1310 C   0  0  0  0  0  0  0  0  0  0  0  0
  133.8660  131.6590   59.7320 C   0  0  0  0  0  0  0  0  0  0  0  0
  134.0060  131.8610   61.0660 N   0  0  0  0  0  0  0  0  0  0  0  0
  132.8890  131.7990   61.8370 C   0  0  0  0  0  0  0  0  0  0  0  0
  127.8580  129.4440   65.7130 N   0  0  0  0  0  0  0  0  0  0  0  0
  1  2  1  0
  2  3  2  0
  3  4  1  0
  4  5  1  0
  4  6  2  0
  6  7  1  0
  7  8  3  0
  6  9  1  0
  9 10  1  0
 10 11  1  0
 11 12  1  0
 12 13  2  0
 12 14  1  0
 14 15  1  0
 15 16  2  0
 16 17  1  0
 17 18  2  0
 18 19  1  0
 19 20  2  0
  9 21  2  0
 21  2  1  0
 20 15  1  0
M  END
>  <Binding energies>  (7) 
[-6.93]

>  <Ligand effiencies>  (7) 
[-0.315]

>  <Interactions>  (7) 
["V-B:HIS:456:CE1:9041, V-A:ASP:366:CG:3212, V-A:GLU:543:CD:4908, V-B:GLY:454:CA:9020, V-A:ALA:541:CB:4892, V-A:GLU:543:CG:4907, V-A:GLU:543:CB:4906, H-B:GLY:454:N:9021, V-A:ASN:362:CB:3175, V-A:PRO:540:CB:4885, V-A:PRO:540:CA:4883, V-B:ARG:545:CZ:9897, V-B:ARG:545:CG:9893, H-A:ALA:541:N:4891, H-A:GLU:543:OE1:4909, V-B:ARG:545:CD:9894, V-A:LEU:363:CA:3184, V-A:LEU:363:CB:3186, V-A:ASN:362:C:3171, H-A:LEU:363:N:3185"]

$$$$
1g_Grossjean_2025
     RDKit          3D

 22 23  0  0  0  0  0  0  0  0999 V2000
  128.9990  126.4920   67.0820 C   0  0  0  0  0  0  0  0  0  0  0  0
  130.1540  126.0230   66.2170 C   0  0  0  0  0  0  0  0  0  0  0  0
  131.4470  125.9130   66.7250 C   0  0  0  0  0  0  0  0  0  0  0  0
  132.4760  125.4910   65.8760 C   0  0  0  0  0  0  0  0  0  0  0  0
  133.8890  125.3920   66.4510 C   0  0  0  0  0  0  0  0  0  0  0  0
  132.1790  125.1780   64.5310 C   0  0  0  0  0  0  0  0  0  0  0  0
  133.2490  124.7840   63.6100 C   0  0  0  0  0  0  0  0  0  0  0  0
  134.0960  124.4740   62.8860 N   0  0  0  0  0  0  0  0  0  0  0  0
  130.8330  125.2940   64.1090 C   0  0  0  0  0  0  0  0  0  0  0  0
  130.2810  124.9320   62.4570 S   0  0  0  0  0  0  0  0  0  0  0  0
  129.8280  123.1730   62.4120 C   0  0  0  0  0  0  0  0  0  0  0  0
  128.3620  122.9680   62.0290 C   0  0  0  0  0  0  0  0  0  0  0  0
  128.0580  122.1340   61.1750 O   0  0  0  0  0  0  0  0  0  0  0  0
  127.4670  123.7430   62.6660 N   0  0  0  0  0  0  0  0  0  0  0  0
  126.0150  123.6760   62.4990 C   0  0  0  0  0  0  0  0  0  0  0  0
  125.5250  124.0640   61.1080 C   0  0  0  0  0  0  0  0  0  0  0  0
  124.2420  123.6930   60.6910 C   0  0  0  0  0  0  0  0  0  0  0  0
  123.7940  124.0480   59.4210 C   0  0  0  0  0  0  0  0  0  0  0  0
  124.6270  124.7770   58.5740 C   0  0  0  0  0  0  0  0  0  0  0  0
  125.9030  125.1530   58.9860 C   0  0  0  0  0  0  0  0  0  0  0  0
  126.3540  124.7980   60.2540 C   0  0  0  0  0  0  0  0  0  0  0  0
  129.8460  125.7270   64.9330 N   0  0  0  0  0  0  0  0  0  0  0  0
  1  2  1  0
  2  3  2  0
  3  4  1  0
  4  5  1  0
  4  6  2  0
  6  7  1  0
  7  8  3  0
  6  9  1  0
  9 10  1  0
 10 11  1  0
 11 12  1  0
 12 13  2  0
 12 14  1  0
 14 15  1  0
 15 16  1  0
 16 17  2  0
 17 18  1  0
 18 19  2  0
 19 20  1  0
 20 21  2  0
  9 22  2  0
 22  2  1  0
 21 16  1  0
M  END
>  <Binding energies>  (8) 
[-6.7]

>  <Ligand effiencies>  (8) 
[-0.29130434782608694]

>  <Interactions>  (8) 
["V-A:ARG:545:CZ:4926, V-B:GLU:543:CD:9879, V-A:HIS:456:CE1:4069, V-B:ALA:541:CB:9863, V-A:ARG:545:CG:4922, V-B:GLU:543:CG:9878, V-B:GLU:543:CB:9877, H-B:GLU:543:OE2:9881, V-B:ALA:541:CA:9861, V-B:PRO:540:CA:9854, H-B:ALA:541:N:9862, H-A:GLY:454:N:4049, V-B:PRO:540:CB:9856, V-A:ARG:545:CD:4923, V-B:LEU:363:CA:8156, V-B:ASN:362:CB:8147, V-B:ASN:362:C:8143, V-B:LEU:363:CB:8158"]

$$$$
1h_Grossjean_2025
     RDKit          3D

 28 29  0  0  0  0  0  0  0  0999 V2000
  128.6170  123.4140   72.9480 C   0  0  0  0  0  0  0  0  0  0  0  0
  127.8650  124.5120   72.4450 O   0  0  0  0  0  0  0  0  0  0  0  0
  128.5280  125.5880   71.8830 C   0  0  0  0  0  0  0  0  0  0  0  0
  128.5990  125.8310   70.5030 C   0  0  0  0  0  0  0  0  0  0  0  0
  129.2990  126.9310   70.0060 C   0  0  0  0  0  0  0  0  0  0  0  0
  129.3490  127.1970   68.5040 C   0  0  0  0  0  0  0  0  0  0  0  0
  129.3160  125.9860   67.6850 N   0  0  0  0  0  0  0  0  0  0  0  0
  130.3580  125.4830   66.9980 C   0  0  0  0  0  0  0  0  0  0  0  0
  131.4840  125.9810   67.0040 O   0  0  0  0  0  0  0  0  0  0  0  0
  130.0870  124.2260   66.1720 C   0  0  0  0  0  0  0  0  0  0  0  0
  129.7740  124.6150   64.4230 S   0  0  0  0  0  0  0  0  0  0  0  0
  130.5880  123.3780   63.4260 C   0  0  0  0  0  0  0  0  0  0  0  0
  129.7710  122.6000   62.6690 N   0  0  0  0  0  0  0  0  0  0  0  0
  130.3240  121.6440   61.8860 C   0  0  0  0  0  0  0  0  0  0  0  0
  129.3480  120.8190   61.0670 C   0  0  0  0  0  0  0  0  0  0  0  0
  131.6980  121.4230   61.8240 C   0  0  0  0  0  0  0  0  0  0  0  0
  132.5490  122.2160   62.6010 C   0  0  0  0  0  0  0  0  0  0  0  0
  134.0520  121.9590   62.5170 C   0  0  0  0  0  0  0  0  0  0  0  0
  131.9930  123.2210   63.4260 C   0  0  0  0  0  0  0  0  0  0  0  0
  132.8600  124.0650   64.2520 C   0  0  0  0  0  0  0  0  0  0  0  0
  133.5460  124.7320   64.9050 N   0  0  0  0  0  0  0  0  0  0  0  0
  129.9050  127.8210   70.8940 C   0  0  0  0  0  0  0  0  0  0  0  0
  129.8450  127.6050   72.2800 C   0  0  0  0  0  0  0  0  0  0  0  0
  130.4220  128.4430   73.2180 O   0  0  0  0  0  0  0  0  0  0  0  0
  130.0910  129.8270   73.2170 C   0  0  0  0  0  0  0  0  0  0  0  0
  129.1620  126.4790   72.7620 C   0  0  0  0  0  0  0  0  0  0  0  0
  129.0900  126.2580   74.1160 O   0  0  0  0  0  0  0  0  0  0  0  0
  130.3030  125.7940   74.6920 C   0  0  0  0  0  0  0  0  0  0  0  0
  1  2  1  0
  2  3  1  0
  3  4  2  0
  4  5  1  0
  5  6  1  0
  6  7  1  0
  7  8  1  0
  8  9  2  0
  8 10  1  0
 10 11  1  0
 11 12  1  0
 12 13  2  0
 13 14  1  0
 14 15  1  0
 14 16  2  0
 16 17  1  0
 17 18  1  0
 17 19  2  0
 19 20  1  0
 20 21  3  0
  5 22  2  0
 22 23  1  0
 23 24  1  0
 24 25  1  0
 23 26  2  0
 26 27  1  0
 27 28  1  0
 26  3  1  0
 19 12  1  0
M  END
>  <Binding energies>  (9) 
[-7.22]

>  <Ligand effiencies>  (9) 
[-0.2489655172413793]

>  <Interactions>  (9) 
["V-B:HIS:456:CE1:9041, V-B:GLU:543:CD:9879, V-A:LEU:475:CD2:4258, V-A:TYR:484:CZ:4346, V-A:ILE:369:CD1:3238, V-A:GLY:454:CA:4048, V-A:HIS:456:CE1:4069, V-B:TYR:539:CD2:9845, V-A:ILE:369:CG2:3236, V-A:HIS:456:CD2:4067, V-B:ALA:541:CB:9863, V-B:GLU:543:CG:9878, V-B:GLU:543:CB:9877, H-B:GLU:543:OE1:9880, H-B:LYS:547:NZ:9922, V-B:LYS:547:CE:9921, H-A:LYS:547:NZ:4951, V-B:PRO:540:C:9852, H-A:TYR:484:OH:4347, V-B:ALA:541:CA:9861, V-A:LYS:547:CE:4950, H-A:GLY:454:N:4049, V-A:TYR:484:CE1:4344"]

$$$$
1i_Grossjean_2025
     RDKit          3D

 20 21  0  0  0  0  0  0  0  0999 V2000
  128.9690  126.3520   67.4520 C   0  0  0  0  0  0  0  0  0  0  0  0
  130.1150  125.9260   66.5540 C   0  0  0  0  0  0  0  0  0  0  0  0
  131.4330  125.9220   67.0050 C   0  0  0  0  0  0  0  0  0  0  0  0
  132.4480  125.5100   66.1350 C   0  0  0  0  0  0  0  0  0  0  0  0
  133.8840  125.4990   66.6570 C   0  0  0  0  0  0  0  0  0  0  0  0
  132.1130  125.1150   64.8190 C   0  0  0  0  0  0  0  0  0  0  0  0
  133.1540  124.6320   63.9080 C   0  0  0  0  0  0  0  0  0  0  0  0
  133.9780  124.2490   63.1900 N   0  0  0  0  0  0  0  0  0  0  0  0
  130.7510  125.1740   64.4400 C   0  0  0  0  0  0  0  0  0  0  0  0
  130.1530  124.7150   62.8280 S   0  0  0  0  0  0  0  0  0  0  0  0
  129.3760  123.0780   62.9750 C   0  0  0  0  0  0  0  0  0  0  0  0
  128.1440  122.9430   62.0760 C   0  0  0  0  0  0  0  0  0  0  0  0
  128.2030  122.2250   61.0770 O   0  0  0  0  0  0  0  0  0  0  0  0
  127.0570  123.6420   62.4680 N   0  0  0  0  0  0  0  0  0  0  0  0
  125.8220  123.7000   61.8380 C   0  0  0  0  0  0  0  0  0  0  0  0
  125.5250  124.6160   60.8300 C   0  0  0  0  0  0  0  0  0  0  0  0
  124.2220  124.3490   60.4780 C   0  0  0  0  0  0  0  0  0  0  0  0
  123.7580  123.3270   61.2350 O   0  0  0  0  0  0  0  0  0  0  0  0
  124.7820  122.9250   62.0950 N   0  0  0  0  0  0  0  0  0  0  0  0
  129.7720  125.5560   65.2970 N   0  0  0  0  0  0  0  0  0  0  0  0
  1  2  1  0
  2  3  2  0
  3  4  1  0
  4  5  1  0
  4  6  2  0
  6  7  1  0
  7  8  3  0
  6  9  1  0
  9 10  1  0
 10 11  1  0
 11 12  1  0
 12 13  2  0
 12 14  1  0
 14 15  1  0
 15 16  1  0
 16 17  2  0
 17 18  1  0
 18 19  1  0
  9 20  2  0
 20  2  1  0
 19 15  2  0
M  END
>  <Binding energies>  (10) 
[-6.65]

>  <Ligand effiencies>  (10) 
[-0.3166666666666667]

>  <Interactions>  (10) 
["V-B:ASP:366:CG:8184, V-A:ARG:545:CZ:4926, V-B:GLU:543:CD:9879, V-A:HIS:456:CE1:4069, V-B:ALA:541:CB:9863, V-A:ARG:545:CG:4922, V-B:GLU:543:CG:9878, V-B:GLU:543:CB:9877, H-B:GLU:543:OE2:9881, V-B:ALA:541:CA:9861, V-B:PRO:540:CA:9854, H-B:ALA:541:N:9862, H-A:GLY:454:N:4049, V-B:PRO:540:CB:9856, V-A:ARG:545:CD:4923, V-B:LEU:363:CA:8156, V-B:ASN:362:CB:8147, V-B:ASN:362:C:8143, H-B:LEU:363:N:8157"]

$$$$
1k_Grossjean_2025
     RDKit          3D

 25 25  0  0  0  0  0  0  0  0999 V2000
  133.7790  131.8670   60.9660 C   0  0  0  0  0  0  0  0  0  0  0  0
  132.5930  132.5160   61.3930 O   0  0  0  0  0  0  0  0  0  0  0  0
  131.9340  131.8470   62.4600 C   0  0  0  0  0  0  0  0  0  0  0  0
  130.4170  131.8820   62.2280 C   0  0  0  0  0  0  0  0  0  0  0  0
  130.0940  132.9790   61.3820 O   0  0  0  0  0  0  0  0  0  0  0  0
  129.7720  132.5980   60.0510 C   0  0  0  0  0  0  0  0  0  0  0  0
  128.3160  132.1210   59.9960 C   0  0  0  0  0  0  0  0  0  0  0  0
  128.2030  131.0460   59.0710 O   0  0  0  0  0  0  0  0  0  0  0  0
  127.9450  131.4660   57.7380 C   0  0  0  0  0  0  0  0  0  0  0  0
  126.4260  131.4610   57.4800 C   0  0  0  0  0  0  0  0  0  0  0  0
  125.6210  131.1860   58.6710 N   0  0  0  0  0  0  0  0  0  0  0  0
  124.3500  131.5840   58.8560 C   0  0  0  0  0  0  0  0  0  0  0  0
  123.7190  132.2300   58.0180 O   0  0  0  0  0  0  0  0  0  0  0  0
  123.7190  131.1840   60.1990 C   0  0  0  0  0  0  0  0  0  0  0  0
  123.4730  132.5450   61.3930 S   0  0  0  0  0  0  0  0  0  0  0  0
  125.0360  132.9420   62.1630 C   0  0  0  0  0  0  0  0  0  0  0  0
  125.7350  133.9590   61.5960 N   0  0  0  0  0  0  0  0  0  0  0  0
  126.9310  134.3040   62.1250 C   0  0  0  0  0  0  0  0  0  0  0  0
  127.6540  135.4430   61.4320 C   0  0  0  0  0  0  0  0  0  0  0  0
  127.4760  133.6620   63.2350 C   0  0  0  0  0  0  0  0  0  0  0  0
  126.7630  132.6180   63.8320 C   0  0  0  0  0  0  0  0  0  0  0  0
  127.3770  131.9270   65.0470 C   0  0  0  0  0  0  0  0  0  0  0  0
  125.5130  132.2390   63.2930 C   0  0  0  0  0  0  0  0  0  0  0  0
  124.7460  131.1450   63.8960 C   0  0  0  0  0  0  0  0  0  0  0  0
  124.1410  130.2810   64.3730 N   0  0  0  0  0  0  0  0  0  0  0  0
  1  2  1  0
  2  3  1  0
  3  4  1  0
  4  5  1  0
  5  6  1  0
  6  7  1  0
  7  8  1  0
  8  9  1  0
  9 10  1  0
 10 11  1  0
 11 12  1  0
 12 13  2  0
 12 14  1  0
 14 15  1  0
 15 16  1  0
 16 17  2  0
 17 18  1  0
 18 19  1  0
 18 20  2  0
 20 21  1  0
 21 22  1  0
 21 23  2  0
 23 24  1  0
 24 25  3  0
 23 16  1  0
M  END
>  <Binding energies>  (11) 
[-5.33]

>  <Ligand effiencies>  (11) 
[-0.20500000000000002]

>  <Interactions>  (11) 
["V-B:ASP:366:CG:8184, V-A:ASP:366:CG:3212, V-A:GLU:543:CD:4908, V-B:GLY:454:CA:9020, V-A:ALA:541:CB:4892, V-B:ILE:369:CD1:8210, V-A:GLU:543:CG:4907, V-B:LEU:475:CD1:9229, V-A:TYR:539:CE2:4876, V-A:TYR:539:CD2:4874, H-B:GLY:454:N:9021, V-B:ASP:366:CB:8183, H-B:ARG:545:NH2:9899, V-A:ASN:362:CB:3175, V-A:PRO:540:CB:4885, V-A:PRO:540:CA:4883, V-A:TYR:539:C:4867, H-A:ALA:541:N:4891, V-B:ASP:366:CA:8181, V-A:LEU:363:CA:3184, V-A:TYR:539:CZ:4877, V-A:ASN:362:C:3171, H-A:TYR:539:OH:4878, H-B:ASN:370:N:8215"]

$$$$
1l_Grossjean_2025
     RDKit          3D

 17 17  0  0  0  0  0  0  0  0999 V2000
  133.4210  131.8390   61.5020 C   0  0  0  0  0  0  0  0  0  0  0  0
  132.3770  132.6060   62.0860 O   0  0  0  0  0  0  0  0  0  0  0  0
  131.3250  131.7710   62.4590 N   0  0  0  0  0  0  0  0  0  0  0  0
  130.0650  132.1300   62.1500 C   0  0  0  0  0  0  0  0  0  0  0  0
  129.7860  133.0360   61.3600 O   0  0  0  0  0  0  0  0  0  0  0  0
  128.9660  131.3140   62.8450 C   0  0  0  0  0  0  0  0  0  0  0  0
  128.0160  132.2200   64.1130 S   0  0  0  0  0  0  0  0  0  0  0  0
  126.9170  133.3530   63.2810 C   0  0  0  0  0  0  0  0  0  0  0  0
  127.5100  134.4210   62.6860 N   0  0  0  0  0  0  0  0  0  0  0  0
  126.7340  135.3210   62.0370 C   0  0  0  0  0  0  0  0  0  0  0  0
  127.4690  136.4850   61.3990 C   0  0  0  0  0  0  0  0  0  0  0  0
  125.3500  135.1980   61.9520 C   0  0  0  0  0  0  0  0  0  0  0  0
  124.7280  134.1020   62.5590 C   0  0  0  0  0  0  0  0  0  0  0  0
  123.2080  133.9860   62.4520 C   0  0  0  0  0  0  0  0  0  0  0  0
  125.5180  133.1510   63.2420 C   0  0  0  0  0  0  0  0  0  0  0  0
  124.8920  131.9920   63.8880 C   0  0  0  0  0  0  0  0  0  0  0  0
  124.3970  131.0790   64.3960 N   0  0  0  0  0  0  0  0  0  0  0  0
  1  2  1  0
  2  3  1  0
  3  4  1  0
  4  5  2  0
  4  6  1  0
  6  7  1  0
  7  8  1  0
  8  9  2  0
  9 10  1  0
 10 11  1  0
 10 12  2  0
 12 13  1  0
 13 14  1  0
 13 15  2  0
 15 16  1  0
 16 17  3  0
 15  8  1  0
M  END
>  <Binding energies>  (12) 
[-6.03]

>  <Ligand effiencies>  (12) 
[-0.335]

>  <Interactions>  (12) 
["V-A:GLU:543:CD:4908, V-B:GLY:454:CA:9020, V-A:ALA:541:CB:4892, V-B:ILE:369:CD1:8210, V-B:PRO:482:CB:9297, V-B:PRO:482:CG:9298, V-B:LEU:475:CD1:9229, V-B:ILE:369:CG2:8208, V-B:TRP:381:CH2:8343, V-A:TYR:539:CD2:4874, H-B:GLY:454:N:9021, V-A:ASN:362:CB:3175, V-A:PRO:540:CB:4885, V-A:PRO:540:CA:4883, H-A:ALA:541:N:4891, H-A:GLU:543:OE1:4909, V-A:ASN:362:C:3171, V-B:ILE:369:CG1:8209"]

$$$$
1m_Grossjean_2025
     RDKit          3D

 20 20  0  0  0  0  0  0  0  0999 V2000
  133.1190  123.6100   64.2350 C   0  0  0  0  0  0  0  0  0  0  0  0
  133.8660  124.7510   64.6320 O   0  0  0  0  0  0  0  0  0  0  0  0
  133.9370  125.1060   65.9320 C   0  0  0  0  0  0  0  0  0  0  0  0
  134.9610  125.1040   66.6220 O   0  0  0  0  0  0  0  0  0  0  0  0
  132.5590  125.5370   66.4760 C   0  0  0  0  0  0  0  0  0  0  0  0
  131.7820  126.3210   65.5040 N   0  0  0  0  0  0  0  0  0  0  0  0
  130.7710  125.8550   64.7480 C   0  0  0  0  0  0  0  0  0  0  0  0
  130.3910  124.6830   64.7830 O   0  0  0  0  0  0  0  0  0  0  0  0
  130.1120  126.8820   63.8180 C   0  0  0  0  0  0  0  0  0  0  0  0
  129.1480  126.1610   62.4460 S   0  0  0  0  0  0  0  0  0  0  0  0
  130.0330  124.7400   61.8390 C   0  0  0  0  0  0  0  0  0  0  0  0
  131.3330  124.9960   61.5430 N   0  0  0  0  0  0  0  0  0  0  0  0
  132.1060  123.9870   61.0790 C   0  0  0  0  0  0  0  0  0  0  0  0
  133.5510  124.3440   60.7880 C   0  0  0  0  0  0  0  0  0  0  0  0
  131.6190  122.6960   60.8810 C   0  0  0  0  0  0  0  0  0  0  0  0
  130.2740  122.4270   61.1580 C   0  0  0  0  0  0  0  0  0  0  0  0
  129.7590  121.0100   60.9180 C   0  0  0  0  0  0  0  0  0  0  0  0
  129.4470  123.4660   61.6430 C   0  0  0  0  0  0  0  0  0  0  0  0
  128.0250  123.2180   61.8920 C   0  0  0  0  0  0  0  0  0  0  0  0
  126.9020  123.0230   62.0900 N   0  0  0  0  0  0  0  0  0  0  0  0
  1  2  1  0
  2  3  1  0
  3  4  2  0
  3  5  1  0
  5  6  1  0
  6  7  1  0
  7  8  2  0
  7  9  1  0
  9 10  1  0
 10 11  1  0
 11 12  2  0
 12 13  1  0
 13 14  1  0
 13 15  2  0
 15 16  1  0
 16 17  1  0
 16 18  2  0
 18 19  1  0
 19 20  3  0
 18 11  1  0
M  END
>  <Binding energies>  (13) 
[-5.5]

>  <Ligand effiencies>  (13) 
[-0.2619047619047619]

>  <Interactions>  (13) 
["V-A:ARG:545:CZ:4926, V-A:ASP:366:CG:3212, V-A:GLU:543:CD:4908, V-A:ILE:369:CD1:3238, V-A:GLY:454:CA:4048, V-A:HIS:456:CE1:4069, V-B:TYR:539:CD2:9845, V-A:ILE:369:CG2:3236, V-B:TYR:539:CE2:9847, V-A:ILE:369:CB:3235, V-B:ALA:541:CB:9863, H-A:TYR:484:OH:4347, H-B:ALA:541:N:9862, H-A:ARG:545:NE:4924, H-A:GLY:454:N:4049, V-A:ARG:545:CD:4923, H-A:GLU:543:OE1:4909, H-A:GLU:543:OE2:4910, V-A:GLY:453:C:4041, H-A:ILE:455:N:4054"]

$$$$
1n_Grossjean_2025
     RDKit          3D

 27 28  0  0  0  0  0  0  0  0999 V2000
  127.9060  131.8320   72.9910 C   0  0  0  0  0  0  0  0  0  0  0  0
  128.6540  130.7270   72.2400 C   0  0  0  0  0  0  0  0  0  0  0  0
  129.6570  130.1760   73.0850 O   0  0  0  0  0  0  0  0  0  0  0  0
  129.9760  128.8570   73.0280 C   0  0  0  0  0  0  0  0  0  0  0  0
  130.1330  128.1510   74.0280 O   0  0  0  0  0  0  0  0  0  0  0  0
  130.1060  128.3390   71.6240 C   0  0  0  0  0  0  0  0  0  0  0  0
  129.0920  127.5830   71.0150 C   0  0  0  0  0  0  0  0  0  0  0  0
  129.2460  127.1160   69.7130 C   0  0  0  0  0  0  0  0  0  0  0  0
  130.4130  127.3850   68.9970 C   0  0  0  0  0  0  0  0  0  0  0  0
  130.4650  126.8600   67.6910 N   0  0  0  0  0  0  0  0  0  0  0  0
  130.0570  125.6590   67.2260 C   0  0  0  0  0  0  0  0  0  0  0  0
  129.5360  124.7720   67.9020 O   0  0  0  0  0  0  0  0  0  0  0  0
  130.2770  125.4190   65.7270 C   0  0  0  0  0  0  0  0  0  0  0  0
  129.6570  124.0960   65.2280 C   0  0  0  0  0  0  0  0  0  0  0  0
  130.8290  122.7120   65.1120 S   0  0  0  0  0  0  0  0  0  0  0  0
  131.3740  122.6070   63.4210 C   0  0  0  0  0  0  0  0  0  0  0  0
  130.7090  121.6750   62.6930 N   0  0  0  0  0  0  0  0  0  0  0  0
  131.0290  121.5190   61.3870 C   0  0  0  0  0  0  0  0  0  0  0  0
  130.2370  120.4670   60.6350 C   0  0  0  0  0  0  0  0  0  0  0  0
  132.0200  122.2720   60.7610 C   0  0  0  0  0  0  0  0  0  0  0  0
  132.7260  123.2220   61.5080 C   0  0  0  0  0  0  0  0  0  0  0  0
  133.8160  124.0260   60.8040 C   0  0  0  0  0  0  0  0  0  0  0  0
  132.4120  123.3980   62.8750 C   0  0  0  0  0  0  0  0  0  0  0  0
  133.1720  124.3490   63.6880 C   0  0  0  0  0  0  0  0  0  0  0  0
  133.7760  125.1000   64.3300 N   0  0  0  0  0  0  0  0  0  0  0  0
  131.4260  128.1490   69.5960 C   0  0  0  0  0  0  0  0  0  0  0  0
  131.2690  128.6180   70.8970 C   0  0  0  0  0  0  0  0  0  0  0  0
  1  2  1  0
  2  3  1  0
  3  4  1  0
  4  5  2  0
  4  6  1  0
  6  7  2  0
  7  8  1  0
  8  9  2  0
  9 10  1  0
 10 11  1  0
 11 12  2  0
 11 13  1  0
 13 14  1  0
 14 15  1  0
 15 16  1  0
 16 17  2  0
 17 18  1  0
 18 19  1  0
 18 20  2  0
 20 21  1  0
 21 22  1  0
 21 23  2  0
 23 24  1  0
 24 25  3  0
  9 26  1  0
 26 27  2  0
 27  6  1  0
 23 16  1  0
M  END
>  <Binding energies>  (14) 
[-7.54]

>  <Ligand effiencies>  (14) 
[-0.2692857142857143]

>  <Interactions>  (14) 
["V-B:HIS:456:CE1:9041, V-B:GLU:543:CD:9879, V-A:LEU:475:CD2:4258, V-A:GLU:543:CD:4908, V-A:ILE:369:CD1:3238, H-A:ARG:545:NH2:4928, V-A:GLY:454:CA:4048, V-A:HIS:456:CE1:4069, V-B:TYR:539:CD2:9845, V-A:GLU:543:C:4902, V-B:HIS:456:CD2:9039, V-A:ILE:369:CG2:3236, V-B:HIS:456:CG:9037, V-A:GLU:543:CB:4906, V-B:TYR:539:CE2:9847, V-A:ILE:369:CB:3235, V-A:GLY:544:C:4912, V-A:ARG:545:CG:4922, V-B:TYR:484:CD1:9314, V-B:GLU:543:CG:9878, V-B:GLU:543:CB:9877, H-A:LYS:547:NZ:4951, H-A:TYR:484:OH:4347, V-B:HIS:456:CB:9036, H-A:GLY:454:N:4049, V-B:TYR:484:CG:9313, H-A:GLU:543:OE1:4909, H-A:GLU:543:OE2:4910, H-A:ARG:545:NH1:4927, V-A:ILE:369:CG1:3237"]

$$$$
1q_Grossjean_2025
     RDKit          3D

 21 21  0  0  0  0  0  0  0  0999 V2000
  133.2600  125.3940   63.4890 C   0  0  0  0  0  0  0  0  0  0  0  0
  133.7330  124.7460   64.6610 O   0  0  0  0  0  0  0  0  0  0  0  0
  133.3480  125.1760   65.8880 C   0  0  0  0  0  0  0  0  0  0  0  0
  134.1060  125.5160   66.7980 O   0  0  0  0  0  0  0  0  0  0  0  0
  131.8190  125.1840   66.1000 C   0  0  0  0  0  0  0  0  0  0  0  0
  131.3640  126.2890   66.9580 N   0  0  0  0  0  0  0  0  0  0  0  0
  130.2050  126.3300   67.6420 C   0  0  0  0  0  0  0  0  0  0  0  0
  129.3770  125.4170   67.6220 O   0  0  0  0  0  0  0  0  0  0  0  0
  129.9650  127.5940   68.4820 C   0  0  0  0  0  0  0  0  0  0  0  0
  130.9820  127.8010   69.6210 C   0  0  0  0  0  0  0  0  0  0  0  0
  130.2310  128.3800   71.1710 S   0  0  0  0  0  0  0  0  0  0  0  0
  130.0880  126.9960   72.2840 C   0  0  0  0  0  0  0  0  0  0  0  0
  130.9090  127.0830   73.3610 N   0  0  0  0  0  0  0  0  0  0  0  0
  130.8910  126.0880   74.2770 C   0  0  0  0  0  0  0  0  0  0  0  0
  131.8490  126.2480   75.4440 C   0  0  0  0  0  0  0  0  0  0  0  0
  130.0550  124.9790   74.1670 C   0  0  0  0  0  0  0  0  0  0  0  0
  129.1860  124.8910   73.0750 C   0  0  0  0  0  0  0  0  0  0  0  0
  128.2650  123.6740   72.9850 C   0  0  0  0  0  0  0  0  0  0  0  0
  129.1850  125.9190   72.1060 C   0  0  0  0  0  0  0  0  0  0  0  0
  128.2420  125.8710   70.9860 C   0  0  0  0  0  0  0  0  0  0  0  0
  127.4950  125.8300   70.1030 N   0  0  0  0  0  0  0  0  0  0  0  0
  1  2  1  0
  2  3  1  0
  3  4  2  0
  3  5  1  0
  5  6  1  0
  6  7  1  0
  7  8  2  0
  7  9  1  0
  9 10  1  0
 10 11  1  0
 11 12  1  0
 12 13  2  0
 13 14  1  0
 14 15  1  0
 14 16  2  0
 16 17  1  0
 17 18  1  0
 17 19  2  0
 19 20  1  0
 20 21  3  0
 19 12  1  0
M  END
>  <Binding energies>  (15) 
[-5.6]

>  <Ligand effiencies>  (15) 
[-0.2545454545454545]

>  <Interactions>  (15) 
["V-B:HIS:456:CE1:9041, V-A:ARG:545:CZ:4926, V-A:TYR:484:CZ:4346, V-A:GLU:543:CD:4908, V-A:GLU:543:CG:4907, V-A:HIS:456:CE1:4069, V-A:HIS:456:CG:4065, V-A:GLU:543:CB:4906, V-A:HIS:456:CD2:4067, V-B:LYS:547:CE:9921, H-A:LYS:547:NZ:4951, H-A:TYR:484:OH:4347, V-A:LYS:547:CE:4950, H-A:ARG:545:NE:4924, H-A:GLY:454:N:4049, V-A:ARG:545:CD:4923, H-A:GLU:543:OE2:4910"]

$$$$
2a_Grossjean_2025
     RDKit          3D

 29 30  0  0  0  0  0  0  0  0999 V2000
  129.5120  130.2150   73.2500 C   0  0  0  0  0  0  0  0  0  0  0  0
  129.3770  129.0600   74.2470 C   0  0  0  0  0  0  0  0  0  0  0  0
  130.1400  127.9510   73.7880 O   0  0  0  0  0  0  0  0  0  0  0  0
  129.5350  126.8480   73.2770 C   0  0  0  0  0  0  0  0  0  0  0  0
  129.1170  125.9160   73.9720 O   0  0  0  0  0  0  0  0  0  0  0  0
  129.4040  126.8850   71.7810 C   0  0  0  0  0  0  0  0  0  0  0  0
  128.5860  125.9830   71.0850 C   0  0  0  0  0  0  0  0  0  0  0  0
  128.4880  126.0430   69.6980 C   0  0  0  0  0  0  0  0  0  0  0  0
  129.2080  126.9980   68.9790 C   0  0  0  0  0  0  0  0  0  0  0  0
  129.0440  126.9580   67.5820 N   0  0  0  0  0  0  0  0  0  0  0  0
  129.9120  126.5860   66.6160 C   0  0  0  0  0  0  0  0  0  0  0  0
  131.0730  126.2210   66.8010 O   0  0  0  0  0  0  0  0  0  0  0  0
  129.3700  126.6410   65.1840 C   0  0  0  0  0  0  0  0  0  0  0  0
  130.6790  126.6050   63.9150 S   0  0  0  0  0  0  0  0  0  0  0  0
  130.7370  124.9870   63.1530 C   0  0  0  0  0  0  0  0  0  0  0  0
  129.5710  124.5480   62.6140 N   0  0  0  0  0  0  0  0  0  0  0  0
  129.5390  123.3280   62.0320 C   0  0  0  0  0  0  0  0  0  0  0  0
  128.1940  122.8960   61.4780 C   0  0  0  0  0  0  0  0  0  0  0  0
  130.6570  122.5030   61.9540 C   0  0  0  0  0  0  0  0  0  0  0  0
  131.8760  122.9410   62.4970 C   0  0  0  0  0  0  0  0  0  0  0  0
  133.1040  122.0160   62.4010 C   0  0  0  0  0  0  0  0  0  0  0  0
  132.8050  120.9290   61.6910 F   0  0  0  0  0  0  0  0  0  0  0  0
  134.1120  122.6580   61.8090 F   0  0  0  0  0  0  0  0  0  0  0  0
  133.5360  121.6090   63.5970 F   0  0  0  0  0  0  0  0  0  0  0  0
  131.9230  124.2170   63.1130 C   0  0  0  0  0  0  0  0  0  0  0  0
  133.1690  124.7220   63.6990 C   0  0  0  0  0  0  0  0  0  0  0  0
  134.1520  125.1210   64.1610 N   0  0  0  0  0  0  0  0  0  0  0  0
  130.0210  127.9090   69.6680 C   0  0  0  0  0  0  0  0  0  0  0  0
  130.1150  127.8500   71.0560 C   0  0  0  0  0  0  0  0  0  0  0  0
  1  2  1  0
  2  3  1  0
  3  4  1  0
  4  5  2  0
  4  6  1  0
  6  7  2  0
  7  8  1  0
  8  9  2  0
  9 10  1  0
 10 11  1  0
 11 12  2  0
 11 13  1  0
 13 14  1  0
 14 15  1  0
 15 16  2  0
 16 17  1  0
 17 18  1  0
 17 19  2  0
 19 20  1  0
 20 21  1  0
 21 22  1  0
 21 23  1  0
 21 24  1  0
 20 25  2  0
 25 26  1  0
 26 27  3  0
  9 28  1  0
 28 29  2  0
 29  6  1  0
 25 15  1  0
M  END
>  <Binding energies>  (16) 
[-6.46]

>  <Ligand effiencies>  (16) 
[-0.21533333333333332]

>  <Interactions>  (16) 
["V-B:HIS:456:CE1:9041, V-B:GLU:543:CD:9879, V-A:LEU:475:CD2:4258, V-A:GLU:543:CD:4908, V-A:ILE:369:CD1:3238, H-A:ARG:545:NH2:4928, V-A:GLY:454:CA:4048, V-A:HIS:456:CE1:4069, V-A:ILE:369:CG2:3236, V-A:GLU:543:CB:4906, V-A:ILE:369:CB:3235, V-B:ALA:541:CB:9863, V-B:GLU:543:CG:9878, V-B:GLU:543:CB:9877, H-B:GLU:543:OE1:9880, H-B:LYS:547:NZ:9922, H-A:LYS:547:NZ:4951, V-A:LYS:547:CE:4950, H-A:GLY:454:N:4049, H-A:ARG:545:NH1:4927, V-A:ILE:369:CG1:3237"]

$$$$
2b_Grossjean_2025
     RDKit          3D

 28 29  0  0  0  0  0  0  0  0999 V2000
  127.5010  136.6850   61.3900 C   0  0  0  0  0  0  0  0  0  0  0  0
  127.0840  135.4230   60.8890 O   0  0  0  0  0  0  0  0  0  0  0  0
  125.8290  134.9580   61.1210 C   0  0  0  0  0  0  0  0  0  0  0  0
  124.8450  135.2940   60.4540 O   0  0  0  0  0  0  0  0  0  0  0  0
  125.7570  133.9980   62.2720 C   0  0  0  0  0  0  0  0  0  0  0  0
  126.9090  133.5000   62.8970 C   0  0  0  0  0  0  0  0  0  0  0  0
  126.8070  132.6080   63.9620 C   0  0  0  0  0  0  0  0  0  0  0  0
  125.5570  132.2020   64.4260 C   0  0  0  0  0  0  0  0  0  0  0  0
  125.5680  131.2940   65.5030 N   0  0  0  0  0  0  0  0  0  0  0  0
  124.7860  130.2170   65.7310 C   0  0  0  0  0  0  0  0  0  0  0  0
  123.8630  129.8410   65.0080 O   0  0  0  0  0  0  0  0  0  0  0  0
  125.1010  129.4430   67.0150 C   0  0  0  0  0  0  0  0  0  0  0  0
  126.8480  129.5710   67.5200 S   0  0  0  0  0  0  0  0  0  0  0  0
  127.8810  128.6630   66.3770 C   0  0  0  0  0  0  0  0  0  0  0  0
  127.8720  129.1070   65.0950 N   0  0  0  0  0  0  0  0  0  0  0  0
  128.6270  128.4650   64.1750 C   0  0  0  0  0  0  0  0  0  0  0  0
  128.5520  129.0150   62.7640 C   0  0  0  0  0  0  0  0  0  0  0  0
  129.4220  127.3670   64.4900 C   0  0  0  0  0  0  0  0  0  0  0  0
  129.4520  126.8950   65.8110 C   0  0  0  0  0  0  0  0  0  0  0  0
  130.3410  125.6820   66.1450 C   0  0  0  0  0  0  0  0  0  0  0  0
  130.8870  125.1960   65.0290 F   0  0  0  0  0  0  0  0  0  0  0  0
  131.3160  126.0440   66.9800 F   0  0  0  0  0  0  0  0  0  0  0  0
  129.6640  124.6890   66.7260 F   0  0  0  0  0  0  0  0  0  0  0  0
  128.6600  127.5550   66.7860 C   0  0  0  0  0  0  0  0  0  0  0  0
  128.6490  127.1010   68.1790 C   0  0  0  0  0  0  0  0  0  0  0  0
  128.6400  126.7420   69.2800 N   0  0  0  0  0  0  0  0  0  0  0  0
  124.3990  132.6890   63.8020 C   0  0  0  0  0  0  0  0  0  0  0  0
  124.5030  133.5790   62.7370 C   0  0  0  0  0  0  0  0  0  0  0  0
  1  2  1  0
  2  3  1  0
  3  4  2  0
  3  5  1  0
  5  6  2  0
  6  7  1  0
  7  8  2  0
  8  9  1  0
  9 10  1  0
 10 11  2  0
 10 12  1  0
 12 13  1  0
 13 14  1  0
 14 15  2  0
 15 16  1  0
 16 17  1  0
 16 18  2  0
 18 19  1  0
 19 20  1  0
 20 21  1  0
 20 22  1  0
 20 23  1  0
 19 24  2  0
 24 25  1  0
 25 26  3  0
  8 27  1  0
 27 28  2  0
 28  5  1  0
 24 14  1  0
M  END
>  <Binding energies>  (17) 
[-6.21]

>  <Ligand effiencies>  (17) 
[-0.21413793103448275]

>  <Interactions>  (17) 
["V-B:HIS:456:CE1:9041, V-B:GLU:543:CD:9879, V-A:GLU:543:CD:4908, V-B:GLY:454:CA:9020, V-A:ALA:541:CB:4892, V-A:GLU:543:CG:4907, V-B:PRO:482:CB:9297, V-B:PRO:482:CG:9298, V-B:LEU:475:CD1:9229, V-B:TRP:381:CH2:8343, V-A:TYR:539:CE2:4876, V-A:TYR:539:CD2:4874, V-A:HIS:456:CE1:4069, V-B:GLU:543:CG:9878, V-B:GLU:543:CB:9877, H-B:GLY:454:N:9021, H-B:ARG:545:NH2:9899, H-B:TYR:484:OH:9319, H-B:ARG:545:NE:9895, H-B:ARG:545:NH1:9898, H-B:HIS:456:ND1:9038, V-B:ARG:545:CZ:9897, V-B:ARG:545:CG:9893, V-B:ARG:545:CD:9894, V-A:TYR:484:CE1:4344"]

$$$$
2c_Grossjean_2025
     RDKit          3D

 26 27  0  0  0  0  0  0  0  0999 V2000
  129.7950  131.1840   73.7420 C   0  0  0  0  0  0  0  0  0  0  0  0
  130.4790  129.9500   73.5480 O   0  0  0  0  0  0  0  0  0  0  0  0
  130.4680  129.3630   72.2980 C   0  0  0  0  0  0  0  0  0  0  0  0
  131.6450  128.7340   71.8950 C   0  0  0  0  0  0  0  0  0  0  0  0
  131.7310  128.1140   70.6510 C   0  0  0  0  0  0  0  0  0  0  0  0
  130.6280  128.1290   69.7850 C   0  0  0  0  0  0  0  0  0  0  0  0
  130.6140  127.5160   68.5180 N   0  0  0  0  0  0  0  0  0  0  0  0
  129.7630  126.5800   68.0450 C   0  0  0  0  0  0  0  0  0  0  0  0
  128.8590  126.0580   68.7010 O   0  0  0  0  0  0  0  0  0  0  0  0
  130.0160  126.1520   66.5920 C   0  0  0  0  0  0  0  0  0  0  0  0
  130.1840  124.3530   66.3210 S   0  0  0  0  0  0  0  0  0  0  0  0
  130.5620  124.0430   64.6010 C   0  0  0  0  0  0  0  0  0  0  0  0
  129.5120  123.6600   63.8280 N   0  0  0  0  0  0  0  0  0  0  0  0
  129.7240  123.4000   62.5200 C   0  0  0  0  0  0  0  0  0  0  0  0
  128.5070  122.9620   61.7300 C   0  0  0  0  0  0  0  0  0  0  0  0
  130.9780  123.5170   61.9250 C   0  0  0  0  0  0  0  0  0  0  0  0
  132.0750  123.9180   62.7010 C   0  0  0  0  0  0  0  0  0  0  0  0
  133.4560  124.0450   62.0270 C   0  0  0  0  0  0  0  0  0  0  0  0
  134.0120  125.2150   62.3450 F   0  0  0  0  0  0  0  0  0  0  0  0
  134.2560  123.0590   62.4350 F   0  0  0  0  0  0  0  0  0  0  0  0
  133.3870  123.9820   60.6950 F   0  0  0  0  0  0  0  0  0  0  0  0
  131.8680  124.1890   64.0770 C   0  0  0  0  0  0  0  0  0  0  0  0
  132.9790  124.6110   64.9370 C   0  0  0  0  0  0  0  0  0  0  0  0
  133.8560  124.9430   65.6140 N   0  0  0  0  0  0  0  0  0  0  0  0
  129.4420  128.7440   70.1890 C   0  0  0  0  0  0  0  0  0  0  0  0
  129.3610  129.3610   71.4340 C   0  0  0  0  0  0  0  0  0  0  0  0
  1  2  1  0
  2  3  1  0
  3  4  2  0
  4  5  1  0
  5  6  2  0
  6  7  1  0
  7  8  1  0
  8  9  2  0
  8 10  1  0
 10 11  1  0
 11 12  1  0
 12 13  2  0
 13 14  1  0
 14 15  1  0
 14 16  2  0
 16 17  1  0
 17 18  1  0
 18 19  1  0
 18 20  1  0
 18 21  1  0
 17 22  2  0
 22 23  1  0
 23 24  3  0
  6 25  1  0
 25 26  2  0
 26  3  1  0
 22 12  1  0
M  END
>  <Binding energies>  (18) 
[-6.38]

>  <Ligand effiencies>  (18) 
[-0.23629629629629628]

>  <Interactions>  (18) 
["V-B:HIS:456:CE1:9041, V-A:ARG:545:CZ:4926, V-B:GLU:543:CD:9879, V-A:ASP:366:CG:3212, V-A:GLU:543:CD:4908, V-A:ILE:369:CD1:3238, V-A:GLU:543:CG:4907, V-A:GLY:454:CA:4048, V-A:HIS:456:CE1:4069, V-A:ILE:369:CG2:3236, V-A:GLU:543:CB:4906, V-A:ILE:369:CB:3235, V-A:GLY:544:C:4912, V-B:ALA:541:CB:9863, V-A:ARG:545:CG:4922, V-A:ARG:545:CA:4919, H-A:LYS:547:NZ:4951, H-A:TYR:484:OH:4347, V-A:LYS:547:CE:4950, H-A:ARG:545:NE:4924, H-A:GLY:454:N:4049, H-A:GLU:543:OE2:4910, V-A:GLY:453:C:4041, V-A:ILE:369:CG1:3237"]

$$$$
2d_Ghoteimi_2023
     RDKit          3D

 38 42  0  0  0  0  0  0  0  0999 V2000
  124.1000  129.6780   66.9100 C   0  0  0  0  0  0  0  0  0  0  0  0
  123.9500  129.9620   65.5270 O   0  0  0  0  0  0  0  0  0  0  0  0
  125.0180  129.9470   64.7040 C   0  0  0  0  0  0  0  0  0  0  0  0
  124.9770  129.7900   63.4800 O   0  0  0  0  0  0  0  0  0  0  0  0
  126.3250  130.1620   65.4820 C   0  0  0  0  0  0  0  0  0  0  0  0
  127.7480  129.4410   64.5940 S   0  0  0  0  0  0  0  0  0  0  0  0
  128.4350  128.1410   65.5990 C   0  0  0  0  0  0  0  0  0  0  0  0
  128.8400  127.0660   64.8790 N   0  0  0  0  0  0  0  0  0  0  0  0
  129.3770  125.9950   65.5160 C   0  0  0  0  0  0  0  0  0  0  0  0
  129.7830  124.8400   64.6590 C   0  0  0  0  0  0  0  0  0  0  0  0
  130.1300  123.6130   65.2340 C   0  0  0  0  0  0  0  0  0  0  0  0
  130.5090  122.5330   64.4420 C   0  0  0  0  0  0  0  0  0  0  0  0
  130.5450  122.6380   63.0430 C   0  0  0  0  0  0  0  0  0  0  0  0
  130.9410  121.5680   62.2330 N   0  0  0  0  0  0  0  0  0  0  0  0
  129.9630  120.7910   61.4460 C   0  0  0  0  0  0  0  0  0  0  0  0
  130.5150  119.4490   60.9250 C   0  0  0  0  0  0  0  0  0  0  0  0
  131.7010  119.6710   60.1780 O   0  0  0  0  0  0  0  0  0  0  0  0
  132.7100  120.2770   60.9690 C   0  0  0  0  0  0  0  0  0  0  0  0
  132.2210  121.6420   61.4980 C   0  0  0  0  0  0  0  0  0  0  0  0
  130.2100  123.8740   62.4720 C   0  0  0  0  0  0  0  0  0  0  0  0
  129.8330  124.9540   63.2640 C   0  0  0  0  0  0  0  0  0  0  0  0
  129.5260  125.9840   66.9060 C   0  0  0  0  0  0  0  0  0  0  0  0
  129.1470  127.0950   67.6690 C   0  0  0  0  0  0  0  0  0  0  0  0
  129.3610  127.0230   69.1460 C   0  0  0  0  0  0  0  0  0  0  0  0
  128.6290  126.1200   69.9180 C   0  0  0  0  0  0  0  0  0  0  0  0
  128.8290  126.0360   71.2930 C   0  0  0  0  0  0  0  0  0  0  0  0
  129.7690  126.8580   71.9360 C   0  0  0  0  0  0  0  0  0  0  0  0
  129.9960  126.7820   73.3130 N   0  0  0  0  0  0  0  0  0  0  0  0
  129.4960  127.8210   74.2340 C   0  0  0  0  0  0  0  0  0  0  0  0
  129.5240  127.3950   75.7170 C   0  0  0  0  0  0  0  0  0  0  0  0
  130.8330  126.9830   76.0800 O   0  0  0  0  0  0  0  0  0  0  0  0
  131.2720  125.8840   75.2960 C   0  0  0  0  0  0  0  0  0  0  0  0
  131.2920  126.2740   73.8030 C   0  0  0  0  0  0  0  0  0  0  0  0
  130.5120  127.7490   71.1500 C   0  0  0  0  0  0  0  0  0  0  0  0
  130.3120  127.8310   69.7750 C   0  0  0  0  0  0  0  0  0  0  0  0
  128.5890  128.2140   67.0020 C   0  0  0  0  0  0  0  0  0  0  0  0
  128.1950  129.4080   67.7560 C   0  0  0  0  0  0  0  0  0  0  0  0
  127.8850  130.3490   68.3540 N   0  0  0  0  0  0  0  0  0  0  0  0
  1  2  1  0
  2  3  1  0
  3  4  2  0
  3  5  1  0
  5  6  1  0
  6  7  1  0
  7  8  2  0
  8  9  1  0
  9 10  1  0
 10 11  2  0
 11 12  1  0
 12 13  2  0
 13 14  1  0
 14 15  1  0
 15 16  1  0
 16 17  1  0
 17 18  1  0
 18 19  1  0
 13 20  1  0
 20 21  2  0
  9 22  2  0
 22 23  1  0
 23 24  1  0
 24 25  2  0
 25 26  1  0
 26 27  2  0
 27 28  1  0
 28 29  1  0
 29 30  1  0
 30 31  1  0
 31 32  1  0
 32 33  1  0
 27 34  1  0
 34 35  2  0
 23 36  2  0
 36 37  1  0
 37 38  3  0
 36  7  1  0
 21 10  1  0
 35 24  1  0
 19 14  1  0
 33 28  1  0
M  END
>  <Binding energies>  (19) 
[-8.65]

>  <Ligand effiencies>  (19) 
[-0.22763157894736843]

>  <Interactions>  (19) 
["V-B:HIS:456:CE1:9041, V-B:GLU:543:CD:9879, V-A:LEU:475:CD2:4258, V-A:GLU:543:CD:4908, V-A:GLU:543:CG:4907, V-A:HIS:456:CE1:4069, V-B:TYR:539:CD2:9845, V-A:HIS:456:CG:4065, V-A:ILE:369:CG2:3236, V-A:GLU:543:CB:4906, V-A:HIS:456:CD2:4067, V-B:ALA:541:CB:9863, V-B:GLU:543:CG:9878, V-B:GLU:543:CB:9877, H-B:GLY:454:N:9021, H-B:ARG:545:NH2:9899, H-B:TYR:484:OH:9319, V-A:HIS:456:CB:4064, H-A:LYS:547:NZ:4951, V-A:TRP:381:CZ2:3369, V-A:LYS:547:CE:4950, V-A:TRP:381:CH2:3371, H-B:ARG:545:NE:9895, H-B:HIS:456:ND1:9038, V-B:ARG:545:CZ:9897, V-B:ARG:545:CG:9893, V-B:ARG:545:CD:9894, V-A:TYR:484:CE1:4344, V-A:PRO:482:CB:4325, V-A:PRO:482:CG:4326"]

$$$$
2d_Grossjean_2025
     RDKit          3D

 24 25  0  0  0  0  0  0  0  0999 V2000
  128.4610  128.4460   62.6740 C   0  0  0  0  0  0  0  0  0  0  0  0
  128.6350  128.0580   64.1300 C   0  0  0  0  0  0  0  0  0  0  0  0
  129.4290  126.9780   64.5070 C   0  0  0  0  0  0  0  0  0  0  0  0
  129.5630  126.6620   65.8670 C   0  0  0  0  0  0  0  0  0  0  0  0
  130.4540  125.4690   66.2660 C   0  0  0  0  0  0  0  0  0  0  0  0
  131.5010  125.8980   66.9710 F   0  0  0  0  0  0  0  0  0  0  0  0
  129.7580  124.6060   67.0080 F   0  0  0  0  0  0  0  0  0  0  0  0
  130.9260  124.8020   65.2120 F   0  0  0  0  0  0  0  0  0  0  0  0
  128.8730  127.4550   66.8190 C   0  0  0  0  0  0  0  0  0  0  0  0
  129.0160  127.1950   68.2540 C   0  0  0  0  0  0  0  0  0  0  0  0
  129.1310  126.9890   69.3870 N   0  0  0  0  0  0  0  0  0  0  0  0
  128.0680  128.5170   66.3420 C   0  0  0  0  0  0  0  0  0  0  0  0
  127.1110  129.5910   67.3940 S   0  0  0  0  0  0  0  0  0  0  0  0
  125.3720  129.0430   67.3640 C   0  0  0  0  0  0  0  0  0  0  0  0
  124.5600  129.6880   66.2370 C   0  0  0  0  0  0  0  0  0  0  0  0
  123.3300  129.6340   66.2800 O   0  0  0  0  0  0  0  0  0  0  0  0
  125.2820  130.2530   65.2470 N   0  0  0  0  0  0  0  0  0  0  0  0
  124.8350  130.9200   64.0910 C   0  0  0  0  0  0  0  0  0  0  0  0
  125.3340  132.2100   63.8960 C   0  0  0  0  0  0  0  0  0  0  0  0
  124.9460  132.9530   62.7840 C   0  0  0  0  0  0  0  0  0  0  0  0
  124.0490  132.4060   61.8690 C   0  0  0  0  0  0  0  0  0  0  0  0
  123.5350  131.1270   62.0590 C   0  0  0  0  0  0  0  0  0  0  0  0
  123.9220  130.3810   63.1690 C   0  0  0  0  0  0  0  0  0  0  0  0
  127.9680  128.8220   65.0250 N   0  0  0  0  0  0  0  0  0  0  0  0
  1  2  1  0
  2  3  2  0
  3  4  1  0
  4  5  1  0
  5  6  1  0
  5  7  1  0
  5  8  1  0
  4  9  2  0
  9 10  1  0
 10 11  3  0
  9 12  1  0
 12 13  1  0
 13 14  1  0
 14 15  1  0
 15 16  2  0
 15 17  1  0
 17 18  1  0
 18 19  2  0
 19 20  1  0
 20 21  2  0
 21 22  1  0
 22 23  2  0
 12 24  2  0
 24  2  1  0
 23 18  1  0
M  END
>  <Binding energies>  (20) 
[-5.58]

>  <Ligand effiencies>  (20) 
[-0.2232]

>  <Interactions>  (20) 
["V-B:ASP:366:CG:8184, V-B:HIS:456:CE1:9041, V-B:GLU:543:CD:9879, V-A:TYR:484:CZ:4346, V-A:GLU:543:CD:4908, V-B:GLY:454:CA:9020, V-B:ILE:369:CD1:8210, V-A:GLU:543:CG:4907, V-B:LEU:475:CD1:9229, V-A:HIS:456:CE1:4069, V-B:GLU:543:CG:9878, V-B:GLU:543:CB:9877, H-B:GLY:454:N:9021, H-B:TYR:484:OH:9319, H-B:ARG:545:NE:9895, V-B:ARG:545:CZ:9897, V-B:ARG:545:CG:9893, V-B:ARG:545:CD:9894, V-A:TYR:484:CE1:4344"]

$$$$
2e_Grossjean_2025
     RDKit          3D

 25 26  0  0  0  0  0  0  0  0999 V2000
  124.7180  123.6130   61.1410 C   0  0  0  0  0  0  0  0  0  0  0  0
  126.0690  123.3540   60.5030 C   0  0  0  0  0  0  0  0  0  0  0  0
  126.2150  123.2490   59.1170 C   0  0  0  0  0  0  0  0  0  0  0  0
  127.4920  123.0210   58.6000 C   0  0  0  0  0  0  0  0  0  0  0  0
  128.5790  122.9040   59.4700 C   0  0  0  0  0  0  0  0  0  0  0  0
  128.3600  123.0100   60.8480 C   0  0  0  0  0  0  0  0  0  0  0  0
  129.4930  122.9270   61.6750 N   0  0  0  0  0  0  0  0  0  0  0  0
  130.2280  121.8340   61.9760 C   0  0  0  0  0  0  0  0  0  0  0  0
  130.0530  120.7120   61.4980 O   0  0  0  0  0  0  0  0  0  0  0  0
  131.3230  122.0350   63.0280 C   0  0  0  0  0  0  0  0  0  0  0  0
  132.3170  123.5260   62.7030 S   0  0  0  0  0  0  0  0  0  0  0  0
  132.3420  124.4250   64.2380 C   0  0  0  0  0  0  0  0  0  0  0  0
  133.5810  124.6430   64.7450 N   0  0  0  0  0  0  0  0  0  0  0  0
  133.6890  125.2800   65.9330 C   0  0  0  0  0  0  0  0  0  0  0  0
  135.1030  125.4910   66.4410 C   0  0  0  0  0  0  0  0  0  0  0  0
  132.5810  125.7150   66.6580 C   0  0  0  0  0  0  0  0  0  0  0  0
  131.2920  125.4890   66.1510 C   0  0  0  0  0  0  0  0  0  0  0  0
  130.0770  125.9560   66.9740 C   0  0  0  0  0  0  0  0  0  0  0  0
  129.4180  124.9020   67.4570 F   0  0  0  0  0  0  0  0  0  0  0  0
  130.4810  126.7180   67.9910 F   0  0  0  0  0  0  0  0  0  0  0  0
  129.2120  126.6730   66.2530 F   0  0  0  0  0  0  0  0  0  0  0  0
  131.1620  124.8270   64.9050 C   0  0  0  0  0  0  0  0  0  0  0  0
  129.8430  124.5350   64.3360 C   0  0  0  0  0  0  0  0  0  0  0  0
  128.8010  124.3040   63.8880 N   0  0  0  0  0  0  0  0  0  0  0  0
  127.1160  123.2410   61.3610 N   0  0  0  0  0  0  0  0  0  0  0  0
  1  2  1  0
  2  3  2  0
  3  4  1  0
  4  5  2  0
  5  6  1  0
  6  7  1  0
  7  8  1  0
  8  9  2  0
  8 10  1  0
 10 11  1  0
 11 12  1  0
 12 13  2  0
 13 14  1  0
 14 15  1  0
 14 16  2  0
 16 17  1  0
 17 18  1  0
 18 19  1  0
 18 20  1  0
 18 21  1  0
 17 22  2  0
 22 23  1  0
 23 24  3  0
  6 25  2  0
 25  2  1  0
 22 12  1  0
M  END
>  <Binding energies>  (21) 
[-6.38]

>  <Ligand effiencies>  (21) 
[-0.24538461538461537]

>  <Interactions>  (21) 
["V-A:ARG:545:CZ:4926, V-B:GLU:543:CD:9879, V-A:LEU:475:CD2:4258, V-A:GLU:543:CD:4908, V-A:GLY:453:CA:4043, V-A:GLY:454:CA:4048, V-A:HIS:456:CE1:4069, V-B:TYR:539:CD2:9845, V-B:TYR:539:CE2:9847, V-B:ALA:541:CB:9863, V-A:ARG:545:CG:4922, V-B:GLU:543:CG:9878, V-B:GLU:543:CB:9877, V-B:PRO:540:C:9852, H-A:TYR:484:OH:4347, V-B:PRO:540:N:9855, V-B:PRO:540:CA:9854, H-B:ALA:541:N:9862, H-A:GLY:454:N:4049, V-B:PRO:540:CB:9856, V-A:ARG:545:CD:4923, V-A:GLY:453:C:4041, V-B:ASN:362:CB:8147, V-A:TYR:484:CE1:4344, V-B:GLU:543:CA:9875"]

$$$$
2f_Grossjean_2025
     RDKit          3D

 24 25  0  0  0  0  0  0  0  0999 V2000
  128.6290  126.4090   67.8340 C   0  0  0  0  0  0  0  0  0  0  0  0
  129.1230  126.5890   69.2570 C   0  0  0  0  0  0  0  0  0  0  0  0
  130.0920  127.5360   69.5790 C   0  0  0  0  0  0  0  0  0  0  0  0
  130.5230  127.6590   70.9090 C   0  0  0  0  0  0  0  0  0  0  0  0
  131.6050  128.7030   71.2420 C   0  0  0  0  0  0  0  0  0  0  0  0
  132.6280  128.1200   71.8690 F   0  0  0  0  0  0  0  0  0  0  0  0
  132.0520  129.2690   70.1210 F   0  0  0  0  0  0  0  0  0  0  0  0
  131.1550  129.6790   72.0340 F   0  0  0  0  0  0  0  0  0  0  0  0
  129.9450  126.8120   71.8890 C   0  0  0  0  0  0  0  0  0  0  0  0
  130.4010  126.8630   73.2810 C   0  0  0  0  0  0  0  0  0  0  0  0
  130.7610  126.9040   74.3800 N   0  0  0  0  0  0  0  0  0  0  0  0
  128.9470  125.8970   71.4740 C   0  0  0  0  0  0  0  0  0  0  0  0
  128.1080  124.7700   72.5690 S   0  0  0  0  0  0  0  0  0  0  0  0
  129.3600  123.6750   73.3220 C   0  0  0  0  0  0  0  0  0  0  0  0
  129.1260  122.1730   73.1060 C   0  0  0  0  0  0  0  0  0  0  0  0
  130.0200  121.3580   73.3410 O   0  0  0  0  0  0  0  0  0  0  0  0
  127.9010  121.8600   72.6340 N   0  0  0  0  0  0  0  0  0  0  0  0
  127.3530  120.5970   72.3360 C   0  0  0  0  0  0  0  0  0  0  0  0
  126.3510  119.9460   73.0790 C   0  0  0  0  0  0  0  0  0  0  0  0
  125.8910  118.6930   72.6700 C   0  0  0  0  0  0  0  0  0  0  0  0
  126.4410  118.1230   71.5210 C   0  0  0  0  0  0  0  0  0  0  0  0
  127.4010  118.7330   70.7820 N   0  0  0  0  0  0  0  0  0  0  0  0
  127.8380  119.9510   71.1930 C   0  0  0  0  0  0  0  0  0  0  0  0
  128.5610  125.7780   70.1810 N   0  0  0  0  0  0  0  0  0  0  0  0
  1  2  1  0
  2  3  2  0
  3  4  1  0
  4  5  1  0
  5  6  1  0
  5  7  1  0
  5  8  1  0
  4  9  2  0
  9 10  1  0
 10 11  3  0
  9 12  1  0
 12 13  1  0
 13 14  1  0
 14 15  1  0
 15 16  2  0
 15 17  1  0
 17 18  1  0
 18 19  2  0
 19 20  1  0
 20 21  2  0
 21 22  1  0
 22 23  2  0
 12 24  2  0
 24  2  1  0
 23 18  1  0
M  END
>  <Binding energies>  (22) 
[-6.47]

>  <Ligand effiencies>  (22) 
[-0.2588]

>  <Interactions>  (22) 
["V-B:GLU:543:CD:9879, V-A:HIS:456:CE1:4069, V-A:GLU:543:C:4902, V-A:HIS:456:CG:4065, V-A:GLU:543:CB:4906, V-A:GLY:544:C:4912, V-A:HIS:456:CD2:4067, V-A:ARG:545:CG:4922, V-B:GLU:543:C:9873, V-B:GLU:543:CG:9878, V-B:GLU:543:CB:9877, V-A:ARG:545:CA:4919, V-A:ARG:545:CB:4921, H-B:LYS:547:NZ:9922, V-B:LYS:547:CE:9921, H-A:LYS:547:NZ:4951, V-A:GLU:543:CA:4904, H-B:GLU:543:O:9874, H-B:GLY:544:O:9884, V-B:GLY:544:CA:9885, V-A:TYR:484:CB:4340, V-A:TYR:484:CA:4338, V-A:TYR:484:CD1:4342, V-A:TYR:484:CG:4341, V-A:GLY:544:CA:4914, H-A:TYR:484:N:4339, V-A:SER:483:CB:4332, V-A:ARG:545:C:4917"]

$$$$
2g_Grossjean_2025
     RDKit          3D

 25 26  0  0  0  0  0  0  0  0999 V2000
  128.8660  128.0240   67.6570 C   0  0  0  0  0  0  0  0  0  0  0  0
  128.0050  128.6970   66.6050 C   0  0  0  0  0  0  0  0  0  0  0  0
  126.7130  129.1310   66.8890 C   0  0  0  0  0  0  0  0  0  0  0  0
  125.9530  129.7420   65.8790 C   0  0  0  0  0  0  0  0  0  0  0  0
  124.5220  130.2080   66.2100 C   0  0  0  0  0  0  0  0  0  0  0  0
  124.2250  129.9240   67.4790 F   0  0  0  0  0  0  0  0  0  0  0  0
  124.4220  131.5250   66.0270 F   0  0  0  0  0  0  0  0  0  0  0  0
  123.5980  129.6230   65.4440 F   0  0  0  0  0  0  0  0  0  0  0  0
  126.5350  129.9040   64.5960 C   0  0  0  0  0  0  0  0  0  0  0  0
  125.7650  130.4830   63.4920 C   0  0  0  0  0  0  0  0  0  0  0  0
  125.1570  130.9410   62.6210 N   0  0  0  0  0  0  0  0  0  0  0  0
  127.8660  129.4590   64.4080 C   0  0  0  0  0  0  0  0  0  0  0  0
  128.7560  129.6080   62.8740 S   0  0  0  0  0  0  0  0  0  0  0  0
  129.6040  131.2240   62.8860 C   0  0  0  0  0  0  0  0  0  0  0  0
  129.0250  132.2590   61.9110 C   0  0  0  0  0  0  0  0  0  0  0  0
  129.7270  133.1510   61.4310 O   0  0  0  0  0  0  0  0  0  0  0  0
  127.7160  132.1230   61.6340 N   0  0  0  0  0  0  0  0  0  0  0  0
  126.9450  132.9800   60.7310 C   0  0  0  0  0  0  0  0  0  0  0  0
  126.5310  134.3180   61.3340 C   0  0  0  0  0  0  0  0  0  0  0  0
  125.2320  134.4880   61.8230 C   0  0  0  0  0  0  0  0  0  0  0  0
  124.8630  135.6970   62.4090 C   0  0  0  0  0  0  0  0  0  0  0  0
  125.7950  136.7260   62.5140 C   0  0  0  0  0  0  0  0  0  0  0  0
  127.0950  136.5580   62.0400 C   0  0  0  0  0  0  0  0  0  0  0  0
  127.4650  135.3500   61.4540 C   0  0  0  0  0  0  0  0  0  0  0  0
  128.5780  128.8510   65.3890 N   0  0  0  0  0  0  0  0  0  0  0  0
  1  2  1  0
  2  3  2  0
  3  4  1  0
  4  5  1  0
  5  6  1  0
  5  7  1  0
  5  8  1  0
  4  9  2  0
  9 10  1  0
 10 11  3  0
  9 12  1  0
 12 13  1  0
 13 14  1  0
 14 15  1  0
 15 16  2  0
 15 17  1  0
 17 18  1  0
 18 19  1  0
 19 20  2  0
 20 21  1  0
 21 22  2  0
 22 23  1  0
 23 24  2  0
 12 25  2  0
 25  2  1  0
 24 19  1  0
M  END
>  <Binding energies>  (23) 
[-5.65]

>  <Ligand effiencies>  (23) 
[-0.2173076923076923]

>  <Interactions>  (23) 
["V-B:HIS:456:CE1:9041, V-B:GLU:543:CD:9879, V-A:GLU:543:CD:4908, V-B:GLY:454:CA:9020, V-A:ALA:541:CB:4892, V-B:TRP:381:CZ2:8341, V-A:GLU:543:CG:4907, V-B:PRO:482:CB:9297, V-B:PRO:482:CG:9298, V-B:LEU:475:CD1:9229, V-B:TRP:381:CH2:8343, V-A:TYR:539:CE2:4876, V-A:TYR:539:CD2:4874, V-A:GLU:543:CB:4906, V-B:ARG:545:CZ:9897, V-B:TYR:484:CZ:9318, V-B:ARG:545:CG:9893, H-A:ALA:541:N:4891, V-B:ARG:545:CD:9894, V-B:GLY:453:CA:9015, V-B:GLY:454:C:9018, V-B:GLY:453:C:9013, V-B:TRP:381:CE2:8338"]

$$$$
2h_Grossjean_2025
     RDKit          3D

 31 32  0  0  0  0  0  0  0  0999 V2000
  130.1990  124.7580   74.5830 C   0  0  0  0  0  0  0  0  0  0  0  0
  129.0640  125.5150   74.1770 O   0  0  0  0  0  0  0  0  0  0  0  0
  129.0220  126.0410   72.8980 C   0  0  0  0  0  0  0  0  0  0  0  0
  128.4080  125.4040   71.8080 C   0  0  0  0  0  0  0  0  0  0  0  0
  128.3980  126.0010   70.5500 C   0  0  0  0  0  0  0  0  0  0  0  0
  129.0000  127.2440   70.3510 C   0  0  0  0  0  0  0  0  0  0  0  0
  128.9580  127.8880   68.9660 C   0  0  0  0  0  0  0  0  0  0  0  0
  129.9720  127.3700   68.0470 N   0  0  0  0  0  0  0  0  0  0  0  0
  129.9520  126.1470   67.4890 C   0  0  0  0  0  0  0  0  0  0  0  0
  129.1060  125.2930   67.7620 O   0  0  0  0  0  0  0  0  0  0  0  0
  131.0600  125.8690   66.4630 C   0  0  0  0  0  0  0  0  0  0  0  0
  130.7010  126.4370   64.7680 S   0  0  0  0  0  0  0  0  0  0  0  0
  130.6930  124.9900   63.7310 C   0  0  0  0  0  0  0  0  0  0  0  0
  129.4560  124.6290   63.3090 N   0  0  0  0  0  0  0  0  0  0  0  0
  129.3320  123.5320   62.5300 C   0  0  0  0  0  0  0  0  0  0  0  0
  127.9200  123.1830   62.1010 C   0  0  0  0  0  0  0  0  0  0  0  0
  130.4240  122.7590   62.1390 C   0  0  0  0  0  0  0  0  0  0  0  0
  131.7140  123.1290   62.5500 C   0  0  0  0  0  0  0  0  0  0  0  0
  132.9100  122.2680   62.1010 C   0  0  0  0  0  0  0  0  0  0  0  0
  133.5100  121.7320   63.1640 F   0  0  0  0  0  0  0  0  0  0  0  0
  132.5510  121.2650   61.2960 F   0  0  0  0  0  0  0  0  0  0  0  0
  133.7920  123.0170   61.4380 F   0  0  0  0  0  0  0  0  0  0  0  0
  131.8610  124.2830   63.3620 C   0  0  0  0  0  0  0  0  0  0  0  0
  133.1910  124.7450   63.7680 C   0  0  0  0  0  0  0  0  0  0  0  0
  134.2430  125.1090   64.0840 N   0  0  0  0  0  0  0  0  0  0  0  0
  129.6380  127.8820   71.4250 C   0  0  0  0  0  0  0  0  0  0  0  0
  130.2350  129.1060   71.2370 O   0  0  0  0  0  0  0  0  0  0  0  0
  131.5860  129.0380   70.7970 C   0  0  0  0  0  0  0  0  0  0  0  0
  129.6300  127.2880   72.6990 C   0  0  0  0  0  0  0  0  0  0  0  0
  130.2380  127.9180   73.7580 O   0  0  0  0  0  0  0  0  0  0  0  0
  129.3890  128.8100   74.4680 C   0  0  0  0  0  0  0  0  0  0  0  0
  1  2  1  0
  2  3  1  0
  3  4  2  0
  4  5  1  0
  5  6  2  0
  6  7  1  0
  7  8  1  0
  8  9  1  0
  9 10  2  0
  9 11  1  0
 11 12  1  0
 12 13  1  0
 13 14  2  0
 14 15  1  0
 15 16  1  0
 15 17  2  0
 17 18  1  0
 18 19  1  0
 19 20  1  0
 19 21  1  0
 19 22  1  0
 18 23  2  0
 23 24  1  0
 24 25  3  0
  6 26  1  0
 26 27  1  0
 27 28  1  0
 26 29  2  0
 29 30  1  0
 30 31  1  0
 29  3  1  0
 23 13  1  0
M  END
>  <Binding energies>  (24) 
[-6.82]

>  <Ligand effiencies>  (24) 
[-0.213125]

>  <Interactions>  (24) 
["V-B:HIS:456:CE1:9041, V-A:LEU:475:CD2:4258, V-A:GLU:543:CD:4908, V-A:ILE:369:CD1:3238, V-A:GLU:543:CG:4907, H-A:ARG:545:NH2:4928, V-A:GLY:454:CA:4048, V-A:HIS:456:CE1:4069, V-A:GLU:543:C:4902, V-A:ILE:369:CG2:3236, V-A:GLU:543:CB:4906, V-A:ILE:369:CB:3235, V-A:GLY:544:C:4912, V-A:HIS:456:CD2:4067, V-B:ALA:541:CB:9863, V-A:ARG:545:CA:4919, H-B:LYS:547:NZ:9922, H-A:LYS:547:NZ:4951, V-B:ALA:541:CA:9861, V-A:LYS:547:CE:4950, H-A:GLY:454:N:4049, H-A:GLU:543:OE2:4910, H-A:ARG:545:NH1:4927, V-A:ILE:369:CG1:3237"]

$$$$
2i_Grossjean_2025
     RDKit          3D

 23 24  0  0  0  0  0  0  0  0999 V2000
  128.6860  126.2610   67.8130 C   0  0  0  0  0  0  0  0  0  0  0  0
  129.1280  126.4680   69.2490 C   0  0  0  0  0  0  0  0  0  0  0  0
  130.0570  127.4460   69.5940 C   0  0  0  0  0  0  0  0  0  0  0  0
  130.4310  127.5990   70.9370 C   0  0  0  0  0  0  0  0  0  0  0  0
  131.4600  128.6860   71.3010 C   0  0  0  0  0  0  0  0  0  0  0  0
  132.4640  128.1490   71.9970 F   0  0  0  0  0  0  0  0  0  0  0  0
  131.9510  129.2420   70.1920 F   0  0  0  0  0  0  0  0  0  0  0  0
  130.9370  129.6660   72.0420 F   0  0  0  0  0  0  0  0  0  0  0  0
  129.8450  126.7440   71.9050 C   0  0  0  0  0  0  0  0  0  0  0  0
  130.1990  126.8610   73.3230 C   0  0  0  0  0  0  0  0  0  0  0  0
  130.4780  126.9530   74.4430 N   0  0  0  0  0  0  0  0  0  0  0  0
  128.9120  125.7760   71.4670 C   0  0  0  0  0  0  0  0  0  0  0  0
  128.1170  124.6410   72.5930 S   0  0  0  0  0  0  0  0  0  0  0  0
  129.4040  123.6040   73.3520 C   0  0  0  0  0  0  0  0  0  0  0  0
  129.2530  122.1280   72.9800 C   0  0  0  0  0  0  0  0  0  0  0  0
  130.2470  121.4000   73.0000 O   0  0  0  0  0  0  0  0  0  0  0  0
  128.0110  121.7350   72.6230 N   0  0  0  0  0  0  0  0  0  0  0  0
  127.6260  120.4640   72.2310 C   0  0  0  0  0  0  0  0  0  0  0  0
  126.9510  119.4640   72.9450 C   0  0  0  0  0  0  0  0  0  0  0  0
  126.8350  118.4180   72.0580 C   0  0  0  0  0  0  0  0  0  0  0  0
  127.4000  118.7720   70.8790 O   0  0  0  0  0  0  0  0  0  0  0  0
  127.8920  120.0740   71.0030 N   0  0  0  0  0  0  0  0  0  0  0  0
  128.5630  125.6460   70.1610 N   0  0  0  0  0  0  0  0  0  0  0  0
  1  2  1  0
  2  3  2  0
  3  4  1  0
  4  5  1  0
  5  6  1  0
  5  7  1  0
  5  8  1  0
  4  9  2  0
  9 10  1  0
 10 11  3  0
  9 12  1  0
 12 13  1  0
 13 14  1  0
 14 15  1  0
 15 16  2  0
 15 17  1  0
 17 18  1  0
 18 19  1  0
 19 20  2  0
 20 21  1  0
 21 22  1  0
 12 23  2  0
 23  2  1  0
 22 18  2  0
M  END
>  <Binding energies>  (25) 
[-6.41]

>  <Ligand effiencies>  (25) 
[-0.26708333333333334]

>  <Interactions>  (25) 
["V-B:GLU:543:CD:9879, V-A:HIS:456:CE1:4069, V-A:GLU:543:C:4902, V-A:HIS:456:CG:4065, V-A:GLU:543:CB:4906, V-A:GLY:544:C:4912, V-A:HIS:456:CD2:4067, V-A:ARG:545:CG:4922, V-B:GLU:543:C:9873, V-B:GLU:543:CG:9878, V-B:GLU:543:CB:9877, V-A:ARG:545:CA:4919, V-A:ARG:545:CB:4921, H-B:LYS:547:NZ:9922, H-A:LYS:547:NZ:4951, V-A:GLU:543:CA:4904, H-B:GLU:543:O:9874, H-B:GLY:544:O:9884, V-B:GLY:544:CA:9885, V-A:TYR:484:CB:4340, V-A:GLY:544:CA:4914, H-A:TYR:484:N:4339, V-A:ARG:545:C:4917"]

$$$$
2k_Grossjean_2025
     RDKit          3D

 28 28  0  0  0  0  0  0  0  0999 V2000
  128.6770  125.5840   72.0460 C   0  0  0  0  0  0  0  0  0  0  0  0
  128.6370  125.8880   73.4310 O   0  0  0  0  0  0  0  0  0  0  0  0
  129.9120  126.1970   73.9800 C   0  0  0  0  0  0  0  0  0  0  0  0
  130.8280  126.7520   72.8820 C   0  0  0  0  0  0  0  0  0  0  0  0
  130.8310  128.1700   72.9550 O   0  0  0  0  0  0  0  0  0  0  0  0
  130.6860  128.8200   71.6970 C   0  0  0  0  0  0  0  0  0  0  0  0
  131.7620  128.2810   70.7460 C   0  0  0  0  0  0  0  0  0  0  0  0
  131.1750  128.1350   69.4630 O   0  0  0  0  0  0  0  0  0  0  0  0
  129.8330  127.6740   69.4610 C   0  0  0  0  0  0  0  0  0  0  0  0
  129.6770  126.5920   68.3770 C   0  0  0  0  0  0  0  0  0  0  0  0
  130.7550  126.6180   67.3840 N   0  0  0  0  0  0  0  0  0  0  0  0
  130.9370  125.7150   66.4020 C   0  0  0  0  0  0  0  0  0  0  0  0
  130.1810  124.7600   66.2100 O   0  0  0  0  0  0  0  0  0  0  0  0
  132.1790  125.9270   65.5240 C   0  0  0  0  0  0  0  0  0  0  0  0
  133.1070  124.4120   65.1000 S   0  0  0  0  0  0  0  0  0  0  0  0
  132.6460  123.8720   63.4600 C   0  0  0  0  0  0  0  0  0  0  0  0
  133.3440  124.4300   62.4380 N   0  0  0  0  0  0  0  0  0  0  0  0
  133.0450  124.0710   61.1700 C   0  0  0  0  0  0  0  0  0  0  0  0
  133.8610  124.7470   60.0850 C   0  0  0  0  0  0  0  0  0  0  0  0
  132.0560  123.1400   60.8660 C   0  0  0  0  0  0  0  0  0  0  0  0
  131.3270  122.5440   61.9060 C   0  0  0  0  0  0  0  0  0  0  0  0
  130.2390  121.5110   61.5530 C   0  0  0  0  0  0  0  0  0  0  0  0
  130.3170  120.4040   62.2930 F   0  0  0  0  0  0  0  0  0  0  0  0
  129.0290  122.0380   61.7460 F   0  0  0  0  0  0  0  0  0  0  0  0
  130.3530  121.1480   60.2750 F   0  0  0  0  0  0  0  0  0  0  0  0
  131.6240  122.9170   63.2420 C   0  0  0  0  0  0  0  0  0  0  0  0
  130.8920  122.3290   64.3680 C   0  0  0  0  0  0  0  0  0  0  0  0
  130.3130  121.8630   65.2560 N   0  0  0  0  0  0  0  0  0  0  0  0
  1  2  1  0
  2  3  1  0
  3  4  1  0
  4  5  1  0
  5  6  1  0
  6  7  1  0
  7  8  1  0
  8  9  1  0
  9 10  1  0
 10 11  1  0
 11 12  1  0
 12 13  2  0
 12 14  1  0
 14 15  1  0
 15 16  1  0
 16 17  2  0
 17 18  1  0
 18 19  1  0
 18 20  2  0
 20 21  1  0
 21 22  1  0
 22 23  1  0
 22 24  1  0
 22 25  1  0
 21 26  2  0
 26 27  1  0
 27 28  3  0
 26 16  1  0
M  END
>  <Binding energies>  (26) 
[-5.32]

>  <Ligand effiencies>  (26) 
[-0.18344827586206897]

>  <Interactions>  (26) 
["V-A:ARG:545:CZ:4926, V-A:ASP:366:CG:3212, V-A:LEU:475:CD2:4258, V-A:GLU:543:CD:4908, V-A:ILE:369:CD1:3238, V-A:HIS:456:CE1:4069, V-B:TYR:539:CD2:9845, V-A:HIS:456:CG:4065, V-A:ILE:369:CG2:3236, V-A:GLU:543:CB:4906, V-B:TYR:539:CE2:9847, V-A:ILE:369:CB:3235, V-A:ASP:366:CB:3211, V-A:ASP:366:CA:3209, V-A:GLY:544:C:4912, V-A:HIS:456:CD2:4067, V-B:ALA:541:CB:9863, V-A:ARG:545:CG:4922, V-A:ARG:545:CA:4919, H-B:LYS:547:NZ:9922, H-A:LYS:547:NZ:4951, H-A:TYR:484:OH:4347, V-B:ALA:541:CA:9861, H-A:GLY:454:N:4049, V-A:LEU:475:CD1:4257, H-A:GLU:543:OE2:4910"]

$$$$
3aa_Grossjean_2025
     RDKit          3D

 34 36  0  0  0  0  0  0  0  0999 V2000
  128.6990  123.6050   73.0430 C   0  0  0  0  0  0  0  0  0  0  0  0
  129.5480  124.6160   73.8190 C   0  0  0  0  0  0  0  0  0  0  0  0
  128.9890  125.9160   73.6730 O   0  0  0  0  0  0  0  0  0  0  0  0
  129.7260  126.9410   73.1730 C   0  0  0  0  0  0  0  0  0  0  0  0
  130.3950  127.7040   73.8760 O   0  0  0  0  0  0  0  0  0  0  0  0
  129.6330  127.0660   71.6790 C   0  0  0  0  0  0  0  0  0  0  0  0
  130.4050  127.9910   70.9610 C   0  0  0  0  0  0  0  0  0  0  0  0
  130.2970  128.0770   69.5750 C   0  0  0  0  0  0  0  0  0  0  0  0
  129.4240  127.2390   68.8800 C   0  0  0  0  0  0  0  0  0  0  0  0
  129.3950  127.4050   67.4810 N   0  0  0  0  0  0  0  0  0  0  0  0
  129.3750  126.4730   66.5030 C   0  0  0  0  0  0  0  0  0  0  0  0
  129.4030  125.2540   66.6780 O   0  0  0  0  0  0  0  0  0  0  0  0
  129.3250  127.0160   65.0750 C   0  0  0  0  0  0  0  0  0  0  0  0
  130.8140  126.5710   64.1310 S   0  0  0  0  0  0  0  0  0  0  0  0
  130.4290  125.0950   63.2150 C   0  0  0  0  0  0  0  0  0  0  0  0
  129.1160  124.9770   62.9030 N   0  0  0  0  0  0  0  0  0  0  0  0
  128.6850  123.8940   62.2060 C   0  0  0  0  0  0  0  0  0  0  0  0
  127.2220  123.8430   61.8870 C   0  0  0  0  0  0  0  0  0  0  0  0
  126.7380  124.3450   60.6680 C   0  0  0  0  0  0  0  0  0  0  0  0
  125.3790  124.3000   60.3640 C   0  0  0  0  0  0  0  0  0  0  0  0
  124.4860  123.7510   61.2770 C   0  0  0  0  0  0  0  0  0  0  0  0
  124.9400  123.2450   62.4900 C   0  0  0  0  0  0  0  0  0  0  0  0
  126.2990  123.2890   62.7900 C   0  0  0  0  0  0  0  0  0  0  0  0
  129.5800  122.9000   61.7970 C   0  0  0  0  0  0  0  0  0  0  0  0
  130.9420  122.9920   62.1230 C   0  0  0  0  0  0  0  0  0  0  0  0
  131.8930  121.8710   61.6650 C   0  0  0  0  0  0  0  0  0  0  0  0
  131.2460  120.7940   61.2140 F   0  0  0  0  0  0  0  0  0  0  0  0
  132.6760  122.3080   60.6770 F   0  0  0  0  0  0  0  0  0  0  0  0
  132.6610  121.4820   62.6830 F   0  0  0  0  0  0  0  0  0  0  0  0
  131.3840  124.1150   62.8650 C   0  0  0  0  0  0  0  0  0  0  0  0
  132.7830  124.2350   63.2840 C   0  0  0  0  0  0  0  0  0  0  0  0
  133.8890  124.3300   63.6150 N   0  0  0  0  0  0  0  0  0  0  0  0
  128.6390  126.3200   69.5930 C   0  0  0  0  0  0  0  0  0  0  0  0
  128.7460  126.2370   70.9770 C   0  0  0  0  0  0  0  0  0  0  0  0
  1  2  1  0
  2  3  1  0
  3  4  1  0
  4  5  2  0
  4  6  1  0
  6  7  2  0
  7  8  1  0
  8  9  2  0
  9 10  1  0
 10 11  1  0
 11 12  2  0
 11 13  1  0
 13 14  1  0
 14 15  1  0
 15 16  2  0
 16 17  1  0
 17 18  1  0
 18 19  2  0
 19 20  1  0
 20 21  2  0
 21 22  1  0
 22 23  2  0
 17 24  2  0
 24 25  1  0
 25 26  1  0
 26 27  1  0
 26 28  1  0
 26 29  1  0
 25 30  2  0
 30 31  1  0
 31 32  3  0
  9 33  1  0
 33 34  2  0
 34  6  1  0
 30 15  1  0
 23 18  1  0
M  END
>  <Binding energies>  (27) 
[-8.2]

>  <Ligand effiencies>  (27) 
[-0.23428571428571426]

>  <Interactions>  (27) 
["V-B:HIS:456:CE1:9041, V-B:GLU:543:CD:9879, V-A:LEU:475:CD2:4258, V-A:GLU:543:CD:4908, V-A:GLU:543:CG:4907, H-A:ARG:545:NH2:4928, V-A:HIS:456:CE1:4069, V-B:TYR:539:CD2:9845, V-A:ILE:369:CG2:3236, V-A:GLU:543:CB:4906, V-B:TYR:539:CE2:9847, V-A:HIS:456:CD2:4067, V-B:ALA:541:CB:9863, V-B:GLU:543:CG:9878, V-B:GLU:543:CB:9877, H-B:LYS:547:NZ:9922, V-B:LYS:547:CE:9921, H-A:LYS:547:NZ:4951, V-B:ALA:541:CA:9861, V-B:PRO:540:CA:9854, H-A:GLY:454:N:4049, V-B:PRO:540:CB:9856, H-A:GLU:543:OE2:4910, V-B:ASN:362:CB:8147, V-B:ALA:541:C:9859, V-B:ASN:362:C:8143"]

$$$$
3ad_Grossjean_2025
     RDKit          3D

 29 31  0  0  0  0  0  0  0  0999 V2000
  129.6500  127.3370   62.9930 N   0  0  0  0  0  0  0  0  0  0  0  0
  129.4990  127.2450   64.1370 C   0  0  0  0  0  0  0  0  0  0  0  0
  129.3060  127.1310   65.5860 C   0  0  0  0  0  0  0  0  0  0  0  0
  128.5170  128.0750   66.2870 C   0  0  0  0  0  0  0  0  0  0  0  0
  127.7850  129.2340   65.5840 C   0  0  0  0  0  0  0  0  0  0  0  0
  128.5760  129.9210   64.7590 F   0  0  0  0  0  0  0  0  0  0  0  0
  126.7670  128.7590   64.8640 F   0  0  0  0  0  0  0  0  0  0  0  0
  127.3100  130.0920   66.4890 F   0  0  0  0  0  0  0  0  0  0  0  0
  128.4020  127.9480   67.6800 C   0  0  0  0  0  0  0  0  0  0  0  0
  129.0580  126.9120   68.3530 C   0  0  0  0  0  0  0  0  0  0  0  0
  128.9820  126.7400   69.8410 C   0  0  0  0  0  0  0  0  0  0  0  0
  128.2710  125.6680   70.4030 C   0  0  0  0  0  0  0  0  0  0  0  0
  128.1970  125.5010   71.7830 C   0  0  0  0  0  0  0  0  0  0  0  0
  128.8350  126.4080   72.6230 C   0  0  0  0  0  0  0  0  0  0  0  0
  129.5480  127.4770   72.0910 C   0  0  0  0  0  0  0  0  0  0  0  0
  129.6210  127.6400   70.7100 C   0  0  0  0  0  0  0  0  0  0  0  0
  129.8190  126.0150   67.6770 N   0  0  0  0  0  0  0  0  0  0  0  0
  129.9280  126.1040   66.3300 C   0  0  0  0  0  0  0  0  0  0  0  0
  130.9520  124.8390   65.6120 S   0  0  0  0  0  0  0  0  0  0  0  0
  132.5910  125.5700   65.3250 C   0  0  0  0  0  0  0  0  0  0  0  0
  133.1120  125.2850   63.9140 C   0  0  0  0  0  0  0  0  0  0  0  0
  134.2170  124.7580   63.7790 O   0  0  0  0  0  0  0  0  0  0  0  0
  132.2880  125.6480   62.9080 N   0  0  0  0  0  0  0  0  0  0  0  0
  132.4530  125.5180   61.5170 C   0  0  0  0  0  0  0  0  0  0  0  0
  131.5490  126.2370   60.7290 C   0  0  0  0  0  0  0  0  0  0  0  0
  131.6210  126.1750   59.3400 C   0  0  0  0  0  0  0  0  0  0  0  0
  132.5970  125.3880   58.7350 C   0  0  0  0  0  0  0  0  0  0  0  0
  133.4990  124.6610   59.5070 C   0  0  0  0  0  0  0  0  0  0  0  0
  133.4300  124.7200   60.8960 C   0  0  0  0  0  0  0  0  0  0  0  0
  1  2  3  0
  2  3  1  0
  3  4  2  0
  4  5  1  0
  5  6  1  0
  5  7  1  0
  5  8  1  0
  4  9  1  0
  9 10  2  0
 10 11  1  0
 11 12  2  0
 12 13  1  0
 13 14  2  0
 14 15  1  0
 15 16  2  0
 10 17  1  0
 17 18  2  0
 18 19  1  0
 19 20  1  0
 20 21  1  0
 21 22  2  0
 21 23  1  0
 23 24  1  0
 24 25  2  0
 25 26  1  0
 26 27  2  0
 27 28  1  0
 28 29  2  0
 18  3  1  0
 29 24  1  0
 16 11  1  0
M  END
>  <Binding energies>  (28) 
[-6.93]

>  <Ligand effiencies>  (28) 
[-0.23099999999999998]

>  <Interactions>  (28) 
["V-B:HIS:456:CE1:9041, V-A:ARG:545:CZ:4926, V-B:GLU:543:CD:9879, V-A:ASP:366:CG:3212, V-A:GLU:543:CD:4908, V-A:ILE:369:CD1:3238, V-A:GLU:543:CG:4907, V-A:HIS:456:CE1:4069, V-B:HIS:456:CD2:9039, V-A:ILE:369:CG2:3236, V-A:ILE:369:CB:3235, V-A:ASP:366:CB:3211, V-A:ASP:366:CA:3209, V-B:GLU:543:C:9873, V-B:GLU:543:CG:9878, V-B:GLU:543:CB:9877, H-A:TYR:484:OH:4347, H-A:GLY:454:N:4049, V-A:ASP:366:C:3207"]

$$$$
3ai_Grossjean_2025
     RDKit          3D

 28 30  0  0  0  0  0  0  0  0999 V2000
  133.4650  121.4640   61.7610 N   0  0  0  0  0  0  0  0  0  0  0  0
  132.4090  121.7410   61.3760 C   0  0  0  0  0  0  0  0  0  0  0  0
  131.0720  122.0920   60.8890 C   0  0  0  0  0  0  0  0  0  0  0  0
  129.9950  121.1790   61.0090 C   0  0  0  0  0  0  0  0  0  0  0  0
  130.1440  119.8030   61.6860 C   0  0  0  0  0  0  0  0  0  0  0  0
  131.2750  119.1800   61.3510 F   0  0  0  0  0  0  0  0  0  0  0  0
  130.1410  119.9460   63.0120 F   0  0  0  0  0  0  0  0  0  0  0  0
  129.1330  119.0080   61.3350 F   0  0  0  0  0  0  0  0  0  0  0  0
  128.7460  121.5430   60.4840 C   0  0  0  0  0  0  0  0  0  0  0  0
  128.5760  122.7810   59.8560 C   0  0  0  0  0  0  0  0  0  0  0  0
  127.2670  123.2170   59.2690 C   0  0  0  0  0  0  0  0  0  0  0  0
  127.0300  123.1080   57.8890 C   0  0  0  0  0  0  0  0  0  0  0  0
  125.8150  123.5060   57.3370 C   0  0  0  0  0  0  0  0  0  0  0  0
  124.8180  124.0190   58.1600 C   0  0  0  0  0  0  0  0  0  0  0  0
  125.0270  124.1350   59.5310 C   0  0  0  0  0  0  0  0  0  0  0  0
  126.2430  123.7350   60.0790 C   0  0  0  0  0  0  0  0  0  0  0  0
  129.6120  123.6490   59.7360 N   0  0  0  0  0  0  0  0  0  0  0  0
  130.8220  123.3310   60.2560 C   0  0  0  0  0  0  0  0  0  0  0  0
  132.0500  124.5990   60.0230 S   0  0  0  0  0  0  0  0  0  0  0  0
  132.0130  125.6900   61.4850 C   0  0  0  0  0  0  0  0  0  0  0  0
  132.9390  125.2670   62.6350 C   0  0  0  0  0  0  0  0  0  0  0  0
  133.8870  124.5040   62.4320 O   0  0  0  0  0  0  0  0  0  0  0  0
  132.6210  125.7930   63.8390 N   0  0  0  0  0  0  0  0  0  0  0  0
  133.2790  125.5920   65.0450 C   0  0  0  0  0  0  0  0  0  0  0  0
  132.6750  125.7920   66.2860 C   0  0  0  0  0  0  0  0  0  0  0  0
  133.6480  125.4930   67.2110 C   0  0  0  0  0  0  0  0  0  0  0  0
  134.7810  125.1310   66.5620 O   0  0  0  0  0  0  0  0  0  0  0  0
  134.5340  125.1980   65.1890 N   0  0  0  0  0  0  0  0  0  0  0  0
  1  2  3  0
  2  3  1  0
  3  4  2  0
  4  5  1  0
  5  6  1  0
  5  7  1  0
  5  8  1  0
  4  9  1  0
  9 10  2  0
 10 11  1  0
 11 12  2  0
 12 13  1  0
 13 14  2  0
 14 15  1  0
 15 16  2  0
 10 17  1  0
 17 18  2  0
 18 19  1  0
 19 20  1  0
 20 21  1  0
 21 22  2  0
 21 23  1  0
 23 24  1  0
 24 25  1  0
 25 26  2  0
 26 27  1  0
 27 28  1  0
 18  3  1  0
 28 24  2  0
 16 11  1  0
M  END
>  <Binding energies>  (29) 
[-7.66]

>  <Ligand effiencies>  (29) 
[-0.26413793103448274]

>  <Interactions>  (29) 
["V-A:ARG:545:CZ:4926, V-A:ASP:366:CG:3212, V-A:LEU:475:CD2:4258, V-A:HIS:456:CE1:4069, V-B:TYR:539:CD2:9845, V-A:ILE:369:CG2:3236, V-B:TYR:539:CE2:9847, V-B:ALA:541:CB:9863, V-A:ARG:545:CG:4922, V-B:PRO:540:C:9852, H-A:TYR:484:OH:4347, V-B:ALA:541:CA:9861, V-B:PRO:540:N:9855, V-A:TRP:381:CZ2:3369, V-B:TYR:539:C:9838, V-B:PRO:540:CA:9854, V-A:TRP:381:CH2:3371, H-A:ARG:545:NE:4924, H-A:GLY:454:N:4049, V-B:PRO:540:CB:9856, V-A:ARG:545:CD:4923, V-A:LEU:475:CD1:4257, H-A:GLU:543:OE2:4910, H-A:ARG:545:NH1:4927, V-B:LEU:363:CD1:8160, V-A:PRO:482:CB:4325, V-A:PRO:482:CG:4326, H-A:ILE:455:N:4054, V-A:LEU:475:CG:4256"]

$$$$
3aj_Grossjean_2025
     RDKit          3D

 28 30  0  0  0  0  0  0  0  0999 V2000
  127.7690  128.2850   63.9920 N   0  0  0  0  0  0  0  0  0  0  0  0
  128.1920  128.1260   65.0570 C   0  0  0  0  0  0  0  0  0  0  0  0
  128.7300  127.9230   66.4050 C   0  0  0  0  0  0  0  0  0  0  0  0
  129.7000  126.9220   66.6550 C   0  0  0  0  0  0  0  0  0  0  0  0
  130.2770  126.0260   65.5410 C   0  0  0  0  0  0  0  0  0  0  0  0
  129.3790  125.1680   65.0510 F   0  0  0  0  0  0  0  0  0  0  0  0
  130.7090  126.7780   64.5280 F   0  0  0  0  0  0  0  0  0  0  0  0
  131.2960  125.3090   66.0140 F   0  0  0  0  0  0  0  0  0  0  0  0
  130.1480  126.7360   67.9720 C   0  0  0  0  0  0  0  0  0  0  0  0
  129.6390  127.5240   69.0100 C   0  0  0  0  0  0  0  0  0  0  0  0
  130.0750  127.3610   70.4340 C   0  0  0  0  0  0  0  0  0  0  0  0
  131.2380  127.9900   70.9040 C   0  0  0  0  0  0  0  0  0  0  0  0
  131.6470  127.8470   72.2270 C   0  0  0  0  0  0  0  0  0  0  0  0
  130.8950  127.0670   73.1010 C   0  0  0  0  0  0  0  0  0  0  0  0
  129.7380  126.4330   72.6600 C   0  0  0  0  0  0  0  0  0  0  0  0
  129.3320  126.5810   71.3370 C   0  0  0  0  0  0  0  0  0  0  0  0
  128.7040  128.4770   68.7670 N   0  0  0  0  0  0  0  0  0  0  0  0
  128.2730  128.6920   67.5010 C   0  0  0  0  0  0  0  0  0  0  0  0
  127.0660  129.9940   67.3720 S   0  0  0  0  0  0  0  0  0  0  0  0
  125.4210  129.2180   67.2210 C   0  0  0  0  0  0  0  0  0  0  0  0
  124.5770  129.7110   66.0360 C   0  0  0  0  0  0  0  0  0  0  0  0
  123.3810  129.9720   66.1790 O   0  0  0  0  0  0  0  0  0  0  0  0
  125.2530  129.8250   64.8710 N   0  0  0  0  0  0  0  0  0  0  0  0
  124.7400  130.2510   63.6540 C   0  0  0  0  0  0  0  0  0  0  0  0
  123.5560  130.7740   63.4150 N   0  0  0  0  0  0  0  0  0  0  0  0
  123.4040  131.0690   62.1390 C   0  0  0  0  0  0  0  0  0  0  0  0
  124.4850  130.7830   61.3080 C   0  0  0  0  0  0  0  0  0  0  0  0
  125.7610  130.0880   62.2610 S   0  0  0  0  0  0  0  0  0  0  0  0
  1  2  3  0
  2  3  1  0
  3  4  2  0
  4  5  1  0
  5  6  1  0
  5  7  1  0
  5  8  1  0
  4  9  1  0
  9 10  2  0
 10 11  1  0
 11 12  2  0
 12 13  1  0
 13 14  2  0
 14 15  1  0
 15 16  2  0
 10 17  1  0
 17 18  2  0
 18 19  1  0
 19 20  1  0
 20 21  1  0
 21 22  2  0
 21 23  1  0
 23 24  1  0
 24 25  2  0
 25 26  1  0
 26 27  2  0
 27 28  1  0
 18  3  1  0
 28 24  1  0
 16 11  1  0
M  END
>  <Binding energies>  (30) 
[-6.48]

>  <Ligand effiencies>  (30) 
[-0.22344827586206897]

>  <Interactions>  (30) 
["V-B:ASP:366:CG:8184, V-B:HIS:456:CE1:9041, V-B:GLU:543:CD:9879, V-A:GLU:543:CD:4908, V-B:ILE:369:CD1:8210, V-A:GLU:543:CG:4907, V-A:HIS:456:CE1:4069, V-A:HIS:456:CG:4065, V-A:GLU:543:CB:4906, V-A:HIS:456:CD2:4067, V-B:GLU:543:CG:9878, H-B:GLY:454:N:9021, H-B:GLU:543:OE1:9880, H-B:TYR:484:OH:9319, H-B:ARG:545:NE:9895, V-B:ARG:545:CZ:9897, V-B:ARG:545:CG:9893, V-B:ARG:545:CD:9894, H-B:ILE:455:N:9026"]

$$$$
3ak_Grossjean_2025
     RDKit          3D

 33 34  0  0  0  0  0  0  0  0999 V2000
  125.3860  123.6210   62.0670 C   0  0  0  0  0  0  0  0  0  0  0  0
  126.5770  122.8880   61.8300 O   0  0  0  0  0  0  0  0  0  0  0  0
  127.5560  123.6190   61.1050 C   0  0  0  0  0  0  0  0  0  0  0  0
  127.8780  122.8700   59.8060 C   0  0  0  0  0  0  0  0  0  0  0  0
  128.8710  121.8870   60.0730 O   0  0  0  0  0  0  0  0  0  0  0  0
  129.5080  121.9850   61.3440 C   0  0  0  0  0  0  0  0  0  0  0  0
  131.0460  121.9550   61.2710 C   0  0  0  0  0  0  0  0  0  0  0  0
  131.5610  123.1830   61.7670 O   0  0  0  0  0  0  0  0  0  0  0  0
  132.2430  123.9590   60.7900 C   0  0  0  0  0  0  0  0  0  0  0  0
  132.6360  125.3260   61.3780 C   0  0  0  0  0  0  0  0  0  0  0  0
  132.3250  125.4640   62.8020 N   0  0  0  0  0  0  0  0  0  0  0  0
  133.1980  125.3290   63.8180 C   0  0  0  0  0  0  0  0  0  0  0  0
  134.3920  125.0850   63.6430 O   0  0  0  0  0  0  0  0  0  0  0  0
  132.6860  125.4850   65.2600 C   0  0  0  0  0  0  0  0  0  0  0  0
  131.0570  124.7390   65.6350 S   0  0  0  0  0  0  0  0  0  0  0  0
  130.0070  125.9900   66.3590 C   0  0  0  0  0  0  0  0  0  0  0  0
  129.8640  125.9270   67.7060 N   0  0  0  0  0  0  0  0  0  0  0  0
  129.0810  126.8310   68.3480 C   0  0  0  0  0  0  0  0  0  0  0  0
  128.9810  126.6880   69.8380 C   0  0  0  0  0  0  0  0  0  0  0  0
  129.5880  127.6220   70.6910 C   0  0  0  0  0  0  0  0  0  0  0  0
  129.4950  127.4970   72.0750 C   0  0  0  0  0  0  0  0  0  0  0  0
  128.7890  126.4330   72.6250 C   0  0  0  0  0  0  0  0  0  0  0  0
  128.1760  125.4950   71.8030 C   0  0  0  0  0  0  0  0  0  0  0  0
  128.2700  125.6230   70.4200 C   0  0  0  0  0  0  0  0  0  0  0  0
  128.4260  127.8440   67.6390 C   0  0  0  0  0  0  0  0  0  0  0  0
  128.5580  127.9320   66.2460 C   0  0  0  0  0  0  0  0  0  0  0  0
  127.8190  129.0600   65.5000 C   0  0  0  0  0  0  0  0  0  0  0  0
  126.8310  128.5510   64.7650 F   0  0  0  0  0  0  0  0  0  0  0  0
  127.3060  129.9270   66.3740 F   0  0  0  0  0  0  0  0  0  0  0  0
  128.6170  129.7470   64.6780 F   0  0  0  0  0  0  0  0  0  0  0  0
  129.3690  126.9800   65.5820 C   0  0  0  0  0  0  0  0  0  0  0  0
  129.5430  127.0240   64.1260 C   0  0  0  0  0  0  0  0  0  0  0  0
  129.6800  127.0570   62.9770 N   0  0  0  0  0  0  0  0  0  0  0  0
  1  2  1  0
  2  3  1  0
  3  4  1  0
  4  5  1  0
  5  6  1  0
  6  7  1  0
  7  8  1  0
  8  9  1  0
  9 10  1  0
 10 11  1  0
 11 12  1  0
 12 13  2  0
 12 14  1  0
 14 15  1  0
 15 16  1  0
 16 17  2  0
 17 18  1  0
 18 19  1  0
 19 20  2  0
 20 21  1  0
 21 22  2  0
 22 23  1  0
 23 24  2  0
 18 25  2  0
 25 26  1  0
 26 27  1  0
 27 28  1  0
 27 29  1  0
 27 30  1  0
 26 31  2  0
 31 32  1  0
 32 33  3  0
 31 16  1  0
 24 19  1  0
M  END
>  <Binding energies>  (31) 
[-5.93]

>  <Ligand effiencies>  (31) 
[-0.17441176470588235]

>  <Interactions>  (31) 
["V-B:HIS:456:CE1:9041, V-A:ARG:545:CZ:4926, V-B:GLU:543:CD:9879, V-A:ASP:366:CG:3212, V-A:GLU:543:CD:4908, V-A:GLU:543:CG:4907, H-A:ARG:545:NH2:4928, V-A:HIS:456:CE1:4069, V-B:HIS:456:CD2:9039, V-A:ILE:369:CG2:3236, V-B:TYR:539:CE2:9847, V-B:ALA:541:CB:9863, V-B:GLU:543:C:9873, V-B:GLU:543:CG:9878, V-B:GLU:543:CB:9877, H-A:TYR:484:OH:4347, V-B:PRO:540:CA:9854, H-B:ALA:541:N:9862, H-A:GLY:454:N:4049, H-A:ARG:545:NH1:4927, V-B:ASN:362:CB:8147"]

$$$$
3bk_Grossjean_2025
     RDKit          3D

 30 31  0  0  0  0  0  0  0  0999 V2000
  129.5810  126.5340   73.0570 C   0  0  0  0  0  0  0  0  0  0  0  0
  128.3690  125.8630   72.7510 O   0  0  0  0  0  0  0  0  0  0  0  0
  128.2140  125.5760   71.3680 C   0  0  0  0  0  0  0  0  0  0  0  0
  129.1930  126.4310   70.5520 C   0  0  0  0  0  0  0  0  0  0  0  0
  128.6100  126.7430   69.2940 O   0  0  0  0  0  0  0  0  0  0  0  0
  129.5570  127.0750   68.2880 C   0  0  0  0  0  0  0  0  0  0  0  0
  129.0700  126.5390   66.9360 C   0  0  0  0  0  0  0  0  0  0  0  0
  130.1260  125.8340   66.2990 O   0  0  0  0  0  0  0  0  0  0  0  0
  131.3630  125.8980   66.9970 C   0  0  0  0  0  0  0  0  0  0  0  0
  132.5100  125.5540   66.0360 C   0  0  0  0  0  0  0  0  0  0  0  0
  132.0810  125.5430   64.6370 N   0  0  0  0  0  0  0  0  0  0  0  0
  132.8500  125.2100   63.5860 C   0  0  0  0  0  0  0  0  0  0  0  0
  134.0250  124.8510   63.6860 O   0  0  0  0  0  0  0  0  0  0  0  0
  132.1860  125.2680   62.2090 C   0  0  0  0  0  0  0  0  0  0  0  0
  132.6780  123.8660   61.1560 S   0  0  0  0  0  0  0  0  0  0  0  0
  131.3270  122.7030   61.0670 C   0  0  0  0  0  0  0  0  0  0  0  0
  130.0930  123.2400   60.8890 N   0  0  0  0  0  0  0  0  0  0  0  0
  129.0040  122.4310   60.8130 C   0  0  0  0  0  0  0  0  0  0  0  0
  127.6830  123.1040   60.5940 C   0  0  0  0  0  0  0  0  0  0  0  0
  126.9410  123.6000   61.6780 C   0  0  0  0  0  0  0  0  0  0  0  0
  125.7110  124.2220   61.4810 C   0  0  0  0  0  0  0  0  0  0  0  0
  125.2030  124.3570   60.1930 C   0  0  0  0  0  0  0  0  0  0  0  0
  125.9200  123.8770   59.1010 C   0  0  0  0  0  0  0  0  0  0  0  0
  127.1500  123.2580   59.3020 C   0  0  0  0  0  0  0  0  0  0  0  0
  129.1350  121.0410   60.9100 C   0  0  0  0  0  0  0  0  0  0  0  0
  130.3990  120.4700   61.0950 C   0  0  0  0  0  0  0  0  0  0  0  0
  130.4960  118.9490   61.1970 C   0  0  0  0  0  0  0  0  0  0  0  0
  131.5290  121.3100   61.1780 C   0  0  0  0  0  0  0  0  0  0  0  0
  132.8660  120.7410   61.3690 C   0  0  0  0  0  0  0  0  0  0  0  0
  133.9210  120.2910   61.5210 N   0  0  0  0  0  0  0  0  0  0  0  0
  1  2  1  0
  2  3  1  0
  3  4  1  0
  4  5  1  0
  5  6  1  0
  6  7  1  0
  7  8  1  0
  8  9  1  0
  9 10  1  0
 10 11  1  0
 11 12  1  0
 12 13  2  0
 12 14  1  0
 14 15  1  0
 15 16  1  0
 16 17  2  0
 17 18  1  0
 18 19  1  0
 19 20  2  0
 20 21  1  0
 21 22  2  0
 22 23  1  0
 23 24  2  0
 18 25  2  0
 25 26  1  0
 26 27  1  0
 26 28  2  0
 28 29  1  0
 29 30  3  0
 28 16  1  0
 24 19  1  0
M  END
>  <Binding energies>  (32) 
[-6.65]

>  <Ligand effiencies>  (32) 
[-0.21451612903225808]

>  <Interactions>  (32) 
["V-B:HIS:456:CE1:9041, V-A:ARG:545:CZ:4926, V-B:GLU:543:CD:9879, V-A:LEU:475:CD2:4258, V-A:HIS:456:CE1:4069, V-B:TYR:539:CD2:9845, V-A:ILE:369:CG2:3236, V-B:TYR:539:CE2:9847, V-A:HIS:456:CD2:4067, V-B:ALA:541:CB:9863, V-B:GLU:543:C:9873, V-B:GLU:543:CG:9878, V-B:GLU:543:CB:9877, H-B:LYS:547:NZ:9922, V-B:PRO:540:C:9852, V-B:ALA:541:CA:9861, V-A:TRP:381:CZ2:3369, V-B:TYR:539:C:9838, V-B:PRO:540:CA:9854, V-A:TRP:381:CH2:3371, H-A:GLY:454:N:4049, V-B:PRO:540:CB:9856, H-A:GLU:543:OE2:4910, V-A:PRO:482:CB:4325, V-A:PRO:482:CG:4326, V-A:TRP:381:CZ3:3370"]

$$$$
3cb_Grossjean_2025
     RDKit          3D

 30 32  0  0  0  0  0  0  0  0999 V2000
  125.6600  130.3300   57.2600 C   0  0  0  0  0  0  0  0  0  0  0  0
  124.3520  130.4730   57.7930 O   0  0  0  0  0  0  0  0  0  0  0  0
  124.0620  131.4580   58.6820 C   0  0  0  0  0  0  0  0  0  0  0  0
  123.5310  132.5260   58.3640 O   0  0  0  0  0  0  0  0  0  0  0  0
  124.4550  131.1200   60.0910 C   0  0  0  0  0  0  0  0  0  0  0  0
  125.5880  130.3450   60.3830 C   0  0  0  0  0  0  0  0  0  0  0  0
  125.9250  130.0530   61.7010 C   0  0  0  0  0  0  0  0  0  0  0  0
  125.1390  130.5210   62.7540 C   0  0  0  0  0  0  0  0  0  0  0  0
  125.5750  130.1680   64.0470 N   0  0  0  0  0  0  0  0  0  0  0  0
  124.8630  129.7770   65.1260 C   0  0  0  0  0  0  0  0  0  0  0  0
  123.6390  129.6390   65.1510 O   0  0  0  0  0  0  0  0  0  0  0  0
  125.7080  129.4820   66.3740 C   0  0  0  0  0  0  0  0  0  0  0  0
  127.5100  129.6710   66.1460 S   0  0  0  0  0  0  0  0  0  0  0  0
  128.2880  128.1650   66.6920 C   0  0  0  0  0  0  0  0  0  0  0  0
  128.0890  127.9000   68.0060 N   0  0  0  0  0  0  0  0  0  0  0  0
  128.6340  126.7810   68.5320 C   0  0  0  0  0  0  0  0  0  0  0  0
  128.3590  126.5430   70.0040 C   0  0  0  0  0  0  0  0  0  0  0  0
  129.3970  125.8930   67.7790 C   0  0  0  0  0  0  0  0  0  0  0  0
  129.6300  126.1540   66.4220 C   0  0  0  0  0  0  0  0  0  0  0  0
  130.4600  125.1740   65.6580 C   0  0  0  0  0  0  0  0  0  0  0  0
  131.8000  125.4600   65.3690 C   0  0  0  0  0  0  0  0  0  0  0  0
  132.5850  124.5480   64.6670 C   0  0  0  0  0  0  0  0  0  0  0  0
  132.0300  123.3400   64.2530 C   0  0  0  0  0  0  0  0  0  0  0  0
  130.7030  123.0350   64.5380 C   0  0  0  0  0  0  0  0  0  0  0  0
  129.9210  123.9480   65.2420 C   0  0  0  0  0  0  0  0  0  0  0  0
  129.0750  127.3330   65.8580 C   0  0  0  0  0  0  0  0  0  0  0  0
  129.3640  127.7040   64.4690 C   0  0  0  0  0  0  0  0  0  0  0  0
  129.5920  127.9970   63.3730 N   0  0  0  0  0  0  0  0  0  0  0  0
  124.0070  131.3000   62.4720 C   0  0  0  0  0  0  0  0  0  0  0  0
  123.6710  131.5930   61.1530 C   0  0  0  0  0  0  0  0  0  0  0  0
  1  2  1  0
  2  3  1  0
  3  4  2  0
  3  5  1  0
  5  6  2  0
  6  7  1  0
  7  8  2  0
  8  9  1  0
  9 10  1  0
 10 11  2  0
 10 12  1  0
 12 13  1  0
 13 14  1  0
 14 15  2  0
 15 16  1  0
 16 17  1  0
 16 18  2  0
 18 19  1  0
 19 20  1  0
 20 21  2  0
 21 22  1  0
 22 23  2  0
 23 24  1  0
 24 25  2  0
 19 26  2  0
 26 27  1  0
 27 28  3  0
  8 29  1  0
 29 30  2  0
 30  5  1  0
 26 14  1  0
 25 20  1  0
M  END
>  <Binding energies>  (33) 
[-8.26]

>  <Ligand effiencies>  (33) 
[-0.2664516129032258]

>  <Interactions>  (33) 
["V-B:ASP:366:CG:8184, V-B:HIS:456:CE1:9041, V-B:GLU:543:CD:9879, V-A:GLU:543:CD:4908, V-B:ILE:369:CD1:8210, V-A:GLU:543:CG:4907, V-B:ILE:369:CG2:8208, V-A:TYR:539:CE2:4876, V-A:HIS:456:CE1:4069, V-B:GLU:543:CG:9878, V-B:GLU:543:CB:9877, H-B:GLY:454:N:9021, V-B:ASP:366:CB:8183, H-B:ARG:545:NH2:9899, H-B:ARG:545:NE:9895, H-B:ARG:545:NH1:9898, V-B:ARG:545:CZ:9897, H-B:TYR:531:OH:9766, V-B:ASP:366:CA:8181, H-A:TYR:539:OH:4878, H-B:ASN:370:N:8215"]

$$$$
3ch_Grossjean_2025
     RDKit          3D

 32 34  0  0  0  0  0  0  0  0999 V2000
  130.8630  129.4780   72.3090 C   0  0  0  0  0  0  0  0  0  0  0  0
  130.4940  128.1990   72.8130 O   0  0  0  0  0  0  0  0  0  0  0  0
  129.7710  127.3330   72.0130 C   0  0  0  0  0  0  0  0  0  0  0  0
  129.6950  127.4340   70.6140 C   0  0  0  0  0  0  0  0  0  0  0  0
  128.9480  126.5130   69.8660 C   0  0  0  0  0  0  0  0  0  0  0  0
  128.8170  126.5300   68.4640 N   0  0  0  0  0  0  0  0  0  0  0  0
  129.7710  126.5870   67.5090 C   0  0  0  0  0  0  0  0  0  0  0  0
  130.9840  126.6230   67.7130 O   0  0  0  0  0  0  0  0  0  0  0  0
  129.2630  126.5610   66.0680 C   0  0  0  0  0  0  0  0  0  0  0  0
  130.6210  126.4960   64.8620 S   0  0  0  0  0  0  0  0  0  0  0  0
  130.3610  125.0190   63.9050 C   0  0  0  0  0  0  0  0  0  0  0  0
  129.0620  124.7880   63.5920 N   0  0  0  0  0  0  0  0  0  0  0  0
  128.7570  123.6850   62.8720 C   0  0  0  0  0  0  0  0  0  0  0  0
  127.2860  123.4840   62.5620 C   0  0  0  0  0  0  0  0  0  0  0  0
  129.7230  122.7790   62.4410 C   0  0  0  0  0  0  0  0  0  0  0  0
  131.0720  123.0040   62.7480 C   0  0  0  0  0  0  0  0  0  0  0  0
  132.0720  121.9990   62.2730 C   0  0  0  0  0  0  0  0  0  0  0  0
  131.7500  121.1260   61.2280 C   0  0  0  0  0  0  0  0  0  0  0  0
  132.6740  120.1810   60.7860 C   0  0  0  0  0  0  0  0  0  0  0  0
  133.9250  120.1050   61.3930 C   0  0  0  0  0  0  0  0  0  0  0  0
  134.2580  120.9620   62.4390 C   0  0  0  0  0  0  0  0  0  0  0  0
  133.3310  121.9040   62.8780 C   0  0  0  0  0  0  0  0  0  0  0  0
  131.4100  124.1670   63.4860 C   0  0  0  0  0  0  0  0  0  0  0  0
  132.8120  124.5020   63.7530 C   0  0  0  0  0  0  0  0  0  0  0  0
  133.9190  124.7660   63.9660 N   0  0  0  0  0  0  0  0  0  0  0  0
  128.2590  125.4970   70.5310 C   0  0  0  0  0  0  0  0  0  0  0  0
  128.3180  125.3760   71.9280 C   0  0  0  0  0  0  0  0  0  0  0  0
  127.6660  124.3880   72.6460 O   0  0  0  0  0  0  0  0  0  0  0  0
  128.3730  123.2090   73.0160 C   0  0  0  0  0  0  0  0  0  0  0  0
  129.0750  126.3010   72.6570 C   0  0  0  0  0  0  0  0  0  0  0  0
  129.1560  126.1830   74.0240 O   0  0  0  0  0  0  0  0  0  0  0  0
  130.3930  125.6620   74.4900 C   0  0  0  0  0  0  0  0  0  0  0  0
  1  2  1  0
  2  3  1  0
  3  4  2  0
  4  5  1  0
  5  6  1  0
  6  7  1  0
  7  8  2  0
  7  9  1  0
  9 10  1  0
 10 11  1  0
 11 12  2  0
 12 13  1  0
 13 14  1  0
 13 15  2  0
 15 16  1  0
 16 17  1  0
 17 18  2  0
 18 19  1  0
 19 20  2  0
 20 21  1  0
 21 22  2  0
 16 23  2  0
 23 24  1  0
 24 25  3  0
  5 26  2  0
 26 27  1  0
 27 28  1  0
 28 29  1  0
 27 30  2  0
 30 31  1  0
 31 32  1  0
 30  3  1  0
 23 11  1  0
 22 17  1  0
M  END
>  <Binding energies>  (34) 
[-7.93]

>  <Ligand effiencies>  (34) 
[-0.2403030303030303]

>  <Interactions>  (34) 
["V-B:HIS:456:CE1:9041, V-B:GLU:543:CD:9879, V-A:LEU:475:CD2:4258, V-A:GLU:543:CD:4908, V-A:ILE:369:CD1:3238, V-A:GLY:454:CA:4048, V-A:HIS:456:CE1:4069, V-A:GLU:543:C:4902, V-A:ILE:369:CG2:3236, V-B:TYR:539:CE2:9847, V-A:GLY:544:C:4912, V-A:HIS:456:CD2:4067, V-B:ALA:541:CB:9863, V-B:GLU:543:C:9873, V-B:GLU:543:CG:9878, V-B:GLU:543:CB:9877, H-B:GLU:543:OE1:9880, H-B:LYS:547:NZ:9922, V-B:LYS:547:CE:9921, H-A:LYS:547:NZ:4951, V-B:ALA:541:CA:9861, V-A:TRP:381:CH2:3371, H-A:GLY:454:N:4049"]

$$$$
3ci_Grossjean_2025
     RDKit          3D

 25 27  0  0  0  0  0  0  0  0999 V2000
  130.3180  119.8110   61.3800 C   0  0  0  0  0  0  0  0  0  0  0  0
  129.9410  121.1790   60.8440 C   0  0  0  0  0  0  0  0  0  0  0  0
  128.6270  121.6390   60.8740 C   0  0  0  0  0  0  0  0  0  0  0  0
  128.3310  122.9180   60.3810 C   0  0  0  0  0  0  0  0  0  0  0  0
  126.9110  123.3760   60.4480 C   0  0  0  0  0  0  0  0  0  0  0  0
  126.1710  123.5900   59.2770 C   0  0  0  0  0  0  0  0  0  0  0  0
  124.8500  124.0260   59.3450 C   0  0  0  0  0  0  0  0  0  0  0  0
  124.2640  124.2560   60.5850 C   0  0  0  0  0  0  0  0  0  0  0  0
  124.9880  124.0570   61.7580 C   0  0  0  0  0  0  0  0  0  0  0  0
  126.3080  123.6210   61.6880 C   0  0  0  0  0  0  0  0  0  0  0  0
  129.3900  123.7000   59.8540 C   0  0  0  0  0  0  0  0  0  0  0  0
  129.1330  125.0270   59.2850 C   0  0  0  0  0  0  0  0  0  0  0  0
  128.9290  126.0750   58.8370 N   0  0  0  0  0  0  0  0  0  0  0  0
  130.6970  123.1560   59.8670 C   0  0  0  0  0  0  0  0  0  0  0  0
  132.1100  124.0620   59.2470 S   0  0  0  0  0  0  0  0  0  0  0  0
  132.4840  125.4480   60.3710 C   0  0  0  0  0  0  0  0  0  0  0  0
  133.0670  125.0000   61.7160 C   0  0  0  0  0  0  0  0  0  0  0  0
  133.8200  124.0240   61.7500 O   0  0  0  0  0  0  0  0  0  0  0  0
  132.6860  125.7240   62.7910 N   0  0  0  0  0  0  0  0  0  0  0  0
  133.0880  125.5480   64.1090 C   0  0  0  0  0  0  0  0  0  0  0  0
  132.2450  125.7710   65.1970 C   0  0  0  0  0  0  0  0  0  0  0  0
  133.0110  125.4930   66.3060 C   0  0  0  0  0  0  0  0  0  0  0  0
  134.2500  125.1200   65.9050 O   0  0  0  0  0  0  0  0  0  0  0  0
  134.2870  125.1610   64.5100 N   0  0  0  0  0  0  0  0  0  0  0  0
  130.9600  121.9150   60.3480 N   0  0  0  0  0  0  0  0  0  0  0  0
  1  2  1  0
  2  3  2  0
  3  4  1  0
  4  5  1  0
  5  6  2  0
  6  7  1  0
  7  8  2  0
  8  9  1  0
  9 10  2  0
  4 11  2  0
 11 12  1  0
 12 13  3  0
 11 14  1  0
 14 15  1  0
 15 16  1  0
 16 17  1  0
 17 18  2  0
 17 19  1  0
 19 20  1  0
 20 21  1  0
 21 22  2  0
 22 23  1  0
 23 24  1  0
 14 25  2  0
 25  2  1  0
 10  5  1  0
 24 20  2  0
M  END
>  <Binding energies>  (35) 
[-7.77]

>  <Ligand effiencies>  (35) 
[-0.2988461538461538]

>  <Interactions>  (35) 
["V-B:ASP:366:CG:8184, V-A:ARG:545:CZ:4926, V-A:ASP:366:CG:3212, V-A:LEU:475:CD2:4258, H-A:ARG:545:NH2:4928, V-A:HIS:456:CE1:4069, V-B:TYR:539:CD2:9845, V-B:TYR:539:CE2:9847, V-A:ASP:366:CB:3211, V-B:ALA:541:CB:9863, V-B:TYR:539:CZ:9848, V-B:PRO:540:C:9852, H-A:TYR:484:OH:4347, V-B:ALA:541:CA:9861, V-B:TYR:539:C:9838, V-B:PRO:540:CA:9854, H-A:ASP:366:OD1:3213, H-A:ARG:545:NE:4924, H-A:ASP:366:OD2:3214, H-A:GLY:454:N:4049, V-B:PRO:540:CB:9856, V-A:ARG:545:CD:4923, H-A:ARG:545:NH1:4927, V-B:ASN:362:CB:8147, H-B:TYR:539:OH:9849, V-A:PRO:482:CB:4325, V-B:ASN:362:C:8143"]

$$$$
3ck_Grossjean_2025
     RDKit          3D

 30 31  0  0  0  0  0  0  0  0999 V2000
  129.9850  129.4730   72.4800 C   0  0  0  0  0  0  0  0  0  0  0  0
  130.4860  128.5120   73.3960 O   0  0  0  0  0  0  0  0  0  0  0  0
  130.4800  127.1860   72.8850 C   0  0  0  0  0  0  0  0  0  0  0  0
  129.3920  126.3680   73.5920 C   0  0  0  0  0  0  0  0  0  0  0  0
  128.5030  125.8290   72.6220 O   0  0  0  0  0  0  0  0  0  0  0  0
  128.7410  126.2950   71.3000 C   0  0  0  0  0  0  0  0  0  0  0  0
  127.8300  125.5340   70.3290 C   0  0  0  0  0  0  0  0  0  0  0  0
  128.2500  125.8210   69.0040 O   0  0  0  0  0  0  0  0  0  0  0  0
  128.9710  127.0350   68.8570 C   0  0  0  0  0  0  0  0  0  0  0  0
  130.1200  126.8340   67.8500 C   0  0  0  0  0  0  0  0  0  0  0  0
  129.9250  125.6900   66.9540 N   0  0  0  0  0  0  0  0  0  0  0  0
  130.8060  125.2550   66.0350 C   0  0  0  0  0  0  0  0  0  0  0  0
  131.9110  125.7720   65.8610 O   0  0  0  0  0  0  0  0  0  0  0  0
  130.3480  124.0490   65.1990 C   0  0  0  0  0  0  0  0  0  0  0  0
  131.2150  123.8250   63.6080 S   0  0  0  0  0  0  0  0  0  0  0  0
  130.1540  122.9290   62.4840 C   0  0  0  0  0  0  0  0  0  0  0  0
  130.5240  121.6500   62.2220 N   0  0  0  0  0  0  0  0  0  0  0  0
  129.7680  120.9150   61.3770 C   0  0  0  0  0  0  0  0  0  0  0  0
  130.2450  119.4960   61.1310 C   0  0  0  0  0  0  0  0  0  0  0  0
  128.6250  121.4170   60.7620 C   0  0  0  0  0  0  0  0  0  0  0  0
  128.2270  122.7370   61.0120 C   0  0  0  0  0  0  0  0  0  0  0  0
  127.0070  123.2410   60.3120 C   0  0  0  0  0  0  0  0  0  0  0  0
  126.9930  123.3530   58.9170 C   0  0  0  0  0  0  0  0  0  0  0  0
  125.8620  123.8320   58.2580 C   0  0  0  0  0  0  0  0  0  0  0  0
  124.7430  124.2060   58.9950 C   0  0  0  0  0  0  0  0  0  0  0  0
  124.7450  124.1090   60.3850 C   0  0  0  0  0  0  0  0  0  0  0  0
  125.8760  123.6310   61.0400 C   0  0  0  0  0  0  0  0  0  0  0  0
  129.0040  123.5170   61.9070 C   0  0  0  0  0  0  0  0  0  0  0  0
  128.6120  124.8910   62.2390 C   0  0  0  0  0  0  0  0  0  0  0  0
  128.3020  125.9750   62.5010 N   0  0  0  0  0  0  0  0  0  0  0  0
  1  2  1  0
  2  3  1  0
  3  4  1  0
  4  5  1  0
  5  6  1  0
  6  7  1  0
  7  8  1  0
  8  9  1  0
  9 10  1  0
 10 11  1  0
 11 12  1  0
 12 13  2  0
 12 14  1  0
 14 15  1  0
 15 16  1  0
 16 17  2  0
 17 18  1  0
 18 19  1  0
 18 20  2  0
 20 21  1  0
 21 22  1  0
 22 23  2  0
 23 24  1  0
 24 25  2  0
 25 26  1  0
 26 27  2  0
 21 28  2  0
 28 29  1  0
 29 30  3  0
 28 16  1  0
 27 22  1  0
M  END
>  <Binding energies>  (36) 
[-6.02]

>  <Ligand effiencies>  (36) 
[-0.19419354838709676]

>  <Interactions>  (36) 
["V-B:HIS:456:CE1:9041, V-B:GLU:543:CD:9879, V-A:LEU:475:CD2:4258, V-A:GLU:543:CD:4908, V-A:HIS:456:CE1:4069, V-B:TYR:539:CD2:9845, V-B:ALA:541:CB:9863, V-B:GLU:543:C:9873, V-B:GLU:543:CG:9878, V-B:GLU:543:CB:9877, H-B:GLU:543:OE1:9880, H-B:LYS:547:NZ:9922, H-A:LYS:547:NZ:4951, V-B:PRO:540:C:9852, H-A:TYR:484:OH:4347, V-B:ALA:541:CA:9861, V-B:TYR:539:C:9838, V-B:PRO:540:CA:9854, V-A:TRP:381:CH2:3371, V-B:PRO:540:CB:9856, V-B:GLU:543:CA:9875, V-A:PRO:482:CB:4325, V-A:PRO:482:CG:4326, V-B:GLY:544:C:9883"]

$$$$
4aa_Grossjean_2025
     RDKit          3D

 26 28  0  0  0  0  0  0  0  0999 V2000
  127.2390  132.1860   73.3090 C   0  0  0  0  0  0  0  0  0  0  0  0
  128.6540  131.8490   72.8300 C   0  0  0  0  0  0  0  0  0  0  0  0
  128.6500  130.5740   72.2020 O   0  0  0  0  0  0  0  0  0  0  0  0
  129.6520  129.6830   72.4170 C   0  0  0  0  0  0  0  0  0  0  0  0
  130.2120  129.5380   73.5080 O   0  0  0  0  0  0  0  0  0  0  0  0
  130.0150  128.8930   71.1930 C   0  0  0  0  0  0  0  0  0  0  0  0
  129.0270  128.1400   70.5460 C   0  0  0  0  0  0  0  0  0  0  0  0
  129.3330  127.3930   69.4120 C   0  0  0  0  0  0  0  0  0  0  0  0
  130.6300  127.3900   68.8960 C   0  0  0  0  0  0  0  0  0  0  0  0
  130.8310  126.5940   67.7520 N   0  0  0  0  0  0  0  0  0  0  0  0
  130.2310  125.4390   67.3750 C   0  0  0  0  0  0  0  0  0  0  0  0
  129.3860  124.8470   68.0470 O   0  0  0  0  0  0  0  0  0  0  0  0
  130.6730  124.8970   66.0890 C   0  0  0  0  0  0  0  0  0  0  0  0
  129.6780  123.7170   65.2310 S   0  0  0  0  0  0  0  0  0  0  0  0
  130.8590  123.5840   63.9480 C   0  0  0  0  0  0  0  0  0  0  0  0
  130.6770  122.7770   62.9020 N   0  0  0  0  0  0  0  0  0  0  0  0
  131.6710  122.7650   61.9800 C   0  0  0  0  0  0  0  0  0  0  0  0
  131.4460  121.8360   60.8010 C   0  0  0  0  0  0  0  0  0  0  0  0
  132.8270  123.5350   62.0770 C   0  0  0  0  0  0  0  0  0  0  0  0
  133.0140  124.3820   63.1750 C   0  0  0  0  0  0  0  0  0  0  0  0
  134.2940  125.2030   63.2360 C   0  0  0  0  0  0  0  0  0  0  0  0
  131.9960  124.4190   64.1650 C   0  0  0  0  0  0  0  0  0  0  0  0
  131.8660  125.1530   65.3950 C   0  0  0  0  0  0  0  0  0  0  0  0
  132.8320  126.0250   65.8330 N   0  0  0  0  0  0  0  0  0  0  0  0
  131.6280  128.1360   69.5400 C   0  0  0  0  0  0  0  0  0  0  0  0
  131.3200  128.8810   70.6760 C   0  0  0  0  0  0  0  0  0  0  0  0
  1  2  1  0
  2  3  1  0
  3  4  1  0
  4  5  2  0
  4  6  1  0
  6  7  2  0
  7  8  1  0
  8  9  2  0
  9 10  1  0
 10 11  1  0
 11 12  2  0
 11 13  1  0
 13 14  1  0
 14 15  1  0
 15 16  2  0
 16 17  1  0
 17 18  1  0
 17 19  2  0
 19 20  1  0
 20 21  1  0
 20 22  2  0
 22 23  1  0
 23 24  1  0
  9 25  1  0
 25 26  2  0
 26  6  1  0
 23 13  2  0
 22 15  1  0
M  END
>  <Binding energies>  (37) 
[-6.95]

>  <Ligand effiencies>  (37) 
[-0.2396551724137931]

>  <Interactions>  (37) 
["V-B:HIS:456:CE1:9041, V-A:ARG:545:CZ:4926, V-B:GLU:543:CD:9879, V-A:GLU:543:CD:4908, V-A:ILE:369:CD1:3238, V-A:GLY:453:CA:4043, V-A:HIS:456:CE1:4069, V-B:TYR:539:CD2:9845, V-A:GLU:543:C:4902, V-A:ILE:369:CG2:3236, V-B:HIS:456:CG:9037, V-A:GLU:543:CB:4906, V-B:TYR:539:CE2:9847, V-A:GLY:544:C:4912, V-A:ARG:545:CG:4922, V-B:TYR:484:CD1:9314, V-B:GLU:543:CG:9878, V-B:GLU:543:CB:9877, V-A:ARG:545:CA:4919, H-A:LYS:547:NZ:4951, H-A:TYR:484:OH:4347, H-B:HIS:456:ND1:9038, V-B:HIS:456:CB:9036, V-B:TYR:484:CG:9313, V-A:ARG:545:CD:4923, H-A:GLU:543:OE1:4909, H-A:GLU:543:OE2:4910, V-A:GLY:453:C:4041, V-B:TYR:484:CD2:9315"]

$$$$
4ab_Grossjean_2025
     RDKit          3D

 25 27  0  0  0  0  0  0  0  0999 V2000
  128.3920  131.7910   72.9200 C   0  0  0  0  0  0  0  0  0  0  0  0
  128.6470  130.7070   72.0380 O   0  0  0  0  0  0  0  0  0  0  0  0
  129.6390  129.8160   72.2940 C   0  0  0  0  0  0  0  0  0  0  0  0
  130.1830  129.7020   73.3970 O   0  0  0  0  0  0  0  0  0  0  0  0
  130.0130  128.9870   71.1000 C   0  0  0  0  0  0  0  0  0  0  0  0
  129.0170  128.2640   70.4300 C   0  0  0  0  0  0  0  0  0  0  0  0
  129.3330  127.4840   69.3210 C   0  0  0  0  0  0  0  0  0  0  0  0
  130.6460  127.4170   68.8540 C   0  0  0  0  0  0  0  0  0  0  0  0
  130.8530  126.5940   67.7310 N   0  0  0  0  0  0  0  0  0  0  0  0
  130.2480  125.4340   67.3740 C   0  0  0  0  0  0  0  0  0  0  0  0
  129.3900  124.8640   68.0490 O   0  0  0  0  0  0  0  0  0  0  0  0
  130.7010  124.8580   66.1070 C   0  0  0  0  0  0  0  0  0  0  0  0
  129.7540  123.5970   65.3130 S   0  0  0  0  0  0  0  0  0  0  0  0
  130.9250  123.4650   64.0210 C   0  0  0  0  0  0  0  0  0  0  0  0
  130.7720  122.6050   63.0140 N   0  0  0  0  0  0  0  0  0  0  0  0
  131.7530  122.6000   62.0790 C   0  0  0  0  0  0  0  0  0  0  0  0
  131.5610  121.6110   60.9440 C   0  0  0  0  0  0  0  0  0  0  0  0
  132.8710  123.4290   62.1250 C   0  0  0  0  0  0  0  0  0  0  0  0
  133.0300  124.3310   63.1850 C   0  0  0  0  0  0  0  0  0  0  0  0
  134.2690  125.2130   63.1920 C   0  0  0  0  0  0  0  0  0  0  0  0
  132.0230  124.3620   64.1870 C   0  0  0  0  0  0  0  0  0  0  0  0
  131.8730  125.1390   65.3870 C   0  0  0  0  0  0  0  0  0  0  0  0
  132.8020  126.0720   65.7760 N   0  0  0  0  0  0  0  0  0  0  0  0
  131.6510  128.1340   69.5210 C   0  0  0  0  0  0  0  0  0  0  0  0
  131.3340  128.9110   70.6310 C   0  0  0  0  0  0  0  0  0  0  0  0
  1  2  1  0
  2  3  1  0
  3  4  2  0
  3  5  1  0
  5  6  2  0
  6  7  1  0
  7  8  2  0
  8  9  1  0
  9 10  1  0
 10 11  2  0
 10 12  1  0
 12 13  1  0
 13 14  1  0
 14 15  2  0
 15 16  1  0
 16 17  1  0
 16 18  2  0
 18 19  1  0
 19 20  1  0
 19 21  2  0
 21 22  1  0
 22 23  1  0
  8 24  1  0
 24 25  2  0
 25  5  1  0
 22 12  2  0
 21 14  1  0
M  END
>  <Binding energies>  (38) 
[-6.77]

>  <Ligand effiencies>  (38) 
[-0.24178571428571427]

>  <Interactions>  (38) 
["V-B:HIS:456:CE1:9041, V-A:ARG:545:CZ:4926, V-B:GLU:543:CD:9879, V-A:ASP:366:CG:3212, V-A:TYR:484:CZ:4346, V-A:GLU:543:CD:4908, V-A:ILE:369:CD1:3238, V-A:GLY:453:CA:4043, V-A:HIS:456:CE1:4069, V-B:TYR:539:CD2:9845, V-A:GLU:543:C:4902, V-A:ILE:369:CG2:3236, V-A:GLU:543:CB:4906, V-B:TYR:539:CE2:9847, V-A:GLY:544:C:4912, V-A:ARG:545:CG:4922, V-B:TYR:484:CD1:9314, V-B:GLU:543:CG:9878, V-A:ARG:545:CA:4919, H-A:LYS:547:NZ:4951, H-A:TYR:484:OH:4347, H-B:HIS:456:ND1:9038, V-B:TYR:484:CG:9313, V-A:ARG:545:CD:4923, H-A:GLU:543:OE1:4909, H-A:GLU:543:OE2:4910, V-A:GLY:453:C:4041, V-A:TYR:484:CE1:4344"]

$$$$
4ac_Grossjean_2025
     RDKit          3D

 23 25  0  0  0  0  0  0  0  0999 V2000
  129.4050  129.8730   74.0960 C   0  0  0  0  0  0  0  0  0  0  0  0
  130.3210  128.8640   73.6830 O   0  0  0  0  0  0  0  0  0  0  0  0
  130.3180  128.4470   72.3670 C   0  0  0  0  0  0  0  0  0  0  0  0
  131.4000  128.8490   71.5840 C   0  0  0  0  0  0  0  0  0  0  0  0
  131.4830  128.4760   70.2450 C   0  0  0  0  0  0  0  0  0  0  0  0
  130.4850  127.6860   69.6730 C   0  0  0  0  0  0  0  0  0  0  0  0
  130.6470  127.3700   68.3110 N   0  0  0  0  0  0  0  0  0  0  0  0
  130.1390  126.3310   67.6050 C   0  0  0  0  0  0  0  0  0  0  0  0
  129.4450  125.4390   68.0960 O   0  0  0  0  0  0  0  0  0  0  0  0
  130.4750  126.3160   66.1790 C   0  0  0  0  0  0  0  0  0  0  0  0
  129.3740  127.0210   64.9960 S   0  0  0  0  0  0  0  0  0  0  0  0
  130.4470  126.6050   63.6780 C   0  0  0  0  0  0  0  0  0  0  0  0
  130.1550  126.8970   62.4110 N   0  0  0  0  0  0  0  0  0  0  0  0
  131.0710  126.5190   61.4860 C   0  0  0  0  0  0  0  0  0  0  0  0
  130.7200  126.8610   60.0500 C   0  0  0  0  0  0  0  0  0  0  0  0
  132.2590  125.8600   61.7970 C   0  0  0  0  0  0  0  0  0  0  0  0
  132.5620  125.5540   63.1290 C   0  0  0  0  0  0  0  0  0  0  0  0
  133.8700  124.8340   63.4170 C   0  0  0  0  0  0  0  0  0  0  0  0
  131.6250  125.9380   64.1260 C   0  0  0  0  0  0  0  0  0  0  0  0
  131.6170  125.7880   65.5570 C   0  0  0  0  0  0  0  0  0  0  0  0
  132.6430  125.1780   66.2340 N   0  0  0  0  0  0  0  0  0  0  0  0
  129.3870  127.2880   70.4490 C   0  0  0  0  0  0  0  0  0  0  0  0
  129.3070  127.6640   71.7880 C   0  0  0  0  0  0  0  0  0  0  0  0
  1  2  1  0
  2  3  1  0
  3  4  2  0
  4  5  1  0
  5  6  2  0
  6  7  1  0
  7  8  1  0
  8  9  2  0
  8 10  1  0
 10 11  1  0
 11 12  1  0
 12 13  2  0
 13 14  1  0
 14 15  1  0
 14 16  2  0
 16 17  1  0
 17 18  1  0
 17 19  2  0
 19 20  1  0
 20 21  1  0
  6 22  1  0
 22 23  2  0
 23  3  1  0
 20 10  2  0
 19 12  1  0
M  END
>  <Binding energies>  (39) 
[-6.25]

>  <Ligand effiencies>  (39) 
[-0.2403846153846154]

>  <Interactions>  (39) 
["V-B:HIS:456:CE1:9041, V-A:ARG:545:CZ:4926, V-B:GLU:543:CD:9879, V-A:ASP:366:CG:3212, V-A:TYR:484:CZ:4346, V-A:GLU:543:CD:4908, V-A:GLY:453:CA:4043, V-A:HIS:456:CE1:4069, V-A:GLU:543:C:4902, V-A:GLU:543:CB:4906, V-A:GLY:544:C:4912, V-A:ARG:545:CG:4922, V-A:ARG:545:CA:4919, H-A:LYS:547:NZ:4951, H-A:TYR:484:OH:4347, V-A:LYS:547:CE:4950, H-A:GLU:543:OE2:4910"]

$$$$
4ad_Grossjean_2025
     RDKit          3D

 21 23  0  0  0  0  0  0  0  0999 V2000
  129.0230  124.2530   73.0250 C   0  0  0  0  0  0  0  0  0  0  0  0
  129.0060  125.7120   72.6100 C   0  0  0  0  0  0  0  0  0  0  0  0
  129.1540  126.0800   71.2740 C   0  0  0  0  0  0  0  0  0  0  0  0
  129.1370  127.4340   70.9150 C   0  0  0  0  0  0  0  0  0  0  0  0
  129.3050  127.7870   69.4450 C   0  0  0  0  0  0  0  0  0  0  0  0
  128.9660  128.3920   71.9500 C   0  0  0  0  0  0  0  0  0  0  0  0
  128.9020  129.8290   71.9400 C   0  0  0  0  0  0  0  0  0  0  0  0
  129.0060  130.5580   70.7820 N   0  0  0  0  0  0  0  0  0  0  0  0
  128.7260  130.4010   73.2100 C   0  0  0  0  0  0  0  0  0  0  0  0
  128.6360  131.8180   73.5670 C   0  0  0  0  0  0  0  0  0  0  0  0
  127.5980  132.2800   74.0470 O   0  0  0  0  0  0  0  0  0  0  0  0
  129.7570  132.5470   73.3410 N   0  0  0  0  0  0  0  0  0  0  0  0
  129.9830  133.9230   73.5310 C   0  0  0  0  0  0  0  0  0  0  0  0
  130.8010  134.5450   72.5830 C   0  0  0  0  0  0  0  0  0  0  0  0
  131.0770  135.9060   72.6780 C   0  0  0  0  0  0  0  0  0  0  0  0
  130.5270  136.6500   73.7180 C   0  0  0  0  0  0  0  0  0  0  0  0
  129.6990  136.0460   74.6620 C   0  0  0  0  0  0  0  0  0  0  0  0
  129.4230  134.6850   74.5690 C   0  0  0  0  0  0  0  0  0  0  0  0
  128.6290  129.1590   74.4600 S   0  0  0  0  0  0  0  0  0  0  0  0
  128.8270  127.8860   73.2770 C   0  0  0  0  0  0  0  0  0  0  0  0
  128.8420  126.5970   73.6220 N   0  0  0  0  0  0  0  0  0  0  0  0
  1  2  1  0
  2  3  2  0
  3  4  1  0
  4  5  1  0
  4  6  2  0
  6  7  1  0
  7  8  1  0
  7  9  2  0
  9 10  1  0
 10 11  2  0
 10 12  1  0
 12 13  1  0
 13 14  2  0
 14 15  1  0
 15 16  2  0
 16 17  1  0
 17 18  2  0
  9 19  1  0
 19 20  1  0
 20 21  2  0
 21  2  1  0
 20  6  1  0
 18 13  1  0
M  END
>  <Binding energies>  (40) 
[-6.46]

>  <Ligand effiencies>  (40) 
[-0.26916666666666667]

>  <Interactions>  (40) 
["V-B:HIS:456:CE1:9041, V-A:HIS:456:CE1:4069, V-A:GLU:543:C:4902, V-B:HIS:456:CD2:9039, V-B:HIS:456:CG:9037, V-A:GLU:543:CB:4906, V-A:HIS:456:CD2:4067, V-B:TYR:484:CD1:9314, V-B:TYR:484:CE1:9316, H-B:LYS:547:NZ:9922, V-B:LYS:547:CE:9921, V-A:GLU:543:CA:4904, H-A:GLU:543:O:4903, V-B:TYR:484:CB:9312, V-A:GLY:544:CA:4914, V-B:TYR:484:C:9308, V-B:TYR:484:CA:9310"]

$$$$
4ae_Grossjean_2025
     RDKit          3D

 22 24  0  0  0  0  0  0  0  0999 V2000
  124.1680  124.0830   58.7400 C   0  0  0  0  0  0  0  0  0  0  0  0
  125.6060  123.6190   58.6200 C   0  0  0  0  0  0  0  0  0  0  0  0
  126.0530  122.9040   57.5060 C   0  0  0  0  0  0  0  0  0  0  0  0
  127.3890  122.5030   57.4670 C   0  0  0  0  0  0  0  0  0  0  0  0
  128.2360  122.8210   58.5310 C   0  0  0  0  0  0  0  0  0  0  0  0
  127.7250  123.5460   59.6130 C   0  0  0  0  0  0  0  0  0  0  0  0
  128.6200  123.8180   60.6620 N   0  0  0  0  0  0  0  0  0  0  0  0
  129.5700  123.0110   61.1980 C   0  0  0  0  0  0  0  0  0  0  0  0
  129.7850  121.8590   60.8170 O   0  0  0  0  0  0  0  0  0  0  0  0
  130.3490  123.5990   62.2890 C   0  0  0  0  0  0  0  0  0  0  0  0
  132.0590  123.2060   62.4750 S   0  0  0  0  0  0  0  0  0  0  0  0
  132.1830  124.2040   63.9060 C   0  0  0  0  0  0  0  0  0  0  0  0
  133.3260  124.3330   64.5790 N   0  0  0  0  0  0  0  0  0  0  0  0
  133.2860  125.1300   65.6730 C   0  0  0  0  0  0  0  0  0  0  0  0
  134.5960  125.2580   66.4290 C   0  0  0  0  0  0  0  0  0  0  0  0
  132.1400  125.7980   66.1050 C   0  0  0  0  0  0  0  0  0  0  0  0
  130.9420  125.6610   65.3940 C   0  0  0  0  0  0  0  0  0  0  0  0
  129.7180  126.4060   65.9060 C   0  0  0  0  0  0  0  0  0  0  0  0
  130.9450  124.8300   64.2410 C   0  0  0  0  0  0  0  0  0  0  0  0
  129.9160  124.4700   63.3020 C   0  0  0  0  0  0  0  0  0  0  0  0
  128.6330  124.9440   63.4040 N   0  0  0  0  0  0  0  0  0  0  0  0
  126.4170  123.9370   59.6610 N   0  0  0  0  0  0  0  0  0  0  0  0
  1  2  1  0
  2  3  2  0
  3  4  1  0
  4  5  2  0
  5  6  1  0
  6  7  1  0
  7  8  1  0
  8  9  2  0
  8 10  1  0
 10 11  1  0
 11 12  1  0
 12 13  2  0
 13 14  1  0
 14 15  1  0
 14 16  2  0
 16 17  1  0
 17 18  1  0
 17 19  2  0
 19 20  1  0
 20 21  1  0
  6 22  2  0
 22  2  1  0
 20 10  2  0
 19 12  1  0
M  END
>  <Binding energies>  (41) 
[-6.78]

>  <Ligand effiencies>  (41) 
[-0.2712]

>  <Interactions>  (41) 
["V-A:ARG:545:CZ:4926, V-B:GLU:543:CD:9879, V-A:GLU:543:CD:4908, V-A:GLY:453:CA:4043, V-A:GLY:454:CA:4048, V-A:HIS:456:CE1:4069, V-B:TYR:539:CD2:9845, V-B:TYR:539:CE2:9847, V-A:ARG:545:CG:4922, V-B:GLU:543:CG:9878, H-B:GLU:543:OE2:9881, V-B:TYR:539:CZ:9848, H-A:TYR:484:OH:4347, V-B:TYR:539:CE1:9846, V-B:PRO:540:N:9855, V-B:TYR:539:C:9838, V-B:PRO:540:CA:9854, H-A:GLY:454:N:4049, V-B:PRO:540:CB:9856, V-A:ARG:545:CD:4923, V-B:LEU:363:CA:8156, V-B:TYR:539:CD1:9844, V-B:TYR:539:CG:9843, V-A:GLY:453:C:4041, V-B:LEU:363:CD1:8160, V-B:PRO:540:CD:9858"]

$$$$
4af_Grossjean_2025
     RDKit          3D

 21 23  0  0  0  0  0  0  0  0999 V2000
  129.0850  124.3680   73.3300 C   0  0  0  0  0  0  0  0  0  0  0  0
  129.0570  125.8020   72.8300 C   0  0  0  0  0  0  0  0  0  0  0  0
  129.2130  126.0930   71.4770 C   0  0  0  0  0  0  0  0  0  0  0  0
  129.1860  127.4230   71.0390 C   0  0  0  0  0  0  0  0  0  0  0  0
  129.3620  127.6910   69.5530 C   0  0  0  0  0  0  0  0  0  0  0  0
  128.9980  128.4380   72.0160 C   0  0  0  0  0  0  0  0  0  0  0  0
  128.9230  129.8720   71.9220 C   0  0  0  0  0  0  0  0  0  0  0  0
  129.0360  130.5330   70.7250 N   0  0  0  0  0  0  0  0  0  0  0  0
  128.7270  130.5150   73.1540 C   0  0  0  0  0  0  0  0  0  0  0  0
  128.6350  131.9500   73.4280 C   0  0  0  0  0  0  0  0  0  0  0  0
  127.5760  132.4490   73.8110 O   0  0  0  0  0  0  0  0  0  0  0  0
  129.7820  132.6500   73.2450 N   0  0  0  0  0  0  0  0  0  0  0  0
  130.0180  134.0320   73.3740 C   0  0  0  0  0  0  0  0  0  0  0  0
  129.7610  134.8000   74.5240 C   0  0  0  0  0  0  0  0  0  0  0  0
  130.0260  136.1700   74.5120 C   0  0  0  0  0  0  0  0  0  0  0  0
  130.5370  136.7430   73.3470 C   0  0  0  0  0  0  0  0  0  0  0  0
  130.7850  136.0260   72.2220 N   0  0  0  0  0  0  0  0  0  0  0  0
  130.5230  134.6950   72.2490 C   0  0  0  0  0  0  0  0  0  0  0  0
  128.6310  129.3470   74.4740 S   0  0  0  0  0  0  0  0  0  0  0  0
  128.8510  128.0090   73.3690 C   0  0  0  0  0  0  0  0  0  0  0  0
  128.8750  126.7430   73.7890 N   0  0  0  0  0  0  0  0  0  0  0  0
  1  2  1  0
  2  3  2  0
  3  4  1  0
  4  5  1  0
  4  6  2  0
  6  7  1  0
  7  8  1  0
  7  9  2  0
  9 10  1  0
 10 11  2  0
 10 12  1  0
 12 13  1  0
 13 14  2  0
 14 15  1  0
 15 16  2  0
 16 17  1  0
 17 18  2  0
  9 19  1  0
 19 20  1  0
 20 21  2  0
 21  2  1  0
 20  6  1  0
 18 13  1  0
M  END
>  <Binding energies>  (42) 
[-6.28]

>  <Ligand effiencies>  (42) 
[-0.26166666666666666]

>  <Interactions>  (42) 
["V-B:HIS:456:CE1:9041, V-A:HIS:456:CE1:4069, V-A:GLU:543:C:4902, V-B:HIS:456:CD2:9039, V-B:HIS:456:CG:9037, V-A:GLU:543:CB:4906, V-A:HIS:456:CD2:4067, V-B:TYR:484:CD1:9314, V-B:TYR:484:CE1:9316, H-B:LYS:547:NZ:9922, V-B:LYS:547:CE:9921, V-A:GLU:543:CA:4904, H-A:GLU:543:O:4903, V-B:TYR:484:CG:9313, V-B:TYR:484:CB:9312, V-B:TYR:484:C:9308, V-B:TYR:484:CA:9310, H-B:TYR:484:N:9311, H-B:SER:483:OG:9305"]

$$$$
4ag_Grossjean_2025
     RDKit          3D

 22 24  0  0  0  0  0  0  0  0999 V2000
  134.5660  125.4070   66.5800 C   0  0  0  0  0  0  0  0  0  0  0  0
  133.2610  125.1510   65.8480 C   0  0  0  0  0  0  0  0  0  0  0  0
  132.0940  125.8220   66.2070 C   0  0  0  0  0  0  0  0  0  0  0  0
  130.9020  125.5720   65.5170 C   0  0  0  0  0  0  0  0  0  0  0  0
  129.6540  126.3290   65.9460 C   0  0  0  0  0  0  0  0  0  0  0  0
  130.9350  124.6250   64.4590 C   0  0  0  0  0  0  0  0  0  0  0  0
  129.9210  124.1380   63.5630 C   0  0  0  0  0  0  0  0  0  0  0  0
  128.6220  124.5790   63.6150 N   0  0  0  0  0  0  0  0  0  0  0  0
  130.3830  123.1820   62.6470 C   0  0  0  0  0  0  0  0  0  0  0  0
  129.6340  122.4920   61.5970 C   0  0  0  0  0  0  0  0  0  0  0  0
  129.8290  121.3010   61.3450 O   0  0  0  0  0  0  0  0  0  0  0  0
  128.7390  123.2400   60.9170 N   0  0  0  0  0  0  0  0  0  0  0  0
  127.8650  122.7540   59.8500 C   0  0  0  0  0  0  0  0  0  0  0  0
  126.4610  123.3460   59.8810 C   0  0  0  0  0  0  0  0  0  0  0  0
  125.7930  123.6160   58.6830 C   0  0  0  0  0  0  0  0  0  0  0  0
  124.5010  124.1330   58.7090 C   0  0  0  0  0  0  0  0  0  0  0  0
  123.8760  124.3700   59.9320 C   0  0  0  0  0  0  0  0  0  0  0  0
  124.5300  124.0890   61.1290 C   0  0  0  0  0  0  0  0  0  0  0  0
  125.8220  123.5700   61.1040 C   0  0  0  0  0  0  0  0  0  0  0  0
  132.1040  122.8650   62.8660 S   0  0  0  0  0  0  0  0  0  0  0  0
  132.1930  124.0070   64.1890 C   0  0  0  0  0  0  0  0  0  0  0  0
  133.3300  124.2440   64.8430 N   0  0  0  0  0  0  0  0  0  0  0  0
  1  2  1  0
  2  3  2  0
  3  4  1  0
  4  5  1  0
  4  6  2  0
  6  7  1  0
  7  8  1  0
  7  9  2  0
  9 10  1  0
 10 11  2  0
 10 12  1  0
 12 13  1  0
 13 14  1  0
 14 15  2  0
 15 16  1  0
 16 17  2  0
 17 18  1  0
 18 19  2  0
  9 20  1  0
 20 21  1  0
 21 22  2  0
 22  2  1  0
 21  6  1  0
 19 14  1  0
M  END
>  <Binding energies>  (43) 
[-6.99]

>  <Ligand effiencies>  (43) 
[-0.2796]

>  <Interactions>  (43) 
["V-B:ASP:366:CG:8184, V-A:ARG:545:CZ:4926, V-B:GLU:543:CD:9879, V-A:GLU:543:CD:4908, V-A:GLY:453:CA:4043, V-A:HIS:456:CE1:4069, V-B:ALA:541:CB:9863, V-A:ARG:545:CG:4922, V-B:GLU:543:CG:9878, H-B:GLU:543:OE2:9881, H-A:TYR:484:OH:4347, V-B:PRO:540:CA:9854, H-A:GLY:454:N:4049, V-B:PRO:540:CB:9856, V-A:ARG:545:CD:4923, V-B:LEU:363:CA:8156, V-A:GLY:453:C:4041, V-B:ASN:362:CB:8147, V-B:ASN:362:C:8143"]

$$$$
4ah_Grossjean_2025
     RDKit          3D

 28 30  0  0  0  0  0  0  0  0999 V2000
  128.6670  123.8930   72.9230 C   0  0  0  0  0  0  0  0  0  0  0  0
  128.3420  125.2780   72.8840 O   0  0  0  0  0  0  0  0  0  0  0  0
  129.0160  126.1100   72.0080 C   0  0  0  0  0  0  0  0  0  0  0  0
  128.6130  126.3460   70.6840 C   0  0  0  0  0  0  0  0  0  0  0  0
  129.3440  127.1980   69.8550 C   0  0  0  0  0  0  0  0  0  0  0  0
  128.8650  127.4790   68.4360 C   0  0  0  0  0  0  0  0  0  0  0  0
  129.5360  126.6690   67.4200 N   0  0  0  0  0  0  0  0  0  0  0  0
  129.7210  125.3330   67.4820 C   0  0  0  0  0  0  0  0  0  0  0  0
  129.3640  124.6570   68.4480 O   0  0  0  0  0  0  0  0  0  0  0  0
  130.4160  124.7290   66.3460 C   0  0  0  0  0  0  0  0  0  0  0  0
  129.8150  123.2300   65.6340 S   0  0  0  0  0  0  0  0  0  0  0  0
  131.1320  123.1970   64.4830 C   0  0  0  0  0  0  0  0  0  0  0  0
  131.2530  122.2260   63.5780 N   0  0  0  0  0  0  0  0  0  0  0  0
  132.3170  122.3180   62.7440 C   0  0  0  0  0  0  0  0  0  0  0  0
  132.4380  121.2020   61.7240 C   0  0  0  0  0  0  0  0  0  0  0  0
  133.2520  123.3490   62.7930 C   0  0  0  0  0  0  0  0  0  0  0  0
  133.1250  124.3670   63.7460 C   0  0  0  0  0  0  0  0  0  0  0  0
  134.1710  125.4710   63.7610 C   0  0  0  0  0  0  0  0  0  0  0  0
  132.0210  124.3030   64.6400 C   0  0  0  0  0  0  0  0  0  0  0  0
  131.5960  125.1540   65.7180 C   0  0  0  0  0  0  0  0  0  0  0  0
  132.2880  126.2820   66.0790 N   0  0  0  0  0  0  0  0  0  0  0  0
  130.4740  127.8440   70.3580 C   0  0  0  0  0  0  0  0  0  0  0  0
  130.9050  127.6220   71.6750 C   0  0  0  0  0  0  0  0  0  0  0  0
  132.0230  128.2160   72.2330 O   0  0  0  0  0  0  0  0  0  0  0  0
  133.1330  127.4040   72.6010 C   0  0  0  0  0  0  0  0  0  0  0  0
  130.1700  126.7470   72.4880 C   0  0  0  0  0  0  0  0  0  0  0  0
  130.5690  126.5350   73.7860 O   0  0  0  0  0  0  0  0  0  0  0  0
  129.7660  127.1970   74.7540 C   0  0  0  0  0  0  0  0  0  0  0  0
  1  2  1  0
  2  3  1  0
  3  4  2  0
  4  5  1  0
  5  6  1  0
  6  7  1  0
  7  8  1  0
  8  9  2  0
  8 10  1  0
 10 11  1  0
 11 12  1  0
 12 13  2  0
 13 14  1  0
 14 15  1  0
 14 16  2  0
 16 17  1  0
 17 18  1  0
 17 19  2  0
 19 20  1  0
 20 21  1  0
  5 22  2  0
 22 23  1  0
 23 24  1  0
 24 25  1  0
 23 26  2  0
 26 27  1  0
 27 28  1  0
 26  3  1  0
 20 10  2  0
 19 12  1  0
M  END
>  <Binding energies>  (44) 
[-6.66]

>  <Ligand effiencies>  (44) 
[-0.21483870967741936]

>  <Interactions>  (44) 
["V-B:HIS:456:CE1:9041, V-A:ARG:545:CZ:4926, V-B:GLU:543:CD:9879, V-A:LEU:475:CD2:4258, V-A:TYR:484:CZ:4346, V-A:GLU:543:CD:4908, V-A:ILE:369:CD1:3238, V-A:GLY:453:CA:4043, V-A:GLY:454:CA:4048, V-A:HIS:456:CE1:4069, V-A:HIS:456:CG:4065, V-A:ILE:369:CG2:3236, V-A:GLY:544:C:4912, V-A:HIS:456:CD2:4067, V-B:ALA:541:CB:9863, V-B:GLU:543:CG:9878, V-B:GLU:543:CB:9877, V-A:ARG:545:CA:4919, H-B:LYS:547:NZ:9922, V-B:LYS:547:CE:9921, V-A:HIS:456:CB:4064, H-A:LYS:547:NZ:4951, H-A:TYR:484:OH:4347, V-A:ARG:545:CD:4923, H-A:GLU:543:OE1:4909, H-A:GLU:543:OE2:4910, V-A:GLY:453:C:4041, V-A:TYR:484:CE1:4344, V-A:ARG:545:C:4917"]

$$$$
4ai_Grossjean_2025
     RDKit          3D

 20 22  0  0  0  0  0  0  0  0999 V2000
  129.2690  128.8590   73.6100 C   0  0  0  0  0  0  0  0  0  0  0  0
  129.5620  127.3900   73.8520 C   0  0  0  0  0  0  0  0  0  0  0  0
  130.5900  126.9950   74.7050 C   0  0  0  0  0  0  0  0  0  0  0  0
  130.8400  125.6340   74.9180 C   0  0  0  0  0  0  0  0  0  0  0  0
  131.9710  125.2530   75.8610 C   0  0  0  0  0  0  0  0  0  0  0  0
  130.0160  124.6950   74.2400 C   0  0  0  0  0  0  0  0  0  0  0  0
  129.9920  123.2570   74.2280 C   0  0  0  0  0  0  0  0  0  0  0  0
  130.8790  122.5040   74.9580 N   0  0  0  0  0  0  0  0  0  0  0  0
  128.9870  122.7090   73.4160 C   0  0  0  0  0  0  0  0  0  0  0  0
  128.6860  121.2980   73.1650 C   0  0  0  0  0  0  0  0  0  0  0  0
  129.3140  120.4090   73.7430 O   0  0  0  0  0  0  0  0  0  0  0  0
  127.6800  121.0660   72.2850 N   0  0  0  0  0  0  0  0  0  0  0  0
  127.1840  119.8360   71.8750 C   0  0  0  0  0  0  0  0  0  0  0  0
  126.2500  119.1070   72.6120 C   0  0  0  0  0  0  0  0  0  0  0  0
  126.0260  117.9650   71.8780 C   0  0  0  0  0  0  0  0  0  0  0  0
  126.7840  118.0040   70.7560 O   0  0  0  0  0  0  0  0  0  0  0  0
  127.5130  119.1950   70.7650 N   0  0  0  0  0  0  0  0  0  0  0  0
  128.0520  123.9760   72.6190 S   0  0  0  0  0  0  0  0  0  0  0  0
  128.9980  125.2280   73.3930 C   0  0  0  0  0  0  0  0  0  0  0  0
  128.7580  126.5240   73.1880 N   0  0  0  0  0  0  0  0  0  0  0  0
  1  2  1  0
  2  3  2  0
  3  4  1  0
  4  5  1  0
  4  6  2  0
  6  7  1  0
  7  8  1  0
  7  9  2  0
  9 10  1  0
 10 11  2  0
 10 12  1  0
 12 13  1  0
 13 14  1  0
 14 15  2  0
 15 16  1  0
 16 17  1  0
  9 18  1  0
 18 19  1  0
 19 20  2  0
 20  2  1  0
 19  6  1  0
 17 13  2  0
M  END
>  <Binding energies>  (45) 
[-6.06]

>  <Ligand effiencies>  (45) 
[-0.2634782608695652]

>  <Interactions>  (45) 
["V-B:HIS:456:CD2:9039, V-A:HIS:456:CD2:4067, V-B:GLU:543:C:9873, H-B:LYS:547:NZ:9922, V-B:LYS:547:CE:9921, V-A:LYS:547:CE:4950, H-B:GLU:543:O:9874, V-A:ASP:473:CG:4239, V-B:GLY:544:CA:9885, V-A:TYR:484:CB:4340, V-B:GLY:544:C:9883, H-A:TYR:484:N:4339, H-A:ASP:473:OD2:4241"]

$$$$
4aj_Grossjean_2025
     RDKit          3D

 20 22  0  0  0  0  0  0  0  0999 V2000
  134.4380  121.0370   62.4810 C   0  0  0  0  0  0  0  0  0  0  0  0
  133.1070  121.7540   62.6120 C   0  0  0  0  0  0  0  0  0  0  0  0
  132.8710  122.6420   63.6590 C   0  0  0  0  0  0  0  0  0  0  0  0
  131.6340  123.2880   63.7640 C   0  0  0  0  0  0  0  0  0  0  0  0
  131.4260  124.2490   64.9250 C   0  0  0  0  0  0  0  0  0  0  0  0
  130.6520  123.0050   62.7770 C   0  0  0  0  0  0  0  0  0  0  0  0
  129.3070  123.4770   62.5850 C   0  0  0  0  0  0  0  0  0  0  0  0
  128.7170  124.3750   63.4370 N   0  0  0  0  0  0  0  0  0  0  0  0
  128.6720  122.9410   61.4540 C   0  0  0  0  0  0  0  0  0  0  0  0
  127.3130  123.1910   60.9680 C   0  0  0  0  0  0  0  0  0  0  0  0
  126.3640  123.2470   61.7530 O   0  0  0  0  0  0  0  0  0  0  0  0
  127.1960  123.3630   59.6280 N   0  0  0  0  0  0  0  0  0  0  0  0
  126.0320  123.6230   58.9190 C   0  0  0  0  0  0  0  0  0  0  0  0
  125.7780  123.3540   57.6570 N   0  0  0  0  0  0  0  0  0  0  0  0
  124.5630  123.7370   57.3140 C   0  0  0  0  0  0  0  0  0  0  0  0
  123.8010  124.3340   58.3140 C   0  0  0  0  0  0  0  0  0  0  0  0
  124.7370  124.3910   59.7790 S   0  0  0  0  0  0  0  0  0  0  0  0
  129.7300  121.8140   60.6020 S   0  0  0  0  0  0  0  0  0  0  0  0
  131.0180  122.0780   61.7550 C   0  0  0  0  0  0  0  0  0  0  0  0
  132.1960  121.4600   61.6520 N   0  0  0  0  0  0  0  0  0  0  0  0
  1  2  1  0
  2  3  2  0
  3  4  1  0
  4  5  1  0
  4  6  2  0
  6  7  1  0
  7  8  1  0
  7  9  2  0
  9 10  1  0
 10 11  2  0
 10 12  1  0
 12 13  1  0
 13 14  2  0
 14 15  1  0
 15 16  2  0
 16 17  1  0
  9 18  1  0
 18 19  1  0
 19 20  2  0
 20  2  1  0
 19  6  1  0
 17 13  1  0
M  END
>  <Binding energies>  (46) 
[-6.06]

>  <Ligand effiencies>  (46) 
[-0.2634782608695652]

>  <Interactions>  (46) 
["V-B:GLU:543:CD:9879, V-A:LEU:475:CD2:4258, V-A:ILE:369:CD1:3238, V-A:GLY:454:CA:4048, V-B:TYR:539:CD2:9845, V-A:ILE:369:CG2:3236, V-B:TYR:539:CE2:9847, V-B:ALA:541:CB:9863, V-B:GLU:543:CG:9878, H-B:GLU:543:OE2:9881, V-B:PRO:540:CA:9854, H-B:ALA:541:N:9862, V-B:PRO:540:CB:9856, V-B:LEU:363:CA:8156, V-B:LEU:363:CD1:8160, V-A:ILE:369:CG1:3237, V-B:LEU:363:CB:8158"]

$$$$
4ak_Grossjean_2025
     RDKit          3D

 25 26  0  0  0  0  0  0  0  0999 V2000
  123.7560  124.3910   59.3870 C   0  0  0  0  0  0  0  0  0  0  0  0
  123.9820  123.6570   60.5810 O   0  0  0  0  0  0  0  0  0  0  0  0
  124.7160  124.3820   61.5600 C   0  0  0  0  0  0  0  0  0  0  0  0
  126.0900  123.7290   61.7560 C   0  0  0  0  0  0  0  0  0  0  0  0
  127.1010  124.6100   61.2840 O   0  0  0  0  0  0  0  0  0  0  0  0
  126.6350  125.5670   60.3430 C   0  0  0  0  0  0  0  0  0  0  0  0
  127.2070  125.2380   58.9590 C   0  0  0  0  0  0  0  0  0  0  0  0
  128.1480  124.1800   59.0790 O   0  0  0  0  0  0  0  0  0  0  0  0
  127.5880  122.8880   58.8890 C   0  0  0  0  0  0  0  0  0  0  0  0
  128.2680  121.8920   59.8460 C   0  0  0  0  0  0  0  0  0  0  0  0
  129.0730  122.5340   60.8850 N   0  0  0  0  0  0  0  0  0  0  0  0
  129.9170  121.8990   61.7230 C   0  0  0  0  0  0  0  0  0  0  0  0
  130.1060  120.6820   61.6720 O   0  0  0  0  0  0  0  0  0  0  0  0
  130.6080  122.7390   62.6990 C   0  0  0  0  0  0  0  0  0  0  0  0
  132.2820  122.4000   63.1370 S   0  0  0  0  0  0  0  0  0  0  0  0
  132.3170  123.7600   64.2370 C   0  0  0  0  0  0  0  0  0  0  0  0
  133.4040  124.0640   64.9480 N   0  0  0  0  0  0  0  0  0  0  0  0
  133.2980  125.1410   65.7650 C   0  0  0  0  0  0  0  0  0  0  0  0
  134.5450  125.4720   66.5640 C   0  0  0  0  0  0  0  0  0  0  0  0
  132.1440  125.9120   65.8850 C   0  0  0  0  0  0  0  0  0  0  0  0
  131.0050  125.5900   65.1370 C   0  0  0  0  0  0  0  0  0  0  0  0
  129.7680  126.4590   65.3060 C   0  0  0  0  0  0  0  0  0  0  0  0
  131.0780  124.4660   64.2700 C   0  0  0  0  0  0  0  0  0  0  0  0
  130.1220  123.8660   63.3790 C   0  0  0  0  0  0  0  0  0  0  0  0
  128.8530  124.3630   63.2220 N   0  0  0  0  0  0  0  0  0  0  0  0
  1  2  1  0
  2  3  1  0
  3  4  1  0
  4  5  1  0
  5  6  1  0
  6  7  1  0
  7  8  1  0
  8  9  1  0
  9 10  1  0
 10 11  1  0
 11 12  1  0
 12 13  2  0
 12 14  1  0
 14 15  1  0
 15 16  1  0
 16 17  2  0
 17 18  1  0
 18 19  1  0
 18 20  2  0
 20 21  1  0
 21 22  1  0
 21 23  2  0
 23 24  1  0
 24 25  1  0
 24 14  2  0
 23 16  1  0
M  END
>  <Binding energies>  (47) 
[-4.51]

>  <Ligand effiencies>  (47) 
[-0.16107142857142856]

>  <Interactions>  (47) 
["V-B:ASP:366:CG:8184, V-A:ARG:545:CZ:4926, V-B:GLU:543:CD:9879, V-A:LEU:475:CD2:4258, V-A:GLU:543:CD:4908, V-A:GLY:453:CA:4043, V-B:TYR:539:CD2:9845, V-B:TYR:539:CE2:9847, V-B:ALA:541:CB:9863, V-A:ARG:545:CG:4922, V-B:GLU:543:CG:9878, H-B:GLU:543:OE2:9881, V-B:PRO:540:C:9852, H-A:TYR:484:OH:4347, V-B:PRO:540:N:9855, V-B:TYR:539:C:9838, V-B:PRO:540:CA:9854, H-A:GLY:454:N:4049, V-B:PRO:540:CB:9856, V-A:ARG:545:CD:4923, V-B:LEU:363:CA:8156, V-A:GLY:453:C:4041, V-B:ASN:362:CB:8147, V-B:ASN:362:C:8143, V-B:LEU:363:CB:8158, H-B:LEU:363:N:8157"]

$$$$
4al_Grossjean_2025
     RDKit          3D

 16 17  0  0  0  0  0  0  0  0999 V2000
  125.2970  124.3530   61.4010 C   0  0  0  0  0  0  0  0  0  0  0  0
  126.1670  123.2380   61.5220 O   0  0  0  0  0  0  0  0  0  0  0  0
  127.1230  122.9950   60.5890 C   0  0  0  0  0  0  0  0  0  0  0  0
  126.9080  122.9580   59.3750 O   0  0  0  0  0  0  0  0  0  0  0  0
  128.4620  122.7760   61.1790 C   0  0  0  0  0  0  0  0  0  0  0  0
  129.6640  121.8210   60.3080 S   0  0  0  0  0  0  0  0  0  0  0  0
  130.8310  122.0450   61.5900 C   0  0  0  0  0  0  0  0  0  0  0  0
  132.0550  121.5200   61.5280 N   0  0  0  0  0  0  0  0  0  0  0  0
  132.8640  121.7680   62.5880 C   0  0  0  0  0  0  0  0  0  0  0  0
  134.2520  121.1610   62.4980 C   0  0  0  0  0  0  0  0  0  0  0  0
  132.4810  122.5220   63.6960 C   0  0  0  0  0  0  0  0  0  0  0  0
  131.1960  123.0720   63.7570 C   0  0  0  0  0  0  0  0  0  0  0  0
  130.8230  123.8870   64.9850 C   0  0  0  0  0  0  0  0  0  0  0  0
  130.3200  122.8320   62.6640 C   0  0  0  0  0  0  0  0  0  0  0  0
  128.9660  123.2350   62.4010 C   0  0  0  0  0  0  0  0  0  0  0  0
  128.2400  124.0010   63.2770 N   0  0  0  0  0  0  0  0  0  0  0  0
  1  2  1  0
  2  3  1  0
  3  4  2  0
  3  5  1  0
  5  6  1  0
  6  7  1  0
  7  8  2  0
  8  9  1  0
  9 10  1  0
  9 11  2  0
 11 12  1  0
 12 13  1  0
 12 14  2  0
 14 15  1  0
 15 16  1  0
 15  5  2  0
 14  7  1  0
M  END
>  <Binding energies>  (48) 
[-4.64]

>  <Ligand effiencies>  (48) 
[-0.2577777777777778]

>  <Interactions>  (48) 
["V-B:GLU:543:CD:9879, V-A:LEU:475:CD2:4258, V-A:ILE:369:CD1:3238, V-A:GLY:454:CA:4048, V-B:TYR:539:CD2:9845, V-A:ILE:369:CG2:3236, V-B:TYR:539:CE2:9847, V-B:ALA:541:CB:9863, V-B:GLU:543:CG:9878, H-B:GLU:543:OE2:9881, V-B:PRO:540:C:9852, V-B:PRO:540:CA:9854, H-B:ALA:541:N:9862, V-B:PRO:540:CB:9856"]

$$$$
4bc_Grossjean_2025
     RDKit          3D

 26 28  0  0  0  0  0  0  0  0999 V2000
  129.3870  129.5880   74.2440 C   0  0  0  0  0  0  0  0  0  0  0  0
  130.4070  128.7320   73.7400 O   0  0  0  0  0  0  0  0  0  0  0  0
  130.3760  128.3580   72.4110 C   0  0  0  0  0  0  0  0  0  0  0  0
  131.5050  128.6630   71.6520 C   0  0  0  0  0  0  0  0  0  0  0  0
  131.5660  128.3260   70.3020 C   0  0  0  0  0  0  0  0  0  0  0  0
  130.4950  127.6680   69.6940 C   0  0  0  0  0  0  0  0  0  0  0  0
  130.6400  127.3810   68.3240 N   0  0  0  0  0  0  0  0  0  0  0  0
  130.1050  126.3680   67.5990 C   0  0  0  0  0  0  0  0  0  0  0  0
  129.4000  125.4790   68.0770 O   0  0  0  0  0  0  0  0  0  0  0  0
  130.4270  126.3800   66.1690 C   0  0  0  0  0  0  0  0  0  0  0  0
  129.3290  127.1390   65.0190 S   0  0  0  0  0  0  0  0  0  0  0  0
  130.3760  126.7330   63.6800 C   0  0  0  0  0  0  0  0  0  0  0  0
  130.0680  127.0710   62.4280 N   0  0  0  0  0  0  0  0  0  0  0  0
  130.9550  126.7010   61.4770 C   0  0  0  0  0  0  0  0  0  0  0  0
  130.5880  127.1000   60.0600 C   0  0  0  0  0  0  0  0  0  0  0  0
  132.1330  126.0070   61.7440 C   0  0  0  0  0  0  0  0  0  0  0  0
  132.4630  125.6480   63.0610 C   0  0  0  0  0  0  0  0  0  0  0  0
  133.7680  124.8820   63.3050 C   0  0  0  0  0  0  0  0  0  0  0  0
  134.5980  125.5170   64.1350 F   0  0  0  0  0  0  0  0  0  0  0  0
  133.4980  123.6930   63.8410 F   0  0  0  0  0  0  0  0  0  0  0  0
  134.4130  124.7090   62.1510 F   0  0  0  0  0  0  0  0  0  0  0  0
  131.5480  126.0250   64.0890 C   0  0  0  0  0  0  0  0  0  0  0  0
  131.5490  125.8410   65.5200 C   0  0  0  0  0  0  0  0  0  0  0  0
  132.5620  125.1940   66.1820 N   0  0  0  0  0  0  0  0  0  0  0  0
  129.3490  127.3700   70.4470 C   0  0  0  0  0  0  0  0  0  0  0  0
  129.2930  127.7090   71.7960 C   0  0  0  0  0  0  0  0  0  0  0  0
  1  2  1  0
  2  3  1  0
  3  4  2  0
  4  5  1  0
  5  6  2  0
  6  7  1  0
  7  8  1  0
  8  9  2  0
  8 10  1  0
 10 11  1  0
 11 12  1  0
 12 13  2  0
 13 14  1  0
 14 15  1  0
 14 16  2  0
 16 17  1  0
 17 18  1  0
 18 19  1  0
 18 20  1  0
 18 21  1  0
 17 22  2  0
 22 23  1  0
 23 24  1  0
  6 25  1  0
 25 26  2  0
 26  3  1  0
 23 10  2  0
 22 12  1  0
M  END
>  <Binding energies>  (49) 
[-6.16]

>  <Ligand effiencies>  (49) 
[-0.21241379310344827]

>  <Interactions>  (49) 
["V-B:HIS:456:CE1:9041, V-A:ARG:545:CZ:4926, V-B:GLU:543:CD:9879, V-A:ASP:366:CG:3212, V-A:TYR:484:CZ:4346, V-A:GLU:543:CD:4908, V-A:ILE:369:CD1:3238, V-A:GLY:453:CA:4043, V-A:GLY:454:CA:4048, V-A:HIS:456:CE1:4069, V-B:HIS:456:CD2:9039, V-A:GLU:543:CB:4906, V-A:GLY:544:C:4912, V-A:ARG:545:CG:4922, V-A:ARG:545:CA:4919, H-A:LYS:547:NZ:4951, H-A:TYR:484:OH:4347, V-A:LYS:547:CE:4950, V-A:ARG:545:CD:4923, H-A:GLU:543:OE2:4910, V-A:GLY:453:C:4041"]

$$$$
4bf_Grossjean_2025
     RDKit          3D

 24 26  0  0  0  0  0  0  0  0999 V2000
  129.0660  124.3470   73.3100 C   0  0  0  0  0  0  0  0  0  0  0  0
  129.0470  125.7790   72.8040 C   0  0  0  0  0  0  0  0  0  0  0  0
  129.2290  126.0640   71.4530 C   0  0  0  0  0  0  0  0  0  0  0  0
  129.2130  127.3910   70.9990 C   0  0  0  0  0  0  0  0  0  0  0  0
  129.4200  127.6570   69.5040 C   0  0  0  0  0  0  0  0  0  0  0  0
  128.4860  128.4560   68.9810 F   0  0  0  0  0  0  0  0  0  0  0  0
  130.6010  128.2430   69.3090 F   0  0  0  0  0  0  0  0  0  0  0  0
  129.3830  126.5060   68.8320 F   0  0  0  0  0  0  0  0  0  0  0  0
  129.0050  128.4120   71.9740 C   0  0  0  0  0  0  0  0  0  0  0  0
  128.9290  129.8500   71.8890 C   0  0  0  0  0  0  0  0  0  0  0  0
  129.0590  130.5280   70.7030 N   0  0  0  0  0  0  0  0  0  0  0  0
  128.7070  130.4880   73.1200 C   0  0  0  0  0  0  0  0  0  0  0  0
  128.6090  131.9240   73.4010 C   0  0  0  0  0  0  0  0  0  0  0  0
  127.5450  132.4190   73.7710 O   0  0  0  0  0  0  0  0  0  0  0  0
  129.7570  132.6270   73.2370 N   0  0  0  0  0  0  0  0  0  0  0  0
  129.9880  134.0090   73.3740 C   0  0  0  0  0  0  0  0  0  0  0  0
  129.7260  134.7680   74.5280 C   0  0  0  0  0  0  0  0  0  0  0  0
  129.9890  136.1400   74.5260 C   0  0  0  0  0  0  0  0  0  0  0  0
  130.5040  136.7210   73.3670 C   0  0  0  0  0  0  0  0  0  0  0  0
  130.7580  136.0110   72.2390 N   0  0  0  0  0  0  0  0  0  0  0  0
  130.4980  134.6790   72.2550 C   0  0  0  0  0  0  0  0  0  0  0  0
  128.5900  129.3170   74.4320 S   0  0  0  0  0  0  0  0  0  0  0  0
  128.8310  127.9850   73.3270 C   0  0  0  0  0  0  0  0  0  0  0  0
  128.8460  126.7220   73.7530 N   0  0  0  0  0  0  0  0  0  0  0  0
  1  2  1  0
  2  3  2  0
  3  4  1  0
  4  5  1  0
  5  6  1  0
  5  7  1  0
  5  8  1  0
  4  9  2  0
  9 10  1  0
 10 11  1  0
 10 12  2  0
 12 13  1  0
 13 14  2  0
 13 15  1  0
 15 16  1  0
 16 17  2  0
 17 18  1  0
 18 19  2  0
 19 20  1  0
 20 21  2  0
 12 22  1  0
 22 23  1  0
 23 24  2  0
 24  2  1  0
 23  9  1  0
 21 16  1  0
M  END
>  <Binding energies>  (50) 
[-5.87]

>  <Ligand effiencies>  (50) 
[-0.2174074074074074]

>  <Interactions>  (50) 
["V-B:HIS:456:CE1:9041, V-A:GLU:543:CD:4908, V-A:GLU:543:CG:4907, V-A:HIS:456:CE1:4069, V-A:GLU:543:C:4902, V-B:HIS:456:CD2:9039, V-B:HIS:456:CG:9037, V-A:GLU:543:CB:4906, V-A:HIS:456:CD2:4067, V-B:TYR:484:CD1:9314, V-B:TYR:484:CE1:9316, H-B:LYS:547:NZ:9922, V-B:LYS:547:CE:9921, V-A:GLU:543:CA:4904, H-A:GLU:543:O:4903, V-B:TYR:484:CG:9313, V-B:TYR:484:CB:9312, V-B:TYR:484:C:9308, V-B:TYR:484:CA:9310, H-B:TYR:484:N:9311, H-B:SER:483:OG:9305"]

$$$$
4bh_Grossjean_2025
     RDKit          3D

 31 33  0  0  0  0  0  0  0  0999 V2000
  128.9820  123.5900   73.2240 C   0  0  0  0  0  0  0  0  0  0  0  0
  128.9650  124.9610   73.6070 O   0  0  0  0  0  0  0  0  0  0  0  0
  129.2000  125.9350   72.6530 C   0  0  0  0  0  0  0  0  0  0  0  0
  128.6670  125.9050   71.3550 C   0  0  0  0  0  0  0  0  0  0  0  0
  128.9470  126.9220   70.4420 C   0  0  0  0  0  0  0  0  0  0  0  0
  128.3230  126.8960   69.0520 C   0  0  0  0  0  0  0  0  0  0  0  0
  129.2320  126.4110   68.0130 N   0  0  0  0  0  0  0  0  0  0  0  0
  129.5550  125.1190   67.7970 C   0  0  0  0  0  0  0  0  0  0  0  0
  129.1300  124.2030   68.5040 O   0  0  0  0  0  0  0  0  0  0  0  0
  130.4820  124.8630   66.6940 C   0  0  0  0  0  0  0  0  0  0  0  0
  131.8990  125.8860   66.4790 S   0  0  0  0  0  0  0  0  0  0  0  0
  132.3750  125.0000   65.0490 C   0  0  0  0  0  0  0  0  0  0  0  0
  133.4740  125.3190   64.3670 N   0  0  0  0  0  0  0  0  0  0  0  0
  133.7390  124.5600   63.2790 C   0  0  0  0  0  0  0  0  0  0  0  0
  134.9950  124.9420   62.5160 C   0  0  0  0  0  0  0  0  0  0  0  0
  132.9410  123.4980   62.8620 C   0  0  0  0  0  0  0  0  0  0  0  0
  131.7810  123.1580   63.5750 C   0  0  0  0  0  0  0  0  0  0  0  0
  130.9360  121.9800   63.0800 C   0  0  0  0  0  0  0  0  0  0  0  0
  129.7780  122.3590   62.5350 F   0  0  0  0  0  0  0  0  0  0  0  0
  131.6090  121.3000   62.1520 F   0  0  0  0  0  0  0  0  0  0  0  0
  130.6520  121.1690   64.0990 F   0  0  0  0  0  0  0  0  0  0  0  0
  131.4700  123.9410   64.7260 C   0  0  0  0  0  0  0  0  0  0  0  0
  130.3890  123.8970   65.6800 C   0  0  0  0  0  0  0  0  0  0  0  0
  129.3680  122.9850   65.6040 N   0  0  0  0  0  0  0  0  0  0  0  0
  129.7450  127.9980   70.8350 C   0  0  0  0  0  0  0  0  0  0  0  0
  130.2980  128.0510   72.1240 C   0  0  0  0  0  0  0  0  0  0  0  0
  131.1070  129.0780   72.5770 O   0  0  0  0  0  0  0  0  0  0  0  0
  130.5120  130.3010   72.9970 C   0  0  0  0  0  0  0  0  0  0  0  0
  130.0210  127.0100   73.0220 C   0  0  0  0  0  0  0  0  0  0  0  0
  130.5410  127.0580   74.2940 O   0  0  0  0  0  0  0  0  0  0  0  0
  131.5460  126.0850   74.5450 C   0  0  0  0  0  0  0  0  0  0  0  0
  1  2  1  0
  2  3  1  0
  3  4  2  0
  4  5  1  0
  5  6  1  0
  6  7  1  0
  7  8  1  0
  8  9  2  0
  8 10  1  0
 10 11  1  0
 11 12  1  0
 12 13  2  0
 13 14  1  0
 14 15  1  0
 14 16  2  0
 16 17  1  0
 17 18  1  0
 18 19  1  0
 18 20  1  0
 18 21  1  0
 17 22  2  0
 22 23  1  0
 23 24  1  0
  5 25  2  0
 25 26  1  0
 26 27  1  0
 27 28  1  0
 26 29  2  0
 29 30  1  0
 30 31  1  0
 29  3  1  0
 23 10  2  0
 22 12  1  0
M  END
>  <Binding energies>  (51) 
[-6.08]

>  <Ligand effiencies>  (51) 
[-0.17882352941176471]

>  <Interactions>  (51) 
["V-B:HIS:456:CE1:9041, V-B:GLU:543:CD:9879, V-A:ASP:366:CG:3212, V-A:LEU:475:CD2:4258, V-A:TYR:484:CZ:4346, V-A:ILE:369:CD1:3238, V-A:GLY:453:CA:4043, H-A:ARG:545:NH2:4928, V-A:HIS:456:CE1:4069, V-A:GLU:543:C:4902, V-A:HIS:456:CG:4065, V-A:GLY:544:C:4912, V-A:HIS:456:CD2:4067, V-B:ALA:541:CB:9863, V-B:GLU:543:CG:9878, V-B:GLU:543:CB:9877, H-B:LYS:547:NZ:9922, V-B:LYS:547:CE:9921, V-A:HIS:456:CB:4064, H-A:LYS:547:NZ:4951, V-A:LYS:547:CE:4950, H-A:ARG:545:NE:4924, H-A:GLY:454:N:4049, V-A:LEU:475:CD1:4257, H-A:GLU:543:OE2:4910, H-A:ARG:545:NH1:4927, V-A:GLY:453:C:4041, V-A:TYR:484:CE1:4344, V-B:GLU:543:CA:9875, V-A:LEU:475:CG:4256"]

$$$$
4bi_Grossjean_2025
     RDKit          3D

 23 25  0  0  0  0  0  0  0  0999 V2000
  134.4480  120.9890   62.4910 C   0  0  0  0  0  0  0  0  0  0  0  0
  133.1360  121.7460   62.5860 C   0  0  0  0  0  0  0  0  0  0  0  0
  132.9470  122.7370   63.5450 C   0  0  0  0  0  0  0  0  0  0  0  0
  131.7290  123.4330   63.6190 C   0  0  0  0  0  0  0  0  0  0  0  0
  131.5710  124.5210   64.6860 C   0  0  0  0  0  0  0  0  0  0  0  0
  131.3760  125.7360   64.1690 F   0  0  0  0  0  0  0  0  0  0  0  0
  130.5220  124.2440   65.4610 F   0  0  0  0  0  0  0  0  0  0  0  0
  132.6710  124.5790   65.4380 F   0  0  0  0  0  0  0  0  0  0  0  0
  130.7160  123.0750   62.6800 C   0  0  0  0  0  0  0  0  0  0  0  0
  129.3740  123.5520   62.4560 C   0  0  0  0  0  0  0  0  0  0  0  0
  128.8010  124.5400   63.2160 N   0  0  0  0  0  0  0  0  0  0  0  0
  128.7100  122.9210   61.3910 C   0  0  0  0  0  0  0  0  0  0  0  0
  127.3470  123.1460   60.9010 C   0  0  0  0  0  0  0  0  0  0  0  0
  126.4050  123.2530   61.6890 O   0  0  0  0  0  0  0  0  0  0  0  0
  127.2210  123.2430   59.5540 N   0  0  0  0  0  0  0  0  0  0  0  0
  126.0590  123.4650   58.8270 C   0  0  0  0  0  0  0  0  0  0  0  0
  125.0750  124.3710   59.2220 C   0  0  0  0  0  0  0  0  0  0  0  0
  124.1060  124.2940   58.2480 C   0  0  0  0  0  0  0  0  0  0  0  0
  124.4860  123.3890   57.3150 O   0  0  0  0  0  0  0  0  0  0  0  0
  125.7260  122.8700   57.6940 N   0  0  0  0  0  0  0  0  0  0  0  0
  129.7290  121.6920   60.6440 S   0  0  0  0  0  0  0  0  0  0  0  0
  131.0390  122.0420   61.7470 C   0  0  0  0  0  0  0  0  0  0  0  0
  132.1970  121.3860   61.6810 N   0  0  0  0  0  0  0  0  0  0  0  0
  1  2  1  0
  2  3  2  0
  3  4  1  0
  4  5  1  0
  5  6  1  0
  5  7  1  0
  5  8  1  0
  4  9  2  0
  9 10  1  0
 10 11  1  0
 10 12  2  0
 12 13  1  0
 13 14  2  0
 13 15  1  0
 15 16  1  0
 16 17  1  0
 17 18  2  0
 18 19  1  0
 19 20  1  0
 12 21  1  0
 21 22  1  0
 22 23  2  0
 23  2  1  0
 22  9  1  0
 20 16  2  0
M  END
>  <Binding energies>  (52) 
[-5.56]

>  <Ligand effiencies>  (52) 
[-0.21384615384615382]

>  <Interactions>  (52) 
["V-B:GLU:543:CD:9879, V-A:LEU:475:CD2:4258, V-A:TYR:484:CZ:4346, V-A:ILE:369:CD1:3238, V-A:GLY:454:CA:4048, V-B:TYR:539:CD2:9845, V-A:ILE:369:CG2:3236, V-B:TYR:539:CE2:9847, V-B:ALA:541:CB:9863, V-B:GLU:543:CG:9878, H-B:GLU:543:OE2:9881, V-B:PRO:540:C:9852, V-A:SER:385:C:3404, V-B:PRO:540:N:9855, V-B:PRO:540:CA:9854, H-B:ALA:541:N:9862, V-B:PRO:540:CB:9856, V-B:LEU:363:CA:8156, V-B:LEU:363:CD1:8160, V-A:ILE:369:CG1:3237"]

$$$$
4bj_Grossjean_2025
     RDKit          3D

 23 25  0  0  0  0  0  0  0  0999 V2000
  134.2620  120.7540   62.1020 C   0  0  0  0  0  0  0  0  0  0  0  0
  132.9940  121.5660   62.2970 C   0  0  0  0  0  0  0  0  0  0  0  0
  132.9030  122.5250   63.3020 C   0  0  0  0  0  0  0  0  0  0  0  0
  131.7220  123.2640   63.4750 C   0  0  0  0  0  0  0  0  0  0  0  0
  131.6690  124.3070   64.5970 C   0  0  0  0  0  0  0  0  0  0  0  0
  130.7480  124.0310   65.5220 F   0  0  0  0  0  0  0  0  0  0  0  0
  132.8490  124.3680   65.2120 F   0  0  0  0  0  0  0  0  0  0  0  0
  131.3760  125.5030   64.0850 F   0  0  0  0  0  0  0  0  0  0  0  0
  130.6440  122.9880   62.5830 C   0  0  0  0  0  0  0  0  0  0  0  0
  129.3100  123.5250   62.4580 C   0  0  0  0  0  0  0  0  0  0  0  0
  128.8250  124.5030   63.2890 N   0  0  0  0  0  0  0  0  0  0  0  0
  128.5620  122.9650   61.4110 C   0  0  0  0  0  0  0  0  0  0  0  0
  127.1850  123.2660   61.0100 C   0  0  0  0  0  0  0  0  0  0  0  0
  126.2680  123.2390   61.8340 O   0  0  0  0  0  0  0  0  0  0  0  0
  127.0140  123.5810   59.7030 N   0  0  0  0  0  0  0  0  0  0  0  0
  125.8230  123.9150   59.0740 C   0  0  0  0  0  0  0  0  0  0  0  0
  124.7000  124.3170   59.6300 N   0  0  0  0  0  0  0  0  0  0  0  0
  123.7690  124.5540   58.7280 C   0  0  0  0  0  0  0  0  0  0  0  0
  124.1300  124.3420   57.4020 C   0  0  0  0  0  0  0  0  0  0  0  0
  125.7810  123.8010   57.3440 S   0  0  0  0  0  0  0  0  0  0  0  0
  129.4830  121.7300   60.5560 S   0  0  0  0  0  0  0  0  0  0  0  0
  130.8680  121.9820   61.5930 C   0  0  0  0  0  0  0  0  0  0  0  0
  131.9900  121.2810   61.4350 N   0  0  0  0  0  0  0  0  0  0  0  0
  1  2  1  0
  2  3  2  0
  3  4  1  0
  4  5  1  0
  5  6  1  0
  5  7  1  0
  5  8  1  0
  4  9  2  0
  9 10  1  0
 10 11  1  0
 10 12  2  0
 12 13  1  0
 13 14  2  0
 13 15  1  0
 15 16  1  0
 16 17  2  0
 17 18  1  0
 18 19  2  0
 19 20  1  0
 12 21  1  0
 21 22  1  0
 22 23  2  0
 23  2  1  0
 22  9  1  0
 20 16  1  0
M  END
>  <Binding energies>  (53) 
[-5.64]

>  <Ligand effiencies>  (53) 
[-0.2169230769230769]

>  <Interactions>  (53) 
["V-B:ASP:366:CG:8184, V-B:GLU:543:CD:9879, V-A:LEU:475:CD2:4258, V-A:TYR:484:CZ:4346, V-A:ILE:369:CD1:3238, V-A:GLY:454:CA:4048, V-B:TYR:539:CD2:9845, V-A:ILE:369:CG2:3236, V-B:TYR:539:CE2:9847, V-B:ALA:541:CB:9863, V-B:GLU:543:CG:9878, H-B:GLU:543:OE2:9881, V-B:ASP:366:CB:8183, V-A:SER:385:C:3404, V-B:PRO:540:CA:9854, H-B:ALA:541:N:9862, V-B:PRO:540:CB:9856, V-B:LEU:363:CA:8156, V-A:TYR:484:CE1:4344, V-B:LEU:363:CD1:8160, V-A:ILE:369:CG1:3237, V-B:ASN:362:C:8143, V-B:TYR:531:CE2:9764, V-B:LEU:363:CB:8158, V-B:TYR:531:CZ:9765"]

$$$$
4bk_Grossjean_2025
     RDKit          3D

 28 29  0  0  0  0  0  0  0  0999 V2000
  128.5640  125.1630   71.9840 C   0  0  0  0  0  0  0  0  0  0  0  0
  128.6540  125.6190   73.3250 O   0  0  0  0  0  0  0  0  0  0  0  0
  129.2540  126.9020   73.4470 C   0  0  0  0  0  0  0  0  0  0  0  0
  130.7260  126.8220   73.0220 C   0  0  0  0  0  0  0  0  0  0  0  0
  131.2550  128.1350   72.9040 O   0  0  0  0  0  0  0  0  0  0  0  0
  131.7190  128.4510   71.5980 C   0  0  0  0  0  0  0  0  0  0  0  0
  130.6320  129.2280   70.8450 C   0  0  0  0  0  0  0  0  0  0  0  0
  129.6120  128.3290   70.4330 O   0  0  0  0  0  0  0  0  0  0  0  0
  130.0600  127.3280   69.5260 C   0  0  0  0  0  0  0  0  0  0  0  0
  129.3890  127.5420   68.1580 C   0  0  0  0  0  0  0  0  0  0  0  0
  129.8820  126.6420   67.1140 N   0  0  0  0  0  0  0  0  0  0  0  0
  129.8580  125.2940   67.1720 C   0  0  0  0  0  0  0  0  0  0  0  0
  129.3850  124.6830   68.1310 O   0  0  0  0  0  0  0  0  0  0  0  0
  130.4200  124.5900   66.0180 C   0  0  0  0  0  0  0  0  0  0  0  0
  129.7230  123.0610   65.4900 S   0  0  0  0  0  0  0  0  0  0  0  0
  130.8640  122.9460   64.1710 C   0  0  0  0  0  0  0  0  0  0  0  0
  130.8510  121.9150   63.3290 N   0  0  0  0  0  0  0  0  0  0  0  0
  131.7820  121.9370   62.3470 C   0  0  0  0  0  0  0  0  0  0  0  0
  131.7480  120.7530   61.3970 C   0  0  0  0  0  0  0  0  0  0  0  0
  132.7170  122.9570   62.1890 C   0  0  0  0  0  0  0  0  0  0  0  0
  132.7370  124.0460   63.0750 C   0  0  0  0  0  0  0  0  0  0  0  0
  133.7860  125.1430   62.8640 C   0  0  0  0  0  0  0  0  0  0  0  0
  134.5130  125.3870   63.9560 F   0  0  0  0  0  0  0  0  0  0  0  0
  134.6280  124.7810   61.8960 F   0  0  0  0  0  0  0  0  0  0  0  0
  133.1860  126.2820   62.5220 F   0  0  0  0  0  0  0  0  0  0  0  0
  131.7670  124.0540   64.1210 C   0  0  0  0  0  0  0  0  0  0  0  0
  131.4830  124.9800   65.1900 C   0  0  0  0  0  0  0  0  0  0  0  0
  132.1950  126.1370   65.3780 N   0  0  0  0  0  0  0  0  0  0  0  0
  1  2  1  0
  2  3  1  0
  3  4  1  0
  4  5  1  0
  5  6  1  0
  6  7  1  0
  7  8  1  0
  8  9  1  0
  9 10  1  0
 10 11  1  0
 11 12  1  0
 12 13  2  0
 12 14  1  0
 14 15  1  0
 15 16  1  0
 16 17  2  0
 17 18  1  0
 18 19  1  0
 18 20  2  0
 20 21  1  0
 21 22  1  0
 22 23  1  0
 22 24  1  0
 22 25  1  0
 21 26  2  0
 26 27  1  0
 27 28  1  0
 27 14  2  0
 26 16  1  0
M  END
>  <Binding energies>  (54) 
[-5.36]

>  <Ligand effiencies>  (54) 
[-0.17290322580645162]

>  <Interactions>  (54) 
["V-A:ARG:545:CZ:4926, V-B:GLU:543:CD:9879, V-A:ASP:366:CG:3212, V-A:LEU:475:CD2:4258, V-A:TYR:484:CZ:4346, V-A:GLU:543:CD:4908, V-A:ILE:369:CD1:3238, V-A:GLY:453:CA:4043, V-A:HIS:456:CE1:4069, V-A:GLU:543:C:4902, V-A:HIS:456:CG:4065, V-A:GLU:543:CB:4906, V-A:GLY:544:C:4912, V-A:HIS:456:CD2:4067, V-B:ALA:541:CB:9863, V-B:GLU:543:CG:9878, V-B:GLU:543:CB:9877, V-A:ARG:545:CA:4919, H-B:LYS:547:NZ:9922, H-A:LYS:547:NZ:4951, H-A:GLU:543:OE1:4909, H-A:GLU:543:OE2:4910, V-A:GLY:453:C:4041, V-A:TYR:484:CE1:4344"]

$$$$
4cd_Grossjean_2025
     RDKit          3D

 29 32  0  0  0  0  0  0  0  0999 V2000
  127.5380  128.0640   63.3350 N   0  0  0  0  0  0  0  0  0  0  0  0
  127.2750  128.5350   64.5970 C   0  0  0  0  0  0  0  0  0  0  0  0
  126.2180  129.4130   64.8850 C   0  0  0  0  0  0  0  0  0  0  0  0
  125.2390  129.9990   63.9640 C   0  0  0  0  0  0  0  0  0  0  0  0
  124.1230  130.3330   64.3620 O   0  0  0  0  0  0  0  0  0  0  0  0
  125.6610  130.1420   62.6830 N   0  0  0  0  0  0  0  0  0  0  0  0
  124.9620  130.6140   61.5570 C   0  0  0  0  0  0  0  0  0  0  0  0
  125.6350  130.5230   60.3360 C   0  0  0  0  0  0  0  0  0  0  0  0
  125.0230  130.9520   59.1620 C   0  0  0  0  0  0  0  0  0  0  0  0
  123.7300  131.4670   59.2070 C   0  0  0  0  0  0  0  0  0  0  0  0
  123.0420  131.5510   60.4150 C   0  0  0  0  0  0  0  0  0  0  0  0
  123.6520  131.1230   61.5920 C   0  0  0  0  0  0  0  0  0  0  0  0
  126.1660  129.8020   66.6030 S   0  0  0  0  0  0  0  0  0  0  0  0
  127.5600  128.7980   66.9190 C   0  0  0  0  0  0  0  0  0  0  0  0
  128.0600  128.6690   68.1460 N   0  0  0  0  0  0  0  0  0  0  0  0
  129.1540  127.8770   68.2910 C   0  0  0  0  0  0  0  0  0  0  0  0
  129.6960  127.7530   69.6860 C   0  0  0  0  0  0  0  0  0  0  0  0
  129.0930  126.8940   70.6180 C   0  0  0  0  0  0  0  0  0  0  0  0
  129.5910  126.7740   71.9130 C   0  0  0  0  0  0  0  0  0  0  0  0
  130.7050  127.5150   72.2940 C   0  0  0  0  0  0  0  0  0  0  0  0
  131.3240  128.3700   71.3900 C   0  0  0  0  0  0  0  0  0  0  0  0
  130.8240  128.4860   70.0960 C   0  0  0  0  0  0  0  0  0  0  0  0
  129.7280  127.2030   67.2090 C   0  0  0  0  0  0  0  0  0  0  0  0
  129.2060  127.3290   65.9110 C   0  0  0  0  0  0  0  0  0  0  0  0
  129.8860  126.5650   64.7700 C   0  0  0  0  0  0  0  0  0  0  0  0
  130.1770  127.3390   63.7210 F   0  0  0  0  0  0  0  0  0  0  0  0
  131.0290  126.0320   65.2010 F   0  0  0  0  0  0  0  0  0  0  0  0
  129.0830  125.5930   64.3360 F   0  0  0  0  0  0  0  0  0  0  0  0
  128.0660  128.1670   65.7450 C   0  0  0  0  0  0  0  0  0  0  0  0
  1  2  1  0
  2  3  2  0
  3  4  1  0
  4  5  2  0
  4  6  1  0
  6  7  1  0
  7  8  2  0
  8  9  1  0
  9 10  2  0
 10 11  1  0
 11 12  2  0
  3 13  1  0
 13 14  1  0
 14 15  2  0
 15 16  1  0
 16 17  1  0
 17 18  2  0
 18 19  1  0
 19 20  2  0
 20 21  1  0
 21 22  2  0
 16 23  2  0
 23 24  1  0
 24 25  1  0
 25 26  1  0
 25 27  1  0
 25 28  1  0
 24 29  2  0
 29  2  1  0
 12  7  1  0
 29 14  1  0
 22 17  1  0
M  END
>  <Binding energies>  (55) 
[-7.12]

>  <Ligand effiencies>  (55) 
[-0.2225]

>  <Interactions>  (55) 
["V-B:ASP:366:CG:8184, V-B:HIS:456:CE1:9041, V-B:GLU:543:CD:9879, V-B:ILE:369:CB:8207, V-A:GLU:543:CD:4908, V-B:ILE:369:CD1:8210, V-A:GLU:543:CG:4907, V-B:ILE:369:CG2:8208, V-A:HIS:456:CE1:4069, V-A:GLU:543:CB:4906, V-A:GLY:544:C:4912, V-A:HIS:456:CD2:4067, V-B:GLU:543:CG:9878, H-B:GLY:454:N:9021, H-B:GLU:543:OE2:9881, V-B:ASP:366:CB:8183, H-B:ARG:545:NH2:9899, H-B:GLU:543:OE1:9880, V-B:ARG:545:CZ:9897, V-B:ASP:366:CA:8181, V-B:ASP:366:C:8179, V-B:ILE:369:CG1:8209"]

$$$$
4cg_Grossjean_2025
     RDKit          3D

 30 33  0  0  0  0  0  0  0  0999 V2000
  127.2790  128.1820   63.2700 N   0  0  0  0  0  0  0  0  0  0  0  0
  127.0490  128.6150   64.5510 C   0  0  0  0  0  0  0  0  0  0  0  0
  125.9890  129.4670   64.8940 C   0  0  0  0  0  0  0  0  0  0  0  0
  124.9370  130.0060   64.0340 C   0  0  0  0  0  0  0  0  0  0  0  0
  123.7700  130.0900   64.4230 O   0  0  0  0  0  0  0  0  0  0  0  0
  125.3150  130.3630   62.7890 N   0  0  0  0  0  0  0  0  0  0  0  0
  124.4410  130.9430   61.7710 C   0  0  0  0  0  0  0  0  0  0  0  0
  124.3930  132.4660   61.8100 C   0  0  0  0  0  0  0  0  0  0  0  0
  124.9320  133.2050   60.7520 C   0  0  0  0  0  0  0  0  0  0  0  0
  124.8620  134.5960   60.7690 C   0  0  0  0  0  0  0  0  0  0  0  0
  124.2450  135.2420   61.8370 C   0  0  0  0  0  0  0  0  0  0  0  0
  123.6910  134.5110   62.8860 C   0  0  0  0  0  0  0  0  0  0  0  0
  123.7590  133.1210   62.8690 C   0  0  0  0  0  0  0  0  0  0  0  0
  125.9730  129.8070   66.6230 S   0  0  0  0  0  0  0  0  0  0  0  0
  127.3980  128.8260   66.8700 C   0  0  0  0  0  0  0  0  0  0  0  0
  127.9340  128.6720   68.0780 N   0  0  0  0  0  0  0  0  0  0  0  0
  129.0380  127.8870   68.1750 C   0  0  0  0  0  0  0  0  0  0  0  0
  129.6200  127.7360   69.5520 C   0  0  0  0  0  0  0  0  0  0  0  0
  129.0050  126.9100   70.5080 C   0  0  0  0  0  0  0  0  0  0  0  0
  129.5390  126.7670   71.7850 C   0  0  0  0  0  0  0  0  0  0  0  0
  130.7000  127.4520   72.1280 C   0  0  0  0  0  0  0  0  0  0  0  0
  131.3280  128.2790   71.2030 C   0  0  0  0  0  0  0  0  0  0  0  0
  130.7900  128.4190   69.9270 C   0  0  0  0  0  0  0  0  0  0  0  0
  129.6100  127.2750   67.0540 C   0  0  0  0  0  0  0  0  0  0  0  0
  129.0530  127.4310   65.7750 C   0  0  0  0  0  0  0  0  0  0  0  0
  129.7300  126.7330   64.5890 C   0  0  0  0  0  0  0  0  0  0  0  0
  129.0200  125.7120   64.1080 F   0  0  0  0  0  0  0  0  0  0  0  0
  129.9050  127.6030   63.5940 F   0  0  0  0  0  0  0  0  0  0  0  0
  130.9140  126.2530   64.9650 F   0  0  0  0  0  0  0  0  0  0  0  0
  127.8860  128.2410   65.6650 C   0  0  0  0  0  0  0  0  0  0  0  0
  1  2  1  0
  2  3  2  0
  3  4  1  0
  4  5  2  0
  4  6  1  0
  6  7  1  0
  7  8  1  0
  8  9  2  0
  9 10  1  0
 10 11  2  0
 11 12  1  0
 12 13  2  0
  3 14  1  0
 14 15  1  0
 15 16  2  0
 16 17  1  0
 17 18  1  0
 18 19  2  0
 19 20  1  0
 20 21  2  0
 21 22  1  0
 22 23  2  0
 17 24  2  0
 24 25  1  0
 25 26  1  0
 26 27  1  0
 26 28  1  0
 26 29  1  0
 25 30  2  0
 30  2  1  0
 13  8  1  0
 30 15  1  0
 23 18  1  0
M  END
>  <Binding energies>  (56) 
[-7.48]

>  <Ligand effiencies>  (56) 
[-0.22666666666666668]

>  <Interactions>  (56) 
["V-B:ASP:366:CG:8184, V-B:HIS:456:CE1:9041, V-B:GLU:543:CD:9879, V-A:GLU:543:CD:4908, V-B:GLY:454:CA:9020, V-B:TRP:381:CZ2:8341, V-B:ILE:369:CD1:8210, V-A:GLU:543:CG:4907, V-B:LEU:475:CD1:9229, V-B:ILE:369:CG2:8208, V-B:TRP:381:CH2:8343, V-A:TYR:539:CE2:4876, V-A:TYR:539:CD2:4874, V-A:HIS:456:CE1:4069, V-A:GLU:543:CB:4906, V-A:GLY:544:C:4912, V-A:HIS:456:CD2:4067, V-B:GLU:543:CG:9878, H-B:GLY:454:N:9021, H-B:GLU:543:OE2:9881, H-B:ARG:545:NH2:9899, H-B:GLU:543:OE1:9880, H-B:ARG:545:NE:9895, H-B:ARG:545:NH1:9898, V-B:ARG:545:CZ:9897, H-B:ASP:366:OD2:8186"]

$$$$
4ch_Grossjean_2025
     RDKit          3D

 36 39  0  0  0  0  0  0  0  0999 V2000
  128.2030  131.4000   72.9560 C   0  0  0  0  0  0  0  0  0  0  0  0
  128.4760  130.2340   73.7260 O   0  0  0  0  0  0  0  0  0  0  0  0
  129.0320  129.1280   73.1100 C   0  0  0  0  0  0  0  0  0  0  0  0
  129.8340  129.1930   71.9590 C   0  0  0  0  0  0  0  0  0  0  0  0
  130.3640  128.0340   71.3900 C   0  0  0  0  0  0  0  0  0  0  0  0
  131.2090  128.1210   70.1240 C   0  0  0  0  0  0  0  0  0  0  0  0
  130.4330  128.2820   68.8940 N   0  0  0  0  0  0  0  0  0  0  0  0
  129.1910  127.7990   68.6810 C   0  0  0  0  0  0  0  0  0  0  0  0
  128.5640  127.1800   69.5430 O   0  0  0  0  0  0  0  0  0  0  0  0
  128.6080  128.0850   67.3700 C   0  0  0  0  0  0  0  0  0  0  0  0
  127.2350  129.1790   67.2340 S   0  0  0  0  0  0  0  0  0  0  0  0
  127.2040  128.9940   65.4970 C   0  0  0  0  0  0  0  0  0  0  0  0
  126.3030  129.6230   64.7480 N   0  0  0  0  0  0  0  0  0  0  0  0
  126.3600  129.4220   63.4050 C   0  0  0  0  0  0  0  0  0  0  0  0
  125.3240  130.1410   62.5890 C   0  0  0  0  0  0  0  0  0  0  0  0
  125.5690  130.4700   61.2450 C   0  0  0  0  0  0  0  0  0  0  0  0
  124.6140  131.1380   60.4830 C   0  0  0  0  0  0  0  0  0  0  0  0
  123.3960  131.4870   61.0550 C   0  0  0  0  0  0  0  0  0  0  0  0
  123.1290  131.1770   62.3840 C   0  0  0  0  0  0  0  0  0  0  0  0
  124.0880  130.5120   63.1430 C   0  0  0  0  0  0  0  0  0  0  0  0
  127.3110  128.5780   62.8250 C   0  0  0  0  0  0  0  0  0  0  0  0
  128.2670  127.9080   63.6060 C   0  0  0  0  0  0  0  0  0  0  0  0
  129.2810  126.9980   62.9050 C   0  0  0  0  0  0  0  0  0  0  0  0
  129.2670  125.7450   63.3650 F   0  0  0  0  0  0  0  0  0  0  0  0
  129.0160  126.9460   61.6010 F   0  0  0  0  0  0  0  0  0  0  0  0
  130.5140  127.4730   63.0840 F   0  0  0  0  0  0  0  0  0  0  0  0
  128.2240  128.1220   65.0130 C   0  0  0  0  0  0  0  0  0  0  0  0
  129.0200  127.6250   66.1090 C   0  0  0  0  0  0  0  0  0  0  0  0
  130.0790  126.7720   65.9320 N   0  0  0  0  0  0  0  0  0  0  0  0
  130.0800  126.7940   71.9630 C   0  0  0  0  0  0  0  0  0  0  0  0
  129.2800  126.6990   73.1130 C   0  0  0  0  0  0  0  0  0  0  0  0
  128.9600  125.5060   73.7340 O   0  0  0  0  0  0  0  0  0  0  0  0
  128.9510  124.3020   72.9740 C   0  0  0  0  0  0  0  0  0  0  0  0
  128.7680  127.8750   73.6810 C   0  0  0  0  0  0  0  0  0  0  0  0
  127.9710  127.7960   74.7970 O   0  0  0  0  0  0  0  0  0  0  0  0
  128.6070  128.2230   75.9940 C   0  0  0  0  0  0  0  0  0  0  0  0
  1  2  1  0
  2  3  1  0
  3  4  2  0
  4  5  1  0
  5  6  1  0
  6  7  1  0
  7  8  1  0
  8  9  2  0
  8 10  1  0
 10 11  1  0
 11 12  1  0
 12 13  2  0
 13 14  1  0
 14 15  1  0
 15 16  2  0
 16 17  1  0
 17 18  2  0
 18 19  1  0
 19 20  2  0
 14 21  2  0
 21 22  1  0
 22 23  1  0
 23 24  1  0
 23 25  1  0
 23 26  1  0
 22 27  2  0
 27 28  1  0
 28 29  1  0
  5 30  2  0
 30 31  1  0
 31 32  1  0
 32 33  1  0
 31 34  2  0
 34 35  1  0
 35 36  1  0
 34  3  1  0
 28 10  2  0
 27 12  1  0
 20 15  1  0
M  END
>  <Binding energies>  (57) 
[-7.02]

>  <Ligand effiencies>  (57) 
[-0.18]

>  <Interactions>  (57) 
["V-B:ASP:366:CG:8184, V-B:HIS:456:CE1:9041, V-B:GLU:543:CD:9879, V-B:ILE:369:CB:8207, V-A:GLU:543:CD:4908, V-B:ILE:369:CD1:8210, V-A:GLU:543:CG:4907, V-B:ILE:369:CG2:8208, V-A:HIS:456:CE1:4069, V-B:HIS:456:CD2:9039, V-A:HIS:456:CG:4065, V-B:HIS:456:CG:9037, V-A:GLU:543:CB:4906, V-A:HIS:456:CD2:4067, V-B:TYR:484:CD1:9314, V-B:ASP:366:CB:8183, H-B:LYS:547:NZ:9922, V-B:LYS:547:CE:9921, V-B:ARG:545:CZ:9897, H-A:GLU:543:OE1:4909, H-A:GLU:543:OE2:4910, V-B:ASP:366:CA:8181"]

$$$$
4cj_Grossjean_2025
     RDKit          3D

 28 31  0  0  0  0  0  0  0  0999 V2000
  128.9890  130.4800   70.6220 N   0  0  0  0  0  0  0  0  0  0  0  0
  128.9160  129.8250   71.8250 C   0  0  0  0  0  0  0  0  0  0  0  0
  128.7430  130.4860   73.0510 C   0  0  0  0  0  0  0  0  0  0  0  0
  128.6030  131.9220   73.3030 C   0  0  0  0  0  0  0  0  0  0  0  0
  127.4990  132.4150   73.5490 O   0  0  0  0  0  0  0  0  0  0  0  0
  129.7510  132.6400   73.2350 N   0  0  0  0  0  0  0  0  0  0  0  0
  129.8920  134.0080   73.4310 C   0  0  0  0  0  0  0  0  0  0  0  0
  129.4230  134.7330   74.4240 N   0  0  0  0  0  0  0  0  0  0  0  0
  129.7500  136.0030   74.2920 C   0  0  0  0  0  0  0  0  0  0  0  0
  130.5050  136.3320   73.1700 C   0  0  0  0  0  0  0  0  0  0  0  0
  130.7980  134.8900   72.2430 S   0  0  0  0  0  0  0  0  0  0  0  0
  128.6800  129.3400   74.3890 S   0  0  0  0  0  0  0  0  0  0  0  0
  128.8880  127.9900   73.2990 C   0  0  0  0  0  0  0  0  0  0  0  0
  128.9210  126.7370   73.7460 N   0  0  0  0  0  0  0  0  0  0  0  0
  129.0780  125.7520   72.8250 C   0  0  0  0  0  0  0  0  0  0  0  0
  129.0980  124.3490   73.3610 C   0  0  0  0  0  0  0  0  0  0  0  0
  128.1100  123.4240   72.9890 C   0  0  0  0  0  0  0  0  0  0  0  0
  128.1190  122.1230   73.4870 C   0  0  0  0  0  0  0  0  0  0  0  0
  129.1200  121.7290   74.3690 C   0  0  0  0  0  0  0  0  0  0  0  0
  130.1100  122.6260   74.7550 C   0  0  0  0  0  0  0  0  0  0  0  0
  130.0970  123.9240   74.2540 C   0  0  0  0  0  0  0  0  0  0  0  0
  129.2260  126.0320   71.4620 C   0  0  0  0  0  0  0  0  0  0  0  0
  129.1950  127.3500   70.9800 C   0  0  0  0  0  0  0  0  0  0  0  0
  129.3600  127.5850   69.4740 C   0  0  0  0  0  0  0  0  0  0  0  0
  128.3460  128.2650   68.9360 F   0  0  0  0  0  0  0  0  0  0  0  0
  130.4730  128.2820   69.2480 F   0  0  0  0  0  0  0  0  0  0  0  0
  129.4380  126.4150   68.8400 F   0  0  0  0  0  0  0  0  0  0  0  0
  129.0110  128.3890   71.9360 C   0  0  0  0  0  0  0  0  0  0  0  0
  1  2  1  0
  2  3  2  0
  3  4  1  0
  4  5  2  0
  4  6  1  0
  6  7  1  0
  7  8  2  0
  8  9  1  0
  9 10  2  0
 10 11  1  0
  3 12  1  0
 12 13  1  0
 13 14  2  0
 14 15  1  0
 15 16  1  0
 16 17  2  0
 17 18  1  0
 18 19  2  0
 19 20  1  0
 20 21  2  0
 15 22  2  0
 22 23  1  0
 23 24  1  0
 24 25  1  0
 24 26  1  0
 24 27  1  0
 23 28  2  0
 28  2  1  0
 11  7  1  0
 28 13  1  0
 21 16  1  0
M  END
>  <Binding energies>  (58) 
[-6.53]

>  <Ligand effiencies>  (58) 
[-0.2106451612903226]

>  <Interactions>  (58) 
["V-B:HIS:456:CE1:9041, V-A:GLU:543:CD:4908, V-A:GLU:543:CG:4907, V-A:HIS:456:CE1:4069, V-A:GLU:543:C:4902, V-B:HIS:456:CD2:9039, V-B:HIS:456:CG:9037, V-A:GLU:543:CB:4906, V-A:HIS:456:CD2:4067, V-B:TYR:484:CD1:9314, V-B:GLU:543:C:9873, V-B:TYR:484:CE1:9316, H-B:LYS:547:NZ:9922, V-B:LYS:547:CE:9921, V-A:GLU:543:CA:4904, H-A:GLU:543:O:4903, V-B:TYR:484:CG:9313, V-B:TYR:484:CB:9312, V-B:GLY:544:CA:9885, V-A:GLY:544:CA:4914, V-B:TYR:484:C:9308, V-B:TYR:484:CA:9310"]

$$$$
4ck_Grossjean_2025
     RDKit          3D

 33 35  0  0  0  0  0  0  0  0999 V2000
  125.5530  123.6260   62.1320 C   0  0  0  0  0  0  0  0  0  0  0  0
  126.7330  122.9330   61.7560 O   0  0  0  0  0  0  0  0  0  0  0  0
  127.9020  123.7390   61.8060 C   0  0  0  0  0  0  0  0  0  0  0  0
  128.4670  123.7130   63.2320 C   0  0  0  0  0  0  0  0  0  0  0  0
  129.8680  123.4820   63.1720 O   0  0  0  0  0  0  0  0  0  0  0  0
  130.2300  122.1290   63.4130 C   0  0  0  0  0  0  0  0  0  0  0  0
  130.4820  121.4300   62.0710 C   0  0  0  0  0  0  0  0  0  0  0  0
  131.1920  122.3180   61.2190 O   0  0  0  0  0  0  0  0  0  0  0  0
  132.5960  122.0900   61.1920 C   0  0  0  0  0  0  0  0  0  0  0  0
  133.3290  123.3230   61.7420 C   0  0  0  0  0  0  0  0  0  0  0  0
  132.4290  124.2200   62.4680 N   0  0  0  0  0  0  0  0  0  0  0  0
  132.7540  124.9620   63.5460 C   0  0  0  0  0  0  0  0  0  0  0  0
  133.8900  124.9780   64.0250 O   0  0  0  0  0  0  0  0  0  0  0  0
  131.6740  125.7670   64.1180 C   0  0  0  0  0  0  0  0  0  0  0  0
  130.8290  126.9470   63.1200 S   0  0  0  0  0  0  0  0  0  0  0  0
  129.7650  127.3670   64.4410 C   0  0  0  0  0  0  0  0  0  0  0  0
  128.8140  128.2860   64.3030 N   0  0  0  0  0  0  0  0  0  0  0  0
  128.0360  128.5460   65.3860 C   0  0  0  0  0  0  0  0  0  0  0  0
  126.9610  129.5760   65.1910 C   0  0  0  0  0  0  0  0  0  0  0  0
  127.2830  130.8920   64.8250 C   0  0  0  0  0  0  0  0  0  0  0  0
  126.2900  131.8530   64.6450 C   0  0  0  0  0  0  0  0  0  0  0  0
  124.9550  131.5080   64.8290 C   0  0  0  0  0  0  0  0  0  0  0  0
  124.6080  130.2100   65.1880 C   0  0  0  0  0  0  0  0  0  0  0  0
  125.6040  129.2520   65.3650 C   0  0  0  0  0  0  0  0  0  0  0  0
  128.2120  127.8750   66.6000 C   0  0  0  0  0  0  0  0  0  0  0  0
  129.2140  126.9040   66.7580 C   0  0  0  0  0  0  0  0  0  0  0  0
  129.3540  126.2090   68.1180 C   0  0  0  0  0  0  0  0  0  0  0  0
  128.2690  126.3320   68.8830 F   0  0  0  0  0  0  0  0  0  0  0  0
  129.5710  124.9060   67.9390 F   0  0  0  0  0  0  0  0  0  0  0  0
  130.3780  126.7370   68.7890 F   0  0  0  0  0  0  0  0  0  0  0  0
  130.0360  126.6250   65.6290 C   0  0  0  0  0  0  0  0  0  0  0  0
  131.1310  125.7100   65.4100 C   0  0  0  0  0  0  0  0  0  0  0  0
  131.5990  124.8650   66.3840 N   0  0  0  0  0  0  0  0  0  0  0  0
  1  2  1  0
  2  3  1  0
  3  4  1  0
  4  5  1  0
  5  6  1  0
  6  7  1  0
  7  8  1  0
  8  9  1  0
  9 10  1  0
 10 11  1  0
 11 12  1  0
 12 13  2  0
 12 14  1  0
 14 15  1  0
 15 16  1  0
 16 17  2  0
 17 18  1  0
 18 19  1  0
 19 20  2  0
 20 21  1  0
 21 22  2  0
 22 23  1  0
 23 24  2  0
 18 25  2  0
 25 26  1  0
 26 27  1  0
 27 28  1  0
 27 29  1  0
 27 30  1  0
 26 31  2  0
 31 32  1  0
 32 33  1  0
 32 14  2  0
 31 16  1  0
 24 19  1  0
M  END
>  <Binding energies>  (59) 
[-5.45]

>  <Ligand effiencies>  (59) 
[-0.1513888888888889]

>  <Interactions>  (59) 
["V-B:HIS:456:CE1:9041, V-B:GLU:543:CD:9879, V-A:LEU:475:CD2:4258, V-A:TYR:484:CZ:4346, V-A:GLU:543:CD:4908, V-A:ILE:369:CD1:3238, V-B:GLY:454:CA:9020, V-A:GLU:543:CG:4907, V-B:LEU:475:CD1:9229, V-A:HIS:456:CE1:4069, V-A:ILE:369:CG2:3236, V-B:ALA:541:CB:9863, V-B:GLU:543:CG:9878, V-B:GLU:543:CB:9877, H-A:TYR:484:OH:4347, V-B:ARG:545:CZ:9897, H-B:ALA:541:N:9862, H-A:GLY:454:N:4049, H-A:ARG:545:NH1:4927, V-B:ASN:362:CB:8147, V-A:TYR:484:CE1:4344, V-B:GLU:543:CA:9875"]

$$$$
4dd_Grossjean_2025
     RDKit          3D

 26 29  0  0  0  0  0  0  0  0999 V2000
  133.8850  125.4950   64.0800 C   0  0  0  0  0  0  0  0  0  0  0  0
  132.6960  124.5480   64.1490 C   0  0  0  0  0  0  0  0  0  0  0  0
  132.6130  123.5230   63.2000 C   0  0  0  0  0  0  0  0  0  0  0  0
  131.5440  122.6180   63.2100 C   0  0  0  0  0  0  0  0  0  0  0  0
  131.4260  121.5140   62.2010 C   0  0  0  0  0  0  0  0  0  0  0  0
  132.5250  121.1400   61.4110 C   0  0  0  0  0  0  0  0  0  0  0  0
  132.4230  120.1140   60.4750 C   0  0  0  0  0  0  0  0  0  0  0  0
  131.2140  119.4450   60.3150 C   0  0  0  0  0  0  0  0  0  0  0  0
  130.1100  119.7930   61.0850 C   0  0  0  0  0  0  0  0  0  0  0  0
  130.2170  120.8180   62.0220 C   0  0  0  0  0  0  0  0  0  0  0  0
  130.5410  122.7000   64.1270 N   0  0  0  0  0  0  0  0  0  0  0  0
  130.6230  123.6710   65.0350 C   0  0  0  0  0  0  0  0  0  0  0  0
  129.4140  123.8810   66.2810 S   0  0  0  0  0  0  0  0  0  0  0  0
  130.2760  125.2680   66.9500 C   0  0  0  0  0  0  0  0  0  0  0  0
  129.7560  125.9660   68.1290 C   0  0  0  0  0  0  0  0  0  0  0  0
  128.9590  125.4100   68.8860 O   0  0  0  0  0  0  0  0  0  0  0  0
  130.2210  127.2260   68.3090 N   0  0  0  0  0  0  0  0  0  0  0  0
  129.8870  128.1720   69.2950 C   0  0  0  0  0  0  0  0  0  0  0  0
  130.5340  128.0260   70.5260 C   0  0  0  0  0  0  0  0  0  0  0  0
  130.2830  128.9210   71.5620 C   0  0  0  0  0  0  0  0  0  0  0  0
  129.3870  129.9690   71.3660 C   0  0  0  0  0  0  0  0  0  0  0  0
  128.7450  130.1340   70.1410 C   0  0  0  0  0  0  0  0  0  0  0  0
  128.9950  129.2400   69.1030 C   0  0  0  0  0  0  0  0  0  0  0  0
  131.4420  125.5390   66.2190 C   0  0  0  0  0  0  0  0  0  0  0  0
  132.3060  126.5660   66.5110 N   0  0  0  0  0  0  0  0  0  0  0  0
  131.6650  124.6380   65.1190 C   0  0  0  0  0  0  0  0  0  0  0  0
  1  2  1  0
  2  3  2  0
  3  4  1  0
  4  5  1  0
  5  6  2  0
  6  7  1  0
  7  8  2  0
  8  9  1  0
  9 10  2  0
  4 11  2  0
 11 12  1  0
 12 13  1  0
 13 14  1  0
 14 15  1  0
 15 16  2  0
 15 17  1  0
 17 18  1  0
 18 19  2  0
 19 20  1  0
 20 21  2  0
 21 22  1  0
 22 23  2  0
 14 24  2  0
 24 25  1  0
 24 26  1  0
 26  2  1  0
 10  5  1  0
 26 12  2  0
 23 18  1  0
M  END
>  <Binding energies>  (60) 
[-7.46]

>  <Ligand effiencies>  (60) 
[-0.25724137931034485]

>  <Interactions>  (60) 
["V-B:HIS:456:CE1:9041, V-A:ARG:545:CZ:4926, V-B:GLU:543:CD:9879, V-A:LEU:475:CD2:4258, V-A:TYR:484:CZ:4346, V-A:GLU:543:CD:4908, V-A:GLU:543:CG:4907, V-A:GLY:453:CA:4043, V-A:HIS:456:CE1:4069, V-B:TYR:539:CD2:9845, V-A:GLU:543:C:4902, V-A:ILE:369:CG2:3236, V-A:GLU:543:CB:4906, V-B:TYR:539:CE2:9847, V-B:ALA:541:CB:9863, V-A:ARG:545:CG:4922, V-B:GLU:543:CG:9878, V-B:GLU:543:CB:9877, V-B:TYR:484:CE1:9316, V-A:TRP:381:CZ2:3369, V-A:TRP:381:CH2:3371, V-A:GLU:543:CA:4904, V-A:ARG:545:CD:4923, H-A:GLU:543:OE1:4909, H-A:GLU:543:OE2:4910, V-A:TYR:484:CE1:4344, V-B:GLU:543:CA:9875, V-A:PRO:482:CB:4325, V-A:PRO:482:CG:4326, V-A:TRP:381:CZ3:3370"]

$$$$
4dg_Grossjean_2025
     RDKit          3D

 27 30  0  0  0  0  0  0  0  0999 V2000
  133.9350  125.5000   64.0630 C   0  0  0  0  0  0  0  0  0  0  0  0
  132.7340  124.5670   64.1200 C   0  0  0  0  0  0  0  0  0  0  0  0
  132.6480  123.5440   63.1680 C   0  0  0  0  0  0  0  0  0  0  0  0
  131.5680  122.6520   63.1670 C   0  0  0  0  0  0  0  0  0  0  0  0
  131.4490  121.5430   62.1600 C   0  0  0  0  0  0  0  0  0  0  0  0
  132.5570  121.1380   61.3980 C   0  0  0  0  0  0  0  0  0  0  0  0
  132.4510  120.1140   60.4600 C   0  0  0  0  0  0  0  0  0  0  0  0
  131.2300  119.4760   60.2700 C   0  0  0  0  0  0  0  0  0  0  0  0
  130.1140  119.8590   61.0080 C   0  0  0  0  0  0  0  0  0  0  0  0
  130.2250  120.8840   61.9430 C   0  0  0  0  0  0  0  0  0  0  0  0
  130.5740  122.7270   64.0920 N   0  0  0  0  0  0  0  0  0  0  0  0
  130.6540  123.7010   64.9980 C   0  0  0  0  0  0  0  0  0  0  0  0
  129.4410  123.9150   66.2390 S   0  0  0  0  0  0  0  0  0  0  0  0
  130.3030  125.3010   66.9050 C   0  0  0  0  0  0  0  0  0  0  0  0
  129.7470  126.0350   68.0400 C   0  0  0  0  0  0  0  0  0  0  0  0
  129.0270  125.4810   68.8720 O   0  0  0  0  0  0  0  0  0  0  0  0
  130.0420  127.3510   68.0910 N   0  0  0  0  0  0  0  0  0  0  0  0
  129.6150  128.2740   69.1430 C   0  0  0  0  0  0  0  0  0  0  0  0
  130.1850  127.9320   70.5150 C   0  0  0  0  0  0  0  0  0  0  0  0
  129.3770  127.3000   71.4650 C   0  0  0  0  0  0  0  0  0  0  0  0
  129.9020  126.9590   72.7080 C   0  0  0  0  0  0  0  0  0  0  0  0
  131.2370  127.2400   72.9940 C   0  0  0  0  0  0  0  0  0  0  0  0
  132.0520  127.8540   72.0460 C   0  0  0  0  0  0  0  0  0  0  0  0
  131.5270  128.1950   70.8020 C   0  0  0  0  0  0  0  0  0  0  0  0
  131.4670  125.5770   66.1720 C   0  0  0  0  0  0  0  0  0  0  0  0
  132.3230  126.6100   66.4600 N   0  0  0  0  0  0  0  0  0  0  0  0
  131.6970  124.6670   65.0830 C   0  0  0  0  0  0  0  0  0  0  0  0
  1  2  1  0
  2  3  2  0
  3  4  1  0
  4  5  1  0
  5  6  2  0
  6  7  1  0
  7  8  2  0
  8  9  1  0
  9 10  2  0
  4 11  2  0
 11 12  1  0
 12 13  1  0
 13 14  1  0
 14 15  1  0
 15 16  2  0
 15 17  1  0
 17 18  1  0
 18 19  1  0
 19 20  2  0
 20 21  1  0
 21 22  2  0
 22 23  1  0
 23 24  2  0
 14 25  2  0
 25 26  1  0
 25 27  1  0
 27  2  1  0
 10  5  1  0
 27 12  2  0
 24 19  1  0
M  END
>  <Binding energies>  (61) 
[-7.75]

>  <Ligand effiencies>  (61) 
[-0.25833333333333336]

>  <Interactions>  (61) 
["V-B:HIS:456:CE1:9041, V-A:ARG:545:CZ:4926, V-B:GLU:543:CD:9879, V-A:LEU:475:CD2:4258, V-A:TYR:484:CZ:4346, V-A:GLU:543:CD:4908, V-A:GLU:543:CG:4907, V-A:GLY:453:CA:4043, V-A:HIS:456:CE1:4069, V-B:TYR:539:CD2:9845, V-A:HIS:456:CG:4065, V-A:ILE:369:CG2:3236, V-A:GLU:543:CB:4906, V-B:TYR:539:CE2:9847, V-A:GLY:544:C:4912, V-A:HIS:456:CD2:4067, V-B:ALA:541:CB:9863, V-A:ARG:545:CG:4922, V-B:GLU:543:CG:9878, V-B:GLU:543:CB:9877, V-A:ARG:545:CA:4919, V-A:TRP:381:CZ2:3369, V-A:TRP:381:CH2:3371, V-A:ARG:545:CD:4923, H-A:GLU:543:OE1:4909, H-A:GLU:543:OE2:4910, V-A:TYR:484:CE1:4344, V-B:GLU:543:CA:9875, V-A:PRO:482:CB:4325, V-A:TRP:381:CZ3:3370"]

$$$$
4dj_Grossjean_2025
     RDKit          3D

 25 28  0  0  0  0  0  0  0  0999 V2000
  129.3090  127.6220   69.4910 C   0  0  0  0  0  0  0  0  0  0  0  0
  129.1930  127.3740   70.9870 C   0  0  0  0  0  0  0  0  0  0  0  0
  129.2570  126.0520   71.4430 C   0  0  0  0  0  0  0  0  0  0  0  0
  129.1550  125.7550   72.8070 C   0  0  0  0  0  0  0  0  0  0  0  0
  129.2250  124.3470   73.3260 C   0  0  0  0  0  0  0  0  0  0  0  0
  128.6150  123.2910   72.6280 C   0  0  0  0  0  0  0  0  0  0  0  0
  128.6760  121.9840   73.1030 C   0  0  0  0  0  0  0  0  0  0  0  0
  129.3470  121.7130   74.2910 C   0  0  0  0  0  0  0  0  0  0  0  0
  129.9560  122.7390   75.0050 C   0  0  0  0  0  0  0  0  0  0  0  0
  129.8940  124.0440   74.5260 C   0  0  0  0  0  0  0  0  0  0  0  0
  129.0080  126.7300   73.7450 N   0  0  0  0  0  0  0  0  0  0  0  0
  128.9470  127.9890   73.3130 C   0  0  0  0  0  0  0  0  0  0  0  0
  128.7520  129.3380   74.4090 S   0  0  0  0  0  0  0  0  0  0  0  0
  128.7770  130.4890   73.0710 C   0  0  0  0  0  0  0  0  0  0  0  0
  128.6370  131.9230   73.3260 C   0  0  0  0  0  0  0  0  0  0  0  0
  127.5350  132.4110   73.5930 O   0  0  0  0  0  0  0  0  0  0  0  0
  129.7800  132.6470   73.2390 N   0  0  0  0  0  0  0  0  0  0  0  0
  129.9200  134.0140   73.4310 C   0  0  0  0  0  0  0  0  0  0  0  0
  129.4260  134.7470   74.4060 N   0  0  0  0  0  0  0  0  0  0  0  0
  129.7600  136.0170   74.2740 C   0  0  0  0  0  0  0  0  0  0  0  0
  130.5440  136.3360   73.1700 C   0  0  0  0  0  0  0  0  0  0  0  0
  130.8560  134.8870   72.2610 S   0  0  0  0  0  0  0  0  0  0  0  0
  128.9270  129.8310   71.8410 C   0  0  0  0  0  0  0  0  0  0  0  0
  128.9760  130.4770   70.6310 N   0  0  0  0  0  0  0  0  0  0  0  0
  129.0290  128.4010   71.9520 C   0  0  0  0  0  0  0  0  0  0  0  0
  1  2  1  0
  2  3  2  0
  3  4  1  0
  4  5  1  0
  5  6  2  0
  6  7  1  0
  7  8  2  0
  8  9  1  0
  9 10  2  0
  4 11  2  0
 11 12  1  0
 12 13  1  0
 13 14  1  0
 14 15  1  0
 15 16  2  0
 15 17  1  0
 17 18  1  0
 18 19  2  0
 19 20  1  0
 20 21  2  0
 21 22  1  0
 14 23  2  0
 23 24  1  0
 23 25  1  0
 25  2  1  0
 10  5  1  0
 25 12  2  0
 22 18  1  0
M  END
>  <Binding energies>  (62) 
[-6.96]

>  <Ligand effiencies>  (62) 
[-0.24857142857142858]

>  <Interactions>  (62) 
["V-B:HIS:456:CE1:9041, V-A:HIS:456:CE1:4069, V-A:GLU:543:C:4902, V-B:HIS:456:CD2:9039, V-B:HIS:456:CG:9037, V-A:GLU:543:CB:4906, V-A:HIS:456:CD2:4067, V-B:TYR:484:CD1:9314, V-B:GLU:543:C:9873, V-B:TYR:484:CE1:9316, H-B:LYS:547:NZ:9922, V-B:LYS:547:CE:9921, V-A:GLU:543:CA:4904, H-A:GLU:543:O:4903, V-B:TYR:484:CG:9313, V-B:TYR:484:CB:9312, V-A:GLY:544:CA:4914, V-B:TYR:484:C:9308, V-B:TYR:484:CA:9310"]

$$$$
4ea_Grossjean_2025
     RDKit          3D

 31 34  0  0  0  0  0  0  0  0999 V2000
  128.8760  130.5350   72.4540 C   0  0  0  0  0  0  0  0  0  0  0  0
  129.5620  129.9930   73.7100 C   0  0  0  0  0  0  0  0  0  0  0  0
  130.1280  128.7200   73.4270 O   0  0  0  0  0  0  0  0  0  0  0  0
  129.3540  127.6820   73.0170 C   0  0  0  0  0  0  0  0  0  0  0  0
  128.5930  127.0640   73.7690 O   0  0  0  0  0  0  0  0  0  0  0  0
  129.5150  127.3620   71.5590 C   0  0  0  0  0  0  0  0  0  0  0  0
  130.4920  128.0360   70.8160 C   0  0  0  0  0  0  0  0  0  0  0  0
  130.6670  127.7620   69.4620 C   0  0  0  0  0  0  0  0  0  0  0  0
  129.8690  126.8110   68.8240 C   0  0  0  0  0  0  0  0  0  0  0  0
  130.1350  126.6180   67.4550 N   0  0  0  0  0  0  0  0  0  0  0  0
  130.1780  125.4790   66.7210 C   0  0  0  0  0  0  0  0  0  0  0  0
  129.9750  124.3530   67.1760 O   0  0  0  0  0  0  0  0  0  0  0  0
  130.4900  125.6630   65.3010 C   0  0  0  0  0  0  0  0  0  0  0  0
  130.0980  127.1810   64.4890 S   0  0  0  0  0  0  0  0  0  0  0  0
  130.7470  126.5950   62.9750 C   0  0  0  0  0  0  0  0  0  0  0  0
  130.7450  127.3440   61.8710 N   0  0  0  0  0  0  0  0  0  0  0  0
  131.2770  126.7720   60.7630 C   0  0  0  0  0  0  0  0  0  0  0  0
  131.2650  127.6410   59.5180 C   0  0  0  0  0  0  0  0  0  0  0  0
  131.8060  125.4840   60.7330 C   0  0  0  0  0  0  0  0  0  0  0  0
  131.8060  124.7020   61.8930 C   0  0  0  0  0  0  0  0  0  0  0  0
  132.3710  123.3350   61.8460 C   0  0  0  0  0  0  0  0  0  0  0  0
  133.5780  123.0500   62.4930 C   0  0  0  0  0  0  0  0  0  0  0  0
  134.1090  121.7640   62.4510 C   0  0  0  0  0  0  0  0  0  0  0  0
  133.4340  120.7620   61.7570 C   0  0  0  0  0  0  0  0  0  0  0  0
  132.2340  121.0350   61.1050 C   0  0  0  0  0  0  0  0  0  0  0  0
  131.7040  122.3220   61.1480 C   0  0  0  0  0  0  0  0  0  0  0  0
  131.2560  125.2650   63.0780 C   0  0  0  0  0  0  0  0  0  0  0  0
  131.0970  124.7570   64.4160 C   0  0  0  0  0  0  0  0  0  0  0  0
  131.5070  123.4990   64.7740 N   0  0  0  0  0  0  0  0  0  0  0  0
  128.8870  126.1320   69.5610 C   0  0  0  0  0  0  0  0  0  0  0  0
  128.7140  126.4070   70.9150 C   0  0  0  0  0  0  0  0  0  0  0  0
  1  2  1  0
  2  3  1  0
  3  4  1  0
  4  5  2  0
  4  6  1  0
  6  7  2  0
  7  8  1  0
  8  9  2  0
  9 10  1  0
 10 11  1  0
 11 12  2  0
 11 13  1  0
 13 14  1  0
 14 15  1  0
 15 16  2  0
 16 17  1  0
 17 18  1  0
 17 19  2  0
 19 20  1  0
 20 21  1  0
 21 22  2  0
 22 23  1  0
 23 24  2  0
 24 25  1  0
 25 26  2  0
 20 27  2  0
 27 28  1  0
 28 29  1  0
  9 30  1  0
 30 31  2  0
 31  6  1  0
 28 13  2  0
 27 15  1  0
 26 21  1  0
M  END
>  <Binding energies>  (63) 
[-7.47]

>  <Ligand effiencies>  (63) 
[-0.21970588235294117]

>  <Interactions>  (63) 
["V-B:HIS:456:CE1:9041, V-A:ASP:366:CG:3212, V-A:LEU:475:CD2:4258, V-A:TYR:484:CZ:4346, V-A:GLU:543:CD:4908, V-A:ILE:369:CD1:3238, H-A:ARG:545:NH2:4928, V-A:GLY:454:CA:4048, V-A:HIS:456:CE1:4069, V-A:ILE:369:CG2:3236, V-B:HIS:456:CG:9037, V-A:GLU:543:CB:4906, V-B:TYR:539:CE2:9847, V-A:ASP:366:CB:3211, V-B:GLU:543:CG:9878, V-B:GLU:543:CB:9877, H-B:LYS:547:NZ:9922, H-A:LYS:547:NZ:4951, H-A:TYR:484:OH:4347, V-A:LYS:547:CE:4950, H-A:GLU:543:OE2:4910"]

$$$$
4eb_Grossjean_2025
     RDKit          3D

 30 33  0  0  0  0  0  0  0  0999 V2000
  129.7210  129.9850   73.3480 C   0  0  0  0  0  0  0  0  0  0  0  0
  130.1490  128.6340   73.4440 O   0  0  0  0  0  0  0  0  0  0  0  0
  129.3520  127.6180   73.0210 C   0  0  0  0  0  0  0  0  0  0  0  0
  128.5730  127.0120   73.7610 O   0  0  0  0  0  0  0  0  0  0  0  0
  129.5150  127.3050   71.5610 C   0  0  0  0  0  0  0  0  0  0  0  0
  130.4660  128.0110   70.8130 C   0  0  0  0  0  0  0  0  0  0  0  0
  130.6410  127.7450   69.4580 C   0  0  0  0  0  0  0  0  0  0  0  0
  129.8720  126.7690   68.8230 C   0  0  0  0  0  0  0  0  0  0  0  0
  130.1350  126.5850   67.4520 N   0  0  0  0  0  0  0  0  0  0  0  0
  130.1530  125.4530   66.7050 C   0  0  0  0  0  0  0  0  0  0  0  0
  129.9230  124.3270   67.1470 O   0  0  0  0  0  0  0  0  0  0  0  0
  130.4710  125.6450   65.2880 C   0  0  0  0  0  0  0  0  0  0  0  0
  130.0730  127.1630   64.4810 S   0  0  0  0  0  0  0  0  0  0  0  0
  130.7340  126.5880   62.9670 C   0  0  0  0  0  0  0  0  0  0  0  0
  130.7330  127.3420   61.8660 N   0  0  0  0  0  0  0  0  0  0  0  0
  131.2740  126.7790   60.7590 C   0  0  0  0  0  0  0  0  0  0  0  0
  131.2630  127.6540   59.5180 C   0  0  0  0  0  0  0  0  0  0  0  0
  131.8110  125.4940   60.7260 C   0  0  0  0  0  0  0  0  0  0  0  0
  131.8100  124.7070   61.8840 C   0  0  0  0  0  0  0  0  0  0  0  0
  132.3850  123.3430   61.8330 C   0  0  0  0  0  0  0  0  0  0  0  0
  131.7210  122.3270   61.1390 C   0  0  0  0  0  0  0  0  0  0  0  0
  132.2620  121.0440   61.0890 C   0  0  0  0  0  0  0  0  0  0  0  0
  133.4660  120.7780   61.7370 C   0  0  0  0  0  0  0  0  0  0  0  0
  134.1330  121.7840   62.4340 C   0  0  0  0  0  0  0  0  0  0  0  0
  133.5910  123.0650   62.4820 C   0  0  0  0  0  0  0  0  0  0  0  0
  131.2510  125.2620   63.0670 C   0  0  0  0  0  0  0  0  0  0  0  0
  131.0880  124.7480   64.4020 C   0  0  0  0  0  0  0  0  0  0  0  0
  131.5050  123.4900   64.7580 N   0  0  0  0  0  0  0  0  0  0  0  0
  128.9170  126.0560   69.5650 C   0  0  0  0  0  0  0  0  0  0  0  0
  128.7430  126.3240   70.9200 C   0  0  0  0  0  0  0  0  0  0  0  0
  1  2  1  0
  2  3  1  0
  3  4  2  0
  3  5  1  0
  5  6  2  0
  6  7  1  0
  7  8  2  0
  8  9  1  0
  9 10  1  0
 10 11  2  0
 10 12  1  0
 12 13  1  0
 13 14  1  0
 14 15  2  0
 15 16  1  0
 16 17  1  0
 16 18  2  0
 18 19  1  0
 19 20  1  0
 20 21  2  0
 21 22  1  0
 22 23  2  0
 23 24  1  0
 24 25  2  0
 19 26  2  0
 26 27  1  0
 27 28  1  0
  8 29  1  0
 29 30  2  0
 30  5  1  0
 27 12  2  0
 26 14  1  0
 25 20  1  0
M  END
>  <Binding energies>  (64) 
[-7.4]

>  <Ligand effiencies>  (64) 
[-0.22424242424242424]

>  <Interactions>  (64) 
["V-B:HIS:456:CE1:9041, V-A:ASP:366:CG:3212, V-A:LEU:475:CD2:4258, V-A:TYR:484:CZ:4346, V-A:GLU:543:CD:4908, V-A:ILE:369:CD1:3238, V-A:GLY:454:CA:4048, V-A:HIS:456:CE1:4069, V-A:ILE:369:CG2:3236, V-A:GLU:543:CB:4906, V-B:TYR:539:CE2:9847, V-A:ASP:366:CB:3211, V-B:GLU:543:CG:9878, V-B:GLU:543:CB:9877, H-B:LYS:547:NZ:9922, H-A:LYS:547:NZ:4951, H-A:TYR:484:OH:4347, H-A:GLU:543:OE2:4910, V-A:ILE:369:CG1:3237"]

$$$$
8b_Ghoteimi_2023
     RDKit          3D

 34 38  0  0  0  0  0  0  0  0999 V2000
  129.0850  129.3040   75.3590 C   0  0  0  0  0  0  0  0  0  0  0  0
  130.1180  128.8670   74.4820 O   0  0  0  0  0  0  0  0  0  0  0  0
  129.8580  128.7780   73.1280 C   0  0  0  0  0  0  0  0  0  0  0  0
  129.8340  127.4970   72.5810 C   0  0  0  0  0  0  0  0  0  0  0  0
  129.5820  127.3110   71.2260 C   0  0  0  0  0  0  0  0  0  0  0  0
  129.3470  128.4040   70.3790 C   0  0  0  0  0  0  0  0  0  0  0  0
  129.0770  128.2100   68.9210 C   0  0  0  0  0  0  0  0  0  0  0  0
  128.2690  129.0940   68.1970 C   0  0  0  0  0  0  0  0  0  0  0  0
  128.0330  128.8900   66.8340 C   0  0  0  0  0  0  0  0  0  0  0  0
  127.1650  129.8390   66.0990 C   0  0  0  0  0  0  0  0  0  0  0  0
  125.7880  129.6210   66.0270 C   0  0  0  0  0  0  0  0  0  0  0  0
  124.9730  130.5200   65.3430 C   0  0  0  0  0  0  0  0  0  0  0  0
  125.5200  131.6430   64.7220 C   0  0  0  0  0  0  0  0  0  0  0  0
  124.6350  132.4800   64.0690 O   0  0  0  0  0  0  0  0  0  0  0  0
  123.9280  131.9930   62.9330 C   0  0  0  0  0  0  0  0  0  0  0  0
  126.9050  131.8570   64.7930 C   0  0  0  0  0  0  0  0  0  0  0  0
  127.7200  130.9590   65.4770 C   0  0  0  0  0  0  0  0  0  0  0  0
  128.6420  127.7680   66.2100 C   0  0  0  0  0  0  0  0  0  0  0  0
  128.6200  127.2710   64.8590 C   0  0  0  0  0  0  0  0  0  0  0  0
  127.9180  127.8940   63.8590 N   0  0  0  0  0  0  0  0  0  0  0  0
  129.3790  126.1050   64.6700 C   0  0  0  0  0  0  0  0  0  0  0  0
  129.5820  125.3400   63.4380 C   0  0  0  0  0  0  0  0  0  0  0  0
  130.5800  125.5260   62.7390 O   0  0  0  0  0  0  0  0  0  0  0  0
  128.6080  124.4420   63.1440 N   0  0  0  0  0  0  0  0  0  0  0  0
  128.5470  123.5890   62.0510 C   0  0  0  0  0  0  0  0  0  0  0  0
  129.6190  123.3860   61.1820 C   0  0  0  0  0  0  0  0  0  0  0  0
  129.1570  122.4890   60.2470 C   0  0  0  0  0  0  0  0  0  0  0  0
  127.8760  122.1640   60.5390 O   0  0  0  0  0  0  0  0  0  0  0  0
  127.5000  122.8660   61.6850 N   0  0  0  0  0  0  0  0  0  0  0  0
  130.1450  125.5930   66.1750 S   0  0  0  0  0  0  0  0  0  0  0  0
  129.4470  126.9400   67.0440 C   0  0  0  0  0  0  0  0  0  0  0  0
  129.6710  127.1310   68.3440 N   0  0  0  0  0  0  0  0  0  0  0  0
  129.3700  129.6900   70.9360 C   0  0  0  0  0  0  0  0  0  0  0  0
  129.6230  129.8800   72.2920 C   0  0  0  0  0  0  0  0  0  0  0  0
  1  2  1  0
  2  3  1  0
  3  4  2  0
  4  5  1  0
  5  6  2  0
  6  7  1  0
  7  8  2  0
  8  9  1  0
  9 10  1  0
 10 11  2  0
 11 12  1  0
 12 13  2  0
 13 14  1  0
 14 15  1  0
 13 16  1  0
 16 17  2  0
  9 18  2  0
 18 19  1  0
 19 20  1  0
 19 21  2  0
 21 22  1  0
 22 23  2  0
 22 24  1  0
 24 25  1  0
 25 26  1  0
 26 27  2  0
 27 28  1  0
 28 29  1  0
 21 30  1  0
 30 31  1  0
 31 32  2  0
  6 33  1  0
 33 34  2  0
 34  3  1  0
 32  7  1  0
 17 10  1  0
 31 18  1  0
 29 25  2  0
M  END
>  <Binding energies>  (65) 
[-8.53]

>  <Ligand effiencies>  (65) 
[-0.23054054054054052]

>  <Interactions>  (65) 
["V-B:HIS:456:CE1:9041, V-B:GLU:543:CD:9879, V-A:GLU:543:CD:4908, V-B:GLY:454:CA:9020, V-B:ILE:369:CD1:8210, V-A:GLU:543:CG:4907, V-B:LEU:475:CD1:9229, V-A:HIS:456:CE1:4069, V-B:TYR:539:CD2:9845, V-A:GLU:543:C:4902, V-A:GLU:543:CB:4906, V-B:TYR:539:CE2:9847, V-B:ALA:541:CB:9863, V-B:GLU:543:CG:9878, H-B:GLY:454:N:9021, H-B:GLU:543:OE2:9881, H-B:GLU:543:OE1:9880, H-A:LYS:547:NZ:4951, V-A:LYS:547:CE:4950, H-B:ALA:541:N:9862"]

$$$$
9d_Ghoteimi_2023
     RDKit          3D

 38 43  0  0  0  0  0  0  0  0999 V2000
  133.5790  125.1390   65.3230 C   0  0  0  0  0  0  0  0  0  0  0  0
  133.1160  124.0120   64.5930 O   0  0  0  0  0  0  0  0  0  0  0  0
  131.7870  123.7920   64.4210 C   0  0  0  0  0  0  0  0  0  0  0  0
  131.3080  122.7150   64.0550 O   0  0  0  0  0  0  0  0  0  0  0  0
  130.9630  124.9850   64.7120 C   0  0  0  0  0  0  0  0  0  0  0  0
  130.4540  126.0440   63.3960 S   0  0  0  0  0  0  0  0  0  0  0  0
  129.5840  127.0740   64.5080 C   0  0  0  0  0  0  0  0  0  0  0  0
  128.8950  128.1320   64.0850 N   0  0  0  0  0  0  0  0  0  0  0  0
  128.2390  128.8590   65.0270 C   0  0  0  0  0  0  0  0  0  0  0  0
  127.4510  130.0270   64.5260 C   0  0  0  0  0  0  0  0  0  0  0  0
  126.1100  129.8730   64.1600 C   0  0  0  0  0  0  0  0  0  0  0  0
  125.3680  130.9540   63.6900 C   0  0  0  0  0  0  0  0  0  0  0  0
  125.9380  132.2320   63.5810 C   0  0  0  0  0  0  0  0  0  0  0  0
  125.2110  133.3240   63.0940 N   0  0  0  0  0  0  0  0  0  0  0  0
  125.8550  134.3750   62.2810 C   0  0  0  0  0  0  0  0  0  0  0  0
  125.0060  135.6540   62.1290 C   0  0  0  0  0  0  0  0  0  0  0  0
  123.7250  135.3290   61.6160 O   0  0  0  0  0  0  0  0  0  0  0  0
  123.0280  134.4480   62.4820 C   0  0  0  0  0  0  0  0  0  0  0  0
  123.8150  133.1310   62.6480 C   0  0  0  0  0  0  0  0  0  0  0  0
  127.2880  132.3770   63.9350 C   0  0  0  0  0  0  0  0  0  0  0  0
  128.0300  131.2950   64.4020 C   0  0  0  0  0  0  0  0  0  0  0  0
  128.3010  128.5450   66.3880 C   0  0  0  0  0  0  0  0  0  0  0  0
  129.0400  127.4460   66.8390 C   0  0  0  0  0  0  0  0  0  0  0  0
  129.0950  127.1740   68.3000 C   0  0  0  0  0  0  0  0  0  0  0  0
  128.2870  126.1890   68.8730 C   0  0  0  0  0  0  0  0  0  0  0  0
  128.3560  125.9250   70.2380 C   0  0  0  0  0  0  0  0  0  0  0  0
  129.2480  126.6290   71.0640 C   0  0  0  0  0  0  0  0  0  0  0  0
  129.3290  126.3890   72.4380 N   0  0  0  0  0  0  0  0  0  0  0  0
  129.0700  125.0280   72.9450 C   0  0  0  0  0  0  0  0  0  0  0  0
  129.5660  124.8120   74.3910 C   0  0  0  0  0  0  0  0  0  0  0  0
  129.0010  125.7900   75.2510 O   0  0  0  0  0  0  0  0  0  0  0  0
  129.3570  127.1060   74.8540 C   0  0  0  0  0  0  0  0  0  0  0  0
  128.8510  127.3790   73.4220 C   0  0  0  0  0  0  0  0  0  0  0  0
  130.0530  127.6160   70.4770 C   0  0  0  0  0  0  0  0  0  0  0  0
  129.9820  127.8800   69.1130 C   0  0  0  0  0  0  0  0  0  0  0  0
  129.7000  126.6470   65.8650 C   0  0  0  0  0  0  0  0  0  0  0  0
  130.4790  125.4390   65.9450 C   0  0  0  0  0  0  0  0  0  0  0  0
  130.7070  124.7770   67.1250 N   0  0  0  0  0  0  0  0  0  0  0  0
  1  2  1  0
  2  3  1  0
  3  4  2  0
  3  5  1  0
  5  6  1  0
  6  7  1  0
  7  8  2  0
  8  9  1  0
  9 10  1  0
 10 11  2  0
 11 12  1  0
 12 13  2  0
 13 14  1  0
 14 15  1  0
 15 16  1  0
 16 17  1  0
 17 18  1  0
 18 19  1  0
 13 20  1  0
 20 21  2  0
  9 22  2  0
 22 23  1  0
 23 24  1  0
 24 25  2  0
 25 26  1  0
 26 27  2  0
 27 28  1  0
 28 29  1  0
 29 30  1  0
 30 31  1  0
 31 32  1  0
 32 33  1  0
 27 34  1  0
 34 35  2  0
 23 36  2  0
 36 37  1  0
 37 38  1  0
 37  5  2  0
 36  7  1  0
 21 10  1  0
 35 24  1  0
 19 14  1  0
 33 28  1  0
M  END
>  <Binding energies>  (66) 
[-8.53]

>  <Ligand effiencies>  (66) 
[-0.21325]

>  <Interactions>  (66) 
["V-B:HIS:456:CE1:9041, V-A:ARG:545:CZ:4926, V-B:GLU:543:CD:9879, V-A:TYR:484:CZ:4346, V-A:GLU:543:CD:4908, V-B:GLY:454:CA:9020, V-A:ALA:541:CB:4892, V-B:TRP:381:CZ2:8341, V-B:ILE:369:CD1:8210, V-A:GLU:543:CG:4907, V-B:LEU:475:CD1:9229, V-B:ILE:369:CG2:8208, V-B:TRP:381:CH2:8343, V-A:GLY:454:CA:4048, V-A:HIS:456:CE1:4069, V-B:HIS:456:CD2:9039, V-A:GLU:543:CB:4906, V-A:HIS:456:CD2:4067, V-B:GLU:543:C:9873, V-B:GLU:543:CG:9878, V-B:GLU:543:CB:9877, V-B:SER:385:C:8376, H-B:LYS:547:NZ:9922, V-B:LYS:547:CE:9921, H-A:TYR:484:OH:4347, H-A:GLY:454:N:4049, V-A:ARG:545:CD:4923, V-A:TYR:484:CE1:4344, H-A:HIS:456:NE2:4070, V-B:ILE:369:CG1:8209"]

$$$$
RR10_Rahimova_2017
     RDKit          3D

 34 38  0  0  0  0  0  0  0  0999 V2000
  127.2700  128.9670   58.0310 C   0  0  0  0  0  0  0  0  0  0  0  0
  128.3860  130.0180   57.9020 C   0  0  1  0  0  0  0  0  0  0  0  0
  127.8380  131.3870   57.4370 C   0  0  0  0  0  0  0  0  0  0  0  0
  128.9800  132.4170   57.2800 C   0  0  0  0  0  0  0  0  0  0  0  0
  129.7790  132.6090   58.5950 C   0  0  1  0  0  0  0  0  0  0  0  0
  128.9520  133.2660   59.6160 N   0  0  0  0  0  0  0  0  0  0  0  0
  129.2350  133.3260   60.9300 C   0  0  0  0  0  0  0  0  0  0  0  0
  130.2570  132.8390   61.4190 O   0  0  0  0  0  0  0  0  0  0  0  0
  128.2010  134.0310   61.8310 C   0  0  1  0  0  0  0  0  0  0  0  0
  128.0600  135.5120   61.3910 C   0  0  0  0  0  0  0  0  0  0  0  0
  126.9570  136.1980   62.2320 C   0  0  0  0  0  0  0  0  0  0  0  0
  125.6270  135.4100   62.2220 C   0  0  0  0  0  0  0  0  0  0  0  0
  125.8570  133.9870   62.5920 N   0  0  0  0  0  0  0  0  0  0  0  0
  124.3780  133.0620   62.9030 S   0  0  0  0  0  0  0  0  0  0  0  0
  123.9780  132.4070   61.6520 O   0  0  0  0  0  0  0  0  0  0  0  0
  123.4380  133.9390   63.6120 O   0  0  0  0  0  0  0  0  0  0  0  0
  124.8730  131.7590   64.0310 C   0  0  0  0  0  0  0  0  0  0  0  0
  124.0990  130.5970   64.1170 C   0  0  0  0  0  0  0  0  0  0  0  0
  124.4280  129.5460   64.9780 C   0  0  0  0  0  0  0  0  0  0  0  0
  125.5790  129.7110   65.7520 C   0  0  0  0  0  0  0  0  0  0  0  0
  126.2150  128.9350   66.6920 N   0  0  0  0  0  0  0  0  0  0  0  0
  127.3270  129.6240   67.1310 C   0  0  0  0  0  0  0  0  0  0  0  0
  128.2720  129.0970   68.1720 C   0  0  0  0  0  0  0  0  0  0  0  0
  128.6570  129.9020   69.2530 C   0  0  0  0  0  0  0  0  0  0  0  0
  129.5310  129.4140   70.2210 C   0  0  0  0  0  0  0  0  0  0  0  0
  130.0270  128.1180   70.1120 C   0  0  0  0  0  0  0  0  0  0  0  0
  129.6550  127.3060   69.0440 C   0  0  0  0  0  0  0  0  0  0  0  0
  128.7810  127.7950   68.0770 C   0  0  0  0  0  0  0  0  0  0  0  0
  127.4530  130.7880   66.5330 N   0  0  0  0  0  0  0  0  0  0  0  0
  126.3860  130.8720   65.6770 C   0  0  0  0  0  0  0  0  0  0  0  0
  126.0310  131.9090   64.8020 C   0  0  0  0  0  0  0  0  0  0  0  0
  126.8410  133.3000   61.7170 C   0  0  0  0  0  0  0  0  0  0  0  0
  130.3080  131.2240   59.0580 C   0  0  0  0  0  0  0  0  0  0  0  0
  129.1680  130.1940   59.2240 C   0  0  0  0  0  0  0  0  0  0  0  0
  2  1  1  1
  2  3  1  0
  3  4  1  0
  4  5  1  0
  5  6  1  1
  6  7  1  0
  7  8  2  0
  9  7  1  6
  9 10  1  0
 10 11  1  0
 11 12  1  0
 12 13  1  0
 13 14  1  0
 14 15  2  0
 14 16  2  0
 14 17  1  0
 17 18  2  0
 18 19  1  0
 19 20  2  0
 20 21  1  0
 21 22  1  0
 22 23  1  0
 23 24  2  0
 24 25  1  0
 25 26  2  0
 26 27  1  0
 27 28  2  0
 22 29  2  0
 29 30  1  0
 30 31  2  0
 13 32  1  0
  5 33  1  0
 33 34  1  0
 34  2  1  0
 32  9  1  0
 31 17  1  0
 30 20  1  0
 28 23  1  0
M  END
>  <Binding energies>  (67) 
[-9.27]

>  <Ligand effiencies>  (67) 
[-0.2575]

>  <Interactions>  (67) 
["V-B:HIS:456:CE1:9041, V-B:GLU:543:CD:9879, V-A:GLU:543:CD:4908, V-B:GLY:454:CA:9020, V-A:ALA:541:CB:4892, V-A:GLU:543:CG:4907, V-B:PRO:482:CB:9297, V-B:PRO:482:CG:9298, V-B:LEU:475:CD1:9229, V-A:TYR:539:CE2:4876, V-A:TYR:539:CD2:4874, V-A:HIS:456:CE1:4069, V-A:GLU:543:C:4902, V-A:GLU:543:CB:4906, V-B:TYR:484:CE1:9316, H-B:GLY:454:N:9021, H-B:GLU:543:OE2:9881, H-B:GLU:543:OE1:9880, V-A:PRO:540:C:4881, V-A:PRO:540:CA:4883, H-B:TYR:484:OH:9319, V-B:ARG:545:CZ:9897, V-A:GLU:543:CA:4904, V-A:TYR:539:C:4867, H-A:TYR:539:O:4868, H-A:ALA:541:N:4891, V-B:ARG:545:CD:9894, V-B:GLY:453:C:9013, V-A:PRO:540:N:4884, V-A:TYR:539:CZ:4877"]

$$$$
RR12_Rahimova_2017
     RDKit          3D

 26 28  0  0  0  0  0  0  0  0999 V2000
  127.5060  122.1350   57.5620 C   0  0  0  0  0  0  0  0  0  0  0  0
  128.0590  123.5650   57.5210 C   0  0  0  0  0  0  0  0  0  0  0  0
  128.7050  123.9880   58.8530 C   0  0  0  0  0  0  0  0  0  0  0  0
  127.8080  123.7150   59.9730 N   0  0  0  0  0  0  0  0  0  0  0  0
  128.1540  123.2880   61.2460 C   0  0  0  0  0  0  0  0  0  0  0  0
  129.5770  122.9800   61.6790 C   0  0  0  0  0  0  0  0  0  0  0  0
  130.2220  121.8680   60.8310 C   0  0  0  0  0  0  0  0  0  0  0  0
  131.6390  121.5010   61.3080 C   0  0  0  0  0  0  0  0  0  0  0  0
  132.3700  122.6200   61.9040 N   0  0  0  0  0  0  0  0  0  0  0  0
  132.8500  123.6770   61.2250 C   0  0  0  0  0  0  0  0  0  0  0  0
  132.7220  123.8120   60.0050 O   0  0  0  0  0  0  0  0  0  0  0  0
  133.5760  124.7330   62.0670 C   0  0  0  0  0  0  0  0  0  0  0  0
  133.8020  124.2210   63.3810 O   0  0  0  0  0  0  0  0  0  0  0  0
  133.1170  124.7700   64.4490 C   0  0  0  0  0  0  0  0  0  0  0  0
  131.7230  124.7670   64.3590 C   0  0  0  0  0  0  0  0  0  0  0  0
  130.9470  125.2950   65.3880 C   0  0  0  0  0  0  0  0  0  0  0  0
  131.5670  125.8300   66.5130 C   0  0  0  0  0  0  0  0  0  0  0  0
  132.9560  125.8430   66.6180 C   0  0  0  0  0  0  0  0  0  0  0  0
  133.7320  125.3160   65.5890 C   0  0  0  0  0  0  0  0  0  0  0  0
  127.1260  123.1550   62.0470 N   0  0  0  0  0  0  0  0  0  0  0  0
  126.0460  123.5300   61.2970 C   0  0  0  0  0  0  0  0  0  0  0  0
  124.6930  123.5900   61.6650 C   0  0  0  0  0  0  0  0  0  0  0  0
  123.7710  124.0170   60.7090 C   0  0  0  0  0  0  0  0  0  0  0  0
  124.1740  124.3770   59.4230 C   0  0  0  0  0  0  0  0  0  0  0  0
  125.5110  124.3260   59.0250 C   0  0  0  0  0  0  0  0  0  0  0  0
  126.4370  123.8960   59.9840 C   0  0  0  0  0  0  0  0  0  0  0  0
  1  2  1  0
  2  3  1  0
  3  4  1  0
  4  5  1  0
  5  6  1  0
  6  7  1  0
  7  8  1  0
  8  9  1  0
  9 10  1  0
 10 11  2  0
 10 12  1  0
 12 13  1  0
 13 14  1  0
 14 15  2  0
 15 16  1  0
 16 17  2  0
 17 18  1  0
 18 19  2  0
  5 20  2  0
 20 21  1  0
 21 22  2  0
 22 23  1  0
 23 24  2  0
 24 25  1  0
 25 26  2  0
 26  4  1  0
 19 14  1  0
 26 21  1  0
M  END
>  <Binding energies>  (68) 
[-6.89]

>  <Ligand effiencies>  (68) 
[-0.2551851851851852]

>  <Interactions>  (68) 
["V-B:ASP:366:CG:8184, V-A:ARG:545:CZ:4926, V-A:ASP:366:CG:3212, V-A:LEU:475:CD2:4258, V-A:ILE:369:CD1:3238, V-A:HIS:456:CE1:4069, V-B:TYR:539:CD2:9845, V-A:ILE:369:CG2:3236, V-B:TYR:539:CE2:9847, V-B:ALA:541:CB:9863, V-A:ARG:545:CG:4922, V-B:TYR:539:CZ:9848, V-B:TYR:539:CE1:9846, V-B:PRO:540:N:9855, V-B:TYR:539:C:9838, V-B:PRO:540:CA:9854, H-B:ALA:541:N:9862, H-A:GLY:454:N:4049, V-B:PRO:540:CB:9856, V-A:ARG:545:CD:4923, V-B:LEU:363:CA:8156, V-B:TYR:539:CD1:9844, V-B:TYR:539:CG:9843, V-B:ASN:362:CB:8147, V-B:ASN:362:C:8143, V-B:ASN:362:CA:8145, V-B:TYR:539:CA:9840"]

$$$$
RR13_Rahimova_2017
     RDKit          3D

 48 54  0  0  0  0  0  0  0  0999 V2000
  127.8580  124.2550   62.1020 Cl  0  0  0  0  0  0  0  0  0  0  0  0
  129.2130  123.2080   61.8490 C   0  0  0  0  0  0  0  0  0  0  0  0
  129.0360  122.1070   61.0080 C   0  0  0  0  0  0  0  0  0  0  0  0
  130.0800  121.2150   60.7810 C   0  0  0  0  0  0  0  0  0  0  0  0
  131.3120  121.4180   61.3970 C   0  0  0  0  0  0  0  0  0  0  0  0
  131.4980  122.5150   62.2370 C   0  0  0  0  0  0  0  0  0  0  0  0
  130.4600  123.4320   62.4690 C   0  0  0  0  0  0  0  0  0  0  0  0
  130.6830  124.6250   63.4240 C   0  0  1  0  0  0  0  0  0  0  0  0
  132.1810  124.8720   63.6590 C   0  0  0  0  0  0  0  0  0  0  0  0
  133.1650  124.5610   62.8440 N   0  0  0  0  0  0  0  0  0  0  0  0
  134.3330  124.9490   63.4920 N   0  0  0  0  0  0  0  0  0  0  0  0
  134.0330  125.4850   64.7290 N   0  0  0  0  0  0  0  0  0  0  0  0
  132.7010  125.4040   64.8190 N   0  0  0  0  0  0  0  0  0  0  0  0
  132.0080  125.9190   65.9940 C   0  0  0  0  0  0  0  0  0  0  0  0
  130.8380  124.9920   66.3720 C   0  0  0  0  0  0  0  0  0  0  0  0
  129.8980  125.6350   67.3800 C   0  0  0  0  0  0  0  0  0  0  0  0
  129.3660  124.8730   68.4230 C   0  0  0  0  0  0  0  0  0  0  0  0
  128.5000  125.4610   69.3410 C   0  0  0  0  0  0  0  0  0  0  0  0
  128.1690  126.8090   69.2130 C   0  0  0  0  0  0  0  0  0  0  0  0
  128.6950  127.5730   68.1740 C   0  0  0  0  0  0  0  0  0  0  0  0
  129.5610  126.9860   67.2550 C   0  0  0  0  0  0  0  0  0  0  0  0
  129.9660  125.8560   63.0080 N   0  0  0  0  0  0  0  0  0  0  0  0
  130.8840  126.7780   62.3140 C   0  0  0  0  0  0  0  0  0  0  0  0
  130.1160  128.0020   61.7620 C   0  0  0  0  0  0  0  0  0  0  0  0
  129.4830  128.7560   62.8570 N   0  0  0  0  0  0  0  0  0  0  0  0
  128.8040  129.9840   62.3820 C   0  0  1  0  0  0  0  0  0  0  0  0
  127.7470  130.5740   63.3400 C   0  0  0  0  0  0  0  0  0  0  0  0
  128.2170  131.2490   64.4750 C   0  0  0  0  0  0  0  0  0  0  0  0
  127.3350  131.8280   65.3860 C   0  0  0  0  0  0  0  0  0  0  0  0
  125.9620  131.7350   65.1780 C   0  0  0  0  0  0  0  0  0  0  0  0
  125.4740  131.0550   64.0660 C   0  0  0  0  0  0  0  0  0  0  0  0
  126.3490  130.4680   63.1490 C   0  0  0  0  0  0  0  0  0  0  0  0
  125.6430  129.5860   61.8370 Cl  0  0  0  0  0  0  0  0  0  0  0  0
  129.7800  131.0760   61.9380 C   0  0  0  0  0  0  0  0  0  0  0  0
  131.0840  131.0380   62.0850 N   0  0  0  0  0  0  0  0  0  0  0  0
  131.5660  132.2190   61.5300 N   0  0  0  0  0  0  0  0  0  0  0  0
  130.5210  132.9670   61.0280 N   0  0  0  0  0  0  0  0  0  0  0  0
  129.4290  132.2310   61.2720 N   0  0  0  0  0  0  0  0  0  0  0  0
  128.1120  132.7290   60.8890 C   0  0  0  0  0  0  0  0  0  0  0  0
  127.9040  134.1600   61.4190 C   0  0  0  0  0  0  0  0  0  0  0  0
  126.4460  134.4440   61.7450 C   0  0  0  0  0  0  0  0  0  0  0  0
  126.0650  135.7130   62.1890 C   0  0  0  0  0  0  0  0  0  0  0  0
  124.7290  135.9760   62.4810 C   0  0  0  0  0  0  0  0  0  0  0  0
  123.7780  134.9680   62.3270 C   0  0  0  0  0  0  0  0  0  0  0  0
  124.1530  133.7000   61.8840 C   0  0  0  0  0  0  0  0  0  0  0  0
  125.4880  133.4380   61.5910 C   0  0  0  0  0  0  0  0  0  0  0  0
  128.5630  127.8310   63.5440 C   0  0  0  0  0  0  0  0  0  0  0  0
  129.3370  126.6150   64.1030 C   0  0  0  0  0  0  0  0  0  0  0  0
  1  2  1  0
  2  3  2  0
  3  4  1  0
  4  5  2  0
  5  6  1  0
  6  7  2  0
  7  8  1  0
  8  9  1  0
  9 10  2  0
 10 11  1  0
 11 12  2  0
 12 13  1  0
 13 14  1  0
 14 15  1  0
 15 16  1  0
 16 17  2  0
 17 18  1  0
 18 19  2  0
 19 20  1  0
 20 21  2  0
  8 22  1  6
 22 23  1  0
 23 24  1  0
 24 25  1  0
 26 25  1  1
 26 27  1  0
 27 28  2  0
 28 29  1  0
 29 30  2  0
 30 31  1  0
 31 32  2  0
 32 33  1  0
 26 34  1  0
 34 35  2  0
 35 36  1  0
 36 37  2  0
 37 38  1  0
 38 39  1  0
 39 40  1  0
 40 41  1  0
 41 42  2  0
 42 43  1  0
 43 44  2  0
 44 45  1  0
 45 46  2  0
 25 47  1  0
 47 48  1  0
  7  2  1  0
 13  9  1  0
 21 16  1  0
 48 22  1  0
 32 27  1  0
 38 34  1  0
 46 41  1  0
M  END
>  <Binding energies>  (69) 
[-12.11]

>  <Ligand effiencies>  (69) 
[-0.25229166666666664]

>  <Interactions>  (69) 
["V-B:ASP:366:CG:8184, V-B:HIS:456:CE1:9041, V-A:ARG:545:CZ:4926, V-B:GLU:543:CD:9879, V-A:LEU:475:CD2:4258, V-A:TYR:484:CZ:4346, V-A:GLU:543:CD:4908, V-A:ALA:541:CB:4892, V-B:TRP:381:CZ2:8341, V-B:ILE:369:CD1:8210, V-A:GLU:543:CG:4907, V-B:LEU:475:CD1:9229, V-B:ILE:369:CG2:8208, V-B:TRP:381:CH2:8343, H-A:ARG:545:NH2:4928, V-A:TYR:539:CD2:4874, V-A:HIS:456:CE1:4069, V-B:TYR:539:CD2:9845, V-B:TYR:539:CE2:9847, V-B:ALA:541:CB:9863, V-B:GLU:543:C:9873, V-B:GLU:543:CG:9878, V-B:GLU:543:CB:9877, H-A:ARG:545:NE:4924, H-A:ALA:541:N:4891, H-A:GLY:454:N:4049, H-A:ARG:545:NH1:4927, V-A:TYR:484:CE1:4344, V-B:GLU:543:CA:9875"]

$$$$
RR14_Rahimova_2017
     RDKit          3D

 39 43  0  0  0  0  0  0  0  0999 V2000
  130.3660  119.2380   61.0030 C   0  0  0  0  0  0  0  0  0  0  0  0
  131.6560  119.7930   60.7690 O   0  0  0  0  0  0  0  0  0  0  0  0
  131.8850  121.1180   61.0860 C   0  0  0  0  0  0  0  0  0  0  0  0
  133.0700  121.3990   61.7670 C   0  0  0  0  0  0  0  0  0  0  0  0
  133.3760  122.7010   62.1490 C   0  0  0  0  0  0  0  0  0  0  0  0
  132.4900  123.7410   61.8570 C   0  0  0  0  0  0  0  0  0  0  0  0
  132.7890  125.1580   62.3310 C   0  0  0  0  0  0  0  0  0  0  0  0
  133.2510  125.2180   63.7180 N   0  0  0  0  0  0  0  0  0  0  0  0
  134.5370  125.4640   63.9920 N   0  0  0  0  0  0  0  0  0  0  0  0
  134.6170  125.4180   65.3710 N   0  0  0  0  0  0  0  0  0  0  0  0
  133.3670  125.1360   65.9130 N   0  0  0  0  0  0  0  0  0  0  0  0
  132.5550  125.0120   64.8900 C   0  0  0  0  0  0  0  0  0  0  0  0
  131.0730  124.6760   64.9820 C   0  0  0  0  0  0  0  0  0  0  0  0
  130.2640  125.8200   65.4320 N   0  0  0  0  0  0  0  0  0  0  0  0
  130.6030  126.2280   66.8020 C   0  0  0  0  0  0  0  0  0  0  0  0
  129.3820  126.2830   67.7450 C   0  0  0  0  0  0  0  0  0  0  0  0
  129.4120  127.4710   68.7300 C   0  0  0  0  0  0  0  0  0  0  0  0
  128.7780  127.1740   70.0180 N   0  0  0  0  0  0  0  0  0  0  0  0
  129.6140  127.6590   71.1230 C   0  0  0  0  0  0  0  0  0  0  0  0
  128.9990  127.3160   72.4960 C   0  0  0  0  0  0  0  0  0  0  0  0
  128.7470  125.9170   72.5840 O   0  0  0  0  0  0  0  0  0  0  0  0
  127.8460  125.4680   71.5790 C   0  0  0  0  0  0  0  0  0  0  0  0
  128.4270  125.7540   70.1780 C   0  0  0  0  0  0  0  0  0  0  0  0
  130.4240  126.9490   64.5040 C   0  0  0  0  0  0  0  0  0  0  0  0
  129.1580  127.7440   64.1900 C   0  0  0  0  0  0  0  0  0  0  0  0
  128.3560  128.2020   65.1820 C   0  0  0  0  0  0  0  0  0  0  0  0
  127.1060  128.9390   64.9050 C   0  0  0  0  0  0  0  0  0  0  0  0
  126.2620  129.4440   65.9080 C   0  0  0  0  0  0  0  0  0  0  0  0
  126.5820  129.2660   67.3860 C   0  0  0  0  0  0  0  0  0  0  0  0
  125.1020  130.1300   65.5370 C   0  0  0  0  0  0  0  0  0  0  0  0
  124.7810  130.3130   64.1930 C   0  0  0  0  0  0  0  0  0  0  0  0
  125.6160  129.8160   63.1880 C   0  0  0  0  0  0  0  0  0  0  0  0
  125.2390  130.0340   61.7280 C   0  0  0  0  0  0  0  0  0  0  0  0
  126.7840  129.1250   63.5480 C   0  0  0  0  0  0  0  0  0  0  0  0
  127.6540  128.6030   62.5690 N   0  0  0  0  0  0  0  0  0  0  0  0
  128.8090  127.9220   62.7770 C   0  0  0  0  0  0  0  0  0  0  0  0
  129.4680  127.5070   61.8240 O   0  0  0  0  0  0  0  0  0  0  0  0
  131.3160  123.4750   61.1500 C   0  0  0  0  0  0  0  0  0  0  0  0
  131.0110  122.1710   60.7690 C   0  0  0  0  0  0  0  0  0  0  0  0
  1  2  1  0
  2  3  1  0
  3  4  2  0
  4  5  1  0
  5  6  2  0
  6  7  1  0
  7  8  1  0
  8  9  1  0
  9 10  2  0
 10 11  1  0
 11 12  2  0
 12 13  1  0
 13 14  1  0
 14 15  1  0
 15 16  1  0
 16 17  1  0
 17 18  1  0
 18 19  1  0
 19 20  1  0
 20 21  1  0
 21 22  1  0
 22 23  1  0
 14 24  1  0
 24 25  1  0
 25 26  2  0
 26 27  1  0
 27 28  2  0
 28 29  1  0
 28 30  1  0
 30 31  2  0
 31 32  1  0
 32 33  1  0
 32 34  2  0
 34 35  1  0
 35 36  1  0
 36 37  2  0
  6 38  1  0
 38 39  2  0
 39  3  1  0
 12  8  1  0
 23 18  1  0
 36 25  1  0
 34 27  1  0
M  END
>  <Binding energies>  (70) 
[-9.21]

>  <Ligand effiencies>  (70) 
[-0.23025]

>  <Interactions>  (70) 
["V-B:ASP:366:CG:8184, V-B:HIS:456:CE1:9041, V-A:ARG:545:CZ:4926, V-B:GLU:543:CD:9879, V-A:ASP:366:CG:3212, V-A:LEU:475:CD2:4258, V-A:GLU:543:CD:4908, V-A:ILE:369:CD1:3238, V-A:GLU:543:CG:4907, H-A:ARG:545:NH2:4928, V-A:HIS:456:CE1:4069, V-B:TYR:539:CD2:9845, V-B:HIS:456:CD2:9039, V-A:ILE:369:CG2:3236, V-B:TYR:539:CE2:9847, V-B:GLU:543:C:9873, V-B:GLU:543:CG:9878, V-B:GLU:543:CB:9877, H-B:LYS:547:NZ:9922, H-A:TYR:484:OH:4347, V-A:TRP:381:CZ2:3369, V-A:TRP:381:CH2:3371, V-B:ARG:545:CZ:9897, H-A:ARG:545:NE:4924, H-A:GLY:454:N:4049, H-A:ARG:545:NH1:4927, V-A:PRO:482:CB:4325, V-A:PRO:482:CG:4326, V-B:GLY:544:C:9883"]

$$$$
RR15_Rahimova_2017
     RDKit          3D

 45 49  0  0  0  0  0  0  0  0999 V2000
  129.0500  129.1700   74.6350 C   0  0  0  0  0  0  0  0  0  0  0  0
  130.1220  128.4920   73.9880 O   0  0  0  0  0  0  0  0  0  0  0  0
  129.9910  128.1200   72.6610 C   0  0  0  0  0  0  0  0  0  0  0  0
  130.4520  128.8970   71.5870 C   0  0  0  0  0  0  0  0  0  0  0  0
  130.2860  128.4650   70.2730 C   0  0  0  0  0  0  0  0  0  0  0  0
  129.6540  127.2490   69.9940 C   0  0  0  0  0  0  0  0  0  0  0  0
  129.4690  126.7860   68.5750 C   0  0  0  0  0  0  0  0  0  0  0  0
  129.4000  125.5060   68.2380 N   0  0  0  0  0  0  0  0  0  0  0  0
  129.2390  125.4790   66.8680 N   0  0  0  0  0  0  0  0  0  0  0  0
  129.1880  126.7690   66.5330 N   0  0  0  0  0  0  0  0  0  0  0  0
  129.1850  127.2080   65.1390 C   0  0  0  0  0  0  0  0  0  0  0  0
  128.2650  128.4180   64.8400 C   0  0  0  0  0  0  0  0  0  0  0  0
  127.7660  129.0190   65.7940 O   0  0  0  0  0  0  0  0  0  0  0  0
  128.0550  128.8060   63.5450 N   0  0  0  0  0  0  0  0  0  0  0  0
  128.9800  129.7330   62.8620 C   0  0  0  0  0  0  0  0  0  0  0  0
  128.9550  131.1660   63.4370 C   0  0  0  0  0  0  0  0  0  0  0  0
  128.9610  132.2910   62.3760 C   0  0  0  0  0  0  0  0  0  0  0  0
  130.2550  132.4670   61.7090 N   0  0  0  0  0  0  0  0  0  0  0  0
  131.4000  132.0360   62.5240 C   0  0  0  0  0  0  0  0  0  0  0  0
  132.7270  132.1610   61.7450 C   0  0  0  0  0  0  0  0  0  0  0  0
  132.6430  131.4490   60.5150 O   0  0  0  0  0  0  0  0  0  0  0  0
  131.5990  131.9340   59.6780 C   0  0  0  0  0  0  0  0  0  0  0  0
  130.2410  131.7990   60.4000 C   0  0  0  0  0  0  0  0  0  0  0  0
  127.0150  128.1960   62.6620 C   0  0  2  0  0  0  0  0  0  0  0  0
  127.5880  127.2380   61.5710 C   0  0  0  0  0  0  0  0  0  0  0  0
  128.3190  127.6610   60.6750 O   0  0  0  0  0  0  0  0  0  0  0  0
  127.2630  125.9410   61.7070 N   0  0  0  0  0  0  0  0  0  0  0  0
  127.7620  124.8540   60.8720 C   0  0  0  0  0  0  0  0  0  0  0  0
  126.7700  123.6760   60.8390 C   0  0  2  0  0  0  0  0  0  0  0  0
  125.4650  123.9350   60.0660 C   0  0  0  0  0  0  0  0  0  0  0  0
  124.4400  124.2150   61.1380 C   0  0  0  0  0  0  0  0  0  0  0  0
  124.9280  123.3160   62.2610 C   0  0  0  0  0  0  0  0  0  0  0  0
  126.3400  123.4790   62.1930 O   0  0  0  0  0  0  0  0  0  0  0  0
  126.0060  129.2470   62.2130 C   0  0  0  0  0  0  0  0  0  0  0  0
  126.0320  129.6580   60.8750 C   0  0  0  0  0  0  0  0  0  0  0  0
  125.1350  130.6150   60.4090 C   0  0  0  0  0  0  0  0  0  0  0  0
  124.2010  131.1680   61.2810 C   0  0  0  0  0  0  0  0  0  0  0  0
  123.3290  132.0970   60.8280 F   0  0  0  0  0  0  0  0  0  0  0  0
  124.1590  130.7700   62.6140 C   0  0  0  0  0  0  0  0  0  0  0  0
  125.0570  129.8140   63.0790 C   0  0  0  0  0  0  0  0  0  0  0  0
  129.3650  127.6160   67.5540 N   0  0  0  0  0  0  0  0  0  0  0  0
  129.1960  126.4750   71.0680 C   0  0  0  0  0  0  0  0  0  0  0  0
  129.3590  126.8950   72.3990 C   0  0  0  0  0  0  0  0  0  0  0  0
  128.9280  126.1650   73.4930 O   0  0  0  0  0  0  0  0  0  0  0  0
  129.7200  125.0850   73.9750 C   0  0  0  0  0  0  0  0  0  0  0  0
  1  2  1  0
  2  3  1  0
  3  4  2  0
  4  5  1  0
  5  6  2  0
  6  7  1  0
  7  8  1  0
  8  9  2  0
  9 10  1  0
 10 11  1  0
 11 12  1  0
 12 13  2  0
 12 14  1  0
 14 15  1  0
 15 16  1  0
 16 17  1  0
 17 18  1  0
 18 19  1  0
 19 20  1  0
 20 21  1  0
 21 22  1  0
 22 23  1  0
 24 14  1  6
 24 25  1  0
 25 26  2  0
 25 27  1  0
 27 28  1  0
 29 28  1  1
 29 30  1  0
 30 31  1  0
 31 32  1  0
 32 33  1  0
 24 34  1  0
 34 35  2  0
 35 36  1  0
 36 37  2  0
 37 38  1  0
 37 39  1  0
 39 40  2  0
 10 41  1  0
  6 42  1  0
 42 43  2  0
 43 44  1  0
 44 45  1  0
 43  3  1  0
 41  7  2  0
 23 18  1  0
 33 29  1  0
 40 34  1  0
M  END
>  <Binding energies>  (71) 
[-9.7]

>  <Ligand effiencies>  (71) 
[-0.21086956521739128]

>  <Interactions>  (71) 
["V-B:ASP:366:CG:8184, V-B:HIS:456:CE1:9041, V-B:GLU:543:CD:9879, V-B:ILE:369:CB:8207, V-A:GLU:543:CD:4908, V-A:ALA:541:CB:4892, V-B:ILE:369:CD1:8210, V-A:GLU:543:CG:4907, V-B:ILE:369:CG2:8208, V-A:HIS:456:CE1:4069, V-A:GLU:543:CB:4906, V-A:HIS:456:CD2:4067, V-B:GLU:543:CG:9878, H-B:GLU:543:OE2:9881, V-B:ASP:366:CB:8183, H-B:LYS:547:NZ:9922, V-A:ASN:362:CB:3175, V-A:PRO:540:C:4881, V-A:ALA:541:CA:4890, V-A:PRO:540:CB:4885, V-A:PRO:540:CA:4883, V-B:LYS:547:CE:9921, H-A:LYS:547:NZ:4951, V-A:LYS:547:CE:4950, V-B:PRO:540:CA:9854, V-B:ARG:545:CZ:9897, H-B:ALA:541:N:9862, H-B:ASP:366:OD2:8186, H-A:ALA:541:N:4891, V-B:PRO:540:CB:9856, V-B:ASN:362:CB:8147, V-B:ALA:541:C:9859, V-B:ASN:362:C:8143, V-B:ILE:369:CG1:8209"]

$$$$
RR17_Rahimova_2017
     RDKit          3D

 38 41  0  0  0  0  0  0  0  0999 V2000
  130.7900  132.9840   57.2930 C   0  0  0  0  0  0  0  0  0  0  0  0
  130.7180  131.9420   58.4130 C   0  0  0  0  0  0  0  0  0  0  0  0
  129.7320  130.9710   58.0710 O   0  0  0  0  0  0  0  0  0  0  0  0
  128.4050  131.2190   58.3680 C   0  0  0  0  0  0  0  0  0  0  0  0
  127.4630  130.4110   57.7330 C   0  0  0  0  0  0  0  0  0  0  0  0
  126.1040  130.5860   57.9680 C   0  0  0  0  0  0  0  0  0  0  0  0
  125.6550  131.5820   58.8490 C   0  0  0  0  0  0  0  0  0  0  0  0
  124.1820  131.7470   59.0840 C   0  0  0  0  0  0  0  0  0  0  0  0
  123.4250  132.2200   58.2310 O   0  0  0  0  0  0  0  0  0  0  0  0
  123.6380  131.3120   60.4630 C   0  0  0  0  0  0  0  0  0  0  0  0
  124.1020  132.4840   61.7880 S   0  0  0  0  0  0  0  0  0  0  0  0
  124.4030  131.3450   63.1100 C   0  0  0  0  0  0  0  0  0  0  0  0
  123.4790  130.7310   63.8100 N   0  0  0  0  0  0  0  0  0  0  0  0
  124.1170  129.9220   64.7420 N   0  0  0  0  0  0  0  0  0  0  0  0
  125.4060  130.0760   64.5670 C   0  0  0  0  0  0  0  0  0  0  0  0
  126.4780  129.3600   65.3750 C   0  0  0  0  0  0  0  0  0  0  0  0
  126.8300  130.0380   66.6210 N   0  0  0  0  0  0  0  0  0  0  0  0
  127.7440  129.5240   67.5580 C   0  0  0  0  0  0  0  0  0  0  0  0
  128.0820  130.3390   68.6380 C   0  0  0  0  0  0  0  0  0  0  0  0
  128.9850  129.8950   69.5990 C   0  0  0  0  0  0  0  0  0  0  0  0
  129.5590  128.6250   69.4930 C   0  0  0  0  0  0  0  0  0  0  0  0
  130.5540  128.1540   70.5540 C   0  0  0  0  0  0  0  0  0  0  0  0
  130.7400  129.0660   71.5120 F   0  0  0  0  0  0  0  0  0  0  0  0
  130.1220  127.0330   71.1330 F   0  0  0  0  0  0  0  0  0  0  0  0
  131.7290  127.9110   69.9740 F   0  0  0  0  0  0  0  0  0  0  0  0
  129.2150  127.8030   68.4150 C   0  0  0  0  0  0  0  0  0  0  0  0
  128.3110  128.2470   67.4550 C   0  0  0  0  0  0  0  0  0  0  0  0
  125.6580  130.9770   63.5530 N   0  0  0  0  0  0  0  0  0  0  0  0
  126.9040  131.3950   63.0640 C   0  0  0  0  0  0  0  0  0  0  0  0
  127.1810  132.7580   62.9640 C   0  0  0  0  0  0  0  0  0  0  0  0
  128.4170  133.1730   62.4750 C   0  0  0  0  0  0  0  0  0  0  0  0
  129.3780  132.2260   62.0860 C   0  0  0  0  0  0  0  0  0  0  0  0
  130.6290  132.5450   61.5920 O   0  0  0  0  0  0  0  0  0  0  0  0
  131.7430  131.7310   61.9420 C   0  0  0  0  0  0  0  0  0  0  0  0
  129.0820  130.8650   62.1920 C   0  0  0  0  0  0  0  0  0  0  0  0
  127.8490  130.4440   62.6800 C   0  0  0  0  0  0  0  0  0  0  0  0
  126.6030  132.3940   59.4880 C   0  0  0  0  0  0  0  0  0  0  0  0
  127.9640  132.2150   59.2520 C   0  0  0  0  0  0  0  0  0  0  0  0
  1  2  1  0
  2  3  1  0
  3  4  1  0
  4  5  2  0
  5  6  1  0
  6  7  2  0
  7  8  1  0
  8  9  2  0
  8 10  1  0
 10 11  1  0
 11 12  1  0
 12 13  2  0
 13 14  1  0
 14 15  2  0
 15 16  1  0
 16 17  1  0
 17 18  1  0
 18 19  2  0
 19 20  1  0
 20 21  2  0
 21 22  1  0
 22 23  1  0
 22 24  1  0
 22 25  1  0
 21 26  1  0
 26 27  2  0
 15 28  1  0
 28 29  1  0
 29 30  2  0
 30 31  1  0
 31 32  2  0
 32 33  1  0
 33 34  1  0
 32 35  1  0
 35 36  2  0
  7 37  1  0
 37 38  2  0
 38  4  1  0
 28 12  1  0
 36 29  1  0
 27 18  1  0
M  END
>  <Binding energies>  (72) 
[-8.42]

>  <Ligand effiencies>  (72) 
[-0.2158974358974359]

>  <Interactions>  (72) 
["V-B:ASP:366:CG:8184, V-B:HIS:456:CE1:9041, V-B:GLU:543:CD:9879, V-B:ILE:369:CB:8207, V-A:GLU:543:CD:4908, V-A:ALA:541:CB:4892, V-B:ILE:369:CD1:8210, V-A:GLU:543:CG:4907, V-B:LEU:475:CD1:9229, V-B:ILE:369:CG2:8208, V-A:TYR:539:CE2:4876, V-A:TYR:539:CD2:4874, V-A:HIS:456:CE1:4069, V-A:GLU:543:C:4902, V-A:GLU:543:CB:4906, V-A:GLY:544:C:4912, V-A:HIS:456:CD2:4067, V-A:ARG:545:CG:4922, V-A:ARG:545:CA:4919, V-B:TYR:484:CE1:9316, H-B:GLY:454:N:9021, V-B:ASP:366:CB:8183, H-B:ARG:545:NH2:9899, V-A:PRO:540:CA:4883, H-B:TYR:484:OH:9319, H-B:ARG:545:NE:9895, H-B:ARG:545:NH1:9898, V-B:ARG:545:CZ:9897, V-A:GLU:543:CA:4904, V-B:TYR:484:CZ:9318, V-A:TYR:539:C:4867, H-A:ALA:541:N:4891, V-B:ASP:366:CA:8181, V-A:PRO:540:N:4884, V-A:TYR:539:CZ:4877, V-A:PRO:540:CD:4887, H-A:TYR:539:OH:4878, H-B:ASN:370:N:8215"]

$$$$
RR19_Rahimova_2017
     RDKit          3D

 46 51  0  0  0  0  0  0  0  0999 V2000
  124.9180  130.0150   59.5230 O   0  0  0  0  0  0  0  0  0  0  0  0
  125.6230  129.9990   60.5370 C   0  0  0  0  0  0  0  0  0  0  0  0
  126.5360  129.0470   60.8580 N   0  0  0  0  0  0  0  0  0  0  0  0
  127.1020  128.0160   60.1490 C   0  0  0  0  0  0  0  0  0  0  0  0
  126.9680  127.7790   58.4780 S   0  0  0  0  0  0  0  0  0  0  0  0
  127.7930  127.2120   61.0200 N   0  0  0  0  0  0  0  0  0  0  0  0
  128.6340  126.1610   60.8390 C   0  0  0  0  0  0  0  0  0  0  0  0
  129.1230  125.7910   59.7690 O   0  0  0  0  0  0  0  0  0  0  0  0
  128.9520  125.3810   62.1390 C   0  0  2  0  0  0  0  0  0  0  0  0
  129.8160  126.1590   63.1730 C   0  0  0  0  0  0  0  0  0  0  0  0
  129.7330  125.6480   64.6030 C   0  0  0  0  0  0  0  0  0  0  0  0
  129.8280  124.2680   64.8850 C   0  0  0  0  0  0  0  0  0  0  0  0
  129.8290  123.8270   66.2010 C   0  0  0  0  0  0  0  0  0  0  0  0
  129.7550  124.7390   67.2460 C   0  0  0  0  0  0  0  0  0  0  0  0
  129.6910  126.1020   66.9850 C   0  0  0  0  0  0  0  0  0  0  0  0
  129.6910  126.5640   65.6750 C   0  0  0  0  0  0  0  0  0  0  0  0
  129.5330  124.0440   61.8380 N   0  0  0  0  0  0  0  0  0  0  0  0
  128.7430  122.9400   61.7120 C   0  0  0  0  0  0  0  0  0  0  0  0
  127.5190  122.8780   61.8470 O   0  0  0  0  0  0  0  0  0  0  0  0
  129.6650  121.8280   61.3720 C   0  0  0  0  0  0  0  0  0  0  0  0
  129.4190  120.4760   61.1330 C   0  0  0  0  0  0  0  0  0  0  0  0
  130.5000  119.6430   60.8210 C   0  0  0  0  0  0  0  0  0  0  0  0
  131.7980  120.1670   60.7510 C   0  0  0  0  0  0  0  0  0  0  0  0
  132.0230  121.5270   60.9930 C   0  0  0  0  0  0  0  0  0  0  0  0
  130.9330  122.3400   61.3040 C   0  0  0  0  0  0  0  0  0  0  0  0
  130.8540  123.7930   61.5970 C   0  0  0  0  0  0  0  0  0  0  0  0
  131.7860  124.5990   61.6090 O   0  0  0  0  0  0  0  0  0  0  0  0
  125.4870  131.1380   61.5820 C   0  0  2  0  0  0  0  0  0  0  0  0
  126.4960  132.3050   61.3780 C   0  0  0  0  0  0  0  0  0  0  0  0
  125.9810  133.6540   61.8480 C   0  0  0  0  0  0  0  0  0  0  0  0
  126.8330  134.7790   61.8380 C   0  0  0  0  0  0  0  0  0  0  0  0
  126.3320  136.0310   62.1720 C   0  0  0  0  0  0  0  0  0  0  0  0
  124.9900  136.1870   62.4900 C   0  0  0  0  0  0  0  0  0  0  0  0
  124.1310  135.0950   62.4660 C   0  0  0  0  0  0  0  0  0  0  0  0
  124.6120  133.8340   62.1360 C   0  0  0  0  0  0  0  0  0  0  0  0
  125.4930  130.6510   62.9910 N   0  0  0  0  0  0  0  0  0  0  0  0
  126.6550  130.3940   63.6550 C   0  0  0  0  0  0  0  0  0  0  0  0
  127.8020  130.4980   63.2200 O   0  0  0  0  0  0  0  0  0  0  0  0
  126.2430  129.9620   65.0140 C   0  0  0  0  0  0  0  0  0  0  0  0
  127.0020  129.5680   66.1170 C   0  0  0  0  0  0  0  0  0  0  0  0
  126.3360  129.2090   67.2950 C   0  0  0  0  0  0  0  0  0  0  0  0
  124.9370  129.2510   67.3560 C   0  0  0  0  0  0  0  0  0  0  0  0
  124.1940  129.6510   66.2390 C   0  0  0  0  0  0  0  0  0  0  0  0
  124.8770  130.0030   65.0740 C   0  0  0  0  0  0  0  0  0  0  0  0
  124.3770  130.4620   63.7550 C   0  0  0  0  0  0  0  0  0  0  0  0
  123.2040  130.6360   63.4210 O   0  0  0  0  0  0  0  0  0  0  0  0
  1  2  2  0
  2  3  1  0
  3  4  1  0
  4  5  2  0
  4  6  1  0
  6  7  1  0
  7  8  2  0
  7  9  1  0
  9 10  1  1
 10 11  1  0
 11 12  2  0
 12 13  1  0
 13 14  2  0
 14 15  1  0
 15 16  2  0
  9 17  1  0
 17 18  1  0
 18 19  2  0
 18 20  1  0
 20 21  2  0
 21 22  1  0
 22 23  2  0
 23 24  1  0
 24 25  2  0
 25 26  1  0
 26 27  2  0
  2 28  1  0
 28 29  1  1
 29 30  1  0
 30 31  2  0
 31 32  1  0
 32 33  2  0
 33 34  1  0
 34 35  2  0
 28 36  1  0
 36 37  1  0
 37 38  2  0
 37 39  1  0
 39 40  2  0
 40 41  1  0
 41 42  2  0
 42 43  1  0
 43 44  2  0
 44 45  1  0
 45 46  2  0
 16 11  1  0
 26 17  1  0
 35 30  1  0
 45 36  1  0
 25 20  1  0
 44 39  1  0
M  END
>  <Binding energies>  (73) 
[-10.73]

>  <Ligand effiencies>  (73) 
[-0.22354166666666667]

>  <Interactions>  (73) 
["V-B:ASP:366:CG:8184, V-B:HIS:456:CE1:9041, V-B:GLU:543:CD:9879, V-A:LEU:475:CD2:4258, V-A:TYR:484:CZ:4346, V-A:GLU:543:CD:4908, V-B:TRP:381:CZ2:8341, V-B:LEU:475:CD1:9229, V-B:ILE:369:CG2:8208, V-B:TRP:381:CH2:8343, V-A:TYR:539:CD2:4874, V-A:HIS:456:CE1:4069, V-B:TYR:539:CD2:9845, V-A:ILE:369:CG2:3236, V-B:TYR:539:CE2:9847, V-B:ALA:541:CB:9863, V-B:GLU:543:CG:9878, V-B:GLU:543:CB:9877, H-B:GLY:454:N:9021, H-B:GLU:543:OE2:9881, V-B:PRO:540:C:9852, V-B:ALA:541:CA:9861, V-B:TYR:539:C:9838, V-A:TRP:381:CH2:3371, H-B:ARG:545:NH1:9898, V-B:ARG:545:CZ:9897, H-B:ALA:541:N:9862, V-B:ARG:545:CG:9893, V-B:ARG:545:CD:9894, V-A:TYR:484:CE1:4344"]

$$$$
RR1_Rahimova_2017
     RDKit          3D

 41 44  0  0  0  0  0  0  0  0999 V2000
  130.5520  118.6170   75.2260 C   0  0  0  0  0  0  0  0  0  0  0  0
  129.5780  119.6040   75.5490 O   0  0  0  0  0  0  0  0  0  0  0  0
  129.4030  120.6800   74.7010 C   0  0  0  0  0  0  0  0  0  0  0  0
  128.9140  120.5830   73.3890 C   0  0  0  0  0  0  0  0  0  0  0  0
  128.7780  121.7250   72.6040 C   0  0  0  0  0  0  0  0  0  0  0  0
  129.1200  122.9780   73.1150 C   0  0  0  0  0  0  0  0  0  0  0  0
  128.9910  124.0650   72.2300 N   0  0  0  0  0  0  0  0  0  0  0  0
  128.9620  125.3880   72.4990 C   0  0  0  0  0  0  0  0  0  0  0  0
  128.9780  125.8750   73.6300 O   0  0  0  0  0  0  0  0  0  0  0  0
  128.9000  126.2920   71.2570 C   0  0  0  0  0  0  0  0  0  0  0  0
  127.6860  125.7940   69.9860 S   0  0  0  0  0  0  0  0  0  0  0  0
  128.6930  126.0770   68.5680 C   0  0  0  0  0  0  0  0  0  0  0  0
  129.5430  125.2070   68.0830 N   0  0  0  0  0  0  0  0  0  0  0  0
  130.0620  125.8240   67.0270 C   0  0  0  0  0  0  0  0  0  0  0  0
  131.0920  125.1790   66.1450 C   0  0  0  0  0  0  0  0  0  0  0  0
  130.7470  124.1760   65.2250 C   0  0  0  0  0  0  0  0  0  0  0  0
  131.7270  123.5920   64.4200 C   0  0  0  0  0  0  0  0  0  0  0  0
  133.0440  124.0280   64.5540 C   0  0  0  0  0  0  0  0  0  0  0  0
  133.4130  124.9950   65.4330 N   0  0  0  0  0  0  0  0  0  0  0  0
  132.4450  125.5500   66.2050 C   0  0  0  0  0  0  0  0  0  0  0  0
  129.6070  127.0430   66.8040 N   0  0  0  0  0  0  0  0  0  0  0  0
  128.7260  127.2090   67.7950 N   0  0  0  0  0  0  0  0  0  0  0  0
  127.9580  128.4480   67.9070 C   0  0  0  0  0  0  0  0  0  0  0  0
  127.6950  129.1730   66.5750 C   0  0  0  0  0  0  0  0  0  0  0  0
  128.4360  128.9950   65.6020 O   0  0  0  0  0  0  0  0  0  0  0  0
  126.6250  129.9910   66.5750 N   0  0  0  0  0  0  0  0  0  0  0  0
  126.2400  130.5630   65.3700 N   0  0  0  0  0  0  0  0  0  0  0  0
  124.9350  130.4950   65.0280 C   0  0  0  0  0  0  0  0  0  0  0  0
  124.0490  130.0480   65.7640 O   0  0  0  0  0  0  0  0  0  0  0  0
  124.5880  131.0370   63.6570 C   0  0  0  0  0  0  0  0  0  0  0  0
  124.7480  130.2310   62.5250 C   0  0  0  0  0  0  0  0  0  0  0  0
  124.4470  130.7130   61.2560 C   0  0  0  0  0  0  0  0  0  0  0  0
  123.9800  132.0250   61.0780 C   0  0  0  0  0  0  0  0  0  0  0  0
  123.6750  132.5700   59.8430 O   0  0  0  0  0  0  0  0  0  0  0  0
  123.6420  131.7300   58.6950 C   0  0  0  0  0  0  0  0  0  0  0  0
  123.8190  132.8510   62.1980 C   0  0  0  0  0  0  0  0  0  0  0  0
  123.3760  134.1430   61.9670 O   0  0  0  0  0  0  0  0  0  0  0  0
  124.3200  135.1760   61.7100 C   0  0  0  0  0  0  0  0  0  0  0  0
  124.1210  132.3500   63.4770 C   0  0  0  0  0  0  0  0  0  0  0  0
  129.6080  123.0790   74.4270 C   0  0  0  0  0  0  0  0  0  0  0  0
  129.7420  121.9350   75.2090 C   0  0  0  0  0  0  0  0  0  0  0  0
  1  2  1  0
  2  3  1  0
  3  4  2  0
  4  5  1  0
  5  6  2  0
  6  7  1  0
  7  8  1  0
  8  9  2  0
  8 10  1  0
 10 11  1  0
 11 12  1  0
 12 13  2  0
 13 14  1  0
 14 15  1  0
 15 16  2  0
 16 17  1  0
 17 18  2  0
 18 19  1  0
 19 20  2  0
 14 21  2  0
 21 22  1  0
 22 23  1  0
 23 24  1  0
 24 25  2  0
 24 26  1  0
 26 27  1  0
 27 28  1  0
 28 29  2  0
 28 30  1  0
 30 31  2  0
 31 32  1  0
 32 33  2  0
 33 34  1  0
 34 35  1  0
 33 36  1  0
 36 37  1  0
 37 38  1  0
 36 39  2  0
  6 40  1  0
 40 41  2  0
 41  3  1  0
 22 12  1  0
 39 30  1  0
 20 15  1  0
M  END
>  <Binding energies>  (74) 
[-9.24]

>  <Ligand effiencies>  (74) 
[-0.21]

>  <Interactions>  (74) 
["V-B:ASP:366:CG:8184, V-B:HIS:456:CE1:9041, V-B:GLU:543:CD:9879, V-B:ILE:369:CB:8207, V-A:GLU:543:CD:4908, V-B:GLY:454:CA:9020, V-B:ILE:369:CD1:8210, V-A:GLU:543:CG:4907, V-B:LEU:475:CD1:9229, V-B:ILE:369:CG2:8208, V-B:TRP:381:CH2:8343, V-A:TYR:539:CE2:4876, V-A:GLY:454:CA:4048, V-A:HIS:456:CE1:4069, V-A:HIS:456:CD2:4067, V-B:GLU:543:C:9873, V-B:GLU:543:CG:9878, V-B:GLU:543:CB:9877, H-B:GLY:454:N:9021, V-B:ASP:366:CB:8183, H-B:LYS:547:NZ:9922, V-B:LYS:547:CE:9921, H-B:TYR:484:OH:9319, H-A:TYR:484:OH:4347, H-B:ARG:545:NE:9895, V-B:TYR:484:CZ:9318, H-A:GLY:454:N:4049, V-B:ASP:366:CA:8181, H-B:GLU:543:O:9874, H-A:HIS:456:NE2:4070, V-B:ASP:366:C:8179, V-A:ASP:473:CG:4239, V-A:TYR:484:CB:4340, V-A:TYR:484:CD1:4342, V-A:TYR:484:CG:4341"]

$$$$
RR22_Rahimova_2017
     RDKit          3D

 31 36  0  0  0  0  0  0  0  0999 V2000
  134.4660  125.4950   64.4410 O   0  0  0  0  0  0  0  0  0  0  0  0
  133.2600  125.5590   64.2150 C   0  0  0  0  0  0  0  0  0  0  0  0
  132.3330  126.3990   64.8080 N   0  0  0  0  0  0  0  0  0  0  0  0
  130.9660  126.3910   64.3850 C   0  0  1  0  0  0  0  0  0  0  0  0
  130.2080  126.1390   65.5710 O   0  0  0  0  0  0  0  0  0  0  0  0
  129.2690  127.0900   65.9720 C   0  0  0  0  0  0  0  0  0  0  0  0
  128.8230  127.0060   67.2910 C   0  0  0  0  0  0  0  0  0  0  0  0
  127.8550  127.8980   67.7540 C   0  0  0  0  0  0  0  0  0  0  0  0
  127.3300  128.8650   66.8970 C   0  0  0  0  0  0  0  0  0  0  0  0
  127.7750  128.9480   65.5760 C   0  0  0  0  0  0  0  0  0  0  0  0
  128.7630  128.0770   65.1060 C   0  0  0  0  0  0  0  0  0  0  0  0
  129.2810  128.0580   63.6850 C   0  0  1  0  0  0  0  0  0  0  0  0
  129.3750  129.3090   62.8350 C   0  0  0  0  0  0  0  0  0  0  0  0
  130.5700  128.9380   61.9540 C   0  0  0  0  0  0  0  0  0  0  0  0
  130.8690  129.6260   60.6820 C   0  0  0  0  0  0  0  0  0  0  0  0
  131.2310  130.9810   60.6720 C   0  0  0  0  0  0  0  0  0  0  0  0
  131.5130  131.6250   59.4710 C   0  0  0  0  0  0  0  0  0  0  0  0
  131.4340  130.9200   58.2730 C   0  0  0  0  0  0  0  0  0  0  0  0
  131.0760  129.5740   58.2660 C   0  0  0  0  0  0  0  0  0  0  0  0
  130.7950  128.9280   59.4670 C   0  0  0  0  0  0  0  0  0  0  0  0
  131.2580  127.9950   62.4810 N   0  0  0  0  0  0  0  0  0  0  0  0
  130.6550  127.6570   63.7040 N   0  0  0  0  0  0  0  0  0  0  0  0
  130.7980  125.1780   63.4810 C   0  0  0  0  0  0  0  0  0  0  0  0
  129.5900  124.6520   63.1700 C   0  0  0  0  0  0  0  0  0  0  0  0
  129.2850  123.5010   62.2990 C   0  0  0  0  0  0  0  0  0  0  0  0
  130.1450  122.4050   62.1460 C   0  0  0  0  0  0  0  0  0  0  0  0
  129.7900  121.3510   61.3030 C   0  0  0  0  0  0  0  0  0  0  0  0
  128.5750  121.4250   60.6220 C   0  0  0  0  0  0  0  0  0  0  0  0
  127.7260  122.4760   60.7440 N   0  0  0  0  0  0  0  0  0  0  0  0
  128.0890  123.4910   61.5700 C   0  0  0  0  0  0  0  0  0  0  0  0
  132.3750  124.5280   63.0060 S   0  0  0  0  0  0  0  0  0  0  0  0
  1  2  2  0
  2  3  1  0
  4  3  1  1
  4  5  1  0
  5  6  1  0
  6  7  2  0
  7  8  1  0
  8  9  2  0
  9 10  1  0
 10 11  2  0
 11 12  1  0
 12 13  1  1
 13 14  1  0
 14 15  1  0
 15 16  2  0
 16 17  1  0
 17 18  2  0
 18 19  1  0
 19 20  2  0
 14 21  2  0
 21 22  1  0
  4 23  1  0
 23 24  2  0
 24 25  1  0
 25 26  2  0
 26 27  1  0
 27 28  2  0
 28 29  1  0
 29 30  2  0
 23 31  1  0
 31  2  1  0
 22  4  1  0
 30 25  1  0
 11  6  1  0
 22 12  1  0
 20 15  1  0
M  END
>  <Binding energies>  (75) 
[-8.2]

>  <Ligand effiencies>  (75) 
[-0.25625]

>  <Interactions>  (75) 
["V-B:HIS:456:CE1:9041, V-A:ARG:545:CZ:4926, V-B:GLU:543:CD:9879, V-A:GLU:543:CD:4908, V-A:GLU:543:CG:4907, H-A:ARG:545:NH2:4928, V-B:TYR:539:CD2:9845, V-B:ALA:541:CB:9863, V-B:GLU:543:CG:9878, V-B:GLU:543:CB:9877, V-A:PRO:540:CB:4885, V-A:PRO:540:CA:4883, V-B:PRO:540:C:9852, V-B:ALA:541:CA:9861, V-B:PRO:540:N:9855, V-B:TYR:539:C:9838, V-B:PRO:540:CA:9854, H-B:ALA:541:N:9862, H-A:ARG:545:NE:4924, H-A:GLY:454:N:4049, H-A:GLU:543:OE1:4909, H-A:GLU:543:OE2:4910, H-A:ARG:545:NH1:4927"]

$$$$
RR24_Rahimova_2017
     RDKit          3D

 43 49  0  0  0  0  0  0  0  0999 V2000
  131.4460  128.4430   70.3600 C   0  0  0  0  0  0  0  0  0  0  0  0
  130.3120  127.9100   71.2470 C   0  0  2  0  0  0  0  0  0  0  0  0
  129.2510  127.0870   70.4580 C   0  0  0  0  0  0  0  0  0  0  0  0
  129.0780  125.8800   70.6550 O   0  0  0  0  0  0  0  0  0  0  0  0
  128.5830  127.8420   69.5370 O   0  0  0  0  0  0  0  0  0  0  0  0
  128.8120  127.6360   68.1950 C   0  0  0  0  0  0  0  0  0  0  0  0
  128.0140  128.2930   67.2560 C   0  0  0  0  0  0  0  0  0  0  0  0
  128.2430  128.1000   65.8960 C   0  0  0  0  0  0  0  0  0  0  0  0
  129.2740  127.2570   65.4700 C   0  0  0  0  0  0  0  0  0  0  0  0
  129.5080  127.0330   63.9720 C   0  0  1  0  0  0  0  0  0  0  0  0
  129.5790  128.3670   63.1920 C   0  0  0  0  0  0  0  0  0  0  0  0
  130.5860  128.6660   62.3510 C   0  0  0  0  0  0  0  0  0  0  0  0
  131.6300  127.8050   62.1230 N   0  0  0  0  0  0  0  0  0  0  0  0
  131.6990  126.5830   62.7510 C   0  0  0  0  0  0  0  0  0  0  0  0
  132.7880  125.8480   62.4110 N   0  0  0  0  0  0  0  0  0  0  0  0
  133.0650  124.6470   62.9890 C   0  0  0  0  0  0  0  0  0  0  0  0
  134.2010  124.1790   62.8890 O   0  0  0  0  0  0  0  0  0  0  0  0
  132.0450  124.1550   63.7870 N   0  0  0  0  0  0  0  0  0  0  0  0
  132.2570  122.8120   64.3670 C   0  0  0  0  0  0  0  0  0  0  0  0
  130.9000  124.8160   64.1970 C   0  0  0  0  0  0  0  0  0  0  0  0
  130.0540  124.3320   64.9560 O   0  0  0  0  0  0  0  0  0  0  0  0
  130.7520  126.1600   63.6290 C   0  0  0  0  0  0  0  0  0  0  0  0
  130.3940  129.9810   61.7610 C   0  0  0  0  0  0  0  0  0  0  0  0
  131.1390  130.7340   60.8530 C   0  0  0  0  0  0  0  0  0  0  0  0
  130.6760  131.9960   60.4720 C   0  0  0  0  0  0  0  0  0  0  0  0
  129.4780  132.4940   60.9950 C   0  0  0  0  0  0  0  0  0  0  0  0
  128.7360  131.7350   61.9040 C   0  0  0  0  0  0  0  0  0  0  0  0
  129.2050  130.4750   62.2820 C   0  0  0  0  0  0  0  0  0  0  0  0
  128.6300  129.4760   63.2070 C   0  0  0  0  0  0  0  0  0  0  0  0
  127.5920  129.5180   63.8650 O   0  0  0  0  0  0  0  0  0  0  0  0
  130.0830  126.6150   66.4140 C   0  0  0  0  0  0  0  0  0  0  0  0
  129.8560  126.8090   67.7730 C   0  0  0  0  0  0  0  0  0  0  0  0
  129.6940  128.9880   72.0750 N   0  0  0  0  0  0  0  0  0  0  0  0
  129.0820  130.0630   71.5050 C   0  0  0  0  0  0  0  0  0  0  0  0
  128.9580  130.3030   70.3020 O   0  0  0  0  0  0  0  0  0  0  0  0
  128.5940  130.8870   72.6390 C   0  0  0  0  0  0  0  0  0  0  0  0
  127.8990  132.0980   72.6560 C   0  0  0  0  0  0  0  0  0  0  0  0
  127.5590  132.6560   73.8930 C   0  0  0  0  0  0  0  0  0  0  0  0
  127.9110  132.0060   75.0820 C   0  0  0  0  0  0  0  0  0  0  0  0
  128.6070  130.7930   75.0440 C   0  0  0  0  0  0  0  0  0  0  0  0
  128.9380  130.2520   73.8010 C   0  0  0  0  0  0  0  0  0  0  0  0
  129.6560  129.0040   73.4430 C   0  0  0  0  0  0  0  0  0  0  0  0
  130.1150  128.1600   74.2140 O   0  0  0  0  0  0  0  0  0  0  0  0
  2  1  1  6
  2  3  1  0
  3  4  2  0
  3  5  1  0
  5  6  1  0
  6  7  2  0
  7  8  1  0
  8  9  2  0
 10  9  1  1
 10 11  1  0
 11 12  2  0
 12 13  1  0
 13 14  1  0
 14 15  1  0
 15 16  1  0
 16 17  2  0
 16 18  1  0
 18 19  1  0
 18 20  1  0
 20 21  2  0
 20 22  1  0
 12 23  1  0
 23 24  2  0
 24 25  1  0
 25 26  2  0
 26 27  1  0
 27 28  2  0
 28 29  1  0
 29 30  2  0
  9 31  1  0
 31 32  2  0
  2 33  1  0
 33 34  1  0
 34 35  2  0
 34 36  1  0
 36 37  2  0
 37 38  1  0
 38 39  2  0
 39 40  1  0
 40 41  2  0
 41 42  1  0
 42 43  2  0
 32  6  1  0
 42 33  1  0
 22 10  1  0
 28 23  1  0
 41 36  1  0
 29 11  1  0
 22 14  2  0
M  END
>  <Binding energies>  (76) 
[-10.06]

>  <Ligand effiencies>  (76) 
[-0.22355555555555556]

>  <Interactions>  (76) 
["V-B:HIS:456:CE1:9041, V-A:ARG:545:CZ:4926, V-B:GLU:543:CD:9879, V-A:ASP:366:CG:3212, V-A:LEU:475:CD2:4258, V-A:GLU:543:CD:4908, V-A:GLU:543:CG:4907, V-A:GLY:454:CA:4048, V-A:HIS:456:CE1:4069, V-A:GLU:543:C:4902, V-B:HIS:456:CD2:9039, V-B:HIS:456:CG:9037, V-A:GLU:543:CB:4906, V-A:GLY:544:C:4912, V-A:ARG:545:CG:4922, V-B:TYR:484:CD1:9314, V-A:ARG:545:CA:4919, V-B:TYR:484:CE1:9316, V-A:PRO:540:CA:4883, H-A:LYS:547:NZ:4951, H-B:HIS:456:ND1:9038, V-B:HIS:456:CB:9036, H-A:ASP:366:OD1:3213, H-A:ASP:366:OD2:3214, V-B:ASP:473:CG:9211, H-A:GLY:454:N:4049, V-B:TYR:484:CG:9313, V-B:TYR:484:CB:9312, V-B:TYR:484:CD2:9315, V-B:ASP:473:CB:9210"]

$$$$
RR25_Rahimova_2017
     RDKit          3D

 39 44  0  0  0  0  0  0  0  0999 V2000
  124.8090  129.5640   67.7270 O   0  0  0  0  0  0  0  0  0  0  0  0
  125.7580  129.1600   67.0530 C   0  0  0  0  0  0  0  0  0  0  0  0
  126.8720  128.7650   67.7510 O   0  0  0  0  0  0  0  0  0  0  0  0
  127.8970  128.0670   67.1390 C   0  0  0  0  0  0  0  0  0  0  0  0
  128.6760  127.2500   67.9570 C   0  0  0  0  0  0  0  0  0  0  0  0
  129.7310  126.5250   67.4070 C   0  0  0  0  0  0  0  0  0  0  0  0
  130.0250  126.6080   66.0380 C   0  0  0  0  0  0  0  0  0  0  0  0
  131.1440  125.8280   65.4550 N   0  0  0  0  0  0  0  0  0  0  0  0
  130.9200  125.1220   64.4750 O   0  0  0  0  0  0  0  0  0  0  0  0
  132.2540  125.9170   65.9710 O   0  0  0  0  0  0  0  0  0  0  0  0
  129.2360  127.4470   65.2340 C   0  0  0  0  0  0  0  0  0  0  0  0
  128.1800  128.1870   65.7700 C   0  0  0  0  0  0  0  0  0  0  0  0
  127.2920  129.0980   64.9410 C   0  0  0  0  0  0  0  0  0  0  0  0
  125.8420  129.0670   65.5020 C   0  0  2  0  0  0  0  0  0  0  0  0
  124.9240  130.0650   64.7370 C   0  0  0  0  0  0  0  0  0  0  0  0
  124.1860  130.7660   65.4350 O   0  0  0  0  0  0  0  0  0  0  0  0
  125.0170  130.2510   63.3860 N   0  0  0  0  0  0  0  0  0  0  0  0
  125.6320  129.2560   62.4820 C   0  0  0  0  0  0  0  0  0  0  0  0
  126.3930  129.9980   61.3630 C   0  0  0  0  0  0  0  0  0  0  0  0
  125.5220  130.9440   60.6600 N   0  0  0  0  0  0  0  0  0  0  0  0
  126.2050  131.5530   59.5110 C   0  0  0  0  0  0  0  0  0  0  0  0
  127.0760  132.7760   59.9070 C   0  0  0  0  0  0  0  0  0  0  0  0
  128.5500  132.5490   59.9350 N   0  0  0  0  0  0  0  0  0  0  0  0
  129.1160  132.5050   61.1920 C   0  0  0  0  0  0  0  0  0  0  0  0
  128.4680  132.6760   62.2310 O   0  0  0  0  0  0  0  0  0  0  0  0
  130.6030  132.2090   61.2060 C   0  0  0  0  0  0  0  0  0  0  0  0
  131.2740  132.1160   62.4320 C   0  0  0  0  0  0  0  0  0  0  0  0
  132.6390  131.8370   62.4820 C   0  0  0  0  0  0  0  0  0  0  0  0
  133.3730  131.6400   61.3140 C   0  0  0  0  0  0  0  0  0  0  0  0
  132.7370  131.7250   60.0520 C   0  0  0  0  0  0  0  0  0  0  0  0
  133.4220  131.5340   58.8280 C   0  0  0  0  0  0  0  0  0  0  0  0
  132.7340  131.6280   57.6190 C   0  0  0  0  0  0  0  0  0  0  0  0
  131.3700  131.9110   57.5920 C   0  0  0  0  0  0  0  0  0  0  0  0
  130.6510  132.1070   58.7790 C   0  0  0  0  0  0  0  0  0  0  0  0
  131.3440  132.0120   60.0130 C   0  0  0  0  0  0  0  0  0  0  0  0
  129.1650  132.4040   58.7080 C   0  0  0  0  0  0  0  0  0  0  0  0
  128.5650  132.4900   57.6320 O   0  0  0  0  0  0  0  0  0  0  0  0
  125.0290  131.9570   61.5950 C   0  0  0  0  0  0  0  0  0  0  0  0
  124.2170  131.3220   62.7490 C   0  0  0  0  0  0  0  0  0  0  0  0
  1  2  2  0
  2  3  1  0
  3  4  1  0
  4  5  2  0
  5  6  1  0
  6  7  2  0
  7  8  1  0
  8  9  2  0
  8 10  1  0
  7 11  1  0
 11 12  2  0
 12 13  1  0
 13 14  1  0
 14 15  1  6
 15 16  2  0
 15 17  1  0
 17 18  1  0
 18 19  1  0
 19 20  1  0
 20 21  1  0
 21 22  1  0
 22 23  1  0
 23 24  1  0
 24 25  2  0
 24 26  1  0
 26 27  2  0
 27 28  1  0
 28 29  2  0
 29 30  1  0
 30 31  2  0
 31 32  1  0
 32 33  2  0
 33 34  1  0
 34 35  2  0
 34 36  1  0
 36 37  2  0
 20 38  1  0
 38 39  1  0
 14  2  1  0
 39 17  1  0
 12  4  1  0
 36 23  1  0
 35 26  1  0
 35 30  1  0
M  CHG  2   8   1  10  -1
M  END
>  <Binding energies>  (77) 
[-10.22]

>  <Ligand effiencies>  (77) 
[-0.2620512820512821]

>  <Interactions>  (77) 
["V-B:ASP:366:CG:8184, V-B:HIS:456:CE1:9041, V-B:GLU:543:CD:9879, V-A:ASP:366:CG:3212, V-A:GLU:543:CD:4908, V-A:ALA:541:CB:4892, V-A:GLU:543:CG:4907, V-A:TYR:539:CE2:4876, V-A:TYR:539:CD2:4874, V-A:HIS:456:CE1:4069, V-A:ASP:366:CB:3211, H-B:GLY:454:N:9021, V-A:ASN:362:CB:3175, V-A:PRO:540:C:4881, V-A:ALA:541:CA:4890, V-A:PRO:540:CB:4885, V-A:PRO:540:CA:4883, H-B:TYR:484:OH:9319, H-A:TYR:484:OH:4347, H-B:HIS:456:ND1:9038, V-B:ARG:545:CZ:9897, V-A:TYR:539:C:4867, H-A:ARG:545:NE:4924, V-B:ARG:545:CG:9893, V-A:LEU:363:CA:3184, V-A:PRO:540:N:4884, V-A:LEU:363:CD1:3188, V-A:ASN:362:C:3171"]

$$$$
RR27_Rahimova_2017
     RDKit          3D

 39 44  0  0  0  0  0  0  0  0999 V2000
  123.9890  131.1540   62.7580 O   0  0  0  0  0  0  0  0  0  0  0  0
  125.0530  131.7460   62.9600 C   0  0  0  0  0  0  0  0  0  0  0  0
  125.8020  132.3570   61.7390 C   0  0  0  0  0  0  0  0  0  0  0  0
  126.0050  133.8790   61.8540 C   0  0  0  0  0  0  0  0  0  0  0  0
  127.2510  134.4800   61.6170 C   0  0  0  0  0  0  0  0  0  0  0  0
  127.3990  135.8590   61.7280 C   0  0  0  0  0  0  0  0  0  0  0  0
  126.3040  136.6440   62.0760 C   0  0  0  0  0  0  0  0  0  0  0  0
  125.0630  136.0630   62.3180 C   0  0  0  0  0  0  0  0  0  0  0  0
  124.9150  134.6830   62.2070 C   0  0  0  0  0  0  0  0  0  0  0  0
  125.1990  131.8820   60.4030 C   0  0  0  0  0  0  0  0  0  0  0  0
  123.9130  132.2640   59.9970 C   0  0  0  0  0  0  0  0  0  0  0  0
  123.3940  131.8070   58.7880 C   0  0  0  0  0  0  0  0  0  0  0  0
  124.1560  130.9630   57.9840 C   0  0  0  0  0  0  0  0  0  0  0  0
  125.4310  130.5670   58.3810 C   0  0  0  0  0  0  0  0  0  0  0  0
  125.9480  131.0230   59.5890 C   0  0  0  0  0  0  0  0  0  0  0  0
  125.5000  132.0030   64.2220 N   0  0  0  0  0  0  0  0  0  0  0  0
  126.8630  132.4690   64.5210 C   0  0  0  0  0  0  0  0  0  0  0  0
  127.7450  131.2090   64.6680 C   0  0  0  0  0  0  0  0  0  0  0  0
  127.1920  130.2060   65.7290 C   0  0  0  0  0  0  0  0  0  0  0  0
  127.9720  128.8820   65.8340 C   0  0  0  0  0  0  0  0  0  0  0  0
  128.6020  128.4570   64.7000 N   0  0  0  0  0  0  0  0  0  0  0  0
  129.3280  127.3060   64.7470 C   0  0  0  0  0  0  0  0  0  0  0  0
  130.0060  126.7810   63.6790 O   0  0  0  0  0  0  0  0  0  0  0  0
  129.3980  126.6000   65.9630 C   0  0  0  0  0  0  0  0  0  0  0  0
  130.0220  125.4500   66.3500 N   0  0  0  0  0  0  0  0  0  0  0  0
  129.7200  125.2460   67.6830 N   0  0  0  0  0  0  0  0  0  0  0  0
  128.9310  126.2550   68.1100 N   0  0  0  0  0  0  0  0  0  0  0  0
  128.4370  126.2790   69.4850 C   0  0  0  0  0  0  0  0  0  0  0  0
  129.3650  126.9960   70.4560 C   0  0  0  0  0  0  0  0  0  0  0  0
  130.0600  128.1400   70.0520 C   0  0  0  0  0  0  0  0  0  0  0  0
  130.9020  128.8030   70.9470 C   0  0  0  0  0  0  0  0  0  0  0  0
  131.0490  128.3290   72.2500 C   0  0  0  0  0  0  0  0  0  0  0  0
  130.3510  127.1930   72.6620 C   0  0  0  0  0  0  0  0  0  0  0  0
  130.5110  126.6200   74.2830 Cl  0  0  0  0  0  0  0  0  0  0  0  0
  129.5150  126.5250   71.7660 C   0  0  0  0  0  0  0  0  0  0  0  0
  128.6940  127.1330   67.0650 C   0  0  0  0  0  0  0  0  0  0  0  0
  127.9690  128.2540   67.0450 N   0  0  0  0  0  0  0  0  0  0  0  0
  125.6510  130.0060   65.5930 C   0  0  0  0  0  0  0  0  0  0  0  0
  124.8800  131.3330   65.3760 C   0  0  0  0  0  0  0  0  0  0  0  0
  1  2  2  0
  2  3  1  0
  3  4  1  0
  4  5  2  0
  5  6  1  0
  6  7  2  0
  7  8  1  0
  8  9  2  0
  3 10  1  0
 10 11  2  0
 11 12  1  0
 12 13  2  0
 13 14  1  0
 14 15  2  0
  2 16  1  0
 16 17  1  0
 17 18  1  0
 18 19  1  0
 19 20  1  0
 20 21  2  0
 21 22  1  0
 22 23  1  0
 22 24  2  0
 24 25  1  0
 25 26  2  0
 26 27  1  0
 27 28  1  0
 28 29  1  0
 29 30  2  0
 30 31  1  0
 31 32  2  0
 32 33  1  0
 33 34  1  0
 33 35  2  0
 27 36  1  0
 36 37  2  0
 19 38  1  0
 38 39  1  0
  9  4  1  0
 15 10  1  0
 39 16  1  0
 37 20  1  0
 36 24  1  0
 35 29  1  0
M  END
>  <Binding energies>  (78) 
[-10.28]

>  <Ligand effiencies>  (78) 
[-0.257]

>  <Interactions>  (78) 
["V-B:HIS:456:CE1:9041, V-B:GLU:543:CD:9879, V-B:ILE:369:CB:8207, V-A:GLU:543:CD:4908, V-B:GLY:454:CA:9020, V-A:ALA:541:CB:4892, V-B:TRP:381:CZ2:8341, V-B:ILE:369:CD1:8210, V-A:GLU:543:CG:4907, V-B:PRO:482:CB:9297, V-B:PRO:482:CG:9298, V-B:LEU:475:CD1:9229, V-B:ILE:369:CG2:8208, V-B:TRP:381:CH2:8343, V-A:TYR:539:CE2:4876, V-A:TYR:539:CD2:4874, V-A:HIS:456:CE1:4069, V-A:GLU:543:C:4902, V-A:GLU:543:CB:4906, V-A:HIS:456:CD2:4067, V-B:GLU:543:CG:9878, V-B:GLU:543:CB:9877, H-B:GLY:454:N:9021, V-B:ASP:366:CB:8183, V-B:ASP:366:CA:8181, V-B:ASP:366:C:8179, V-B:TRP:381:CE2:8338"]

$$$$
RR28_Rahimova_2017
     RDKit          3D

 46 49  0  0  0  0  0  0  0  0999 V2000
  132.7310  119.8980   59.9330 C   0  0  0  0  0  0  0  0  0  0  0  0
  131.7230  120.6020   60.8360 C   0  0  0  0  0  0  0  0  0  0  0  0
  130.9950  119.9350   61.5680 O   0  0  0  0  0  0  0  0  0  0  0  0
  131.6980  121.9480   60.7670 N   0  0  0  0  0  0  0  0  0  0  0  0
  130.8280  122.8870   61.5120 C   0  0  0  0  0  0  0  0  0  0  0  0
  131.6680  123.5250   62.6550 C   0  0  0  0  0  0  0  0  0  0  0  0
  131.1810  123.4860   63.9710 C   0  0  0  0  0  0  0  0  0  0  0  0
  131.9030  124.0490   65.0180 C   0  0  0  0  0  0  0  0  0  0  0  0
  133.1310  124.6670   64.7740 C   0  0  0  0  0  0  0  0  0  0  0  0
  133.9080  125.2850   65.9360 C   0  0  0  0  0  0  0  0  0  0  0  0
  134.2670  124.3760   66.8450 F   0  0  0  0  0  0  0  0  0  0  0  0
  135.0140  125.8800   65.4890 F   0  0  0  0  0  0  0  0  0  0  0  0
  133.1440  126.1970   66.5380 F   0  0  0  0  0  0  0  0  0  0  0  0
  133.6270  124.7140   63.4680 C   0  0  0  0  0  0  0  0  0  0  0  0
  132.9030  124.1500   62.4210 C   0  0  0  0  0  0  0  0  0  0  0  0
  129.5310  122.1570   62.0120 C   0  0  0  0  0  0  0  0  0  0  0  0
  128.6060  121.6900   60.8590 C   0  0  0  0  0  0  0  0  0  0  0  0
  128.2500  122.8980   60.0970 N   0  0  0  0  0  0  0  0  0  0  0  0
  127.1070  123.5790   60.3810 C   0  0  0  0  0  0  0  0  0  0  0  0
  126.2550  123.1320   61.1530 O   0  0  0  0  0  0  0  0  0  0  0  0
  126.7890  124.8710   59.5910 C   0  0  0  0  0  0  0  0  0  0  0  0
  126.3750  126.1030   60.4420 C   0  0  0  0  0  0  0  0  0  0  0  0
  127.5500  126.9200   61.0290 C   0  0  0  0  0  0  0  0  0  0  0  0
  128.5330  126.3010   61.4470 O   0  0  0  0  0  0  0  0  0  0  0  0
  127.5360  128.2800   60.9450 N   0  0  0  0  0  0  0  0  0  0  0  0
  126.3090  129.0650   60.7610 C   0  0  0  0  0  0  0  0  0  0  0  0
  125.7110  129.2860   62.1680 C   0  0  0  0  0  0  0  0  0  0  0  0
  126.6780  129.9800   63.1900 C   0  0  0  0  0  0  0  0  0  0  0  0
  126.1640  129.7730   64.5600 N   0  0  0  0  0  0  0  0  0  0  0  0
  124.8930  129.8850   64.9970 C   0  0  0  0  0  0  0  0  0  0  0  0
  124.6650  129.6280   66.4830 C   0  0  0  0  0  0  0  0  0  0  0  0
  123.9400  130.1770   64.2770 O   0  0  0  0  0  0  0  0  0  0  0  0
  126.6430  131.5150   62.8990 C   0  0  0  0  0  0  0  0  0  0  0  0
  125.4450  132.2350   62.7550 C   0  0  0  0  0  0  0  0  0  0  0  0
  125.4580  133.6040   62.4970 C   0  0  0  0  0  0  0  0  0  0  0  0
  126.6690  134.2870   62.3740 C   0  0  0  0  0  0  0  0  0  0  0  0
  126.7000  135.7890   62.0950 C   0  0  0  0  0  0  0  0  0  0  0  0
  125.4880  136.2280   61.7490 F   0  0  0  0  0  0  0  0  0  0  0  0
  127.0860  136.4310   63.1970 F   0  0  0  0  0  0  0  0  0  0  0  0
  127.5450  136.1010   61.1110 F   0  0  0  0  0  0  0  0  0  0  0  0
  127.8680  133.5840   62.5060 C   0  0  0  0  0  0  0  0  0  0  0  0
  127.8520  132.2170   62.7640 C   0  0  0  0  0  0  0  0  0  0  0  0
  128.1180  129.3520   63.0420 C   0  0  0  0  0  0  0  0  0  0  0  0
  128.5930  129.0690   61.5910 C   0  0  0  0  0  0  0  0  0  0  0  0
  129.3990  123.5230   59.4260 C   0  0  0  0  0  0  0  0  0  0  0  0
  130.3600  124.0180   60.5390 C   0  0  0  0  0  0  0  0  0  0  0  0
  1  2  1  0
  2  3  2  0
  2  4  1  0
  4  5  1  0
  5  6  1  0
  6  7  2  0
  7  8  1  0
  8  9  2  0
  9 10  1  0
 10 11  1  0
 10 12  1  0
 10 13  1  0
  9 14  1  0
 14 15  2  0
  5 16  1  0
 16 17  1  0
 17 18  1  0
 18 19  1  0
 19 20  2  0
 19 21  1  0
 21 22  1  0
 22 23  1  0
 23 24  2  0
 23 25  1  0
 25 26  1  0
 26 27  1  0
 27 28  1  0
 28 29  1  0
 29 30  1  0
 30 31  1  0
 30 32  2  0
 28 33  1  0
 33 34  2  0
 34 35  1  0
 35 36  2  0
 36 37  1  0
 37 38  1  0
 37 39  1  0
 37 40  1  0
 36 41  1  0
 41 42  2  0
 28 43  1  0
 43 44  1  0
 18 45  1  0
 45 46  1  0
 46  5  1  0
 15  6  1  0
 44 25  1  0
 42 33  1  0
M  END
>  <Binding energies>  (79) 
[-8.51]

>  <Ligand effiencies>  (79) 
[-0.17729166666666665]

>  <Interactions>  (79) 
["V-B:ASP:366:CG:8184, V-A:ARG:545:CZ:4926, V-A:LEU:475:CD2:4258, V-A:TYR:484:CZ:4346, V-A:ALA:541:CB:4892, V-B:TRP:381:CZ2:8341, V-B:PRO:482:CB:9297, V-B:PRO:482:CG:9298, V-B:LEU:475:CD1:9229, V-B:TRP:381:CH2:8343, V-A:GLY:453:CA:4043, V-A:TYR:539:CD2:4874, V-A:GLY:454:CA:4048, V-A:HIS:456:CE1:4069, V-B:TYR:539:CD2:9845, V-A:ILE:369:CG2:3236, V-B:TYR:539:CE2:9847, V-B:ALA:541:CB:9863, V-A:ARG:545:CG:4922, H-B:GLY:454:N:9021, H-B:ARG:545:NH2:9899, H-B:GLU:543:OE1:9880, V-B:TYR:539:CZ:9848, V-B:PRO:540:C:9852, V-B:ALA:541:CA:9861, V-A:TRP:381:CZ2:3369, V-B:PRO:540:CA:9854, V-A:TRP:381:CH2:3371, H-B:ARG:545:NH1:9898, V-B:ARG:545:CZ:9897, H-B:ALA:541:N:9862, V-A:TYR:539:C:4867, V-B:ARG:545:CG:9893, V-A:ARG:545:CD:4923, V-B:ARG:545:CD:9894, V-A:GLY:453:C:4041, V-B:TRP:381:CZ3:8342, V-A:GLY:454:C:4046, V-A:ILE:455:C:4051, V-A:ILE:455:CA:4053"]

$$$$
RR29_Rahimova_2017
     RDKit          3D

 18 19  0  0  0  0  0  0  0  0999 V2000
  129.7500  124.4660   67.4520 C   0  0  0  0  0  0  0  0  0  0  0  0
  129.9060  125.7820   66.7040 C   0  0  0  0  0  0  0  0  0  0  0  0
  129.3310  126.9880   67.4810 C   0  0  0  0  0  0  0  0  0  0  0  0
  128.4430  126.5370   68.6590 C   0  0  0  0  0  0  0  0  0  0  0  0
  129.0440  126.9010   70.0080 C   0  0  0  0  0  0  0  0  0  0  0  0
  130.0190  127.9150   70.0920 C   0  0  0  0  0  0  0  0  0  0  0  0
  130.5860  128.2680   71.3250 C   0  0  0  0  0  0  0  0  0  0  0  0
  130.1590  127.5730   72.4510 C   0  0  0  0  0  0  0  0  0  0  0  0
  129.2150  126.5880   72.3750 C   0  0  0  0  0  0  0  0  0  0  0  0
  128.6280  126.2240   71.1670 C   0  0  0  0  0  0  0  0  0  0  0  0
  128.9650  126.1070   73.6210 O   0  0  0  0  0  0  0  0  0  0  0  0
  129.9420  126.6800   74.4510 C   0  0  0  0  0  0  0  0  0  0  0  0
  130.5290  127.7420   73.7480 O   0  0  0  0  0  0  0  0  0  0  0  0
  130.4630  125.7710   65.5510 N   0  0  0  0  0  0  0  0  0  0  0  0
  130.5280  126.9460   64.8350 N   0  0  0  0  0  0  0  0  0  0  0  0
  129.6660  127.2830   63.8620 C   0  0  0  0  0  0  0  0  0  0  0  0
  128.6280  126.5400   63.4730 N   0  0  0  0  0  0  0  0  0  0  0  0
  129.8560  128.4380   63.2420 N   0  0  0  0  0  0  0  0  0  0  0  0
  1  2  1  0
  2  3  1  0
  3  4  1  0
  4  5  1  0
  5  6  2  0
  6  7  1  0
  7  8  2  0
  8  9  1  0
  9 10  2  0
  9 11  1  0
 11 12  1  0
 12 13  1  0
  2 14  2  0
 14 15  1  0
 15 16  1  0
 16 17  1  0
 16 18  2  0
 10  5  1  0
 13  8  1  0
M  CHG  1  18   1
M  END
>  <Binding energies>  (80) 
[-7.44]

>  <Ligand effiencies>  (80) 
[-0.3234782608695652]

>  <Interactions>  (80) 
["V-B:HIS:456:CE1:9041, V-B:GLU:543:CD:9879, V-A:TYR:484:CZ:4346, V-A:GLU:543:CD:4908, V-A:HIS:456:CE1:4069, V-A:GLU:543:CB:4906, V-B:GLU:543:CG:9878, V-B:GLU:543:CB:9877, H-B:GLU:543:OE2:9881, H-B:LYS:547:NZ:9922, H-A:LYS:547:NZ:4951, H-A:GLU:543:OE1:4909, H-A:GLU:543:OE2:4910, V-A:TYR:484:CE1:4344, V-B:GLU:543:CA:9875"]

$$$$
RR30_Rahimova_2017
     RDKit          3D

 18 19  0  0  0  0  0  0  0  0999 V2000
  127.6300  130.6570   57.4080 C   0  0  0  0  0  0  0  0  0  0  0  0
  126.2000  130.1130   57.2780 C   0  0  0  0  0  0  0  0  0  0  0  0
  125.1780  131.0280   57.9170 C   0  0  0  0  0  0  0  0  0  0  0  0
  124.0620  131.4810   57.4010 N   0  0  0  0  0  0  0  0  0  0  0  0
  123.4890  132.2880   58.3810 N   0  0  0  0  0  0  0  0  0  0  0  0
  124.3110  132.2610   59.3990 C   0  0  0  0  0  0  0  0  0  0  0  0
  124.1290  133.0790   60.9510 S   0  0  0  0  0  0  0  0  0  0  0  0
  125.6290  134.1100   60.9400 C   0  0  0  0  0  0  0  0  0  0  0  0
  126.8960  133.2910   61.2030 C   0  0  0  0  0  0  0  0  0  0  0  0
  126.8540  132.3600   62.0100 O   0  0  0  0  0  0  0  0  0  0  0  0
  128.0040  133.6850   60.5350 N   0  0  0  0  0  0  0  0  0  0  0  0
  129.2610  133.1050   60.6120 C   0  0  0  0  0  0  0  0  0  0  0  0
  129.9860  132.8710   61.6820 N   0  0  0  0  0  0  0  0  0  0  0  0
  131.2030  132.2740   61.3770 N   0  0  0  0  0  0  0  0  0  0  0  0
  131.3730  132.0680   60.0910 C   0  0  0  0  0  0  0  0  0  0  0  0
  132.6170  131.4350   59.5120 C   0  0  0  0  0  0  0  0  0  0  0  0
  130.0190  132.6020   59.1330 S   0  0  0  0  0  0  0  0  0  0  0  0
  125.4000  131.4800   59.1770 O   0  0  0  0  0  0  0  0  0  0  0  0
  1  2  1  0
  2  3  1  0
  3  4  2  0
  4  5  1  0
  5  6  2  0
  6  7  1  0
  7  8  1  0
  8  9  1  0
  9 10  2  0
  9 11  1  0
 11 12  1  0
 12 13  2  0
 13 14  1  0
 14 15  2  0
 15 16  1  0
 15 17  1  0
  6 18  1  0
 18  3  1  0
 17 12  1  0
M  END
>  <Binding energies>  (81) 
[-6.01]

>  <Ligand effiencies>  (81) 
[-0.3163157894736842]

>  <Interactions>  (81) 
["V-B:ILE:369:CB:8207, V-B:ILE:369:CG2:8208, V-A:TYR:539:CE2:4876, V-A:TYR:539:CD2:4874, V-A:PRO:540:CB:4885, V-A:PRO:540:CA:4883, V-A:TYR:539:C:4867, H-A:TYR:539:O:4868, H-A:ALA:541:N:4891, V-A:PRO:540:N:4884, V-A:TYR:539:CZ:4877, H-A:TYR:539:OH:4878, H-B:ASN:370:N:8215"]

$$$$
RR31_Rahimova_2017
     RDKit          3D

 18 19  0  0  0  0  0  0  0  0999 V2000
  134.2460  119.7040   61.3920 C   0  0  0  0  0  0  0  0  0  0  0  0
  132.9050  120.4240   61.3300 C   0  0  0  0  0  0  0  0  0  0  0  0
  131.8230  119.7950   60.7130 C   0  0  0  0  0  0  0  0  0  0  0  0
  130.5820  120.4250   60.6430 C   0  0  0  0  0  0  0  0  0  0  0  0
  130.3840  121.7010   61.1950 C   0  0  0  0  0  0  0  0  0  0  0  0
  129.1490  122.3500   61.1240 N   0  0  0  0  0  0  0  0  0  0  0  0
  128.1200  121.9660   60.1400 C   0  0  0  0  0  0  0  0  0  0  0  0
  127.0170  123.0310   59.9320 C   0  0  0  0  0  0  0  0  0  0  0  0
  126.3750  123.3750   61.2030 N   0  0  0  0  0  0  0  0  0  0  0  0
  125.3000  124.3570   61.0330 C   0  0  0  0  0  0  0  0  0  0  0  0
  124.3510  124.0170   59.8670 C   0  0  0  0  0  0  0  0  0  0  0  0
  124.9130  124.4670   58.5090 C   0  0  0  0  0  0  0  0  0  0  0  0
  124.7650  125.9860   58.3580 N   0  0  0  0  0  0  0  0  0  0  0  0
  127.4090  123.9220   62.0810 C   0  0  0  0  0  0  0  0  0  0  0  0
  128.5130  122.8740   62.3490 C   0  0  0  0  0  0  0  0  0  0  0  0
  131.4830  122.3260   61.8040 C   0  0  0  0  0  0  0  0  0  0  0  0
  132.7340  121.7040   61.8800 C   0  0  0  0  0  0  0  0  0  0  0  0
  133.8890  122.4370   62.5520 C   0  0  0  0  0  0  0  0  0  0  0  0
  1  2  1  0
  2  3  2  0
  3  4  1  0
  4  5  2  0
  5  6  1  0
  6  7  1  0
  7  8  1  0
  8  9  1  0
  9 10  1  0
 10 11  1  0
 11 12  1  0
 12 13  1  0
  9 14  1  0
 14 15  1  0
  5 16  1  0
 16 17  2  0
 17 18  1  0
 17  2  1  0
 15  6  1  0
M  CHG  1  13   1
M  END
>  <Binding energies>  (82) 
[-6.98]

>  <Ligand effiencies>  (82) 
[-0.3323809523809524]

>  <Interactions>  (82) 
["V-B:ASP:366:CG:8184, V-B:GLU:543:CD:9879, V-A:LEU:475:CD2:4258, V-A:ILE:369:CD1:3238, V-A:GLY:454:CA:4048, V-B:TYR:539:CD2:9845, V-A:ILE:369:CG2:3236, V-B:TYR:539:CE2:9847, V-B:ALA:541:CB:9863, V-B:ASP:366:CB:8183, V-B:PRO:540:C:9852, V-B:ALA:541:CA:9861, V-A:SER:385:C:3404, V-A:SER:385:CB:3408, V-B:PRO:540:N:9855, V-A:TRP:381:CZ2:3369, V-A:SER:385:CA:3406, V-B:TYR:539:C:9838, V-B:PRO:540:CA:9854, V-A:TRP:381:CH2:3371, H-B:ALA:541:N:9862, H-B:ASP:366:OD2:8186, V-B:PRO:540:CB:9856, H-B:TYR:531:OH:9766, V-B:LEU:363:CA:8156, V-B:ASN:362:C:8143, V-B:TYR:531:CE2:9764, V-B:TYR:531:CZ:9765"]

$$$$
RR32_Rahimova_2017
     RDKit          3D

 18 20  0  0  0  0  0  0  0  0999 V2000
  126.7160  123.0740   57.2650 C   0  0  0  0  0  0  0  0  0  0  0  0
  127.0350  122.9760   58.7530 C   0  0  0  0  0  0  0  0  0  0  0  0
  128.2580  122.4210   59.1300 C   0  0  0  0  0  0  0  0  0  0  0  0
  128.5850  122.3190   60.4790 C   0  0  0  0  0  0  0  0  0  0  0  0
  129.7990  121.7670   60.8500 N   0  0  0  0  0  0  0  0  0  0  0  0
  129.9580  120.3110   60.6840 C   0  0  0  0  0  0  0  0  0  0  0  0
  131.2730  119.7670   61.2910 C   0  0  0  0  0  0  0  0  0  0  0  0
  132.4240  120.4340   60.6830 N   0  0  0  0  0  0  0  0  0  0  0  0
  133.6650  119.8980   61.2330 C   0  0  0  0  0  0  0  0  0  0  0  0
  132.3190  121.8630   60.9680 C   0  0  0  0  0  0  0  0  0  0  0  0
  131.0190  122.4380   60.3590 C   0  0  0  0  0  0  0  0  0  0  0  0
  127.7540  122.7390   61.4680 N   0  0  0  0  0  0  0  0  0  0  0  0
  126.5530  123.2830   61.1320 C   0  0  0  0  0  0  0  0  0  0  0  0
  125.7060  123.7110   62.1830 C   0  0  0  0  0  0  0  0  0  0  0  0
  124.4670  124.2740   61.8990 C   0  0  0  0  0  0  0  0  0  0  0  0
  124.0460  124.4240   60.5830 C   0  0  0  0  0  0  0  0  0  0  0  0
  124.8540  124.0140   59.5270 C   0  0  0  0  0  0  0  0  0  0  0  0
  126.1320  123.4310   59.7700 C   0  0  0  0  0  0  0  0  0  0  0  0
  1  2  1  0
  2  3  2  0
  3  4  1  0
  4  5  1  0
  5  6  1  0
  6  7  1  0
  7  8  1  0
  8  9  1  0
  8 10  1  0
 10 11  1  0
  4 12  2  0
 12 13  1  0
 13 14  2  0
 14 15  1  0
 15 16  2  0
 16 17  1  0
 17 18  2  0
 18  2  1  0
 11  5  1  0
 18 13  1  0
M  END
>  <Binding energies>  (83) 
[-6.52]

>  <Ligand effiencies>  (83) 
[-0.3622222222222222]

>  <Interactions>  (83) 
["V-B:ASP:366:CG:8184, V-B:GLU:543:CD:9879, V-A:LEU:475:CD2:4258, V-B:TYR:539:CD2:9845, V-A:ILE:369:CG2:3236, V-B:TYR:539:CE2:9847, V-B:ALA:541:CB:9863, V-B:GLU:543:CG:9878, V-B:PRO:540:C:9852, V-B:PRO:540:N:9855, V-A:TRP:381:CZ2:3369, V-B:TYR:539:C:9838, V-B:PRO:540:CA:9854, V-A:TRP:381:CH2:3371, V-B:ARG:545:CZ:9897, H-B:ALA:541:N:9862, V-B:PRO:540:CB:9856, V-B:LEU:363:CA:8156, V-B:ASN:362:CB:8147, V-B:ASN:362:C:8143"]

$$$$
RR5_Rahimova_2017
     RDKit          3D

 45 50  0  0  0  0  0  0  0  0999 V2000
  128.2820  122.4530   58.8420 O   0  0  0  0  0  0  0  0  0  0  0  0
  127.8750  123.3250   59.6070 C   0  0  0  0  0  0  0  0  0  0  0  0
  126.4350  123.8550   59.4650 C   0  0  0  0  0  0  0  0  0  0  0  0
  125.8460  124.4640   60.7870 C   0  0  2  0  0  0  0  0  0  0  0  0
  126.5070  125.7000   61.2520 N   0  0  0  0  0  0  0  0  0  0  0  0
  126.9110  126.6870   60.3640 C   0  0  0  0  0  0  0  0  0  0  0  0
  126.7430  126.6920   59.1420 O   0  0  0  0  0  0  0  0  0  0  0  0
  127.5420  127.6500   61.0590 O   0  0  0  0  0  0  0  0  0  0  0  0
  127.3800  127.7760   62.4690 C   0  0  0  0  0  0  0  0  0  0  0  0
  127.0940  129.2430   62.8590 C   0  0  0  0  0  0  0  0  0  0  0  0
  126.0470  129.9120   61.9870 C   0  0  0  0  0  0  0  0  0  0  0  0
  126.0320  130.1020   60.6020 C   0  0  0  0  0  0  0  0  0  0  0  0
  124.9420  130.7310   59.9980 C   0  0  0  0  0  0  0  0  0  0  0  0
  123.8690  131.1720   60.7740 C   0  0  0  0  0  0  0  0  0  0  0  0
  123.8820  130.9850   62.1570 C   0  0  0  0  0  0  0  0  0  0  0  0
  124.9730  130.3560   62.7590 C   0  0  0  0  0  0  0  0  0  0  0  0
  125.2520  130.0410   64.1690 C   0  0  0  0  0  0  0  0  0  0  0  0
  124.5130  130.2850   65.3290 C   0  0  0  0  0  0  0  0  0  0  0  0
  125.0250  129.8960   66.5680 C   0  0  0  0  0  0  0  0  0  0  0  0
  126.2690  129.2660   66.6460 C   0  0  0  0  0  0  0  0  0  0  0  0
  127.0020  129.0210   65.4840 C   0  0  0  0  0  0  0  0  0  0  0  0
  126.4920  129.4050   64.2420 C   0  0  0  0  0  0  0  0  0  0  0  0
  125.8450  123.4140   61.9250 C   0  0  0  0  0  0  0  0  0  0  0  0
  124.9670  122.5940   62.1100 O   0  0  0  0  0  0  0  0  0  0  0  0
  126.9840  123.5400   62.6670 O   0  0  0  0  0  0  0  0  0  0  0  0
  128.5950  123.8590   60.6200 N   0  0  0  0  0  0  0  0  0  0  0  0
  129.9880  123.6470   61.1140 C   0  0  0  0  0  0  0  0  0  0  0  0
  130.8350  124.4200   60.0470 C   0  0  0  0  0  0  0  0  0  0  0  0
  132.2390  124.3960   60.0680 C   0  0  0  0  0  0  0  0  0  0  0  0
  132.9810  125.0860   59.1130 C   0  0  0  0  0  0  0  0  0  0  0  0
  132.3310  125.8190   58.1270 C   0  0  0  0  0  0  0  0  0  0  0  0
  130.9430  125.8590   58.0800 C   0  0  0  0  0  0  0  0  0  0  0  0
  130.2020  125.1610   59.0290 C   0  0  0  0  0  0  0  0  0  0  0  0
  130.0820  124.2910   62.5380 C   0  0  0  0  0  0  0  0  0  0  0  0
  130.0810  123.5080   63.7030 C   0  0  0  0  0  0  0  0  0  0  0  0
  130.1460  124.1040   64.9610 C   0  0  0  0  0  0  0  0  0  0  0  0
  130.2100  125.4890   65.0690 C   0  0  0  0  0  0  0  0  0  0  0  0
  130.2160  126.2850   63.9280 C   0  0  0  0  0  0  0  0  0  0  0  0
  130.1600  125.6890   62.6730 C   0  0  0  0  0  0  0  0  0  0  0  0
  130.2310  122.1000   61.0790 C   0  0  0  0  0  0  0  0  0  0  0  0
  129.1950  121.1980   61.3820 C   0  0  0  0  0  0  0  0  0  0  0  0
  129.4060  119.8220   61.3610 C   0  0  0  0  0  0  0  0  0  0  0  0
  130.6600  119.3220   61.0300 C   0  0  0  0  0  0  0  0  0  0  0  0
  131.7000  120.1880   60.7120 C   0  0  0  0  0  0  0  0  0  0  0  0
  131.4840  121.5630   60.7340 C   0  0  0  0  0  0  0  0  0  0  0  0
  1  2  2  0
  2  3  1  0
  4  3  1  6
  4  5  1  0
  5  6  1  0
  6  7  2  0
  6  8  1  0
  8  9  1  0
  9 10  1  0
 10 11  1  0
 11 12  2  0
 12 13  1  0
 13 14  2  0
 14 15  1  0
 15 16  2  0
 16 17  1  0
 17 18  2  0
 18 19  1  0
 19 20  2  0
 20 21  1  0
 21 22  2  0
  4 23  1  0
 23 24  2  0
 23 25  1  0
  2 26  1  0
 26 27  1  0
 27 28  1  0
 28 29  2  0
 29 30  1  0
 30 31  2  0
 31 32  1  0
 32 33  2  0
 27 34  1  0
 34 35  2  0
 35 36  1  0
 36 37  2  0
 37 38  1  0
 38 39  2  0
 27 40  1  0
 40 41  2  0
 41 42  1  0
 42 43  2  0
 43 44  1  0
 44 45  2  0
 22 10  1  0
 33 28  1  0
 39 34  1  0
 45 40  1  0
 16 11  1  0
 22 17  1  0
M  END
>  <Binding energies>  (84) 
[-10.44]

>  <Ligand effiencies>  (84) 
[-0.2175]

>  <Interactions>  (84) 
["V-B:ASP:366:CG:8184, V-B:HIS:456:CE1:9041, V-B:GLU:543:CD:9879, V-A:ASP:366:CG:3212, V-A:LEU:475:CD2:4258, V-B:GLY:454:CA:9020, V-B:ILE:369:CD1:8210, V-B:TYR:539:CD2:9845, V-A:ILE:369:CG2:3236, V-B:TYR:539:CE2:9847, V-A:ASP:366:CB:3211, V-A:ASP:366:CA:3209, V-B:ALA:541:CB:9863, V-B:GLU:543:CG:9878, H-B:GLU:543:OE2:9881, V-B:ASP:366:CB:8183, V-B:PRO:540:C:9852, V-B:ALA:541:CA:9861, V-A:TRP:381:CZ2:3369, V-B:TYR:539:C:9838, V-B:PRO:540:CA:9854, V-A:TRP:381:CH2:3371, V-B:ARG:545:CZ:9897, H-B:ALA:541:N:9862, H-B:ASP:366:OD2:8186, V-B:PRO:540:CB:9856, V-B:ASP:366:CA:8181, V-A:ASP:366:C:3207, V-A:PRO:482:CB:4325, V-A:PRO:482:CG:4326"]

$$$$
