1a_Ghoteimi_2023
     RDKit          3D

 40 43  0  0  0  0  0  0  0  0999 V2000
  126.8140  129.1700   57.3000 C   0  0  0  0  0  0  0  0  0  0  0  0
  126.0670  130.5080   57.3130 C   0  0  0  0  0  0  0  0  0  0  0  0
  124.7900  130.3280   57.9140 O   0  0  0  0  0  0  0  0  0  0  0  0
  124.2680  131.2660   58.7450 C   0  0  0  0  0  0  0  0  0  0  0  0
  123.6430  132.2550   58.3490 O   0  0  0  0  0  0  0  0  0  0  0  0
  124.5230  130.9780   60.1970 C   0  0  0  0  0  0  0  0  0  0  0  0
  123.7630  131.5720   61.2160 C   0  0  0  0  0  0  0  0  0  0  0  0
  124.0250  131.2880   62.5530 C   0  0  0  0  0  0  0  0  0  0  0  0
  125.0530  130.3970   62.8970 C   0  0  0  0  0  0  0  0  0  0  0  0
  125.4070  130.0430   64.2130 N   0  0  0  0  0  0  0  0  0  0  0  0
  124.6220  129.6930   65.2550 C   0  0  0  0  0  0  0  0  0  0  0  0
  123.3950  129.6040   65.2300 O   0  0  0  0  0  0  0  0  0  0  0  0
  125.3600  129.3830   66.5580 C   0  0  0  0  0  0  0  0  0  0  0  0
  127.0970  129.9110   66.4890 S   0  0  0  0  0  0  0  0  0  0  0  0
  128.0700  128.4570   66.8120 C   0  0  0  0  0  0  0  0  0  0  0  0
  128.1550  128.1340   68.1250 N   0  0  0  0  0  0  0  0  0  0  0  0
  128.8660  127.0400   68.5060 C   0  0  0  0  0  0  0  0  0  0  0  0
  128.8970  126.7370   69.9760 C   0  0  0  0  0  0  0  0  0  0  0  0
  129.6040  127.5520   70.8750 C   0  0  0  0  0  0  0  0  0  0  0  0
  129.6290  127.2690   72.2370 C   0  0  0  0  0  0  0  0  0  0  0  0
  128.9520  126.1620   72.7440 C   0  0  0  0  0  0  0  0  0  0  0  0
  129.0300  125.9590   74.1090 O   0  0  0  0  0  0  0  0  0  0  0  0
  130.0480  125.1110   74.6270 C   0  0  0  0  0  0  0  0  0  0  0  0
  128.2450  125.3370   71.8600 C   0  0  0  0  0  0  0  0  0  0  0  0
  128.2220  125.6230   70.4980 C   0  0  0  0  0  0  0  0  0  0  0  0
  129.5140  126.2440   67.5530 C   0  0  0  0  0  0  0  0  0  0  0  0
  129.4600  126.5730   66.1920 C   0  0  0  0  0  0  0  0  0  0  0  0
  130.2010  125.6960   65.2360 C   0  0  0  0  0  0  0  0  0  0  0  0
  129.7070  124.4340   64.8890 C   0  0  0  0  0  0  0  0  0  0  0  0
  130.3960  123.6290   63.9860 C   0  0  0  0  0  0  0  0  0  0  0  0
  131.5850  124.0700   63.4060 C   0  0  0  0  0  0  0  0  0  0  0  0
  132.1970  123.2050   62.5220 O   0  0  0  0  0  0  0  0  0  0  0  0
  131.4520  122.1170   61.9870 C   0  0  0  0  0  0  0  0  0  0  0  0
  132.0800  125.3390   63.7460 C   0  0  0  0  0  0  0  0  0  0  0  0
  131.3900  126.1420   64.6500 C   0  0  0  0  0  0  0  0  0  0  0  0
  128.7130  127.7110   65.8020 C   0  0  0  0  0  0  0  0  0  0  0  0
  128.6080  128.0960   64.3910 C   0  0  0  0  0  0  0  0  0  0  0  0
  128.5250  128.3990   63.2770 N   0  0  0  0  0  0  0  0  0  0  0  0
  125.8130  129.8090   61.8860 C   0  0  0  0  0  0  0  0  0  0  0  0
  125.5500  130.0940   60.5480 C   0  0  0  0  0  0  0  0  0  0  0  0
  1  2  1  0
  2  3  1  0
  3  4  1  0
  4  5  2  0
  4  6  1  0
  6  7  2  0
  7  8  1  0
  8  9  2  0
  9 10  1  0
 10 11  1  0
 11 12  2  0
 11 13  1  0
 13 14  1  0
 14 15  1  0
 15 16  2  0
 16 17  1  0
 17 18  1  0
 18 19  2  0
 19 20  1  0
 20 21  2  0
 21 22  1  0
 22 23  1  0
 21 24  1  0
 24 25  2  0
 17 26  2  0
 26 27  1  0
 27 28  1  0
 28 29  2  0
 29 30  1  0
 30 31  2  0
 31 32  1  0
 32 33  1  0
 31 34  1  0
 34 35  2  0
 27 36  2  0
 36 37  1  0
 37 38  3  0
  9 39  1  0
 39 40  2  0
 40  6  1  0
 36 15  1  0
 25 18  1  0
 35 28  1  0
M  END
>  <Binding energies>  (1) 
[-9.79]

>  <Ligand effiencies>  (1) 
[-0.23878048780487804]

>  <Interactions>  (1) 
["V-B:ASP:366:CG:8184, V-B:HIS:456:CE1:9041, V-B:GLU:543:CD:9879, V-A:LEU:475:CD2:4258, V-A:GLU:543:CD:4908, V-B:ILE:369:CD1:8210, V-A:GLU:543:CG:4907, V-A:TYR:539:CE2:4876, V-A:HIS:456:CE1:4069, V-A:HIS:456:CD2:4067, V-B:GLU:543:C:9873, V-B:GLU:543:CG:9878, V-B:GLU:543:CB:9877, H-B:GLY:454:N:9021, V-B:ASP:366:CB:8183, H-B:ARG:545:NH2:9899, H-B:LYS:547:NZ:9922, H-B:TYR:484:OH:9319, H-B:ARG:545:NE:9895, H-B:ARG:545:NH1:9898, V-B:ARG:545:CZ:9897, H-B:TYR:531:OH:9766, V-B:ASP:366:CA:8181, H-A:TYR:539:OH:4878"]

$$$$
1b_Ghoteimi_2023
     RDKit          3D

 34 37  0  0  0  0  0  0  0  0999 V2000
  129.9860  125.0410   74.5070 C   0  0  0  0  0  0  0  0  0  0  0  0
  129.0110  125.9630   74.0340 O   0  0  0  0  0  0  0  0  0  0  0  0
  129.0130  126.3190   72.6990 C   0  0  0  0  0  0  0  0  0  0  0  0
  128.2790  125.5080   71.8350 C   0  0  0  0  0  0  0  0  0  0  0  0
  128.2240  125.7880   70.4730 C   0  0  0  0  0  0  0  0  0  0  0  0
  128.8990  126.8930   69.9320 C   0  0  0  0  0  0  0  0  0  0  0  0
  128.8380  127.1910   68.4600 C   0  0  0  0  0  0  0  0  0  0  0  0
  128.0280  128.1940   67.9200 C   0  0  0  0  0  0  0  0  0  0  0  0
  128.0110  128.4350   66.5400 C   0  0  0  0  0  0  0  0  0  0  0  0
  127.1170  129.5190   66.0330 C   0  0  0  0  0  0  0  0  0  0  0  0
  125.7330  129.3320   65.9960 C   0  0  0  0  0  0  0  0  0  0  0  0
  124.8960  130.3360   65.5160 C   0  0  0  0  0  0  0  0  0  0  0  0
  125.4270  131.5430   65.0600 C   0  0  0  0  0  0  0  0  0  0  0  0
  124.5210  132.4810   64.6010 O   0  0  0  0  0  0  0  0  0  0  0  0
  124.1260  132.4520   63.2340 C   0  0  0  0  0  0  0  0  0  0  0  0
  126.8160  131.7310   65.0870 C   0  0  0  0  0  0  0  0  0  0  0  0
  127.6500  130.7250   65.5670 C   0  0  0  0  0  0  0  0  0  0  0  0
  128.8430  127.6460   65.7080 C   0  0  0  0  0  0  0  0  0  0  0  0
  128.9350  127.9220   64.2710 C   0  0  0  0  0  0  0  0  0  0  0  0
  129.0060  128.1400   63.1360 N   0  0  0  0  0  0  0  0  0  0  0  0
  129.6220  126.6360   66.3160 C   0  0  0  0  0  0  0  0  0  0  0  0
  130.7160  125.5470   65.4280 S   0  0  0  0  0  0  0  0  0  0  0  0
  130.0570  123.8510   65.5690 C   0  0  0  0  0  0  0  0  0  0  0  0
  129.6710  123.1920   64.2370 C   0  0  0  0  0  0  0  0  0  0  0  0
  130.2590  122.1830   63.8400 O   0  0  0  0  0  0  0  0  0  0  0  0
  128.6660  123.8070   63.5740 N   0  0  0  0  0  0  0  0  0  0  0  0
  128.1110  123.4350   62.3550 C   0  0  0  0  0  0  0  0  0  0  0  0
  128.8720  123.2180   61.2070 C   0  0  0  0  0  0  0  0  0  0  0  0
  127.9620  122.8720   60.2340 C   0  0  0  0  0  0  0  0  0  0  0  0
  126.7170  122.8790   60.7700 O   0  0  0  0  0  0  0  0  0  0  0  0
  126.8260  123.2370   62.1150 N   0  0  0  0  0  0  0  0  0  0  0  0
  129.6290  126.4340   67.6550 N   0  0  0  0  0  0  0  0  0  0  0  0
  129.6360  127.7020   70.8110 C   0  0  0  0  0  0  0  0  0  0  0  0
  129.6950  127.4250   72.1730 C   0  0  0  0  0  0  0  0  0  0  0  0
  1  2  1  0
  2  3  1  0
  3  4  2  0
  4  5  1  0
  5  6  2  0
  6  7  1  0
  7  8  2  0
  8  9  1  0
  9 10  1  0
 10 11  2  0
 11 12  1  0
 12 13  2  0
 13 14  1  0
 14 15  1  0
 13 16  1  0
 16 17  2  0
  9 18  2  0
 18 19  1  0
 19 20  3  0
 18 21  1  0
 21 22  1  0
 22 23  1  0
 23 24  1  0
 24 25  2  0
 24 26  1  0
 26 27  1  0
 27 28  1  0
 28 29  2  0
 29 30  1  0
 30 31  1  0
 21 32  2  0
  6 33  1  0
 33 34  2  0
 34  3  1  0
 32  7  1  0
 17 10  1  0
 31 27  2  0
M  END
>  <Binding energies>  (2) 
[-9.28]

>  <Ligand effiencies>  (2) 
[-0.2651428571428571]

>  <Interactions>  (2) 
["V-B:HIS:456:CE1:9041, V-B:GLU:543:CD:9879, V-A:TYR:484:CZ:4346, V-A:GLU:543:CD:4908, V-B:GLY:454:CA:9020, V-B:ILE:369:CD1:8210, V-A:GLU:543:CG:4907, V-B:LEU:475:CD1:9229, V-A:HIS:456:CE1:4069, V-A:HIS:456:CD2:4067, V-B:ALA:541:CB:9863, V-B:GLU:543:C:9873, V-B:GLU:543:CG:9878, V-B:GLU:543:CB:9877, H-B:GLY:454:N:9021, H-B:GLU:543:OE2:9881, H-B:LYS:547:NZ:9922, V-B:PRO:540:CA:9854, H-B:ALA:541:N:9862, V-A:TYR:484:CE1:4344"]

$$$$
1c_Ghoteimi_2023
     RDKit          3D

 34 37  0  0  0  0  0  0  0  0999 V2000
  130.0820  125.1720   75.0400 C   0  0  0  0  0  0  0  0  0  0  0  0
  129.0250  125.9040   74.4290 O   0  0  0  0  0  0  0  0  0  0  0  0
  129.0920  126.1890   73.0790 C   0  0  0  0  0  0  0  0  0  0  0  0
  128.3810  125.3480   72.2270 C   0  0  0  0  0  0  0  0  0  0  0  0
  128.3940  125.5590   70.8510 C   0  0  0  0  0  0  0  0  0  0  0  0
  129.1210  126.6170   70.2850 C   0  0  0  0  0  0  0  0  0  0  0  0
  129.1430  126.8450   68.8010 C   0  0  0  0  0  0  0  0  0  0  0  0
  129.7480  125.9550   67.9080 C   0  0  0  0  0  0  0  0  0  0  0  0
  129.7190  126.1960   66.5290 C   0  0  0  0  0  0  0  0  0  0  0  0
  130.3260  125.1700   65.6300 C   0  0  0  0  0  0  0  0  0  0  0  0
  129.7620  123.8960   65.5210 C   0  0  0  0  0  0  0  0  0  0  0  0
  130.3420  122.9350   64.7000 C   0  0  0  0  0  0  0  0  0  0  0  0
  131.4980  123.2260   63.9760 C   0  0  0  0  0  0  0  0  0  0  0  0
  132.0030  122.2110   63.1860 O   0  0  0  0  0  0  0  0  0  0  0  0
  133.3190  122.3340   62.6540 C   0  0  0  0  0  0  0  0  0  0  0  0
  132.0710  124.5020   64.0880 C   0  0  0  0  0  0  0  0  0  0  0  0
  131.4890  125.4620   64.9110 C   0  0  0  0  0  0  0  0  0  0  0  0
  129.0890  127.3750   66.0650 C   0  0  0  0  0  0  0  0  0  0  0  0
  129.0540  127.7020   64.6360 C   0  0  0  0  0  0  0  0  0  0  0  0
  129.0270  127.9590   63.5070 N   0  0  0  0  0  0  0  0  0  0  0  0
  128.4840  128.2200   67.0180 C   0  0  0  0  0  0  0  0  0  0  0  0
  127.5140  129.6420   66.5650 S   0  0  0  0  0  0  0  0  0  0  0  0
  125.8080  129.2140   67.0440 C   0  0  0  0  0  0  0  0  0  0  0  0
  124.7900  129.6100   65.9690 C   0  0  0  0  0  0  0  0  0  0  0  0
  123.6130  129.7920   66.2840 O   0  0  0  0  0  0  0  0  0  0  0  0
  125.2980  129.7730   64.7270 N   0  0  0  0  0  0  0  0  0  0  0  0
  124.6310  130.2720   63.6190 C   0  0  0  0  0  0  0  0  0  0  0  0
  123.3800  130.6700   63.5410 N   0  0  0  0  0  0  0  0  0  0  0  0
  123.0920  131.1260   62.3370 C   0  0  0  0  0  0  0  0  0  0  0  0
  124.1280  131.1050   61.4070 C   0  0  0  0  0  0  0  0  0  0  0  0
  125.5500  130.4480   62.1590 S   0  0  0  0  0  0  0  0  0  0  0  0
  128.5040  127.9550   68.3470 N   0  0  0  0  0  0  0  0  0  0  0  0
  129.8290  127.4620   71.1530 C   0  0  0  0  0  0  0  0  0  0  0  0
  129.8190  127.2540   72.5300 C   0  0  0  0  0  0  0  0  0  0  0  0
  1  2  1  0
  2  3  1  0
  3  4  2  0
  4  5  1  0
  5  6  2  0
  6  7  1  0
  7  8  2  0
  8  9  1  0
  9 10  1  0
 10 11  2  0
 11 12  1  0
 12 13  2  0
 13 14  1  0
 14 15  1  0
 13 16  1  0
 16 17  2  0
  9 18  2  0
 18 19  1  0
 19 20  3  0
 18 21  1  0
 21 22  1  0
 22 23  1  0
 23 24  1  0
 24 25  2  0
 24 26  1  0
 26 27  1  0
 27 28  2  0
 28 29  1  0
 29 30  2  0
 30 31  1  0
 21 32  2  0
  6 33  1  0
 33 34  2  0
 34  3  1  0
 32  7  1  0
 17 10  1  0
 31 27  1  0
M  END
>  <Binding energies>  (3) 
[-8.83]

>  <Ligand effiencies>  (3) 
[-0.2522857142857143]

>  <Interactions>  (3) 
["V-B:ASP:366:CG:8184, V-B:HIS:456:CE1:9041, V-B:GLU:543:CD:9879, V-A:LEU:475:CD2:4258, V-A:GLU:543:CD:4908, V-A:ILE:369:CD1:3238, V-B:ILE:369:CD1:8210, V-A:GLU:543:CG:4907, V-A:GLY:454:CA:4048, V-A:HIS:456:CE1:4069, V-B:ALA:541:CB:9863, V-B:GLU:543:C:9873, V-B:GLU:543:CG:9878, V-B:GLU:543:CB:9877, H-B:GLY:454:N:9021, H-B:GLU:543:OE1:9880, H-B:LYS:547:NZ:9922, H-B:TYR:484:OH:9319, H-B:ARG:545:NE:9895, V-B:ARG:545:CZ:9897, V-B:ARG:545:CD:9894, V-A:TYR:484:CE1:4344"]

$$$$
1d_Ghoteimi_2023
     RDKit          3D

 30 32  0  0  0  0  0  0  0  0999 V2000
  133.8300  125.4270   63.6660 C   0  0  0  0  0  0  0  0  0  0  0  0
  133.6250  124.6550   64.8390 O   0  0  0  0  0  0  0  0  0  0  0  0
  133.9910  125.1340   66.0470 C   0  0  0  0  0  0  0  0  0  0  0  0
  135.0580  124.9190   66.6230 O   0  0  0  0  0  0  0  0  0  0  0  0
  132.9090  126.0080   66.6760 C   0  0  0  0  0  0  0  0  0  0  0  0
  131.3280  125.5720   65.8920 S   0  0  0  0  0  0  0  0  0  0  0  0
  130.0670  126.5430   66.6880 C   0  0  0  0  0  0  0  0  0  0  0  0
  130.0020  126.3590   68.0280 N   0  0  0  0  0  0  0  0  0  0  0  0
  129.0800  127.0350   68.7600 C   0  0  0  0  0  0  0  0  0  0  0  0
  129.0780  126.7790   70.2400 C   0  0  0  0  0  0  0  0  0  0  0  0
  128.5080  125.6140   70.7760 C   0  0  0  0  0  0  0  0  0  0  0  0
  128.5010  125.3810   72.1480 C   0  0  0  0  0  0  0  0  0  0  0  0
  129.0620  126.3050   73.0270 C   0  0  0  0  0  0  0  0  0  0  0  0
  129.0070  125.9930   74.3720 O   0  0  0  0  0  0  0  0  0  0  0  0
  130.0690  125.2450   74.9540 C   0  0  0  0  0  0  0  0  0  0  0  0
  129.6340  127.4740   72.5070 C   0  0  0  0  0  0  0  0  0  0  0  0
  129.6400  127.7020   71.1340 C   0  0  0  0  0  0  0  0  0  0  0  0
  128.2000  127.9330   68.1450 C   0  0  0  0  0  0  0  0  0  0  0  0
  128.2350  128.1310   66.7590 C   0  0  0  0  0  0  0  0  0  0  0  0
  127.2610  129.0980   66.1670 C   0  0  0  0  0  0  0  0  0  0  0  0
  125.9270  129.0970   66.5830 C   0  0  0  0  0  0  0  0  0  0  0  0
  125.0140  129.9950   66.0360 C   0  0  0  0  0  0  0  0  0  0  0  0
  125.4170  130.9140   65.0670 C   0  0  0  0  0  0  0  0  0  0  0  0
  124.4430  131.7610   64.5760 O   0  0  0  0  0  0  0  0  0  0  0  0
  124.1110  131.7100   63.1930 C   0  0  0  0  0  0  0  0  0  0  0  0
  126.7590  130.9270   64.6550 C   0  0  0  0  0  0  0  0  0  0  0  0
  127.6690  130.0290   65.2050 C   0  0  0  0  0  0  0  0  0  0  0  0
  129.1820  127.4010   65.9970 C   0  0  0  0  0  0  0  0  0  0  0  0
  129.1940  127.4910   64.5340 C   0  0  0  0  0  0  0  0  0  0  0  0
  129.2020  127.5630   63.3790 N   0  0  0  0  0  0  0  0  0  0  0  0
  1  2  1  0
  2  3  1  0
  3  4  2  0
  3  5  1  0
  5  6  1  0
  6  7  1  0
  7  8  2  0
  8  9  1  0
  9 10  1  0
 10 11  2  0
 11 12  1  0
 12 13  2  0
 13 14  1  0
 14 15  1  0
 13 16  1  0
 16 17  2  0
  9 18  2  0
 18 19  1  0
 19 20  1  0
 20 21  2  0
 21 22  1  0
 22 23  2  0
 23 24  1  0
 24 25  1  0
 23 26  1  0
 26 27  2  0
 19 28  2  0
 28 29  1  0
 29 30  3  0
 28  7  1  0
 17 10  1  0
 27 20  1  0
M  END
>  <Binding energies>  (4) 
[-8.35]

>  <Ligand effiencies>  (4) 
[-0.2783333333333333]

>  <Interactions>  (4) 
["V-B:HIS:456:CE1:9041, V-A:ARG:545:CZ:4926, V-B:GLU:543:CD:9879, V-A:GLU:543:CD:4908, V-B:GLY:454:CA:9020, V-A:GLU:543:CG:4907, V-A:GLY:453:CA:4043, V-A:GLY:454:CA:4048, V-A:HIS:456:CE1:4069, V-A:HIS:456:CD2:4067, V-A:ARG:545:CG:4922, V-B:GLU:543:C:9873, H-B:GLY:454:N:9021, H-B:LYS:547:NZ:9922, H-A:TYR:484:OH:4347, H-A:GLY:454:N:4049, V-A:ARG:545:CD:4923, V-A:GLY:453:C:4041, H-A:ILE:455:N:4054"]

$$$$
1j_Grossjean_2025
     RDKit          3D

 20 21  0  0  0  0  0  0  0  0999 V2000
  123.3160  135.4470   62.0490 C   0  0  0  0  0  0  0  0  0  0  0  0
  124.7440  134.9750   61.8400 C   0  0  0  0  0  0  0  0  0  0  0  0
  125.8170  135.8620   61.8720 C   0  0  0  0  0  0  0  0  0  0  0  0
  127.1120  135.3680   61.6860 C   0  0  0  0  0  0  0  0  0  0  0  0
  128.2750  136.3590   61.7430 C   0  0  0  0  0  0  0  0  0  0  0  0
  127.2990  133.9860   61.4630 C   0  0  0  0  0  0  0  0  0  0  0  0
  128.6510  133.4390   61.3190 C   0  0  0  0  0  0  0  0  0  0  0  0
  129.7200  133.0110   61.2070 N   0  0  0  0  0  0  0  0  0  0  0  0
  126.1490  133.1620   61.4210 C   0  0  0  0  0  0  0  0  0  0  0  0
  126.1980  131.4040   61.1480 S   0  0  0  0  0  0  0  0  0  0  0  0
  124.5050  130.7690   61.3280 C   0  0  0  0  0  0  0  0  0  0  0  0
  124.0950  130.6350   62.7960 C   0  0  0  0  0  0  0  0  0  0  0  0
  122.9900  131.0450   63.1540 O   0  0  0  0  0  0  0  0  0  0  0  0
  125.0090  130.0570   63.6050 N   0  0  0  0  0  0  0  0  0  0  0  0
  124.8810  129.8280   64.9680 C   0  0  0  0  0  0  0  0  0  0  0  0
  123.7910  129.9060   65.7010 N   0  0  0  0  0  0  0  0  0  0  0  0
  124.0360  129.6210   66.9650 C   0  0  0  0  0  0  0  0  0  0  0  0
  125.3530  129.3000   67.2790 C   0  0  0  0  0  0  0  0  0  0  0  0
  126.3150  129.3780   65.8340 S   0  0  0  0  0  0  0  0  0  0  0  0
  124.8990  133.6470   61.6240 N   0  0  0  0  0  0  0  0  0  0  0  0
  1  2  1  0
  2  3  2  0
  3  4  1  0
  4  5  1  0
  4  6  2  0
  6  7  1  0
  7  8  3  0
  6  9  1  0
  9 10  1  0
 10 11  1  0
 11 12  1  0
 12 13  2  0
 12 14  1  0
 14 15  1  0
 15 16  2  0
 16 17  1  0
 17 18  2  0
 18 19  1  0
  9 20  2  0
 20  2  1  0
 19 15  1  0
M  END
>  <Binding energies>  (5) 
[-6.71]

>  <Ligand effiencies>  (5) 
[-0.31952380952380954]

>  <Interactions>  (5) 
["V-B:ASP:366:CG:8184, V-B:HIS:456:CE1:9041, V-B:GLU:543:CD:9879, V-A:ALA:541:CB:4892, V-B:TRP:381:CZ2:8341, V-B:PRO:482:CB:9297, V-B:PRO:482:CG:9298, V-B:LEU:475:CD1:9229, V-B:ILE:369:CG2:8208, V-B:TRP:381:CH2:8343, V-A:TYR:539:CD2:4874, H-B:GLY:454:N:9021, V-B:SER:385:C:8376, V-A:PRO:540:C:4881, V-A:ALA:541:CA:4890, V-B:SER:385:CA:8378, H-B:ARG:545:NE:9895, V-B:ARG:545:CZ:9897, V-A:TYR:539:C:4867, V-B:ARG:545:CG:9893, H-A:ALA:541:N:4891, V-B:ARG:545:CD:9894"]

$$$$
1o_Grossjean_2025
     RDKit          3D

 26 27  0  0  0  0  0  0  0  0999 V2000
  129.4600  129.7750   73.9260 C   0  0  0  0  0  0  0  0  0  0  0  0
  130.1140  128.5160   73.9920 O   0  0  0  0  0  0  0  0  0  0  0  0
  129.5420  127.4030   73.4660 C   0  0  0  0  0  0  0  0  0  0  0  0
  128.9560  126.5530   74.1450 O   0  0  0  0  0  0  0  0  0  0  0  0
  129.6880  127.3070   71.9750 C   0  0  0  0  0  0  0  0  0  0  0  0
  130.6010  128.1020   71.2660 C   0  0  0  0  0  0  0  0  0  0  0  0
  130.7140  127.9860   69.8830 C   0  0  0  0  0  0  0  0  0  0  0  0
  129.9160  127.0830   69.1800 C   0  0  0  0  0  0  0  0  0  0  0  0
  130.1180  127.0420   67.7870 N   0  0  0  0  0  0  0  0  0  0  0  0
  130.0880  125.9900   66.9380 C   0  0  0  0  0  0  0  0  0  0  0  0
  129.8200  124.8310   67.2540 O   0  0  0  0  0  0  0  0  0  0  0  0
  130.3890  126.3190   65.4690 C   0  0  0  0  0  0  0  0  0  0  0  0
  129.6460  125.4040   64.4740 C   0  0  0  0  0  0  0  0  0  0  0  0
  130.2930  125.4800   62.7780 S   0  0  0  0  0  0  0  0  0  0  0  0
  130.9570  123.8810   62.3550 C   0  0  0  0  0  0  0  0  0  0  0  0
  130.0600  123.0690   61.7410 N   0  0  0  0  0  0  0  0  0  0  0  0
  130.4550  121.8300   61.3640 C   0  0  0  0  0  0  0  0  0  0  0  0
  129.4030  120.9850   60.6700 C   0  0  0  0  0  0  0  0  0  0  0  0
  131.7420  121.3490   61.5940 C   0  0  0  0  0  0  0  0  0  0  0  0
  132.6670  122.1680   62.2490 C   0  0  0  0  0  0  0  0  0  0  0  0
  134.0670  121.6130   62.5020 C   0  0  0  0  0  0  0  0  0  0  0  0
  132.2770  123.4650   62.6550 C   0  0  0  0  0  0  0  0  0  0  0  0
  133.2130  124.3140   63.3960 C   0  0  0  0  0  0  0  0  0  0  0  0
  133.9540  124.9840   63.9790 N   0  0  0  0  0  0  0  0  0  0  0  0
  129.0040  126.2810   69.8840 C   0  0  0  0  0  0  0  0  0  0  0  0
  128.8930  126.3970   71.2670 C   0  0  0  0  0  0  0  0  0  0  0  0
  1  2  1  0
  2  3  1  0
  3  4  2  0
  3  5  1  0
  5  6  2  0
  6  7  1  0
  7  8  2  0
  8  9  1  0
  9 10  1  0
 10 11  2  0
 10 12  1  0
 12 13  1  0
 13 14  1  0
 14 15  1  0
 15 16  2  0
 16 17  1  0
 17 18  1  0
 17 19  2  0
 19 20  1  0
 20 21  1  0
 20 22  2  0
 22 23  1  0
 23 24  3  0
  8 25  1  0
 25 26  2  0
 26  5  1  0
 22 15  1  0
M  END
>  <Binding energies>  (6) 
[-7.43]

>  <Ligand effiencies>  (6) 
[-0.2751851851851852]

>  <Interactions>  (6) 
["V-B:HIS:456:CE1:9041, V-B:GLU:543:CD:9879, V-A:LEU:475:CD2:4258, V-A:GLU:543:CD:4908, V-A:ILE:369:CD1:3238, V-A:GLY:454:CA:4048, V-A:HIS:456:CE1:4069, V-B:TYR:539:CD2:9845, V-A:ILE:369:CG2:3236, V-A:GLU:543:CB:4906, V-B:TYR:539:CE2:9847, V-B:ALA:541:CB:9863, V-B:GLU:543:CG:9878, H-B:LYS:547:NZ:9922, H-A:LYS:547:NZ:4951, H-A:TYR:484:OH:4347, V-A:LYS:547:CE:4950, V-B:TYR:539:C:9838, H-A:GLY:454:N:4049, H-A:GLU:543:OE2:4910, H-A:ARG:545:NH1:4927"]

$$$$
1p_Grossjean_2025
     RDKit          3D

 21 22  0  0  0  0  0  0  0  0999 V2000
  128.6520  128.6010   67.7320 C   0  0  0  0  0  0  0  0  0  0  0  0
  127.4720  129.0160   66.8740 C   0  0  0  0  0  0  0  0  0  0  0  0
  126.1900  129.1400   67.4080 C   0  0  0  0  0  0  0  0  0  0  0  0
  125.1370  129.5130   66.5670 C   0  0  0  0  0  0  0  0  0  0  0  0
  123.7380  129.6280   67.1700 C   0  0  0  0  0  0  0  0  0  0  0  0
  125.3990  129.7650   65.2010 C   0  0  0  0  0  0  0  0  0  0  0  0
  124.3060  130.1100   64.2910 C   0  0  0  0  0  0  0  0  0  0  0  0
  123.4400  130.3840   63.5720 N   0  0  0  0  0  0  0  0  0  0  0  0
  126.7340  129.6370   64.7500 C   0  0  0  0  0  0  0  0  0  0  0  0
  127.2380  129.9260   63.0700 S   0  0  0  0  0  0  0  0  0  0  0  0
  127.8320  131.6410   62.9850 C   0  0  0  0  0  0  0  0  0  0  0  0
  129.3160  131.8030   63.3660 C   0  0  0  0  0  0  0  0  0  0  0  0
  130.2230  132.1340   62.1710 C   0  0  0  0  0  0  0  0  0  0  0  0
  129.8670  132.9880   61.3560 O   0  0  0  0  0  0  0  0  0  0  0  0
  131.3860  131.4480   62.1130 N   0  0  0  0  0  0  0  0  0  0  0  0
  132.3780  131.5540   61.1460 C   0  0  0  0  0  0  0  0  0  0  0  0
  132.1490  131.3180   59.7910 C   0  0  0  0  0  0  0  0  0  0  0  0
  133.3640  131.5270   59.1800 C   0  0  0  0  0  0  0  0  0  0  0  0
  134.2780  131.8690   60.1180 O   0  0  0  0  0  0  0  0  0  0  0  0
  133.6410  131.8820   61.3610 N   0  0  0  0  0  0  0  0  0  0  0  0
  127.7460  129.2540   65.5700 N   0  0  0  0  0  0  0  0  0  0  0  0
  1  2  1  0
  2  3  2  0
  3  4  1  0
  4  5  1  0
  4  6  2  0
  6  7  1  0
  7  8  3  0
  6  9  1  0
  9 10  1  0
 10 11  1  0
 11 12  1  0
 12 13  1  0
 13 14  2  0
 13 15  1  0
 15 16  1  0
 16 17  1  0
 17 18  2  0
 18 19  1  0
 19 20  1  0
  9 21  2  0
 21  2  1  0
 20 16  2  0
M  END
>  <Binding energies>  (7) 
[-6.89]

>  <Ligand effiencies>  (7) 
[-0.3131818181818182]

>  <Interactions>  (7) 
["V-B:HIS:456:CE1:9041, V-B:GLU:543:CD:9879, V-A:ASP:366:CG:3212, V-A:GLU:543:CD:4908, V-A:ALA:541:CB:4892, V-A:GLU:543:CG:4907, V-A:GLU:543:CB:4906, H-B:GLY:454:N:9021, H-B:ARG:545:NH2:9899, V-A:PRO:540:CB:4885, V-A:PRO:540:CA:4883, H-B:ARG:545:NH1:9898, V-B:ARG:545:CZ:9897, H-A:ASP:366:OD2:3214, V-B:ARG:545:CG:9893, H-A:ALA:541:N:4891, H-A:GLU:543:OE1:4909, V-B:ARG:545:CD:9894, V-A:LEU:363:CA:3184, V-A:LEU:363:CD1:3188, H-A:LEU:363:N:3185"]

$$$$
2a_Ghoteimi_2023
     RDKit          3D

 48 53  0  0  0  0  0  0  0  0999 V2000
  136.3760  118.2820   58.2510 C   0  0  0  0  0  0  0  0  0  0  0  0
  135.0210  118.3040   58.9650 C   0  0  0  0  0  0  0  0  0  0  0  0
  135.1120  119.1260   60.1220 O   0  0  0  0  0  0  0  0  0  0  0  0
  134.1840  119.0500   61.1110 C   0  0  0  0  0  0  0  0  0  0  0  0
  133.8920  117.9990   61.6900 O   0  0  0  0  0  0  0  0  0  0  0  0
  133.5550  120.3740   61.4360 C   0  0  0  0  0  0  0  0  0  0  0  0
  134.1750  121.3030   62.2840 C   0  0  0  0  0  0  0  0  0  0  0  0
  133.5650  122.5220   62.5630 C   0  0  0  0  0  0  0  0  0  0  0  0
  132.3280  122.8420   62.0000 C   0  0  0  0  0  0  0  0  0  0  0  0
  131.8020  124.0990   62.3540 N   0  0  0  0  0  0  0  0  0  0  0  0
  132.4100  125.3030   62.4240 C   0  0  0  0  0  0  0  0  0  0  0  0
  133.6080  125.5050   62.2220 O   0  0  0  0  0  0  0  0  0  0  0  0
  131.5000  126.4700   62.8280 C   0  0  0  0  0  0  0  0  0  0  0  0
  129.7450  126.0230   63.0280 S   0  0  0  0  0  0  0  0  0  0  0  0
  129.1470  127.0170   64.3760 C   0  0  0  0  0  0  0  0  0  0  0  0
  128.5120  128.1460   63.9850 N   0  0  0  0  0  0  0  0  0  0  0  0
  128.0180  128.9920   64.9230 C   0  0  0  0  0  0  0  0  0  0  0  0
  127.3370  130.2240   64.4180 C   0  0  0  0  0  0  0  0  0  0  0  0
  125.9850  130.2080   64.0550 C   0  0  0  0  0  0  0  0  0  0  0  0
  125.3590  131.3540   63.5740 C   0  0  0  0  0  0  0  0  0  0  0  0
  126.0590  132.5620   63.4450 C   0  0  0  0  0  0  0  0  0  0  0  0
  125.4240  133.6990   62.9320 N   0  0  0  0  0  0  0  0  0  0  0  0
  124.0330  133.6480   62.4410 C   0  0  0  0  0  0  0  0  0  0  0  0
  123.3860  135.0370   62.2570 C   0  0  0  0  0  0  0  0  0  0  0  0
  124.1940  135.8410   61.4130 O   0  0  0  0  0  0  0  0  0  0  0  0
  125.4860  136.0360   61.9640 C   0  0  0  0  0  0  0  0  0  0  0  0
  126.1980  134.6780   62.1400 C   0  0  0  0  0  0  0  0  0  0  0  0
  127.4180  132.5700   63.7990 C   0  0  0  0  0  0  0  0  0  0  0  0
  128.0430  131.4240   64.2820 C   0  0  0  0  0  0  0  0  0  0  0  0
  128.1430  128.7120   66.2870 C   0  0  0  0  0  0  0  0  0  0  0  0
  128.7970  127.5490   66.7150 C   0  0  0  0  0  0  0  0  0  0  0  0
  128.9000  127.3150   68.1880 C   0  0  0  0  0  0  0  0  0  0  0  0
  129.7590  128.0960   68.9650 C   0  0  0  0  0  0  0  0  0  0  0  0
  129.8760  127.8720   70.3340 C   0  0  0  0  0  0  0  0  0  0  0  0
  129.1370  126.8620   70.9670 C   0  0  0  0  0  0  0  0  0  0  0  0
  129.2540  126.6090   72.3370 N   0  0  0  0  0  0  0  0  0  0  0  0
  129.1480  125.2200   72.8270 C   0  0  0  0  0  0  0  0  0  0  0  0
  129.6780  125.0400   74.2660 C   0  0  0  0  0  0  0  0  0  0  0  0
  129.0150  125.9370   75.1440 O   0  0  0  0  0  0  0  0  0  0  0  0
  129.2220  127.2890   74.7680 C   0  0  0  0  0  0  0  0  0  0  0  0
  128.6850  127.5290   73.3410 C   0  0  0  0  0  0  0  0  0  0  0  0
  128.2860  126.0750   70.1770 C   0  0  0  0  0  0  0  0  0  0  0  0
  128.1700  126.2970   68.8080 C   0  0  0  0  0  0  0  0  0  0  0  0
  129.3130  126.6670   65.7350 C   0  0  0  0  0  0  0  0  0  0  0  0
  129.9570  125.4070   66.1210 C   0  0  0  0  0  0  0  0  0  0  0  0
  130.4670  124.4150   66.4280 N   0  0  0  0  0  0  0  0  0  0  0  0
  131.6980  121.9140   61.1570 C   0  0  0  0  0  0  0  0  0  0  0  0
  132.3100  120.6950   60.8770 C   0  0  0  0  0  0  0  0  0  0  0  0
  1  2  1  0
  2  3  1  0
  3  4  1  0
  4  5  2  0
  4  6  1  0
  6  7  2  0
  7  8  1  0
  8  9  2  0
  9 10  1  0
 10 11  1  0
 11 12  2  0
 11 13  1  0
 13 14  1  0
 14 15  1  0
 15 16  2  0
 16 17  1  0
 17 18  1  0
 18 19  2  0
 19 20  1  0
 20 21  2  0
 21 22  1  0
 22 23  1  0
 23 24  1  0
 24 25  1  0
 25 26  1  0
 26 27  1  0
 21 28  1  0
 28 29  2  0
 17 30  2  0
 30 31  1  0
 31 32  1  0
 32 33  2  0
 33 34  1  0
 34 35  2  0
 35 36  1  0
 36 37  1  0
 37 38  1  0
 38 39  1  0
 39 40  1  0
 40 41  1  0
 35 42  1  0
 42 43  2  0
 31 44  2  0
 44 45  1  0
 45 46  3  0
  9 47  1  0
 47 48  2  0
 48  6  1  0
 44 15  1  0
 29 18  1  0
 43 32  1  0
 27 22  1  0
 41 36  1  0
M  END
>  <Binding energies>  (8) 
[-9.75]

>  <Ligand effiencies>  (8) 
[-0.1989795918367347]

>  <Interactions>  (8) 
["V-B:HIS:456:CE1:9041, V-B:GLU:543:CD:9879, V-A:LEU:475:CD2:4258, V-A:GLU:543:CD:4908, V-A:ILE:369:CD1:3238, V-A:ALA:541:CB:4892, V-B:TRP:381:CZ2:8341, V-B:ILE:369:CD1:8210, V-A:GLU:543:CG:4907, V-B:LEU:475:CD1:9229, V-B:ILE:369:CG2:8208, V-B:TRP:381:CH2:8343, H-A:ARG:545:NH2:4928, V-A:GLY:454:CA:4048, V-A:HIS:456:CE1:4069, V-B:TYR:539:CD2:9845, V-B:HIS:456:CD2:9039, V-A:ILE:369:CG2:3236, V-A:GLU:543:CB:4906, V-B:TYR:539:CE2:9847, V-A:HIS:456:CD2:4067, V-B:GLU:543:CG:9878, V-B:GLU:543:CB:9877, V-B:SER:385:C:8376, H-B:LYS:547:NZ:9922, V-B:LYS:547:CE:9921, V-B:SER:385:CA:8378, H-A:TYR:484:OH:4347, V-A:SER:385:C:3404, V-A:SER:385:CB:3408, V-A:TRP:381:CZ2:3369, V-A:SER:385:CA:3406, V-A:TRP:381:CH2:3371, V-A:VAL:384:CG1:3401, V-A:ILE:369:CA:3233, V-A:VAL:384:C:3396, V-A:ILE:369:CG1:3237, V-A:TRP:381:CZ3:3370, V-A:ILE:369:C:3231"]

$$$$
2aa_Ghoteimi_2023
     RDKit          3D

 48 53  0  0  0  0  0  0  0  0999 V2000
  136.4470  118.7400   58.8150 C   0  0  0  0  0  0  0  0  0  0  0  0
  135.1080  118.0710   59.1380 C   0  0  0  0  0  0  0  0  0  0  0  0
  134.1790  119.0580   59.5660 O   0  0  0  0  0  0  0  0  0  0  0  0
  133.8430  119.1840   60.8760 C   0  0  0  0  0  0  0  0  0  0  0  0
  134.2370  118.4130   61.7580 O   0  0  0  0  0  0  0  0  0  0  0  0
  132.9570  120.3650   61.1500 C   0  0  0  0  0  0  0  0  0  0  0  0
  133.4390  121.5250   61.7750 C   0  0  0  0  0  0  0  0  0  0  0  0
  132.5940  122.6050   62.0120 C   0  0  0  0  0  0  0  0  0  0  0  0
  131.2510  122.5470   61.6370 C   0  0  0  0  0  0  0  0  0  0  0  0
  130.4870  123.6960   61.9200 N   0  0  0  0  0  0  0  0  0  0  0  0
  129.1470  123.8460   62.0020 C   0  0  0  0  0  0  0  0  0  0  0  0
  128.3230  122.9400   61.8610 O   0  0  0  0  0  0  0  0  0  0  0  0
  128.6830  125.2730   62.3200 C   0  0  0  0  0  0  0  0  0  0  0  0
  129.6200  125.8980   63.2040 O   0  0  0  0  0  0  0  0  0  0  0  0
  129.1780  126.7960   64.1660 C   0  0  0  0  0  0  0  0  0  0  0  0
  128.6260  127.9680   63.7430 N   0  0  0  0  0  0  0  0  0  0  0  0
  128.1800  128.8660   64.6580 C   0  0  0  0  0  0  0  0  0  0  0  0
  127.5900  130.1310   64.1200 C   0  0  0  0  0  0  0  0  0  0  0  0
  128.3990  131.0900   63.5020 C   0  0  0  0  0  0  0  0  0  0  0  0
  127.8540  132.2670   62.9940 C   0  0  0  0  0  0  0  0  0  0  0  0
  126.4760  132.5220   63.0740 C   0  0  0  0  0  0  0  0  0  0  0  0
  125.9140  133.7050   62.5800 N   0  0  0  0  0  0  0  0  0  0  0  0
  124.5000  134.0500   62.8330 C   0  0  0  0  0  0  0  0  0  0  0  0
  123.9650  135.1830   61.9330 C   0  0  0  0  0  0  0  0  0  0  0  0
  124.7940  136.3270   62.0490 O   0  0  0  0  0  0  0  0  0  0  0  0
  126.1260  136.0460   61.6460 C   0  0  0  0  0  0  0  0  0  0  0  0
  126.7260  134.9380   62.5380 C   0  0  0  0  0  0  0  0  0  0  0  0
  125.6730  131.5670   63.7130 C   0  0  0  0  0  0  0  0  0  0  0  0
  126.2190  130.3920   64.2230 C   0  0  0  0  0  0  0  0  0  0  0  0
  128.2930  128.6170   66.0290 C   0  0  0  0  0  0  0  0  0  0  0  0
  128.8680  127.4260   66.4900 C   0  0  0  0  0  0  0  0  0  0  0  0
  128.9840  127.2280   67.9670 C   0  0  0  0  0  0  0  0  0  0  0  0
  129.8890  127.9880   68.7110 C   0  0  0  0  0  0  0  0  0  0  0  0
  130.0170  127.7950   70.0840 C   0  0  0  0  0  0  0  0  0  0  0  0
  129.2530  126.8250   70.7500 C   0  0  0  0  0  0  0  0  0  0  0  0
  129.3620  126.6160   72.1280 N   0  0  0  0  0  0  0  0  0  0  0  0
  129.1920  125.2750   72.7180 C   0  0  0  0  0  0  0  0  0  0  0  0
  129.6920  125.1760   74.1750 C   0  0  0  0  0  0  0  0  0  0  0  0
  129.0580  126.1640   74.9730 O   0  0  0  0  0  0  0  0  0  0  0  0
  129.3340  127.4740   74.5010 C   0  0  0  0  0  0  0  0  0  0  0  0
  128.8240  127.6330   73.0540 C   0  0  0  0  0  0  0  0  0  0  0  0
  128.3430  126.0720   69.9960 C   0  0  0  0  0  0  0  0  0  0  0  0
  128.2140  126.2650   68.6240 C   0  0  0  0  0  0  0  0  0  0  0  0
  129.3090  126.4840   65.5310 C   0  0  0  0  0  0  0  0  0  0  0  0
  129.8760  125.1910   65.9210 C   0  0  0  0  0  0  0  0  0  0  0  0
  130.3230  124.1690   66.2290 N   0  0  0  0  0  0  0  0  0  0  0  0
  130.7620  121.3940   61.0050 C   0  0  0  0  0  0  0  0  0  0  0  0
  131.6110  120.3170   60.7660 C   0  0  0  0  0  0  0  0  0  0  0  0
  1  2  1  0
  2  3  1  0
  3  4  1  0
  4  5  2  0
  4  6  1  0
  6  7  2  0
  7  8  1  0
  8  9  2  0
  9 10  1  0
 10 11  1  0
 11 12  2  0
 11 13  1  0
 13 14  1  0
 14 15  1  0
 15 16  2  0
 16 17  1  0
 17 18  1  0
 18 19  2  0
 19 20  1  0
 20 21  2  0
 21 22  1  0
 22 23  1  0
 23 24  1  0
 24 25  1  0
 25 26  1  0
 26 27  1  0
 21 28  1  0
 28 29  2  0
 17 30  2  0
 30 31  1  0
 31 32  1  0
 32 33  2  0
 33 34  1  0
 34 35  2  0
 35 36  1  0
 36 37  1  0
 37 38  1  0
 38 39  1  0
 39 40  1  0
 40 41  1  0
 35 42  1  0
 42 43  2  0
 31 44  2  0
 44 45  1  0
 45 46  3  0
  9 47  1  0
 47 48  2  0
 48  6  1  0
 44 15  1  0
 29 18  1  0
 43 32  1  0
 27 22  1  0
 41 36  1  0
M  END
>  <Binding energies>  (9) 
[-9.51]

>  <Ligand effiencies>  (9) 
[-0.19408163265306122]

>  <Interactions>  (9) 
["V-B:HIS:456:CE1:9041, V-B:GLU:543:CD:9879, V-A:LEU:475:CD2:4258, V-A:GLU:543:CD:4908, V-A:ILE:369:CD1:3238, V-A:ALA:541:CB:4892, V-B:TRP:381:CZ2:8341, V-A:GLU:543:CG:4907, V-B:LEU:475:CD1:9229, V-B:ILE:369:CG2:8208, V-B:TRP:381:CH2:8343, V-A:TYR:539:CD2:4874, V-A:HIS:456:CE1:4069, V-B:TYR:539:CD2:9845, V-B:HIS:456:CD2:9039, V-A:ILE:369:CG2:3236, V-A:GLU:543:CB:4906, V-B:TYR:539:CE2:9847, V-A:ILE:369:CB:3235, V-A:HIS:456:CD2:4067, V-B:GLU:543:CG:9878, V-B:GLU:543:CB:9877, H-B:LYS:547:NZ:9922, V-B:LYS:547:CE:9921, H-A:TYR:484:OH:4347, V-A:SER:385:C:3404, V-A:SER:385:CB:3408, V-A:TRP:381:CZ2:3369, V-A:SER:385:CA:3406, V-A:TRP:381:CH2:3371, H-B:ALA:541:N:9862, V-A:VAL:384:CG1:3401, V-A:ILE:369:CA:3233, V-A:VAL:384:C:3396, V-A:ILE:369:CG1:3237, V-A:TRP:381:CZ3:3370, V-A:ILE:369:C:3231"]

$$$$
2b_Ghoteimi_2023
     RDKit          3D

 42 47  0  0  0  0  0  0  0  0999 V2000
  130.2400  123.9450   66.2330 N   0  0  0  0  0  0  0  0  0  0  0  0
  129.8600  124.9830   65.8890 C   0  0  0  0  0  0  0  0  0  0  0  0
  129.3780  126.2990   65.4600 C   0  0  0  0  0  0  0  0  0  0  0  0
  129.0290  127.2850   66.4160 C   0  0  0  0  0  0  0  0  0  0  0  0
  129.1180  127.0790   67.8920 C   0  0  0  0  0  0  0  0  0  0  0  0
  128.2180  126.2320   68.5410 C   0  0  0  0  0  0  0  0  0  0  0  0
  128.2970  126.0370   69.9170 C   0  0  0  0  0  0  0  0  0  0  0  0
  129.2680  126.6980   70.6850 C   0  0  0  0  0  0  0  0  0  0  0  0
  129.3750  126.5090   72.0640 N   0  0  0  0  0  0  0  0  0  0  0  0
  128.8840  127.5620   72.9740 C   0  0  0  0  0  0  0  0  0  0  0  0
  129.3960  127.4070   74.4220 C   0  0  0  0  0  0  0  0  0  0  0  0
  129.0790  126.1140   74.9170 O   0  0  0  0  0  0  0  0  0  0  0  0
  129.6700  125.0920   74.1290 C   0  0  0  0  0  0  0  0  0  0  0  0
  129.1560  125.1840   72.6780 C   0  0  0  0  0  0  0  0  0  0  0  0
  130.1650  127.5490   70.0250 C   0  0  0  0  0  0  0  0  0  0  0  0
  130.0900  127.7410   68.6480 C   0  0  0  0  0  0  0  0  0  0  0  0
  128.5780  128.5290   65.9580 C   0  0  0  0  0  0  0  0  0  0  0  0
  128.5080  128.7950   64.5870 C   0  0  0  0  0  0  0  0  0  0  0  0
  128.0630  130.1170   64.0470 C   0  0  0  0  0  0  0  0  0  0  0  0
  127.7910  131.1850   64.9080 C   0  0  0  0  0  0  0  0  0  0  0  0
  127.3920  132.4230   64.4110 C   0  0  0  0  0  0  0  0  0  0  0  0
  127.2370  132.6360   63.0320 C   0  0  0  0  0  0  0  0  0  0  0  0
  126.8650  133.8820   62.5160 N   0  0  0  0  0  0  0  0  0  0  0  0
  127.8470  134.6880   61.7610 C   0  0  0  0  0  0  0  0  0  0  0  0
  127.4370  136.1680   61.5980 C   0  0  0  0  0  0  0  0  0  0  0  0
  126.1480  136.2520   61.0090 O   0  0  0  0  0  0  0  0  0  0  0  0
  125.1670  135.6190   61.8130 C   0  0  0  0  0  0  0  0  0  0  0  0
  125.5090  134.1240   61.9870 C   0  0  0  0  0  0  0  0  0  0  0  0
  127.5170  131.5640   62.1720 C   0  0  0  0  0  0  0  0  0  0  0  0
  127.9190  130.3280   62.6700 C   0  0  0  0  0  0  0  0  0  0  0  0
  128.8450  127.8500   63.6730 N   0  0  0  0  0  0  0  0  0  0  0  0
  129.2510  126.6280   64.0910 C   0  0  0  0  0  0  0  0  0  0  0  0
  129.6460  125.5140   62.7610 S   0  0  0  0  0  0  0  0  0  0  0  0
  128.9050  123.9020   63.1570 C   0  0  0  0  0  0  0  0  0  0  0  0
  127.8260  123.5030   62.1500 C   0  0  0  0  0  0  0  0  0  0  0  0
  127.9980  122.5090   61.4420 O   0  0  0  0  0  0  0  0  0  0  0  0
  126.7380  124.3030   62.1150 N   0  0  0  0  0  0  0  0  0  0  0  0
  125.6170  124.1650   61.3090 C   0  0  0  0  0  0  0  0  0  0  0  0
  125.5260  124.7130   60.0310 C   0  0  0  0  0  0  0  0  0  0  0  0
  124.2790  124.3560   59.5760 C   0  0  0  0  0  0  0  0  0  0  0  0
  123.6500  123.6310   60.5310 O   0  0  0  0  0  0  0  0  0  0  0  0
  124.5090  123.5140   61.6260 N   0  0  0  0  0  0  0  0  0  0  0  0
  1  2  3  0
  2  3  1  0
  3  4  2  0
  4  5  1  0
  5  6  2  0
  6  7  1  0
  7  8  2  0
  8  9  1  0
  9 10  1  0
 10 11  1  0
 11 12  1  0
 12 13  1  0
 13 14  1  0
  8 15  1  0
 15 16  2  0
  4 17  1  0
 17 18  2  0
 18 19  1  0
 19 20  2  0
 20 21  1  0
 21 22  2  0
 22 23  1  0
 23 24  1  0
 24 25  1  0
 25 26  1  0
 26 27  1  0
 27 28  1  0
 22 29  1  0
 29 30  2  0
 18 31  1  0
 31 32  2  0
 32 33  1  0
 33 34  1  0
 34 35  1  0
 35 36  2  0
 35 37  1  0
 37 38  1  0
 38 39  1  0
 39 40  2  0
 40 41  1  0
 41 42  1  0
 32  3  1  0
 42 38  2  0
 16  5  1  0
 30 19  1  0
 14  9  1  0
 28 23  1  0
M  END
>  <Binding energies>  (10) 
[-10.3]

>  <Ligand effiencies>  (10) 
[-0.23953488372093024]

>  <Interactions>  (10) 
["V-B:ASP:366:CG:8184, V-B:HIS:456:CE1:9041, V-B:GLU:543:CD:9879, V-A:GLU:543:CD:4908, V-A:ALA:541:CB:4892, V-B:TRP:381:CZ2:8341, V-A:GLU:543:CG:4907, V-B:PRO:482:CB:9297, V-B:PRO:482:CG:9298, V-B:LEU:475:CD1:9229, V-B:TRP:381:CH2:8343, V-A:TYR:539:CD2:4874, V-A:HIS:456:CE1:4069, V-B:HIS:456:CD2:9039, V-A:GLU:543:CB:4906, V-A:HIS:456:CD2:4067, V-B:ALA:541:CB:9863, V-B:GLU:543:CG:9878, V-B:GLU:543:CB:9877, H-B:GLU:543:OE2:9881, H-B:LYS:547:NZ:9922, V-B:LYS:547:CE:9921, H-A:TYR:484:OH:4347, H-B:ALA:541:N:9862, V-B:PRO:540:CB:9856, V-B:LEU:363:CA:8156, V-B:ASN:362:C:8143, H-B:LEU:363:N:8157"]

$$$$
2c_Ghoteimi_2023
     RDKit          3D

 42 47  0  0  0  0  0  0  0  0999 V2000
  130.3810  124.2590   66.3540 N   0  0  0  0  0  0  0  0  0  0  0  0
  129.8850  125.2550   66.0410 C   0  0  0  0  0  0  0  0  0  0  0  0
  129.2570  126.5210   65.6490 C   0  0  0  0  0  0  0  0  0  0  0  0
  128.8210  127.4450   66.6310 C   0  0  0  0  0  0  0  0  0  0  0  0
  128.9540  127.2200   68.1020 C   0  0  0  0  0  0  0  0  0  0  0  0
  129.8530  127.9810   68.8510 C   0  0  0  0  0  0  0  0  0  0  0  0
  129.9790  127.7810   70.2230 C   0  0  0  0  0  0  0  0  0  0  0  0
  129.2200  126.8020   70.8830 C   0  0  0  0  0  0  0  0  0  0  0  0
  129.3160  126.5980   72.2610 N   0  0  0  0  0  0  0  0  0  0  0  0
  128.6960  127.5720   73.1810 C   0  0  0  0  0  0  0  0  0  0  0  0
  129.2000  127.4440   74.6340 C   0  0  0  0  0  0  0  0  0  0  0  0
  129.0090  126.1170   75.1000 O   0  0  0  0  0  0  0  0  0  0  0  0
  129.7170  125.1760   74.3070 C   0  0  0  0  0  0  0  0  0  0  0  0
  129.2280  125.2450   72.8450 C   0  0  0  0  0  0  0  0  0  0  0  0
  128.3220  126.0400   70.1210 C   0  0  0  0  0  0  0  0  0  0  0  0
  128.1950  126.2420   68.7500 C   0  0  0  0  0  0  0  0  0  0  0  0
  128.2310  128.6420   66.2060 C   0  0  0  0  0  0  0  0  0  0  0  0
  128.1020  128.9220   64.8420 C   0  0  0  0  0  0  0  0  0  0  0  0
  127.4950  130.1920   64.3370 C   0  0  0  0  0  0  0  0  0  0  0  0
  128.2930  131.1870   63.7640 C   0  0  0  0  0  0  0  0  0  0  0  0
  127.7330  132.3690   63.2860 C   0  0  0  0  0  0  0  0  0  0  0  0
  126.3520  132.6060   63.3760 C   0  0  0  0  0  0  0  0  0  0  0  0
  125.7700  133.7760   62.8790 N   0  0  0  0  0  0  0  0  0  0  0  0
  126.5680  134.6960   62.0410 C   0  0  0  0  0  0  0  0  0  0  0  0
  125.9410  136.0980   61.8920 C   0  0  0  0  0  0  0  0  0  0  0  0
  124.6160  135.9880   61.3990 O   0  0  0  0  0  0  0  0  0  0  0  0
  123.7940  135.2400   62.2810 C   0  0  0  0  0  0  0  0  0  0  0  0
  124.3580  133.8130   62.4470 C   0  0  0  0  0  0  0  0  0  0  0  0
  125.5540  131.6000   63.9400 C   0  0  0  0  0  0  0  0  0  0  0  0
  126.1160  130.4170   64.4150 C   0  0  0  0  0  0  0  0  0  0  0  0
  128.5230  128.0370   63.9030 N   0  0  0  0  0  0  0  0  0  0  0  0
  129.0680  126.8590   64.2890 C   0  0  0  0  0  0  0  0  0  0  0  0
  129.5520  125.8180   62.9310 S   0  0  0  0  0  0  0  0  0  0  0  0
  128.8390  124.1710   63.2250 C   0  0  0  0  0  0  0  0  0  0  0  0
  127.8290  123.7810   62.1440 C   0  0  0  0  0  0  0  0  0  0  0  0
  127.8690  122.6490   61.6610 O   0  0  0  0  0  0  0  0  0  0  0  0
  126.9510  124.7450   61.7930 N   0  0  0  0  0  0  0  0  0  0  0  0
  125.9330  124.6380   60.8570 C   0  0  0  0  0  0  0  0  0  0  0  0
  125.9540  125.0060   59.5950 N   0  0  0  0  0  0  0  0  0  0  0  0
  124.8090  124.7490   58.9950 C   0  0  0  0  0  0  0  0  0  0  0  0
  123.8230  124.1580   59.7790 C   0  0  0  0  0  0  0  0  0  0  0  0
  124.4410  123.9300   61.3880 S   0  0  0  0  0  0  0  0  0  0  0  0
  1  2  3  0
  2  3  1  0
  3  4  2  0
  4  5  1  0
  5  6  2  0
  6  7  1  0
  7  8  2  0
  8  9  1  0
  9 10  1  0
 10 11  1  0
 11 12  1  0
 12 13  1  0
 13 14  1  0
  8 15  1  0
 15 16  2  0
  4 17  1  0
 17 18  2  0
 18 19  1  0
 19 20  2  0
 20 21  1  0
 21 22  2  0
 22 23  1  0
 23 24  1  0
 24 25  1  0
 25 26  1  0
 26 27  1  0
 27 28  1  0
 22 29  1  0
 29 30  2  0
 18 31  1  0
 31 32  2  0
 32 33  1  0
 33 34  1  0
 34 35  1  0
 35 36  2  0
 35 37  1  0
 37 38  1  0
 38 39  2  0
 39 40  1  0
 40 41  2  0
 41 42  1  0
 32  3  1  0
 42 38  1  0
 16  5  1  0
 30 19  1  0
 14  9  1  0
 28 23  1  0
M  END
>  <Binding energies>  (11) 
[-10.19]

>  <Ligand effiencies>  (11) 
[-0.2369767441860465]

>  <Interactions>  (11) 
["V-B:ASP:366:CG:8184, V-B:HIS:456:CE1:9041, V-B:GLU:543:CD:9879, V-A:GLU:543:CD:4908, V-A:ALA:541:CB:4892, V-B:TRP:381:CZ2:8341, V-A:GLU:543:CG:4907, V-B:LEU:475:CD1:9229, V-B:ILE:369:CG2:8208, V-B:TRP:381:CH2:8343, V-A:HIS:456:CE1:4069, V-B:HIS:456:CD2:9039, V-A:GLU:543:CB:4906, V-A:HIS:456:CD2:4067, V-B:ALA:541:CB:9863, V-B:GLU:543:CG:9878, V-B:GLU:543:CB:9877, V-B:SER:385:C:8376, H-B:GLU:543:OE2:9881, H-B:LYS:547:NZ:9922, V-B:LYS:547:CE:9921, H-A:TYR:484:OH:4347, H-B:ALA:541:N:9862, V-B:PRO:540:CB:9856, V-B:LEU:363:CA:8156, V-B:ASN:362:CB:8147, V-B:ASN:362:C:8143"]

$$$$
2j_Grossjean_2025
     RDKit          3D

 23 24  0  0  0  0  0  0  0  0999 V2000
  128.7860  131.2560   59.9550 C   0  0  0  0  0  0  0  0  0  0  0  0
  127.7130  132.2730   60.2980 C   0  0  0  0  0  0  0  0  0  0  0  0
  128.0200  133.4650   60.9490 C   0  0  0  0  0  0  0  0  0  0  0  0
  126.9930  134.3750   61.2420 C   0  0  0  0  0  0  0  0  0  0  0  0
  127.3500  135.6890   61.9630 C   0  0  0  0  0  0  0  0  0  0  0  0
  127.1380  135.5630   63.2730 F   0  0  0  0  0  0  0  0  0  0  0  0
  128.6340  135.9890   61.7590 F   0  0  0  0  0  0  0  0  0  0  0  0
  126.6240  136.7250   61.5360 F   0  0  0  0  0  0  0  0  0  0  0  0
  125.6680  134.0450   60.8620 C   0  0  0  0  0  0  0  0  0  0  0  0
  124.5560  134.9590   61.1430 C   0  0  0  0  0  0  0  0  0  0  0  0
  123.6790  135.6810   61.3640 N   0  0  0  0  0  0  0  0  0  0  0  0
  125.4470  132.8120   60.2040 C   0  0  0  0  0  0  0  0  0  0  0  0
  123.8200  132.2940   59.6780 S   0  0  0  0  0  0  0  0  0  0  0  0
  123.1600  131.1260   60.9150 C   0  0  0  0  0  0  0  0  0  0  0  0
  123.7130  131.3090   62.3360 C   0  0  0  0  0  0  0  0  0  0  0  0
  123.8970  132.4370   62.7990 O   0  0  0  0  0  0  0  0  0  0  0  0
  123.9780  130.1590   62.9940 N   0  0  0  0  0  0  0  0  0  0  0  0
  124.4800  130.0360   64.2830 C   0  0  0  0  0  0  0  0  0  0  0  0
  123.8050  129.9890   65.4110 N   0  0  0  0  0  0  0  0  0  0  0  0
  124.6060  129.8670   66.4510 C   0  0  0  0  0  0  0  0  0  0  0  0
  125.9690  129.8120   66.1760 C   0  0  0  0  0  0  0  0  0  0  0  0
  126.2030  129.9280   64.4570 S   0  0  0  0  0  0  0  0  0  0  0  0
  126.4550  131.9450   59.9280 N   0  0  0  0  0  0  0  0  0  0  0  0
  1  2  1  0
  2  3  2  0
  3  4  1  0
  4  5  1  0
  5  6  1  0
  5  7  1  0
  5  8  1  0
  4  9  2  0
  9 10  1  0
 10 11  3  0
  9 12  1  0
 12 13  1  0
 13 14  1  0
 14 15  1  0
 15 16  2  0
 15 17  1  0
 17 18  1  0
 18 19  2  0
 19 20  1  0
 20 21  2  0
 21 22  1  0
 12 23  2  0
 23  2  1  0
 22 18  1  0
M  END
>  <Binding energies>  (12) 
[-6.05]

>  <Ligand effiencies>  (12) 
[-0.2520833333333333]

>  <Interactions>  (12) 
["V-B:ASP:366:CG:8184, V-B:ILE:369:CB:8207, V-A:ALA:541:CB:4892, V-B:TRP:381:CZ2:8341, V-B:ILE:369:CD1:8210, V-B:PRO:482:CB:9297, V-B:PRO:482:CG:9298, V-B:LEU:475:CD1:9229, V-B:ILE:369:CG2:8208, V-B:TRP:381:CH2:8343, V-A:TYR:539:CE2:4876, V-A:TYR:539:CD2:4874, H-B:GLY:454:N:9021, V-B:ASP:366:CB:8183, H-B:ARG:545:NH2:9899, V-A:PRO:540:C:4881, V-A:ALA:541:CA:4890, H-B:ARG:545:NE:9895, V-B:ARG:545:CZ:9897, H-B:ASP:366:OD1:8185, H-B:ASP:366:OD2:8186, V-A:TYR:539:C:4867, V-B:ARG:545:CD:9894, V-B:ASP:366:CA:8181, V-B:TRP:381:CZ3:8342, V-B:TRP:381:CE2:8338"]

$$$$
3ab_Grossjean_2025
     RDKit          3D

 33 35  0  0  0  0  0  0  0  0999 V2000
  129.6240  129.4980   73.3730 C   0  0  0  0  0  0  0  0  0  0  0  0
  130.2000  128.1990   73.3830 O   0  0  0  0  0  0  0  0  0  0  0  0
  129.4790  127.1120   73.0080 C   0  0  0  0  0  0  0  0  0  0  0  0
  128.9450  126.3400   73.8090 O   0  0  0  0  0  0  0  0  0  0  0  0
  129.3920  126.9440   71.5180 C   0  0  0  0  0  0  0  0  0  0  0  0
  130.0550  127.8070   70.6330 C   0  0  0  0  0  0  0  0  0  0  0  0
  129.9580  127.6260   69.2560 C   0  0  0  0  0  0  0  0  0  0  0  0
  129.1890  126.5720   68.7380 C   0  0  0  0  0  0  0  0  0  0  0  0
  129.0240  126.2920   67.3680 N   0  0  0  0  0  0  0  0  0  0  0  0
  129.9350  125.9170   66.4450 C   0  0  0  0  0  0  0  0  0  0  0  0
  131.1380  125.7580   66.6510 O   0  0  0  0  0  0  0  0  0  0  0  0
  129.3840  125.6820   65.0370 C   0  0  0  0  0  0  0  0  0  0  0  0
  130.6740  125.1360   63.8790 S   0  0  0  0  0  0  0  0  0  0  0  0
  129.9790  123.8380   62.8770 C   0  0  0  0  0  0  0  0  0  0  0  0
  128.7400  124.1200   62.4090 N   0  0  0  0  0  0  0  0  0  0  0  0
  128.0920  123.2200   61.6250 C   0  0  0  0  0  0  0  0  0  0  0  0
  126.7260  123.6100   61.1460 C   0  0  0  0  0  0  0  0  0  0  0  0
  126.4620  123.7630   59.7750 C   0  0  0  0  0  0  0  0  0  0  0  0
  125.1950  124.1240   59.3240 C   0  0  0  0  0  0  0  0  0  0  0  0
  124.1710  124.3390   60.2410 C   0  0  0  0  0  0  0  0  0  0  0  0
  124.4060  124.1970   61.6040 C   0  0  0  0  0  0  0  0  0  0  0  0
  125.6740  123.8360   62.0510 C   0  0  0  0  0  0  0  0  0  0  0  0
  128.6810  121.9890   61.3120 C   0  0  0  0  0  0  0  0  0  0  0  0
  129.9540  121.6660   61.8010 C   0  0  0  0  0  0  0  0  0  0  0  0
  130.5640  120.2990   61.4360 C   0  0  0  0  0  0  0  0  0  0  0  0
  131.8980  120.3260   61.3770 F   0  0  0  0  0  0  0  0  0  0  0  0
  130.2240  119.3860   62.3470 F   0  0  0  0  0  0  0  0  0  0  0  0
  130.1170  119.9050   60.2430 F   0  0  0  0  0  0  0  0  0  0  0  0
  130.6270  122.6100   62.6160 C   0  0  0  0  0  0  0  0  0  0  0  0
  131.9350  122.3000   63.1990 C   0  0  0  0  0  0  0  0  0  0  0  0
  132.9680  122.0510   63.6580 N   0  0  0  0  0  0  0  0  0  0  0  0
  128.5320  125.7090   69.6160 C   0  0  0  0  0  0  0  0  0  0  0  0
  128.6300  125.8930   70.9910 C   0  0  0  0  0  0  0  0  0  0  0  0
  1  2  1  0
  2  3  1  0
  3  4  2  0
  3  5  1  0
  5  6  2  0
  6  7  1  0
  7  8  2  0
  8  9  1  0
  9 10  1  0
 10 11  2  0
 10 12  1  0
 12 13  1  0
 13 14  1  0
 14 15  2  0
 15 16  1  0
 16 17  1  0
 17 18  2  0
 18 19  1  0
 19 20  2  0
 20 21  1  0
 21 22  2  0
 16 23  2  0
 23 24  1  0
 24 25  1  0
 25 26  1  0
 25 27  1  0
 25 28  1  0
 24 29  2  0
 29 30  1  0
 30 31  3  0
  8 32  1  0
 32 33  2  0
 33  5  1  0
 29 14  1  0
 22 17  1  0
M  END
>  <Binding energies>  (13) 
[-8.32]

>  <Ligand effiencies>  (13) 
[-0.2447058823529412]

>  <Interactions>  (13) 
["V-B:ASP:366:CG:8184, V-B:HIS:456:CE1:9041, V-B:GLU:543:CD:9879, V-A:LEU:475:CD2:4258, V-A:HIS:456:CE1:4069, V-B:TYR:539:CD2:9845, V-A:GLU:543:CB:4906, V-B:TYR:539:CE2:9847, V-B:ALA:541:CB:9863, V-B:GLU:543:C:9873, V-B:GLU:543:CG:9878, V-B:GLU:543:CB:9877, H-B:GLU:543:OE2:9881, H-B:GLU:543:OE1:9880, H-B:LYS:547:NZ:9922, H-A:LYS:547:NZ:4951, V-B:PRO:540:C:9852, H-A:TYR:484:OH:4347, V-B:ALA:541:CA:9861, V-B:TYR:539:C:9838, V-B:PRO:540:CA:9854, V-A:TRP:381:CH2:3371, H-A:GLY:454:N:4049, V-B:PRO:540:CB:9856, V-A:LEU:475:CD1:4257, V-B:LEU:363:CA:8156, V-B:TYR:539:CG:9843, V-B:ASN:362:CB:8147, V-A:PRO:482:CB:4325, V-A:PRO:482:CG:4326, V-B:ASN:362:C:8143, V-A:LEU:475:CG:4256"]

$$$$
3ac_Grossjean_2025
     RDKit          3D

 31 33  0  0  0  0  0  0  0  0999 V2000
  129.7390  130.0440   74.0970 C   0  0  0  0  0  0  0  0  0  0  0  0
  130.4880  128.9040   73.6880 O   0  0  0  0  0  0  0  0  0  0  0  0
  130.3760  128.4540   72.3860 C   0  0  0  0  0  0  0  0  0  0  0  0
  131.3790  128.8510   71.5020 C   0  0  0  0  0  0  0  0  0  0  0  0
  131.3530  128.4440   70.1720 C   0  0  0  0  0  0  0  0  0  0  0  0
  130.3150  127.6370   69.7030 C   0  0  0  0  0  0  0  0  0  0  0  0
  130.3860  127.2600   68.3490 N   0  0  0  0  0  0  0  0  0  0  0  0
  129.8330  126.1930   67.7320 C   0  0  0  0  0  0  0  0  0  0  0  0
  129.1050  125.3580   68.2710 O   0  0  0  0  0  0  0  0  0  0  0  0
  130.1580  126.0500   66.2450 C   0  0  0  0  0  0  0  0  0  0  0  0
  130.1410  124.3140   65.7010 S   0  0  0  0  0  0  0  0  0  0  0  0
  130.0690  124.2740   63.9200 C   0  0  0  0  0  0  0  0  0  0  0  0
  128.8090  124.1440   63.4400 N   0  0  0  0  0  0  0  0  0  0  0  0
  128.5960  124.1050   62.1000 C   0  0  0  0  0  0  0  0  0  0  0  0
  127.1720  123.9520   61.6520 C   0  0  0  0  0  0  0  0  0  0  0  0
  126.1920  123.4590   62.5290 C   0  0  0  0  0  0  0  0  0  0  0  0
  124.8690  123.3200   62.1210 C   0  0  0  0  0  0  0  0  0  0  0  0
  124.5060  123.6710   60.8250 C   0  0  0  0  0  0  0  0  0  0  0  0
  125.4570  124.1570   59.9350 C   0  0  0  0  0  0  0  0  0  0  0  0
  126.7800  124.2940   60.3470 C   0  0  0  0  0  0  0  0  0  0  0  0
  129.6650  124.1790   61.2020 C   0  0  0  0  0  0  0  0  0  0  0  0
  130.9810  124.2910   61.6730 C   0  0  0  0  0  0  0  0  0  0  0  0
  132.1310  124.3640   60.6480 C   0  0  0  0  0  0  0  0  0  0  0  0
  132.8550  125.4790   60.7620 F   0  0  0  0  0  0  0  0  0  0  0  0
  132.9620  123.3330   60.8120 F   0  0  0  0  0  0  0  0  0  0  0  0
  131.6370  124.3280   59.4100 F   0  0  0  0  0  0  0  0  0  0  0  0
  131.2000  124.3260   63.0730 C   0  0  0  0  0  0  0  0  0  0  0  0
  132.5610  124.3650   63.6120 C   0  0  0  0  0  0  0  0  0  0  0  0
  133.6370  124.3940   64.0380 N   0  0  0  0  0  0  0  0  0  0  0  0
  129.3050  127.2270   70.5880 C   0  0  0  0  0  0  0  0  0  0  0  0
  129.3350  127.6360   71.9180 C   0  0  0  0  0  0  0  0  0  0  0  0
  1  2  1  0
  2  3  1  0
  3  4  2  0
  4  5  1  0
  5  6  2  0
  6  7  1  0
  7  8  1  0
  8  9  2  0
  8 10  1  0
 10 11  1  0
 11 12  1  0
 12 13  2  0
 13 14  1  0
 14 15  1  0
 15 16  2  0
 16 17  1  0
 17 18  2  0
 18 19  1  0
 19 20  2  0
 14 21  2  0
 21 22  1  0
 22 23  1  0
 23 24  1  0
 23 25  1  0
 23 26  1  0
 22 27  2  0
 27 28  1  0
 28 29  3  0
  6 30  1  0
 30 31  2  0
 31  3  1  0
 27 12  1  0
 20 15  1  0
M  END
>  <Binding energies>  (14) 
[-7.91]

>  <Ligand effiencies>  (14) 
[-0.2471875]

>  <Interactions>  (14) 
["V-B:HIS:456:CE1:9041, V-B:GLU:543:CD:9879, V-A:ASP:366:CG:3212, V-A:GLU:543:CD:4908, V-A:ILE:369:CD1:3238, V-A:HIS:456:CE1:4069, V-A:GLU:543:C:4902, V-A:ILE:369:CG2:3236, V-A:GLU:543:CB:4906, V-B:TYR:539:CE2:9847, V-A:ILE:369:CB:3235, V-A:ASP:366:CB:3211, V-A:GLY:544:C:4912, V-B:ALA:541:CB:9863, V-A:ARG:545:CG:4922, V-B:GLU:543:CG:9878, V-A:ARG:545:CA:4919, H-A:LYS:547:NZ:4951, H-A:TYR:484:OH:4347, V-B:ALA:541:CA:9861, V-A:LYS:547:CE:4950, V-B:PRO:540:CA:9854, H-A:GLY:454:N:4049, V-B:PRO:540:CB:9856, H-A:GLU:543:OE2:4910, V-B:ASN:362:CB:8147, V-B:ASN:362:C:8143"]

$$$$
3af_Grossjean_2025
     RDKit          3D

 29 31  0  0  0  0  0  0  0  0999 V2000
  133.1580  121.8690   61.3270 N   0  0  0  0  0  0  0  0  0  0  0  0
  132.0740  122.1040   60.9980 C   0  0  0  0  0  0  0  0  0  0  0  0
  130.7000  122.4000   60.5820 C   0  0  0  0  0  0  0  0  0  0  0  0
  129.6640  121.4560   60.7860 C   0  0  0  0  0  0  0  0  0  0  0  0
  129.8970  120.1040   61.4890 C   0  0  0  0  0  0  0  0  0  0  0  0
  130.9190  119.4190   60.9710 F   0  0  0  0  0  0  0  0  0  0  0  0
  130.1590  120.3020   62.7820 F   0  0  0  0  0  0  0  0  0  0  0  0
  128.8100  119.3380   61.3800 F   0  0  0  0  0  0  0  0  0  0  0  0
  128.3760  121.7630   60.3220 C   0  0  0  0  0  0  0  0  0  0  0  0
  128.1300  122.9760   59.6710 C   0  0  0  0  0  0  0  0  0  0  0  0
  126.7780  123.3460   59.1380 C   0  0  0  0  0  0  0  0  0  0  0  0
  125.7240  123.6620   60.0110 C   0  0  0  0  0  0  0  0  0  0  0  0
  124.4670  124.0080   59.5220 C   0  0  0  0  0  0  0  0  0  0  0  0
  124.2470  124.0450   58.1500 C   0  0  0  0  0  0  0  0  0  0  0  0
  125.2740  123.7390   57.2630 C   0  0  0  0  0  0  0  0  0  0  0  0
  126.5300  123.3940   57.7560 C   0  0  0  0  0  0  0  0  0  0  0  0
  129.1260  123.8760   59.4740 N   0  0  0  0  0  0  0  0  0  0  0  0
  130.3730  123.6130   59.9340 C   0  0  0  0  0  0  0  0  0  0  0  0
  131.5400  124.9160   59.5960 S   0  0  0  0  0  0  0  0  0  0  0  0
  130.8400  126.4730   60.2210 C   0  0  0  0  0  0  0  0  0  0  0  0
  131.0050  126.6030   61.7350 C   0  0  0  0  0  0  0  0  0  0  0  0
  130.3160  127.4210   62.3440 O   0  0  0  0  0  0  0  0  0  0  0  0
  131.9280  125.7870   62.2890 N   0  0  0  0  0  0  0  0  0  0  0  0
  132.3250  125.6630   63.6340 C   0  0  0  0  0  0  0  0  0  0  0  0
  131.5050  125.8820   64.7570 C   0  0  0  0  0  0  0  0  0  0  0  0
  132.0330  125.7240   66.0400 C   0  0  0  0  0  0  0  0  0  0  0  0
  133.3710  125.3510   66.1700 C   0  0  0  0  0  0  0  0  0  0  0  0
  134.1820  125.1340   65.1060 N   0  0  0  0  0  0  0  0  0  0  0  0
  133.6540  125.2910   63.8650 C   0  0  0  0  0  0  0  0  0  0  0  0
  1  2  3  0
  2  3  1  0
  3  4  2  0
  4  5  1  0
  5  6  1  0
  5  7  1  0
  5  8  1  0
  4  9  1  0
  9 10  2  0
 10 11  1  0
 11 12  2  0
 12 13  1  0
 13 14  2  0
 14 15  1  0
 15 16  2  0
 10 17  1  0
 17 18  2  0
 18 19  1  0
 19 20  1  0
 20 21  1  0
 21 22  2  0
 21 23  1  0
 23 24  1  0
 24 25  2  0
 25 26  1  0
 26 27  2  0
 27 28  1  0
 28 29  2  0
 18  3  1  0
 29 24  1  0
 16 11  1  0
M  END
>  <Binding energies>  (15) 
[-6.93]

>  <Ligand effiencies>  (15) 
[-0.23099999999999998]

>  <Interactions>  (15) 
["V-A:ARG:545:CZ:4926, V-A:LEU:475:CD2:4258, V-A:HIS:456:CE1:4069, V-B:TYR:539:CD2:9845, V-A:ILE:369:CG2:3236, V-B:TYR:539:CE2:9847, V-B:ALA:541:CB:9863, V-B:PRO:540:C:9852, H-A:TYR:484:OH:4347, V-B:ALA:541:CA:9861, V-B:PRO:540:N:9855, V-A:TRP:381:CZ2:3369, V-B:TYR:539:C:9838, V-B:PRO:540:CA:9854, V-A:TRP:381:CH2:3371, H-A:ASP:366:OD1:3213, H-A:ARG:545:NE:4924, H-A:GLY:454:N:4049, V-B:PRO:540:CB:9856, V-A:ARG:545:CD:4923, V-A:LEU:475:CD1:4257, V-B:LEU:363:CA:8156, H-A:ARG:545:NH1:4927, V-B:LEU:363:CD1:8160, V-A:PRO:482:CB:4325, V-A:PRO:482:CG:4326, V-A:LEU:475:CG:4256"]

$$$$
3ag_Grossjean_2025
     RDKit          3D

 30 32  0  0  0  0  0  0  0  0999 V2000
  128.8980  126.9240   62.9850 N   0  0  0  0  0  0  0  0  0  0  0  0
  129.0040  127.0040   64.1350 C   0  0  0  0  0  0  0  0  0  0  0  0
  129.1350  127.1070   65.5910 C   0  0  0  0  0  0  0  0  0  0  0  0
  128.4500  128.1180   66.3090 C   0  0  0  0  0  0  0  0  0  0  0  0
  127.4940  129.1190   65.6310 C   0  0  0  0  0  0  0  0  0  0  0  0
  126.6120  128.5260   64.8240 F   0  0  0  0  0  0  0  0  0  0  0  0
  126.8070  129.7880   66.5570 F   0  0  0  0  0  0  0  0  0  0  0  0
  128.1870  129.9880   64.8930 F   0  0  0  0  0  0  0  0  0  0  0  0
  128.6500  128.2090   67.6950 C   0  0  0  0  0  0  0  0  0  0  0  0
  129.5190  127.3240   68.3440 C   0  0  0  0  0  0  0  0  0  0  0  0
  129.7710  127.3770   69.8200 C   0  0  0  0  0  0  0  0  0  0  0  0
  130.7750  128.2070   70.3460 C   0  0  0  0  0  0  0  0  0  0  0  0
  131.0150  128.2610   71.7160 C   0  0  0  0  0  0  0  0  0  0  0  0
  130.2530  127.4830   72.5820 C   0  0  0  0  0  0  0  0  0  0  0  0
  129.2540  126.6510   72.0860 C   0  0  0  0  0  0  0  0  0  0  0  0
  129.0180  126.5990   70.7150 C   0  0  0  0  0  0  0  0  0  0  0  0
  130.1640  126.3480   67.6530 N   0  0  0  0  0  0  0  0  0  0  0  0
  129.9700  126.2300   66.3170 C   0  0  0  0  0  0  0  0  0  0  0  0
  130.8910  124.8970   65.5810 S   0  0  0  0  0  0  0  0  0  0  0  0
  129.7260  123.5350   65.2790 C   0  0  0  0  0  0  0  0  0  0  0  0
  129.5490  123.2460   63.7880 C   0  0  0  0  0  0  0  0  0  0  0  0
  130.1210  122.2820   63.2770 O   0  0  0  0  0  0  0  0  0  0  0  0
  128.7490  124.0860   63.1080 N   0  0  0  0  0  0  0  0  0  0  0  0
  128.4130  123.9760   61.6890 C   0  0  0  0  0  0  0  0  0  0  0  0
  126.9160  124.0030   61.3990 C   0  0  0  0  0  0  0  0  0  0  0  0
  126.4620  124.3630   60.1280 C   0  0  0  0  0  0  0  0  0  0  0  0
  125.0970  124.3610   59.8510 C   0  0  0  0  0  0  0  0  0  0  0  0
  124.1920  123.9900   60.8440 C   0  0  0  0  0  0  0  0  0  0  0  0
  124.6400  123.6160   62.1090 C   0  0  0  0  0  0  0  0  0  0  0  0
  126.0040  123.6170   62.3860 C   0  0  0  0  0  0  0  0  0  0  0  0
  1  2  3  0
  2  3  1  0
  3  4  2  0
  4  5  1  0
  5  6  1  0
  5  7  1  0
  5  8  1  0
  4  9  1  0
  9 10  2  0
 10 11  1  0
 11 12  2  0
 12 13  1  0
 13 14  2  0
 14 15  1  0
 15 16  2  0
 10 17  1  0
 17 18  2  0
 18 19  1  0
 19 20  1  0
 20 21  1  0
 21 22  2  0
 21 23  1  0
 23 24  1  0
 24 25  1  0
 25 26  2  0
 26 27  1  0
 27 28  2  0
 28 29  1  0
 29 30  2  0
 18  3  1  0
 30 25  1  0
 16 11  1  0
M  END
>  <Binding energies>  (16) 
[-6.9]

>  <Ligand effiencies>  (16) 
[-0.22258064516129034]

>  <Interactions>  (16) 
["V-B:HIS:456:CE1:9041, V-B:GLU:543:CD:9879, V-A:GLU:543:CD:4908, V-A:GLU:543:CG:4907, V-A:HIS:456:CE1:4069, V-A:GLU:543:CB:4906, V-B:ALA:541:CB:9863, V-B:GLU:543:CG:9878, H-B:GLU:543:OE2:9881, H-A:TYR:484:OH:4347, V-B:ARG:545:CZ:9897, V-B:PRO:540:CB:9856, V-B:ASN:362:CB:8147, V-A:TYR:484:CE1:4344, V-B:ASN:362:C:8143"]

$$$$
3bc_Grossjean_2025
     RDKit          3D

 28 30  0  0  0  0  0  0  0  0999 V2000
  129.7490  130.2480   73.7610 C   0  0  0  0  0  0  0  0  0  0  0  0
  130.4330  129.0350   73.4640 O   0  0  0  0  0  0  0  0  0  0  0  0
  130.5130  128.6120   72.1500 C   0  0  0  0  0  0  0  0  0  0  0  0
  129.3910  127.9610   71.6380 C   0  0  0  0  0  0  0  0  0  0  0  0
  129.3770  127.4980   70.3250 C   0  0  0  0  0  0  0  0  0  0  0  0
  130.4940  127.6740   69.5060 C   0  0  0  0  0  0  0  0  0  0  0  0
  130.3830  127.1840   68.1910 N   0  0  0  0  0  0  0  0  0  0  0  0
  129.7430  126.0830   67.7430 C   0  0  0  0  0  0  0  0  0  0  0  0
  129.0890  125.3150   68.4520 O   0  0  0  0  0  0  0  0  0  0  0  0
  129.8450  125.8530   66.2290 C   0  0  0  0  0  0  0  0  0  0  0  0
  130.0910  124.1170   65.7230 S   0  0  0  0  0  0  0  0  0  0  0  0
  129.9990  124.0500   63.9470 C   0  0  0  0  0  0  0  0  0  0  0  0
  128.7320  123.9780   63.4690 N   0  0  0  0  0  0  0  0  0  0  0  0
  128.5170  123.9240   62.1290 C   0  0  0  0  0  0  0  0  0  0  0  0
  127.0880  123.8240   61.6830 C   0  0  0  0  0  0  0  0  0  0  0  0
  126.0990  123.3380   62.5510 C   0  0  0  0  0  0  0  0  0  0  0  0
  124.7700  123.2430   62.1440 C   0  0  0  0  0  0  0  0  0  0  0  0
  124.4140  123.6340   60.8570 C   0  0  0  0  0  0  0  0  0  0  0  0
  125.3760  124.1160   59.9760 C   0  0  0  0  0  0  0  0  0  0  0  0
  126.7030  124.2080   60.3870 C   0  0  0  0  0  0  0  0  0  0  0  0
  129.5860  123.9400   61.2280 C   0  0  0  0  0  0  0  0  0  0  0  0
  130.8990  124.0370   61.7040 C   0  0  0  0  0  0  0  0  0  0  0  0
  132.0350  124.0690   60.6830 C   0  0  0  0  0  0  0  0  0  0  0  0
  131.1260  124.1050   63.0960 C   0  0  0  0  0  0  0  0  0  0  0  0
  132.4870  124.2560   63.6140 C   0  0  0  0  0  0  0  0  0  0  0  0
  133.5630  124.3750   64.0220 N   0  0  0  0  0  0  0  0  0  0  0  0
  131.6220  128.3400   70.0090 C   0  0  0  0  0  0  0  0  0  0  0  0
  131.6310  128.8010   71.3230 C   0  0  0  0  0  0  0  0  0  0  0  0
  1  2  1  0
  2  3  1  0
  3  4  2  0
  4  5  1  0
  5  6  2  0
  6  7  1  0
  7  8  1  0
  8  9  2  0
  8 10  1  0
 10 11  1  0
 11 12  1  0
 12 13  2  0
 13 14  1  0
 14 15  1  0
 15 16  2  0
 16 17  1  0
 17 18  2  0
 18 19  1  0
 19 20  2  0
 14 21  2  0
 21 22  1  0
 22 23  1  0
 22 24  2  0
 24 25  1  0
 25 26  3  0
  6 27  1  0
 27 28  2  0
 28  3  1  0
 24 12  1  0
 20 15  1  0
M  END
>  <Binding energies>  (17) 
[-8.3]

>  <Ligand effiencies>  (17) 
[-0.28620689655172415]

>  <Interactions>  (17) 
["V-B:HIS:456:CE1:9041, V-B:GLU:543:CD:9879, V-A:GLU:543:CD:4908, V-A:HIS:456:CE1:4069, V-A:GLU:543:C:4902, V-A:GLU:543:CB:4906, V-A:GLY:544:C:4912, V-B:ALA:541:CB:9863, V-A:ARG:545:CG:4922, V-B:GLU:543:CG:9878, V-B:GLU:543:CB:9877, V-A:ARG:545:CA:4919, H-A:LYS:547:NZ:4951, V-B:PRO:540:C:9852, H-A:TYR:484:OH:4347, V-B:ALA:541:CA:9861, V-A:LYS:547:CE:4950, V-B:PRO:540:CA:9854, H-A:GLY:454:N:4049, V-B:PRO:540:CB:9856, H-A:GLU:543:OE2:4910, V-B:ASN:362:CB:8147, V-B:ALA:541:C:9859, V-B:ASN:362:C:8143"]

$$$$
3bd_Grossjean_2025
     RDKit          3D

 26 28  0  0  0  0  0  0  0  0999 V2000
  130.3630  119.0760   61.3750 C   0  0  0  0  0  0  0  0  0  0  0  0
  130.2750  120.5690   61.0620 C   0  0  0  0  0  0  0  0  0  0  0  0
  129.0100  121.1250   60.8410 C   0  0  0  0  0  0  0  0  0  0  0  0
  128.8880  122.4880   60.5480 C   0  0  0  0  0  0  0  0  0  0  0  0
  127.5630  123.1490   60.3050 C   0  0  0  0  0  0  0  0  0  0  0  0
  127.0570  123.2840   59.0020 C   0  0  0  0  0  0  0  0  0  0  0  0
  125.8290  123.8980   58.7690 C   0  0  0  0  0  0  0  0  0  0  0  0
  125.0880  124.3880   59.8400 C   0  0  0  0  0  0  0  0  0  0  0  0
  125.5680  124.2690   61.1400 C   0  0  0  0  0  0  0  0  0  0  0  0
  126.7960  123.6550   61.3680 C   0  0  0  0  0  0  0  0  0  0  0  0
  129.9850  123.2880   60.4880 N   0  0  0  0  0  0  0  0  0  0  0  0
  131.2190  122.7650   60.6990 C   0  0  0  0  0  0  0  0  0  0  0  0
  132.5780  123.9170   60.5810 S   0  0  0  0  0  0  0  0  0  0  0  0
  133.7180  123.5860   61.9570 C   0  0  0  0  0  0  0  0  0  0  0  0
  133.2120  124.1750   63.2750 C   0  0  0  0  0  0  0  0  0  0  0  0
  133.9920  124.8120   63.9840 O   0  0  0  0  0  0  0  0  0  0  0  0
  131.9170  123.9280   63.5670 N   0  0  0  0  0  0  0  0  0  0  0  0
  131.1630  124.3510   64.6780 C   0  0  0  0  0  0  0  0  0  0  0  0
  131.1870  125.7220   64.9500 C   0  0  0  0  0  0  0  0  0  0  0  0
  130.4790  126.2330   66.0340 C   0  0  0  0  0  0  0  0  0  0  0  0
  129.7530  125.3730   66.8530 C   0  0  0  0  0  0  0  0  0  0  0  0
  129.7330  124.0030   66.6000 C   0  0  0  0  0  0  0  0  0  0  0  0
  130.4390  123.4890   65.5160 C   0  0  0  0  0  0  0  0  0  0  0  0
  131.4150  121.3980   60.9910 C   0  0  0  0  0  0  0  0  0  0  0  0
  132.7540  120.8450   61.2190 C   0  0  0  0  0  0  0  0  0  0  0  0
  133.8090  120.4080   61.4000 N   0  0  0  0  0  0  0  0  0  0  0  0
  1  2  1  0
  2  3  2  0
  3  4  1  0
  4  5  1  0
  5  6  2  0
  6  7  1  0
  7  8  2  0
  8  9  1  0
  9 10  2  0
  4 11  2  0
 11 12  1  0
 12 13  1  0
 13 14  1  0
 14 15  1  0
 15 16  2  0
 15 17  1  0
 17 18  1  0
 18 19  2  0
 19 20  1  0
 20 21  2  0
 21 22  1  0
 22 23  2  0
 12 24  2  0
 24 25  1  0
 25 26  3  0
 24  2  1  0
 10  5  1  0
 23 18  1  0
M  END
>  <Binding energies>  (18) 
[-7.67]

>  <Ligand effiencies>  (18) 
[-0.2840740740740741]

>  <Interactions>  (18) 
["V-B:GLU:543:CD:9879, V-A:LEU:475:CD2:4258, V-A:TYR:484:CZ:4346, V-A:GLU:543:CD:4908, V-A:ILE:369:CD1:3238, V-A:HIS:456:CE1:4069, V-B:TYR:539:CD2:9845, V-A:ILE:369:CG2:3236, V-B:TYR:539:CE2:9847, V-B:ALA:541:CB:9863, V-B:GLU:543:CG:9878, V-B:GLU:543:CB:9877, V-B:PRO:540:C:9852, V-B:ALA:541:CA:9861, V-B:PRO:540:N:9855, V-A:TRP:381:CZ2:3369, V-B:TYR:539:C:9838, V-B:PRO:540:CA:9854, V-A:TRP:381:CH2:3371, H-A:GLY:454:N:4049, V-B:PRO:540:CB:9856, V-A:TYR:484:CE1:4344, V-B:GLU:543:CA:9875, V-A:PRO:482:CB:4325, V-A:PRO:482:CG:4326"]

$$$$
3be_Grossjean_2025
     RDKit          3D

 27 29  0  0  0  0  0  0  0  0999 V2000
  123.7520  129.6590   67.6960 C   0  0  0  0  0  0  0  0  0  0  0  0
  124.6970  129.7240   66.5120 C   0  0  0  0  0  0  0  0  0  0  0  0
  126.0720  129.5310   66.6620 C   0  0  0  0  0  0  0  0  0  0  0  0
  126.8820  129.6080   65.5280 C   0  0  0  0  0  0  0  0  0  0  0  0
  126.3020  129.8720   64.2840 C   0  0  0  0  0  0  0  0  0  0  0  0
  124.9170  130.0520   64.2040 C   0  0  0  0  0  0  0  0  0  0  0  0
  124.3960  130.3260   62.9250 N   0  0  0  0  0  0  0  0  0  0  0  0
  124.0570  131.5180   62.3880 C   0  0  0  0  0  0  0  0  0  0  0  0
  124.1520  132.6000   62.9700 O   0  0  0  0  0  0  0  0  0  0  0  0
  123.5250  131.4460   60.9480 C   0  0  0  0  0  0  0  0  0  0  0  0
  124.1860  132.7120   59.8120 S   0  0  0  0  0  0  0  0  0  0  0  0
  125.5360  133.5360   60.6270 C   0  0  0  0  0  0  0  0  0  0  0  0
  126.7410  132.9550   60.4060 N   0  0  0  0  0  0  0  0  0  0  0  0
  127.8610  133.4830   60.9670 C   0  0  0  0  0  0  0  0  0  0  0  0
  129.1510  132.7720   60.6840 C   0  0  0  0  0  0  0  0  0  0  0  0
  129.6110  132.6150   59.3670 C   0  0  0  0  0  0  0  0  0  0  0  0
  130.8060  131.9550   59.0970 C   0  0  0  0  0  0  0  0  0  0  0  0
  131.5600  131.4380   60.1450 C   0  0  0  0  0  0  0  0  0  0  0  0
  131.1270  131.5770   61.4590 C   0  0  0  0  0  0  0  0  0  0  0  0
  129.9310  132.2390   61.7240 C   0  0  0  0  0  0  0  0  0  0  0  0
  127.7900  134.6220   61.7760 C   0  0  0  0  0  0  0  0  0  0  0  0
  126.5580  135.2480   61.9940 C   0  0  0  0  0  0  0  0  0  0  0  0
  126.5310  136.4990   62.8700 C   0  0  0  0  0  0  0  0  0  0  0  0
  125.3950  134.7090   61.4020 C   0  0  0  0  0  0  0  0  0  0  0  0
  124.1040  135.3800   61.5730 C   0  0  0  0  0  0  0  0  0  0  0  0
  123.0850  135.9120   61.7090 N   0  0  0  0  0  0  0  0  0  0  0  0
  124.1200  129.9810   65.3100 N   0  0  0  0  0  0  0  0  0  0  0  0
  1  2  1  0
  2  3  2  0
  3  4  1  0
  4  5  2  0
  5  6  1  0
  6  7  1  0
  7  8  1  0
  8  9  2  0
  8 10  1  0
 10 11  1  0
 11 12  1  0
 12 13  2  0
 13 14  1  0
 14 15  1  0
 15 16  2  0
 16 17  1  0
 17 18  2  0
 18 19  1  0
 19 20  2  0
 14 21  2  0
 21 22  1  0
 22 23  1  0
 22 24  2  0
 24 25  1  0
 25 26  3  0
  6 27  2  0
 27  2  1  0
 24 12  1  0
 20 15  1  0
M  END
>  <Binding energies>  (19) 
[-8.96]

>  <Ligand effiencies>  (19) 
[-0.32]

>  <Interactions>  (19) 
["V-B:ASP:366:CG:8184, V-B:HIS:456:CE1:9041, V-B:ILE:369:CB:8207, V-A:ALA:541:CB:4892, V-B:TRP:381:CZ2:8341, V-B:ILE:369:CD1:8210, V-B:PRO:482:CB:9297, V-B:PRO:482:CG:9298, V-B:LEU:475:CD1:9229, V-B:ILE:369:CG2:8208, V-B:TRP:381:CH2:8343, V-A:TYR:539:CE2:4876, V-A:TYR:539:CD2:4874, H-B:GLY:454:N:9021, V-B:ASP:366:CB:8183, H-B:ARG:545:NH2:9899, V-A:PRO:540:CA:4883, H-B:ARG:545:NE:9895, V-B:ARG:545:CZ:9897, H-B:ASP:366:OD1:8185, H-B:ASP:366:OD2:8186, V-A:TYR:539:C:4867, V-B:ARG:545:CG:9893, V-B:ARG:545:CD:9894, V-B:ARG:545:CB:9892, V-B:ASP:366:CA:8181, V-A:PRO:540:N:4884, V-B:ILE:455:C:9023"]

$$$$
3bf_Grossjean_2025
     RDKit          3D

 26 28  0  0  0  0  0  0  0  0999 V2000
  123.6050  129.6600   66.8450 C   0  0  0  0  0  0  0  0  0  0  0  0
  125.0760  129.6480   66.4340 C   0  0  0  0  0  0  0  0  0  0  0  0
  126.0180  129.2120   67.3720 C   0  0  0  0  0  0  0  0  0  0  0  0
  127.3750  129.1700   67.0320 C   0  0  0  0  0  0  0  0  0  0  0  0
  128.4310  128.6920   67.9830 C   0  0  0  0  0  0  0  0  0  0  0  0
  128.7340  129.4220   69.1430 C   0  0  0  0  0  0  0  0  0  0  0  0
  129.7130  128.9850   70.0300 C   0  0  0  0  0  0  0  0  0  0  0  0
  130.4060  127.8070   69.7670 C   0  0  0  0  0  0  0  0  0  0  0  0
  130.1260  127.0660   68.6240 C   0  0  0  0  0  0  0  0  0  0  0  0
  129.1460  127.5080   67.7390 C   0  0  0  0  0  0  0  0  0  0  0  0
  127.7960  129.5500   65.7970 N   0  0  0  0  0  0  0  0  0  0  0  0
  126.8980  129.9990   64.8860 C   0  0  0  0  0  0  0  0  0  0  0  0
  127.6300  130.4580   63.3290 S   0  0  0  0  0  0  0  0  0  0  0  0
  128.5610  132.0080   63.5770 C   0  0  0  0  0  0  0  0  0  0  0  0
  129.5700  132.3470   62.4700 C   0  0  0  0  0  0  0  0  0  0  0  0
  129.3800  133.3030   61.7160 O   0  0  0  0  0  0  0  0  0  0  0  0
  130.6540  131.5420   62.4310 N   0  0  0  0  0  0  0  0  0  0  0  0
  131.7460  131.5740   61.5440 C   0  0  0  0  0  0  0  0  0  0  0  0
  131.4750  131.3590   60.1880 C   0  0  0  0  0  0  0  0  0  0  0  0
  132.5140  131.3910   59.2560 C   0  0  0  0  0  0  0  0  0  0  0  0
  133.8080  131.6460   59.7110 C   0  0  0  0  0  0  0  0  0  0  0  0
  134.1000  131.8690   61.0170 N   0  0  0  0  0  0  0  0  0  0  0  0
  133.0780  131.8340   61.9120 C   0  0  0  0  0  0  0  0  0  0  0  0
  125.5120  130.0500   65.1530 C   0  0  0  0  0  0  0  0  0  0  0  0
  124.5370  130.4630   64.1400 C   0  0  0  0  0  0  0  0  0  0  0  0
  123.7660  130.7900   63.3410 N   0  0  0  0  0  0  0  0  0  0  0  0
  1  2  1  0
  2  3  2  0
  3  4  1  0
  4  5  1  0
  5  6  2  0
  6  7  1  0
  7  8  2  0
  8  9  1  0
  9 10  2  0
  4 11  2  0
 11 12  1  0
 12 13  1  0
 13 14  1  0
 14 15  1  0
 15 16  2  0
 15 17  1  0
 17 18  1  0
 18 19  2  0
 19 20  1  0
 20 21  2  0
 21 22  1  0
 22 23  2  0
 12 24  2  0
 24 25  1  0
 25 26  3  0
 24  2  1  0
 10  5  1  0
 23 18  1  0
M  END
>  <Binding energies>  (20) 
[-8.29]

>  <Ligand effiencies>  (20) 
[-0.307037037037037]

>  <Interactions>  (20) 
["V-B:HIS:456:CE1:9041, V-A:ASP:366:CG:3212, V-A:GLU:543:CD:4908, V-B:GLY:454:CA:9020, V-A:ALA:541:CB:4892, V-A:GLU:543:CG:4907, V-A:HIS:456:CE1:4069, V-A:GLU:543:CB:4906, H-B:GLY:454:N:9021, V-A:ASN:362:CB:3175, V-A:ALA:541:CA:4890, V-A:PRO:540:CB:4885, V-A:PRO:540:CA:4883, V-B:ARG:545:CZ:9897, V-B:ARG:545:CG:9893, H-A:ALA:541:N:4891, H-A:GLU:543:OE1:4909, V-B:ARG:545:CD:9894, V-B:GLY:453:C:9013, V-A:LEU:363:CA:3184, V-A:LEU:363:CB:3186, V-A:ASN:362:C:3171, H-A:LEU:363:N:3185"]

$$$$
3bg_Grossjean_2025
     RDKit          3D

 27 29  0  0  0  0  0  0  0  0999 V2000
  126.5630  136.7140   62.6550 C   0  0  0  0  0  0  0  0  0  0  0  0
  126.6050  135.3800   61.9110 C   0  0  0  0  0  0  0  0  0  0  0  0
  127.8450  134.7570   61.7420 C   0  0  0  0  0  0  0  0  0  0  0  0
  127.9280  133.5290   61.0720 C   0  0  0  0  0  0  0  0  0  0  0  0
  129.2270  132.8000   60.8660 C   0  0  0  0  0  0  0  0  0  0  0  0
  129.7690  132.6350   59.5800 C   0  0  0  0  0  0  0  0  0  0  0  0
  130.9800  131.9770   59.3870 C   0  0  0  0  0  0  0  0  0  0  0  0
  131.6710  131.4680   60.4810 C   0  0  0  0  0  0  0  0  0  0  0  0
  131.1540  131.6060   61.7640 C   0  0  0  0  0  0  0  0  0  0  0  0
  129.9410  132.2630   61.9520 C   0  0  0  0  0  0  0  0  0  0  0  0
  126.8060  132.9240   60.5980 N   0  0  0  0  0  0  0  0  0  0  0  0
  125.5940  133.5140   60.7570 C   0  0  0  0  0  0  0  0  0  0  0  0
  124.1980  132.6000   60.1200 S   0  0  0  0  0  0  0  0  0  0  0  0
  124.0710  131.0330   61.0430 C   0  0  0  0  0  0  0  0  0  0  0  0
  124.1240  131.2580   62.5570 C   0  0  0  0  0  0  0  0  0  0  0  0
  123.1500  130.9710   63.2540 O   0  0  0  0  0  0  0  0  0  0  0  0
  125.2560  131.7950   63.0440 N   0  0  0  0  0  0  0  0  0  0  0  0
  125.4540  132.2600   64.4170 C   0  0  0  0  0  0  0  0  0  0  0  0
  125.8140  131.1150   65.3560 C   0  0  0  0  0  0  0  0  0  0  0  0
  124.8070  130.3010   65.8860 C   0  0  0  0  0  0  0  0  0  0  0  0
  125.1350  129.2620   66.7510 C   0  0  0  0  0  0  0  0  0  0  0  0
  126.4700  129.0300   67.0760 C   0  0  0  0  0  0  0  0  0  0  0  0
  127.4810  129.8220   66.5360 C   0  0  0  0  0  0  0  0  0  0  0  0
  127.1520  130.8630   65.6700 C   0  0  0  0  0  0  0  0  0  0  0  0
  125.4440  134.7580   61.4060 C   0  0  0  0  0  0  0  0  0  0  0  0
  124.1300  135.3830   61.5750 C   0  0  0  0  0  0  0  0  0  0  0  0
  123.0930  135.8780   61.7090 N   0  0  0  0  0  0  0  0  0  0  0  0
  1  2  1  0
  2  3  2  0
  3  4  1  0
  4  5  1  0
  5  6  2  0
  6  7  1  0
  7  8  2  0
  8  9  1  0
  9 10  2  0
  4 11  2  0
 11 12  1  0
 12 13  1  0
 13 14  1  0
 14 15  1  0
 15 16  2  0
 15 17  1  0
 17 18  1  0
 18 19  1  0
 19 20  2  0
 20 21  1  0
 21 22  2  0
 22 23  1  0
 23 24  2  0
 12 25  2  0
 25 26  1  0
 26 27  3  0
 25  2  1  0
 10  5  1  0
 24 19  1  0
M  END
>  <Binding energies>  (21) 
[-7.7]

>  <Ligand effiencies>  (21) 
[-0.275]

>  <Interactions>  (21) 
["V-B:ASP:366:CG:8184, V-B:HIS:456:CE1:9041, V-B:GLU:543:CD:9879, V-A:GLU:543:CD:4908, V-B:GLY:454:CA:9020, V-A:ALA:541:CB:4892, V-B:TRP:381:CZ2:8341, V-B:ILE:369:CD1:8210, V-A:GLU:543:CG:4907, V-B:PRO:482:CB:9297, V-B:PRO:482:CG:9298, V-B:LEU:475:CD1:9229, V-B:ILE:369:CG2:8208, V-B:TRP:381:CH2:8343, V-A:TYR:539:CE2:4876, V-A:TYR:539:CD2:4874, H-B:GLY:454:N:9021, V-B:ASP:366:CB:8183, V-A:PRO:540:CB:4885, V-A:PRO:540:CA:4883, V-A:TYR:539:C:4867, V-B:ARG:545:CG:9893, V-B:ARG:545:CD:9894, V-A:PRO:540:N:4884"]

$$$$
3ca_Grossjean_2025
     RDKit          3D

 31 33  0  0  0  0  0  0  0  0999 V2000
  128.7910  123.5950   73.0580 C   0  0  0  0  0  0  0  0  0  0  0  0
  129.5740  124.5500   73.9640 C   0  0  0  0  0  0  0  0  0  0  0  0
  129.0240  125.8570   73.8620 O   0  0  0  0  0  0  0  0  0  0  0  0
  129.7610  126.8930   73.3850 C   0  0  0  0  0  0  0  0  0  0  0  0
  130.4880  127.5950   74.0940 O   0  0  0  0  0  0  0  0  0  0  0  0
  129.6080  127.0970   71.9040 C   0  0  0  0  0  0  0  0  0  0  0  0
  130.4310  128.0250   71.2540 C   0  0  0  0  0  0  0  0  0  0  0  0
  130.3130  128.2370   69.8830 C   0  0  0  0  0  0  0  0  0  0  0  0
  129.3680  127.5320   69.1360 C   0  0  0  0  0  0  0  0  0  0  0  0
  129.3340  127.8220   67.7590 N   0  0  0  0  0  0  0  0  0  0  0  0
  128.3020  128.2300   66.9890 C   0  0  0  0  0  0  0  0  0  0  0  0
  127.1590  128.4490   67.3880 O   0  0  0  0  0  0  0  0  0  0  0  0
  128.6360  128.4470   65.5090 C   0  0  0  0  0  0  0  0  0  0  0  0
  127.1960  128.9660   64.5180 S   0  0  0  0  0  0  0  0  0  0  0  0
  127.5740  130.4800   63.6450 C   0  0  0  0  0  0  0  0  0  0  0  0
  128.8530  130.6040   63.2100 N   0  0  0  0  0  0  0  0  0  0  0  0
  129.2050  131.7130   62.5240 C   0  0  0  0  0  0  0  0  0  0  0  0
  130.6460  131.7690   62.0570 C   0  0  0  0  0  0  0  0  0  0  0  0
  128.3080  132.7450   62.2580 C   0  0  0  0  0  0  0  0  0  0  0  0
  126.9870  132.6500   62.7120 C   0  0  0  0  0  0  0  0  0  0  0  0
  126.0640  133.7870   62.4160 C   0  0  0  0  0  0  0  0  0  0  0  0
  126.5260  135.1060   62.4980 C   0  0  0  0  0  0  0  0  0  0  0  0
  125.6720  136.1730   62.2320 C   0  0  0  0  0  0  0  0  0  0  0  0
  124.3460  135.9240   61.8860 C   0  0  0  0  0  0  0  0  0  0  0  0
  123.8690  134.6180   61.8070 C   0  0  0  0  0  0  0  0  0  0  0  0
  124.7260  133.5540   62.0740 C   0  0  0  0  0  0  0  0  0  0  0  0
  126.6000  131.4820   63.4190 C   0  0  0  0  0  0  0  0  0  0  0  0
  125.2180  131.3020   63.8740 C   0  0  0  0  0  0  0  0  0  0  0  0
  124.1260  131.1620   64.2330 N   0  0  0  0  0  0  0  0  0  0  0  0
  128.5460  126.5940   69.7780 C   0  0  0  0  0  0  0  0  0  0  0  0
  128.6660  126.3820   71.1500 C   0  0  0  0  0  0  0  0  0  0  0  0
  1  2  1  0
  2  3  1  0
  3  4  1  0
  4  5  2  0
  4  6  1  0
  6  7  2  0
  7  8  1  0
  8  9  2  0
  9 10  1  0
 10 11  1  0
 11 12  2  0
 11 13  1  0
 13 14  1  0
 14 15  1  0
 15 16  2  0
 16 17  1  0
 17 18  1  0
 17 19  2  0
 19 20  1  0
 20 21  1  0
 21 22  2  0
 22 23  1  0
 23 24  2  0
 24 25  1  0
 25 26  2  0
 20 27  2  0
 27 28  1  0
 28 29  3  0
  9 30  1  0
 30 31  2  0
 31  6  1  0
 27 15  1  0
 26 21  1  0
M  END
>  <Binding energies>  (22) 
[-8.3]

>  <Ligand effiencies>  (22) 
[-0.259375]

>  <Interactions>  (22) 
["V-B:HIS:456:CE1:9041, V-B:GLU:543:CD:9879, V-A:GLU:543:CD:4908, V-A:ALA:541:CB:4892, V-B:TRP:381:CZ2:8341, V-B:ILE:369:CD1:8210, V-A:GLU:543:CG:4907, V-B:LEU:475:CD1:9229, V-B:ILE:369:CG2:8208, V-B:TRP:381:CH2:8343, V-A:HIS:456:CE1:4069, V-A:GLU:543:CB:4906, V-A:HIS:456:CD2:4067, H-B:GLY:454:N:9021, H-B:LYS:547:NZ:9922, V-B:LYS:547:CE:9921, H-A:LYS:547:NZ:4951, H-A:GLU:543:OE2:4910"]

$$$$
3ce_Grossjean_2025
     RDKit          3D

 27 29  0  0  0  0  0  0  0  0999 V2000
  134.6280  125.1750   67.0550 C   0  0  0  0  0  0  0  0  0  0  0  0
  133.5290  125.4060   66.0350 C   0  0  0  0  0  0  0  0  0  0  0  0
  132.2410  125.7860   66.4210 C   0  0  0  0  0  0  0  0  0  0  0  0
  131.2840  125.9910   65.4280 C   0  0  0  0  0  0  0  0  0  0  0  0
  131.6310  125.8130   64.0870 C   0  0  0  0  0  0  0  0  0  0  0  0
  132.9370  125.4220   63.7700 C   0  0  0  0  0  0  0  0  0  0  0  0
  133.2350  125.2780   62.4040 N   0  0  0  0  0  0  0  0  0  0  0  0
  133.1930  124.1540   61.6540 C   0  0  0  0  0  0  0  0  0  0  0  0
  132.8670  123.0400   62.0670 O   0  0  0  0  0  0  0  0  0  0  0  0
  133.5770  124.3240   60.1840 C   0  0  0  0  0  0  0  0  0  0  0  0
  132.1330  124.6910   59.1430 S   0  0  0  0  0  0  0  0  0  0  0  0
  130.8130  123.6810   59.7750 C   0  0  0  0  0  0  0  0  0  0  0  0
  131.1970  122.4300   60.1280 N   0  0  0  0  0  0  0  0  0  0  0  0
  130.2680  121.5880   60.6370 C   0  0  0  0  0  0  0  0  0  0  0  0
  130.7680  120.2100   61.0240 C   0  0  0  0  0  0  0  0  0  0  0  0
  128.9340  121.9520   60.7970 C   0  0  0  0  0  0  0  0  0  0  0  0
  128.5120  123.2320   60.4130 C   0  0  0  0  0  0  0  0  0  0  0  0
  127.0670  123.5680   60.5810 C   0  0  0  0  0  0  0  0  0  0  0  0
  126.5140  123.6770   61.8630 C   0  0  0  0  0  0  0  0  0  0  0  0
  125.1650  123.9830   62.0260 C   0  0  0  0  0  0  0  0  0  0  0  0
  124.3600  124.1750   60.9070 C   0  0  0  0  0  0  0  0  0  0  0  0
  124.8920  124.0600   59.6250 C   0  0  0  0  0  0  0  0  0  0  0  0
  126.2410  123.7550   59.4640 C   0  0  0  0  0  0  0  0  0  0  0  0
  129.4760  124.1300   59.8890 C   0  0  0  0  0  0  0  0  0  0  0  0
  129.0970  125.4880   59.4840 C   0  0  0  0  0  0  0  0  0  0  0  0
  128.7970  126.5590   59.1650 N   0  0  0  0  0  0  0  0  0  0  0  0
  133.8820  125.2270   64.7360 N   0  0  0  0  0  0  0  0  0  0  0  0
  1  2  1  0
  2  3  2  0
  3  4  1  0
  4  5  2  0
  5  6  1  0
  6  7  1  0
  7  8  1  0
  8  9  2  0
  8 10  1  0
 10 11  1  0
 11 12  1  0
 12 13  2  0
 13 14  1  0
 14 15  1  0
 14 16  2  0
 16 17  1  0
 17 18  1  0
 18 19  2  0
 19 20  1  0
 20 21  2  0
 21 22  1  0
 22 23  2  0
 17 24  2  0
 24 25  1  0
 25 26  3  0
  6 27  2  0
 27  2  1  0
 24 12  1  0
 23 18  1  0
M  END
>  <Binding energies>  (23) 
[-8.19]

>  <Ligand effiencies>  (23) 
[-0.2925]

>  <Interactions>  (23) 
["V-A:ARG:545:CZ:4926, V-B:GLU:543:CD:9879, V-A:ASP:366:CG:3212, V-A:LEU:475:CD2:4258, V-A:GLU:543:CD:4908, V-A:ILE:369:CD1:3238, H-A:ARG:545:NH2:4928, V-A:GLY:454:CA:4048, V-A:HIS:456:CE1:4069, V-B:TYR:539:CD2:9845, V-A:ILE:369:CG2:3236, V-B:TYR:539:CE2:9847, V-A:ILE:369:CB:3235, V-A:ASP:366:CB:3211, V-A:ASP:366:CA:3209, V-B:ALA:541:CB:9863, V-A:ARG:545:CG:4922, V-B:TYR:539:CZ:9848, V-B:PRO:540:CA:9854, H-A:ASP:366:OD1:3213, H-A:ARG:545:NE:4924, H-A:ASP:366:OD2:3214, H-A:GLY:454:N:4049, V-B:PRO:540:CB:9856, V-A:ARG:545:CD:4923, H-A:ARG:545:NH1:4927, V-A:GLY:453:C:4041, V-B:ASN:362:CB:8147, H-B:TYR:539:OH:9849, V-B:ASN:362:C:8143, V-A:GLY:454:C:4046, V-A:ILE:455:C:4051"]

$$$$
3cj_Grossjean_2025
     RDKit          3D

 25 27  0  0  0  0  0  0  0  0999 V2000
  125.2680  136.0350   62.1830 C   0  0  0  0  0  0  0  0  0  0  0  0
  125.7170  134.7760   61.4680 C   0  0  0  0  0  0  0  0  0  0  0  0
  127.0320  134.3230   61.5480 C   0  0  0  0  0  0  0  0  0  0  0  0
  127.3980  133.1410   60.8890 C   0  0  0  0  0  0  0  0  0  0  0  0
  128.8000  132.6580   61.0560 C   0  0  0  0  0  0  0  0  0  0  0  0
  129.2840  132.3020   62.3210 C   0  0  0  0  0  0  0  0  0  0  0  0
  130.5970  131.8640   62.4770 C   0  0  0  0  0  0  0  0  0  0  0  0
  131.4330  131.7860   61.3670 C   0  0  0  0  0  0  0  0  0  0  0  0
  130.9690  132.1460   60.1050 C   0  0  0  0  0  0  0  0  0  0  0  0
  129.6560  132.5830   59.9510 C   0  0  0  0  0  0  0  0  0  0  0  0
  126.4150  132.4600   60.1290 C   0  0  0  0  0  0  0  0  0  0  0  0
  126.7440  131.2350   59.3940 C   0  0  0  0  0  0  0  0  0  0  0  0
  127.0040  130.2660   58.8150 N   0  0  0  0  0  0  0  0  0  0  0  0
  125.1050  132.9900   60.1070 C   0  0  0  0  0  0  0  0  0  0  0  0
  123.7480  132.1640   59.3040 S   0  0  0  0  0  0  0  0  0  0  0  0
  122.9850  131.1440   60.6060 C   0  0  0  0  0  0  0  0  0  0  0  0
  123.6060  131.4160   61.9800 C   0  0  0  0  0  0  0  0  0  0  0  0
  123.5410  132.5480   62.4630 O   0  0  0  0  0  0  0  0  0  0  0  0
  124.1610  130.3440   62.5860 N   0  0  0  0  0  0  0  0  0  0  0  0
  124.6640  130.2910   63.8760 C   0  0  0  0  0  0  0  0  0  0  0  0
  124.0280  129.9610   64.9790 N   0  0  0  0  0  0  0  0  0  0  0  0
  124.8280  129.9900   66.0250 C   0  0  0  0  0  0  0  0  0  0  0  0
  126.1500  130.3510   65.7810 C   0  0  0  0  0  0  0  0  0  0  0  0
  126.3450  130.6700   64.0830 S   0  0  0  0  0  0  0  0  0  0  0  0
  124.7610  134.1210   60.7720 N   0  0  0  0  0  0  0  0  0  0  0  0
  1  2  1  0
  2  3  2  0
  3  4  1  0
  4  5  1  0
  5  6  2  0
  6  7  1  0
  7  8  2  0
  8  9  1  0
  9 10  2  0
  4 11  2  0
 11 12  1  0
 12 13  3  0
 11 14  1  0
 14 15  1  0
 15 16  1  0
 16 17  1  0
 17 18  2  0
 17 19  1  0
 19 20  1  0
 20 21  2  0
 21 22  1  0
 22 23  2  0
 23 24  1  0
 14 25  2  0
 25  2  1  0
 10  5  1  0
 24 20  1  0
M  END
>  <Binding energies>  (24) 
[-7.07]

>  <Ligand effiencies>  (24) 
[-0.27192307692307693]

>  <Interactions>  (24) 
["V-B:ASP:366:CG:8184, V-B:ILE:369:CB:8207, V-A:GLU:543:CD:4908, V-A:ALA:541:CB:4892, V-B:TRP:381:CZ2:8341, V-B:ILE:369:CD1:8210, V-B:LEU:475:CD1:9229, V-B:ILE:369:CG2:8208, V-B:TRP:381:CH2:8343, V-A:TYR:539:CE2:4876, V-A:TYR:539:CD2:4874, H-B:GLY:454:N:9021, V-B:ASP:366:CB:8183, H-B:ARG:545:NH2:9899, V-A:PRO:540:CB:4885, V-A:PRO:540:CA:4883, H-B:ARG:545:NE:9895, H-B:ARG:545:NH1:9898, V-B:ARG:545:CZ:9897, H-B:ASP:366:OD1:8185, H-B:ASP:366:OD2:8186, V-A:TYR:539:C:4867, V-B:ASP:366:CA:8181, V-B:ILE:369:CG1:8209"]

$$$$
4ba_Grossjean_2025
     RDKit          3D

 28 30  0  0  0  0  0  0  0  0999 V2000
  128.1820  131.7020   73.1900 C   0  0  0  0  0  0  0  0  0  0  0  0
  128.5690  130.9510   71.9020 C   0  0  0  0  0  0  0  0  0  0  0  0
  129.7490  129.9680   72.0470 C   0  0  0  0  0  0  0  0  0  0  0  0
  130.3930  129.9440   73.0980 O   0  0  0  0  0  0  0  0  0  0  0  0
  130.0560  129.0700   70.8840 C   0  0  0  0  0  0  0  0  0  0  0  0
  129.0130  128.3800   70.2540 C   0  0  0  0  0  0  0  0  0  0  0  0
  129.2700  127.5400   69.1740 C   0  0  0  0  0  0  0  0  0  0  0  0
  130.5720  127.3750   68.7000 C   0  0  0  0  0  0  0  0  0  0  0  0
  130.7190  126.4960   67.6090 N   0  0  0  0  0  0  0  0  0  0  0  0
  130.1150  125.3090   67.3590 C   0  0  0  0  0  0  0  0  0  0  0  0
  129.3190  124.7630   68.1240 O   0  0  0  0  0  0  0  0  0  0  0  0
  130.4890  124.6720   66.0940 C   0  0  0  0  0  0  0  0  0  0  0  0
  129.6430  123.2270   65.5450 S   0  0  0  0  0  0  0  0  0  0  0  0
  130.6600  123.1130   64.1290 C   0  0  0  0  0  0  0  0  0  0  0  0
  130.5020  122.1350   63.2380 N   0  0  0  0  0  0  0  0  0  0  0  0
  131.3490  122.1500   62.1830 C   0  0  0  0  0  0  0  0  0  0  0  0
  131.1570  121.0230   61.1850 C   0  0  0  0  0  0  0  0  0  0  0  0
  132.3370  123.1130   61.9970 C   0  0  0  0  0  0  0  0  0  0  0  0
  132.5090  124.1460   62.9330 C   0  0  0  0  0  0  0  0  0  0  0  0
  133.6080  125.1840   62.6850 C   0  0  0  0  0  0  0  0  0  0  0  0
  134.4630  125.2930   63.7030 F   0  0  0  0  0  0  0  0  0  0  0  0
  134.3140  124.8460   61.6050 F   0  0  0  0  0  0  0  0  0  0  0  0
  133.0600  126.3850   62.4940 F   0  0  0  0  0  0  0  0  0  0  0  0
  131.6340  124.1550   64.0610 C   0  0  0  0  0  0  0  0  0  0  0  0
  131.5180  125.0260   65.2050 C   0  0  0  0  0  0  0  0  0  0  0  0
  132.3410  126.1060   65.4000 N   0  0  0  0  0  0  0  0  0  0  0  0
  131.6230  128.0580   69.3300 C   0  0  0  0  0  0  0  0  0  0  0  0
  131.3650  128.8980   70.4100 C   0  0  0  0  0  0  0  0  0  0  0  0
  1  2  1  0
  2  3  1  0
  3  4  2  0
  3  5  1  0
  5  6  2  0
  6  7  1  0
  7  8  2  0
  8  9  1  0
  9 10  1  0
 10 11  2  0
 10 12  1  0
 12 13  1  0
 13 14  1  0
 14 15  2  0
 15 16  1  0
 16 17  1  0
 16 18  2  0
 18 19  1  0
 19 20  1  0
 20 21  1  0
 20 22  1  0
 20 23  1  0
 19 24  2  0
 24 25  1  0
 25 26  1  0
  8 27  1  0
 27 28  2  0
 28  5  1  0
 25 12  2  0
 24 14  1  0
M  END
>  <Binding energies>  (25) 
[-6.91]

>  <Ligand effiencies>  (25) 
[-0.2229032258064516]

>  <Interactions>  (25) 
["V-B:HIS:456:CE1:9041, V-A:ARG:545:CZ:4926, V-A:ASP:366:CG:3212, V-A:LEU:475:CD2:4258, V-A:TYR:484:CZ:4346, V-A:GLU:543:CD:4908, V-A:ILE:369:CD1:3238, V-A:GLY:453:CA:4043, V-A:HIS:456:CE1:4069, V-B:TYR:539:CD2:9845, V-A:GLU:543:C:4902, V-B:HIS:456:CG:9037, V-A:GLU:543:CB:4906, V-B:TYR:539:CE2:9847, V-A:ASP:366:CA:3209, V-A:GLY:544:C:4912, V-B:ALA:541:CB:9863, V-A:ARG:545:CG:4922, V-B:TYR:484:CD1:9314, V-B:GLU:543:CG:9878, V-B:GLU:543:CB:9877, V-A:ARG:545:CA:4919, V-B:TYR:484:CE1:9316, H-A:LYS:547:NZ:4951, H-A:GLU:543:OE1:4909, H-A:GLU:543:OE2:4910, V-A:GLY:453:C:4041, V-A:TYR:484:CE1:4344"]

$$$$
4bb_Grossjean_2025
     RDKit          3D

 27 29  0  0  0  0  0  0  0  0999 V2000
  128.6460  130.8760   72.1730 C   0  0  0  0  0  0  0  0  0  0  0  0
  129.8100  129.8860   72.2640 C   0  0  0  0  0  0  0  0  0  0  0  0
  130.4650  129.8550   73.3070 O   0  0  0  0  0  0  0  0  0  0  0  0
  130.0970  129.0160   71.0770 C   0  0  0  0  0  0  0  0  0  0  0  0
  129.0620  128.2630   70.5100 C   0  0  0  0  0  0  0  0  0  0  0  0
  129.3020  127.4470   69.4090 C   0  0  0  0  0  0  0  0  0  0  0  0
  130.5780  127.3740   68.8480 C   0  0  0  0  0  0  0  0  0  0  0  0
  130.7110  126.5160   67.7380 N   0  0  0  0  0  0  0  0  0  0  0  0
  130.0920  125.3400   67.4670 C   0  0  0  0  0  0  0  0  0  0  0  0
  129.2840  124.7950   68.2180 O   0  0  0  0  0  0  0  0  0  0  0  0
  130.4720  124.7130   66.1980 C   0  0  0  0  0  0  0  0  0  0  0  0
  129.6860  123.2260   65.6730 S   0  0  0  0  0  0  0  0  0  0  0  0
  130.6730  123.1570   64.2320 C   0  0  0  0  0  0  0  0  0  0  0  0
  130.5380  122.1740   63.3440 N   0  0  0  0  0  0  0  0  0  0  0  0
  131.3590  122.2280   62.2690 C   0  0  0  0  0  0  0  0  0  0  0  0
  131.1880  121.1000   61.2680 C   0  0  0  0  0  0  0  0  0  0  0  0
  132.3030  123.2310   62.0650 C   0  0  0  0  0  0  0  0  0  0  0  0
  132.4490  124.2690   62.9980 C   0  0  0  0  0  0  0  0  0  0  0  0
  133.5010  125.3510   62.7300 C   0  0  0  0  0  0  0  0  0  0  0  0
  134.2600  125.0880   61.6630 F   0  0  0  0  0  0  0  0  0  0  0  0
  132.8990  126.5210   62.5140 F   0  0  0  0  0  0  0  0  0  0  0  0
  134.3140  125.4610   63.7800 F   0  0  0  0  0  0  0  0  0  0  0  0
  131.5980  124.2430   64.1440 C   0  0  0  0  0  0  0  0  0  0  0  0
  131.4620  125.1130   65.2850 C   0  0  0  0  0  0  0  0  0  0  0  0
  132.2310  126.2360   65.4560 N   0  0  0  0  0  0  0  0  0  0  0  0
  131.6220  128.1200   69.4150 C   0  0  0  0  0  0  0  0  0  0  0  0
  131.3800  128.9350   70.5180 C   0  0  0  0  0  0  0  0  0  0  0  0
  1  2  1  0
  2  3  2  0
  2  4  1  0
  4  5  2  0
  5  6  1  0
  6  7  2  0
  7  8  1  0
  8  9  1  0
  9 10  2  0
  9 11  1  0
 11 12  1  0
 12 13  1  0
 13 14  2  0
 14 15  1  0
 15 16  1  0
 15 17  2  0
 17 18  1  0
 18 19  1  0
 19 20  1  0
 19 21  1  0
 19 22  1  0
 18 23  2  0
 23 24  1  0
 24 25  1  0
  7 26  1  0
 26 27  2  0
 27  4  1  0
 24 11  2  0
 23 13  1  0
M  END
>  <Binding energies>  (26) 
[-6.76]

>  <Ligand effiencies>  (26) 
[-0.22533333333333333]

>  <Interactions>  (26) 
["V-B:HIS:456:CE1:9041, V-A:ARG:545:CZ:4926, V-A:ASP:366:CG:3212, V-A:LEU:475:CD2:4258, V-A:TYR:484:CZ:4346, V-A:GLU:543:CD:4908, V-A:ILE:369:CD1:3238, V-A:GLY:453:CA:4043, V-A:HIS:456:CE1:4069, V-B:TYR:539:CD2:9845, V-A:GLU:543:C:4902, V-B:HIS:456:CG:9037, V-A:GLU:543:CB:4906, V-B:TYR:539:CE2:9847, V-A:ASP:366:CB:3211, V-A:ASP:366:CA:3209, V-A:GLY:544:C:4912, V-B:ALA:541:CB:9863, V-A:ARG:545:CG:4922, V-B:TYR:484:CD1:9314, V-B:GLU:543:CG:9878, V-B:GLU:543:CB:9877, V-A:ARG:545:CA:4919, V-B:TYR:484:CE1:9316, H-A:LYS:547:NZ:4951, H-A:GLU:543:OE1:4909, H-A:GLU:543:OE2:4910, V-A:GLY:453:C:4041, V-A:TYR:484:CE1:4344"]

$$$$
4bd_Grossjean_2025
     RDKit          3D

 24 26  0  0  0  0  0  0  0  0999 V2000
  128.9590  124.0800   73.0640 C   0  0  0  0  0  0  0  0  0  0  0  0
  128.9860  125.5330   72.6240 C   0  0  0  0  0  0  0  0  0  0  0  0
  129.2430  125.8780   71.3000 C   0  0  0  0  0  0  0  0  0  0  0  0
  129.2660  127.2260   70.9080 C   0  0  0  0  0  0  0  0  0  0  0  0
  129.5570  127.5570   69.4410 C   0  0  0  0  0  0  0  0  0  0  0  0
  128.6220  128.3330   68.8860 F   0  0  0  0  0  0  0  0  0  0  0  0
  130.7190  128.2020   69.3440 F   0  0  0  0  0  0  0  0  0  0  0  0
  129.6160  126.4330   68.7280 F   0  0  0  0  0  0  0  0  0  0  0  0
  129.0170  128.2040   71.9170 C   0  0  0  0  0  0  0  0  0  0  0  0
  128.9590  129.6450   71.8950 C   0  0  0  0  0  0  0  0  0  0  0  0
  129.1560  130.3750   70.7510 N   0  0  0  0  0  0  0  0  0  0  0  0
  128.6850  130.2280   73.1440 C   0  0  0  0  0  0  0  0  0  0  0  0
  128.5740  131.6500   73.4830 C   0  0  0  0  0  0  0  0  0  0  0  0
  127.5150  132.1130   73.9090 O   0  0  0  0  0  0  0  0  0  0  0  0
  129.7030  132.3800   73.3040 N   0  0  0  0  0  0  0  0  0  0  0  0
  129.9160  133.7580   73.4930 C   0  0  0  0  0  0  0  0  0  0  0  0
  129.2870  134.3280   74.6040 C   0  0  0  0  0  0  0  0  0  0  0  0
  129.4450  135.6830   74.8820 C   0  0  0  0  0  0  0  0  0  0  0  0
  130.2410  136.4700   74.0530 C   0  0  0  0  0  0  0  0  0  0  0  0
  130.8830  135.9110   72.9510 C   0  0  0  0  0  0  0  0  0  0  0  0
  130.7270  134.5570   72.6690 C   0  0  0  0  0  0  0  0  0  0  0  0
  128.4830  128.9990   74.3900 S   0  0  0  0  0  0  0  0  0  0  0  0
  128.7680  127.7160   73.2370 C   0  0  0  0  0  0  0  0  0  0  0  0
  128.7460  126.4360   73.6030 N   0  0  0  0  0  0  0  0  0  0  0  0
  1  2  1  0
  2  3  2  0
  3  4  1  0
  4  5  1  0
  5  6  1  0
  5  7  1  0
  5  8  1  0
  4  9  2  0
  9 10  1  0
 10 11  1  0
 10 12  2  0
 12 13  1  0
 13 14  2  0
 13 15  1  0
 15 16  1  0
 16 17  2  0
 17 18  1  0
 18 19  2  0
 19 20  1  0
 20 21  2  0
 12 22  1  0
 22 23  1  0
 23 24  2  0
 24  2  1  0
 23  9  1  0
 21 16  1  0
M  END
>  <Binding energies>  (27) 
[-6.07]

>  <Ligand effiencies>  (27) 
[-0.22481481481481483]

>  <Interactions>  (27) 
["V-B:HIS:456:CE1:9041, V-A:GLU:543:CD:4908, V-A:GLU:543:CG:4907, V-A:HIS:456:CE1:4069, V-A:GLU:543:C:4902, V-B:HIS:456:CD2:9039, V-B:HIS:456:CG:9037, V-A:GLU:543:CB:4906, V-A:HIS:456:CD2:4067, V-B:TYR:484:CD1:9314, V-B:TYR:484:CE1:9316, H-B:LYS:547:NZ:9922, V-B:LYS:547:CE:9921, V-A:GLU:543:CA:4904, H-A:GLU:543:O:4903, V-B:TYR:484:CB:9312, V-A:GLY:544:CA:4914, V-B:TYR:484:C:9308, V-B:TYR:484:CA:9310"]

$$$$
4be_Grossjean_2025
     RDKit          3D

 25 27  0  0  0  0  0  0  0  0999 V2000
  131.8730  136.6170   72.1960 C   0  0  0  0  0  0  0  0  0  0  0  0
  130.9090  135.8410   73.0720 C   0  0  0  0  0  0  0  0  0  0  0  0
  130.2400  136.4480   74.1370 C   0  0  0  0  0  0  0  0  0  0  0  0
  129.3690  135.6720   74.9040 C   0  0  0  0  0  0  0  0  0  0  0  0
  129.1920  134.3220   74.5900 C   0  0  0  0  0  0  0  0  0  0  0  0
  129.8890  133.7780   73.5060 C   0  0  0  0  0  0  0  0  0  0  0  0
  129.6720  132.4130   73.2480 N   0  0  0  0  0  0  0  0  0  0  0  0
  128.5230  131.6990   73.3480 C   0  0  0  0  0  0  0  0  0  0  0  0
  127.4430  132.1820   73.6960 O   0  0  0  0  0  0  0  0  0  0  0  0
  128.6380  130.2730   73.0330 C   0  0  0  0  0  0  0  0  0  0  0  0
  128.4310  129.0660   74.3020 S   0  0  0  0  0  0  0  0  0  0  0  0
  128.7380  127.7650   73.1770 C   0  0  0  0  0  0  0  0  0  0  0  0
  128.7180  126.4910   73.5660 N   0  0  0  0  0  0  0  0  0  0  0  0
  128.9690  125.5720   72.6040 C   0  0  0  0  0  0  0  0  0  0  0  0
  128.9450  124.1270   73.0680 C   0  0  0  0  0  0  0  0  0  0  0  0
  129.2340  125.8950   71.2760 C   0  0  0  0  0  0  0  0  0  0  0  0
  129.2550  127.2350   70.8600 C   0  0  0  0  0  0  0  0  0  0  0  0
  129.5480  127.5400   69.3870 C   0  0  0  0  0  0  0  0  0  0  0  0
  129.6440  126.4400   68.6350 F   0  0  0  0  0  0  0  0  0  0  0  0
  128.5690  128.2860   68.8770 F   0  0  0  0  0  0  0  0  0  0  0  0
  130.7030  128.1980   69.2830 F   0  0  0  0  0  0  0  0  0  0  0  0
  129.0000  128.2290   71.8500 C   0  0  0  0  0  0  0  0  0  0  0  0
  128.9450  129.6700   71.8040 C   0  0  0  0  0  0  0  0  0  0  0  0
  129.1690  130.3830   70.6530 N   0  0  0  0  0  0  0  0  0  0  0  0
  130.7460  134.5310   72.7550 N   0  0  0  0  0  0  0  0  0  0  0  0
  1  2  1  0
  2  3  2  0
  3  4  1  0
  4  5  2  0
  5  6  1  0
  6  7  1  0
  7  8  1  0
  8  9  2  0
  8 10  1  0
 10 11  1  0
 11 12  1  0
 12 13  2  0
 13 14  1  0
 14 15  1  0
 14 16  2  0
 16 17  1  0
 17 18  1  0
 18 19  1  0
 18 20  1  0
 18 21  1  0
 17 22  2  0
 22 23  1  0
 23 24  1  0
  6 25  2  0
 25  2  1  0
 23 10  2  0
 22 12  1  0
M  END
>  <Binding energies>  (28) 
[-6.32]

>  <Ligand effiencies>  (28) 
[-0.22571428571428573]

>  <Interactions>  (28) 
["V-B:HIS:456:CE1:9041, V-A:GLU:543:CD:4908, V-A:GLU:543:CG:4907, V-A:HIS:456:CE1:4069, V-A:GLU:543:C:4902, V-B:HIS:456:CD2:9039, V-B:HIS:456:CG:9037, V-A:GLU:543:CB:4906, V-A:HIS:456:CD2:4067, V-B:TYR:484:CD1:9314, V-B:TYR:484:CE1:9316, H-B:LYS:547:NZ:9922, V-B:LYS:547:CE:9921, V-A:GLU:543:CA:4904, H-A:GLU:543:O:4903, V-B:TYR:484:CB:9312, V-B:TYR:484:C:9308"]

$$$$
4bg_Grossjean_2025
     RDKit          3D

 25 27  0  0  0  0  0  0  0  0999 V2000
  134.7820  125.4550   66.5010 C   0  0  0  0  0  0  0  0  0  0  0  0
  133.4500  125.1840   65.8260 C   0  0  0  0  0  0  0  0  0  0  0  0
  132.2720  125.7470   66.3110 C   0  0  0  0  0  0  0  0  0  0  0  0
  131.0450  125.4830   65.6810 C   0  0  0  0  0  0  0  0  0  0  0  0
  129.7760  126.1240   66.2510 C   0  0  0  0  0  0  0  0  0  0  0  0
  130.0290  127.0290   67.2000 F   0  0  0  0  0  0  0  0  0  0  0  0
  129.1070  126.7430   65.2780 F   0  0  0  0  0  0  0  0  0  0  0  0
  129.0000  125.1860   66.7920 F   0  0  0  0  0  0  0  0  0  0  0  0
  131.0700  124.6280   64.5390 C   0  0  0  0  0  0  0  0  0  0  0  0
  130.0390  124.1370   63.6590 C   0  0  0  0  0  0  0  0  0  0  0  0
  128.7130  124.4530   63.8180 N   0  0  0  0  0  0  0  0  0  0  0  0
  130.5130  123.3170   62.6230 C   0  0  0  0  0  0  0  0  0  0  0  0
  129.7510  122.6310   61.5800 C   0  0  0  0  0  0  0  0  0  0  0  0
  129.9760  121.4570   61.2850 O   0  0  0  0  0  0  0  0  0  0  0  0
  128.7690  123.3510   60.9980 N   0  0  0  0  0  0  0  0  0  0  0  0
  127.8920  122.8780   59.9260 C   0  0  0  0  0  0  0  0  0  0  0  0
  126.4710  123.4170   60.0190 C   0  0  0  0  0  0  0  0  0  0  0  0
  125.7330  123.6560   58.8550 C   0  0  0  0  0  0  0  0  0  0  0  0
  124.4210  124.1110   58.9450 C   0  0  0  0  0  0  0  0  0  0  0  0
  123.8440  124.3140   60.1960 C   0  0  0  0  0  0  0  0  0  0  0  0
  124.5660  124.0610   61.3600 C   0  0  0  0  0  0  0  0  0  0  0  0
  125.8800  123.6070   61.2720 C   0  0  0  0  0  0  0  0  0  0  0  0
  132.2570  123.0950   62.7290 S   0  0  0  0  0  0  0  0  0  0  0  0
  132.3460  124.1220   64.1400 C   0  0  0  0  0  0  0  0  0  0  0  0
  133.5070  124.3740   64.7440 N   0  0  0  0  0  0  0  0  0  0  0  0
  1  2  1  0
  2  3  2  0
  3  4  1  0
  4  5  1  0
  5  6  1  0
  5  7  1  0
  5  8  1  0
  4  9  2  0
  9 10  1  0
 10 11  1  0
 10 12  2  0
 12 13  1  0
 13 14  2  0
 13 15  1  0
 15 16  1  0
 16 17  1  0
 17 18  2  0
 18 19  1  0
 19 20  2  0
 20 21  1  0
 21 22  2  0
 12 23  1  0
 23 24  1  0
 24 25  2  0
 25  2  1  0
 24  9  1  0
 22 17  1  0
M  END
>  <Binding energies>  (29) 
[-6.43]

>  <Ligand effiencies>  (29) 
[-0.22964285714285712]

>  <Interactions>  (29) 
["V-B:ASP:366:CG:8184, V-A:ARG:545:CZ:4926, V-B:GLU:543:CD:9879, V-A:GLU:543:CD:4908, V-A:GLY:453:CA:4043, V-A:GLY:454:CA:4048, V-A:HIS:456:CE1:4069, V-B:ALA:541:CB:9863, V-A:ARG:545:CG:4922, V-B:GLU:543:CG:9878, V-B:GLU:543:CB:9877, H-B:GLU:543:OE2:9881, H-B:GLU:543:OE1:9880, H-A:TYR:484:OH:4347, V-B:PRO:540:CA:9854, H-A:GLY:454:N:4049, V-B:PRO:540:CB:9856, V-A:ARG:545:CD:4923, V-B:LEU:363:CA:8156, V-A:GLY:453:C:4041, V-B:ASN:362:CB:8147, V-B:GLU:543:CA:9875, V-B:ASN:362:C:8143"]

$$$$
4ca_Grossjean_2025
     RDKit          3D

 34 37  0  0  0  0  0  0  0  0999 V2000
  128.9760  123.1870   73.1470 C   0  0  0  0  0  0  0  0  0  0  0  0
  129.6550  124.1910   74.0830 C   0  0  0  0  0  0  0  0  0  0  0  0
  129.1380  125.4920   73.8370 O   0  0  0  0  0  0  0  0  0  0  0  0
  129.8910  126.4430   73.2260 C   0  0  0  0  0  0  0  0  0  0  0  0
  130.8540  126.9980   73.7650 O   0  0  0  0  0  0  0  0  0  0  0  0
  129.4380  126.7500   71.8280 C   0  0  0  0  0  0  0  0  0  0  0  0
  129.8630  127.9370   71.2160 C   0  0  0  0  0  0  0  0  0  0  0  0
  129.4620  128.2470   69.9200 C   0  0  0  0  0  0  0  0  0  0  0  0
  128.6260  127.3850   69.2120 C   0  0  0  0  0  0  0  0  0  0  0  0
  128.2910  127.7930   67.9060 N   0  0  0  0  0  0  0  0  0  0  0  0
  128.0510  129.0330   67.4130 C   0  0  0  0  0  0  0  0  0  0  0  0
  128.1420  130.0680   68.0730 O   0  0  0  0  0  0  0  0  0  0  0  0
  127.6810  129.0820   65.9960 C   0  0  0  0  0  0  0  0  0  0  0  0
  126.4100  130.1730   65.4500 S   0  0  0  0  0  0  0  0  0  0  0  0
  126.6330  129.6720   63.7900 C   0  0  0  0  0  0  0  0  0  0  0  0
  125.9010  130.1890   62.8060 N   0  0  0  0  0  0  0  0  0  0  0  0
  126.1550  129.7500   61.5460 C   0  0  0  0  0  0  0  0  0  0  0  0
  125.3200  130.3580   60.4570 C   0  0  0  0  0  0  0  0  0  0  0  0
  125.6360  130.1460   59.1050 C   0  0  0  0  0  0  0  0  0  0  0  0
  124.8680  130.7120   58.0910 C   0  0  0  0  0  0  0  0  0  0  0  0
  123.7690  131.5020   58.4140 C   0  0  0  0  0  0  0  0  0  0  0  0
  123.4350  131.7290   59.7450 C   0  0  0  0  0  0  0  0  0  0  0  0
  124.2050  131.1620   60.7570 C   0  0  0  0  0  0  0  0  0  0  0  0
  127.1270  128.7780   61.2840 C   0  0  0  0  0  0  0  0  0  0  0  0
  127.9010  128.2240   62.3160 C   0  0  0  0  0  0  0  0  0  0  0  0
  128.9510  127.1660   61.9570 C   0  0  0  0  0  0  0  0  0  0  0  0
  128.7400  125.9940   62.5590 F   0  0  0  0  0  0  0  0  0  0  0  0
  128.9410  126.9470   60.6430 F   0  0  0  0  0  0  0  0  0  0  0  0
  130.1610  127.5890   62.3240 F   0  0  0  0  0  0  0  0  0  0  0  0
  127.6550  128.6910   63.6390 C   0  0  0  0  0  0  0  0  0  0  0  0
  128.2390  128.3730   64.9190 C   0  0  0  0  0  0  0  0  0  0  0  0
  129.2490  127.4570   65.0650 N   0  0  0  0  0  0  0  0  0  0  0  0
  128.1990  126.1920   69.8140 C   0  0  0  0  0  0  0  0  0  0  0  0
  128.6020  125.8820   71.1100 C   0  0  0  0  0  0  0  0  0  0  0  0
  1  2  1  0
  2  3  1  0
  3  4  1  0
  4  5  2  0
  4  6  1  0
  6  7  2  0
  7  8  1  0
  8  9  2  0
  9 10  1  0
 10 11  1  0
 11 12  2  0
 11 13  1  0
 13 14  1  0
 14 15  1  0
 15 16  2  0
 16 17  1  0
 17 18  1  0
 18 19  2  0
 19 20  1  0
 20 21  2  0
 21 22  1  0
 22 23  2  0
 17 24  2  0
 24 25  1  0
 25 26  1  0
 26 27  1  0
 26 28  1  0
 26 29  1  0
 25 30  2  0
 30 31  1  0
 31 32  1  0
  9 33  1  0
 33 34  2  0
 34  6  1  0
 31 13  2  0
 30 15  1  0
 23 18  1  0
M  END
>  <Binding energies>  (30) 
[-7.2]

>  <Ligand effiencies>  (30) 
[-0.1945945945945946]

>  <Interactions>  (30) 
["V-B:ASP:366:CG:8184, V-B:HIS:456:CE1:9041, V-B:GLU:543:CD:9879, V-B:ILE:369:CB:8207, V-A:GLU:543:CD:4908, V-B:ILE:369:CD1:8210, V-A:GLU:543:CG:4907, V-B:ILE:369:CG2:8208, V-A:TYR:539:CE2:4876, V-A:HIS:456:CE1:4069, V-A:GLU:543:CB:4906, V-A:HIS:456:CD2:4067, V-B:GLU:543:CB:9877, H-B:GLU:543:OE2:9881, V-B:ASP:366:CB:8183, H-B:GLU:543:OE1:9880, H-B:LYS:547:NZ:9922, V-B:LYS:547:CE:9921, H-B:TYR:484:OH:9319, H-A:LYS:547:NZ:4951, H-A:GLU:543:OE1:4909, H-A:GLU:543:OE2:4910, V-B:ASP:366:CA:8181, V-B:ASP:366:C:8179"]

$$$$
4cb_Grossjean_2025
     RDKit          3D

 33 36  0  0  0  0  0  0  0  0999 V2000
  129.4800  124.2140   73.9470 C   0  0  0  0  0  0  0  0  0  0  0  0
  129.0930  125.5790   73.8670 O   0  0  0  0  0  0  0  0  0  0  0  0
  129.8740  126.4900   73.2320 C   0  0  0  0  0  0  0  0  0  0  0  0
  130.8620  127.0200   73.7500 O   0  0  0  0  0  0  0  0  0  0  0  0
  129.4180  126.7910   71.8320 C   0  0  0  0  0  0  0  0  0  0  0  0
  129.7630  128.0170   71.2490 C   0  0  0  0  0  0  0  0  0  0  0  0
  129.3620  128.3220   69.9510 C   0  0  0  0  0  0  0  0  0  0  0  0
  128.6030  127.4130   69.2140 C   0  0  0  0  0  0  0  0  0  0  0  0
  128.2650  127.8170   67.9080 N   0  0  0  0  0  0  0  0  0  0  0  0
  128.0140  129.0550   67.4150 C   0  0  0  0  0  0  0  0  0  0  0  0
  128.0950  130.0920   68.0750 O   0  0  0  0  0  0  0  0  0  0  0  0
  127.6450  129.1000   65.9980 C   0  0  0  0  0  0  0  0  0  0  0  0
  126.3800  130.1960   65.4450 S   0  0  0  0  0  0  0  0  0  0  0  0
  126.6000  129.6880   63.7870 C   0  0  0  0  0  0  0  0  0  0  0  0
  125.8710  130.2020   62.8000 N   0  0  0  0  0  0  0  0  0  0  0  0
  126.1210  129.7520   61.5430 C   0  0  0  0  0  0  0  0  0  0  0  0
  125.2870  130.3550   60.4500 C   0  0  0  0  0  0  0  0  0  0  0  0
  125.6160  130.1510   59.1000 C   0  0  0  0  0  0  0  0  0  0  0  0
  124.8480  130.7100   58.0810 C   0  0  0  0  0  0  0  0  0  0  0  0
  123.7370  131.4840   58.4000 C   0  0  0  0  0  0  0  0  0  0  0  0
  123.3900  131.7040   59.7290 C   0  0  0  0  0  0  0  0  0  0  0  0
  124.1610  131.1440   60.7440 C   0  0  0  0  0  0  0  0  0  0  0  0
  127.0880  128.7730   61.2870 C   0  0  0  0  0  0  0  0  0  0  0  0
  127.8590  128.2220   62.3210 C   0  0  0  0  0  0  0  0  0  0  0  0
  128.9030  127.1540   61.9710 C   0  0  0  0  0  0  0  0  0  0  0  0
  128.6850  125.9900   62.5860 F   0  0  0  0  0  0  0  0  0  0  0  0
  128.8850  126.9220   60.6580 F   0  0  0  0  0  0  0  0  0  0  0  0
  130.1160  127.5740   62.3270 F   0  0  0  0  0  0  0  0  0  0  0  0
  127.6160  128.6990   63.6420 C   0  0  0  0  0  0  0  0  0  0  0  0
  128.2010  128.3860   64.9230 C   0  0  0  0  0  0  0  0  0  0  0  0
  129.2090  127.4690   65.0730 N   0  0  0  0  0  0  0  0  0  0  0  0
  128.2550  126.1810   69.7890 C   0  0  0  0  0  0  0  0  0  0  0  0
  128.6590  125.8770   71.0860 C   0  0  0  0  0  0  0  0  0  0  0  0
  1  2  1  0
  2  3  1  0
  3  4  2  0
  3  5  1  0
  5  6  2  0
  6  7  1  0
  7  8  2  0
  8  9  1  0
  9 10  1  0
 10 11  2  0
 10 12  1  0
 12 13  1  0
 13 14  1  0
 14 15  2  0
 15 16  1  0
 16 17  1  0
 17 18  2  0
 18 19  1  0
 19 20  2  0
 20 21  1  0
 21 22  2  0
 16 23  2  0
 23 24  1  0
 24 25  1  0
 25 26  1  0
 25 27  1  0
 25 28  1  0
 24 29  2  0
 29 30  1  0
 30 31  1  0
  8 32  1  0
 32 33  2  0
 33  5  1  0
 30 12  2  0
 29 14  1  0
 22 17  1  0
M  END
>  <Binding energies>  (31) 
[-7.11]

>  <Ligand effiencies>  (31) 
[-0.1975]

>  <Interactions>  (31) 
["V-B:ASP:366:CG:8184, V-B:HIS:456:CE1:9041, V-B:GLU:543:CD:9879, V-B:ILE:369:CB:8207, V-A:GLU:543:CD:4908, V-B:ILE:369:CD1:8210, V-A:GLU:543:CG:4907, V-B:ILE:369:CG2:8208, V-A:TYR:539:CE2:4876, V-A:HIS:456:CE1:4069, V-A:GLU:543:CB:4906, V-A:HIS:456:CD2:4067, V-B:GLU:543:CB:9877, H-B:GLU:543:OE2:9881, V-B:ASP:366:CB:8183, H-B:GLU:543:OE1:9880, H-B:LYS:547:NZ:9922, V-B:LYS:547:CE:9921, H-B:TYR:484:OH:9319, H-A:LYS:547:NZ:4951, H-A:GLU:543:OE1:4909, H-A:GLU:543:OE2:4910, V-B:ASP:366:CA:8181, V-B:ASP:366:C:8179"]

$$$$
4cc_Grossjean_2025
     RDKit          3D

 31 34  0  0  0  0  0  0  0  0999 V2000
  129.0320  128.9140   74.6400 C   0  0  0  0  0  0  0  0  0  0  0  0
  130.1540  128.2230   74.1020 O   0  0  0  0  0  0  0  0  0  0  0  0
  130.2760  128.1000   72.7320 C   0  0  0  0  0  0  0  0  0  0  0  0
  129.2710  127.3880   72.0790 C   0  0  0  0  0  0  0  0  0  0  0  0
  129.3070  127.2120   70.6980 C   0  0  0  0  0  0  0  0  0  0  0  0
  130.3620  127.7400   69.9500 C   0  0  0  0  0  0  0  0  0  0  0  0
  130.3050  127.5260   68.5600 N   0  0  0  0  0  0  0  0  0  0  0  0
  129.5670  126.6320   67.8600 C   0  0  0  0  0  0  0  0  0  0  0  0
  128.7590  125.8550   68.3730 O   0  0  0  0  0  0  0  0  0  0  0  0
  129.7820  126.6350   66.4100 C   0  0  0  0  0  0  0  0  0  0  0  0
  131.0590  125.6500   65.7000 S   0  0  0  0  0  0  0  0  0  0  0  0
  130.6440  126.1930   64.0910 C   0  0  0  0  0  0  0  0  0  0  0  0
  131.3080  125.7630   63.0200 N   0  0  0  0  0  0  0  0  0  0  0  0
  130.9070  126.2330   61.8110 C   0  0  0  0  0  0  0  0  0  0  0  0
  131.6760  125.7340   60.6220 C   0  0  0  0  0  0  0  0  0  0  0  0
  132.7880  124.8920   60.7880 C   0  0  0  0  0  0  0  0  0  0  0  0
  133.5070  124.4270   59.6900 C   0  0  0  0  0  0  0  0  0  0  0  0
  133.1240  124.7980   58.4060 C   0  0  0  0  0  0  0  0  0  0  0  0
  132.0290  125.6340   58.2140 C   0  0  0  0  0  0  0  0  0  0  0  0
  131.3130  126.0980   59.3140 C   0  0  0  0  0  0  0  0  0  0  0  0
  129.8540  127.1440   61.6840 C   0  0  0  0  0  0  0  0  0  0  0  0
  129.1480  127.6050   62.8070 C   0  0  0  0  0  0  0  0  0  0  0  0
  128.0000  128.5980   62.5950 C   0  0  0  0  0  0  0  0  0  0  0  0
  126.8230  128.1410   63.0290 F   0  0  0  0  0  0  0  0  0  0  0  0
  128.2550  129.7290   63.2520 F   0  0  0  0  0  0  0  0  0  0  0  0
  127.8690  128.8650   61.2950 F   0  0  0  0  0  0  0  0  0  0  0  0
  129.5540  127.1110   64.0800 C   0  0  0  0  0  0  0  0  0  0  0  0
  129.0840  127.3490   65.4230 C   0  0  0  0  0  0  0  0  0  0  0  0
  128.0430  128.1970   65.7040 N   0  0  0  0  0  0  0  0  0  0  0  0
  131.3710  128.4680   70.5980 C   0  0  0  0  0  0  0  0  0  0  0  0
  131.3290  128.6420   71.9790 C   0  0  0  0  0  0  0  0  0  0  0  0
  1  2  1  0
  2  3  1  0
  3  4  2  0
  4  5  1  0
  5  6  2  0
  6  7  1  0
  7  8  1  0
  8  9  2  0
  8 10  1  0
 10 11  1  0
 11 12  1  0
 12 13  2  0
 13 14  1  0
 14 15  1  0
 15 16  2  0
 16 17  1  0
 17 18  2  0
 18 19  1  0
 19 20  2  0
 14 21  2  0
 21 22  1  0
 22 23  1  0
 23 24  1  0
 23 25  1  0
 23 26  1  0
 22 27  2  0
 27 28  1  0
 28 29  1  0
  6 30  1  0
 30 31  2  0
 31  3  1  0
 28 10  2  0
 27 12  1  0
 20 15  1  0
M  END
>  <Binding energies>  (32) 
[-7.0]

>  <Ligand effiencies>  (32) 
[-0.20588235294117646]

>  <Interactions>  (32) 
["V-B:HIS:456:CE1:9041, V-B:GLU:543:CD:9879, V-A:ASP:366:CG:3212, V-A:GLU:543:CD:4908, V-A:ILE:369:CD1:3238, V-A:GLU:543:CG:4907, V-A:HIS:456:CE1:4069, V-B:HIS:456:CD2:9039, V-A:ILE:369:CG2:3236, V-A:GLU:543:CB:4906, V-A:ILE:369:CB:3235, V-A:ASP:366:CB:3211, V-A:ASP:366:CA:3209, V-A:GLY:544:C:4912, V-A:ARG:545:CA:4919, H-B:GLU:543:OE2:9881, H-B:GLU:543:OE1:9880, H-A:LYS:547:NZ:4951, V-A:LYS:547:CE:4950, H-A:GLU:543:OE1:4909, H-A:GLU:543:OE2:4910, V-A:ASP:366:C:3207"]

$$$$
4ce_Grossjean_2025
     RDKit          3D

 30 33  0  0  0  0  0  0  0  0999 V2000
  131.8370  136.6330   72.1170 C   0  0  0  0  0  0  0  0  0  0  0  0
  130.9020  135.8600   73.0270 C   0  0  0  0  0  0  0  0  0  0  0  0
  130.2030  136.4890   74.0610 C   0  0  0  0  0  0  0  0  0  0  0  0
  129.3540  135.7150   74.8540 C   0  0  0  0  0  0  0  0  0  0  0  0
  129.2230  134.3500   74.5970 C   0  0  0  0  0  0  0  0  0  0  0  0
  129.9570  133.7820   73.5480 C   0  0  0  0  0  0  0  0  0  0  0  0
  129.7650  132.4070   73.3230 N   0  0  0  0  0  0  0  0  0  0  0  0
  128.6160  131.6890   73.3890 C   0  0  0  0  0  0  0  0  0  0  0  0
  127.5170  132.1780   73.6530 O   0  0  0  0  0  0  0  0  0  0  0  0
  128.7540  130.2560   73.1170 C   0  0  0  0  0  0  0  0  0  0  0  0
  128.6540  129.0910   74.4350 S   0  0  0  0  0  0  0  0  0  0  0  0
  128.8550  127.7540   73.3280 C   0  0  0  0  0  0  0  0  0  0  0  0
  128.8620  126.4940   73.7560 N   0  0  0  0  0  0  0  0  0  0  0  0
  129.0090  125.5210   72.8180 C   0  0  0  0  0  0  0  0  0  0  0  0
  129.0070  124.1120   73.3320 C   0  0  0  0  0  0  0  0  0  0  0  0
  130.0460  123.6480   74.1550 C   0  0  0  0  0  0  0  0  0  0  0  0
  130.0550  122.3380   74.6300 C   0  0  0  0  0  0  0  0  0  0  0  0
  129.0200  121.4740   74.2890 C   0  0  0  0  0  0  0  0  0  0  0  0
  127.9790  121.9080   73.4750 C   0  0  0  0  0  0  0  0  0  0  0  0
  127.9760  123.2170   73.0000 C   0  0  0  0  0  0  0  0  0  0  0  0
  129.1690  125.8190   71.4610 C   0  0  0  0  0  0  0  0  0  0  0  0
  129.1690  127.1450   71.0000 C   0  0  0  0  0  0  0  0  0  0  0  0
  129.3480  127.4010   69.5000 C   0  0  0  0  0  0  0  0  0  0  0  0
  128.3650  128.1330   68.9730 F   0  0  0  0  0  0  0  0  0  0  0  0
  130.4910  128.0540   69.2870 F   0  0  0  0  0  0  0  0  0  0  0  0
  129.3760  126.2400   68.8460 F   0  0  0  0  0  0  0  0  0  0  0  0
  129.0000  128.1730   71.9730 C   0  0  0  0  0  0  0  0  0  0  0  0
  128.9400  129.6110   71.8830 C   0  0  0  0  0  0  0  0  0  0  0  0
  129.0530  130.2860   70.6940 N   0  0  0  0  0  0  0  0  0  0  0  0
  130.7870  134.5320   72.7650 N   0  0  0  0  0  0  0  0  0  0  0  0
  1  2  1  0
  2  3  2  0
  3  4  1  0
  4  5  2  0
  5  6  1  0
  6  7  1  0
  7  8  1  0
  8  9  2  0
  8 10  1  0
 10 11  1  0
 11 12  1  0
 12 13  2  0
 13 14  1  0
 14 15  1  0
 15 16  2  0
 16 17  1  0
 17 18  2  0
 18 19  1  0
 19 20  2  0
 14 21  2  0
 21 22  1  0
 22 23  1  0
 23 24  1  0
 23 25  1  0
 23 26  1  0
 22 27  2  0
 27 28  1  0
 28 29  1  0
  6 30  2  0
 30  2  1  0
 28 10  2  0
 27 12  1  0
 20 15  1  0
M  END
>  <Binding energies>  (33) 
[-7.25]

>  <Ligand effiencies>  (33) 
[-0.2196969696969697]

>  <Interactions>  (33) 
["V-B:HIS:456:CE1:9041, V-A:GLU:543:CG:4907, V-A:HIS:456:CE1:4069, V-A:GLU:543:C:4902, V-B:HIS:456:CD2:9039, V-B:HIS:456:CG:9037, V-A:GLU:543:CB:4906, V-A:HIS:456:CD2:4067, V-B:TYR:484:CD1:9314, V-B:GLU:543:C:9873, V-B:GLU:543:CB:9877, V-B:TYR:484:CE1:9316, H-B:LYS:547:NZ:9922, V-B:LYS:547:CE:9921, V-A:GLU:543:CA:4904, H-A:GLU:543:O:4903, H-A:GLY:544:O:4913, V-B:TYR:484:CB:9312, V-B:GLY:544:CA:9885, V-B:TYR:484:C:9308, V-B:TYR:484:CA:9310"]

$$$$
4cf_Grossjean_2025
     RDKit          3D

 29 32  0  0  0  0  0  0  0  0999 V2000
  127.5060  128.0620   63.3170 N   0  0  0  0  0  0  0  0  0  0  0  0
  127.2450  128.5220   64.5820 C   0  0  0  0  0  0  0  0  0  0  0  0
  126.1860  129.3960   64.8790 C   0  0  0  0  0  0  0  0  0  0  0  0
  125.2150  130.0000   63.9630 C   0  0  0  0  0  0  0  0  0  0  0  0
  124.1090  130.3600   64.3690 O   0  0  0  0  0  0  0  0  0  0  0  0
  125.6310  130.1330   62.6800 N   0  0  0  0  0  0  0  0  0  0  0  0
  124.9370  130.6200   61.5560 C   0  0  0  0  0  0  0  0  0  0  0  0
  123.6250  131.1300   61.5650 C   0  0  0  0  0  0  0  0  0  0  0  0
  123.0470  131.5680   60.3710 C   0  0  0  0  0  0  0  0  0  0  0  0
  123.7940  131.4850   59.1960 C   0  0  0  0  0  0  0  0  0  0  0  0
  125.0580  130.9910   59.1600 N   0  0  0  0  0  0  0  0  0  0  0  0
  125.6060  130.5680   60.3280 C   0  0  0  0  0  0  0  0  0  0  0  0
  126.1390  129.7760   66.5990 S   0  0  0  0  0  0  0  0  0  0  0  0
  127.5370  128.7730   66.9050 C   0  0  0  0  0  0  0  0  0  0  0  0
  128.0450  128.6420   68.1290 N   0  0  0  0  0  0  0  0  0  0  0  0
  129.1430  127.8530   68.2640 C   0  0  0  0  0  0  0  0  0  0  0  0
  129.6970  127.7300   69.6540 C   0  0  0  0  0  0  0  0  0  0  0  0
  129.0600  126.9270   70.6120 C   0  0  0  0  0  0  0  0  0  0  0  0
  129.5680  126.8070   71.9030 C   0  0  0  0  0  0  0  0  0  0  0  0
  130.7270  127.4900   72.2530 C   0  0  0  0  0  0  0  0  0  0  0  0
  131.3820  128.2910   71.3230 C   0  0  0  0  0  0  0  0  0  0  0  0
  130.8700  128.4070   70.0340 C   0  0  0  0  0  0  0  0  0  0  0  0
  129.7100  127.1820   67.1770 C   0  0  0  0  0  0  0  0  0  0  0  0
  129.1800  127.3090   65.8840 C   0  0  0  0  0  0  0  0  0  0  0  0
  129.8550  126.5490   64.7360 C   0  0  0  0  0  0  0  0  0  0  0  0
  129.0830  125.5930   64.2150 F   0  0  0  0  0  0  0  0  0  0  0  0
  130.1590  127.3950   63.7520 F   0  0  0  0  0  0  0  0  0  0  0  0
  130.9700  125.9650   65.1740 F   0  0  0  0  0  0  0  0  0  0  0  0
  128.0390  128.1480   65.7260 C   0  0  0  0  0  0  0  0  0  0  0  0
  1  2  1  0
  2  3  2  0
  3  4  1  0
  4  5  2  0
  4  6  1  0
  6  7  1  0
  7  8  2  0
  8  9  1  0
  9 10  2  0
 10 11  1  0
 11 12  2  0
  3 13  1  0
 13 14  1  0
 14 15  2  0
 15 16  1  0
 16 17  1  0
 17 18  2  0
 18 19  1  0
 19 20  2  0
 20 21  1  0
 21 22  2  0
 16 23  2  0
 23 24  1  0
 24 25  1  0
 25 26  1  0
 25 27  1  0
 25 28  1  0
 24 29  2  0
 29  2  1  0
 12  7  1  0
 29 14  1  0
 22 17  1  0
M  END
>  <Binding energies>  (34) 
[-6.83]

>  <Ligand effiencies>  (34) 
[-0.2134375]

>  <Interactions>  (34) 
["V-B:ASP:366:CG:8184, V-B:HIS:456:CE1:9041, V-B:GLU:543:CD:9879, V-B:ILE:369:CB:8207, V-A:GLU:543:CD:4908, V-B:ILE:369:CD1:8210, V-A:GLU:543:CG:4907, V-B:ILE:369:CG2:8208, V-A:HIS:456:CE1:4069, V-A:GLU:543:CB:4906, V-A:GLY:544:C:4912, V-A:HIS:456:CD2:4067, V-B:GLU:543:CG:9878, V-A:ARG:545:CA:4919, H-B:GLY:454:N:9021, H-B:GLU:543:OE2:9881, V-B:ASP:366:CB:8183, H-B:ARG:545:NH2:9899, H-B:GLU:543:OE1:9880, V-B:ARG:545:CZ:9897, V-B:ASP:366:CA:8181, V-B:ILE:369:CG1:8209"]

$$$$
4ci_Grossjean_2025
     RDKit          3D

 28 31  0  0  0  0  0  0  0  0999 V2000
  131.1730  122.8790   74.8580 N   0  0  0  0  0  0  0  0  0  0  0  0
  130.2080  123.5640   74.1660 C   0  0  0  0  0  0  0  0  0  0  0  0
  129.2490  122.9340   73.3560 C   0  0  0  0  0  0  0  0  0  0  0  0
  129.0700  121.5030   73.0970 C   0  0  0  0  0  0  0  0  0  0  0  0
  129.8860  120.6800   73.5200 O   0  0  0  0  0  0  0  0  0  0  0  0
  127.9750  121.1740   72.3660 N   0  0  0  0  0  0  0  0  0  0  0  0
  127.5690  119.9050   71.9760 C   0  0  0  0  0  0  0  0  0  0  0  0
  127.1750  118.9180   72.8790 C   0  0  0  0  0  0  0  0  0  0  0  0
  126.8570  117.8280   72.1030 C   0  0  0  0  0  0  0  0  0  0  0  0
  127.0480  118.1420   70.7990 O   0  0  0  0  0  0  0  0  0  0  0  0
  127.5000  119.4610   70.7310 N   0  0  0  0  0  0  0  0  0  0  0  0
  128.1600  124.1110   72.6270 S   0  0  0  0  0  0  0  0  0  0  0  0
  128.9990  125.4350   73.4010 C   0  0  0  0  0  0  0  0  0  0  0  0
  128.6170  126.6980   73.2260 N   0  0  0  0  0  0  0  0  0  0  0  0
  129.3280  127.6590   73.8720 C   0  0  0  0  0  0  0  0  0  0  0  0
  128.8760  129.0740   73.6510 C   0  0  0  0  0  0  0  0  0  0  0  0
  128.2910  129.8140   74.6920 C   0  0  0  0  0  0  0  0  0  0  0  0
  127.8720  131.1270   74.4940 C   0  0  0  0  0  0  0  0  0  0  0  0
  128.0300  131.7200   73.2460 C   0  0  0  0  0  0  0  0  0  0  0  0
  128.6000  131.0100   72.1960 C   0  0  0  0  0  0  0  0  0  0  0  0
  129.0180  129.6970   72.3990 C   0  0  0  0  0  0  0  0  0  0  0  0
  130.4290  127.3460   74.6760 C   0  0  0  0  0  0  0  0  0  0  0  0
  130.8410  126.0170   74.8680 C   0  0  0  0  0  0  0  0  0  0  0  0
  132.0560  125.7470   75.7620 C   0  0  0  0  0  0  0  0  0  0  0  0
  132.4890  126.8360   76.4000 F   0  0  0  0  0  0  0  0  0  0  0  0
  131.7400  124.8420   76.6880 F   0  0  0  0  0  0  0  0  0  0  0  0
  133.0670  125.2870   75.0240 F   0  0  0  0  0  0  0  0  0  0  0  0
  130.0940  125.0020   74.2050 C   0  0  0  0  0  0  0  0  0  0  0  0
  1  2  1  0
  2  3  2  0
  3  4  1  0
  4  5  2  0
  4  6  1  0
  6  7  1  0
  7  8  1  0
  8  9  2  0
  9 10  1  0
 10 11  1  0
  3 12  1  0
 12 13  1  0
 13 14  2  0
 14 15  1  0
 15 16  1  0
 16 17  2  0
 17 18  1  0
 18 19  2  0
 19 20  1  0
 20 21  2  0
 15 22  2  0
 22 23  1  0
 23 24  1  0
 24 25  1  0
 24 26  1  0
 24 27  1  0
 23 28  2  0
 28  2  1  0
 11  7  2  0
 28 13  1  0
 21 16  1  0
M  END
>  <Binding energies>  (35) 
[-6.93]

>  <Ligand effiencies>  (35) 
[-0.2235483870967742]

>  <Interactions>  (35) 
["V-B:HIS:456:CE1:9041, V-B:HIS:456:CD2:9039, V-A:HIS:456:CG:4065, V-B:HIS:456:CG:9037, V-A:HIS:456:CD2:4067, V-B:TYR:484:CD1:9314, V-B:GLU:543:C:9873, V-B:TYR:484:CE1:9316, H-B:LYS:547:NZ:9922, V-B:LYS:547:CE:9921, V-A:HIS:456:CB:4064, V-A:LYS:547:CE:4950, V-B:HIS:456:CB:9036, H-B:GLU:543:O:9874, V-A:ASP:473:CG:4239, V-B:GLY:544:CA:9885, V-A:TYR:484:CB:4340, V-A:LYS:547:CD:4949, V-B:GLY:544:C:9883, V-A:TYR:484:CD1:4342, H-A:TYR:484:N:4339, H-A:ASP:473:OD2:4241"]

$$$$
8a_Ghoteimi_2023
     RDKit          3D

 40 44  0  0  0  0  0  0  0  0999 V2000
  126.4940  136.7450   63.0190 C   0  0  0  0  0  0  0  0  0  0  0  0
  127.2980  136.6430   61.7200 C   0  0  0  0  0  0  0  0  0  0  0  0
  126.4170  136.3680   60.6380 O   0  0  0  0  0  0  0  0  0  0  0  0
  125.5740  135.3020   60.6740 C   0  0  0  0  0  0  0  0  0  0  0  0
  124.5050  135.2600   60.0590 O   0  0  0  0  0  0  0  0  0  0  0  0
  126.0710  134.1820   61.5420 C   0  0  0  0  0  0  0  0  0  0  0  0
  125.4240  133.9180   62.7550 C   0  0  0  0  0  0  0  0  0  0  0  0
  125.8610  132.8880   63.5820 C   0  0  0  0  0  0  0  0  0  0  0  0
  126.9530  132.1000   63.2160 C   0  0  0  0  0  0  0  0  0  0  0  0
  127.3080  131.0900   64.1320 N   0  0  0  0  0  0  0  0  0  0  0  0
  126.8840  129.8060   64.2300 C   0  0  0  0  0  0  0  0  0  0  0  0
  126.0590  129.2880   63.4770 O   0  0  0  0  0  0  0  0  0  0  0  0
  127.4870  129.0310   65.3190 C   0  0  0  0  0  0  0  0  0  0  0  0
  126.8120  129.1060   66.9460 S   0  0  0  0  0  0  0  0  0  0  0  0
  128.0280  128.0050   67.5520 C   0  0  0  0  0  0  0  0  0  0  0  0
  128.0740  127.6500   68.8360 N   0  0  0  0  0  0  0  0  0  0  0  0
  129.0630  126.7930   69.2040 C   0  0  0  0  0  0  0  0  0  0  0  0
  129.1080  126.4250   70.6520 C   0  0  0  0  0  0  0  0  0  0  0  0
  129.6410  127.3040   71.6060 C   0  0  0  0  0  0  0  0  0  0  0  0
  129.6910  126.9510   72.9510 C   0  0  0  0  0  0  0  0  0  0  0  0
  129.2090  125.7150   73.3780 C   0  0  0  0  0  0  0  0  0  0  0  0
  129.3020  125.4490   74.7310 O   0  0  0  0  0  0  0  0  0  0  0  0
  130.2430  124.4830   75.1850 C   0  0  0  0  0  0  0  0  0  0  0  0
  128.6690  124.8310   72.4330 C   0  0  0  0  0  0  0  0  0  0  0  0
  128.6230  125.1860   71.0870 C   0  0  0  0  0  0  0  0  0  0  0  0
  129.9920  126.2900   68.2910 C   0  0  0  0  0  0  0  0  0  0  0  0
  129.9370  126.6470   66.9390 C   0  0  0  0  0  0  0  0  0  0  0  0
  130.9300  126.0570   66.0040 C   0  0  0  0  0  0  0  0  0  0  0  0
  132.2880  126.0570   66.3310 C   0  0  0  0  0  0  0  0  0  0  0  0
  133.2200  125.4880   65.4670 C   0  0  0  0  0  0  0  0  0  0  0  0
  132.8110  124.9050   64.2670 C   0  0  0  0  0  0  0  0  0  0  0  0
  133.8050  124.3640   63.4740 O   0  0  0  0  0  0  0  0  0  0  0  0
  133.8580  124.7100   62.0960 C   0  0  0  0  0  0  0  0  0  0  0  0
  131.4460  124.8970   63.9410 C   0  0  0  0  0  0  0  0  0  0  0  0
  130.5160  125.4660   64.8080 C   0  0  0  0  0  0  0  0  0  0  0  0
  128.9240  127.5610   66.5350 C   0  0  0  0  0  0  0  0  0  0  0  0
  128.6020  128.1780   65.2720 C   0  0  0  0  0  0  0  0  0  0  0  0
  129.3380  127.9570   64.1350 N   0  0  0  0  0  0  0  0  0  0  0  0
  127.6050  132.3530   61.9990 C   0  0  0  0  0  0  0  0  0  0  0  0
  127.1660  133.3850   61.1730 C   0  0  0  0  0  0  0  0  0  0  0  0
  1  2  1  0
  2  3  1  0
  3  4  1  0
  4  5  2  0
  4  6  1  0
  6  7  2  0
  7  8  1  0
  8  9  2  0
  9 10  1  0
 10 11  1  0
 11 12  2  0
 11 13  1  0
 13 14  1  0
 14 15  1  0
 15 16  2  0
 16 17  1  0
 17 18  1  0
 18 19  2  0
 19 20  1  0
 20 21  2  0
 21 22  1  0
 22 23  1  0
 21 24  1  0
 24 25  2  0
 17 26  2  0
 26 27  1  0
 27 28  1  0
 28 29  2  0
 29 30  1  0
 30 31  2  0
 31 32  1  0
 32 33  1  0
 31 34  1  0
 34 35  2  0
 27 36  2  0
 36 37  1  0
 37 38  1  0
  9 39  1  0
 39 40  2  0
 40  6  1  0
 37 13  2  0
 36 15  1  0
 25 18  1  0
 35 28  1  0
M  END
>  <Binding energies>  (36) 
[-8.28]

>  <Ligand effiencies>  (36) 
[-0.1925581395348837]

>  <Interactions>  (36) 
["V-B:HIS:456:CE1:9041, V-A:ARG:545:CZ:4926, V-B:GLU:543:CD:9879, V-A:ASP:366:CG:3212, V-A:GLU:543:CD:4908, V-A:ILE:369:CD1:3238, V-B:TRP:381:CZ2:8341, V-A:GLU:543:CG:4907, V-B:PRO:482:CB:9297, V-B:PRO:482:CG:9298, V-B:LEU:475:CD1:9229, V-B:TRP:381:CH2:8343, V-A:TYR:539:CE2:4876, V-A:TYR:539:CD2:4874, V-A:HIS:456:CE1:4069, V-A:HIS:456:CD2:4067, V-B:GLU:543:C:9873, H-B:GLU:543:OE2:9881, H-B:ARG:545:NH2:9899, H-B:LYS:547:NZ:9922, H-A:GLY:454:N:4049, V-A:ARG:545:CD:4923, H-A:GLU:543:OE1:4909, H-A:GLU:543:OE2:4910, V-B:TRP:381:CZ3:8342"]

$$$$
8c_Ghoteimi_2023
     RDKit          3D

 34 38  0  0  0  0  0  0  0  0999 V2000
  129.1990  129.6600   75.1510 C   0  0  0  0  0  0  0  0  0  0  0  0
  130.1230  128.8740   74.4080 O   0  0  0  0  0  0  0  0  0  0  0  0
  129.8820  128.6360   73.0680 C   0  0  0  0  0  0  0  0  0  0  0  0
  129.6330  129.7530   72.2720 C   0  0  0  0  0  0  0  0  0  0  0  0
  129.3760  129.6080   70.9120 C   0  0  0  0  0  0  0  0  0  0  0  0
  129.3630  128.3410   70.3110 C   0  0  0  0  0  0  0  0  0  0  0  0
  129.0850  128.1800   68.8500 C   0  0  0  0  0  0  0  0  0  0  0  0
  128.2350  129.0490   68.1610 C   0  0  0  0  0  0  0  0  0  0  0  0
  127.9930  128.8770   66.7940 C   0  0  0  0  0  0  0  0  0  0  0  0
  127.0810  129.8110   66.0950 C   0  0  0  0  0  0  0  0  0  0  0  0
  127.5780  130.9810   65.5180 C   0  0  0  0  0  0  0  0  0  0  0  0
  126.7210  131.8530   64.8530 C   0  0  0  0  0  0  0  0  0  0  0  0
  125.3570  131.5720   64.7580 C   0  0  0  0  0  0  0  0  0  0  0  0
  124.5830  132.4920   64.0780 O   0  0  0  0  0  0  0  0  0  0  0  0
  123.8590  132.0750   62.9260 C   0  0  0  0  0  0  0  0  0  0  0  0
  124.8580  130.3970   65.3420 C   0  0  0  0  0  0  0  0  0  0  0  0
  125.7170  129.5250   66.0060 C   0  0  0  0  0  0  0  0  0  0  0  0
  128.6400  127.8000   66.1320 C   0  0  0  0  0  0  0  0  0  0  0  0
  128.6230  127.3420   64.7680 C   0  0  0  0  0  0  0  0  0  0  0  0
  127.8840  127.9630   63.7920 N   0  0  0  0  0  0  0  0  0  0  0  0
  129.4260  126.2130   64.5360 C   0  0  0  0  0  0  0  0  0  0  0  0
  129.6450  125.4920   63.2810 C   0  0  0  0  0  0  0  0  0  0  0  0
  130.7190  125.5830   62.6810 O   0  0  0  0  0  0  0  0  0  0  0  0
  128.6000  124.7440   62.8500 N   0  0  0  0  0  0  0  0  0  0  0  0
  128.5470  123.9670   61.7010 C   0  0  0  0  0  0  0  0  0  0  0  0
  127.8370  122.8800   61.4930 N   0  0  0  0  0  0  0  0  0  0  0  0
  128.0280  122.4000   60.2800 C   0  0  0  0  0  0  0  0  0  0  0  0
  128.9150  123.1050   59.4720 C   0  0  0  0  0  0  0  0  0  0  0  0
  129.5260  124.4690   60.3610 S   0  0  0  0  0  0  0  0  0  0  0  0
  130.2310  125.6910   66.0160 S   0  0  0  0  0  0  0  0  0  0  0  0
  129.4880  126.9810   66.9320 C   0  0  0  0  0  0  0  0  0  0  0  0
  129.7170  127.1430   68.2350 N   0  0  0  0  0  0  0  0  0  0  0  0
  129.6170  127.2240   71.1180 C   0  0  0  0  0  0  0  0  0  0  0  0
  129.8730  127.3640   72.4790 C   0  0  0  0  0  0  0  0  0  0  0  0
  1  2  1  0
  2  3  1  0
  3  4  2  0
  4  5  1  0
  5  6  2  0
  6  7  1  0
  7  8  2  0
  8  9  1  0
  9 10  1  0
 10 11  2  0
 11 12  1  0
 12 13  2  0
 13 14  1  0
 14 15  1  0
 13 16  1  0
 16 17  2  0
  9 18  2  0
 18 19  1  0
 19 20  1  0
 19 21  2  0
 21 22  1  0
 22 23  2  0
 22 24  1  0
 24 25  1  0
 25 26  2  0
 26 27  1  0
 27 28  2  0
 28 29  1  0
 21 30  1  0
 30 31  1  0
 31 32  2  0
  6 33  1  0
 33 34  2  0
 34  3  1  0
 32  7  1  0
 17 10  1  0
 31 18  1  0
 29 25  1  0
M  END
>  <Binding energies>  (37) 
[-8.29]

>  <Ligand effiencies>  (37) 
[-0.22405405405405404]

>  <Interactions>  (37) 
["V-B:HIS:456:CE1:9041, V-B:GLU:543:CD:9879, V-A:GLU:543:CD:4908, V-B:GLY:454:CA:9020, V-B:ILE:369:CD1:8210, V-A:GLU:543:CG:4907, V-B:LEU:475:CD1:9229, V-A:HIS:456:CE1:4069, V-B:TYR:539:CD2:9845, V-A:GLU:543:C:4902, V-A:GLU:543:CB:4906, V-B:TYR:539:CE2:9847, V-B:GLU:543:CG:9878, H-B:GLY:454:N:9021, H-B:GLU:543:OE2:9881, H-B:GLU:543:OE1:9880, H-A:LYS:547:NZ:4951, V-B:PRO:540:C:9852, V-A:LYS:547:CE:4950, V-B:PRO:540:CA:9854, H-B:ALA:541:N:9862"]

$$$$
8d_Ghoteimi_2023
     RDKit          3D

 30 33  0  0  0  0  0  0  0  0999 V2000
  124.5040  129.5810   66.9560 C   0  0  0  0  0  0  0  0  0  0  0  0
  125.0080  130.3600   65.8800 O   0  0  0  0  0  0  0  0  0  0  0  0
  126.3050  130.7640   65.8610 C   0  0  0  0  0  0  0  0  0  0  0  0
  126.6600  131.9390   65.7340 O   0  0  0  0  0  0  0  0  0  0  0  0
  127.2600  129.6440   66.0090 C   0  0  0  0  0  0  0  0  0  0  0  0
  127.6980  128.6700   64.6040 S   0  0  0  0  0  0  0  0  0  0  0  0
  128.7570  127.6750   65.5770 C   0  0  0  0  0  0  0  0  0  0  0  0
  129.4500  126.6630   65.0520 N   0  0  0  0  0  0  0  0  0  0  0  0
  130.2460  125.9540   65.8970 C   0  0  0  0  0  0  0  0  0  0  0  0
  131.0080  124.8220   65.2840 C   0  0  0  0  0  0  0  0  0  0  0  0
  132.3370  124.9830   64.8700 C   0  0  0  0  0  0  0  0  0  0  0  0
  133.0420  123.9270   64.3000 C   0  0  0  0  0  0  0  0  0  0  0  0
  132.4370  122.6830   64.1280 C   0  0  0  0  0  0  0  0  0  0  0  0
  133.2110  121.6930   63.5540 O   0  0  0  0  0  0  0  0  0  0  0  0
  133.4830  121.7460   62.1580 C   0  0  0  0  0  0  0  0  0  0  0  0
  131.1080  122.5090   64.5400 C   0  0  0  0  0  0  0  0  0  0  0  0
  130.4070  123.5690   65.1110 C   0  0  0  0  0  0  0  0  0  0  0  0
  130.3410  126.2530   67.2590 C   0  0  0  0  0  0  0  0  0  0  0  0
  129.6170  127.3160   67.8080 C   0  0  0  0  0  0  0  0  0  0  0  0
  129.7460  127.6130   69.2540 C   0  0  0  0  0  0  0  0  0  0  0  0
  130.7230  128.5030   69.7030 C   0  0  0  0  0  0  0  0  0  0  0  0
  130.8500  128.7760   71.0630 C   0  0  0  0  0  0  0  0  0  0  0  0
  130.0030  128.1680   71.9900 C   0  0  0  0  0  0  0  0  0  0  0  0
  130.2030  128.4970   73.3160 O   0  0  0  0  0  0  0  0  0  0  0  0
  129.4060  129.5180   73.9060 C   0  0  0  0  0  0  0  0  0  0  0  0
  129.0180  127.2750   71.5350 C   0  0  0  0  0  0  0  0  0  0  0  0
  128.8930  127.0030   70.1750 C   0  0  0  0  0  0  0  0  0  0  0  0
  128.7820  128.0710   66.9440 C   0  0  0  0  0  0  0  0  0  0  0  0
  127.9170  129.1980   67.1620 C   0  0  0  0  0  0  0  0  0  0  0  0
  127.7520  129.7760   68.3950 N   0  0  0  0  0  0  0  0  0  0  0  0
  1  2  1  0
  2  3  1  0
  3  4  2  0
  3  5  1  0
  5  6  1  0
  6  7  1  0
  7  8  2  0
  8  9  1  0
  9 10  1  0
 10 11  2  0
 11 12  1  0
 12 13  2  0
 13 14  1  0
 14 15  1  0
 13 16  1  0
 16 17  2  0
  9 18  2  0
 18 19  1  0
 19 20  1  0
 20 21  2  0
 21 22  1  0
 22 23  2  0
 23 24  1  0
 24 25  1  0
 23 26  1  0
 26 27  2  0
 19 28  2  0
 28 29  1  0
 29 30  1  0
 29  5  2  0
 28  7  1  0
 17 10  1  0
 27 20  1  0
M  END
>  <Binding energies>  (38) 
[-7.05]

>  <Ligand effiencies>  (38) 
[-0.2203125]

>  <Interactions>  (38) 
["V-B:HIS:456:CE1:9041, V-B:GLU:543:CD:9879, V-A:LEU:475:CD2:4258, V-A:TYR:484:CZ:4346, V-A:GLU:543:CD:4908, V-A:ILE:369:CD1:3238, V-A:GLU:543:CG:4907, V-A:GLY:454:CA:4048, V-A:HIS:456:CE1:4069, V-A:GLU:543:C:4902, V-B:HIS:456:CD2:9039, V-A:ILE:369:CG2:3236, V-A:GLU:543:CB:4906, V-B:GLU:543:CG:9878, V-B:TYR:484:CE1:9316, H-B:GLY:454:N:9021, H-B:TYR:484:OH:9319, H-A:LYS:547:NZ:4951, V-A:LYS:547:CE:4950, H-B:HIS:456:NE2:9042, V-B:TYR:484:CZ:9318, V-B:ARG:545:CG:9893, H-A:GLY:454:N:4049, V-B:ARG:545:CD:9894, V-A:TYR:484:CE1:4344"]

$$$$
9a_Ghoteimi_2023
     RDKit          3D

 48 54  0  0  0  0  0  0  0  0999 V2000
  127.6920  136.3900   75.6320 C   0  0  0  0  0  0  0  0  0  0  0  0
  129.0500  135.9920   75.0450 C   0  0  0  0  0  0  0  0  0  0  0  0
  129.4690  134.7580   75.6140 O   0  0  0  0  0  0  0  0  0  0  0  0
  128.6210  133.7020   75.7010 C   0  0  0  0  0  0  0  0  0  0  0  0
  127.9230  133.4700   76.6940 O   0  0  0  0  0  0  0  0  0  0  0  0
  128.6190  132.8380   74.4730 C   0  0  0  0  0  0  0  0  0  0  0  0
  129.5880  131.8360   74.3390 C   0  0  0  0  0  0  0  0  0  0  0  0
  129.6140  131.0200   73.2110 C   0  0  0  0  0  0  0  0  0  0  0  0
  128.6720  131.1870   72.1960 C   0  0  0  0  0  0  0  0  0  0  0  0
  128.7950  130.3060   71.1040 N   0  0  0  0  0  0  0  0  0  0  0  0
  128.9880  128.9640   71.0750 C   0  0  0  0  0  0  0  0  0  0  0  0
  129.0920  128.2580   72.0780 O   0  0  0  0  0  0  0  0  0  0  0  0
  129.0620  128.3710   69.7360 C   0  0  0  0  0  0  0  0  0  0  0  0
  129.8140  126.7920   69.5020 S   0  0  0  0  0  0  0  0  0  0  0  0
  129.4880  126.8420   67.7850 C   0  0  0  0  0  0  0  0  0  0  0  0
  129.8270  125.8360   66.9800 N   0  0  0  0  0  0  0  0  0  0  0  0
  129.5180  125.9680   65.6630 C   0  0  0  0  0  0  0  0  0  0  0  0
  129.8980  124.8230   64.7810 C   0  0  0  0  0  0  0  0  0  0  0  0
  130.9670  123.9870   65.1220 C   0  0  0  0  0  0  0  0  0  0  0  0
  131.3270  122.9170   64.3070 C   0  0  0  0  0  0  0  0  0  0  0  0
  130.6230  122.6350   63.1260 C   0  0  0  0  0  0  0  0  0  0  0  0
  130.9850  121.5760   62.2880 N   0  0  0  0  0  0  0  0  0  0  0  0
  129.9850  120.8650   61.4660 C   0  0  0  0  0  0  0  0  0  0  0  0
  130.4870  119.5210   60.8970 C   0  0  0  0  0  0  0  0  0  0  0  0
  131.6910  119.7190   60.1750 O   0  0  0  0  0  0  0  0  0  0  0  0
  132.7130  120.2510   61.0030 C   0  0  0  0  0  0  0  0  0  0  0  0
  132.2750  121.6170   61.5680 C   0  0  0  0  0  0  0  0  0  0  0  0
  129.5620  123.4850   62.7810 C   0  0  0  0  0  0  0  0  0  0  0  0
  129.2040  124.5560   63.5950 C   0  0  0  0  0  0  0  0  0  0  0  0
  128.9000  127.1120   65.1530 C   0  0  0  0  0  0  0  0  0  0  0  0
  128.5600  128.1790   65.9920 C   0  0  0  0  0  0  0  0  0  0  0  0
  127.9360  129.3870   65.3930 C   0  0  0  0  0  0  0  0  0  0  0  0
  128.5890  130.0980   64.3820 C   0  0  0  0  0  0  0  0  0  0  0  0
  127.9980  131.2210   63.8120 C   0  0  0  0  0  0  0  0  0  0  0  0
  126.7270  131.6540   64.2250 C   0  0  0  0  0  0  0  0  0  0  0  0
  126.1180  132.7850   63.6760 N   0  0  0  0  0  0  0  0  0  0  0  0
  124.6850  132.7320   63.3270 C   0  0  0  0  0  0  0  0  0  0  0  0
  124.0600  134.1250   63.0970 C   0  0  0  0  0  0  0  0  0  0  0  0
  124.7960  134.8310   62.1100 O   0  0  0  0  0  0  0  0  0  0  0  0
  126.1480  135.0170   62.4970 C   0  0  0  0  0  0  0  0  0  0  0  0
  126.8290  133.6470   62.7110 C   0  0  0  0  0  0  0  0  0  0  0  0
  126.0800  130.9310   65.2380 C   0  0  0  0  0  0  0  0  0  0  0  0
  126.6740  129.8110   65.8110 C   0  0  0  0  0  0  0  0  0  0  0  0
  128.8410  128.0470   67.3820 C   0  0  0  0  0  0  0  0  0  0  0  0
  128.5890  128.8930   68.5220 C   0  0  0  0  0  0  0  0  0  0  0  0
  127.9300  130.0910   68.4200 N   0  0  0  0  0  0  0  0  0  0  0  0
  127.6950  132.1860   72.3230 C   0  0  0  0  0  0  0  0  0  0  0  0
  127.6710  133.0020   73.4510 C   0  0  0  0  0  0  0  0  0  0  0  0
  1  2  1  0
  2  3  1  0
  3  4  1  0
  4  5  2  0
  4  6  1  0
  6  7  2  0
  7  8  1  0
  8  9  2  0
  9 10  1  0
 10 11  1  0
 11 12  2  0
 11 13  1  0
 13 14  1  0
 14 15  1  0
 15 16  2  0
 16 17  1  0
 17 18  1  0
 18 19  2  0
 19 20  1  0
 20 21  2  0
 21 22  1  0
 22 23  1  0
 23 24  1  0
 24 25  1  0
 25 26  1  0
 26 27  1  0
 21 28  1  0
 28 29  2  0
 17 30  2  0
 30 31  1  0
 31 32  1  0
 32 33  2  0
 33 34  1  0
 34 35  2  0
 35 36  1  0
 36 37  1  0
 37 38  1  0
 38 39  1  0
 39 40  1  0
 40 41  1  0
 35 42  1  0
 42 43  2  0
 31 44  2  0
 44 45  1  0
 45 46  1  0
  9 47  1  0
 47 48  2  0
 48  6  1  0
 45 13  2  0
 44 15  1  0
 29 18  1  0
 43 32  1  0
 27 22  1  0
 41 36  1  0
M  END
>  <Binding energies>  (39) 
[-8.54]

>  <Ligand effiencies>  (39) 
[-0.16745098039215683]

>  <Interactions>  (39) 
["V-B:HIS:456:CE1:9041, V-B:GLU:543:CD:9879, V-A:LEU:475:CD2:4258, V-A:TYR:484:CZ:4346, V-A:GLU:543:CD:4908, V-B:GLY:454:CA:9020, V-A:ALA:541:CB:4892, V-A:GLU:543:CG:4907, V-B:LEU:475:CD1:9229, V-A:HIS:456:CE1:4069, V-B:TYR:539:CD2:9845, V-A:GLU:543:C:4902, V-B:HIS:456:CD2:9039, V-A:ILE:369:CG2:3236, V-B:HIS:456:CG:9037, V-A:GLU:543:CB:4906, V-B:ALA:541:CB:9863, V-B:TYR:484:CD1:9314, V-B:GLU:543:CG:9878, V-B:TYR:484:CE1:9316, H-B:TYR:484:OH:9319, V-A:TRP:381:CZ2:3369, V-A:TRP:381:CH2:3371, V-B:TYR:484:CZ:9318, V-B:HIS:456:CB:9036, H-A:GLU:543:O:4903, V-B:ASP:473:CG:9211, V-B:TYR:484:CG:9313, V-B:TYR:484:CB:9312, V-A:PRO:482:CB:4325, V-A:PRO:482:CG:4326, V-B:TYR:484:CD2:9315, V-B:ASP:473:CB:9210, V-B:ASP:485:CA:9324, V-B:TYR:484:C:9308, V-B:TYR:484:CE2:9317, V-B:PRO:486:CD:9337, V-B:ASP:485:C:9322"]

$$$$
9b_Ghoteimi_2023
     RDKit          3D

 42 48  0  0  0  0  0  0  0  0999 V2000
  127.8980  130.5360   67.8040 N   0  0  0  0  0  0  0  0  0  0  0  0
  128.4910  129.3130   67.9870 C   0  0  0  0  0  0  0  0  0  0  0  0
  128.9970  128.8750   69.2200 C   0  0  0  0  0  0  0  0  0  0  0  0
  128.9840  129.5690   70.5110 C   0  0  0  0  0  0  0  0  0  0  0  0
  128.5260  130.7090   70.6080 O   0  0  0  0  0  0  0  0  0  0  0  0
  129.5070  128.8730   71.5520 N   0  0  0  0  0  0  0  0  0  0  0  0
  129.6310  129.2890   72.8710 C   0  0  0  0  0  0  0  0  0  0  0  0
  129.2320  130.5490   73.3130 C   0  0  0  0  0  0  0  0  0  0  0  0
  129.5160  130.5630   74.6590 C   0  0  0  0  0  0  0  0  0  0  0  0
  130.0590  129.3730   75.0090 O   0  0  0  0  0  0  0  0  0  0  0  0
  130.1270  128.5740   73.8680 N   0  0  0  0  0  0  0  0  0  0  0  0
  129.7180  127.2710   69.0820 S   0  0  0  0  0  0  0  0  0  0  0  0
  129.3530  127.2060   67.3740 C   0  0  0  0  0  0  0  0  0  0  0  0
  129.7020  126.1610   66.6260 N   0  0  0  0  0  0  0  0  0  0  0  0
  129.3880  126.2160   65.3050 C   0  0  0  0  0  0  0  0  0  0  0  0
  129.8090  125.0400   64.4840 C   0  0  0  0  0  0  0  0  0  0  0  0
  129.2550  124.8050   63.2190 C   0  0  0  0  0  0  0  0  0  0  0  0
  129.6410  123.7010   62.4650 C   0  0  0  0  0  0  0  0  0  0  0  0
  130.5830  122.7820   62.9540 C   0  0  0  0  0  0  0  0  0  0  0  0
  130.9820  121.6690   62.2060 N   0  0  0  0  0  0  0  0  0  0  0  0
  132.2560  121.6610   61.4590 C   0  0  0  0  0  0  0  0  0  0  0  0
  132.6940  120.2590   60.9890 C   0  0  0  0  0  0  0  0  0  0  0  0
  131.6580  119.6560   60.2320 O   0  0  0  0  0  0  0  0  0  0  0  0
  130.4740  119.5030   60.9980 C   0  0  0  0  0  0  0  0  0  0  0  0
  129.9680  120.8810   61.4740 C   0  0  0  0  0  0  0  0  0  0  0  0
  131.1480  123.0340   64.2120 C   0  0  0  0  0  0  0  0  0  0  0  0
  130.7660  124.1410   64.9650 C   0  0  0  0  0  0  0  0  0  0  0  0
  128.7050  127.2990   64.7440 C   0  0  0  0  0  0  0  0  0  0  0  0
  128.3190  128.3900   65.5310 C   0  0  0  0  0  0  0  0  0  0  0  0
  127.5690  129.5020   64.8940 C   0  0  0  0  0  0  0  0  0  0  0  0
  126.1890  129.6120   65.0680 C   0  0  0  0  0  0  0  0  0  0  0  0
  125.4870  130.6640   64.4880 C   0  0  0  0  0  0  0  0  0  0  0  0
  126.1450  131.6350   63.7170 C   0  0  0  0  0  0  0  0  0  0  0  0
  125.4620  132.7070   63.1380 N   0  0  0  0  0  0  0  0  0  0  0  0
  126.1060  133.4730   62.0540 C   0  0  0  0  0  0  0  0  0  0  0  0
  125.4350  134.8390   61.7920 C   0  0  0  0  0  0  0  0  0  0  0  0
  124.0520  134.6560   61.5250 O   0  0  0  0  0  0  0  0  0  0  0  0
  123.3840  134.0390   62.6150 C   0  0  0  0  0  0  0  0  0  0  0  0
  124.0060  132.6560   62.9010 C   0  0  0  0  0  0  0  0  0  0  0  0
  127.5350  131.5230   63.5640 C   0  0  0  0  0  0  0  0  0  0  0  0
  128.2380  130.4710   64.1450 C   0  0  0  0  0  0  0  0  0  0  0  0
  128.6680  128.3690   66.9110 C   0  0  0  0  0  0  0  0  0  0  0  0
  1  2  1  0
  2  3  2  0
  3  4  1  0
  4  5  2  0
  4  6  1  0
  6  7  1  0
  7  8  1  0
  8  9  2  0
  9 10  1  0
 10 11  1  0
  3 12  1  0
 12 13  1  0
 13 14  2  0
 14 15  1  0
 15 16  1  0
 16 17  2  0
 17 18  1  0
 18 19  2  0
 19 20  1  0
 20 21  1  0
 21 22  1  0
 22 23  1  0
 23 24  1  0
 24 25  1  0
 19 26  1  0
 26 27  2  0
 15 28  2  0
 28 29  1  0
 29 30  1  0
 30 31  2  0
 31 32  1  0
 32 33  2  0
 33 34  1  0
 34 35  1  0
 35 36  1  0
 36 37  1  0
 37 38  1  0
 38 39  1  0
 33 40  1  0
 40 41  2  0
 29 42  2  0
 42  2  1  0
 11  7  2  0
 42 13  1  0
 27 16  1  0
 41 30  1  0
 25 20  1  0
 39 34  1  0
M  END
>  <Binding energies>  (40) 
[-9.25]

>  <Ligand effiencies>  (40) 
[-0.20555555555555555]

>  <Interactions>  (40) 
["V-B:HIS:456:CE1:9041, V-B:GLU:543:CD:9879, V-A:LEU:475:CD2:4258, V-A:GLU:543:CD:4908, V-B:GLY:454:CA:9020, V-B:ILE:369:CD1:8210, V-A:GLU:543:CG:4907, V-B:LEU:475:CD1:9229, V-B:ILE:369:CG2:8208, V-A:HIS:456:CE1:4069, V-B:TYR:539:CD2:9845, V-A:ILE:369:CG2:3236, V-A:GLU:543:CB:4906, V-B:ALA:541:CB:9863, V-B:GLU:543:CG:9878, V-B:TYR:484:CE1:9316, H-B:TYR:484:OH:9319, H-A:LYS:547:NZ:4951, V-A:TRP:381:CZ2:3369, V-A:LYS:547:CE:4950, V-A:TRP:381:CH2:3371, H-B:HIS:456:ND1:9038, V-B:TYR:484:CZ:9318, V-A:PRO:482:CB:4325, V-A:PRO:482:CG:4326"]

$$$$
9c_Ghoteimi_2023
     RDKit          3D

 42 48  0  0  0  0  0  0  0  0999 V2000
  127.9940  130.5040   68.3440 N   0  0  0  0  0  0  0  0  0  0  0  0
  128.5700  129.2670   68.4860 C   0  0  0  0  0  0  0  0  0  0  0  0
  129.0740  128.7840   69.7030 C   0  0  0  0  0  0  0  0  0  0  0  0
  129.0800  129.4390   71.0140 C   0  0  0  0  0  0  0  0  0  0  0  0
  129.7280  128.9700   71.9520 O   0  0  0  0  0  0  0  0  0  0  0  0
  128.3310  130.5660   71.1040 N   0  0  0  0  0  0  0  0  0  0  0  0
  128.1530  131.3630   72.2270 C   0  0  0  0  0  0  0  0  0  0  0  0
  127.1130  132.1070   72.5340 N   0  0  0  0  0  0  0  0  0  0  0  0
  127.2890  132.7370   73.6790 C   0  0  0  0  0  0  0  0  0  0  0  0
  128.4990  132.5090   74.3280 C   0  0  0  0  0  0  0  0  0  0  0  0
  129.4500  131.4060   73.3780 S   0  0  0  0  0  0  0  0  0  0  0  0
  129.7680  127.1740   69.5120 S   0  0  0  0  0  0  0  0  0  0  0  0
  129.3960  127.1670   67.8040 C   0  0  0  0  0  0  0  0  0  0  0  0
  129.7240  126.1390   67.0230 N   0  0  0  0  0  0  0  0  0  0  0  0
  129.4050  126.2400   65.7060 C   0  0  0  0  0  0  0  0  0  0  0  0
  129.8040  125.0830   64.8480 C   0  0  0  0  0  0  0  0  0  0  0  0
  130.1280  123.8430   65.4090 C   0  0  0  0  0  0  0  0  0  0  0  0
  130.5080  122.7710   64.6070 C   0  0  0  0  0  0  0  0  0  0  0  0
  130.5890  122.9050   63.2120 C   0  0  0  0  0  0  0  0  0  0  0  0
  130.9620  121.8350   62.3900 N   0  0  0  0  0  0  0  0  0  0  0  0
  132.2360  121.8470   61.6430 C   0  0  0  0  0  0  0  0  0  0  0  0
  132.6430  120.4680   61.0820 C   0  0  0  0  0  0  0  0  0  0  0  0
  131.5940  119.9410   60.2860 O   0  0  0  0  0  0  0  0  0  0  0  0
  130.4070  119.7650   61.0420 C   0  0  0  0  0  0  0  0  0  0  0  0
  129.9320  121.1210   61.6080 C   0  0  0  0  0  0  0  0  0  0  0  0
  130.2440  124.1440   62.6530 C   0  0  0  0  0  0  0  0  0  0  0  0
  129.8610  125.2140   63.4570 C   0  0  0  0  0  0  0  0  0  0  0  0
  128.7380  127.3500   65.1820 C   0  0  0  0  0  0  0  0  0  0  0  0
  128.3720  128.4220   66.0040 C   0  0  0  0  0  0  0  0  0  0  0  0
  127.6360  129.5640   65.4060 C   0  0  0  0  0  0  0  0  0  0  0  0
  128.2490  130.3740   64.4490 C   0  0  0  0  0  0  0  0  0  0  0  0
  127.5570  131.4360   63.8740 C   0  0  0  0  0  0  0  0  0  0  0  0
  126.2320  131.7170   64.2420 C   0  0  0  0  0  0  0  0  0  0  0  0
  125.5140  132.7710   63.6690 N   0  0  0  0  0  0  0  0  0  0  0  0
  126.1990  133.6830   62.7310 C   0  0  0  0  0  0  0  0  0  0  0  0
  125.4260  134.9970   62.4880 C   0  0  0  0  0  0  0  0  0  0  0  0
  124.1100  134.7120   62.0390 O   0  0  0  0  0  0  0  0  0  0  0  0
  123.3860  133.9470   62.9910 C   0  0  0  0  0  0  0  0  0  0  0  0
  124.1080  132.6070   63.2530 C   0  0  0  0  0  0  0  0  0  0  0  0
  125.6190  130.8840   65.1900 C   0  0  0  0  0  0  0  0  0  0  0  0
  126.3120  129.8220   65.7650 C   0  0  0  0  0  0  0  0  0  0  0  0
  128.7270  128.3540   67.3820 C   0  0  0  0  0  0  0  0  0  0  0  0
  1  2  1  0
  2  3  2  0
  3  4  1  0
  4  5  2  0
  4  6  1  0
  6  7  1  0
  7  8  2  0
  8  9  1  0
  9 10  2  0
 10 11  1  0
  3 12  1  0
 12 13  1  0
 13 14  2  0
 14 15  1  0
 15 16  1  0
 16 17  2  0
 17 18  1  0
 18 19  2  0
 19 20  1  0
 20 21  1  0
 21 22  1  0
 22 23  1  0
 23 24  1  0
 24 25  1  0
 19 26  1  0
 26 27  2  0
 15 28  2  0
 28 29  1  0
 29 30  1  0
 30 31  2  0
 31 32  1  0
 32 33  2  0
 33 34  1  0
 34 35  1  0
 35 36  1  0
 36 37  1  0
 37 38  1  0
 38 39  1  0
 33 40  1  0
 40 41  2  0
 29 42  2  0
 42  2  1  0
 11  7  1  0
 42 13  1  0
 27 16  1  0
 41 30  1  0
 25 20  1  0
 39 34  1  0
M  END
>  <Binding energies>  (41) 
[-9.35]

>  <Ligand effiencies>  (41) 
[-0.20777777777777778]

>  <Interactions>  (41) 
["V-B:HIS:456:CE1:9041, V-B:GLU:543:CD:9879, V-A:LEU:475:CD2:4258, V-A:GLU:543:CD:4908, V-B:GLY:454:CA:9020, V-B:ILE:369:CD1:8210, V-A:GLU:543:CG:4907, V-B:LEU:475:CD1:9229, V-A:HIS:456:CE1:4069, V-B:TYR:539:CD2:9845, V-B:HIS:456:CD2:9039, V-A:ILE:369:CG2:3236, V-B:HIS:456:CG:9037, V-A:GLU:543:CB:4906, V-B:ALA:541:CB:9863, V-B:TYR:484:CD1:9314, V-B:GLU:543:CG:9878, V-B:TYR:484:CE1:9316, H-B:TYR:484:OH:9319, V-A:TRP:381:CH2:3371, H-B:HIS:456:ND1:9038, H-B:HIS:456:NE2:9042, V-A:GLU:543:CA:4904, V-B:TYR:484:CZ:9318, V-B:HIS:456:CB:9036, H-A:GLU:543:O:4903, V-B:ASP:473:CG:9211, V-B:TYR:484:CG:9313, V-B:TYR:484:CB:9312, V-A:TYR:484:CE1:4344, V-A:PRO:482:CB:4325, V-B:TYR:484:CD2:9315, V-B:ASP:473:CB:9210"]

$$$$
RR11_Rahimova_2017
     RDKit          3D

 33 38  0  0  0  0  0  0  0  0999 V2000
  132.7470  120.5580   60.9800 N   0  0  0  0  0  0  0  0  0  0  0  0
  132.2100  121.4150   61.9380 C   0  0  0  0  0  0  0  0  0  0  0  0
  130.8290  121.5840   62.0210 C   0  0  0  0  0  0  0  0  0  0  0  0
  130.2930  122.4380   62.9810 C   0  0  0  0  0  0  0  0  0  0  0  0
  131.1310  123.1300   63.8650 C   0  0  0  0  0  0  0  0  0  0  0  0
  130.5510  124.0460   64.9030 C   0  0  0  0  0  0  0  0  0  0  0  0
  130.1880  125.2900   64.6770 N   0  0  0  0  0  0  0  0  0  0  0  0
  129.7070  125.7500   65.8740 C   0  0  0  0  0  0  0  0  0  0  0  0
  129.1820  127.0100   66.1930 C   0  0  0  0  0  0  0  0  0  0  0  0
  128.7340  127.2330   67.5010 C   0  0  0  0  0  0  0  0  0  0  0  0
  128.1650  128.5940   67.8780 C   0  0  0  0  0  0  0  0  0  0  0  0
  127.0860  129.0730   66.9170 C   0  0  0  0  0  0  0  0  0  0  0  0
  125.7760  129.2420   67.3800 C   0  0  0  0  0  0  0  0  0  0  0  0
  124.7540  129.6880   66.5390 C   0  0  0  0  0  0  0  0  0  0  0  0
  125.0740  129.9730   65.2050 C   0  0  0  0  0  0  0  0  0  0  0  0
  124.2620  130.4120   64.1920 N   0  0  0  0  0  0  0  0  0  0  0  0
  125.0450  130.5190   63.1400 C   0  0  0  0  0  0  0  0  0  0  0  0
  124.5840  130.9570   61.7800 C   0  0  0  0  0  0  0  0  0  0  0  0
  123.2170  131.0700   61.4950 C   0  0  0  0  0  0  0  0  0  0  0  0
  122.7890  131.4660   60.2300 C   0  0  0  0  0  0  0  0  0  0  0  0
  123.7270  131.7510   59.2400 C   0  0  0  0  0  0  0  0  0  0  0  0
  123.2990  132.1430   57.9720 N   0  0  0  0  0  0  0  0  0  0  0  0
  125.0890  131.6470   59.5100 C   0  0  0  0  0  0  0  0  0  0  0  0
  125.5150  131.2510   60.7750 C   0  0  0  0  0  0  0  0  0  0  0  0
  126.3480  130.1730   63.4290 N   0  0  0  0  0  0  0  0  0  0  0  0
  126.4060  129.8110   64.7540 C   0  0  0  0  0  0  0  0  0  0  0  0
  127.4340  129.3700   65.5920 C   0  0  0  0  0  0  0  0  0  0  0  0
  128.8330  126.2280   68.4700 C   0  0  0  0  0  0  0  0  0  0  0  0
  129.3550  124.9640   68.1850 C   0  0  0  0  0  0  0  0  0  0  0  0
  129.7830  124.7500   66.8730 C   0  0  0  0  0  0  0  0  0  0  0  0
  130.3320  123.6750   66.2130 N   0  0  0  0  0  0  0  0  0  0  0  0
  132.5170  122.9520   63.7700 C   0  0  0  0  0  0  0  0  0  0  0  0
  133.0560  122.0980   62.8110 C   0  0  0  0  0  0  0  0  0  0  0  0
  1  2  1  0
  2  3  2  0
  3  4  1  0
  4  5  2  0
  5  6  1  0
  6  7  2  0
  7  8  1  0
  8  9  2  0
  9 10  1  0
 10 11  1  0
 11 12  1  0
 12 13  2  0
 13 14  1  0
 14 15  2  0
 15 16  1  0
 16 17  2  0
 17 18  1  0
 18 19  2  0
 19 20  1  0
 20 21  2  0
 21 22  1  0
 21 23  1  0
 23 24  2  0
 17 25  1  0
 25 26  1  0
 26 27  2  0
 10 28  2  0
 28 29  1  0
 29 30  2  0
 30 31  1  0
  5 32  1  0
 32 33  2  0
 33  2  1  0
 31  6  1  0
 30  8  1  0
 27 12  1  0
 26 15  1  0
 24 18  1  0
M  END
>  <Binding energies>  (42) 
[-8.4]

>  <Ligand effiencies>  (42) 
[-0.2153846153846154]

>  <Interactions>  (42) 
["V-B:ASP:366:CG:8184, V-B:HIS:456:CE1:9041, V-B:GLU:543:CD:9879, V-B:ILE:369:CB:8207, V-A:LEU:475:CD2:4258, V-A:TYR:484:CZ:4346, V-A:GLU:543:CD:4908, V-B:ILE:369:CD1:8210, V-A:GLU:543:CG:4907, V-B:ILE:369:CG2:8208, V-A:TYR:539:CE2:4876, V-A:GLY:454:CA:4048, V-A:HIS:456:CE1:4069, V-A:ILE:369:CG2:3236, V-A:GLU:543:CB:4906, V-B:ALA:541:CB:9863, V-B:GLU:543:CG:9878, V-B:GLU:543:CB:9877, H-B:GLY:454:N:9021, V-B:ASP:366:CB:8183, H-B:ARG:545:NH2:9899, H-A:TYR:484:OH:4347, V-B:ARG:545:CZ:9897, V-B:ARG:545:CG:9893, V-B:ARG:545:CD:9894, V-B:ASP:366:CA:8181, V-A:TYR:484:CE1:4344, H-A:SER:385:O:3405, V-B:GLU:543:CA:9875, V-A:TYR:539:CZ:4877, V-B:ASP:366:C:8179, H-A:TYR:539:OH:4878, V-B:ILE:369:CG1:8209, H-B:ASP:366:O:8180, V-B:ILE:369:C:8203, V-B:ASN:370:CB:8216, V-B:ASN:370:CA:8214"]

$$$$
RR16_Rahimova_2017
     RDKit          3D

 44 49  0  0  0  0  0  0  0  0999 V2000
  133.8450  124.2970   63.3810 O   0  0  0  0  0  0  0  0  0  0  0  0
  132.7780  123.3750   63.7870 S   0  0  0  0  0  0  0  0  0  0  0  0
  133.0880  122.0070   64.2190 O   0  0  0  0  0  0  0  0  0  0  0  0
  131.6230  123.2800   62.4550 N   0  0  0  0  0  0  0  0  0  0  0  0
  131.9880  122.6250   61.1770 C   0  0  0  0  0  0  0  0  0  0  0  0
  132.7000  121.2810   61.4790 C   0  0  0  0  0  0  0  0  0  0  0  0
  132.3180  120.0670   60.6090 C   0  0  0  0  0  0  0  0  0  0  0  0
  130.9390  119.4710   60.9410 C   0  0  0  0  0  0  0  0  0  0  0  0
  129.9510  120.4180   61.6510 C   0  0  0  0  0  0  0  0  0  0  0  0
  129.5650  121.7160   60.9150 C   0  0  0  0  0  0  0  0  0  0  0  0
  130.7190  122.5280   60.2970 C   0  0  0  0  0  0  0  0  0  0  0  0
  131.8730  124.1770   65.1050 C   0  0  0  0  0  0  0  0  0  0  0  0
  130.5630  123.7920   65.3960 C   0  0  0  0  0  0  0  0  0  0  0  0
  129.8290  124.5050   66.3400 C   0  0  0  0  0  0  0  0  0  0  0  0
  130.4080  125.5980   66.9880 C   0  0  0  0  0  0  0  0  0  0  0  0
  129.4220  126.6020   68.0970 S   0  0  0  0  0  0  0  0  0  0  0  0
  130.3460  127.4500   68.8610 O   0  0  0  0  0  0  0  0  0  0  0  0
  128.4920  125.7040   68.7930 O   0  0  0  0  0  0  0  0  0  0  0  0
  128.4770  127.6440   67.0140 N   0  0  0  0  0  0  0  0  0  0  0  0
  128.0570  128.9360   67.6160 C   0  0  0  0  0  0  0  0  0  0  0  0
  126.9960  129.6230   66.7320 C   0  0  0  0  0  0  0  0  0  0  0  0
  127.4750  129.7650   65.2660 C   0  0  0  0  0  0  0  0  0  0  0  0
  126.4170  130.4040   64.3610 C   0  0  0  0  0  0  0  0  0  0  0  0
  125.0990  129.9260   64.3880 C   0  0  0  0  0  0  0  0  0  0  0  0
  124.1010  130.4830   63.5870 C   0  0  0  0  0  0  0  0  0  0  0  0
  122.8160  130.0060   63.6300 O   0  0  0  0  0  0  0  0  0  0  0  0
  124.4480  131.5480   62.7420 C   0  0  0  0  0  0  0  0  0  0  0  0
  123.6950  132.2880   61.8770 N   0  0  0  0  0  0  0  0  0  0  0  0
  124.5220  133.2360   61.3140 N   0  0  0  0  0  0  0  0  0  0  0  0
  125.7680  133.0520   61.7920 N   0  0  0  0  0  0  0  0  0  0  0  0
  126.8360  133.9740   61.4290 C   0  0  0  0  0  0  0  0  0  0  0  0
  128.0420  133.2680   60.8260 C   0  0  0  0  0  0  0  0  0  0  0  0
  128.0730  132.9760   59.4580 C   0  0  0  0  0  0  0  0  0  0  0  0
  129.1880  132.3480   58.9000 C   0  0  0  0  0  0  0  0  0  0  0  0
  130.2760  132.0110   59.7050 C   0  0  0  0  0  0  0  0  0  0  0  0
  130.2520  132.3010   61.0690 C   0  0  0  0  0  0  0  0  0  0  0  0
  131.6000  131.8940   62.0660 Cl  0  0  0  0  0  0  0  0  0  0  0  0
  129.1350  132.9250   61.6290 C   0  0  0  0  0  0  0  0  0  0  0  0
  125.7820  132.0190   62.7150 C   0  0  0  0  0  0  0  0  0  0  0  0
  126.7840  131.4590   63.5140 C   0  0  0  0  0  0  0  0  0  0  0  0
  128.0280  128.4330   64.6960 C   0  0  0  0  0  0  0  0  0  0  0  0
  129.0480  127.7790   65.6490 C   0  0  0  0  0  0  0  0  0  0  0  0
  131.7320  125.9560   66.7250 C   0  0  0  0  0  0  0  0  0  0  0  0
  132.4640  125.2460   65.7800 C   0  0  0  0  0  0  0  0  0  0  0  0
  1  2  2  0
  2  3  2  0
  2  4  1  0
  4  5  1  0
  5  6  1  0
  6  7  1  0
  7  8  1  0
  8  9  1  0
  9 10  1  0
 10 11  1  0
  2 12  1  0
 12 13  2  0
 13 14  1  0
 14 15  2  0
 15 16  1  0
 16 17  2  0
 16 18  2  0
 16 19  1  0
 19 20  1  0
 20 21  1  0
 21 22  1  0
 22 23  1  0
 23 24  2  0
 24 25  1  0
 25 26  1  0
 25 27  2  0
 27 28  1  0
 28 29  2  0
 29 30  1  0
 30 31  1  0
 31 32  1  0
 32 33  2  0
 33 34  1  0
 34 35  2  0
 35 36  1  0
 36 37  1  0
 36 38  2  0
 30 39  1  0
 39 40  2  0
 22 41  1  0
 41 42  1  0
 15 43  1  0
 43 44  2  0
 11  5  1  0
 44 12  1  0
 42 19  1  0
 40 23  1  0
 39 27  1  0
 38 32  1  0
M  END
>  <Binding energies>  (43) 
[-10.66]

>  <Ligand effiencies>  (43) 
[-0.22208333333333333]

>  <Interactions>  (43) 
["V-B:HIS:456:CE1:9041, V-B:GLU:543:CD:9879, V-A:LEU:475:CD2:4258, V-A:TYR:484:CZ:4346, V-A:GLU:543:CD:4908, V-A:ALA:541:CB:4892, V-A:GLU:543:CG:4907, V-A:TYR:539:CE2:4876, V-A:TYR:539:CD2:4874, V-A:GLY:454:CA:4048, V-A:HIS:456:CE1:4069, V-B:TYR:539:CD2:9845, V-A:ILE:369:CG2:3236, V-A:GLU:543:CB:4906, V-B:TYR:539:CE2:9847, V-B:ALA:541:CB:9863, V-B:GLU:543:CG:9878, V-B:GLU:543:CB:9877, H-B:GLY:454:N:9021, H-B:ARG:545:NH2:9899, V-A:PRO:540:CA:4883, H-A:TYR:484:OH:4347, V-B:ALA:541:CA:9861, V-A:TRP:381:CZ2:3369, V-A:TRP:381:CH2:3371, H-B:ARG:545:NH1:9898, V-B:ARG:545:CZ:9897, H-B:ASP:366:OD1:8185, H-B:ASP:366:OD2:8186, H-A:GLY:454:N:4049, V-A:TYR:484:CE1:4344"]

$$$$
RR18_Rahimova_2017
     RDKit          3D

 36 41  0  0  0  0  0  0  0  0999 V2000
  134.4000  125.1250   62.9690 C   0  0  0  0  0  0  0  0  0  0  0  0
  132.9740  125.5800   62.7850 C   0  0  0  0  0  0  0  0  0  0  0  0
  132.3340  126.4100   61.8780 C   0  0  0  0  0  0  0  0  0  0  0  0
  130.9870  126.4370   62.2370 C   0  0  0  0  0  0  0  0  0  0  0  0
  130.8520  125.6220   63.3490 C   0  0  0  0  0  0  0  0  0  0  0  0
  129.6690  125.2120   64.2230 C   0  0  1  0  0  0  0  0  0  0  0  0
  130.0110  123.9740   65.1050 C   0  0  0  0  0  0  0  0  0  0  0  0
  130.2920  122.6820   64.4880 C   0  0  0  0  0  0  0  0  0  0  0  0
  130.1840  121.6250   65.1130 O   0  0  0  0  0  0  0  0  0  0  0  0
  130.6590  122.7560   63.1870 N   0  0  0  0  0  0  0  0  0  0  0  0
  131.0210  121.7370   62.2810 C   0  0  0  0  0  0  0  0  0  0  0  0
  130.0860  120.9710   61.5610 C   0  0  0  0  0  0  0  0  0  0  0  0
  130.5110  119.9730   60.6860 C   0  0  0  0  0  0  0  0  0  0  0  0
  131.8690  119.7190   60.5210 C   0  0  0  0  0  0  0  0  0  0  0  0
  132.8060  120.4610   61.2360 C   0  0  0  0  0  0  0  0  0  0  0  0
  132.3950  121.4670   62.1170 C   0  0  0  0  0  0  0  0  0  0  0  0
  133.4610  122.2480   62.8800 C   0  0  0  0  0  0  0  0  0  0  0  0
  130.1430  124.1520   66.4460 C   0  0  0  0  0  0  0  0  0  0  0  0
  129.8810  125.3150   67.1050 N   0  0  0  0  0  0  0  0  0  0  0  0
  129.4000  126.3120   66.4580 C   0  0  0  0  0  0  0  0  0  0  0  0
  128.8760  127.8100   67.1900 S   0  0  0  0  0  0  0  0  0  0  0  0
  128.3760  128.4720   65.6020 C   0  0  0  0  0  0  0  0  0  0  0  0
  127.8200  129.7080   65.3530 C   0  0  0  0  0  0  0  0  0  0  0  0
  127.4990  130.6150   66.4650 C   0  0  0  0  0  0  0  0  0  0  0  0
  127.6700  130.4750   67.6750 O   0  0  0  0  0  0  0  0  0  0  0  0
  126.9280  131.7040   65.9390 N   0  0  0  0  0  0  0  0  0  0  0  0
  126.8520  131.6600   64.5800 C   0  0  0  0  0  0  0  0  0  0  0  0
  126.3320  132.6280   63.7210 C   0  0  0  0  0  0  0  0  0  0  0  0
  126.3770  132.4030   62.3480 C   0  0  0  0  0  0  0  0  0  0  0  0
  126.9450  131.2270   61.8610 C   0  0  0  0  0  0  0  0  0  0  0  0
  127.4590  130.2720   62.7410 C   0  0  0  0  0  0  0  0  0  0  0  0
  127.4020  130.4710   64.1340 C   0  0  0  0  0  0  0  0  0  0  0  0
  128.6460  127.4560   64.5840 C   0  0  0  0  0  0  0  0  0  0  0  0
  128.3850  127.5350   63.3870 O   0  0  0  0  0  0  0  0  0  0  0  0
  129.2250  126.3430   65.1120 N   0  0  0  0  0  0  0  0  0  0  0  0
  132.0660  125.1050   63.6770 O   0  0  0  0  0  0  0  0  0  0  0  0
  1  2  1  0
  2  3  2  0
  3  4  1  0
  4  5  2  0
  6  5  1  1
  6  7  1  0
  7  8  1  0
  8  9  2  0
  8 10  1  0
 10 11  1  0
 11 12  2  0
 12 13  1  0
 13 14  2  0
 14 15  1  0
 15 16  2  0
 16 17  1  0
  7 18  2  0
 18 19  1  0
 19 20  2  0
 20 21  1  0
 21 22  1  0
 22 23  2  0
 23 24  1  0
 24 25  2  0
 24 26  1  0
 26 27  1  0
 27 28  2  0
 28 29  1  0
 29 30  2  0
 30 31  1  0
 31 32  2  0
 22 33  1  0
 33 34  2  0
 33 35  1  0
  5 36  1  0
 36  2  1  0
 35  6  1  0
 16 11  1  0
 35 20  1  0
 32 23  1  0
 32 27  1  0
M  END
>  <Binding energies>  (44) 
[-8.1]

>  <Ligand effiencies>  (44) 
[-0.2131578947368421]

>  <Interactions>  (44) 
["V-A:ARG:545:CZ:4926, V-B:GLU:543:CD:9879, V-A:ASP:366:CG:3212, V-A:LEU:475:CD2:4258, V-A:TYR:484:CZ:4346, V-A:GLU:543:CD:4908, V-A:ILE:369:CD1:3238, V-A:GLU:543:CG:4907, V-B:LEU:475:CD1:9229, V-A:GLY:453:CA:4043, V-A:GLY:454:CA:4048, V-A:HIS:456:CE1:4069, V-B:TYR:539:CD2:9845, V-A:ILE:369:CG2:3236, V-B:TYR:539:CE2:9847, V-B:ALA:541:CB:9863, V-B:GLU:543:CG:9878, V-B:GLU:543:CB:9877, V-B:TYR:484:CE1:9316, H-B:TYR:484:OH:9319, H-A:TYR:484:OH:4347, V-A:TRP:381:CZ2:3369, V-A:TRP:381:CH2:3371, V-B:TYR:484:CZ:9318, V-A:GLY:453:C:4041, V-A:TYR:484:CE1:4344, V-A:TRP:381:CZ3:3370"]

$$$$
RR20_Rahimova_2017
     RDKit          3D

 38 43  0  0  0  0  0  0  0  0999 V2000
  127.1510  133.0240   73.7920 C   0  0  0  0  0  0  0  0  0  0  0  0
  127.8060  131.6950   73.4650 C   0  0  0  0  0  0  0  0  0  0  0  0
  128.3750  131.4910   72.2070 C   0  0  0  0  0  0  0  0  0  0  0  0
  128.9850  130.2760   71.9080 C   0  0  0  0  0  0  0  0  0  0  0  0
  129.0200  129.2500   72.8600 C   0  0  0  0  0  0  0  0  0  0  0  0
  129.7060  127.9450   72.5220 C   0  0  0  0  0  0  0  0  0  0  0  0
  130.6760  127.6150   73.2080 O   0  0  0  0  0  0  0  0  0  0  0  0
  129.2260  127.1830   71.4960 N   0  0  0  0  0  0  0  0  0  0  0  0
  128.3850  125.9990   71.7410 C   0  0  0  0  0  0  0  0  0  0  0  0
  127.9250  125.5120   70.3770 C   0  0  0  0  0  0  0  0  0  0  0  0
  128.2300  126.6760   69.4860 C   0  0  0  0  0  0  0  0  0  0  0  0
  127.9460  126.8440   68.1300 C   0  0  0  0  0  0  0  0  0  0  0  0
  128.4580  127.9390   67.4240 C   0  0  0  0  0  0  0  0  0  0  0  0
  128.1450  128.1250   65.9650 C   0  0  0  0  0  0  0  0  0  0  0  0
  127.0400  128.7770   65.6380 N   0  0  0  0  0  0  0  0  0  0  0  0
  126.8780  128.8970   64.3450 C   0  0  0  0  0  0  0  0  0  0  0  0
  125.8420  129.5230   63.6680 N   0  0  0  0  0  0  0  0  0  0  0  0
  124.7610  130.1310   64.2150 C   0  0  0  0  0  0  0  0  0  0  0  0
  124.5660  130.2270   65.4280 O   0  0  0  0  0  0  0  0  0  0  0  0
  123.7230  130.7650   63.2600 C   0  0  0  0  0  0  0  0  0  0  0  0
  124.1890  132.0290   62.6590 N   0  0  0  0  0  0  0  0  0  0  0  0
  123.3750  133.1810   63.0730 C   0  0  0  0  0  0  0  0  0  0  0  0
  123.7310  134.4190   62.2190 C   0  0  0  0  0  0  0  0  0  0  0  0
  125.2380  134.6280   62.0690 C   0  0  0  0  0  0  0  0  0  0  0  0
  125.7540  135.8280   61.5670 C   0  0  0  0  0  0  0  0  0  0  0  0
  127.1240  136.0040   61.3940 C   0  0  0  0  0  0  0  0  0  0  0  0
  128.0010  134.9760   61.7280 C   0  0  0  0  0  0  0  0  0  0  0  0
  127.5020  133.7800   62.2380 C   0  0  0  0  0  0  0  0  0  0  0  0
  126.1270  133.5890   62.4150 C   0  0  0  0  0  0  0  0  0  0  0  0
  125.5840  132.2990   63.0290 C   0  0  0  0  0  0  0  0  0  0  0  0
  128.1220  128.1740   63.4020 S   0  0  0  0  0  0  0  0  0  0  0  0
  128.9130  127.6650   64.8740 C   0  0  0  0  0  0  0  0  0  0  0  0
  130.1870  126.8510   64.8180 C   0  0  0  0  0  0  0  0  0  0  0  0
  129.3080  128.8310   68.0960 C   0  0  0  0  0  0  0  0  0  0  0  0
  129.6090  128.6560   69.4460 C   0  0  0  0  0  0  0  0  0  0  0  0
  129.0220  127.6040   70.1620 C   0  0  0  0  0  0  0  0  0  0  0  0
  128.4730  129.4720   74.1300 C   0  0  0  0  0  0  0  0  0  0  0  0
  127.8640  130.6880   74.4300 C   0  0  0  0  0  0  0  0  0  0  0  0
  1  2  1  0
  2  3  2  0
  3  4  1  0
  4  5  2  0
  5  6  1  0
  6  7  2  0
  6  8  1  0
  8  9  1  0
  9 10  1  0
 10 11  1  0
 11 12  2  0
 12 13  1  0
 13 14  1  0
 14 15  1  0
 15 16  2  0
 16 17  1  0
 17 18  1  0
 18 19  2  0
 18 20  1  0
 20 21  1  0
 21 22  1  0
 22 23  1  0
 23 24  1  0
 24 25  2  0
 25 26  1  0
 26 27  2  0
 27 28  1  0
 28 29  2  0
 29 30  1  0
 16 31  1  0
 31 32  1  0
 32 33  1  0
 13 34  2  0
 34 35  1  0
 35 36  2  0
  5 37  1  0
 37 38  2  0
 38  2  1  0
 36  8  1  0
 36 11  1  0
 32 14  2  0
 30 21  1  0
 29 24  1  0
M  END
>  <Binding energies>  (45) 
[-10.06]

>  <Ligand effiencies>  (45) 
[-0.257948717948718]

>  <Interactions>  (45) 
["V-B:HIS:456:CE1:9041, V-B:GLU:543:CD:9879, V-A:GLU:543:CD:4908, V-B:GLY:454:CA:9020, V-A:ALA:541:CB:4892, V-B:TRP:381:CZ2:8341, V-B:ILE:369:CD1:8210, V-A:GLU:543:CG:4907, V-B:LEU:475:CD1:9229, V-B:ILE:369:CG2:8208, V-B:TRP:381:CH2:8343, V-A:TYR:539:CD2:4874, V-B:HIS:456:CD2:9039, V-B:HIS:456:CG:9037, V-A:GLU:543:CB:4906, V-B:TYR:484:CD1:9314, V-B:GLU:543:C:9873, V-B:GLU:543:CG:9878, V-B:GLU:543:CB:9877, V-B:TYR:484:CE1:9316, H-B:GLY:454:N:9021, V-A:ALA:541:CA:4890, H-B:TYR:484:OH:9319, H-A:LYS:547:NZ:4951, V-B:ARG:545:CZ:9897, H-B:ASP:366:OD2:8186, V-B:HIS:456:CB:9036, V-B:ASP:473:CG:9211, V-B:TYR:484:CG:9313, V-B:TYR:484:CB:9312, V-B:GLY:453:C:9013, V-B:TYR:484:CD2:9315, V-B:GLY:544:C:9883, V-B:ASP:473:CB:9210"]

$$$$
RR21_Rahimova_2017
     RDKit          3D

 40 45  0  0  0  0  0  0  0  0999 V2000
  123.7450  131.3650   62.7900 C   0  0  0  0  0  0  0  0  0  0  0  0
  124.1350  131.9460   64.0300 O   0  0  0  0  0  0  0  0  0  0  0  0
  125.0180  131.2660   64.8470 C   0  0  0  0  0  0  0  0  0  0  0  0
  124.6500  130.2150   65.7050 C   0  0  0  0  0  0  0  0  0  0  0  0
  125.6050  129.5770   66.4960 C   0  0  0  0  0  0  0  0  0  0  0  0
  126.9480  129.9680   66.4490 C   0  0  0  0  0  0  0  0  0  0  0  0
  127.9730  129.2780   67.2960 C   0  0  0  0  0  0  0  0  0  0  0  0
  128.1920  129.6940   68.5290 N   0  0  0  0  0  0  0  0  0  0  0  0
  129.1460  128.9000   69.0390 N   0  0  0  0  0  0  0  0  0  0  0  0
  129.6100  129.0610   70.3700 C   0  0  0  0  0  0  0  0  0  0  0  0
  128.9800  129.9570   71.2470 C   0  0  0  0  0  0  0  0  0  0  0  0
  129.4420  130.1030   72.5520 C   0  0  0  0  0  0  0  0  0  0  0  0
  130.5340  129.3560   72.9850 C   0  0  0  0  0  0  0  0  0  0  0  0
  131.1710  128.4650   72.1240 C   0  0  0  0  0  0  0  0  0  0  0  0
  130.7110  128.3170   70.8180 C   0  0  0  0  0  0  0  0  0  0  0  0
  129.5210  127.9570   68.1150 C   0  0  0  0  0  0  0  0  0  0  0  0
  128.7910  128.1760   66.9570 C   0  0  0  0  0  0  0  0  0  0  0  0
  128.8090  127.4050   65.7230 C   0  0  0  0  0  0  0  0  0  0  0  0
  129.7050  126.4690   65.3340 C   0  0  0  0  0  0  0  0  0  0  0  0
  131.1430  125.9020   66.2120 S   0  0  0  0  0  0  0  0  0  0  0  0
  131.4830  124.7800   64.9030 C   0  0  0  0  0  0  0  0  0  0  0  0
  132.4560  123.9260   64.8180 N   0  0  0  0  0  0  0  0  0  0  0  0
  132.6110  123.0610   63.7010 C   0  0  0  0  0  0  0  0  0  0  0  0
  133.4910  122.2130   63.5550 O   0  0  0  0  0  0  0  0  0  0  0  0
  131.5610  123.2460   62.6390 C   0  0  0  0  0  0  0  0  0  0  0  0
  131.6370  122.3800   61.3750 C   0  0  0  0  0  0  0  0  0  0  0  0
  130.4580  122.5550   60.4200 C   0  0  0  0  0  0  0  0  0  0  0  0
  129.3960  121.6470   60.4450 C   0  0  0  0  0  0  0  0  0  0  0  0
  128.3140  121.8170   59.5860 C   0  0  0  0  0  0  0  0  0  0  0  0
  128.2890  122.8970   58.7010 C   0  0  0  0  0  0  0  0  0  0  0  0
  127.1010  123.0840   57.7750 C   0  0  0  0  0  0  0  0  0  0  0  0
  129.3440  123.8120   58.6830 C   0  0  0  0  0  0  0  0  0  0  0  0
  130.4260  123.6420   59.5410 C   0  0  0  0  0  0  0  0  0  0  0  0
  130.6000  124.1050   62.7340 N   0  0  0  0  0  0  0  0  0  0  0  0
  130.5600  124.8870   63.8960 N   0  0  0  0  0  0  0  0  0  0  0  0
  129.5620  125.7900   64.0540 C   0  0  0  0  0  0  0  0  0  0  0  0
  128.6610  125.9970   63.2310 O   0  0  0  0  0  0  0  0  0  0  0  0
  127.3130  131.0180   65.6010 C   0  0  0  0  0  0  0  0  0  0  0  0
  126.3600  131.6580   64.8080 C   0  0  0  0  0  0  0  0  0  0  0  0
  126.7460  132.6700   63.9970 F   0  0  0  0  0  0  0  0  0  0  0  0
  1  2  1  0
  2  3  1  0
  3  4  2  0
  4  5  1  0
  5  6  2  0
  6  7  1  0
  7  8  2  0
  8  9  1  0
  9 10  1  0
 10 11  2  0
 11 12  1  0
 12 13  2  0
 13 14  1  0
 14 15  2  0
  9 16  1  0
 16 17  2  0
 17 18  1  0
 18 19  2  0
 19 20  1  0
 20 21  1  0
 21 22  2  0
 22 23  1  0
 23 24  2  0
 23 25  1  0
 25 26  1  0
 26 27  1  0
 27 28  2  0
 28 29  1  0
 29 30  2  0
 30 31  1  0
 30 32  1  0
 32 33  2  0
 25 34  2  0
 34 35  1  0
 35 36  1  0
 36 37  2  0
  6 38  1  0
 38 39  2  0
 39 40  1  0
 39  3  1  0
 17  7  1  0
 36 19  1  0
 15 10  1  0
 35 21  1  0
 33 27  1  0
M  END
>  <Binding energies>  (46) 
[-9.02]

>  <Ligand effiencies>  (46) 
[-0.22549999999999998]

>  <Interactions>  (46) 
["V-B:HIS:456:CE1:9041, V-B:GLU:543:CD:9879, V-A:GLU:543:CD:4908, V-B:GLY:454:CA:9020, V-B:ILE:369:CD1:8210, V-A:GLU:543:CG:4907, V-B:LEU:475:CD1:9229, V-A:GLY:454:CA:4048, V-A:HIS:456:CE1:4069, V-B:TYR:539:CD2:9845, V-A:GLU:543:CB:4906, V-B:TYR:539:CE2:9847, V-A:GLY:544:C:4912, V-B:GLU:543:CG:9878, H-B:GLY:454:N:9021, H-B:TYR:484:OH:9319, V-B:TYR:539:CZ:9848, V-B:PRO:540:C:9852, H-A:TYR:484:OH:4347, V-B:PRO:540:N:9855, V-A:LYS:547:CE:4950, V-B:TYR:539:C:9838, V-B:PRO:540:CA:9854, H-B:HIS:456:ND1:9038, V-B:ARG:545:CZ:9897, H-A:GLY:454:N:4049"]

$$$$
RR23_Rahimova_2017
     RDKit          3D

 39 44  0  0  0  0  0  0  0  0999 V2000
  132.1380  126.0470   66.2930 C   0  0  0  0  0  0  0  0  0  0  0  0
  132.2640  125.0300   65.1730 C   0  0  0  0  0  0  0  0  0  0  0  0
  133.3350  125.1030   64.2810 C   0  0  0  0  0  0  0  0  0  0  0  0
  133.4540  124.1640   63.2590 C   0  0  0  0  0  0  0  0  0  0  0  0
  132.4980  123.1530   63.1150 C   0  0  0  0  0  0  0  0  0  0  0  0
  132.6580  122.1310   62.0110 C   0  0  0  0  0  0  0  0  0  0  0  0
  133.8040  121.7910   61.7090 O   0  0  0  0  0  0  0  0  0  0  0  0
  131.5450  121.6170   61.4080 N   0  0  0  0  0  0  0  0  0  0  0  0
  131.0330  120.2790   61.7470 C   0  0  0  0  0  0  0  0  0  0  0  0
  129.7220  120.1190   60.9950 C   0  0  0  0  0  0  0  0  0  0  0  0
  129.4000  121.5230   60.5830 C   0  0  0  0  0  0  0  0  0  0  0  0
  128.2650  122.0110   59.9350 C   0  0  0  0  0  0  0  0  0  0  0  0
  128.2200  123.3400   59.4870 C   0  0  0  0  0  0  0  0  0  0  0  0
  126.9900  123.9170   58.7700 C   0  0  2  0  0  0  0  0  0  0  0  0
  127.1490  125.3210   58.4580 N   0  0  0  0  0  0  0  0  0  0  0  0
  126.0390  125.9430   58.4920 C   0  0  0  0  0  0  0  0  0  0  0  0
  125.8120  127.2670   58.2810 N   0  0  0  0  0  0  0  0  0  0  0  0
  126.7180  128.2610   58.1220 C   0  0  0  0  0  0  0  0  0  0  0  0
  127.9430  128.1190   58.1030 O   0  0  0  0  0  0  0  0  0  0  0  0
  126.1310  129.6730   57.9600 C   0  0  0  0  0  0  0  0  0  0  0  0
  125.7660  130.2020   59.2940 N   0  0  0  0  0  0  0  0  0  0  0  0
  126.3220  129.5300   60.3750 N   0  0  0  0  0  0  0  0  0  0  0  0
  126.0810  129.8930   61.5940 N   0  0  0  0  0  0  0  0  0  0  0  0
  125.2460  130.9850   61.8410 C   0  0  0  0  0  0  0  0  0  0  0  0
  125.0050  131.3490   63.1680 C   0  0  0  0  0  0  0  0  0  0  0  0
  124.1740  132.4360   63.4460 C   0  0  0  0  0  0  0  0  0  0  0  0
  123.5860  133.1560   62.4050 C   0  0  0  0  0  0  0  0  0  0  0  0
  123.8250  132.7930   61.0780 C   0  0  0  0  0  0  0  0  0  0  0  0
  124.6600  131.7040   60.7980 C   0  0  0  0  0  0  0  0  0  0  0  0
  124.9290  131.2930   59.3690 C   0  0  0  0  0  0  0  0  0  0  0  0
  124.4430  131.8630   58.3880 O   0  0  0  0  0  0  0  0  0  0  0  0
  124.5830  124.9800   58.8800 S   0  0  0  0  0  0  0  0  0  0  0  0
  125.6510  123.6700   59.5020 C   0  0  2  0  0  0  0  0  0  0  0  0
  125.6830  123.7360   61.0440 C   0  0  0  0  0  0  0  0  0  0  0  0
  129.3490  124.1490   59.6590 C   0  0  0  0  0  0  0  0  0  0  0  0
  130.4930  123.6560   60.2880 C   0  0  0  0  0  0  0  0  0  0  0  0
  130.5010  122.3530   60.8040 C   0  0  0  0  0  0  0  0  0  0  0  0
  131.4410  123.0690   64.0310 C   0  0  0  0  0  0  0  0  0  0  0  0
  131.3230  124.0070   65.0520 C   0  0  0  0  0  0  0  0  0  0  0  0
  1  2  1  0
  2  3  2  0
  3  4  1  0
  4  5  2  0
  5  6  1  0
  6  7  2  0
  6  8  1  0
  8  9  1  0
  9 10  1  0
 10 11  1  0
 11 12  2  0
 12 13  1  0
 14 13  1  1
 14 15  1  0
 15 16  2  0
 16 17  1  0
 17 18  1  0
 18 19  2  0
 18 20  1  0
 20 21  1  0
 21 22  1  0
 22 23  2  0
 23 24  1  0
 24 25  2  0
 25 26  1  0
 26 27  2  0
 27 28  1  0
 28 29  2  0
 29 30  1  0
 30 31  2  0
 16 32  1  0
 32 33  1  0
 33 34  1  1
 13 35  2  0
 35 36  1  0
 36 37  2  0
  5 38  1  0
 38 39  2  0
 39  2  1  0
 37  8  1  0
 37 11  1  0
 33 14  1  0
 30 21  1  0
 29 24  1  0
M  END
>  <Binding energies>  (47) 
[-9.56]

>  <Ligand effiencies>  (47) 
[-0.23900000000000002]

>  <Interactions>  (47) 
["V-B:ASP:366:CG:8184, V-A:ARG:545:CZ:4926, V-B:ILE:369:CB:8207, V-A:LEU:475:CD2:4258, V-A:TYR:484:CZ:4346, V-A:GLU:543:CD:4908, V-B:GLY:454:CA:9020, V-B:ILE:369:CD1:8210, V-B:LEU:475:CD1:9229, V-B:ILE:369:CG2:8208, V-A:TYR:539:CE2:4876, V-A:GLY:454:CA:4048, V-A:HIS:456:CE1:4069, V-B:TYR:539:CD2:9845, V-A:ILE:369:CG2:3236, V-B:TYR:539:CE2:9847, V-B:ALA:541:CB:9863, V-B:ASP:366:CB:8183, V-B:PRO:540:C:9852, V-B:PRO:540:N:9855, V-B:TYR:539:C:9838, V-B:PRO:540:CA:9854, H-B:ASP:366:OD2:8186, V-B:PRO:540:CB:9856, H-B:TYR:531:OH:9766, V-B:TYR:531:CZ:9765, H-A:TYR:539:OH:4878"]

$$$$
RR26_Rahimova_2017
     RDKit          3D

 38 44  0  0  0  0  0  0  0  0999 V2000
  127.6690  134.3520   61.8720 C   0  0  0  0  0  0  0  0  0  0  0  0
  126.1700  134.4250   62.1390 C   0  0  0  0  0  0  0  0  0  0  0  0
  125.4510  135.4920   61.5910 C   0  0  0  0  0  0  0  0  0  0  0  0
  124.0730  135.5870   61.7700 C   0  0  0  0  0  0  0  0  0  0  0  0
  123.3980  134.6090   62.4950 C   0  0  0  0  0  0  0  0  0  0  0  0
  124.1040  133.5410   63.0450 C   0  0  0  0  0  0  0  0  0  0  0  0
  125.4930  133.4330   62.8830 C   0  0  0  0  0  0  0  0  0  0  0  0
  126.1780  132.2590   63.5210 C   0  0  0  0  0  0  0  0  0  0  0  0
  126.1490  132.0450   64.8340 N   0  0  0  0  0  0  0  0  0  0  0  0
  126.8400  130.9430   64.9440 C   0  0  0  0  0  0  0  0  0  0  0  0
  127.3380  129.9200   66.2400 S   0  0  0  0  0  0  0  0  0  0  0  0
  128.1600  128.8470   65.0460 C   0  0  0  0  0  0  0  0  0  0  0  0
  128.8580  127.7160   65.2930 C   0  0  0  0  0  0  0  0  0  0  0  0
  129.1130  127.0820   66.5760 C   0  0  0  0  0  0  0  0  0  0  0  0
  128.7210  127.5090   67.8350 C   0  0  0  0  0  0  0  0  0  0  0  0
  129.1460  126.5770   68.7480 N   0  0  0  0  0  0  0  0  0  0  0  0
  128.9700  126.5840   70.1560 C   0  0  0  0  0  0  0  0  0  0  0  0
  128.2830  125.5430   70.7990 C   0  0  0  0  0  0  0  0  0  0  0  0
  128.1140  125.5640   72.1810 C   0  0  0  0  0  0  0  0  0  0  0  0
  128.6330  126.6210   72.9240 C   0  0  0  0  0  0  0  0  0  0  0  0
  129.3190  127.6590   72.2980 C   0  0  0  0  0  0  0  0  0  0  0  0
  129.4880  127.6430   70.9170 C   0  0  0  0  0  0  0  0  0  0  0  0
  129.7660  125.5640   68.1250 N   0  0  0  0  0  0  0  0  0  0  0  0
  129.7590  125.8520   66.8380 C   0  0  0  0  0  0  0  0  0  0  0  0
  130.3910  124.9110   65.8600 C   0  0  0  0  0  0  0  0  0  0  0  0
  129.7270  123.7370   65.4720 C   0  0  0  0  0  0  0  0  0  0  0  0
  130.3100  122.8520   64.5640 C   0  0  0  0  0  0  0  0  0  0  0  0
  131.5670  123.1360   64.0340 C   0  0  0  0  0  0  0  0  0  0  0  0
  132.2330  124.3150   64.3990 C   0  0  0  0  0  0  0  0  0  0  0  0
  131.6510  125.1940   65.3120 C   0  0  0  0  0  0  0  0  0  0  0  0
  133.4990  124.6160   63.9340 O   0  0  0  0  0  0  0  0  0  0  0  0
  133.8750  123.8960   62.7560 C   0  0  0  0  0  0  0  0  0  0  0  0
  133.4940  122.4010   62.8880 C   0  0  0  0  0  0  0  0  0  0  0  0
  132.0860  122.2590   63.1030 O   0  0  0  0  0  0  0  0  0  0  0  0
  128.0200  129.3310   63.6760 C   0  0  0  0  0  0  0  0  0  0  0  0
  128.4580  128.8460   62.6310 O   0  0  0  0  0  0  0  0  0  0  0  0
  127.2610  130.5090   63.7420 N   0  0  0  0  0  0  0  0  0  0  0  0
  126.8310  131.3580   62.8030 N   0  0  0  0  0  0  0  0  0  0  0  0
  1  2  1  0
  2  3  2  0
  3  4  1  0
  4  5  2  0
  5  6  1  0
  6  7  2  0
  7  8  1  0
  8  9  1  0
  9 10  2  0
 10 11  1  0
 11 12  1  0
 12 13  2  0
 13 14  1  0
 14 15  2  0
 15 16  1  0
 16 17  1  0
 17 18  2  0
 18 19  1  0
 19 20  2  0
 20 21  1  0
 21 22  2  0
 16 23  1  0
 23 24  2  0
 24 25  1  0
 25 26  2  0
 26 27  1  0
 27 28  2  0
 28 29  1  0
 29 30  2  0
 29 31  1  0
 31 32  1  0
 32 33  1  0
 33 34  1  0
 12 35  1  0
 35 36  2  0
 35 37  1  0
 37 38  1  0
  7  2  1  0
 38  8  2  0
 37 10  1  0
 24 14  1  0
 30 25  1  0
 22 17  1  0
 34 28  1  0
M  END
>  <Binding energies>  (48) 
[-9.81]

>  <Ligand effiencies>  (48) 
[-0.25815789473684214]

>  <Interactions>  (48) 
["V-B:HIS:456:CE1:9041, V-B:GLU:543:CD:9879, V-A:LEU:475:CD2:4258, V-A:GLU:543:CD:4908, V-A:ILE:369:CD1:3238, V-B:GLY:454:CA:9020, V-A:ALA:541:CB:4892, V-B:TRP:381:CZ2:8341, V-B:ILE:369:CD1:8210, V-A:GLU:543:CG:4907, V-B:LEU:475:CD1:9229, V-B:ILE:369:CG2:8208, V-B:TRP:381:CH2:8343, V-A:TYR:539:CD2:4874, V-A:GLY:454:CA:4048, V-A:HIS:456:CE1:4069, V-B:HIS:456:CD2:9039, V-B:ALA:541:CB:9863, V-B:GLU:543:C:9873, V-B:GLU:543:CG:9878, V-B:GLU:543:CB:9877, V-B:SER:385:C:8376, H-B:TYR:484:OH:9319, H-A:GLY:454:N:4049, V-A:TYR:484:CE1:4344"]

$$$$
RR2_Rahimova_2017
     RDKit          3D

 46 50  0  0  0  0  0  0  0  0999 V2000
  133.1470  124.7090   58.4970 C   0  0  0  0  0  0  0  0  0  0  0  0
  132.2730  125.5470   57.7490 O   0  0  0  0  0  0  0  0  0  0  0  0
  131.0820  125.9580   58.3190 C   0  0  0  0  0  0  0  0  0  0  0  0
  129.8320  125.3880   58.0380 C   0  0  0  0  0  0  0  0  0  0  0  0
  128.6840  125.8720   58.6590 C   0  0  0  0  0  0  0  0  0  0  0  0
  128.7560  126.9360   59.5690 C   0  0  0  0  0  0  0  0  0  0  0  0
  127.4890  127.4490   60.2260 C   0  0  0  0  0  0  0  0  0  0  0  0
  126.7510  126.6750   60.8460 O   0  0  0  0  0  0  0  0  0  0  0  0
  127.2370  128.7700   60.0700 N   0  0  0  0  0  0  0  0  0  0  0  0
  126.0420  129.2730   60.5730 N   0  0  0  0  0  0  0  0  0  0  0  0
  125.5480  130.4050   60.0310 C   0  0  0  0  0  0  0  0  0  0  0  0
  126.1580  131.1340   59.2430 O   0  0  0  0  0  0  0  0  0  0  0  0
  124.1110  130.7600   60.4350 C   0  0  0  0  0  0  0  0  0  0  0  0
  123.9670  131.9930   61.7800 S   0  0  0  0  0  0  0  0  0  0  0  0
  124.4270  131.0100   63.1740 C   0  0  0  0  0  0  0  0  0  0  0  0
  123.5530  130.4200   63.9510 N   0  0  0  0  0  0  0  0  0  0  0  0
  124.2560  129.8020   64.9760 N   0  0  0  0  0  0  0  0  0  0  0  0
  125.5320  130.0160   64.7630 C   0  0  0  0  0  0  0  0  0  0  0  0
  126.6130  129.4900   65.6520 C   0  0  0  0  0  0  0  0  0  0  0  0
  126.6850  129.9110   66.9820 C   0  0  0  0  0  0  0  0  0  0  0  0
  127.6920  129.4320   67.8140 C   0  0  0  0  0  0  0  0  0  0  0  0
  128.6280  128.5120   67.3280 C   0  0  0  0  0  0  0  0  0  0  0  0
  129.6700  128.0040   68.1180 N   0  0  0  0  0  0  0  0  0  0  0  0
  130.0500  128.5520   69.7660 S   0  0  0  0  0  0  0  0  0  0  0  0
  129.0930  129.6230   70.0660 O   0  0  0  0  0  0  0  0  0  0  0  0
  131.4960  128.7910   69.8450 O   0  0  0  0  0  0  0  0  0  0  0  0
  129.6290  127.1720   70.8270 C   0  0  0  0  0  0  0  0  0  0  0  0
  128.6740  126.2330   70.4290 C   0  0  0  0  0  0  0  0  0  0  0  0
  128.3500  125.1770   71.2750 C   0  0  0  0  0  0  0  0  0  0  0  0
  128.9820  125.0550   72.5150 C   0  0  0  0  0  0  0  0  0  0  0  0
  128.6160  123.9110   73.4420 C   0  0  0  0  0  0  0  0  0  0  0  0
  129.9330  125.9980   72.9120 C   0  0  0  0  0  0  0  0  0  0  0  0
  130.2580  127.0550   72.0680 C   0  0  0  0  0  0  0  0  0  0  0  0
  128.5530  128.0900   66.0000 C   0  0  0  0  0  0  0  0  0  0  0  0
  127.5500  128.5730   65.1650 C   0  0  0  0  0  0  0  0  0  0  0  0
  125.7140  130.7880   63.6270 N   0  0  0  0  0  0  0  0  0  0  0  0
  126.9210  131.2740   63.0820 C   0  0  0  0  0  0  0  0  0  0  0  0
  127.9390  130.3840   62.7400 C   0  0  0  0  0  0  0  0  0  0  0  0
  129.1250  130.8700   62.1970 C   0  0  0  0  0  0  0  0  0  0  0  0
  129.3050  132.2390   61.9940 C   0  0  0  0  0  0  0  0  0  0  0  0
  130.5160  132.6260   61.4520 O   0  0  0  0  0  0  0  0  0  0  0  0
  131.6640  131.8090   61.6610 C   0  0  0  0  0  0  0  0  0  0  0  0
  128.2740  133.1280   62.3410 C   0  0  0  0  0  0  0  0  0  0  0  0
  127.0860  132.6470   62.8820 C   0  0  0  0  0  0  0  0  0  0  0  0
  130.0110  127.4970   59.8490 C   0  0  0  0  0  0  0  0  0  0  0  0
  131.1580  127.0110   59.2280 C   0  0  0  0  0  0  0  0  0  0  0  0
  1  2  1  0
  2  3  1  0
  3  4  2  0
  4  5  1  0
  5  6  2  0
  6  7  1  0
  7  8  2  0
  7  9  1  0
  9 10  1  0
 10 11  1  0
 11 12  2  0
 11 13  1  0
 13 14  1  0
 14 15  1  0
 15 16  2  0
 16 17  1  0
 17 18  2  0
 18 19  1  0
 19 20  2  0
 20 21  1  0
 21 22  2  0
 22 23  1  0
 23 24  1  0
 24 25  2  0
 24 26  2  0
 24 27  1  0
 27 28  2  0
 28 29  1  0
 29 30  2  0
 30 31  1  0
 30 32  1  0
 32 33  2  0
 22 34  1  0
 34 35  2  0
 18 36  1  0
 36 37  1  0
 37 38  2  0
 38 39  1  0
 39 40  2  0
 40 41  1  0
 41 42  1  0
 40 43  1  0
 43 44  2  0
  6 45  1  0
 45 46  2  0
 46  3  1  0
 36 15  1  0
 44 37  1  0
 35 19  1  0
 33 27  1  0
M  END
>  <Binding energies>  (49) 
[-9.08]

>  <Ligand effiencies>  (49) 
[-0.1853061224489796]

>  <Interactions>  (49) 
["V-B:ASP:366:CG:8184, V-B:HIS:456:CE1:9041, V-B:GLU:543:CD:9879, V-A:ASP:366:CG:3212, V-A:GLU:543:CD:4908, V-A:ALA:541:CB:4892, V-A:GLU:543:CG:4907, V-A:HIS:456:CE1:4069, V-A:HIS:456:CG:4065, V-A:ILE:369:CG2:3236, V-A:GLU:543:CB:4906, V-A:ILE:369:CB:3235, V-A:ASP:366:CB:3211, V-A:ASP:366:CA:3209, V-A:HIS:456:CD2:4067, V-B:GLU:543:C:9873, H-B:GLY:454:N:9021, V-B:ASP:366:CB:8183, H-B:ARG:545:NH2:9899, V-A:PRO:540:CA:4883, V-B:LYS:547:CE:9921, V-B:TYR:539:CZ:9848, H-B:ARG:545:NE:9895, H-B:ARG:545:NH1:9898, H-B:ASP:366:OD1:8185, H-B:ASP:366:OD2:8186, V-B:TYR:484:CZ:9318, H-A:ALA:541:N:4891, H-A:GLU:543:OE2:4910, V-B:ASP:366:CA:8181, V-A:ASP:366:C:3207, H-B:TYR:539:OH:9849, H-A:TYR:531:OH:4795"]

$$$$
RR33_Rahimova_2017
     RDKit          3D

 18 19  0  0  0  0  0  0  0  0999 V2000
  130.2960  124.6230   74.4930 C   0  0  0  0  0  0  0  0  0  0  0  0
  129.7470  126.0120   74.8300 C   0  0  0  0  0  0  0  0  0  0  0  0
  128.6290  126.2790   73.9880 O   0  0  0  0  0  0  0  0  0  0  0  0
  128.8190  126.3900   72.6240 C   0  0  0  0  0  0  0  0  0  0  0  0
  128.1400  125.4720   71.8250 C   0  0  0  0  0  0  0  0  0  0  0  0
  128.2730  125.5050   70.4390 C   0  0  0  0  0  0  0  0  0  0  0  0
  129.0900  126.4610   69.8310 C   0  0  0  0  0  0  0  0  0  0  0  0
  129.2330  126.4950   68.3430 C   0  0  0  0  0  0  0  0  0  0  0  0
  129.8330  125.6140   67.5740 N   0  0  0  0  0  0  0  0  0  0  0  0
  129.6950  126.0750   66.3400 C   0  0  0  0  0  0  0  0  0  0  0  0
  130.2560  125.3140   65.1580 C   0  0  0  0  0  0  0  0  0  0  0  0
  130.7290  124.0010   65.5710 N   0  0  0  0  0  0  0  0  0  0  0  0
  129.7510  122.9770   65.2400 C   0  0  0  0  0  0  0  0  0  0  0  0
  128.9900  127.2720   66.3660 C   0  0  0  0  0  0  0  0  0  0  0  0
  128.5160  128.2600   65.3280 C   0  0  0  0  0  0  0  0  0  0  0  0
  128.6950  127.5390   67.6590 O   0  0  0  0  0  0  0  0  0  0  0  0
  129.7700  127.3870   70.6280 C   0  0  0  0  0  0  0  0  0  0  0  0
  129.6380  127.3540   72.0150 C   0  0  0  0  0  0  0  0  0  0  0  0
  1  2  1  0
  2  3  1  0
  3  4  1  0
  4  5  2  0
  5  6  1  0
  6  7  2  0
  7  8  1  0
  8  9  2  0
  9 10  1  0
 10 11  1  0
 11 12  1  0
 12 13  1  0
 10 14  2  0
 14 15  1  0
 14 16  1  0
  7 17  1  0
 17 18  2  0
 18  4  1  0
 16  8  1  0
M  END
>  <Binding energies>  (50) 
[-4.61]

>  <Ligand effiencies>  (50) 
[-0.24263157894736845]

>  <Interactions>  (50) 
["V-B:HIS:456:CE1:9041, V-B:GLU:543:CD:9879, V-A:GLU:543:CD:4908, V-A:GLU:543:CG:4907, V-A:HIS:456:CE1:4069, V-B:HIS:456:CD2:9039, V-A:HIS:456:CD2:4067, V-B:ALA:541:CB:9863, V-B:GLU:543:C:9873, V-B:GLU:543:CG:9878, V-B:GLU:543:CB:9877, H-B:LYS:547:NZ:9922, H-A:TYR:484:OH:4347, V-A:TYR:484:CE1:4344, V-B:GLY:544:C:9883"]

$$$$
RR3_Rahimova_2017
     RDKit          3D

 38 44  0  0  0  0  0  0  0  0999 V2000
  131.4960  121.3390   61.6090 C   0  0  0  0  0  0  0  0  0  0  0  0
  130.1740  121.7490   61.7450 C   0  0  0  0  0  0  0  0  0  0  0  0
  129.8390  122.6850   62.7190 C   0  0  0  0  0  0  0  0  0  0  0  0
  130.8180  123.2240   63.5680 C   0  0  0  0  0  0  0  0  0  0  0  0
  130.4560  124.2310   64.6140 C   0  0  0  0  0  0  0  0  0  0  0  0
  130.0920  123.8290   65.9060 C   0  0  0  0  0  0  0  0  0  0  0  0
  129.7520  124.7660   66.8780 C   0  0  0  0  0  0  0  0  0  0  0  0
  129.7620  126.1310   66.5760 C   0  0  0  0  0  0  0  0  0  0  0  0
  129.3920  127.1430   67.6140 C   0  0  0  0  0  0  0  0  0  0  0  0
  129.8940  127.0510   68.8410 N   0  0  0  0  0  0  0  0  0  0  0  0
  129.4390  128.0820   69.5100 C   0  0  0  0  0  0  0  0  0  0  0  0
  129.7400  128.3770   70.9090 C   0  0  0  0  0  0  0  0  0  0  0  0
  130.4820  127.5790   71.7630 C   0  0  0  0  0  0  0  0  0  0  0  0
  130.5730  128.1660   72.9980 N   0  0  0  0  0  0  0  0  0  0  0  0
  129.8950  129.3650   72.9990 C   0  0  0  0  0  0  0  0  0  0  0  0
  129.7090  130.3090   74.0150 C   0  0  0  0  0  0  0  0  0  0  0  0
  128.9590  131.4410   73.6980 C   0  0  0  0  0  0  0  0  0  0  0  0
  128.4160  131.6300   72.4310 C   0  0  0  0  0  0  0  0  0  0  0  0
  128.6020  130.6910   71.4190 C   0  0  0  0  0  0  0  0  0  0  0  0
  129.3510  129.5310   71.6860 C   0  0  0  0  0  0  0  0  0  0  0  0
  128.6280  128.8550   68.7260 N   0  0  0  0  0  0  0  0  0  0  0  0
  128.5540  128.2650   67.4910 C   0  0  0  0  0  0  0  0  0  0  0  0
  127.7050  128.8010   66.3860 C   0  0  0  0  0  0  0  0  0  0  0  0
  126.4140  129.2570   66.6530 C   0  0  0  0  0  0  0  0  0  0  0  0
  125.6150  129.7450   65.6240 C   0  0  0  0  0  0  0  0  0  0  0  0
  126.0880  129.7930   64.3050 C   0  0  0  0  0  0  0  0  0  0  0  0
  125.2200  130.3000   63.1970 C   0  0  0  0  0  0  0  0  0  0  0  0
  123.8790  130.6410   63.4330 C   0  0  0  0  0  0  0  0  0  0  0  0
  123.0710  131.1170   62.4020 C   0  0  0  0  0  0  0  0  0  0  0  0
  123.5980  131.2590   61.1230 C   0  0  0  0  0  0  0  0  0  0  0  0
  124.9250  130.9280   60.8670 C   0  0  0  0  0  0  0  0  0  0  0  0
  125.7290  130.4510   61.8980 C   0  0  0  0  0  0  0  0  0  0  0  0
  127.3930  129.3480   64.0520 C   0  0  0  0  0  0  0  0  0  0  0  0
  128.1950  128.8590   65.0790 C   0  0  0  0  0  0  0  0  0  0  0  0
  130.1360  126.5420   65.2950 C   0  0  0  0  0  0  0  0  0  0  0  0
  130.4750  125.6020   64.3250 C   0  0  0  0  0  0  0  0  0  0  0  0
  132.1440  122.7950   63.4130 C   0  0  0  0  0  0  0  0  0  0  0  0
  132.4840  121.8590   62.4400 C   0  0  0  0  0  0  0  0  0  0  0  0
  1  2  2  0
  2  3  1  0
  3  4  2  0
  4  5  1  0
  5  6  2  0
  6  7  1  0
  7  8  2  0
  8  9  1  0
  9 10  1  0
 10 11  2  0
 11 12  1  0
 12 13  2  0
 13 14  1  0
 14 15  1  0
 15 16  2  0
 16 17  1  0
 17 18  2  0
 18 19  1  0
 19 20  2  0
 11 21  1  0
 21 22  1  0
 22 23  1  0
 23 24  2  0
 24 25  1  0
 25 26  2  0
 26 27  1  0
 27 28  2  0
 28 29  1  0
 29 30  2  0
 30 31  1  0
 31 32  2  0
 26 33  1  0
 33 34  2  0
  8 35  1  0
 35 36  2  0
  4 37  1  0
 37 38  2  0
 38  1  1  0
 36  5  1  0
 22  9  2  0
 34 23  1  0
 20 12  1  0
 32 27  1  0
 20 15  1  0
M  END
>  <Binding energies>  (51) 
[-9.73]

>  <Ligand effiencies>  (51) 
[-0.24325000000000002]

>  <Interactions>  (51) 
["V-B:ASP:366:CG:8184, V-B:HIS:456:CE1:9041, V-B:GLU:543:CD:9879, V-A:LEU:475:CD2:4258, V-A:TYR:484:CZ:4346, V-A:GLU:543:CD:4908, V-B:GLY:454:CA:9020, V-B:ILE:369:CD1:8210, V-A:GLU:543:CG:4907, V-A:HIS:456:CE1:4069, V-A:GLU:543:C:4902, V-B:HIS:456:CG:9037, V-A:GLU:543:CB:4906, V-B:ALA:541:CB:9863, V-B:TYR:484:CD1:9314, V-B:GLU:543:CG:9878, V-B:GLU:543:CB:9877, V-B:TYR:484:CE1:9316, V-B:ASP:366:CB:8183, H-B:TYR:484:OH:9319, V-A:LYS:547:CE:4950, V-B:ARG:545:CZ:9897, H-B:HIS:456:NE2:9042, V-B:TYR:484:CG:9313, V-B:GLY:453:CA:9015, V-B:GLY:453:C:9013, V-B:ASP:366:CA:8181, V-A:TYR:484:CE1:4344"]

$$$$
RR4_Rahimova_2017
     RDKit          3D

 40 44  0  0  0  0  0  0  0  0999 V2000
  130.1810  125.2790   74.6940 C   0  0  0  0  0  0  0  0  0  0  0  0
  129.0240  125.9020   74.1460 O   0  0  0  0  0  0  0  0  0  0  0  0
  128.9580  126.1190   72.7830 C   0  0  0  0  0  0  0  0  0  0  0  0
  129.6570  127.2190   72.2910 C   0  0  0  0  0  0  0  0  0  0  0  0
  129.6480  127.5150   70.9310 C   0  0  0  0  0  0  0  0  0  0  0  0
  128.9360  126.7190   70.0210 C   0  0  0  0  0  0  0  0  0  0  0  0
  128.9270  127.0420   68.5550 C   0  0  0  0  0  0  0  0  0  0  0  0
  129.6370  126.2930   67.6100 C   0  0  0  0  0  0  0  0  0  0  0  0
  129.5940  126.6320   66.2520 C   0  0  0  0  0  0  0  0  0  0  0  0
  130.3540  125.7690   65.2980 C   0  0  0  0  0  0  0  0  0  0  0  0
  131.5380  126.2360   64.7190 C   0  0  0  0  0  0  0  0  0  0  0  0
  132.2590  125.4350   63.8380 C   0  0  0  0  0  0  0  0  0  0  0  0
  131.8140  124.1510   63.5240 C   0  0  0  0  0  0  0  0  0  0  0  0
  132.5940  123.4280   62.6410 O   0  0  0  0  0  0  0  0  0  0  0  0
  133.5300  124.1150   61.8170 C   0  0  0  0  0  0  0  0  0  0  0  0
  130.6300  123.6760   64.1060 C   0  0  0  0  0  0  0  0  0  0  0  0
  129.9110  124.4800   64.9870 C   0  0  0  0  0  0  0  0  0  0  0  0
  128.8390  127.7670   65.8630 C   0  0  0  0  0  0  0  0  0  0  0  0
  128.7600  128.1650   64.4540 C   0  0  0  0  0  0  0  0  0  0  0  0
  128.6970  128.4800   63.3430 N   0  0  0  0  0  0  0  0  0  0  0  0
  128.1710  128.4950   66.8730 C   0  0  0  0  0  0  0  0  0  0  0  0
  127.1910  129.9490   66.5700 S   0  0  0  0  0  0  0  0  0  0  0  0
  125.4720  129.4110   66.2790 C   0  0  0  0  0  0  0  0  0  0  0  0
  124.9430  129.7040   64.8680 C   0  0  0  0  0  0  0  0  0  0  0  0
  123.7530  129.9700   64.6880 O   0  0  0  0  0  0  0  0  0  0  0  0
  125.8730  129.6270   63.8880 N   0  0  0  0  0  0  0  0  0  0  0  0
  125.7090  129.8390   62.5170 C   0  0  0  0  0  0  0  0  0  0  0  0
  126.3880  128.7840   61.3060 S   0  0  0  0  0  0  0  0  0  0  0  0
  125.7350  129.7490   60.0180 C   0  0  0  0  0  0  0  0  0  0  0  0
  125.0190  130.8520   60.5110 C   0  0  0  0  0  0  0  0  0  0  0  0
  124.9930  130.8920   61.9270 C   0  0  0  0  0  0  0  0  0  0  0  0
  124.2990  131.9260   62.6890 C   0  0  0  0  0  0  0  0  0  0  0  0
  123.7500  132.7460   63.2920 N   0  0  0  0  0  0  0  0  0  0  0  0
  124.3130  131.8360   59.5710 C   0  0  0  0  0  0  0  0  0  0  0  0
  124.1690  131.2310   58.1560 C   0  0  0  0  0  0  0  0  0  0  0  0
  125.4740  130.5750   57.6700 C   0  0  0  0  0  0  0  0  0  0  0  0
  125.8800  129.3730   58.5490 C   0  0  0  0  0  0  0  0  0  0  0  0
  128.2040  128.1260   68.1750 N   0  0  0  0  0  0  0  0  0  0  0  0
  128.2380  125.6110   70.5270 C   0  0  0  0  0  0  0  0  0  0  0  0
  128.2440  125.3120   71.8860 C   0  0  0  0  0  0  0  0  0  0  0  0
  1  2  1  0
  2  3  1  0
  3  4  2  0
  4  5  1  0
  5  6  2  0
  6  7  1  0
  7  8  2  0
  8  9  1  0
  9 10  1  0
 10 11  2  0
 11 12  1  0
 12 13  2  0
 13 14  1  0
 14 15  1  0
 13 16  1  0
 16 17  2  0
  9 18  2  0
 18 19  1  0
 19 20  3  0
 18 21  1  0
 21 22  1  0
 22 23  1  0
 23 24  1  0
 24 25  2  0
 24 26  1  0
 26 27  1  0
 27 28  1  0
 28 29  1  0
 29 30  2  0
 30 31  1  0
 31 32  1  0
 32 33  3  0
 30 34  1  0
 34 35  1  0
 35 36  1  0
 36 37  1  0
 21 38  2  0
  6 39  1  0
 39 40  2  0
 40  3  1  0
 38  7  1  0
 17 10  1  0
 31 27  2  0
 37 29  1  0
M  END
>  <Binding energies>  (52) 
[-10.49]

>  <Ligand effiencies>  (52) 
[-0.25585365853658537]

>  <Interactions>  (52) 
["V-B:ASP:366:CG:8184, V-B:HIS:456:CE1:9041, V-A:ARG:545:CZ:4926, V-B:GLU:543:CD:9879, V-A:GLU:543:CD:4908, V-A:ILE:369:CD1:3238, V-A:GLU:543:CG:4907, V-B:ILE:369:CG2:8208, V-A:TYR:539:CE2:4876, V-A:HIS:456:CE1:4069, V-A:ILE:369:CG2:3236, V-A:HIS:456:CD2:4067, V-B:GLU:543:C:9873, V-B:GLU:543:CG:9878, V-B:GLU:543:CB:9877, H-B:GLY:454:N:9021, H-B:GLU:543:OE2:9881, V-B:ASP:366:CB:8183, H-B:ARG:545:NH2:9899, H-B:LYS:547:NZ:9922, H-B:TYR:484:OH:9319, H-B:ARG:545:NE:9895, H-B:ARG:545:NH1:9898, V-B:ARG:545:CZ:9897, V-B:ASP:366:CA:8181, V-B:ASP:366:C:8179"]

$$$$
RR6_Rahimova_2017
     RDKit          3D

 38 41  0  0  0  0  0  0  0  0999 V2000
  125.5290  130.1890   57.2880 C   0  0  0  0  0  0  0  0  0  0  0  0
  125.4460  131.4300   57.9740 O   0  0  0  0  0  0  0  0  0  0  0  0
  124.3970  131.7080   58.7900 C   0  0  0  0  0  0  0  0  0  0  0  0
  123.3560  132.2470   58.4000 O   0  0  0  0  0  0  0  0  0  0  0  0
  124.6280  131.2940   60.2150 C   0  0  0  0  0  0  0  0  0  0  0  0
  123.7270  131.6210   61.2390 C   0  0  0  0  0  0  0  0  0  0  0  0
  123.9730  131.2290   62.5530 C   0  0  0  0  0  0  0  0  0  0  0  0
  125.1330  130.5040   62.8650 C   0  0  0  0  0  0  0  0  0  0  0  0
  125.4930  130.0840   64.1590 N   0  0  0  0  0  0  0  0  0  0  0  0
  124.7040  129.6680   65.1750 C   0  0  0  0  0  0  0  0  0  0  0  0
  123.4770  129.5720   65.1320 O   0  0  0  0  0  0  0  0  0  0  0  0
  125.4270  129.3580   66.4900 C   0  0  0  0  0  0  0  0  0  0  0  0
  127.1380  129.9870   66.5520 S   0  0  0  0  0  0  0  0  0  0  0  0
  128.1840  128.5940   66.9210 C   0  0  0  0  0  0  0  0  0  0  0  0
  128.3900  128.3860   68.2440 N   0  0  0  0  0  0  0  0  0  0  0  0
  129.1470  127.3360   68.6500 C   0  0  0  0  0  0  0  0  0  0  0  0
  129.2750  127.1400   70.1320 C   0  0  0  0  0  0  0  0  0  0  0  0
  130.0650  128.0010   70.9090 C   0  0  0  0  0  0  0  0  0  0  0  0
  130.1940  127.8110   72.2820 C   0  0  0  0  0  0  0  0  0  0  0  0
  129.5300  126.7560   72.9060 C   0  0  0  0  0  0  0  0  0  0  0  0
  129.6810  126.5470   74.4020 C   0  0  0  0  0  0  0  0  0  0  0  0
  128.7390  125.8910   72.1530 C   0  0  0  0  0  0  0  0  0  0  0  0
  128.6130  126.0860   70.7820 C   0  0  0  0  0  0  0  0  0  0  0  0
  129.7300  126.4720   67.7170 C   0  0  0  0  0  0  0  0  0  0  0  0
  129.5360  126.6690   66.3430 C   0  0  0  0  0  0  0  0  0  0  0  0
  130.1720  125.6980   65.4040 C   0  0  0  0  0  0  0  0  0  0  0  0
  131.1630  126.1260   64.5150 C   0  0  0  0  0  0  0  0  0  0  0  0
  131.7730  125.2240   63.6470 C   0  0  0  0  0  0  0  0  0  0  0  0
  131.4100  123.8780   63.6540 C   0  0  0  0  0  0  0  0  0  0  0  0
  132.0690  123.0570   62.7600 O   0  0  0  0  0  0  0  0  0  0  0  0
  133.0290  123.6230   61.8760 C   0  0  0  0  0  0  0  0  0  0  0  0
  130.4200  123.4420   64.5480 C   0  0  0  0  0  0  0  0  0  0  0  0
  129.8120  124.3470   65.4150 C   0  0  0  0  0  0  0  0  0  0  0  0
  128.7440  127.7670   65.9260 C   0  0  0  0  0  0  0  0  0  0  0  0
  128.5240  128.0480   64.5040 C   0  0  0  0  0  0  0  0  0  0  0  0
  128.3490  128.2680   63.3810 N   0  0  0  0  0  0  0  0  0  0  0  0
  126.0230  130.1630   61.8460 C   0  0  0  0  0  0  0  0  0  0  0  0
  125.7760  130.5580   60.5340 C   0  0  0  0  0  0  0  0  0  0  0  0
  1  2  1  0
  2  3  1  0
  3  4  2  0
  3  5  1  0
  5  6  2  0
  6  7  1  0
  7  8  2  0
  8  9  1  0
  9 10  1  0
 10 11  2  0
 10 12  1  0
 12 13  1  0
 13 14  1  0
 14 15  2  0
 15 16  1  0
 16 17  1  0
 17 18  2  0
 18 19  1  0
 19 20  2  0
 20 21  1  0
 20 22  1  0
 22 23  2  0
 16 24  2  0
 24 25  1  0
 25 26  1  0
 26 27  2  0
 27 28  1  0
 28 29  2  0
 29 30  1  0
 30 31  1  0
 29 32  1  0
 32 33  2  0
 25 34  2  0
 34 35  1  0
 35 36  3  0
  8 37  1  0
 37 38  2  0
 38  5  1  0
 34 14  1  0
 23 17  1  0
 33 26  1  0
M  END
>  <Binding energies>  (53) 
[-9.16]

>  <Ligand effiencies>  (53) 
[-0.23487179487179488]

>  <Interactions>  (53) 
["V-B:ASP:366:CG:8184, V-B:HIS:456:CE1:9041, V-B:GLU:543:CD:9879, V-A:GLU:543:CD:4908, V-A:ILE:369:CD1:3238, V-B:ILE:369:CD1:8210, V-A:GLU:543:CG:4907, V-A:TYR:539:CE2:4876, V-A:HIS:456:CE1:4069, V-A:ILE:369:CG2:3236, V-A:HIS:456:CD2:4067, V-B:GLU:543:CG:9878, H-B:GLY:454:N:9021, H-B:ARG:545:NH2:9899, H-B:TYR:484:OH:9319, H-B:ARG:545:NE:9895, H-B:ARG:545:NH1:9898, V-B:ARG:545:CZ:9897, V-A:TYR:539:CZ:4877, V-B:TYR:531:CZ:9765, H-A:TYR:539:OH:4878, H-B:ASN:370:N:8215"]

$$$$
RR7_Rahimova_2017
     RDKit          3D

 47 53  0  0  0  0  0  0  0  0999 V2000
  133.1730  131.2630   58.6700 C   0  0  0  0  0  0  0  0  0  0  0  0
  132.2420  132.2880   58.3380 O   0  0  0  0  0  0  0  0  0  0  0  0
  130.9870  132.2710   58.9160 C   0  0  0  0  0  0  0  0  0  0  0  0
  129.9290  132.7070   58.1210 C   0  0  0  0  0  0  0  0  0  0  0  0
  128.6290  132.7200   58.6160 C   0  0  0  0  0  0  0  0  0  0  0  0
  128.3570  132.3070   59.9290 C   0  0  0  0  0  0  0  0  0  0  0  0
  126.9040  132.2800   60.4990 C   0  0  0  0  0  0  0  0  0  0  0  0
  126.9180  131.3470   61.6030 O   0  0  0  0  0  0  0  0  0  0  0  0
  126.5350  129.9840   61.3950 C   0  0  0  0  0  0  0  0  0  0  0  0
  125.2250  129.7110   62.1510 C   0  0  1  0  0  0  0  0  0  0  0  0
  125.5600  128.9110   63.2820 O   0  0  0  0  0  0  0  0  0  0  0  0
  125.1950  129.5250   64.4840 C   0  0  1  0  0  0  0  0  0  0  0  0
  126.1390  129.1790   65.5290 N   0  0  0  0  0  0  0  0  0  0  0  0
  126.1090  129.5500   66.8620 C   0  0  0  0  0  0  0  0  0  0  0  0
  127.1200  129.1320   67.5830 N   0  0  0  0  0  0  0  0  0  0  0  0
  127.9130  128.4740   66.6830 C   0  0  0  0  0  0  0  0  0  0  0  0
  129.1490  127.8120   66.8230 C   0  0  0  0  0  0  0  0  0  0  0  0
  129.7460  127.7590   68.0960 N   0  0  0  0  0  0  0  0  0  0  0  0
  129.2380  127.2800   69.2570 C   0  0  0  0  0  0  0  0  0  0  0  0
  128.1040  126.8100   69.3760 O   0  0  0  0  0  0  0  0  0  0  0  0
  130.1490  127.3800   70.4620 C   0  0  0  0  0  0  0  0  0  0  0  0
  131.3400  128.1160   70.3720 C   0  0  0  0  0  0  0  0  0  0  0  0
  132.1900  128.2250   71.4690 C   0  0  0  0  0  0  0  0  0  0  0  0
  131.8540  127.6030   72.6670 C   0  0  0  0  0  0  0  0  0  0  0  0
  130.6740  126.8720   72.7780 C   0  0  0  0  0  0  0  0  0  0  0  0
  129.8240  126.7610   71.6800 C   0  0  0  0  0  0  0  0  0  0  0  0
  129.7320  127.2470   65.7230 N   0  0  0  0  0  0  0  0  0  0  0  0
  129.0810  127.3550   64.5350 C   0  0  0  0  0  0  0  0  0  0  0  0
  127.8910  127.9650   64.2890 N   0  0  0  0  0  0  0  0  0  0  0  0
  127.3400  128.5030   65.3860 C   0  0  0  0  0  0  0  0  0  0  0  0
  125.1070  131.0130   64.1640 C   0  0  0  0  0  0  0  0  0  0  0  0
  124.5510  130.9530   62.7520 C   0  0  2  0  0  0  0  0  0  0  0  0
  123.1370  130.8610   62.7400 O   0  0  0  0  0  0  0  0  0  0  0  0
  126.4700  133.6550   61.0730 C   0  0  0  0  0  0  0  0  0  0  0  0
  127.1990  134.8140   60.7630 C   0  0  0  0  0  0  0  0  0  0  0  0
  126.8270  136.0490   61.2830 C   0  0  0  0  0  0  0  0  0  0  0  0
  125.7200  136.1390   62.1220 C   0  0  0  0  0  0  0  0  0  0  0  0
  124.9840  135.0030   62.4430 C   0  0  0  0  0  0  0  0  0  0  0  0
  125.3570  133.7670   61.9230 C   0  0  0  0  0  0  0  0  0  0  0  0
  125.7890  131.8760   59.4930 C   0  0  0  0  0  0  0  0  0  0  0  0
  126.1000  131.1100   58.3580 C   0  0  0  0  0  0  0  0  0  0  0  0
  125.1110  130.7520   57.4470 C   0  0  0  0  0  0  0  0  0  0  0  0
  123.7990  131.1660   57.6570 C   0  0  0  0  0  0  0  0  0  0  0  0
  123.4710  131.9380   58.7670 C   0  0  0  0  0  0  0  0  0  0  0  0
  124.4610  132.2940   59.6770 C   0  0  0  0  0  0  0  0  0  0  0  0
  129.4230  131.8560   60.7190 C   0  0  0  0  0  0  0  0  0  0  0  0
  130.7240  131.8410   60.2240 C   0  0  0  0  0  0  0  0  0  0  0  0
  1  2  1  0
  2  3  1  0
  3  4  2  0
  4  5  1  0
  5  6  2  0
  6  7  1  0
  7  8  1  0
  8  9  1  0
 10  9  1  1
 10 11  1  0
 11 12  1  0
 12 13  1  1
 13 14  1  0
 14 15  2  0
 15 16  1  0
 16 17  2  0
 17 18  1  0
 18 19  1  0
 19 20  2  0
 19 21  1  0
 21 22  2  0
 22 23  1  0
 23 24  2  0
 24 25  1  0
 25 26  2  0
 17 27  1  0
 27 28  2  0
 28 29  1  0
 29 30  2  0
 12 31  1  0
 31 32  1  0
 32 33  1  1
  7 34  1  0
 34 35  2  0
 35 36  1  0
 36 37  2  0
 37 38  1  0
 38 39  2  0
  7 40  1  0
 40 41  2  0
 41 42  1  0
 42 43  2  0
 43 44  1  0
 44 45  2  0
  6 46  1  0
 46 47  2  0
 47  3  1  0
 32 10  1  0
 39 34  1  0
 45 40  1  0
 30 13  1  0
 30 16  1  0
 26 21  1  0
M  END
>  <Binding energies>  (54) 
[-10.12]

>  <Ligand effiencies>  (54) 
[-0.20653061224489794]

>  <Interactions>  (54) 
["V-B:ASP:366:CG:8184, V-B:HIS:456:CE1:9041, V-B:GLU:543:CD:9879, V-B:ILE:369:CB:8207, V-A:ASP:366:CG:3212, V-A:GLU:543:CD:4908, V-B:TRP:381:CZ2:8341, V-A:GLU:543:CG:4907, V-B:LEU:475:CD1:9229, V-B:ILE:369:CG2:8208, V-B:TRP:381:CH2:8343, V-A:TYR:539:CE2:4876, V-A:TYR:539:CD2:4874, V-A:HIS:456:CE1:4069, V-A:HIS:456:CG:4065, V-A:GLU:543:CB:4906, V-A:ASP:366:CB:3211, V-A:GLY:544:C:4912, V-A:HIS:456:CD2:4067, V-A:ARG:545:CA:4919, H-B:GLY:454:N:9021, V-B:ASP:366:CB:8183, H-B:ARG:545:NH2:9899, V-A:PRO:540:CB:4885, V-A:PRO:540:CA:4883, H-B:TYR:484:OH:9319, V-B:ARG:545:CZ:9897, H-B:ASP:366:OD1:8185, H-B:ASP:366:OD2:8186, V-A:TYR:539:C:4867, H-A:GLU:543:OE2:4910, V-B:ASP:366:CA:8181, V-A:LEU:363:CA:3184, V-A:PRO:540:N:4884, V-A:LEU:363:CD1:3188, V-A:TYR:539:CZ:4877, V-B:ASP:366:C:8179, V-B:ASN:370:CB:8216"]

$$$$
RR8_A_Rahimova_2017
     RDKit          3D

 42 46  0  0  0  0  0  0  0  0999 V2000
  129.6170  128.9720   62.2040 O   0  0  0  0  0  0  0  0  0  0  0  0
  129.2920  128.2960   63.1870 C   0  0  0  0  0  0  0  0  0  0  0  0
  129.9570  127.1760   63.6090 O   0  0  0  0  0  0  0  0  0  0  0  0
  129.2340  125.9780   63.6710 C   0  0  1  0  0  0  0  0  0  0  0  0
  129.0900  125.3970   62.4070 O   0  0  0  0  0  0  0  0  0  0  0  0
  129.1960  123.9770   62.4620 C   0  0  2  0  0  0  0  0  0  0  0  0
  127.9280  123.3660   61.8410 C   0  0  0  0  0  0  0  0  0  0  0  0
  126.9130  124.3600   61.8000 O   0  0  0  0  0  0  0  0  0  0  0  0
  125.6170  123.8520   61.5150 C   0  0  0  0  0  0  0  0  0  0  0  0
  125.3700  123.8800   60.0140 C   0  0  0  0  0  0  0  0  0  0  0  0
  124.1610  124.3730   59.5150 C   0  0  0  0  0  0  0  0  0  0  0  0
  123.9360  124.4050   58.1410 C   0  0  0  0  0  0  0  0  0  0  0  0
  124.9210  123.9490   57.2680 C   0  0  0  0  0  0  0  0  0  0  0  0
  126.1320  123.4610   57.7570 C   0  0  0  0  0  0  0  0  0  0  0  0
  126.3580  123.4300   59.1300 C   0  0  0  0  0  0  0  0  0  0  0  0
  129.4080  123.6840   63.9530 C   0  0  1  0  0  0  0  0  0  0  0  0
  130.3370  122.6280   64.1910 O   0  0  0  0  0  0  0  0  0  0  0  0
  131.5020  122.6370   63.3730 C   0  0  0  0  0  0  0  0  0  0  0  0
  131.4080  121.5370   62.3250 C   0  0  0  0  0  0  0  0  0  0  0  0
  132.5270  121.2230   61.5470 C   0  0  0  0  0  0  0  0  0  0  0  0
  132.4460  120.2250   60.5800 C   0  0  0  0  0  0  0  0  0  0  0  0
  131.2440  119.5450   60.3890 C   0  0  0  0  0  0  0  0  0  0  0  0
  130.1230  119.8560   61.1540 C   0  0  0  0  0  0  0  0  0  0  0  0
  130.2040  120.8550   62.1210 C   0  0  0  0  0  0  0  0  0  0  0  0
  130.0350  124.9630   64.4750 C   0  0  2  0  0  0  0  0  0  0  0  0
  129.8490  125.0750   65.8840 O   0  0  0  0  0  0  0  0  0  0  0  0
  130.4600  126.2040   66.4990 C   0  0  0  0  0  0  0  0  0  0  0  0
  129.8390  126.4480   67.8660 C   0  0  0  0  0  0  0  0  0  0  0  0
  130.0620  127.6570   68.5350 C   0  0  0  0  0  0  0  0  0  0  0  0
  129.4840  127.8790   69.7820 C   0  0  0  0  0  0  0  0  0  0  0  0
  128.6810  126.8960   70.3560 C   0  0  0  0  0  0  0  0  0  0  0  0
  128.4500  125.6920   69.6940 C   0  0  0  0  0  0  0  0  0  0  0  0
  129.0280  125.4680   68.4460 C   0  0  0  0  0  0  0  0  0  0  0  0
  128.1170  128.6340   64.0570 C   0  0  0  0  0  0  0  0  0  0  0  0
  128.2120  128.6550   65.4580 C   0  0  0  0  0  0  0  0  0  0  0  0
  127.1040  128.9710   66.2380 C   0  0  0  0  0  0  0  0  0  0  0  0
  125.8720  129.2720   65.6410 C   0  0  0  0  0  0  0  0  0  0  0  0
  124.6920  129.6100   66.4730 N   0  0  0  0  0  0  0  0  0  0  0  0
  124.7940  129.5380   67.6950 O   0  0  0  0  0  0  0  0  0  0  0  0
  123.6550  129.9500   65.9120 O   0  0  0  0  0  0  0  0  0  0  0  0
  125.7770  129.2480   64.2440 C   0  0  0  0  0  0  0  0  0  0  0  0
  126.8840  128.9320   63.4620 C   0  0  0  0  0  0  0  0  0  0  0  0
  1  2  2  0
  2  3  1  0
  4  3  1  6
  4  5  1  0
  5  6  1  0
  6  7  1  1
  7  8  1  0
  8  9  1  0
  9 10  1  0
 10 11  2  0
 11 12  1  0
 12 13  2  0
 13 14  1  0
 14 15  2  0
  6 16  1  0
 16 17  1  6
 17 18  1  0
 18 19  1  0
 19 20  2  0
 20 21  1  0
 21 22  2  0
 22 23  1  0
 23 24  2  0
 16 25  1  0
 25 26  1  1
 26 27  1  0
 27 28  1  0
 28 29  2  0
 29 30  1  0
 30 31  2  0
 31 32  1  0
 32 33  2  0
  2 34  1  0
 34 35  2  0
 35 36  1  0
 36 37  2  0
 37 38  1  0
 38 39  2  0
 38 40  1  0
 37 41  1  0
 41 42  2  0
 25  4  1  0
 33 28  1  0
 42 34  1  0
 15 10  1  0
 24 19  1  0
M  CHG  2  38   1  40  -1
M  END
>  <Binding energies>  (55) 
[-9.22]

>  <Ligand effiencies>  (55) 
[-0.21952380952380954]

>  <Interactions>  (55) 
["V-B:ASP:366:CG:8184, V-B:HIS:456:CE1:9041, V-B:GLU:543:CD:9879, V-A:LEU:475:CD2:4258, V-A:GLU:543:CD:4908, V-A:GLU:543:CG:4907, V-A:HIS:456:CE1:4069, V-B:TYR:539:CD2:9845, V-A:ILE:369:CG2:3236, V-A:GLU:543:CB:4906, V-B:TYR:539:CE2:9847, V-B:ALA:541:CB:9863, V-B:GLU:543:C:9873, V-B:GLU:543:CG:9878, V-B:GLU:543:CB:9877, H-B:GLY:454:N:9021, H-B:TYR:484:OH:9319, V-B:PRO:540:N:9855, V-A:TRP:381:CZ2:3369, V-B:PRO:540:CA:9854, V-A:TRP:381:CH2:3371, H-B:ARG:545:NE:9895, H-B:HIS:456:ND1:9038, V-B:ARG:545:CZ:9897, V-B:ARG:545:CG:9893, V-B:PRO:540:CB:9856, V-B:LEU:363:CA:8156, V-B:ARG:545:CD:9894, V-B:LEU:363:CD1:8160, V-B:GLU:543:CA:9875, V-A:PRO:482:CB:4325, V-A:PRO:482:CG:4326, V-B:ASN:362:C:8143, V-B:TYR:531:CE2:9764, V-B:LEU:363:CB:8158, V-A:TRP:381:CZ3:3370"]

$$$$
RR8_B_Rahimova_2017
     RDKit          3D

 42 46  0  0  0  0  0  0  0  0999 V2000
  129.3050  125.5650   67.2860 O   0  0  0  0  0  0  0  0  0  0  0  0
  128.7400  126.4350   67.9550 C   0  0  0  0  0  0  0  0  0  0  0  0
  127.8730  127.3610   67.4440 O   0  0  0  0  0  0  0  0  0  0  0  0
  128.4080  128.5440   66.9030 C   0  0  2  0  0  0  0  0  0  0  0  0
  127.5100  129.6140   66.9980 O   0  0  0  0  0  0  0  0  0  0  0  0
  126.6980  129.7180   65.8290 C   0  0  2  0  0  0  0  0  0  0  0  0
  125.2140  129.6160   66.2240 C   0  0  0  0  0  0  0  0  0  0  0  0
  124.4450  130.4620   65.3770 O   0  0  0  0  0  0  0  0  0  0  0  0
  124.3080  130.0030   64.0400 C   0  0  0  0  0  0  0  0  0  0  0  0
  124.2190  131.2010   63.1070 C   0  0  0  0  0  0  0  0  0  0  0  0
  124.2210  131.0040   61.7230 C   0  0  0  0  0  0  0  0  0  0  0  0
  124.1640  132.0970   60.8620 C   0  0  0  0  0  0  0  0  0  0  0  0
  124.1020  133.3860   61.3900 C   0  0  0  0  0  0  0  0  0  0  0  0
  124.0930  133.5900   62.7680 C   0  0  0  0  0  0  0  0  0  0  0  0
  124.1530  132.4960   63.6280 C   0  0  0  0  0  0  0  0  0  0  0  0
  127.2130  128.6060   64.9080 C   0  0  1  0  0  0  0  0  0  0  0  0
  127.1530  129.0370   63.5460 O   0  0  0  0  0  0  0  0  0  0  0  0
  128.3050  129.7030   63.0230 C   0  0  0  0  0  0  0  0  0  0  0  0
  128.0320  131.1710   62.7100 C   0  0  0  0  0  0  0  0  0  0  0  0
  127.6920  132.0550   63.7370 C   0  0  0  0  0  0  0  0  0  0  0  0
  127.4740  133.4010   63.4530 C   0  0  0  0  0  0  0  0  0  0  0  0
  127.5930  133.8560   62.1420 C   0  0  0  0  0  0  0  0  0  0  0  0
  127.9270  132.9800   61.1120 C   0  0  0  0  0  0  0  0  0  0  0  0
  128.1480  131.6340   61.3960 C   0  0  0  0  0  0  0  0  0  0  0  0
  128.6350  128.3620   65.4030 C   0  0  2  0  0  0  0  0  0  0  0  0
  129.0690  127.0530   65.0420 O   0  0  0  0  0  0  0  0  0  0  0  0
  129.9640  126.9850   63.9420 C   0  0  0  0  0  0  0  0  0  0  0  0
  131.2430  126.3150   64.4110 C   0  0  0  0  0  0  0  0  0  0  0  0
  131.5190  126.1980   65.7760 C   0  0  0  0  0  0  0  0  0  0  0  0
  132.7050  125.5990   66.1940 C   0  0  0  0  0  0  0  0  0  0  0  0
  133.6090  125.1210   65.2490 C   0  0  0  0  0  0  0  0  0  0  0  0
  133.3390  125.2340   63.8860 C   0  0  0  0  0  0  0  0  0  0  0  0
  132.1540  125.8310   63.4670 C   0  0  0  0  0  0  0  0  0  0  0  0
  128.9640  126.6120   69.4290 C   0  0  0  0  0  0  0  0  0  0  0  0
  129.7640  127.6470   69.9360 C   0  0  0  0  0  0  0  0  0  0  0  0
  129.9610  127.7810   71.3060 C   0  0  0  0  0  0  0  0  0  0  0  0
  129.3730  126.8820   72.2030 C   0  0  0  0  0  0  0  0  0  0  0  0
  129.6060  127.0110   73.6630 N   0  0  0  0  0  0  0  0  0  0  0  0
  129.0110  126.2520   74.4240 O   0  0  0  0  0  0  0  0  0  0  0  0
  130.3890  127.8710   74.0600 O   0  0  0  0  0  0  0  0  0  0  0  0
  128.5680  125.8520   71.6970 C   0  0  0  0  0  0  0  0  0  0  0  0
  128.3650  125.7210   70.3270 C   0  0  0  0  0  0  0  0  0  0  0  0
  1  2  2  0
  2  3  1  0
  4  3  1  6
  4  5  1  0
  5  6  1  0
  6  7  1  1
  7  8  1  0
  8  9  1  0
  9 10  1  0
 10 11  2  0
 11 12  1  0
 12 13  2  0
 13 14  1  0
 14 15  2  0
  6 16  1  0
 16 17  1  6
 17 18  1  0
 18 19  1  0
 19 20  2  0
 20 21  1  0
 21 22  2  0
 22 23  1  0
 23 24  2  0
 16 25  1  0
 25 26  1  1
 26 27  1  0
 27 28  1  0
 28 29  2  0
 29 30  1  0
 30 31  2  0
 31 32  1  0
 32 33  2  0
  2 34  1  0
 34 35  2  0
 35 36  1  0
 36 37  2  0
 37 38  1  0
 38 39  2  0
 38 40  1  0
 37 41  1  0
 41 42  2  0
 25  4  1  0
 33 28  1  0
 42 34  1  0
 15 10  1  0
 24 19  1  0
M  CHG  2  38   1  40  -1
M  END
>  <Binding energies>  (56) 
[-9.02]

>  <Ligand effiencies>  (56) 
[-0.21476190476190476]

>  <Interactions>  (56) 
["V-B:ASP:366:CG:8184, V-B:HIS:456:CE1:9041, V-A:ARG:545:CZ:4926, V-B:GLU:543:CD:9879, V-A:GLU:543:CD:4908, V-B:GLY:454:CA:9020, V-A:ALA:541:CB:4892, V-B:ILE:369:CD1:8210, V-A:GLU:543:CG:4907, V-B:LEU:475:CD1:9229, V-B:ILE:369:CG2:8208, V-A:GLY:454:CA:4048, V-A:HIS:456:CE1:4069, V-B:GLU:543:C:9873, V-B:GLU:543:CG:9878, V-B:GLU:543:CB:9877, H-B:GLY:454:N:9021, H-B:LYS:547:NZ:9922, H-B:TYR:484:OH:9319, H-A:LYS:547:NZ:4951, V-B:ARG:545:CZ:9897, V-A:ARG:545:CD:4923"]

$$$$
RR9_Rahimova_2017
     RDKit          3D

 36 40  0  0  0  0  0  0  0  0999 V2000
  128.7400  131.0630   72.6890 C   0  0  0  0  0  0  0  0  0  0  0  0
  128.6560  130.3820   71.3190 C   0  0  0  0  0  0  0  0  0  0  0  0
  128.9800  129.0030   71.4730 O   0  0  0  0  0  0  0  0  0  0  0  0
  129.5190  128.3100   70.4060 C   0  0  0  0  0  0  0  0  0  0  0  0
  128.6650  127.4410   69.7310 C   0  0  0  0  0  0  0  0  0  0  0  0
  129.1210  126.6990   68.6460 C   0  0  0  0  0  0  0  0  0  0  0  0
  130.4480  126.8060   68.2040 C   0  0  0  0  0  0  0  0  0  0  0  0
  130.9460  126.0050   67.0380 C   0  0  0  0  0  0  0  0  0  0  0  0
  130.1340  125.0570   66.3950 C   0  0  0  0  0  0  0  0  0  0  0  0
  130.6020  124.3180   65.2940 C   0  0  0  0  0  0  0  0  0  0  0  0
  129.6510  123.3920   64.5860 C   0  0  0  0  0  0  0  0  0  0  0  0
  129.7480  122.1730   64.7270 O   0  0  0  0  0  0  0  0  0  0  0  0
  128.7350  123.9860   63.7950 N   0  0  0  0  0  0  0  0  0  0  0  0
  127.7910  123.2990   62.9070 C   0  0  0  0  0  0  0  0  0  0  0  0
  127.9110  123.7480   61.4320 C   0  0  0  0  0  0  0  0  0  0  0  0
  126.5820  123.8720   60.6950 C   0  0  0  0  0  0  0  0  0  0  0  0
  126.5550  123.8910   59.2960 C   0  0  0  0  0  0  0  0  0  0  0  0
  125.3370  123.9700   58.6260 C   0  0  0  0  0  0  0  0  0  0  0  0
  124.1520  124.0360   59.3550 C   0  0  0  0  0  0  0  0  0  0  0  0
  124.1720  124.0220   60.7480 C   0  0  0  0  0  0  0  0  0  0  0  0
  125.3900  123.9420   61.4190 C   0  0  0  0  0  0  0  0  0  0  0  0
  131.9400  124.5610   64.8980 C   0  0  0  0  0  0  0  0  0  0  0  0
  132.8870  124.0860   63.9170 C   0  0  0  0  0  0  0  0  0  0  0  0
  132.7460  122.9830   62.9200 C   0  0  0  0  0  0  0  0  0  0  0  0
  133.7410  122.0080   62.8050 C   0  0  0  0  0  0  0  0  0  0  0  0
  133.6160  120.9890   61.8630 C   0  0  0  0  0  0  0  0  0  0  0  0
  132.4930  120.9400   61.0360 C   0  0  0  0  0  0  0  0  0  0  0  0
  132.3640  119.8410   59.9970 C   0  0  0  0  0  0  0  0  0  0  0  0
  131.4980  121.9130   61.1470 C   0  0  0  0  0  0  0  0  0  0  0  0
  131.6240  122.9290   62.0900 C   0  0  0  0  0  0  0  0  0  0  0  0
  134.0120  124.7590   63.9970 N   0  0  0  0  0  0  0  0  0  0  0  0
  133.9030  125.6270   65.0160 N   0  0  0  0  0  0  0  0  0  0  0  0
  132.6660  125.5440   65.6120 C   0  0  0  0  0  0  0  0  0  0  0  0
  132.2280  126.2560   66.6490 N   0  0  0  0  0  0  0  0  0  0  0  0
  131.3020  127.6810   68.8900 C   0  0  0  0  0  0  0  0  0  0  0  0
  130.8480  128.4260   69.9760 C   0  0  0  0  0  0  0  0  0  0  0  0
  1  2  1  0
  2  3  1  0
  3  4  1  0
  4  5  2  0
  5  6  1  0
  6  7  2  0
  7  8  1  0
  8  9  2  0
  9 10  1  0
 10 11  1  0
 11 12  2  0
 11 13  1  0
 13 14  1  0
 14 15  1  0
 15 16  1  0
 16 17  2  0
 17 18  1  0
 18 19  2  0
 19 20  1  0
 20 21  2  0
 10 22  2  0
 22 23  1  0
 23 24  1  0
 24 25  2  0
 25 26  1  0
 26 27  2  0
 27 28  1  0
 27 29  1  0
 29 30  2  0
 23 31  2  0
 31 32  1  0
 32 33  1  0
 33 34  2  0
  7 35  1  0
 35 36  2  0
 36  4  1  0
 34  8  1  0
 21 16  1  0
 33 22  1  0
 30 24  1  0
M  END
>  <Binding energies>  (57) 
[-9.22]

>  <Ligand effiencies>  (57) 
[-0.24263157894736845]

>  <Interactions>  (57) 
["V-B:HIS:456:CE1:9041, V-A:ARG:545:CZ:4926, V-B:GLU:543:CD:9879, V-A:LEU:475:CD2:4258, V-A:GLU:543:CD:4908, V-A:ILE:369:CD1:3238, V-A:GLY:453:CA:4043, V-A:GLY:454:CA:4048, V-A:HIS:456:CE1:4069, V-B:TYR:539:CD2:9845, V-B:HIS:456:CD2:9039, V-A:ILE:369:CG2:3236, V-B:HIS:456:CG:9037, V-A:GLU:543:CB:4906, V-B:TYR:539:CE2:9847, V-B:ALA:541:CB:9863, V-A:ARG:545:CG:4922, V-B:GLU:543:CG:9878, V-B:TYR:484:CE1:9316, H-B:GLU:543:OE2:9881, H-A:TYR:484:OH:4347, V-B:ALA:541:CA:9861, V-A:TRP:381:CZ2:3369, V-B:PRO:540:CA:9854, V-A:TRP:381:CH2:3371, H-A:ARG:545:NE:4924, H-A:GLY:454:N:4049, V-B:PRO:540:CB:9856, V-A:ARG:545:CD:4923, V-B:LEU:363:CA:8156, V-B:ASN:362:CB:8147, V-B:ASN:362:C:8143, V-A:TRP:381:CZ3:3370"]

$$$$
