1a_Grossjean_2025
     RDKit          3D

 26 27  0  0  0  0  0  0  0  0999 V2000
  124.1690  124.3840   58.8400 C   0  0  0  0  0  0  0  0  0  0  0  0
  124.8320  124.2280   57.4680 C   0  0  0  0  0  0  0  0  0  0  0  0
  125.1450  122.8590   57.2460 O   0  0  0  0  0  0  0  0  0  0  0  0
  126.3530  122.4880   56.7480 C   0  0  0  0  0  0  0  0  0  0  0  0
  126.4860  121.7880   55.7400 O   0  0  0  0  0  0  0  0  0  0  0  0
  127.5110  123.0000   57.5560 C   0  0  0  0  0  0  0  0  0  0  0  0
  127.8820  122.3220   58.7240 C   0  0  0  0  0  0  0  0  0  0  0  0
  128.9480  122.7750   59.4970 C   0  0  0  0  0  0  0  0  0  0  0  0
  129.6620  123.9130   59.1200 C   0  0  0  0  0  0  0  0  0  0  0  0
  130.7180  124.2820   59.9770 N   0  0  0  0  0  0  0  0  0  0  0  0
  132.0210  124.5040   59.7020 C   0  0  0  0  0  0  0  0  0  0  0  0
  132.5420  124.4210   58.5900 O   0  0  0  0  0  0  0  0  0  0  0  0
  132.8870  124.8910   60.9030 C   0  0  0  0  0  0  0  0  0  0  0  0
  132.8670  123.6180   62.2010 S   0  0  0  0  0  0  0  0  0  0  0  0
  132.5390  124.4360   63.7460 C   0  0  0  0  0  0  0  0  0  0  0  0
  133.6220  124.5260   64.5580 N   0  0  0  0  0  0  0  0  0  0  0  0
  133.4830  125.1270   65.7630 C   0  0  0  0  0  0  0  0  0  0  0  0
  134.7340  125.1790   66.6220 C   0  0  0  0  0  0  0  0  0  0  0  0
  132.2760  125.6660   66.2010 C   0  0  0  0  0  0  0  0  0  0  0  0
  131.1580  125.5970   65.3620 C   0  0  0  0  0  0  0  0  0  0  0  0
  129.8480  126.2090   65.8560 C   0  0  0  0  0  0  0  0  0  0  0  0
  131.2800  124.9780   64.0970 C   0  0  0  0  0  0  0  0  0  0  0  0
  130.1350  124.9370   63.1820 C   0  0  0  0  0  0  0  0  0  0  0  0
  129.2310  124.9060   62.4620 N   0  0  0  0  0  0  0  0  0  0  0  0
  129.3020  124.5930   57.9470 C   0  0  0  0  0  0  0  0  0  0  0  0
  128.2360  124.1400   57.1760 C   0  0  0  0  0  0  0  0  0  0  0  0
  1  2  1  0
  2  3  1  0
  3  4  1  0
  4  5  2  0
  4  6  1  0
  6  7  2  0
  7  8  1  0
  8  9  2  0
  9 10  1  0
 10 11  1  0
 11 12  2  0
 11 13  1  0
 13 14  1  0
 14 15  1  0
 15 16  2  0
 16 17  1  0
 17 18  1  0
 17 19  2  0
 19 20  1  0
 20 21  1  0
 20 22  2  0
 22 23  1  0
 23 24  3  0
  9 25  1  0
 25 26  2  0
 26  6  1  0
 22 15  1  0
M  END
>  <Binding energies>  (1) 
[-7.84]

>  <Ligand effiencies>  (1) 
[-0.2903703703703704]

>  <Interactions>  (1) 
["V-B:TYR:539:CD2:9845, V-B:PRO:540:N:9855, V-B:TYR:539:CE2:9847, V-B:TYR:539:CG:9843, V-B:TYR:539:CE1:9846, V-B:PRO:540:CA:9854, V-B:TYR:539:C:9838, V-B:PRO:540:CB:9856, V-B:PRO:540:CD:9858, V-B:LEU:363:CD1:8160, V-A:GLU:543:CD:4908, V-A:HIS:456:CE1:4069, V-A:ARG:545:CZ:4926, V-B:GLU:543:CD:9879, V-B:TYR:539:CZ:9848, H-B:TYR:539:OH:9849, H-B:TYR:539:N:9841, V-B:LEU:363:CA:8156, V-A:ASP:366:CG:3212, H-A:TYR:484:OH:4347, H-A:GLY:454:N:4049, V-B:GLU:543:CG:9878, V-A:GLY:454:CA:4048, V-A:GLY:453:CA:4043, V-A:GLY:453:C:4041, V-A:ARG:545:CG:4922, V-A:ARG:545:CD:4923, V-A:ILE:455:C:4051, V-A:GLY:454:C:4046"]

$$$$
1aa_Ghoteimi_2023
     RDKit          3D

 40 43  0  0  0  0  0  0  0  0999 V2000
  126.0390  130.5190   55.5750 C   0  0  0  0  0  0  0  0  0  0  0  0
  124.9320  130.3740   56.6240 C   0  0  0  0  0  0  0  0  0  0  0  0
  125.3960  130.8700   57.8740 O   0  0  0  0  0  0  0  0  0  0  0  0
  124.5470  131.4680   58.7490 C   0  0  0  0  0  0  0  0  0  0  0  0
  123.6450  132.2370   58.4040 O   0  0  0  0  0  0  0  0  0  0  0  0
  124.8140  131.1000   60.1800 C   0  0  0  0  0  0  0  0  0  0  0  0
  124.0690  131.6450   61.2370 C   0  0  0  0  0  0  0  0  0  0  0  0
  124.3390  131.2850   62.5560 C   0  0  0  0  0  0  0  0  0  0  0  0
  125.3610  130.3680   62.8400 C   0  0  0  0  0  0  0  0  0  0  0  0
  125.7230  129.9320   64.1280 N   0  0  0  0  0  0  0  0  0  0  0  0
  124.9670  129.7430   65.2340 C   0  0  0  0  0  0  0  0  0  0  0  0
  123.7510  129.9280   65.2960 O   0  0  0  0  0  0  0  0  0  0  0  0
  125.6850  129.2570   66.5030 C   0  0  0  0  0  0  0  0  0  0  0  0
  127.1000  129.4540   66.3860 O   0  0  0  0  0  0  0  0  0  0  0  0
  127.9810  128.4440   66.7470 C   0  0  0  0  0  0  0  0  0  0  0  0
  128.0740  128.1170   68.0650 N   0  0  0  0  0  0  0  0  0  0  0  0
  128.9360  127.1430   68.4600 C   0  0  0  0  0  0  0  0  0  0  0  0
  128.9780  126.8400   69.9300 C   0  0  0  0  0  0  0  0  0  0  0  0
  128.2460  125.7710   70.4680 C   0  0  0  0  0  0  0  0  0  0  0  0
  128.2820  125.4890   71.8310 C   0  0  0  0  0  0  0  0  0  0  0  0
  129.0500  126.2640   72.6970 C   0  0  0  0  0  0  0  0  0  0  0  0
  129.0230  125.9100   74.0330 O   0  0  0  0  0  0  0  0  0  0  0  0
  129.9760  124.9720   74.5210 C   0  0  0  0  0  0  0  0  0  0  0  0
  129.7910  127.3320   72.1740 C   0  0  0  0  0  0  0  0  0  0  0  0
  129.7540  127.6110   70.8110 C   0  0  0  0  0  0  0  0  0  0  0  0
  129.7180  126.4580   67.5220 C   0  0  0  0  0  0  0  0  0  0  0  0
  129.6330  126.7680   66.1570 C   0  0  0  0  0  0  0  0  0  0  0  0
  130.4840  125.9940   65.2060 C   0  0  0  0  0  0  0  0  0  0  0  0
  131.8630  126.2220   65.1510 C   0  0  0  0  0  0  0  0  0  0  0  0
  132.6650  125.4980   64.2740 C   0  0  0  0  0  0  0  0  0  0  0  0
  132.1090  124.5290   63.4390 C   0  0  0  0  0  0  0  0  0  0  0  0
  132.9810  123.8600   62.6010 O   0  0  0  0  0  0  0  0  0  0  0  0
  133.8750  124.6110   61.7880 C   0  0  0  0  0  0  0  0  0  0  0  0
  130.7270  124.2920   63.4960 C   0  0  0  0  0  0  0  0  0  0  0  0
  129.9260  125.0180   64.3740 C   0  0  0  0  0  0  0  0  0  0  0  0
  128.7460  127.7960   65.7620 C   0  0  0  0  0  0  0  0  0  0  0  0
  128.6210  128.2200   64.3660 C   0  0  0  0  0  0  0  0  0  0  0  0
  128.5220  128.5560   63.2630 N   0  0  0  0  0  0  0  0  0  0  0  0
  126.1050  129.8260   61.7900 C   0  0  0  0  0  0  0  0  0  0  0  0
  125.8350  130.1870   60.4740 C   0  0  0  0  0  0  0  0  0  0  0  0
  1  2  1  0
  2  3  1  0
  3  4  1  0
  4  5  2  0
  4  6  1  0
  6  7  2  0
  7  8  1  0
  8  9  2  0
  9 10  1  0
 10 11  1  0
 11 12  2  0
 11 13  1  0
 13 14  1  0
 14 15  1  0
 15 16  2  0
 16 17  1  0
 17 18  1  0
 18 19  2  0
 19 20  1  0
 20 21  2  0
 21 22  1  0
 22 23  1  0
 21 24  1  0
 24 25  2  0
 17 26  2  0
 26 27  1  0
 27 28  1  0
 28 29  2  0
 29 30  1  0
 30 31  2  0
 31 32  1  0
 32 33  1  0
 31 34  1  0
 34 35  2  0
 27 36  2  0
 36 37  1  0
 37 38  3  0
  9 39  1  0
 39 40  2  0
 40  6  1  0
 36 15  1  0
 25 18  1  0
 35 28  1  0
M  END
>  <Binding energies>  (2) 
[-9.54]

>  <Ligand effiencies>  (2) 
[-0.23268292682926828]

>  <Interactions>  (2) 
["V-B:ILE:369:CD1:8210, V-A:TYR:539:CE2:4876, V-A:MET:535:CE:4835, V-A:TYR:539:CZ:4877, H-A:TYR:539:OH:4878, V-A:GLU:543:CD:4908, H-B:ARG:545:NE:9895, V-B:HIS:456:CE1:9041, V-A:HIS:456:CE1:4069, H-B:TYR:484:OH:9319, H-B:GLY:454:N:9021, H-B:ARG:545:NH1:9898, H-B:ARG:545:NH2:9899, V-B:ARG:545:CZ:9897, V-A:GLU:543:CG:4907, V-B:ASP:366:CG:8184, V-A:ARG:545:CZ:4926, V-B:GLU:543:CD:9879, V-B:TYR:531:CZ:9765, V-B:ASP:366:CB:8183, V-A:ASP:366:CG:3212, V-A:ILE:369:CD1:3238, V-B:GLU:543:CG:9878, V-B:TYR:531:CE1:9763, V-B:GLU:543:CB:9877, H-B:LYS:547:NZ:9922, V-A:HIS:456:CD2:4067, V-B:GLU:543:C:9873"]

$$$$
1b_Grossjean_2025
     RDKit          3D

 25 26  0  0  0  0  0  0  0  0999 V2000
  124.5010  124.2120   57.6350 C   0  0  0  0  0  0  0  0  0  0  0  0
  124.6850  122.8610   57.2350 O   0  0  0  0  0  0  0  0  0  0  0  0
  125.8280  122.4660   56.6180 C   0  0  0  0  0  0  0  0  0  0  0  0
  125.8470  121.7470   55.6140 O   0  0  0  0  0  0  0  0  0  0  0  0
  127.0710  122.9960   57.2740 C   0  0  0  0  0  0  0  0  0  0  0  0
  127.4930  122.5510   58.5360 C   0  0  0  0  0  0  0  0  0  0  0  0
  128.6480  123.0640   59.1170 C   0  0  0  0  0  0  0  0  0  0  0  0
  129.4060  124.0290   58.4530 C   0  0  0  0  0  0  0  0  0  0  0  0
  130.5540  124.4770   59.1350 N   0  0  0  0  0  0  0  0  0  0  0  0
  131.5790  125.2430   58.7030 C   0  0  0  0  0  0  0  0  0  0  0  0
  131.6930  125.7150   57.5730 O   0  0  0  0  0  0  0  0  0  0  0  0
  132.6630  125.5320   59.7430 C   0  0  0  0  0  0  0  0  0  0  0  0
  133.5070  124.0180   60.2940 S   0  0  0  0  0  0  0  0  0  0  0  0
  132.3870  123.1490   61.3700 C   0  0  0  0  0  0  0  0  0  0  0  0
  131.5600  122.2910   60.7220 N   0  0  0  0  0  0  0  0  0  0  0  0
  130.6680  121.5760   61.4450 C   0  0  0  0  0  0  0  0  0  0  0  0
  129.7870  120.6260   60.6550 C   0  0  0  0  0  0  0  0  0  0  0  0
  130.5560  121.6930   62.8290 C   0  0  0  0  0  0  0  0  0  0  0  0
  131.3890  122.5920   63.5040 C   0  0  0  0  0  0  0  0  0  0  0  0
  131.2370  122.7150   65.0190 C   0  0  0  0  0  0  0  0  0  0  0  0
  132.3290  123.3490   62.7700 C   0  0  0  0  0  0  0  0  0  0  0  0
  133.1810  124.3280   63.4490 C   0  0  0  0  0  0  0  0  0  0  0  0
  133.8520  125.1000   63.9890 N   0  0  0  0  0  0  0  0  0  0  0  0
  128.9920  124.4800   57.1910 C   0  0  0  0  0  0  0  0  0  0  0  0
  127.8360  123.9650   56.6110 C   0  0  0  0  0  0  0  0  0  0  0  0
  1  2  1  0
  2  3  1  0
  3  4  2  0
  3  5  1  0
  5  6  2  0
  6  7  1  0
  7  8  2  0
  8  9  1  0
  9 10  1  0
 10 11  2  0
 10 12  1  0
 12 13  1  0
 13 14  1  0
 14 15  2  0
 15 16  1  0
 16 17  1  0
 16 18  2  0
 18 19  1  0
 19 20  1  0
 19 21  2  0
 21 22  1  0
 22 23  3  0
  8 24  1  0
 24 25  2  0
 25  5  1  0
 21 14  1  0
M  END
>  <Binding energies>  (3) 
[-7.35]

>  <Ligand effiencies>  (3) 
[-0.2826923076923077]

>  <Interactions>  (3) 
["V-B:TYR:539:CD2:9845, V-B:PRO:540:N:9855, V-B:TYR:539:CE2:9847, V-A:ILE:369:CG2:3236, V-A:LEU:475:CD2:4258, V-B:TYR:539:CE1:9846, V-B:PRO:540:CA:9854, V-B:TYR:539:C:9838, V-B:PRO:540:CB:9856, V-B:PRO:540:CD:9858, V-B:LEU:363:CD1:8160, V-B:ALA:541:CB:9863, V-B:TYR:539:CZ:9848, H-B:TYR:539:OH:9849, H-B:TYR:539:N:9841, V-B:LEU:363:CA:8156, V-B:TYR:531:CE2:9764, V-A:ASP:366:CB:3211, H-A:ARG:545:NH2:4928, V-A:ASP:366:CG:3212, V-A:TYR:484:CZ:4346, H-A:ARG:545:NH1:4927, H-A:GLY:454:N:4049, H-A:TYR:531:OH:4795, V-A:ASP:366:CA:3209, V-A:TYR:484:CE1:4344"]

$$$$
1c_Grossjean_2025
     RDKit          3D

 23 24  0  0  0  0  0  0  0  0999 V2000
  131.5610  132.7570   56.4970 C   0  0  0  0  0  0  0  0  0  0  0  0
  130.2130  133.0290   56.1320 O   0  0  0  0  0  0  0  0  0  0  0  0
  129.1960  132.6670   56.9940 C   0  0  0  0  0  0  0  0  0  0  0  0
  128.1520  131.9210   56.4470 C   0  0  0  0  0  0  0  0  0  0  0  0
  127.0820  131.5070   57.2360 C   0  0  0  0  0  0  0  0  0  0  0  0
  127.0490  131.8350   58.5990 C   0  0  0  0  0  0  0  0  0  0  0  0
  126.0130  131.4780   59.4840 N   0  0  0  0  0  0  0  0  0  0  0  0
  124.6790  131.6330   59.3480 C   0  0  0  0  0  0  0  0  0  0  0  0
  124.1120  132.1220   58.3710 O   0  0  0  0  0  0  0  0  0  0  0  0
  123.8380  131.1400   60.5280 C   0  0  0  0  0  0  0  0  0  0  0  0
  123.7580  132.3700   61.8630 S   0  0  0  0  0  0  0  0  0  0  0  0
  125.3130  133.2370   61.9230 C   0  0  0  0  0  0  0  0  0  0  0  0
  126.3840  132.4150   62.0620 N   0  0  0  0  0  0  0  0  0  0  0  0
  127.6210  132.9620   62.1200 C   0  0  0  0  0  0  0  0  0  0  0  0
  128.7690  131.9800   62.2650 C   0  0  0  0  0  0  0  0  0  0  0  0
  127.8400  134.3350   62.0540 C   0  0  0  0  0  0  0  0  0  0  0  0
  126.7420  135.1930   61.9360 C   0  0  0  0  0  0  0  0  0  0  0  0
  127.0060  136.6970   61.8830 C   0  0  0  0  0  0  0  0  0  0  0  0
  125.4390  134.6460   61.8750 C   0  0  0  0  0  0  0  0  0  0  0  0
  124.2740  135.5310   61.8070 C   0  0  0  0  0  0  0  0  0  0  0  0
  123.3540  136.2300   61.7520 N   0  0  0  0  0  0  0  0  0  0  0  0
  128.0860  132.5910   59.1480 C   0  0  0  0  0  0  0  0  0  0  0  0
  129.1540  133.0030   58.3560 C   0  0  0  0  0  0  0  0  0  0  0  0
  1  2  1  0
  2  3  1  0
  3  4  2  0
  4  5  1  0
  5  6  2  0
  6  7  1  0
  7  8  1  0
  8  9  2  0
  8 10  1  0
 10 11  1  0
 11 12  1  0
 12 13  2  0
 13 14  1  0
 14 15  1  0
 14 16  2  0
 16 17  1  0
 17 18  1  0
 17 19  2  0
 19 20  1  0
 20 21  3  0
  6 22  1  0
 22 23  2  0
 23  3  1  0
 19 12  1  0
M  END
>  <Binding energies>  (4) 
[-7.1]

>  <Ligand effiencies>  (4) 
[-0.29583333333333334]

>  <Interactions>  (4) 
["V-B:ILE:369:CD1:8210, V-A:LEU:363:CD1:3188, V-B:ILE:369:CG2:8208, V-B:TRP:381:CH2:8343, V-A:ILE:538:CB:4862, V-A:TYR:539:CE2:4876, V-B:TRP:381:CZ2:8341, V-A:TYR:539:C:4867, V-B:LEU:475:CD1:9229, V-A:PRO:540:N:4884, V-B:PRO:482:CB:9297, V-A:MET:535:CE:4835, H-A:TYR:539:N:4870, V-A:TYR:539:CD2:4874, V-A:ALA:541:CB:4892, V-B:PRO:482:CG:9298, V-A:TYR:539:CZ:4877, H-A:TYR:539:OH:4878, V-B:ASP:366:CG:8184, V-B:ASP:366:CB:8183, V-A:TYR:539:CE1:4875, V-B:ASP:366:CA:8181, V-A:TYR:539:CG:4872"]

$$$$
1d_Grossjean_2025
     RDKit          3D

 21 22  0  0  0  0  0  0  0  0999 V2000
  129.5490  126.1610   57.2440 C   0  0  0  0  0  0  0  0  0  0  0  0
  128.5240  125.1220   56.8350 C   0  0  0  0  0  0  0  0  0  0  0  0
  128.5620  124.5140   55.5820 C   0  0  0  0  0  0  0  0  0  0  0  0
  127.5950  123.5550   55.2620 C   0  0  0  0  0  0  0  0  0  0  0  0
  127.6660  122.8910   53.8880 C   0  0  0  0  0  0  0  0  0  0  0  0
  126.6010  123.2310   56.2130 C   0  0  0  0  0  0  0  0  0  0  0  0
  125.6080  122.1950   55.9190 C   0  0  0  0  0  0  0  0  0  0  0  0
  124.8260  121.3760   55.6830 N   0  0  0  0  0  0  0  0  0  0  0  0
  126.6250  123.9160   57.4510 C   0  0  0  0  0  0  0  0  0  0  0  0
  125.4530  123.6360   58.7600 S   0  0  0  0  0  0  0  0  0  0  0  0
  126.1620  124.3330   60.2820 C   0  0  0  0  0  0  0  0  0  0  0  0
  127.1820  123.3910   60.9260 C   0  0  0  0  0  0  0  0  0  0  0  0
  126.9640  122.9510   62.0550 O   0  0  0  0  0  0  0  0  0  0  0  0
  128.2580  123.0970   60.1650 N   0  0  0  0  0  0  0  0  0  0  0  0
  129.3740  122.2900   60.4540 C   0  0  0  0  0  0  0  0  0  0  0  0
  129.0880  120.9930   60.8900 C   0  0  0  0  0  0  0  0  0  0  0  0
  130.1190  120.1110   61.1980 C   0  0  0  0  0  0  0  0  0  0  0  0
  131.4430  120.5230   61.0640 C   0  0  0  0  0  0  0  0  0  0  0  0
  131.7420  121.8090   60.6220 C   0  0  0  0  0  0  0  0  0  0  0  0
  130.7130  122.6940   60.3150 C   0  0  0  0  0  0  0  0  0  0  0  0
  127.5800  124.8300   57.7590 N   0  0  0  0  0  0  0  0  0  0  0  0
  1  2  1  0
  2  3  2  0
  3  4  1  0
  4  5  1  0
  4  6  2  0
  6  7  1  0
  7  8  3  0
  6  9  1  0
  9 10  1  0
 10 11  1  0
 11 12  1  0
 12 13  2  0
 12 14  1  0
 14 15  1  0
 15 16  2  0
 16 17  1  0
 17 18  2  0
 18 19  1  0
 19 20  2  0
  9 21  2  0
 21  2  1  0
 20 15  1  0
M  END
>  <Binding energies>  (5) 
[-7.12]

>  <Ligand effiencies>  (5) 
[-0.32363636363636367]

>  <Interactions>  (5) 
["V-B:TYR:539:CD2:9845, V-B:PRO:540:N:9855, V-B:TYR:539:CD1:9844, V-B:TYR:539:CE2:9847, V-A:ILE:369:CG2:3236, V-B:MET:535:CE:9806, V-B:ILE:538:CA:9831, V-B:ILE:538:CG2:9834, V-A:LEU:475:CD2:4258, V-B:TYR:539:CE1:9846, V-B:PRO:540:CA:9854, V-B:TYR:539:C:9838, V-B:PRO:540:C:9852, V-B:PRO:540:CD:9858, V-B:LEU:363:CD1:8160, V-B:ALA:541:CB:9863, H-B:ALA:541:N:9862, V-B:ALA:541:CA:9861, V-B:TYR:539:CZ:9848, H-B:TYR:539:N:9841, V-B:MET:535:CG:9804, V-B:ILE:538:CD1:9836, V-B:MET:535:CB:9803"]

$$$$
1e_Grossjean_2025
     RDKit          3D

 22 23  0  0  0  0  0  0  0  0999 V2000
  130.1360  119.1020   61.3020 C   0  0  0  0  0  0  0  0  0  0  0  0
  130.2990  120.5660   60.9390 C   0  0  0  0  0  0  0  0  0  0  0  0
  131.5570  121.1730   60.8950 C   0  0  0  0  0  0  0  0  0  0  0  0
  131.6300  122.5240   60.5560 C   0  0  0  0  0  0  0  0  0  0  0  0
  130.4580  123.2290   60.2730 C   0  0  0  0  0  0  0  0  0  0  0  0
  129.2300  122.5590   60.3300 C   0  0  0  0  0  0  0  0  0  0  0  0
  128.0850  123.3240   60.0470 N   0  0  0  0  0  0  0  0  0  0  0  0
  126.9750  123.4860   60.8000 C   0  0  0  0  0  0  0  0  0  0  0  0
  126.7810  122.9570   61.8960 O   0  0  0  0  0  0  0  0  0  0  0  0
  125.8870  124.3790   60.1990 C   0  0  0  0  0  0  0  0  0  0  0  0
  125.2650  123.7250   58.6210 S   0  0  0  0  0  0  0  0  0  0  0  0
  126.4910  124.0120   57.3610 C   0  0  0  0  0  0  0  0  0  0  0  0
  127.3200  125.0500   57.6420 N   0  0  0  0  0  0  0  0  0  0  0  0
  128.2930  125.3660   56.7550 C   0  0  0  0  0  0  0  0  0  0  0  0
  129.1840  126.5310   57.1400 C   0  0  0  0  0  0  0  0  0  0  0  0
  128.4710  124.6770   55.5580 C   0  0  0  0  0  0  0  0  0  0  0  0
  127.6070  123.6220   55.2460 C   0  0  0  0  0  0  0  0  0  0  0  0
  127.8120  122.8940   53.9180 C   0  0  0  0  0  0  0  0  0  0  0  0
  126.5810  123.2760   56.1560 C   0  0  0  0  0  0  0  0  0  0  0  0
  125.6320  122.2120   55.8180 C   0  0  0  0  0  0  0  0  0  0  0  0
  124.8840  121.3720   55.5490 N   0  0  0  0  0  0  0  0  0  0  0  0
  129.1520  121.2370   60.6660 N   0  0  0  0  0  0  0  0  0  0  0  0
  1  2  1  0
  2  3  2  0
  3  4  1  0
  4  5  2  0
  5  6  1  0
  6  7  1  0
  7  8  1  0
  8  9  2  0
  8 10  1  0
 10 11  1  0
 11 12  1  0
 12 13  2  0
 13 14  1  0
 14 15  1  0
 14 16  2  0
 16 17  1  0
 17 18  1  0
 17 19  2  0
 19 20  1  0
 20 21  3  0
  6 22  2  0
 22  2  1  0
 19 12  1  0
M  END
>  <Binding energies>  (6) 
[-7.33]

>  <Ligand effiencies>  (6) 
[-0.31869565217391305]

>  <Interactions>  (6) 
["V-B:TYR:539:CD2:9845, V-B:PRO:540:N:9855, V-B:TYR:539:CD1:9844, V-B:TYR:539:CE2:9847, V-A:ILE:369:CG2:3236, V-B:MET:535:CE:9806, V-B:ILE:538:CA:9831, V-B:ILE:538:CG2:9834, V-A:LEU:475:CD2:4258, V-B:TYR:539:CE1:9846, V-B:PRO:540:CA:9854, V-B:PRO:540:CD:9858, V-B:LEU:363:CD1:8160, V-B:ALA:541:CB:9863, H-B:ALA:541:N:9862, V-B:TYR:539:CZ:9848, H-B:TYR:539:N:9841, V-B:MET:535:CG:9804, V-B:ILE:538:CD1:9836, V-B:MET:535:CB:9803, V-A:TRP:381:CZ2:3369, V-A:TRP:381:CH2:3371, V-A:PRO:482:CB:4325, V-A:PRO:482:CG:4326"]

$$$$
1f_Grossjean_2025
     RDKit          3D

 21 22  0  0  0  0  0  0  0  0999 V2000
  129.0110  121.0110   60.9610 C   0  0  0  0  0  0  0  0  0  0  0  0
  128.5960  122.3890   60.4810 C   0  0  0  0  0  0  0  0  0  0  0  0
  129.3570  123.1000   59.5570 C   0  0  0  0  0  0  0  0  0  0  0  0
  128.9310  124.3720   59.1620 C   0  0  0  0  0  0  0  0  0  0  0  0
  129.7930  125.1410   58.1620 C   0  0  0  0  0  0  0  0  0  0  0  0
  127.7360  124.9000   59.7010 C   0  0  0  0  0  0  0  0  0  0  0  0
  127.3030  126.2530   59.3410 C   0  0  0  0  0  0  0  0  0  0  0  0
  126.9620  127.3220   59.0560 N   0  0  0  0  0  0  0  0  0  0  0  0
  127.0110  124.0960   60.6120 C   0  0  0  0  0  0  0  0  0  0  0  0
  125.4880  124.5920   61.3920 S   0  0  0  0  0  0  0  0  0  0  0  0
  124.0970  123.9990   60.3690 C   0  0  0  0  0  0  0  0  0  0  0  0
  124.3620  123.9960   58.8560 C   0  0  0  0  0  0  0  0  0  0  0  0
  123.6270  124.6220   58.0920 O   0  0  0  0  0  0  0  0  0  0  0  0
  125.4190  123.2480   58.4740 N   0  0  0  0  0  0  0  0  0  0  0  0
  125.9450  123.0280   57.1860 C   0  0  0  0  0  0  0  0  0  0  0  0
  127.0680  123.6760   56.6380 C   0  0  0  0  0  0  0  0  0  0  0  0
  127.4860  123.3570   55.3430 C   0  0  0  0  0  0  0  0  0  0  0  0
  126.7720  122.3950   54.6280 C   0  0  0  0  0  0  0  0  0  0  0  0
  125.6910  121.7530   55.1350 N   0  0  0  0  0  0  0  0  0  0  0  0
  125.2960  122.0730   56.3950 C   0  0  0  0  0  0  0  0  0  0  0  0
  127.4460  122.8740   61.0070 N   0  0  0  0  0  0  0  0  0  0  0  0
  1  2  1  0
  2  3  2  0
  3  4  1  0
  4  5  1  0
  4  6  2  0
  6  7  1  0
  7  8  3  0
  6  9  1  0
  9 10  1  0
 10 11  1  0
 11 12  1  0
 12 13  2  0
 12 14  1  0
 14 15  1  0
 15 16  2  0
 16 17  1  0
 17 18  2  0
 18 19  1  0
 19 20  2  0
  9 21  2  0
 21  2  1  0
 20 15  1  0
M  END
>  <Binding energies>  (7) 
[-6.82]

>  <Ligand effiencies>  (7) 
[-0.31]

>  <Interactions>  (7) 
["V-B:TYR:539:CD2:9845, V-B:PRO:540:N:9855, V-B:TYR:539:CD1:9844, V-B:TYR:539:CE2:9847, V-B:MET:535:CE:9806, V-B:ILE:538:CA:9831, V-B:ILE:538:CG2:9834, V-B:TYR:539:CE1:9846, V-B:PRO:540:CA:9854, V-B:TYR:539:C:9838, V-B:PRO:540:CB:9856, V-B:PRO:540:C:9852, V-B:PRO:540:CD:9858, V-B:LEU:363:CD1:8160, V-B:ALA:541:CB:9863, H-B:ALA:541:N:9862, V-B:ALA:541:CA:9861, H-B:ARG:545:NH2:9899, V-B:TYR:539:CZ:9848, H-B:TYR:539:N:9841, V-B:LEU:363:CA:8156, H-B:TYR:531:OH:9766, V-B:ASN:362:C:8143, V-B:ILE:538:CD1:9836, V-B:ASN:362:CB:8147, V-B:PRO:540:CG:9857"]

$$$$
1g_Grossjean_2025
     RDKit          3D

 22 23  0  0  0  0  0  0  0  0999 V2000
  126.8300  127.9530   58.6510 C   0  0  0  0  0  0  0  0  0  0  0  0
  126.7000  126.5880   58.0030 C   0  0  0  0  0  0  0  0  0  0  0  0
  127.6540  126.1120   57.1060 C   0  0  0  0  0  0  0  0  0  0  0  0
  127.4730  124.8510   56.5280 C   0  0  0  0  0  0  0  0  0  0  0  0
  128.5250  124.3570   55.5350 C   0  0  0  0  0  0  0  0  0  0  0  0
  126.3350  124.0880   56.8730 C   0  0  0  0  0  0  0  0  0  0  0  0
  126.0980  122.7880   56.2410 C   0  0  0  0  0  0  0  0  0  0  0  0
  125.9130  121.7620   55.7390 N   0  0  0  0  0  0  0  0  0  0  0  0
  125.4320  124.6400   57.8120 C   0  0  0  0  0  0  0  0  0  0  0  0
  123.9560  123.8140   58.3660 S   0  0  0  0  0  0  0  0  0  0  0  0
  123.7370  124.2220   60.1240 C   0  0  0  0  0  0  0  0  0  0  0  0
  125.0140  123.9830   60.9310 C   0  0  0  0  0  0  0  0  0  0  0  0
  125.2050  122.8950   61.4750 O   0  0  0  0  0  0  0  0  0  0  0  0
  125.8740  125.0140   61.0030 N   0  0  0  0  0  0  0  0  0  0  0  0
  127.1760  124.9870   61.6700 C   0  0  0  0  0  0  0  0  0  0  0  0
  128.0410  123.7830   61.3100 C   0  0  0  0  0  0  0  0  0  0  0  0
  127.9390  123.2040   60.0410 C   0  0  0  0  0  0  0  0  0  0  0  0
  128.7290  122.1050   59.7130 C   0  0  0  0  0  0  0  0  0  0  0  0
  129.6210  121.5920   60.6520 C   0  0  0  0  0  0  0  0  0  0  0  0
  129.7310  122.1670   61.9160 C   0  0  0  0  0  0  0  0  0  0  0  0
  128.9410  123.2650   62.2460 C   0  0  0  0  0  0  0  0  0  0  0  0
  125.6040  125.8740   58.3510 N   0  0  0  0  0  0  0  0  0  0  0  0
  1  2  1  0
  2  3  2  0
  3  4  1  0
  4  5  1  0
  4  6  2  0
  6  7  1  0
  7  8  3  0
  6  9  1  0
  9 10  1  0
 10 11  1  0
 11 12  1  0
 12 13  2  0
 12 14  1  0
 14 15  1  0
 15 16  1  0
 16 17  2  0
 17 18  1  0
 18 19  2  0
 19 20  1  0
 20 21  2  0
  9 22  2  0
 22  2  1  0
 21 16  1  0
M  END
>  <Binding energies>  (8) 
[-7.38]

>  <Ligand effiencies>  (8) 
[-0.3208695652173913]

>  <Interactions>  (8) 
["V-B:TYR:539:CD2:9845, V-B:TYR:539:CE2:9847, V-B:MET:535:CE:9806, V-B:TYR:539:CE1:9846, V-B:PRO:540:CA:9854, V-B:TYR:539:C:9838, V-B:PRO:540:CB:9856, H-B:ASP:366:OD2:8186, V-B:ALA:541:CB:9863, H-B:ALA:541:N:9862, V-B:ASP:366:CG:8184, V-B:GLU:543:CD:9879, V-B:TYR:539:CZ:9848, H-B:TYR:539:N:9841, V-B:LEU:363:CA:8156, H-B:TYR:531:OH:9766, V-B:ASN:362:C:8143, V-B:ASN:362:CB:8147"]

$$$$
1h_Grossjean_2025
     RDKit          3D

 28 29  0  0  0  0  0  0  0  0999 V2000
  130.1290  130.9390   61.4480 C   0  0  0  0  0  0  0  0  0  0  0  0
  130.2980  132.0390   60.5610 O   0  0  0  0  0  0  0  0  0  0  0  0
  129.5970  132.0630   59.3690 C   0  0  0  0  0  0  0  0  0  0  0  0
  128.2670  131.6370   59.2330 C   0  0  0  0  0  0  0  0  0  0  0  0
  127.6270  131.6770   57.9930 C   0  0  0  0  0  0  0  0  0  0  0  0
  126.1730  131.2320   57.8630 C   0  0  0  0  0  0  0  0  0  0  0  0
  125.3500  131.5420   59.0310 N   0  0  0  0  0  0  0  0  0  0  0  0
  124.0550  131.9050   58.9950 C   0  0  0  0  0  0  0  0  0  0  0  0
  123.3990  131.9940   57.9570 O   0  0  0  0  0  0  0  0  0  0  0  0
  123.3990  132.2240   60.3390 C   0  0  0  0  0  0  0  0  0  0  0  0
  123.9430  131.0870   61.6490 S   0  0  0  0  0  0  0  0  0  0  0  0
  125.3380  131.8280   62.4810 C   0  0  0  0  0  0  0  0  0  0  0  0
  126.1050  132.6560   61.7240 N   0  0  0  0  0  0  0  0  0  0  0  0
  127.1760  133.2550   62.2940 C   0  0  0  0  0  0  0  0  0  0  0  0
  127.9800  134.1680   61.3870 C   0  0  0  0  0  0  0  0  0  0  0  0
  127.5290  133.0560   63.6270 C   0  0  0  0  0  0  0  0  0  0  0  0
  126.7490  132.2040   64.4160 C   0  0  0  0  0  0  0  0  0  0  0  0
  127.1510  132.0010   65.8750 C   0  0  0  0  0  0  0  0  0  0  0  0
  125.6250  131.5680   63.8410 C   0  0  0  0  0  0  0  0  0  0  0  0
  124.7910  130.6690   64.6430 C   0  0  0  0  0  0  0  0  0  0  0  0
  124.1330  129.9580   65.2770 N   0  0  0  0  0  0  0  0  0  0  0  0
  128.3060  132.1810   56.8830 C   0  0  0  0  0  0  0  0  0  0  0  0
  129.6360  132.6200   56.9920 C   0  0  0  0  0  0  0  0  0  0  0  0
  130.3700  133.1280   55.9350 O   0  0  0  0  0  0  0  0  0  0  0  0
  131.2750  132.2780   55.2390 C   0  0  0  0  0  0  0  0  0  0  0  0
  130.2740  132.5450   58.2380 C   0  0  0  0  0  0  0  0  0  0  0  0
  131.5720  132.9770   58.3610 O   0  0  0  0  0  0  0  0  0  0  0  0
  132.5260  131.9260   58.4360 C   0  0  0  0  0  0  0  0  0  0  0  0
  1  2  1  0
  2  3  1  0
  3  4  2  0
  4  5  1  0
  5  6  1  0
  6  7  1  0
  7  8  1  0
  8  9  2  0
  8 10  1  0
 10 11  1  0
 11 12  1  0
 12 13  2  0
 13 14  1  0
 14 15  1  0
 14 16  2  0
 16 17  1  0
 17 18  1  0
 17 19  2  0
 19 20  1  0
 20 21  3  0
  5 22  2  0
 22 23  1  0
 23 24  1  0
 24 25  1  0
 23 26  2  0
 26 27  1  0
 27 28  1  0
 26  3  1  0
 19 12  1  0
M  END
>  <Binding energies>  (9) 
[-7.09]

>  <Ligand effiencies>  (9) 
[-0.24448275862068966]

>  <Interactions>  (9) 
["V-B:ILE:369:CD1:8210, V-A:LEU:363:CD1:3188, V-B:ILE:369:CG2:8208, V-A:ILE:538:CB:4862, V-A:TYR:539:CE2:4876, V-A:TYR:539:C:4867, V-A:PRO:540:CA:4883, V-A:ILE:538:CG2:4863, V-A:PRO:540:CB:4885, V-B:LEU:475:CD1:9229, V-A:ILE:538:CA:4860, V-A:PRO:540:N:4884, V-A:MET:535:CE:4835, H-A:TYR:539:N:4870, V-A:TYR:539:CD2:4874, V-A:ALA:541:CB:4892, V-A:TYR:539:CZ:4877, H-A:TYR:539:OH:4878, V-B:GLY:454:CA:9020, H-B:ARG:545:NE:9895, H-B:GLY:454:N:9021, H-B:ARG:545:NH2:9899, V-A:GLU:543:CG:4907, V-A:TYR:539:CE1:4875, H-B:ASN:370:N:8215, V-B:ILE:369:CB:8207, V-B:ILE:369:CG1:8209, V-B:TYR:484:CE1:9316, V-B:TYR:484:CZ:9318"]

$$$$
1i_Grossjean_2025
     RDKit          3D

 20 21  0  0  0  0  0  0  0  0999 V2000
  124.8550  123.2620   62.7760 C   0  0  0  0  0  0  0  0  0  0  0  0
  125.2530  123.8540   61.4370 C   0  0  0  0  0  0  0  0  0  0  0  0
  124.3280  124.0240   60.4100 C   0  0  0  0  0  0  0  0  0  0  0  0
  124.7510  124.5850   59.2000 C   0  0  0  0  0  0  0  0  0  0  0  0
  123.7140  124.7770   58.0940 C   0  0  0  0  0  0  0  0  0  0  0  0
  126.1060  124.9590   59.0470 C   0  0  0  0  0  0  0  0  0  0  0  0
  126.5590  125.5930   57.8060 C   0  0  0  0  0  0  0  0  0  0  0  0
  126.9140  126.0960   56.8260 N   0  0  0  0  0  0  0  0  0  0  0  0
  126.9810  124.7260   60.1340 C   0  0  0  0  0  0  0  0  0  0  0  0
  128.7130  125.1330   60.1150 S   0  0  0  0  0  0  0  0  0  0  0  0
  129.5780  123.8110   59.2170 C   0  0  0  0  0  0  0  0  0  0  0  0
  128.6070  122.8680   58.5040 C   0  0  0  0  0  0  0  0  0  0  0  0
  128.3620  121.7660   58.9990 O   0  0  0  0  0  0  0  0  0  0  0  0
  128.0770  123.3380   57.3530 N   0  0  0  0  0  0  0  0  0  0  0  0
  127.1820  122.6920   56.5140 C   0  0  0  0  0  0  0  0  0  0  0  0
  127.0910  122.9570   55.1490 C   0  0  0  0  0  0  0  0  0  0  0  0
  126.1000  122.1220   54.6860 C   0  0  0  0  0  0  0  0  0  0  0  0
  125.6180  121.3930   55.7200 O   0  0  0  0  0  0  0  0  0  0  0  0
  126.3100  121.7640   56.8740 N   0  0  0  0  0  0  0  0  0  0  0  0
  126.5560  124.2010   61.3110 N   0  0  0  0  0  0  0  0  0  0  0  0
  1  2  1  0
  2  3  2  0
  3  4  1  0
  4  5  1  0
  4  6  2  0
  6  7  1  0
  7  8  3  0
  6  9  1  0
  9 10  1  0
 10 11  1  0
 11 12  1  0
 12 13  2  0
 12 14  1  0
 14 15  1  0
 15 16  1  0
 16 17  2  0
 17 18  1  0
 18 19  1  0
  9 20  2  0
 20  2  1  0
 19 15  2  0
M  END
>  <Binding energies>  (10) 
[-6.82]

>  <Ligand effiencies>  (10) 
[-0.32476190476190475]

>  <Interactions>  (10) 
["V-B:TYR:539:CD2:9845, V-B:TYR:539:CD1:9844, V-B:TYR:539:CE2:9847, V-B:MET:535:CE:9806, V-B:TYR:539:CG:9843, V-B:ILE:538:CA:9831, V-B:ILE:538:CG2:9834, V-B:TYR:539:CE1:9846, V-B:PRO:540:CA:9854, V-B:PRO:540:CB:9856, V-B:LEU:363:CD1:8160, V-B:ALA:541:CA:9861, V-B:ASP:366:CG:8184, V-B:GLU:543:CD:9879, V-B:TYR:539:CZ:9848, H-B:TYR:539:OH:9849, H-B:TYR:539:N:9841, V-B:LEU:363:CA:8156, H-B:TYR:531:OH:9766, V-B:ASN:362:C:8143, V-B:TYR:531:CZ:9765, V-B:TYR:531:CE2:9764, V-B:ASP:366:CB:8183, V-B:LEU:363:CB:8158, V-B:ILE:538:CD1:9836, V-B:ASN:362:CB:8147, V-B:GLU:543:CG:9878, V-B:ILE:538:CB:9833, V-B:ILE:538:C:9829, V-B:ASN:362:CG:8148, V-B:ALA:541:C:9859"]

$$$$
1k_Grossjean_2025
     RDKit          3D

 25 25  0  0  0  0  0  0  0  0999 V2000
  127.8870  132.3520   59.3720 C   0  0  0  0  0  0  0  0  0  0  0  0
  128.5130  133.0360   58.2990 O   0  0  0  0  0  0  0  0  0  0  0  0
  128.6840  132.2330   57.1380 C   0  0  0  0  0  0  0  0  0  0  0  0
  129.5680  132.9760   56.1270 C   0  0  0  0  0  0  0  0  0  0  0  0
  130.7160  133.4890   56.7910 O   0  0  0  0  0  0  0  0  0  0  0  0
  131.9190  132.8090   56.4600 C   0  0  0  0  0  0  0  0  0  0  0  0
  132.1260  131.6380   57.4290 C   0  0  0  0  0  0  0  0  0  0  0  0
  131.8260  132.0610   58.7540 O   0  0  0  0  0  0  0  0  0  0  0  0
  131.9920  131.0410   59.7300 C   0  0  0  0  0  0  0  0  0  0  0  0
  132.4580  131.6670   61.0570 C   0  0  0  0  0  0  0  0  0  0  0  0
  131.4890  131.5430   62.1470 N   0  0  0  0  0  0  0  0  0  0  0  0
  130.3300  132.2190   62.2340 C   0  0  0  0  0  0  0  0  0  0  0  0
  129.9560  133.0260   61.3810 O   0  0  0  0  0  0  0  0  0  0  0  0
  129.4850  131.9270   63.4830 C   0  0  0  0  0  0  0  0  0  0  0  0
  127.7730  131.3730   63.1670 S   0  0  0  0  0  0  0  0  0  0  0  0
  126.7570  132.7940   62.7870 C   0  0  0  0  0  0  0  0  0  0  0  0
  127.4080  133.8660   62.2670 N   0  0  0  0  0  0  0  0  0  0  0  0
  126.7000  134.9780   61.9650 C   0  0  0  0  0  0  0  0  0  0  0  0
  127.4990  136.1350   61.3970 C   0  0  0  0  0  0  0  0  0  0  0  0
  125.3230  135.0680   62.1600 C   0  0  0  0  0  0  0  0  0  0  0  0
  124.6390  133.9680   62.6880 C   0  0  0  0  0  0  0  0  0  0  0  0
  123.1310  134.0870   62.8940 C   0  0  0  0  0  0  0  0  0  0  0  0
  125.3610  132.7980   63.0140 C   0  0  0  0  0  0  0  0  0  0  0  0
  124.6710  131.6320   63.5730 C   0  0  0  0  0  0  0  0  0  0  0  0
  124.1250  130.7120   64.0140 N   0  0  0  0  0  0  0  0  0  0  0  0
  1  2  1  0
  2  3  1  0
  3  4  1  0
  4  5  1  0
  5  6  1  0
  6  7  1  0
  7  8  1  0
  8  9  1  0
  9 10  1  0
 10 11  1  0
 11 12  1  0
 12 13  2  0
 12 14  1  0
 14 15  1  0
 15 16  1  0
 16 17  2  0
 17 18  1  0
 18 19  1  0
 18 20  2  0
 20 21  1  0
 21 22  1  0
 21 23  2  0
 23 24  1  0
 24 25  3  0
 23 16  1  0
M  END
>  <Binding energies>  (11) 
[-6.56]

>  <Ligand effiencies>  (11) 
[-0.2523076923076923]

>  <Interactions>  (11) 
["V-B:ILE:369:CD1:8210, V-A:LEU:363:CD1:3188, V-B:ILE:369:CG2:8208, V-A:ILE:538:CB:4862, V-A:TYR:539:CE2:4876, V-A:PRO:540:CA:4883, V-A:PRO:540:CB:4885, V-B:LEU:475:CD1:9229, V-A:ILE:538:CA:4860, V-A:PRO:540:N:4884, H-A:ALA:541:N:4891, V-B:PRO:482:CB:9297, V-A:MET:535:CE:4835, H-A:TYR:539:N:4870, V-A:TYR:539:CD2:4874, V-A:ALA:541:CB:4892, V-A:PRO:540:CD:4887, V-B:PRO:482:CG:9298, V-A:TYR:539:CZ:4877, V-B:GLY:454:CA:9020, V-A:GLU:543:CD:4908, H-B:GLY:454:N:9021, H-A:GLU:543:OE1:4909, V-A:GLU:543:CG:4907, H-A:ASP:366:OD2:3214, V-A:TYR:539:CE1:4875, V-A:ALA:541:CA:4890, V-A:TYR:539:CD1:4873, V-B:SER:385:C:8376"]

$$$$
1l_Grossjean_2025
     RDKit          3D

 17 17  0  0  0  0  0  0  0  0999 V2000
  127.5910  126.9030   61.7580 C   0  0  0  0  0  0  0  0  0  0  0  0
  127.3670  125.5710   61.3170 O   0  0  0  0  0  0  0  0  0  0  0  0
  126.0140  125.3830   61.0380 N   0  0  0  0  0  0  0  0  0  0  0  0
  125.5280  124.1290   60.9760 C   0  0  0  0  0  0  0  0  0  0  0  0
  126.1450  123.1360   61.3720 O   0  0  0  0  0  0  0  0  0  0  0  0
  124.1170  124.0050   60.3840 C   0  0  0  0  0  0  0  0  0  0  0  0
  124.0490  123.9420   58.5610 S   0  0  0  0  0  0  0  0  0  0  0  0
  125.4790  124.7950   57.9210 C   0  0  0  0  0  0  0  0  0  0  0  0
  125.6720  126.0560   58.3880 N   0  0  0  0  0  0  0  0  0  0  0  0
  126.7380  126.7620   57.9430 C   0  0  0  0  0  0  0  0  0  0  0  0
  126.8860  128.1610   58.5110 C   0  0  0  0  0  0  0  0  0  0  0  0
  127.6500  126.2480   57.0250 C   0  0  0  0  0  0  0  0  0  0  0  0
  127.4630  124.9500   56.5370 C   0  0  0  0  0  0  0  0  0  0  0  0
  128.4760  124.4060   55.5310 C   0  0  0  0  0  0  0  0  0  0  0  0
  126.3570  124.1960   56.9880 C   0  0  0  0  0  0  0  0  0  0  0  0
  126.1370  122.8330   56.4930 C   0  0  0  0  0  0  0  0  0  0  0  0
  125.9640  121.7590   56.1020 N   0  0  0  0  0  0  0  0  0  0  0  0
  1  2  1  0
  2  3  1  0
  3  4  1  0
  4  5  2  0
  4  6  1  0
  6  7  1  0
  7  8  1  0
  8  9  2  0
  9 10  1  0
 10 11  1  0
 10 12  2  0
 12 13  1  0
 13 14  1  0
 13 15  2  0
 15 16  1  0
 16 17  3  0
 15  8  1  0
M  END
>  <Binding energies>  (12) 
[-5.99]

>  <Ligand effiencies>  (12) 
[-0.3327777777777778]

>  <Interactions>  (12) 
["V-B:PRO:540:N:9855, V-B:TYR:539:CE1:9846, V-B:PRO:540:CA:9854, V-B:PRO:540:CB:9856, H-B:ASP:366:OD2:8186, H-B:ALA:541:N:9862, V-B:TYR:539:CZ:9848, H-B:TYR:539:N:9841, V-B:LEU:363:CA:8156, H-B:TYR:531:OH:9766, V-B:ASN:362:C:8143, V-B:ASN:362:CB:8147"]

$$$$
1m_Grossjean_2025
     RDKit          3D

 20 20  0  0  0  0  0  0  0  0999 V2000
  128.8120  132.3860   56.4600 C   0  0  0  0  0  0  0  0  0  0  0  0
  129.7420  133.4180   56.7570 O   0  0  0  0  0  0  0  0  0  0  0  0
  131.0410  133.1290   56.9750 C   0  0  0  0  0  0  0  0  0  0  0  0
  131.9550  133.2680   56.1560 O   0  0  0  0  0  0  0  0  0  0  0  0
  131.2700  132.5990   58.4060 C   0  0  0  0  0  0  0  0  0  0  0  0
  130.1520  132.9030   59.3120 N   0  0  0  0  0  0  0  0  0  0  0  0
  130.1500  132.7180   60.6460 C   0  0  0  0  0  0  0  0  0  0  0  0
  131.1080  132.2450   61.2610 O   0  0  0  0  0  0  0  0  0  0  0  0
  128.8600  133.1290   61.3680 C   0  0  0  0  0  0  0  0  0  0  0  0
  127.4230  133.3890   60.2730 S   0  0  0  0  0  0  0  0  0  0  0  0
  126.0210  133.7990   61.2910 C   0  0  0  0  0  0  0  0  0  0  0  0
  125.2440  132.7290   61.5990 N   0  0  0  0  0  0  0  0  0  0  0  0
  124.1520  132.9200   62.3750 C   0  0  0  0  0  0  0  0  0  0  0  0
  123.3430  131.6760   62.6930 C   0  0  0  0  0  0  0  0  0  0  0  0
  123.7850  134.1730   62.8630 C   0  0  0  0  0  0  0  0  0  0  0  0
  124.5640  135.2860   62.5300 C   0  0  0  0  0  0  0  0  0  0  0  0
  124.1340  136.6510   63.0620 C   0  0  0  0  0  0  0  0  0  0  0  0
  125.7090  135.1120   61.7190 C   0  0  0  0  0  0  0  0  0  0  0  0
  126.5100  136.2700   61.3180 C   0  0  0  0  0  0  0  0  0  0  0  0
  127.1430  137.1850   61.0020 N   0  0  0  0  0  0  0  0  0  0  0  0
  1  2  1  0
  2  3  1  0
  3  4  2  0
  3  5  1  0
  5  6  1  0
  6  7  1  0
  7  8  2  0
  7  9  1  0
  9 10  1  0
 10 11  1  0
 11 12  2  0
 12 13  1  0
 13 14  1  0
 13 15  2  0
 15 16  1  0
 16 17  1  0
 16 18  2  0
 18 19  1  0
 19 20  3  0
 18 11  1  0
M  END
>  <Binding energies>  (13) 
[-6.29]

>  <Ligand effiencies>  (13) 
[-0.2995238095238095]

>  <Interactions>  (13) 
["V-B:ILE:369:CD1:8210, V-B:TRP:381:CH2:8343, V-A:TYR:539:CE2:4876, V-B:TRP:381:CZ2:8341, V-A:TYR:539:C:4867, V-A:PRO:540:CA:4883, V-B:SER:385:CB:8380, V-A:PRO:540:CB:4885, V-B:LEU:475:CD1:9229, V-A:PRO:540:N:4884, H-A:ALA:541:N:4891, V-A:MET:535:CE:4835, H-A:TYR:539:N:4870, V-A:TYR:539:CD2:4874, V-A:TYR:539:CA:4869, V-A:ALA:541:CB:4892, V-B:LEU:475:CB:9227, V-A:PRO:540:CD:4887, H-A:TYR:539:O:4868, V-A:PRO:540:C:4881, V-A:TYR:539:CZ:4877, V-B:GLY:454:CA:9020, V-B:GLY:453:C:9013, V-A:TYR:539:CE1:4875, V-B:TRP:381:CZ3:8342, V-B:SER:385:CA:8378, V-B:SER:385:C:8376"]

$$$$
1n_Grossjean_2025
     RDKit          3D

 27 28  0  0  0  0  0  0  0  0999 V2000
  132.0580  131.8740   58.6200 C   0  0  0  0  0  0  0  0  0  0  0  0
  132.2730  132.5030   57.2390 C   0  0  0  0  0  0  0  0  0  0  0  0
  131.1930  133.3820   56.9470 O   0  0  0  0  0  0  0  0  0  0  0  0
  130.1340  132.9680   56.2040 C   0  0  0  0  0  0  0  0  0  0  0  0
  130.1580  132.8900   54.9720 O   0  0  0  0  0  0  0  0  0  0  0  0
  128.9350  132.6030   57.0310 C   0  0  0  0  0  0  0  0  0  0  0  0
  128.8150  132.9900   58.3750 C   0  0  0  0  0  0  0  0  0  0  0  0
  127.6910  132.6330   59.1140 C   0  0  0  0  0  0  0  0  0  0  0  0
  126.6720  131.8770   58.5340 C   0  0  0  0  0  0  0  0  0  0  0  0
  125.5850  131.5670   59.3740 N   0  0  0  0  0  0  0  0  0  0  0  0
  124.2590  131.6020   59.1190 C   0  0  0  0  0  0  0  0  0  0  0  0
  123.7470  131.9210   58.0460 O   0  0  0  0  0  0  0  0  0  0  0  0
  123.3490  131.1990   60.2870 C   0  0  0  0  0  0  0  0  0  0  0  0
  124.1070  131.0580   61.6240 C   0  0  0  0  0  0  0  0  0  0  0  0
  124.0700  132.5430   62.6720 S   0  0  0  0  0  0  0  0  0  0  0  0
  125.5370  133.4880   62.3200 C   0  0  0  0  0  0  0  0  0  0  0  0
  126.6790  132.7580   62.3730 N   0  0  0  0  0  0  0  0  0  0  0  0
  127.8560  133.3700   62.1060 C   0  0  0  0  0  0  0  0  0  0  0  0
  129.0890  132.4890   62.1730 C   0  0  0  0  0  0  0  0  0  0  0  0
  127.9450  134.7230   61.7840 C   0  0  0  0  0  0  0  0  0  0  0  0
  126.7740  135.4890   61.7470 C   0  0  0  0  0  0  0  0  0  0  0  0
  126.8970  136.9730   61.4060 C   0  0  0  0  0  0  0  0  0  0  0  0
  125.5340  134.8720   62.0280 C   0  0  0  0  0  0  0  0  0  0  0  0
  124.3040  135.6660   62.0450 C   0  0  0  0  0  0  0  0  0  0  0  0
  123.3330  136.2960   62.0590 N   0  0  0  0  0  0  0  0  0  0  0  0
  126.7810  131.4950   57.1890 C   0  0  0  0  0  0  0  0  0  0  0  0
  127.9040  131.8560   56.4490 C   0  0  0  0  0  0  0  0  0  0  0  0
  1  2  1  0
  2  3  1  0
  3  4  1  0
  4  5  2  0
  4  6  1  0
  6  7  2  0
  7  8  1  0
  8  9  2  0
  9 10  1  0
 10 11  1  0
 11 12  2  0
 11 13  1  0
 13 14  1  0
 14 15  1  0
 15 16  1  0
 16 17  2  0
 17 18  1  0
 18 19  1  0
 18 20  2  0
 20 21  1  0
 21 22  1  0
 21 23  2  0
 23 24  1  0
 24 25  3  0
  9 26  1  0
 26 27  2  0
 27  6  1  0
 23 16  1  0
M  END
>  <Binding energies>  (14) 
[-8.3]

>  <Ligand effiencies>  (14) 
[-0.29642857142857143]

>  <Interactions>  (14) 
["V-B:ILE:369:CD1:8210, V-A:LEU:363:CD1:3188, V-B:ILE:369:CG2:8208, V-B:TRP:381:CH2:8343, V-A:TYR:539:CE2:4876, V-B:TRP:381:CZ2:8341, V-A:TYR:539:C:4867, V-A:PRO:540:CA:4883, V-A:PRO:540:CB:4885, V-B:LEU:475:CD1:9229, V-A:ILE:538:CA:4860, V-A:PRO:540:N:4884, V-B:PRO:482:CB:9297, V-A:MET:535:CE:4835, H-A:TYR:539:N:4870, V-A:TYR:539:CD2:4874, V-B:TRP:381:CE2:8338, V-A:ALA:541:CB:4892, V-A:PRO:540:CD:4887, V-B:PRO:482:CG:9298, V-A:TYR:539:CZ:4877, H-A:TYR:539:OH:4878, V-B:ASP:366:CG:8184, V-B:ASP:366:CB:8183, V-A:TYR:539:CE1:4875, V-B:ASP:366:CA:8181, V-A:TYR:539:CG:4872, V-B:TRP:381:CZ3:8342, V-B:ILE:369:CB:8207, V-B:TRP:381:CE3:8339"]

$$$$
1q_Grossjean_2025
     RDKit          3D

 21 21  0  0  0  0  0  0  0  0999 V2000
  130.9590  132.5880   58.2050 C   0  0  0  0  0  0  0  0  0  0  0  0
  129.6510  132.9090   57.7560 O   0  0  0  0  0  0  0  0  0  0  0  0
  129.3310  132.8110   56.4420 C   0  0  0  0  0  0  0  0  0  0  0  0
  129.9120  133.3830   55.5190 O   0  0  0  0  0  0  0  0  0  0  0  0
  128.1070  131.9140   56.1590 C   0  0  0  0  0  0  0  0  0  0  0  0
  127.2670  131.6960   57.3460 N   0  0  0  0  0  0  0  0  0  0  0  0
  126.2790  130.7880   57.4590 C   0  0  0  0  0  0  0  0  0  0  0  0
  125.9650  130.0170   56.5490 O   0  0  0  0  0  0  0  0  0  0  0  0
  125.5540  130.7460   58.8120 C   0  0  0  0  0  0  0  0  0  0  0  0
  124.3610  131.7150   58.9220 C   0  0  0  0  0  0  0  0  0  0  0  0
  124.1310  132.4010   60.5900 S   0  0  0  0  0  0  0  0  0  0  0  0
  125.5400  133.4170   60.9840 C   0  0  0  0  0  0  0  0  0  0  0  0
  126.7290  132.8030   60.7540 N   0  0  0  0  0  0  0  0  0  0  0  0
  127.8730  133.4760   61.0180 C   0  0  0  0  0  0  0  0  0  0  0  0
  129.1600  132.7180   60.7520 C   0  0  0  0  0  0  0  0  0  0  0  0
  127.8820  134.7800   61.5080 C   0  0  0  0  0  0  0  0  0  0  0  0
  126.6640  135.4320   61.7240 C   0  0  0  0  0  0  0  0  0  0  0  0
  126.7000  136.8690   62.2450 C   0  0  0  0  0  0  0  0  0  0  0  0
  125.4560  134.7510   61.4530 C   0  0  0  0  0  0  0  0  0  0  0  0
  124.1730  135.4370   61.6200 C   0  0  0  0  0  0  0  0  0  0  0  0
  123.1610  135.9840   61.7530 N   0  0  0  0  0  0  0  0  0  0  0  0
  1  2  1  0
  2  3  1  0
  3  4  2  0
  3  5  1  0
  5  6  1  0
  6  7  1  0
  7  8  2  0
  7  9  1  0
  9 10  1  0
 10 11  1  0
 11 12  1  0
 12 13  2  0
 13 14  1  0
 14 15  1  0
 14 16  2  0
 16 17  1  0
 17 18  1  0
 17 19  2  0
 19 20  1  0
 20 21  3  0
 19 12  1  0
M  END
>  <Binding energies>  (15) 
[-6.12]

>  <Ligand effiencies>  (15) 
[-0.2781818181818182]

>  <Interactions>  (15) 
["V-B:ILE:369:CG2:8208, V-B:TRP:381:CH2:8343, V-A:TYR:539:CE2:4876, V-B:TRP:381:CZ2:8341, V-A:TYR:539:C:4867, V-A:PRO:540:CA:4883, V-A:PRO:540:CB:4885, V-B:LEU:475:CD1:9229, V-A:PRO:540:N:4884, V-B:PRO:482:CB:9297, V-A:MET:535:CE:4835, H-A:TYR:539:N:4870, V-A:TYR:539:CD2:4874, V-B:TRP:381:CE2:8338, V-A:ALA:541:CB:4892, V-B:PRO:482:CG:9298, V-A:TYR:539:CZ:4877, H-A:TYR:539:OH:4878, H-B:TYR:531:OH:9766, V-A:TYR:539:CE1:4875, V-A:TYR:539:CD1:4873"]

$$$$
2a_Grossjean_2025
     RDKit          3D

 29 30  0  0  0  0  0  0  0  0999 V2000
  132.0710  131.8720   58.5240 C   0  0  0  0  0  0  0  0  0  0  0  0
  132.2560  132.4930   57.1360 C   0  0  0  0  0  0  0  0  0  0  0  0
  131.1820  133.3890   56.8750 O   0  0  0  0  0  0  0  0  0  0  0  0
  130.0990  132.9930   56.1580 C   0  0  0  0  0  0  0  0  0  0  0  0
  130.0810  132.9370   54.9250 O   0  0  0  0  0  0  0  0  0  0  0  0
  128.9290  132.6080   57.0190 C   0  0  0  0  0  0  0  0  0  0  0  0
  128.8400  132.9950   58.3640 C   0  0  0  0  0  0  0  0  0  0  0  0
  127.7430  132.6210   59.1350 C   0  0  0  0  0  0  0  0  0  0  0  0
  126.7200  131.8490   58.5840 C   0  0  0  0  0  0  0  0  0  0  0  0
  125.6690  131.5180   59.4580 N   0  0  0  0  0  0  0  0  0  0  0  0
  124.3380  131.7050   59.3260 C   0  0  0  0  0  0  0  0  0  0  0  0
  123.7840  132.2530   58.3720 O   0  0  0  0  0  0  0  0  0  0  0  0
  123.4790  131.1810   60.4820 C   0  0  0  0  0  0  0  0  0  0  0  0
  123.7100  132.1130   62.0320 S   0  0  0  0  0  0  0  0  0  0  0  0
  125.3310  132.8710   62.0450 C   0  0  0  0  0  0  0  0  0  0  0  0
  126.3780  132.0210   62.2000 N   0  0  0  0  0  0  0  0  0  0  0  0
  127.6310  132.5270   62.2310 C   0  0  0  0  0  0  0  0  0  0  0  0
  128.7460  131.5180   62.4340 C   0  0  0  0  0  0  0  0  0  0  0  0
  127.8950  133.8870   62.1020 C   0  0  0  0  0  0  0  0  0  0  0  0
  126.8290  134.7840   61.9320 C   0  0  0  0  0  0  0  0  0  0  0  0
  127.1380  136.2860   61.7900 C   0  0  0  0  0  0  0  0  0  0  0  0
  128.4570  136.4830   61.7750 F   0  0  0  0  0  0  0  0  0  0  0  0
  126.6170  136.7530   60.6550 F   0  0  0  0  0  0  0  0  0  0  0  0
  126.6360  137.0130   62.7920 F   0  0  0  0  0  0  0  0  0  0  0  0
  125.5090  134.2670   61.9010 C   0  0  0  0  0  0  0  0  0  0  0  0
  124.3570  135.1590   61.7300 C   0  0  0  0  0  0  0  0  0  0  0  0
  123.4490  135.8630   61.5940 N   0  0  0  0  0  0  0  0  0  0  0  0
  126.7980  131.4660   57.2370 C   0  0  0  0  0  0  0  0  0  0  0  0
  127.8940  131.8440   56.4660 C   0  0  0  0  0  0  0  0  0  0  0  0
  1  2  1  0
  2  3  1  0
  3  4  1  0
  4  5  2  0
  4  6  1  0
  6  7  2  0
  7  8  1  0
  8  9  2  0
  9 10  1  0
 10 11  1  0
 11 12  2  0
 11 13  1  0
 13 14  1  0
 14 15  1  0
 15 16  2  0
 16 17  1  0
 17 18  1  0
 17 19  2  0
 19 20  1  0
 20 21  1  0
 21 22  1  0
 21 23  1  0
 21 24  1  0
 20 25  2  0
 25 26  1  0
 26 27  3  0
  9 28  1  0
 28 29  2  0
 29  6  1  0
 25 15  1  0
M  END
>  <Binding energies>  (16) 
[-7.75]

>  <Ligand effiencies>  (16) 
[-0.25833333333333336]

>  <Interactions>  (16) 
["V-B:ILE:369:CD1:8210, V-A:LEU:363:CD1:3188, V-B:ILE:369:CG2:8208, V-B:TRP:381:CH2:8343, V-A:ILE:538:CB:4862, V-A:TYR:539:CE2:4876, V-B:TRP:381:CZ2:8341, V-A:TYR:539:C:4867, V-A:PRO:540:CA:4883, V-A:PRO:540:CB:4885, V-B:LEU:475:CD1:9229, V-A:ILE:538:CA:4860, V-A:PRO:540:N:4884, V-B:PRO:482:CB:9297, V-A:MET:535:CE:4835, H-A:TYR:539:N:4870, V-A:TYR:539:CD2:4874, V-B:TRP:381:CE2:8338, V-A:ALA:541:CB:4892, V-A:PRO:540:CD:4887, V-B:PRO:482:CG:9298, V-A:PRO:540:C:4881, V-A:TYR:539:CZ:4877, H-A:TYR:539:OH:4878, V-B:ASP:366:CG:8184, V-B:ASP:366:CB:8183, V-A:TYR:539:CE1:4875, V-B:ASP:366:CA:8181, V-A:TYR:539:CG:4872, V-B:TRP:381:CZ3:8342, V-B:ILE:369:CB:8207, V-A:TYR:539:CB:4871, V-B:TRP:381:CE3:8339, V-A:ALA:541:CA:4890"]

$$$$
2b_Grossjean_2025
     RDKit          3D

 28 29  0  0  0  0  0  0  0  0999 V2000
  132.1150  132.4040   57.4110 C   0  0  0  0  0  0  0  0  0  0  0  0
  131.2400  133.3760   56.8560 O   0  0  0  0  0  0  0  0  0  0  0  0
  130.1460  133.0050   56.1430 C   0  0  0  0  0  0  0  0  0  0  0  0
  130.1100  132.9940   54.9080 O   0  0  0  0  0  0  0  0  0  0  0  0
  128.9820  132.6110   57.0050 C   0  0  0  0  0  0  0  0  0  0  0  0
  128.9010  132.9780   58.3560 C   0  0  0  0  0  0  0  0  0  0  0  0
  127.8090  132.5950   59.1290 C   0  0  0  0  0  0  0  0  0  0  0  0
  126.7740  131.8460   58.5690 C   0  0  0  0  0  0  0  0  0  0  0  0
  125.7210  131.5080   59.4410 N   0  0  0  0  0  0  0  0  0  0  0  0
  124.3930  131.7160   59.3100 C   0  0  0  0  0  0  0  0  0  0  0  0
  123.8520  132.2910   58.3650 O   0  0  0  0  0  0  0  0  0  0  0  0
  123.5340  131.1920   60.4650 C   0  0  0  0  0  0  0  0  0  0  0  0
  123.7320  132.1550   62.0000 S   0  0  0  0  0  0  0  0  0  0  0  0
  125.3510  132.9110   62.0420 C   0  0  0  0  0  0  0  0  0  0  0  0
  126.3940  132.0610   62.2220 N   0  0  0  0  0  0  0  0  0  0  0  0
  127.6470  132.5650   62.2690 C   0  0  0  0  0  0  0  0  0  0  0  0
  128.7550  131.5510   62.4850 C   0  0  0  0  0  0  0  0  0  0  0  0
  127.9160  133.9230   62.1310 C   0  0  0  0  0  0  0  0  0  0  0  0
  126.8550  134.8200   61.9370 C   0  0  0  0  0  0  0  0  0  0  0  0
  127.1700  136.3200   61.7820 C   0  0  0  0  0  0  0  0  0  0  0  0
  128.4900  136.5100   61.7720 F   0  0  0  0  0  0  0  0  0  0  0  0
  126.6590  136.7800   60.6390 F   0  0  0  0  0  0  0  0  0  0  0  0
  126.6650  137.0590   62.7720 F   0  0  0  0  0  0  0  0  0  0  0  0
  125.5330  134.3060   61.8920 C   0  0  0  0  0  0  0  0  0  0  0  0
  124.3860  135.1980   61.6980 C   0  0  0  0  0  0  0  0  0  0  0  0
  123.4800  135.9020   61.5440 N   0  0  0  0  0  0  0  0  0  0  0  0
  126.8500  131.4680   57.2210 C   0  0  0  0  0  0  0  0  0  0  0  0
  127.9440  131.8510   56.4500 C   0  0  0  0  0  0  0  0  0  0  0  0
  1  2  1  0
  2  3  1  0
  3  4  2  0
  3  5  1  0
  5  6  2  0
  6  7  1  0
  7  8  2  0
  8  9  1  0
  9 10  1  0
 10 11  2  0
 10 12  1  0
 12 13  1  0
 13 14  1  0
 14 15  2  0
 15 16  1  0
 16 17  1  0
 16 18  2  0
 18 19  1  0
 19 20  1  0
 20 21  1  0
 20 22  1  0
 20 23  1  0
 19 24  2  0
 24 25  1  0
 25 26  3  0
  8 27  1  0
 27 28  2  0
 28  5  1  0
 24 14  1  0
M  END
>  <Binding energies>  (17) 
[-7.55]

>  <Ligand effiencies>  (17) 
[-0.2603448275862069]

>  <Interactions>  (17) 
["V-B:ILE:369:CD1:8210, V-A:LEU:363:CD1:3188, V-B:ILE:369:CG2:8208, V-B:TRP:381:CH2:8343, V-A:ILE:538:CB:4862, V-A:TYR:539:CE2:4876, V-B:TRP:381:CZ2:8341, V-A:TYR:539:C:4867, V-A:ILE:538:C:4858, V-A:PRO:540:CA:4883, V-A:PRO:540:CB:4885, V-B:LEU:475:CD1:9229, V-A:ILE:538:CA:4860, V-A:PRO:540:N:4884, V-B:PRO:482:CB:9297, V-A:MET:535:CE:4835, H-A:TYR:539:N:4870, V-A:TYR:539:CD2:4874, V-B:TRP:381:CE2:8338, V-A:ALA:541:CB:4892, V-A:PRO:540:CD:4887, V-B:PRO:482:CG:9298, V-A:PRO:540:C:4881, V-A:TYR:539:CZ:4877, H-A:TYR:539:OH:4878, V-B:ASP:366:CG:8184, V-B:ASP:366:CB:8183, V-A:TYR:539:CE1:4875, V-B:ASP:366:CA:8181, V-A:TYR:539:CG:4872, V-B:TRP:381:CZ3:8342, V-B:ILE:369:CB:8207, V-A:TYR:539:CB:4871, V-B:TRP:381:CE3:8339, V-A:ALA:541:CA:4890"]

$$$$
2c_Grossjean_2025
     RDKit          3D

 26 27  0  0  0  0  0  0  0  0999 V2000
  131.6070  132.9340   56.6860 C   0  0  0  0  0  0  0  0  0  0  0  0
  130.2810  132.9990   56.1710 O   0  0  0  0  0  0  0  0  0  0  0  0
  129.2230  132.6570   56.9910 C   0  0  0  0  0  0  0  0  0  0  0  0
  128.1700  131.9670   56.3920 C   0  0  0  0  0  0  0  0  0  0  0  0
  127.0580  131.5810   57.1360 C   0  0  0  0  0  0  0  0  0  0  0  0
  126.9860  131.8950   58.5010 C   0  0  0  0  0  0  0  0  0  0  0  0
  125.9150  131.5320   59.3370 N   0  0  0  0  0  0  0  0  0  0  0  0
  124.5900  131.6680   59.1160 C   0  0  0  0  0  0  0  0  0  0  0  0
  124.0960  132.2060   58.1230 O   0  0  0  0  0  0  0  0  0  0  0  0
  123.6880  131.1280   60.2360 C   0  0  0  0  0  0  0  0  0  0  0  0
  123.8650  131.9570   61.8550 S   0  0  0  0  0  0  0  0  0  0  0  0
  125.4690  132.7430   61.9480 C   0  0  0  0  0  0  0  0  0  0  0  0
  126.5210  131.9090   62.1580 N   0  0  0  0  0  0  0  0  0  0  0  0
  127.7620  132.4340   62.2480 C   0  0  0  0  0  0  0  0  0  0  0  0
  128.8800  131.4410   62.4990 C   0  0  0  0  0  0  0  0  0  0  0  0
  128.0110  133.8000   62.1260 C   0  0  0  0  0  0  0  0  0  0  0  0
  126.9410  134.6780   61.9020 C   0  0  0  0  0  0  0  0  0  0  0  0
  127.2330  136.1850   61.7680 C   0  0  0  0  0  0  0  0  0  0  0  0
  126.7060  136.8460   62.8000 F   0  0  0  0  0  0  0  0  0  0  0  0
  128.5490  136.3970   61.7440 F   0  0  0  0  0  0  0  0  0  0  0  0
  126.7220  136.7120   60.6520 F   0  0  0  0  0  0  0  0  0  0  0  0
  125.6320  134.1410   61.8100 C   0  0  0  0  0  0  0  0  0  0  0  0
  124.4760  135.0140   61.5790 C   0  0  0  0  0  0  0  0  0  0  0  0
  123.5640  135.7020   61.3960 N   0  0  0  0  0  0  0  0  0  0  0  0
  128.0450  132.5720   59.1090 C   0  0  0  0  0  0  0  0  0  0  0  0
  129.1540  132.9550   58.3610 C   0  0  0  0  0  0  0  0  0  0  0  0
  1  2  1  0
  2  3  1  0
  3  4  2  0
  4  5  1  0
  5  6  2  0
  6  7  1  0
  7  8  1  0
  8  9  2  0
  8 10  1  0
 10 11  1  0
 11 12  1  0
 12 13  2  0
 13 14  1  0
 14 15  1  0
 14 16  2  0
 16 17  1  0
 17 18  1  0
 18 19  1  0
 18 20  1  0
 18 21  1  0
 17 22  2  0
 22 23  1  0
 23 24  3  0
  6 25  1  0
 25 26  2  0
 26  3  1  0
 22 12  1  0
M  END
>  <Binding energies>  (18) 
[-6.75]

>  <Ligand effiencies>  (18) 
[-0.25]

>  <Interactions>  (18) 
["V-B:ILE:369:CD1:8210, V-A:LEU:363:CD1:3188, V-B:ILE:369:CG2:8208, V-B:TRP:381:CH2:8343, V-A:ILE:538:CB:4862, V-A:TYR:539:CE2:4876, V-B:TRP:381:CZ2:8341, V-A:TYR:539:C:4867, V-B:LEU:475:CD1:9229, V-A:PRO:540:N:4884, V-B:PRO:482:CB:9297, V-A:MET:535:CE:4835, H-A:TYR:539:N:4870, V-A:TYR:539:CD2:4874, V-B:TRP:381:CE2:8338, V-A:ALA:541:CB:4892, V-A:PRO:540:CD:4887, V-B:PRO:482:CG:9298, V-A:PRO:540:C:4881, V-A:TYR:539:CZ:4877, H-A:TYR:539:OH:4878, V-B:ASP:366:CG:8184, V-B:ASP:366:CB:8183, V-A:TYR:539:CE1:4875, V-B:ASP:366:CA:8181, V-A:TYR:539:CG:4872, V-B:TRP:381:CZ3:8342, V-A:TYR:539:CB:4871, V-B:TRP:381:CE3:8339, V-A:ALA:541:CA:4890"]

$$$$
2d_Ghoteimi_2023
     RDKit          3D

 38 42  0  0  0  0  0  0  0  0999 V2000
  124.4910  131.8970   60.0470 C   0  0  0  0  0  0  0  0  0  0  0  0
  124.4240  132.8100   61.1310 O   0  0  0  0  0  0  0  0  0  0  0  0
  123.7850  132.4740   62.2710 C   0  0  0  0  0  0  0  0  0  0  0  0
  123.7440  133.1590   63.2980 O   0  0  0  0  0  0  0  0  0  0  0  0
  123.0890  131.1110   62.1400 C   0  0  0  0  0  0  0  0  0  0  0  0
  123.3730  130.0800   63.6190 S   0  0  0  0  0  0  0  0  0  0  0  0
  125.1220  130.0490   63.9540 C   0  0  0  0  0  0  0  0  0  0  0  0
  125.8760  130.4410   62.8970 N   0  0  0  0  0  0  0  0  0  0  0  0
  127.2280  130.4600   63.0080 C   0  0  0  0  0  0  0  0  0  0  0  0
  127.9930  130.8850   61.7960 C   0  0  0  0  0  0  0  0  0  0  0  0
  128.9590  131.8940   61.8810 C   0  0  0  0  0  0  0  0  0  0  0  0
  129.6750  132.2950   60.7570 C   0  0  0  0  0  0  0  0  0  0  0  0
  129.4580  131.6950   59.5070 C   0  0  0  0  0  0  0  0  0  0  0  0
  130.1560  132.0990   58.3630 N   0  0  0  0  0  0  0  0  0  0  0  0
  129.5270  132.9520   57.3360 C   0  0  0  0  0  0  0  0  0  0  0  0
  130.2980  132.9820   56.0010 C   0  0  0  0  0  0  0  0  0  0  0  0
  131.6430  133.3740   56.2270 O   0  0  0  0  0  0  0  0  0  0  0  0
  132.3100  132.4700   57.0930 C   0  0  0  0  0  0  0  0  0  0  0  0
  131.5950  132.4190   58.4600 C   0  0  0  0  0  0  0  0  0  0  0  0
  128.4790  130.6940   59.4240 C   0  0  0  0  0  0  0  0  0  0  0  0
  127.7610  130.2950   60.5480 C   0  0  0  0  0  0  0  0  0  0  0  0
  127.8590  130.0860   64.1970 C   0  0  0  0  0  0  0  0  0  0  0  0
  127.1030  129.7100   65.3140 C   0  0  0  0  0  0  0  0  0  0  0  0
  127.8440  129.3500   66.5600 C   0  0  0  0  0  0  0  0  0  0  0  0
  127.8380  130.2150   67.6550 C   0  0  0  0  0  0  0  0  0  0  0  0
  128.5150  129.8840   68.8250 C   0  0  0  0  0  0  0  0  0  0  0  0
  129.2220  128.6750   68.9310 C   0  0  0  0  0  0  0  0  0  0  0  0
  129.8990  128.3160   70.1010 N   0  0  0  0  0  0  0  0  0  0  0  0
  129.1850  128.1460   71.3810 C   0  0  0  0  0  0  0  0  0  0  0  0
  130.0150  127.4110   72.4560 C   0  0  0  0  0  0  0  0  0  0  0  0
  131.2540  128.0740   72.6500 O   0  0  0  0  0  0  0  0  0  0  0  0
  132.0190  128.1170   71.4550 C   0  0  0  0  0  0  0  0  0  0  0  0
  131.2410  128.8740   70.3570 C   0  0  0  0  0  0  0  0  0  0  0  0
  129.2080  127.8040   67.8330 C   0  0  0  0  0  0  0  0  0  0  0  0
  128.5300  128.1360   66.6640 C   0  0  0  0  0  0  0  0  0  0  0  0
  125.6900  129.6940   65.1990 C   0  0  0  0  0  0  0  0  0  0  0  0
  124.8550  129.3250   66.3460 C   0  0  0  0  0  0  0  0  0  0  0  0
  124.1990  129.0340   67.2540 N   0  0  0  0  0  0  0  0  0  0  0  0
  1  2  1  0
  2  3  1  0
  3  4  2  0
  3  5  1  0
  5  6  1  0
  6  7  1  0
  7  8  2  0
  8  9  1  0
  9 10  1  0
 10 11  2  0
 11 12  1  0
 12 13  2  0
 13 14  1  0
 14 15  1  0
 15 16  1  0
 16 17  1  0
 17 18  1  0
 18 19  1  0
 13 20  1  0
 20 21  2  0
  9 22  2  0
 22 23  1  0
 23 24  1  0
 24 25  2  0
 25 26  1  0
 26 27  2  0
 27 28  1  0
 28 29  1  0
 29 30  1  0
 30 31  1  0
 31 32  1  0
 32 33  1  0
 27 34  1  0
 34 35  2  0
 23 36  2  0
 36 37  1  0
 37 38  3  0
 36  7  1  0
 21 10  1  0
 35 24  1  0
 19 14  1  0
 33 28  1  0
M  END
>  <Binding energies>  (19) 
[-8.94]

>  <Ligand effiencies>  (19) 
[-0.23526315789473684]

>  <Interactions>  (19) 
["V-B:ILE:369:CD1:8210, V-A:LEU:363:CD1:3188, V-B:ILE:369:CG2:8208, V-A:ILE:538:CB:4862, V-A:TYR:539:CE2:4876, V-A:TYR:539:C:4867, V-A:ILE:538:C:4858, V-A:PRO:540:CA:4883, V-A:PRO:540:CB:4885, V-A:ILE:538:CA:4860, V-A:PRO:540:N:4884, V-A:MET:535:CE:4835, H-A:TYR:539:N:4870, V-A:TYR:539:CD2:4874, V-A:PRO:540:CD:4887, V-A:GLU:543:CD:4908, V-B:ARG:545:CG:9893, V-B:ARG:545:CD:9894, H-B:ARG:545:NE:9895, V-B:HIS:456:CE1:9041, V-A:HIS:456:CE1:4069, H-B:TYR:484:OH:9319, H-B:GLY:454:N:9021, H-B:ARG:545:NH1:9898, H-B:ARG:545:NH2:9899, V-B:ARG:545:CZ:9897, V-A:GLU:543:CG:4907, V-B:ASP:366:CG:8184, V-B:GLU:543:CD:9879, V-A:TYR:539:CG:4872, V-B:TYR:484:CE1:9316, V-B:HIS:456:CD2:9039, V-A:GLU:543:CB:4906, V-B:TYR:484:CZ:9318, V-A:GLU:543:C:4902, V-A:ARG:545:CA:4919, V-A:HIS:456:CG:4065, V-A:GLY:544:C:4912, H-A:LYS:547:NZ:4951, V-A:GLU:543:CA:4904"]

$$$$
2d_Grossjean_2025
     RDKit          3D

 24 25  0  0  0  0  0  0  0  0999 V2000
  128.3930  133.7540   61.2990 C   0  0  0  0  0  0  0  0  0  0  0  0
  127.4340  133.0070   60.3910 C   0  0  0  0  0  0  0  0  0  0  0  0
  126.1030  132.8010   60.7470 C   0  0  0  0  0  0  0  0  0  0  0  0
  125.2550  132.1090   59.8710 C   0  0  0  0  0  0  0  0  0  0  0  0
  123.7830  131.8990   60.2770 C   0  0  0  0  0  0  0  0  0  0  0  0
  123.6500  130.7430   60.9290 F   0  0  0  0  0  0  0  0  0  0  0  0
  123.3820  132.8920   61.0740 F   0  0  0  0  0  0  0  0  0  0  0  0
  122.9570  131.8670   59.2300 F   0  0  0  0  0  0  0  0  0  0  0  0
  125.7870  131.6320   58.6460 C   0  0  0  0  0  0  0  0  0  0  0  0
  124.9310  130.9440   57.6770 C   0  0  0  0  0  0  0  0  0  0  0  0
  124.2540  130.4010   56.9110 N   0  0  0  0  0  0  0  0  0  0  0  0
  127.1570  131.8660   58.3800 C   0  0  0  0  0  0  0  0  0  0  0  0
  127.9950  131.3110   56.9080 S   0  0  0  0  0  0  0  0  0  0  0  0
  129.0430  132.6650   56.2840 C   0  0  0  0  0  0  0  0  0  0  0  0
  130.3760  132.7830   57.0290 C   0  0  0  0  0  0  0  0  0  0  0  0
  131.2810  133.4560   56.5340 O   0  0  0  0  0  0  0  0  0  0  0  0
  130.4610  132.0940   58.1870 N   0  0  0  0  0  0  0  0  0  0  0  0
  131.5350  132.0050   59.0920 C   0  0  0  0  0  0  0  0  0  0  0  0
  131.2070  132.1060   60.4450 C   0  0  0  0  0  0  0  0  0  0  0  0
  132.2020  132.0350   61.4170 C   0  0  0  0  0  0  0  0  0  0  0  0
  133.5310  131.8720   61.0320 C   0  0  0  0  0  0  0  0  0  0  0  0
  133.8720  131.7830   59.6850 C   0  0  0  0  0  0  0  0  0  0  0  0
  132.8800  131.8520   58.7120 C   0  0  0  0  0  0  0  0  0  0  0  0
  127.9580  132.5560   59.2290 N   0  0  0  0  0  0  0  0  0  0  0  0
  1  2  1  0
  2  3  2  0
  3  4  1  0
  4  5  1  0
  5  6  1  0
  5  7  1  0
  5  8  1  0
  4  9  2  0
  9 10  1  0
 10 11  3  0
  9 12  1  0
 12 13  1  0
 13 14  1  0
 14 15  1  0
 15 16  2  0
 15 17  1  0
 17 18  1  0
 18 19  2  0
 19 20  1  0
 20 21  2  0
 21 22  1  0
 22 23  2  0
 12 24  2  0
 24  2  1  0
 23 18  1  0
M  END
>  <Binding energies>  (20) 
[-6.43]

>  <Ligand effiencies>  (20) 
[-0.2572]

>  <Interactions>  (20) 
["V-B:ILE:369:CD1:8210, V-A:LEU:363:CD1:3188, V-B:ILE:369:CG2:8208, V-A:TYR:539:CE2:4876, V-A:TYR:539:C:4867, V-A:PRO:540:CA:4883, V-A:ASN:362:C:3171, V-A:PRO:540:CB:4885, V-A:PRO:540:N:4884, V-A:MET:535:CE:4835, V-A:ASN:362:CB:3175, H-A:TYR:539:N:4870, V-A:TYR:539:CD2:4874, V-A:ALA:541:CB:4892, V-A:PRO:540:C:4881, V-A:TYR:539:CZ:4877, H-A:TYR:539:OH:4878, V-B:ASP:366:CG:8184, H-B:TYR:531:OH:9766, V-B:ASP:366:CB:8183, V-A:ASP:366:CG:3212, V-A:TYR:539:CE1:4875, V-A:LEU:363:CA:3184, V-B:ASP:366:CA:8181, V-B:ILE:369:CB:8207, V-B:ILE:369:CG1:8209, V-B:ASP:366:C:8179, V-A:LEU:363:CB:3186, V-A:TYR:539:CD1:4873"]

$$$$
2e_Grossjean_2025
     RDKit          3D

 25 26  0  0  0  0  0  0  0  0999 V2000
  132.7960  132.0170   62.3920 C   0  0  0  0  0  0  0  0  0  0  0  0
  132.7570  131.8720   60.8830 C   0  0  0  0  0  0  0  0  0  0  0  0
  133.9140  131.6160   60.1420 C   0  0  0  0  0  0  0  0  0  0  0  0
  133.8000  131.4830   58.7570 C   0  0  0  0  0  0  0  0  0  0  0  0
  132.5470  131.6090   58.1530 C   0  0  0  0  0  0  0  0  0  0  0  0
  131.4300  131.8750   58.9530 C   0  0  0  0  0  0  0  0  0  0  0  0
  130.1890  131.9480   58.2990 N   0  0  0  0  0  0  0  0  0  0  0  0
  129.8650  132.6730   57.2050 C   0  0  0  0  0  0  0  0  0  0  0  0
  130.6550  133.3510   56.5470 O   0  0  0  0  0  0  0  0  0  0  0  0
  128.3840  132.6600   56.8120 C   0  0  0  0  0  0  0  0  0  0  0  0
  127.4750  131.3020   57.6160 S   0  0  0  0  0  0  0  0  0  0  0  0
  127.0860  131.8920   59.2490 C   0  0  0  0  0  0  0  0  0  0  0  0
  128.1530  132.0090   60.0770 N   0  0  0  0  0  0  0  0  0  0  0  0
  127.9410  132.4080   61.3510 C   0  0  0  0  0  0  0  0  0  0  0  0
  129.1770  132.5190   62.2220 C   0  0  0  0  0  0  0  0  0  0  0  0
  126.6710  132.6970   61.8480 C   0  0  0  0  0  0  0  0  0  0  0  0
  125.5550  132.5720   61.0060 C   0  0  0  0  0  0  0  0  0  0  0  0
  124.1560  132.8740   61.5750 C   0  0  0  0  0  0  0  0  0  0  0  0
  124.1860  132.8350   62.9080 F   0  0  0  0  0  0  0  0  0  0  0  0
  123.7590  134.0860   61.1870 F   0  0  0  0  0  0  0  0  0  0  0  0
  123.2340  131.9990   61.1680 F   0  0  0  0  0  0  0  0  0  0  0  0
  125.7620  132.1600   59.6660 C   0  0  0  0  0  0  0  0  0  0  0  0
  124.6340  131.9810   58.7460 C   0  0  0  0  0  0  0  0  0  0  0  0
  123.7440  131.8400   58.0200 N   0  0  0  0  0  0  0  0  0  0  0  0
  131.5330  131.9980   60.3090 N   0  0  0  0  0  0  0  0  0  0  0  0
  1  2  1  0
  2  3  2  0
  3  4  1  0
  4  5  2  0
  5  6  1  0
  6  7  1  0
  7  8  1  0
  8  9  2  0
  8 10  1  0
 10 11  1  0
 11 12  1  0
 12 13  2  0
 13 14  1  0
 14 15  1  0
 14 16  2  0
 16 17  1  0
 17 18  1  0
 18 19  1  0
 18 20  1  0
 18 21  1  0
 17 22  2  0
 22 23  1  0
 23 24  3  0
  6 25  2  0
 25  2  1  0
 22 12  1  0
M  END
>  <Binding energies>  (21) 
[-6.74]

>  <Ligand effiencies>  (21) 
[-0.25923076923076926]

>  <Interactions>  (21) 
["V-B:ILE:369:CD1:8210, V-A:LEU:363:CD1:3188, V-B:ILE:369:CG2:8208, V-A:TYR:539:CE2:4876, V-A:TYR:539:C:4867, V-A:PRO:540:CA:4883, V-A:ASN:362:C:3171, V-A:PRO:540:CB:4885, V-B:LEU:475:CD1:9229, V-A:MET:535:CE:4835, V-A:ASN:362:CB:3175, H-A:TYR:539:N:4870, V-A:TYR:539:CD2:4874, V-A:ALA:541:CB:4892, V-A:TYR:539:CZ:4877, H-A:TYR:539:OH:4878, V-B:GLY:454:CA:9020, V-A:ASP:366:CB:3211, V-A:ASP:366:CG:3212, V-A:TYR:539:CE1:4875, V-A:LEU:363:CA:3184, V-A:TYR:539:CG:4872, V-B:ILE:369:CB:8207, V-B:ILE:369:CG1:8209, V-A:LEU:363:CB:3186, V-A:ALA:541:C:4888, V-A:TYR:539:CD1:4873"]

$$$$
2f_Grossjean_2025
     RDKit          3D

 24 25  0  0  0  0  0  0  0  0999 V2000
  128.9930  121.0700   60.8150 C   0  0  0  0  0  0  0  0  0  0  0  0
  128.5870  122.4860   60.4490 C   0  0  0  0  0  0  0  0  0  0  0  0
  129.3570  123.2670   59.5900 C   0  0  0  0  0  0  0  0  0  0  0  0
  128.9430  124.5740   59.2880 C   0  0  0  0  0  0  0  0  0  0  0  0
  129.8140  125.4260   58.3460 C   0  0  0  0  0  0  0  0  0  0  0  0
  130.1590  126.5670   58.9470 F   0  0  0  0  0  0  0  0  0  0  0  0
  130.9210  124.7570   58.0210 F   0  0  0  0  0  0  0  0  0  0  0  0
  129.1900  125.7460   57.2110 F   0  0  0  0  0  0  0  0  0  0  0  0
  127.7410  125.0550   59.8680 C   0  0  0  0  0  0  0  0  0  0  0  0
  127.2970  126.4310   59.6290 C   0  0  0  0  0  0  0  0  0  0  0  0
  126.9460  127.5170   59.4390 N   0  0  0  0  0  0  0  0  0  0  0  0
  127.0100  124.1810   60.7080 C   0  0  0  0  0  0  0  0  0  0  0  0
  125.4780  124.6130   61.5080 S   0  0  0  0  0  0  0  0  0  0  0  0
  124.1060  123.9870   60.4790 C   0  0  0  0  0  0  0  0  0  0  0  0
  124.3690  124.0000   58.9670 C   0  0  0  0  0  0  0  0  0  0  0  0
  123.6220  124.6160   58.2050 O   0  0  0  0  0  0  0  0  0  0  0  0
  125.4430  123.2810   58.5780 N   0  0  0  0  0  0  0  0  0  0  0  0
  125.9720  123.0860   57.2880 C   0  0  0  0  0  0  0  0  0  0  0  0
  127.0630  123.7840   56.7390 C   0  0  0  0  0  0  0  0  0  0  0  0
  127.4910  123.4890   55.4430 C   0  0  0  0  0  0  0  0  0  0  0  0
  126.8180  122.4990   54.7270 C   0  0  0  0  0  0  0  0  0  0  0  0
  125.7680  121.8060   55.2360 N   0  0  0  0  0  0  0  0  0  0  0  0
  125.3650  122.1040   56.4980 C   0  0  0  0  0  0  0  0  0  0  0  0
  127.4380  122.9300   61.0050 N   0  0  0  0  0  0  0  0  0  0  0  0
  1  2  1  0
  2  3  2  0
  3  4  1  0
  4  5  1  0
  5  6  1  0
  5  7  1  0
  5  8  1  0
  4  9  2  0
  9 10  1  0
 10 11  3  0
  9 12  1  0
 12 13  1  0
 13 14  1  0
 14 15  1  0
 15 16  2  0
 15 17  1  0
 17 18  1  0
 18 19  2  0
 19 20  1  0
 20 21  2  0
 21 22  1  0
 22 23  2  0
 12 24  2  0
 24  2  1  0
 23 18  1  0
M  END
>  <Binding energies>  (22) 
[-6.29]

>  <Ligand effiencies>  (22) 
[-0.2516]

>  <Interactions>  (22) 
["V-B:TYR:539:CD2:9845, V-B:PRO:540:N:9855, V-B:TYR:539:CD1:9844, V-B:TYR:539:CE2:9847, V-B:MET:535:CE:9806, V-B:ILE:538:CA:9831, V-B:ILE:538:CG2:9834, V-B:TYR:539:CE1:9846, V-B:PRO:540:CA:9854, V-B:TYR:539:C:9838, V-B:PRO:540:CB:9856, V-B:PRO:540:C:9852, V-B:PRO:540:CD:9858, V-B:LEU:363:CD1:8160, V-B:ALA:541:CB:9863, H-B:ALA:541:N:9862, V-B:ALA:541:CA:9861, H-B:ARG:545:NH2:9899, V-B:TYR:539:CZ:9848, H-B:TYR:539:N:9841, V-B:LEU:363:CA:8156, H-B:TYR:531:OH:9766, V-B:ASN:362:C:8143, V-B:ILE:538:CD1:9836, V-B:ASN:362:CB:8147, V-B:PRO:540:CG:9857"]

$$$$
2g_Grossjean_2025
     RDKit          3D

 25 26  0  0  0  0  0  0  0  0999 V2000
  132.7230  125.0240   58.3780 C   0  0  0  0  0  0  0  0  0  0  0  0
  132.6010  124.3750   59.7430 C   0  0  0  0  0  0  0  0  0  0  0  0
  133.0090  125.0310   60.9020 C   0  0  0  0  0  0  0  0  0  0  0  0
  132.8830  124.3840   62.1410 C   0  0  0  0  0  0  0  0  0  0  0  0
  133.3480  125.1220   63.4120 C   0  0  0  0  0  0  0  0  0  0  0  0
  134.6220  125.4970   63.2880 F   0  0  0  0  0  0  0  0  0  0  0  0
  132.5950  126.2050   63.6060 F   0  0  0  0  0  0  0  0  0  0  0  0
  133.2600  124.3670   64.5090 F   0  0  0  0  0  0  0  0  0  0  0  0
  132.3320  123.0770   62.1720 C   0  0  0  0  0  0  0  0  0  0  0  0
  132.2310  122.3360   63.4320 C   0  0  0  0  0  0  0  0  0  0  0  0
  132.1520  121.7510   64.4270 N   0  0  0  0  0  0  0  0  0  0  0  0
  131.9170  122.5020   60.9460 C   0  0  0  0  0  0  0  0  0  0  0  0
  131.1840  120.8860   60.8070 S   0  0  0  0  0  0  0  0  0  0  0  0
  129.4530  121.0180   61.3700 C   0  0  0  0  0  0  0  0  0  0  0  0
  128.6450  122.1410   60.7040 C   0  0  0  0  0  0  0  0  0  0  0  0
  127.5610  122.5090   61.1590 O   0  0  0  0  0  0  0  0  0  0  0  0
  129.2010  122.6760   59.6020 N   0  0  0  0  0  0  0  0  0  0  0  0
  128.6270  123.7600   58.8020 C   0  0  0  0  0  0  0  0  0  0  0  0
  127.3830  123.3670   58.0120 C   0  0  0  0  0  0  0  0  0  0  0  0
  126.1380  123.8980   58.3650 C   0  0  0  0  0  0  0  0  0  0  0  0
  125.0070  123.5710   57.6210 C   0  0  0  0  0  0  0  0  0  0  0  0
  125.1250  122.7230   56.5230 C   0  0  0  0  0  0  0  0  0  0  0  0
  126.3650  122.2020   56.1580 C   0  0  0  0  0  0  0  0  0  0  0  0
  127.4960  122.5290   56.9000 C   0  0  0  0  0  0  0  0  0  0  0  0
  132.0670  123.1320   59.7560 N   0  0  0  0  0  0  0  0  0  0  0  0
  1  2  1  0
  2  3  2  0
  3  4  1  0
  4  5  1  0
  5  6  1  0
  5  7  1  0
  5  8  1  0
  4  9  2  0
  9 10  1  0
 10 11  3  0
  9 12  1  0
 12 13  1  0
 13 14  1  0
 14 15  1  0
 15 16  2  0
 15 17  1  0
 17 18  1  0
 18 19  1  0
 19 20  2  0
 20 21  1  0
 21 22  2  0
 22 23  1  0
 23 24  2  0
 12 25  2  0
 25  2  1  0
 24 19  1  0
M  END
>  <Binding energies>  (23) 
[-6.75]

>  <Ligand effiencies>  (23) 
[-0.25961538461538464]

>  <Interactions>  (23) 
["V-B:TYR:539:CD2:9845, V-B:PRO:540:N:9855, V-B:TYR:539:CD1:9844, V-B:TYR:539:CE2:9847, V-A:ILE:369:CG2:3236, V-B:MET:535:CE:9806, V-B:TYR:539:CG:9843, V-A:LEU:475:CD2:4258, V-B:TYR:539:CE1:9846, V-B:PRO:540:CA:9854, V-B:TYR:539:C:9838, V-B:PRO:540:CB:9856, V-B:PRO:540:C:9852, V-B:PRO:540:CD:9858, V-B:LEU:363:CD1:8160, V-B:ALA:541:CB:9863, H-B:ALA:541:N:9862, V-B:ALA:541:CA:9861, V-A:ARG:545:CZ:4926, V-B:TYR:539:CZ:9848, V-A:ASP:366:CB:3211, V-A:ASP:366:CG:3212, V-A:ILE:369:CD1:3238, H-A:TYR:484:OH:4347, V-A:ASP:366:CA:3209, V-A:GLY:454:CA:4048, V-A:GLY:453:CA:4043, V-A:GLY:453:C:4041, V-A:ASP:366:C:3207"]

$$$$
2h_Grossjean_2025
     RDKit          3D

 31 32  0  0  0  0  0  0  0  0999 V2000
  132.2080  133.0660   56.0890 C   0  0  0  0  0  0  0  0  0  0  0  0
  131.1520  133.5780   56.8930 O   0  0  0  0  0  0  0  0  0  0  0  0
  129.9340  132.9210   56.9140 C   0  0  0  0  0  0  0  0  0  0  0  0
  129.0170  132.9380   55.8510 C   0  0  0  0  0  0  0  0  0  0  0  0
  127.8130  132.2440   55.9420 C   0  0  0  0  0  0  0  0  0  0  0  0
  127.4970  131.5200   57.0930 C   0  0  0  0  0  0  0  0  0  0  0  0
  126.1790  130.7500   57.1610 C   0  0  0  0  0  0  0  0  0  0  0  0
  125.6570  130.6010   58.5190 N   0  0  0  0  0  0  0  0  0  0  0  0
  124.5420  131.1910   58.9860 C   0  0  0  0  0  0  0  0  0  0  0  0
  123.8800  131.9980   58.3300 O   0  0  0  0  0  0  0  0  0  0  0  0
  124.1260  130.7910   60.4080 C   0  0  0  0  0  0  0  0  0  0  0  0
  123.9470  132.1790   61.5780 S   0  0  0  0  0  0  0  0  0  0  0  0
  125.5190  133.0100   61.6350 C   0  0  0  0  0  0  0  0  0  0  0  0
  126.5800  132.1670   61.6890 N   0  0  0  0  0  0  0  0  0  0  0  0
  127.8230  132.6930   61.7540 C   0  0  0  0  0  0  0  0  0  0  0  0
  128.9600  131.6920   61.8200 C   0  0  0  0  0  0  0  0  0  0  0  0
  128.0590  134.0670   61.7620 C   0  0  0  0  0  0  0  0  0  0  0  0
  126.9750  134.9540   61.6860 C   0  0  0  0  0  0  0  0  0  0  0  0
  127.2570  136.4690   61.6870 C   0  0  0  0  0  0  0  0  0  0  0  0
  128.5720  136.6880   61.6940 F   0  0  0  0  0  0  0  0  0  0  0  0
  126.7540  137.0890   60.6170 F   0  0  0  0  0  0  0  0  0  0  0  0
  126.7180  137.0350   62.7680 F   0  0  0  0  0  0  0  0  0  0  0  0
  125.6650  134.4170   61.6100 C   0  0  0  0  0  0  0  0  0  0  0  0
  124.5030  135.3000   61.4690 C   0  0  0  0  0  0  0  0  0  0  0  0
  123.5890  135.9990   61.3550 N   0  0  0  0  0  0  0  0  0  0  0  0
  128.3930  131.5140   58.1720 C   0  0  0  0  0  0  0  0  0  0  0  0
  128.0880  130.8060   59.3100 O   0  0  0  0  0  0  0  0  0  0  0  0
  128.6180  129.4870   59.3400 C   0  0  0  0  0  0  0  0  0  0  0  0
  129.6170  132.1980   58.0710 C   0  0  0  0  0  0  0  0  0  0  0  0
  130.5050  132.1790   59.1190 O   0  0  0  0  0  0  0  0  0  0  0  0
  131.5790  131.2630   58.9540 C   0  0  0  0  0  0  0  0  0  0  0  0
  1  2  1  0
  2  3  1  0
  3  4  2  0
  4  5  1  0
  5  6  2  0
  6  7  1  0
  7  8  1  0
  8  9  1  0
  9 10  2  0
  9 11  1  0
 11 12  1  0
 12 13  1  0
 13 14  2  0
 14 15  1  0
 15 16  1  0
 15 17  2  0
 17 18  1  0
 18 19  1  0
 19 20  1  0
 19 21  1  0
 19 22  1  0
 18 23  2  0
 23 24  1  0
 24 25  3  0
  6 26  1  0
 26 27  1  0
 27 28  1  0
 26 29  2  0
 29 30  1  0
 30 31  1  0
 29  3  1  0
 23 13  1  0
M  END
>  <Binding energies>  (24) 
[-6.4]

>  <Ligand effiencies>  (24) 
[-0.2]

>  <Interactions>  (24) 
["V-A:LEU:363:CD1:3188, V-B:ILE:369:CG2:8208, V-B:TRP:381:CH2:8343, V-A:ILE:538:CB:4862, V-A:TYR:539:CE2:4876, V-B:TRP:381:CZ2:8341, V-A:TYR:539:C:4867, V-A:ILE:538:CG2:4863, V-B:LEU:475:CD1:9229, V-A:ILE:538:CA:4860, V-A:PRO:540:N:4884, V-B:PRO:482:CB:9297, V-A:MET:535:CE:4835, H-A:TYR:539:N:4870, V-A:TYR:539:CD2:4874, V-B:TRP:381:CE2:8338, V-A:ALA:541:CB:4892, V-A:PRO:540:CD:4887, V-B:PRO:482:CG:9298, H-B:ASP:366:OD2:8186, V-A:PRO:540:C:4881, V-A:TYR:539:CZ:4877, H-A:TYR:539:OH:4878, V-B:ASP:366:CG:8184, V-B:ASP:366:CB:8183, V-A:TYR:539:CE1:4875, V-B:ASP:366:CA:8181, V-A:TYR:539:CG:4872, V-B:TRP:381:CZ3:8342, V-B:TRP:381:CD2:8336, V-A:TYR:539:CB:4871, V-B:TRP:381:CE3:8339, V-A:ALA:541:CA:4890, V-A:TYR:539:CD1:4873, V-B:PRO:482:CD:9299"]

$$$$
2i_Grossjean_2025
     RDKit          3D

 23 24  0  0  0  0  0  0  0  0999 V2000
  128.9920  121.0320   60.9810 C   0  0  0  0  0  0  0  0  0  0  0  0
  128.5800  122.4090   60.4930 C   0  0  0  0  0  0  0  0  0  0  0  0
  129.3720  123.1370   59.6090 C   0  0  0  0  0  0  0  0  0  0  0  0
  128.9470  124.4050   59.1860 C   0  0  0  0  0  0  0  0  0  0  0  0
  129.8350  125.1970   58.2090 C   0  0  0  0  0  0  0  0  0  0  0  0
  131.0590  124.6670   58.1730 F   0  0  0  0  0  0  0  0  0  0  0  0
  129.3120  125.1620   56.9830 F   0  0  0  0  0  0  0  0  0  0  0  0
  129.9650  126.4810   58.5520 F   0  0  0  0  0  0  0  0  0  0  0  0
  127.7140  124.9050   59.6790 C   0  0  0  0  0  0  0  0  0  0  0  0
  127.2210  126.2240   59.2690 C   0  0  0  0  0  0  0  0  0  0  0  0
  126.8310  127.2640   58.9450 N   0  0  0  0  0  0  0  0  0  0  0  0
  126.9750  124.1000   60.5750 C   0  0  0  0  0  0  0  0  0  0  0  0
  125.4150  124.6280   61.2660 S   0  0  0  0  0  0  0  0  0  0  0  0
  124.0820  123.9690   60.2190 C   0  0  0  0  0  0  0  0  0  0  0  0
  124.4790  123.9080   58.7430 C   0  0  0  0  0  0  0  0  0  0  0  0
  123.8140  124.5360   57.9170 O   0  0  0  0  0  0  0  0  0  0  0  0
  125.5430  123.1290   58.4520 N   0  0  0  0  0  0  0  0  0  0  0  0
  126.0820  122.9000   57.1970 C   0  0  0  0  0  0  0  0  0  0  0  0
  126.8890  123.7220   56.3960 C   0  0  0  0  0  0  0  0  0  0  0  0
  127.1250  122.9810   55.2610 C   0  0  0  0  0  0  0  0  0  0  0  0
  126.5040  121.7830   55.3760 O   0  0  0  0  0  0  0  0  0  0  0  0
  125.8520  121.7450   56.6110 N   0  0  0  0  0  0  0  0  0  0  0  0
  127.4040  122.8740   60.9710 N   0  0  0  0  0  0  0  0  0  0  0  0
  1  2  1  0
  2  3  2  0
  3  4  1  0
  4  5  1  0
  5  6  1  0
  5  7  1  0
  5  8  1  0
  4  9  2  0
  9 10  1  0
 10 11  3  0
  9 12  1  0
 12 13  1  0
 13 14  1  0
 14 15  1  0
 15 16  2  0
 15 17  1  0
 17 18  1  0
 18 19  1  0
 19 20  2  0
 20 21  1  0
 21 22  1  0
 12 23  2  0
 23  2  1  0
 22 18  2  0
M  END
>  <Binding energies>  (25) 
[-6.43]

>  <Ligand effiencies>  (25) 
[-0.26791666666666664]

>  <Interactions>  (25) 
["V-B:TYR:539:CD2:9845, V-B:PRO:540:N:9855, V-B:TYR:539:CD1:9844, V-B:TYR:539:CE2:9847, V-B:MET:535:CE:9806, V-B:TYR:539:CE1:9846, V-B:PRO:540:CA:9854, V-B:TYR:539:C:9838, V-B:PRO:540:CB:9856, V-B:PRO:540:C:9852, V-B:PRO:540:CD:9858, V-B:LEU:363:CD1:8160, V-B:ALA:541:CB:9863, H-B:ALA:541:N:9862, V-B:ALA:541:CA:9861, H-B:ARG:545:NH2:9899, V-B:TYR:539:CZ:9848, H-B:TYR:539:N:9841, V-B:LEU:363:CA:8156, H-B:TYR:531:OH:9766, V-B:ASN:362:C:8143, V-B:ASN:362:CB:8147"]

$$$$
2k_Grossjean_2025
     RDKit          3D

 28 28  0  0  0  0  0  0  0  0999 V2000
  126.9600  126.2090   59.7380 C   0  0  0  0  0  0  0  0  0  0  0  0
  127.3200  124.9480   60.2790 O   0  0  0  0  0  0  0  0  0  0  0  0
  127.8150  125.0230   61.6100 C   0  0  0  0  0  0  0  0  0  0  0  0
  127.5420  123.7010   62.3390 C   0  0  0  0  0  0  0  0  0  0  0  0
  126.3610  123.1160   61.8110 O   0  0  0  0  0  0  0  0  0  0  0  0
  125.1590  123.5820   62.4120 C   0  0  0  0  0  0  0  0  0  0  0  0
  124.3630  124.3650   61.3590 C   0  0  0  0  0  0  0  0  0  0  0  0
  124.4330  123.6460   60.1380 O   0  0  0  0  0  0  0  0  0  0  0  0
  123.7130  124.2200   59.0570 C   0  0  0  0  0  0  0  0  0  0  0  0
  124.4700  123.9360   57.7460 C   0  0  0  0  0  0  0  0  0  0  0  0
  125.8290  123.4350   57.9680 N   0  0  0  0  0  0  0  0  0  0  0  0
  126.4840  122.5680   57.1720 C   0  0  0  0  0  0  0  0  0  0  0  0
  126.0090  122.1130   56.1290 O   0  0  0  0  0  0  0  0  0  0  0  0
  127.8800  122.1470   57.6520 C   0  0  0  0  0  0  0  0  0  0  0  0
  128.1020  122.0930   59.4640 S   0  0  0  0  0  0  0  0  0  0  0  0
  129.7270  122.7100   59.8830 C   0  0  0  0  0  0  0  0  0  0  0  0
  130.0630  123.9040   59.3320 N   0  0  0  0  0  0  0  0  0  0  0  0
  131.2790  124.4290   59.6020 C   0  0  0  0  0  0  0  0  0  0  0  0
  131.5830  125.7590   58.9410 C   0  0  0  0  0  0  0  0  0  0  0  0
  132.2010  123.7990   60.4340 C   0  0  0  0  0  0  0  0  0  0  0  0
  131.8720  122.5670   61.0210 C   0  0  0  0  0  0  0  0  0  0  0  0
  132.9020  121.8860   61.9430 C   0  0  0  0  0  0  0  0  0  0  0  0
  132.4510  121.7200   63.1870 F   0  0  0  0  0  0  0  0  0  0  0  0
  133.2150  120.6810   61.4650 F   0  0  0  0  0  0  0  0  0  0  0  0
  134.0100  122.6250   62.0130 F   0  0  0  0  0  0  0  0  0  0  0  0
  130.6020  122.0010   60.7400 C   0  0  0  0  0  0  0  0  0  0  0  0
  130.2070  120.7150   61.3220 C   0  0  0  0  0  0  0  0  0  0  0  0
  129.8960  119.7000   61.7830 N   0  0  0  0  0  0  0  0  0  0  0  0
  1  2  1  0
  2  3  1  0
  3  4  1  0
  4  5  1  0
  5  6  1  0
  6  7  1  0
  7  8  1  0
  8  9  1  0
  9 10  1  0
 10 11  1  0
 11 12  1  0
 12 13  2  0
 12 14  1  0
 14 15  1  0
 15 16  1  0
 16 17  2  0
 17 18  1  0
 18 19  1  0
 18 20  2  0
 20 21  1  0
 21 22  1  0
 22 23  1  0
 22 24  1  0
 22 25  1  0
 21 26  2  0
 26 27  1  0
 27 28  3  0
 26 16  1  0
M  END
>  <Binding energies>  (26) 
[-5.34]

>  <Ligand effiencies>  (26) 
[-0.18413793103448275]

>  <Interactions>  (26) 
["V-B:TYR:539:CD2:9845, V-B:PRO:540:N:9855, V-B:TYR:539:CD1:9844, V-B:TYR:539:CE2:9847, V-A:ILE:369:CG2:3236, V-B:TYR:539:CG:9843, V-A:LEU:475:CD2:4258, V-B:TYR:539:CE1:9846, V-B:PRO:540:CA:9854, V-B:TYR:539:C:9838, V-B:PRO:540:CB:9856, V-B:TYR:539:CA:9840, V-B:PRO:540:CD:9858, V-B:LEU:363:CD1:8160, V-B:ALA:541:CB:9863, H-B:ALA:541:N:9862, V-B:ASP:366:CG:8184, V-B:GLU:543:CD:9879, V-B:TYR:539:CZ:9848, H-B:TYR:539:N:9841, V-B:LEU:363:CA:8156, V-B:ASN:362:C:8143, V-B:LEU:363:CB:8158, V-A:ASP:366:CB:3211, V-A:ILE:369:CD1:3238, V-B:ASN:362:CB:8147, V-B:GLU:543:CG:9878, V-A:ILE:369:CB:3235, V-A:GLY:454:CA:4048, V-A:ILE:369:CG1:3237"]

$$$$
3aa_Grossjean_2025
     RDKit          3D

 34 36  0  0  0  0  0  0  0  0999 V2000
  132.1610  132.1130   58.0800 C   0  0  0  0  0  0  0  0  0  0  0  0
  132.0860  132.2940   56.5610 C   0  0  0  0  0  0  0  0  0  0  0  0
  131.1390  133.3080   56.2500 O   0  0  0  0  0  0  0  0  0  0  0  0
  129.9670  133.0050   55.6350 C   0  0  0  0  0  0  0  0  0  0  0  0
  129.8020  133.0770   54.4130 O   0  0  0  0  0  0  0  0  0  0  0  0
  128.8850  132.5880   56.5890 C   0  0  0  0  0  0  0  0  0  0  0  0
  128.9040  132.9590   57.9420 C   0  0  0  0  0  0  0  0  0  0  0  0
  127.8820  132.5590   58.7990 C   0  0  0  0  0  0  0  0  0  0  0  0
  126.8190  131.7900   58.3230 C   0  0  0  0  0  0  0  0  0  0  0  0
  125.8360  131.4430   59.2710 N   0  0  0  0  0  0  0  0  0  0  0  0
  124.5030  131.6600   59.2480 C   0  0  0  0  0  0  0  0  0  0  0  0
  123.8910  132.2490   58.3560 O   0  0  0  0  0  0  0  0  0  0  0  0
  123.7270  131.1250   60.4520 C   0  0  0  0  0  0  0  0  0  0  0  0
  123.7660  132.2860   61.8500 S   0  0  0  0  0  0  0  0  0  0  0  0
  125.3520  133.0930   61.8130 C   0  0  0  0  0  0  0  0  0  0  0  0
  126.3980  132.2340   61.8080 N   0  0  0  0  0  0  0  0  0  0  0  0
  127.6670  132.7180   61.7820 C   0  0  0  0  0  0  0  0  0  0  0  0
  128.7700  131.7040   61.7620 C   0  0  0  0  0  0  0  0  0  0  0  0
  130.0910  132.0900   61.4830 C   0  0  0  0  0  0  0  0  0  0  0  0
  131.1220  131.1540   61.4640 C   0  0  0  0  0  0  0  0  0  0  0  0
  130.8440  129.8170   61.7240 C   0  0  0  0  0  0  0  0  0  0  0  0
  129.5450  129.4090   62.0060 C   0  0  0  0  0  0  0  0  0  0  0  0
  128.5170  130.3480   62.0270 C   0  0  0  0  0  0  0  0  0  0  0  0
  127.9100  134.0950   61.7540 C   0  0  0  0  0  0  0  0  0  0  0  0
  126.8410  135.0050   61.7770 C   0  0  0  0  0  0  0  0  0  0  0  0
  127.1500  136.5140   61.7560 C   0  0  0  0  0  0  0  0  0  0  0  0
  126.6340  137.1630   62.8020 F   0  0  0  0  0  0  0  0  0  0  0  0
  128.4680  136.7150   61.7750 F   0  0  0  0  0  0  0  0  0  0  0  0
  126.6450  137.0660   60.6520 F   0  0  0  0  0  0  0  0  0  0  0  0
  125.5210  134.4950   61.8200 C   0  0  0  0  0  0  0  0  0  0  0  0
  124.3690  135.3980   61.9040 C   0  0  0  0  0  0  0  0  0  0  0  0
  123.4600  136.1110   61.9710 N   0  0  0  0  0  0  0  0  0  0  0  0
  126.8000  131.4040   56.9740 C   0  0  0  0  0  0  0  0  0  0  0  0
  127.8240  131.8020   56.1200 C   0  0  0  0  0  0  0  0  0  0  0  0
  1  2  1  0
  2  3  1  0
  3  4  1  0
  4  5  2  0
  4  6  1  0
  6  7  2  0
  7  8  1  0
  8  9  2  0
  9 10  1  0
 10 11  1  0
 11 12  2  0
 11 13  1  0
 13 14  1  0
 14 15  1  0
 15 16  2  0
 16 17  1  0
 17 18  1  0
 18 19  2  0
 19 20  1  0
 20 21  2  0
 21 22  1  0
 22 23  2  0
 17 24  2  0
 24 25  1  0
 25 26  1  0
 26 27  1  0
 26 28  1  0
 26 29  1  0
 25 30  2  0
 30 31  1  0
 31 32  3  0
  9 33  1  0
 33 34  2  0
 34  6  1  0
 30 15  1  0
 23 18  1  0
M  END
>  <Binding energies>  (27) 
[-8.46]

>  <Ligand effiencies>  (27) 
[-0.24171428571428574]

>  <Interactions>  (27) 
["V-B:ILE:369:CD1:8210, V-A:LEU:363:CD1:3188, V-B:ILE:369:CG2:8208, V-B:TRP:381:CH2:8343, V-A:ILE:538:CB:4862, V-A:TYR:539:CE2:4876, V-B:TRP:381:CZ2:8341, V-A:TYR:539:C:4867, V-A:ILE:538:C:4858, V-A:PRO:540:CA:4883, V-A:PRO:540:CB:4885, V-B:LEU:475:CD1:9229, V-A:ILE:538:CA:4860, V-A:PRO:540:N:4884, V-B:PRO:482:CB:9297, V-A:MET:535:CE:4835, H-A:TYR:539:N:4870, V-A:TYR:539:CD2:4874, V-B:TRP:381:CE2:8338, V-A:ALA:541:CB:4892, V-B:PRO:482:CG:9298, V-A:PRO:540:C:4881, V-A:TYR:539:CZ:4877, H-A:TYR:539:OH:4878, V-B:ASP:366:CG:8184, V-B:ASP:366:CB:8183, V-A:TYR:539:CE1:4875, V-B:ASP:366:CA:8181, V-A:TYR:539:CG:4872, V-B:TRP:381:CZ3:8342, V-B:TRP:381:CD2:8336, V-A:TYR:539:CB:4871, V-B:TRP:381:CE3:8339, V-A:ALA:541:CA:4890, V-A:TYR:539:CD1:4873"]

$$$$
3ad_Grossjean_2025
     RDKit          3D

 29 31  0  0  0  0  0  0  0  0999 V2000
  132.1130  130.4780   58.2040 N   0  0  0  0  0  0  0  0  0  0  0  0
  131.3120  131.1410   58.7110 C   0  0  0  0  0  0  0  0  0  0  0  0
  130.2990  131.9820   59.3580 C   0  0  0  0  0  0  0  0  0  0  0  0
  130.3610  132.2510   60.7470 C   0  0  0  0  0  0  0  0  0  0  0  0
  131.4980  131.7290   61.6460 C   0  0  0  0  0  0  0  0  0  0  0  0
  132.7100  132.0380   61.1820 F   0  0  0  0  0  0  0  0  0  0  0  0
  131.3880  132.2550   62.8680 F   0  0  0  0  0  0  0  0  0  0  0  0
  131.4340  130.4000   61.7400 F   0  0  0  0  0  0  0  0  0  0  0  0
  129.3410  133.0220   61.3250 C   0  0  0  0  0  0  0  0  0  0  0  0
  128.2890  133.5070   60.5420 C   0  0  0  0  0  0  0  0  0  0  0  0
  127.1660  134.3220   61.1110 C   0  0  0  0  0  0  0  0  0  0  0  0
  125.8370  133.8780   61.0160 C   0  0  0  0  0  0  0  0  0  0  0  0
  124.7910  134.6290   61.5430 C   0  0  0  0  0  0  0  0  0  0  0  0
  125.0600  135.8390   62.1760 C   0  0  0  0  0  0  0  0  0  0  0  0
  126.3680  136.2990   62.2860 C   0  0  0  0  0  0  0  0  0  0  0  0
  127.4120  135.5440   61.7580 C   0  0  0  0  0  0  0  0  0  0  0  0
  128.2310  133.2400   59.2120 N   0  0  0  0  0  0  0  0  0  0  0  0
  129.2140  132.5160   58.6270 C   0  0  0  0  0  0  0  0  0  0  0  0
  128.9810  132.2760   56.8800 S   0  0  0  0  0  0  0  0  0  0  0  0
  128.2940  130.6090   56.6510 C   0  0  0  0  0  0  0  0  0  0  0  0
  126.8400  130.5140   57.1210 C   0  0  0  0  0  0  0  0  0  0  0  0
  126.0080  129.9810   56.3860 O   0  0  0  0  0  0  0  0  0  0  0  0
  126.5900  131.0390   58.3390 N   0  0  0  0  0  0  0  0  0  0  0  0
  125.3840  131.1030   59.0610 C   0  0  0  0  0  0  0  0  0  0  0  0
  125.4650  130.7360   60.4080 C   0  0  0  0  0  0  0  0  0  0  0  0
  124.3290  130.7600   61.2130 C   0  0  0  0  0  0  0  0  0  0  0  0
  123.1070  131.1470   60.6710 C   0  0  0  0  0  0  0  0  0  0  0  0
  123.0100  131.5080   59.3290 C   0  0  0  0  0  0  0  0  0  0  0  0
  124.1440  131.4850   58.5210 C   0  0  0  0  0  0  0  0  0  0  0  0
  1  2  3  0
  2  3  1  0
  3  4  2  0
  4  5  1  0
  5  6  1  0
  5  7  1  0
  5  8  1  0
  4  9  1  0
  9 10  2  0
 10 11  1  0
 11 12  2  0
 12 13  1  0
 13 14  2  0
 14 15  1  0
 15 16  2  0
 10 17  1  0
 17 18  2  0
 18 19  1  0
 19 20  1  0
 20 21  1  0
 21 22  2  0
 21 23  1  0
 23 24  1  0
 24 25  2  0
 25 26  1  0
 26 27  2  0
 27 28  1  0
 28 29  2  0
 18  3  1  0
 29 24  1  0
 16 11  1  0
M  END
>  <Binding energies>  (28) 
[-7.42]

>  <Ligand effiencies>  (28) 
[-0.24733333333333332]

>  <Interactions>  (28) 
["V-B:ILE:369:CD1:8210, V-B:ILE:369:CG2:8208, V-B:TRP:381:CH2:8343, V-A:TYR:539:CE2:4876, V-B:TRP:381:CZ2:8341, V-A:TYR:539:C:4867, V-A:PRO:540:CA:4883, V-A:PRO:540:CB:4885, V-B:LEU:475:CD1:9229, V-B:PRO:482:CB:9297, V-A:MET:535:CE:4835, V-A:TYR:539:CD2:4874, V-A:ALA:541:CB:4892, V-A:PRO:540:C:4881, H-A:TYR:539:OH:4878, V-A:GLU:543:CD:4908, V-B:ASP:366:CG:8184, H-B:TYR:531:OH:9766, V-B:ASP:366:CB:8183, H-A:TYR:531:OH:4795, V-B:ASP:366:CA:8181, V-B:ILE:369:CB:8207, V-A:ALA:541:CA:4890, V-B:ASP:366:C:8179, V-A:ALA:541:C:4888"]

$$$$
3ai_Grossjean_2025
     RDKit          3D

 28 30  0  0  0  0  0  0  0  0999 V2000
  133.3710  122.6760   61.6080 N   0  0  0  0  0  0  0  0  0  0  0  0
  132.3390  122.7070   61.0870 C   0  0  0  0  0  0  0  0  0  0  0  0
  131.0300  122.7450   60.4270 C   0  0  0  0  0  0  0  0  0  0  0  0
  130.0860  121.7090   60.6310 C   0  0  0  0  0  0  0  0  0  0  0  0
  130.3470  120.5200   61.5750 C   0  0  0  0  0  0  0  0  0  0  0  0
  129.3470  119.6360   61.5830 F   0  0  0  0  0  0  0  0  0  0  0  0
  131.4520  119.8750   61.1990 F   0  0  0  0  0  0  0  0  0  0  0  0
  130.5030  120.9540   62.8260 F   0  0  0  0  0  0  0  0  0  0  0  0
  128.8660  121.7680   59.9390 C   0  0  0  0  0  0  0  0  0  0  0  0
  128.5980  122.8290   59.0680 C   0  0  0  0  0  0  0  0  0  0  0  0
  127.3170  122.9360   58.2960 C   0  0  0  0  0  0  0  0  0  0  0  0
  126.2120  123.6170   58.8320 C   0  0  0  0  0  0  0  0  0  0  0  0
  125.0220  123.7250   58.1190 C   0  0  0  0  0  0  0  0  0  0  0  0
  124.9200  123.1530   56.8550 C   0  0  0  0  0  0  0  0  0  0  0  0
  126.0010  122.4760   56.3000 C   0  0  0  0  0  0  0  0  0  0  0  0
  127.1900  122.3700   57.0150 C   0  0  0  0  0  0  0  0  0  0  0  0
  129.5090  123.8150   58.8690 N   0  0  0  0  0  0  0  0  0  0  0  0
  130.6840  123.7930   59.5440 C   0  0  0  0  0  0  0  0  0  0  0  0
  131.7410  125.1770   59.1730 S   0  0  0  0  0  0  0  0  0  0  0  0
  131.4620  126.4520   60.4480 C   0  0  0  0  0  0  0  0  0  0  0  0
  131.5270  125.9460   61.8970 C   0  0  0  0  0  0  0  0  0  0  0  0
  130.5300  125.4680   62.4430 O   0  0  0  0  0  0  0  0  0  0  0  0
  132.7380  126.0750   62.4850 N   0  0  0  0  0  0  0  0  0  0  0  0
  133.0900  125.7010   63.7750 C   0  0  0  0  0  0  0  0  0  0  0  0
  132.2570  125.8880   64.8780 C   0  0  0  0  0  0  0  0  0  0  0  0
  132.9640  125.3950   65.9490 C   0  0  0  0  0  0  0  0  0  0  0  0
  134.1610  124.9330   65.5160 O   0  0  0  0  0  0  0  0  0  0  0  0
  134.2290  125.1320   64.1360 N   0  0  0  0  0  0  0  0  0  0  0  0
  1  2  3  0
  2  3  1  0
  3  4  2  0
  4  5  1  0
  5  6  1  0
  5  7  1  0
  5  8  1  0
  4  9  1  0
  9 10  2  0
 10 11  1  0
 11 12  2  0
 12 13  1  0
 13 14  2  0
 14 15  1  0
 15 16  2  0
 10 17  1  0
 17 18  2  0
 18 19  1  0
 19 20  1  0
 20 21  1  0
 21 22  2  0
 21 23  1  0
 23 24  1  0
 24 25  1  0
 25 26  2  0
 26 27  1  0
 27 28  1  0
 18  3  1  0
 28 24  2  0
 16 11  1  0
M  END
>  <Binding energies>  (29) 
[-7.98]

>  <Ligand effiencies>  (29) 
[-0.2751724137931035]

>  <Interactions>  (29) 
["V-B:TYR:539:CD2:9845, V-B:PRO:540:N:9855, V-B:TYR:539:CD1:9844, V-B:TYR:539:CE2:9847, V-A:ILE:369:CG2:3236, V-B:MET:535:CE:9806, V-B:TYR:539:CG:9843, V-A:LEU:475:CD2:4258, V-B:TYR:539:CE1:9846, V-B:PRO:540:CA:9854, V-B:TYR:539:C:9838, V-B:PRO:540:CB:9856, V-B:TYR:539:CA:9840, V-B:PRO:540:C:9852, V-B:PRO:540:CD:9858, V-B:LEU:363:CD1:8160, V-B:ALA:541:CB:9863, V-B:ALA:541:CA:9861, V-A:HIS:456:CE1:4069, V-A:ARG:545:CZ:4926, V-B:TYR:539:CZ:9848, H-B:TYR:539:OH:9849, H-A:ASP:366:OD2:3214, H-A:ARG:545:NH2:4928, V-A:ASP:366:CG:3212, H-A:TYR:484:OH:4347, H-A:ARG:545:NH1:4927, H-A:GLY:454:N:4049, V-A:TRP:381:CZ2:3369, V-A:TRP:381:CH2:3371, V-A:PRO:482:CB:4325, V-A:ARG:545:CD:4923, H-A:ARG:545:NE:4924, V-A:LEU:475:CD1:4257, H-A:ASP:366:OD1:3213, V-A:PRO:482:CG:4326"]

$$$$
3aj_Grossjean_2025
     RDKit          3D

 28 30  0  0  0  0  0  0  0  0999 V2000
  132.1360  130.5790   58.1740 N   0  0  0  0  0  0  0  0  0  0  0  0
  131.3280  131.2310   58.6850 C   0  0  0  0  0  0  0  0  0  0  0  0
  130.3070  132.0580   59.3350 C   0  0  0  0  0  0  0  0  0  0  0  0
  130.3490  132.2950   60.7310 C   0  0  0  0  0  0  0  0  0  0  0  0
  131.4710  131.7480   61.6340 C   0  0  0  0  0  0  0  0  0  0  0  0
  131.4640  130.4150   61.7190 F   0  0  0  0  0  0  0  0  0  0  0  0
  132.6610  132.1150   61.1570 F   0  0  0  0  0  0  0  0  0  0  0  0
  131.3350  132.2260   62.8720 F   0  0  0  0  0  0  0  0  0  0  0  0
  129.3210  133.0530   61.3120 C   0  0  0  0  0  0  0  0  0  0  0  0
  128.2810  133.5570   60.5250 C   0  0  0  0  0  0  0  0  0  0  0  0
  127.1550  134.3640   61.0960 C   0  0  0  0  0  0  0  0  0  0  0  0
  127.4010  135.5980   61.7160 C   0  0  0  0  0  0  0  0  0  0  0  0
  126.3590  136.3550   62.2460 C   0  0  0  0  0  0  0  0  0  0  0  0
  125.0520  135.8840   62.1610 C   0  0  0  0  0  0  0  0  0  0  0  0
  124.7820  134.6650   61.5500 C   0  0  0  0  0  0  0  0  0  0  0  0
  125.8260  133.9130   61.0210 C   0  0  0  0  0  0  0  0  0  0  0  0
  128.2420  133.3200   59.1890 N   0  0  0  0  0  0  0  0  0  0  0  0
  129.2340  132.6110   58.6000 C   0  0  0  0  0  0  0  0  0  0  0  0
  129.0260  132.4230   56.8420 S   0  0  0  0  0  0  0  0  0  0  0  0
  128.2650  130.7920   56.5410 C   0  0  0  0  0  0  0  0  0  0  0  0
  126.7790  130.6900   56.9150 C   0  0  0  0  0  0  0  0  0  0  0  0
  126.0050  130.0040   56.2430 O   0  0  0  0  0  0  0  0  0  0  0  0
  126.4220  131.3980   58.0090 N   0  0  0  0  0  0  0  0  0  0  0  0
  125.1530  131.4780   58.5680 C   0  0  0  0  0  0  0  0  0  0  0  0
  124.0550  131.9450   58.0150 N   0  0  0  0  0  0  0  0  0  0  0  0
  123.0260  131.8640   58.8350 C   0  0  0  0  0  0  0  0  0  0  0  0
  123.2810  131.3190   60.0910 C   0  0  0  0  0  0  0  0  0  0  0  0
  124.9640  130.8960   60.1910 S   0  0  0  0  0  0  0  0  0  0  0  0
  1  2  3  0
  2  3  1  0
  3  4  2  0
  4  5  1  0
  5  6  1  0
  5  7  1  0
  5  8  1  0
  4  9  1  0
  9 10  2  0
 10 11  1  0
 11 12  2  0
 12 13  1  0
 13 14  2  0
 14 15  1  0
 15 16  2  0
 10 17  1  0
 17 18  2  0
 18 19  1  0
 19 20  1  0
 20 21  1  0
 21 22  2  0
 21 23  1  0
 23 24  1  0
 24 25  2  0
 25 26  1  0
 26 27  2  0
 27 28  1  0
 18  3  1  0
 28 24  1  0
 16 11  1  0
M  END
>  <Binding energies>  (30) 
[-7.58]

>  <Ligand effiencies>  (30) 
[-0.2613793103448276]

>  <Interactions>  (30) 
["V-B:ILE:369:CD1:8210, V-B:ILE:369:CG2:8208, V-B:TRP:381:CH2:8343, V-A:TYR:539:CE2:4876, V-B:TRP:381:CZ2:8341, V-A:TYR:539:C:4867, V-A:PRO:540:CA:4883, V-A:PRO:540:CB:4885, V-B:LEU:475:CD1:9229, V-B:PRO:482:CB:9297, V-A:MET:535:CE:4835, V-A:TYR:539:CD2:4874, V-A:ALA:541:CB:4892, V-A:PRO:540:C:4881, V-A:TYR:539:CZ:4877, H-A:TYR:539:OH:4878, V-A:GLU:543:CD:4908, V-B:ASP:366:CG:8184, H-B:TYR:531:OH:9766, V-B:ASP:366:CB:8183, V-B:ASP:366:CA:8181, V-B:ILE:369:CB:8207, V-A:ALA:541:CA:4890, V-B:ASP:366:C:8179, V-A:ALA:541:C:4888"]

$$$$
3ak_Grossjean_2025
     RDKit          3D

 33 34  0  0  0  0  0  0  0  0999 V2000
  129.3760  132.7740   57.1010 C   0  0  0  0  0  0  0  0  0  0  0  0
  130.2990  133.3720   56.2040 O   0  0  0  0  0  0  0  0  0  0  0  0
  131.6220  132.8730   56.3390 C   0  0  0  0  0  0  0  0  0  0  0  0
  131.6690  131.8920   57.5160 C   0  0  0  0  0  0  0  0  0  0  0  0
  131.9220  130.5820   57.0170 O   0  0  0  0  0  0  0  0  0  0  0  0
  132.2390  129.6010   58.0000 C   0  0  0  0  0  0  0  0  0  0  0  0
  131.0070  129.0180   58.7150 C   0  0  0  0  0  0  0  0  0  0  0  0
  130.5380  127.8880   57.9930 O   0  0  0  0  0  0  0  0  0  0  0  0
  131.2770  126.6990   58.2390 C   0  0  0  0  0  0  0  0  0  0  0  0
  130.3350  125.5760   58.7080 C   0  0  0  0  0  0  0  0  0  0  0  0
  129.6790  124.8640   57.6090 N   0  0  0  0  0  0  0  0  0  0  0  0
  128.8520  125.4100   56.6960 C   0  0  0  0  0  0  0  0  0  0  0  0
  128.5700  126.6090   56.6850 O   0  0  0  0  0  0  0  0  0  0  0  0
  128.2330  124.5020   55.6210 C   0  0  0  0  0  0  0  0  0  0  0  0
  127.0790  123.2080   56.2090 S   0  0  0  0  0  0  0  0  0  0  0  0
  127.1720  123.1240   57.9910 C   0  0  0  0  0  0  0  0  0  0  0  0
  128.3300  122.6320   58.4950 N   0  0  0  0  0  0  0  0  0  0  0  0
  128.4940  122.5230   59.8380 C   0  0  0  0  0  0  0  0  0  0  0  0
  129.8060  121.9690   60.3070 C   0  0  0  0  0  0  0  0  0  0  0  0
  130.9290  122.8010   60.4420 C   0  0  0  0  0  0  0  0  0  0  0  0
  132.1490  122.2930   60.8810 C   0  0  0  0  0  0  0  0  0  0  0  0
  132.2620  120.9430   61.1950 C   0  0  0  0  0  0  0  0  0  0  0  0
  131.1650  120.0980   61.0730 C   0  0  0  0  0  0  0  0  0  0  0  0
  129.9460  120.6090   60.6340 C   0  0  0  0  0  0  0  0  0  0  0  0
  127.4850  122.9280   60.7180 C   0  0  0  0  0  0  0  0  0  0  0  0
  126.2780  123.4430   60.2230 C   0  0  0  0  0  0  0  0  0  0  0  0
  125.1890  123.8770   61.2240 C   0  0  0  0  0  0  0  0  0  0  0  0
  125.2510  125.1930   61.4230 F   0  0  0  0  0  0  0  0  0  0  0  0
  123.9820  123.5680   60.7490 F   0  0  0  0  0  0  0  0  0  0  0  0
  125.3130  123.2850   62.4140 F   0  0  0  0  0  0  0  0  0  0  0  0
  126.1100  123.5440   58.8210 C   0  0  0  0  0  0  0  0  0  0  0  0
  124.8690  124.0740   58.2470 C   0  0  0  0  0  0  0  0  0  0  0  0
  123.8880  124.4910   57.7930 N   0  0  0  0  0  0  0  0  0  0  0  0
  1  2  1  0
  2  3  1  0
  3  4  1  0
  4  5  1  0
  5  6  1  0
  6  7  1  0
  7  8  1  0
  8  9  1  0
  9 10  1  0
 10 11  1  0
 11 12  1  0
 12 13  2  0
 12 14  1  0
 14 15  1  0
 15 16  1  0
 16 17  2  0
 17 18  1  0
 18 19  1  0
 19 20  2  0
 20 21  1  0
 21 22  2  0
 22 23  1  0
 23 24  2  0
 18 25  2  0
 25 26  1  0
 26 27  1  0
 27 28  1  0
 27 29  1  0
 27 30  1  0
 26 31  2  0
 31 32  1  0
 32 33  3  0
 31 16  1  0
 24 19  1  0
M  END
>  <Binding energies>  (31) 
[-6.79]

>  <Ligand effiencies>  (31) 
[-0.19970588235294118]

>  <Interactions>  (31) 
["V-A:LEU:363:CD1:3188, V-A:ILE:538:CB:4862, V-A:TYR:539:CE2:4876, V-A:TYR:539:C:4867, V-A:ILE:538:CA:4860, V-A:PRO:540:N:4884, H-A:TYR:539:N:4870, V-A:TYR:539:CD2:4874, V-A:PRO:540:CD:4887, V-B:TYR:539:CD2:9845, V-B:PRO:540:N:9855, V-B:TYR:539:CE2:9847, V-A:ILE:369:CG2:3236, V-A:LEU:475:CD2:4258, V-B:TYR:539:CE1:9846, V-B:PRO:540:CA:9854, V-B:PRO:540:CB:9856, V-B:PRO:540:C:9852, V-B:LEU:363:CD1:8160, V-B:ALA:541:CB:9863, V-B:ALA:541:CA:9861, V-A:TYR:531:CZ:4794, V-A:TYR:531:CE2:4793, V-B:ASP:366:CG:8184, V-B:GLU:543:CD:9879, V-B:TYR:539:CZ:9848, H-B:TYR:539:OH:9849, V-B:LEU:363:CA:8156, H-B:TYR:531:OH:9766, V-B:ASN:362:C:8143, V-A:ASP:366:CB:3211, V-A:ASP:366:CG:3212, V-B:ASN:362:CB:8147, H-A:TYR:531:OH:4795, V-B:GLU:543:CG:9878, V-B:ASN:362:CA:8145, V-A:TRP:381:CH2:3371, V-B:ALA:541:C:9859"]

$$$$
3bk_Grossjean_2025
     RDKit          3D

 30 31  0  0  0  0  0  0  0  0999 V2000
  133.1220  125.2050   65.2970 C   0  0  0  0  0  0  0  0  0  0  0  0
  133.8230  124.7430   64.1530 O   0  0  0  0  0  0  0  0  0  0  0  0
  133.5520  125.4990   62.9800 C   0  0  0  0  0  0  0  0  0  0  0  0
  133.9590  124.6900   61.7400 C   0  0  0  0  0  0  0  0  0  0  0  0
  133.0470  124.9570   60.6840 O   0  0  0  0  0  0  0  0  0  0  0  0
  133.5920  124.7470   59.3880 C   0  0  0  0  0  0  0  0  0  0  0  0
  132.4680  124.3430   58.4250 C   0  0  0  0  0  0  0  0  0  0  0  0
  132.0010  125.4960   57.7370 O   0  0  0  0  0  0  0  0  0  0  0  0
  131.2310  126.3760   58.5460 C   0  0  0  0  0  0  0  0  0  0  0  0
  129.8430  126.5650   57.9170 C   0  0  0  0  0  0  0  0  0  0  0  0
  129.4780  125.4600   57.0300 N   0  0  0  0  0  0  0  0  0  0  0  0
  128.3000  125.3240   56.3960 C   0  0  0  0  0  0  0  0  0  0  0  0
  127.3820  126.1410   56.4770 O   0  0  0  0  0  0  0  0  0  0  0  0
  128.1400  124.0850   55.5120 C   0  0  0  0  0  0  0  0  0  0  0  0
  126.9960  122.8700   56.2420 S   0  0  0  0  0  0  0  0  0  0  0  0
  127.0180  123.0450   58.0180 C   0  0  0  0  0  0  0  0  0  0  0  0
  128.1320  122.5890   58.6450 N   0  0  0  0  0  0  0  0  0  0  0  0
  128.2360  122.6780   59.9970 C   0  0  0  0  0  0  0  0  0  0  0  0
  129.5080  122.1710   60.6070 C   0  0  0  0  0  0  0  0  0  0  0  0
  129.8220  120.8020   60.5780 C   0  0  0  0  0  0  0  0  0  0  0  0
  131.0000  120.3250   61.1480 C   0  0  0  0  0  0  0  0  0  0  0  0
  131.8820  121.2120   61.7550 C   0  0  0  0  0  0  0  0  0  0  0  0
  131.5970  122.5730   61.7940 C   0  0  0  0  0  0  0  0  0  0  0  0
  130.4190  123.0470   61.2220 C   0  0  0  0  0  0  0  0  0  0  0  0
  127.2070  123.2420   60.7600 C   0  0  0  0  0  0  0  0  0  0  0  0
  126.0510  123.7160   60.1300 C   0  0  0  0  0  0  0  0  0  0  0  0
  124.9520  124.3230   61.0000 C   0  0  0  0  0  0  0  0  0  0  0  0
  125.9420  123.6210   58.7270 C   0  0  0  0  0  0  0  0  0  0  0  0
  124.7440  124.1110   58.0400 C   0  0  0  0  0  0  0  0  0  0  0  0
  123.7970  124.4970   57.4970 N   0  0  0  0  0  0  0  0  0  0  0  0
  1  2  1  0
  2  3  1  0
  3  4  1  0
  4  5  1  0
  5  6  1  0
  6  7  1  0
  7  8  1  0
  8  9  1  0
  9 10  1  0
 10 11  1  0
 11 12  1  0
 12 13  2  0
 12 14  1  0
 14 15  1  0
 15 16  1  0
 16 17  2  0
 17 18  1  0
 18 19  1  0
 19 20  2  0
 20 21  1  0
 21 22  2  0
 22 23  1  0
 23 24  2  0
 18 25  2  0
 25 26  1  0
 26 27  1  0
 26 28  2  0
 28 29  1  0
 29 30  3  0
 28 16  1  0
 24 19  1  0
M  END
>  <Binding energies>  (32) 
[-7.22]

>  <Ligand effiencies>  (32) 
[-0.2329032258064516]

>  <Interactions>  (32) 
["V-B:TYR:539:CD2:9845, V-B:PRO:540:N:9855, V-B:TYR:539:CE2:9847, V-A:ILE:369:CG2:3236, V-A:LEU:475:CD2:4258, V-B:TYR:539:CE1:9846, V-B:PRO:540:CA:9854, V-B:TYR:539:C:9838, V-B:PRO:540:CB:9856, V-B:LEU:363:CD1:8160, V-B:ALA:541:CB:9863, V-A:ARG:545:CZ:4926, V-B:TYR:539:CZ:9848, H-B:TYR:539:OH:9849, H-B:TYR:531:OH:9766, V-A:ASP:366:CB:3211, V-A:ASP:366:CG:3212, V-A:ILE:369:CD1:3238, H-A:GLY:454:N:4049, H-A:TYR:531:OH:4795, V-A:ILE:369:CB:3235, V-A:ASP:366:CA:3209, V-A:ASP:366:C:3207"]

$$$$
3cb_Grossjean_2025
     RDKit          3D

 30 32  0  0  0  0  0  0  0  0999 V2000
  127.8900  122.1380   58.4820 C   0  0  0  0  0  0  0  0  0  0  0  0
  127.3340  121.7560   57.2320 O   0  0  0  0  0  0  0  0  0  0  0  0
  126.4110  122.5340   56.6100 C   0  0  0  0  0  0  0  0  0  0  0  0
  125.7120  122.1410   55.6710 O   0  0  0  0  0  0  0  0  0  0  0  0
  126.3270  123.9230   57.1760 C   0  0  0  0  0  0  0  0  0  0  0  0
  127.2050  124.9430   56.7790 C   0  0  0  0  0  0  0  0  0  0  0  0
  127.0970  126.2200   57.3210 C   0  0  0  0  0  0  0  0  0  0  0  0
  126.1170  126.5050   58.2730 C   0  0  0  0  0  0  0  0  0  0  0  0
  126.0970  127.8310   58.7520 N   0  0  0  0  0  0  0  0  0  0  0  0
  126.2400  128.9970   58.0850 C   0  0  0  0  0  0  0  0  0  0  0  0
  126.4050  129.0980   56.8680 O   0  0  0  0  0  0  0  0  0  0  0  0
  126.1650  130.2500   58.9710 C   0  0  0  0  0  0  0  0  0  0  0  0
  124.4730  130.7990   59.3840 S   0  0  0  0  0  0  0  0  0  0  0  0
  124.4920  131.4070   61.0580 C   0  0  0  0  0  0  0  0  0  0  0  0
  124.0100  132.6680   61.1790 N   0  0  0  0  0  0  0  0  0  0  0  0
  123.9750  133.2340   62.4060 C   0  0  0  0  0  0  0  0  0  0  0  0
  123.4120  134.6410   62.4670 C   0  0  0  0  0  0  0  0  0  0  0  0
  124.4210  132.5760   63.5480 C   0  0  0  0  0  0  0  0  0  0  0  0
  124.9390  131.2780   63.4450 C   0  0  0  0  0  0  0  0  0  0  0  0
  125.4100  130.6160   64.6990 C   0  0  0  0  0  0  0  0  0  0  0  0
  126.7660  130.6510   65.0470 C   0  0  0  0  0  0  0  0  0  0  0  0
  127.2140  130.0470   66.2200 C   0  0  0  0  0  0  0  0  0  0  0  0
  126.3020  129.4050   67.0540 C   0  0  0  0  0  0  0  0  0  0  0  0
  124.9490  129.3670   66.7280 C   0  0  0  0  0  0  0  0  0  0  0  0
  124.5050  129.9740   65.5560 C   0  0  0  0  0  0  0  0  0  0  0  0
  124.9940  130.6750   62.1620 C   0  0  0  0  0  0  0  0  0  0  0  0
  125.6110  129.3570   61.9810 C   0  0  0  0  0  0  0  0  0  0  0  0
  126.0980  128.3170   61.8390 N   0  0  0  0  0  0  0  0  0  0  0  0
  125.2330  125.4920   58.6720 C   0  0  0  0  0  0  0  0  0  0  0  0
  125.3410  124.2150   58.1280 C   0  0  0  0  0  0  0  0  0  0  0  0
  1  2  1  0
  2  3  1  0
  3  4  2  0
  3  5  1  0
  5  6  2  0
  6  7  1  0
  7  8  2  0
  8  9  1  0
  9 10  1  0
 10 11  2  0
 10 12  1  0
 12 13  1  0
 13 14  1  0
 14 15  2  0
 15 16  1  0
 16 17  1  0
 16 18  2  0
 18 19  1  0
 19 20  1  0
 20 21  2  0
 21 22  1  0
 22 23  2  0
 23 24  1  0
 24 25  2  0
 19 26  2  0
 26 27  1  0
 27 28  3  0
  8 29  1  0
 29 30  2  0
 30  5  1  0
 26 14  1  0
 25 20  1  0
M  END
>  <Binding energies>  (33) 
[-8.42]

>  <Ligand effiencies>  (33) 
[-0.27161290322580645]

>  <Interactions>  (33) 
["V-B:ILE:369:CD1:8210, V-B:ILE:369:CG2:8208, V-B:LEU:475:CD1:9229, V-B:TYR:539:CD2:9845, V-B:PRO:540:N:9855, V-B:TYR:539:CE2:9847, V-B:TYR:539:CG:9843, V-B:PRO:540:CA:9854, V-B:TYR:539:C:9838, V-B:PRO:540:CB:9856, H-B:ASP:366:OD2:8186, V-B:PRO:540:CD:9858, V-B:GLY:454:CA:9020, V-B:ARG:545:CG:9893, V-B:ARG:545:CD:9894, V-B:HIS:456:CE1:9041, H-B:ARG:545:NH2:9899, V-B:ARG:545:CZ:9897, V-A:GLU:543:CG:4907, V-B:ASP:366:CG:8184, V-B:TYR:539:CZ:9848, H-B:TYR:539:N:9841, H-B:TYR:531:OH:9766, V-B:ASP:366:CB:8183, V-B:SER:385:C:8376"]

$$$$
3ch_Grossjean_2025
     RDKit          3D

 32 34  0  0  0  0  0  0  0  0999 V2000
  132.3910  131.8650   54.5580 C   0  0  0  0  0  0  0  0  0  0  0  0
  132.1700  132.5150   55.8040 O   0  0  0  0  0  0  0  0  0  0  0  0
  131.4920  131.8510   56.8110 C   0  0  0  0  0  0  0  0  0  0  0  0
  131.9520  130.6730   57.4220 C   0  0  0  0  0  0  0  0  0  0  0  0
  131.2150  130.0590   58.4450 C   0  0  0  0  0  0  0  0  0  0  0  0
  131.5960  128.8830   59.1190 N   0  0  0  0  0  0  0  0  0  0  0  0
  130.8850  127.7620   59.3680 C   0  0  0  0  0  0  0  0  0  0  0  0
  129.7220  127.5610   59.0170 O   0  0  0  0  0  0  0  0  0  0  0  0
  131.6340  126.6580   60.1130 C   0  0  0  0  0  0  0  0  0  0  0  0
  131.9840  125.2270   59.0490 S   0  0  0  0  0  0  0  0  0  0  0  0
  130.5940  124.1300   59.2220 C   0  0  0  0  0  0  0  0  0  0  0  0
  130.7090  123.2530   60.2500 N   0  0  0  0  0  0  0  0  0  0  0  0
  129.7070  122.3700   60.4630 C   0  0  0  0  0  0  0  0  0  0  0  0
  129.9040  121.4150   61.6240 C   0  0  0  0  0  0  0  0  0  0  0  0
  128.5650  122.3260   59.6670 C   0  0  0  0  0  0  0  0  0  0  0  0
  128.4230  123.2290   58.6050 C   0  0  0  0  0  0  0  0  0  0  0  0
  127.1850  123.1380   57.7720 C   0  0  0  0  0  0  0  0  0  0  0  0
  127.2200  122.5000   56.5270 C   0  0  0  0  0  0  0  0  0  0  0  0
  126.0730  122.4180   55.7420 C   0  0  0  0  0  0  0  0  0  0  0  0
  124.8830  122.9790   56.2000 C   0  0  0  0  0  0  0  0  0  0  0  0
  124.8330  123.6230   57.4330 C   0  0  0  0  0  0  0  0  0  0  0  0
  125.9830  123.7040   58.2150 C   0  0  0  0  0  0  0  0  0  0  0  0
  129.4570  124.1740   58.3810 C   0  0  0  0  0  0  0  0  0  0  0  0
  129.3190  125.2020   57.3450 C   0  0  0  0  0  0  0  0  0  0  0  0
  129.2120  126.0130   56.5270 N   0  0  0  0  0  0  0  0  0  0  0  0
  130.0000  130.6220   58.8390 C   0  0  0  0  0  0  0  0  0  0  0  0
  129.5180  131.7960   58.2410 C   0  0  0  0  0  0  0  0  0  0  0  0
  128.3270  132.4090   58.5910 O   0  0  0  0  0  0  0  0  0  0  0  0
  128.1880  132.9830   59.8860 C   0  0  0  0  0  0  0  0  0  0  0  0
  130.2720  132.4000   57.2270 C   0  0  0  0  0  0  0  0  0  0  0  0
  129.8200  133.5610   56.6460 O   0  0  0  0  0  0  0  0  0  0  0  0
  129.1250  133.3630   55.4220 C   0  0  0  0  0  0  0  0  0  0  0  0
  1  2  1  0
  2  3  1  0
  3  4  2  0
  4  5  1  0
  5  6  1  0
  6  7  1  0
  7  8  2  0
  7  9  1  0
  9 10  1  0
 10 11  1  0
 11 12  2  0
 12 13  1  0
 13 14  1  0
 13 15  2  0
 15 16  1  0
 16 17  1  0
 17 18  2  0
 18 19  1  0
 19 20  2  0
 20 21  1  0
 21 22  2  0
 16 23  2  0
 23 24  1  0
 24 25  3  0
  5 26  2  0
 26 27  1  0
 27 28  1  0
 28 29  1  0
 27 30  2  0
 30 31  1  0
 31 32  1  0
 30  3  1  0
 23 11  1  0
 22 17  1  0
M  END
>  <Binding energies>  (34) 
[-8.26]

>  <Ligand effiencies>  (34) 
[-0.2503030303030303]

>  <Interactions>  (34) 
["V-A:LEU:363:CD1:3188, V-A:ILE:538:CB:4862, V-A:TYR:539:CE2:4876, V-A:ILE:538:C:4858, V-A:ILE:538:CG2:4863, V-A:ILE:538:CA:4860, V-A:MET:535:CE:4835, H-A:TYR:539:N:4870, V-A:TYR:539:CD2:4874, V-B:TYR:539:CD2:9845, V-B:PRO:540:N:9855, V-B:TYR:539:CD1:9844, V-B:TYR:539:CE2:9847, V-B:MET:535:CE:9806, V-B:TYR:539:CG:9843, V-B:ILE:538:CA:9831, V-B:TYR:539:CE1:9846, V-B:PRO:540:CA:9854, V-B:TYR:539:C:9838, V-B:PRO:540:CB:9856, V-B:LEU:363:CD1:8160, V-B:ALA:541:CB:9863, V-A:TYR:539:CZ:4877, V-A:TYR:531:CD2:4791, V-A:TYR:531:CZ:4794, V-A:TYR:531:CE2:4793, V-A:MET:535:CG:4833, V-B:TYR:539:CZ:9848, H-B:TYR:539:OH:9849, V-A:ASP:366:CB:3211, H-A:ASP:366:OD2:3214, V-A:ASP:366:CG:3212, H-A:TYR:531:OH:4795, V-A:TYR:539:CE1:4875, V-A:TYR:539:CG:4872, V-A:TYR:539:CD1:4873, H-A:ASP:366:OD1:3213"]

$$$$
3ci_Grossjean_2025
     RDKit          3D

 25 27  0  0  0  0  0  0  0  0999 V2000
  127.9310  135.7440   61.7460 C   0  0  0  0  0  0  0  0  0  0  0  0
  128.0100  134.2950   61.3030 C   0  0  0  0  0  0  0  0  0  0  0  0
  127.0310  133.7240   60.4950 C   0  0  0  0  0  0  0  0  0  0  0  0
  127.1570  132.3850   60.0970 C   0  0  0  0  0  0  0  0  0  0  0  0
  126.0900  131.8180   59.2180 C   0  0  0  0  0  0  0  0  0  0  0  0
  124.7360  131.9870   59.5340 C   0  0  0  0  0  0  0  0  0  0  0  0
  123.7460  131.4490   58.7160 C   0  0  0  0  0  0  0  0  0  0  0  0
  124.1070  130.7330   57.5790 C   0  0  0  0  0  0  0  0  0  0  0  0
  125.4490  130.5480   57.2550 C   0  0  0  0  0  0  0  0  0  0  0  0
  126.4360  131.0880   58.0750 C   0  0  0  0  0  0  0  0  0  0  0  0
  128.2830  131.6510   60.5480 C   0  0  0  0  0  0  0  0  0  0  0  0
  128.4460  130.2350   60.2000 C   0  0  0  0  0  0  0  0  0  0  0  0
  128.5730  129.1180   59.9230 N   0  0  0  0  0  0  0  0  0  0  0  0
  129.2340  132.3110   61.3630 C   0  0  0  0  0  0  0  0  0  0  0  0
  130.7030  131.4890   61.9680 S   0  0  0  0  0  0  0  0  0  0  0  0
  132.1060  131.8600   60.8660 C   0  0  0  0  0  0  0  0  0  0  0  0
  131.7400  131.8140   59.3780 C   0  0  0  0  0  0  0  0  0  0  0  0
  132.2560  130.9570   58.6580 O   0  0  0  0  0  0  0  0  0  0  0  0
  130.8650  132.7550   58.9600 N   0  0  0  0  0  0  0  0  0  0  0  0
  130.3500  132.9150   57.6800 C   0  0  0  0  0  0  0  0  0  0  0  0
  129.0430  132.5710   57.3380 C   0  0  0  0  0  0  0  0  0  0  0  0
  128.9320  132.8760   56.0000 C   0  0  0  0  0  0  0  0  0  0  0  0
  130.1110  133.3790   55.5620 O   0  0  0  0  0  0  0  0  0  0  0  0
  131.0020  133.3970   56.6350 N   0  0  0  0  0  0  0  0  0  0  0  0
  129.0900  133.6080   61.7350 N   0  0  0  0  0  0  0  0  0  0  0  0
  1  2  1  0
  2  3  2  0
  3  4  1  0
  4  5  1  0
  5  6  2  0
  6  7  1  0
  7  8  2  0
  8  9  1  0
  9 10  2  0
  4 11  2  0
 11 12  1  0
 12 13  3  0
 11 14  1  0
 14 15  1  0
 15 16  1  0
 16 17  1  0
 17 18  2  0
 17 19  1  0
 19 20  1  0
 20 21  1  0
 21 22  2  0
 22 23  1  0
 23 24  1  0
 14 25  2  0
 25  2  1  0
 10  5  1  0
 24 20  2  0
M  END
>  <Binding energies>  (35) 
[-7.93]

>  <Ligand effiencies>  (35) 
[-0.305]

>  <Interactions>  (35) 
["V-B:ILE:369:CG2:8208, V-A:TYR:539:CE2:4876, V-A:TYR:539:C:4867, V-A:PRO:540:CA:4883, V-A:PRO:540:CB:4885, V-A:PRO:540:N:4884, H-A:ALA:541:N:4891, V-B:PRO:482:CB:9297, V-A:MET:535:CE:4835, H-A:TYR:539:N:4870, V-A:TYR:539:CD2:4874, V-A:ALA:541:CB:4892, H-A:TYR:539:O:4868, V-B:PRO:482:CG:9298, V-A:TYR:539:CZ:4877, V-B:ASP:366:CG:8184, V-B:ASP:366:CB:8183, V-A:TYR:539:CE1:4875, V-B:ASP:366:CA:8181, V-A:TYR:539:CG:4872, V-B:ILE:369:CB:8207, V-A:ALA:541:CA:4890, V-B:ASP:366:C:8179, V-A:TYR:539:CD1:4873"]

$$$$
3ck_Grossjean_2025
     RDKit          3D

 30 31  0  0  0  0  0  0  0  0999 V2000
  129.4220  133.1700   57.2390 C   0  0  0  0  0  0  0  0  0  0  0  0
  130.0990  133.3760   56.0080 O   0  0  0  0  0  0  0  0  0  0  0  0
  131.4460  132.9250   56.0210 C   0  0  0  0  0  0  0  0  0  0  0  0
  131.5430  131.5740   55.3000 C   0  0  0  0  0  0  0  0  0  0  0  0
  131.6680  130.5350   56.2630 O   0  0  0  0  0  0  0  0  0  0  0  0
  132.7380  130.7250   57.1800 C   0  0  0  0  0  0  0  0  0  0  0  0
  132.3410  130.1390   58.5400 C   0  0  0  0  0  0  0  0  0  0  0  0
  131.1220  129.4290   58.3830 O   0  0  0  0  0  0  0  0  0  0  0  0
  129.9550  130.1710   58.7020 C   0  0  0  0  0  0  0  0  0  0  0  0
  128.8750  129.9170   57.6330 C   0  0  0  0  0  0  0  0  0  0  0  0
  129.2820  128.9620   56.5980 N   0  0  0  0  0  0  0  0  0  0  0  0
  128.4500  128.2260   55.8390 C   0  0  0  0  0  0  0  0  0  0  0  0
  127.2220  128.2970   55.9180 O   0  0  0  0  0  0  0  0  0  0  0  0
  129.1320  127.2750   54.8420 C   0  0  0  0  0  0  0  0  0  0  0  0
  129.7410  125.7050   55.5480 S   0  0  0  0  0  0  0  0  0  0  0  0
  128.3450  124.6950   56.0180 C   0  0  0  0  0  0  0  0  0  0  0  0
  127.8930  123.8400   55.0660 N   0  0  0  0  0  0  0  0  0  0  0  0
  126.8360  123.0470   55.3530 C   0  0  0  0  0  0  0  0  0  0  0  0
  126.3870  122.1200   54.2400 C   0  0  0  0  0  0  0  0  0  0  0  0
  126.1910  123.0730   56.5870 C   0  0  0  0  0  0  0  0  0  0  0  0
  126.6360  123.9530   57.5830 C   0  0  0  0  0  0  0  0  0  0  0  0
  125.9000  123.9630   58.8820 C   0  0  0  0  0  0  0  0  0  0  0  0
  126.5620  123.6290   60.0690 C   0  0  0  0  0  0  0  0  0  0  0  0
  125.8790  123.6270   61.2830 C   0  0  0  0  0  0  0  0  0  0  0  0
  124.5260  123.9540   61.3120 C   0  0  0  0  0  0  0  0  0  0  0  0
  123.8510  124.2800   60.1390 C   0  0  0  0  0  0  0  0  0  0  0  0
  124.5360  124.2810   58.9270 C   0  0  0  0  0  0  0  0  0  0  0  0
  127.7530  124.7810   57.3000 C   0  0  0  0  0  0  0  0  0  0  0  0
  128.2880  125.6910   58.3180 C   0  0  0  0  0  0  0  0  0  0  0  0
  128.7110  126.4090   59.1220 N   0  0  0  0  0  0  0  0  0  0  0  0
  1  2  1  0
  2  3  1  0
  3  4  1  0
  4  5  1  0
  5  6  1  0
  6  7  1  0
  7  8  1  0
  8  9  1  0
  9 10  1  0
 10 11  1  0
 11 12  1  0
 12 13  2  0
 12 14  1  0
 14 15  1  0
 15 16  1  0
 16 17  2  0
 17 18  1  0
 18 19  1  0
 18 20  2  0
 20 21  1  0
 21 22  1  0
 22 23  2  0
 23 24  1  0
 24 25  2  0
 25 26  1  0
 26 27  2  0
 21 28  2  0
 28 29  1  0
 29 30  3  0
 28 16  1  0
 27 22  1  0
M  END
>  <Binding energies>  (36) 
[-6.97]

>  <Ligand effiencies>  (36) 
[-0.22483870967741934]

>  <Interactions>  (36) 
["V-A:LEU:363:CD1:3188, V-A:ILE:538:CB:4862, V-A:TYR:539:CE2:4876, V-A:TYR:539:C:4867, V-A:ILE:538:CG2:4863, V-A:ILE:538:CA:4860, V-A:PRO:540:N:4884, V-A:MET:535:CE:4835, H-A:TYR:539:N:4870, V-A:TYR:539:CD2:4874, V-A:TYR:539:CA:4869, V-B:TYR:539:CD1:9844, V-B:MET:535:CE:9806, V-B:ILE:538:CA:9831, V-B:TYR:539:CE1:9846, V-B:PRO:540:CA:9854, V-B:PRO:540:CB:9856, V-A:TYR:531:CZ:4794, V-A:TYR:531:CE2:4793, V-A:MET:535:CG:4833, V-B:ASP:366:CG:8184, V-B:TYR:539:CZ:9848, H-B:TYR:539:OH:9849, V-B:LEU:363:CA:8156, H-B:TYR:531:OH:9766, V-B:ASN:362:C:8143, V-A:ASP:366:CB:3211, V-A:ASP:366:CG:3212, V-B:VAL:537:C:9821, V-B:ILE:538:CD1:9836, V-B:ASN:362:CB:8147, H-A:TYR:531:OH:4795, V-A:TYR:539:CG:4872, V-B:ILE:538:CB:9833, V-B:ILE:538:C:9829, V-A:TYR:539:CD1:4873"]

$$$$
4aa_Grossjean_2025
     RDKit          3D

 26 28  0  0  0  0  0  0  0  0999 V2000
  130.0140  125.1490   67.3230 C   0  0  0  0  0  0  0  0  0  0  0  0
  131.0840  126.1720   66.9310 C   0  0  0  0  0  0  0  0  0  0  0  0
  132.3650  125.5560   66.9750 O   0  0  0  0  0  0  0  0  0  0  0  0
  132.9970  125.1690   65.8370 C   0  0  0  0  0  0  0  0  0  0  0  0
  134.2260  125.1580   65.7100 O   0  0  0  0  0  0  0  0  0  0  0  0
  132.0520  124.7610   64.7440 C   0  0  0  0  0  0  0  0  0  0  0  0
  131.6950  125.6960   63.7630 C   0  0  0  0  0  0  0  0  0  0  0  0
  130.8180  125.3500   62.7390 C   0  0  0  0  0  0  0  0  0  0  0  0
  130.2860  124.0610   62.6690 C   0  0  0  0  0  0  0  0  0  0  0  0
  129.4040  123.8210   61.5990 N   0  0  0  0  0  0  0  0  0  0  0  0
  128.0980  123.4580   61.6080 C   0  0  0  0  0  0  0  0  0  0  0  0
  127.4520  123.2230   62.6290 O   0  0  0  0  0  0  0  0  0  0  0  0
  127.4770  123.3270   60.2880 C   0  0  0  0  0  0  0  0  0  0  0  0
  128.2620  122.3740   59.0250 S   0  0  0  0  0  0  0  0  0  0  0  0
  126.9920  122.7560   57.8840 C   0  0  0  0  0  0  0  0  0  0  0  0
  127.0050  122.2920   56.6340 N   0  0  0  0  0  0  0  0  0  0  0  0
  125.9640  122.6670   55.8500 C   0  0  0  0  0  0  0  0  0  0  0  0
  126.0000  122.1320   54.4300 C   0  0  0  0  0  0  0  0  0  0  0  0
  124.9210  123.4820   56.2840 C   0  0  0  0  0  0  0  0  0  0  0  0
  124.9100  123.9660   57.5970 C   0  0  0  0  0  0  0  0  0  0  0  0
  123.7500  124.8520   58.0240 C   0  0  0  0  0  0  0  0  0  0  0  0
  125.9880  123.5980   58.4480 C   0  0  0  0  0  0  0  0  0  0  0  0
  126.2910  123.9120   59.8190 C   0  0  0  0  0  0  0  0  0  0  0  0
  125.4780  124.7110   60.5830 N   0  0  0  0  0  0  0  0  0  0  0  0
  130.6330  123.1200   63.6490 C   0  0  0  0  0  0  0  0  0  0  0  0
  131.5090  123.4690   64.6750 C   0  0  0  0  0  0  0  0  0  0  0  0
  1  2  1  0
  2  3  1  0
  3  4  1  0
  4  5  2  0
  4  6  1  0
  6  7  2  0
  7  8  1  0
  8  9  2  0
  9 10  1  0
 10 11  1  0
 11 12  2  0
 11 13  1  0
 13 14  1  0
 14 15  1  0
 15 16  2  0
 16 17  1  0
 17 18  1  0
 17 19  2  0
 19 20  1  0
 20 21  1  0
 20 22  2  0
 22 23  1  0
 23 24  1  0
  9 25  1  0
 25 26  2  0
 26  6  1  0
 23 13  2  0
 22 15  1  0
M  END
>  <Binding energies>  (37) 
[-7.96]

>  <Ligand effiencies>  (37) 
[-0.27448275862068966]

>  <Interactions>  (37) 
["V-B:TYR:539:CD2:9845, V-B:PRO:540:N:9855, V-B:TYR:539:CE2:9847, V-B:MET:535:CE:9806, V-B:ILE:538:CA:9831, V-B:ILE:538:CG2:9834, V-B:PRO:540:CA:9854, V-B:TYR:539:C:9838, V-B:PRO:540:CB:9856, H-B:ASP:366:OD2:8186, V-B:LEU:363:CD1:8160, V-B:ALA:541:CB:9863, H-B:ALA:541:N:9862, V-A:GLU:543:CD:4908, V-A:HIS:456:CE1:4069, V-B:ASP:366:CG:8184, V-A:ARG:545:CZ:4926, H-B:GLU:543:OE2:9881, V-B:TYR:539:CZ:9848, H-B:TYR:539:N:9841, V-B:LEU:363:CA:8156, V-B:TYR:531:CZ:9765, V-B:TYR:531:CE2:9764, V-B:ASP:366:CB:8183, V-B:ILE:538:CD1:9836, V-A:TYR:484:CZ:4346, H-A:TYR:484:OH:4347, H-A:GLY:454:N:4049, V-B:GLU:543:CG:9878, V-B:GLU:543:CB:9877, V-B:ILE:538:CB:9833, V-B:ILE:538:C:9829, H-A:ARG:545:NE:4924, V-A:TYR:484:CE1:4344, H-A:HIS:456:ND1:4066, V-B:ILE:538:CG1:9835"]

$$$$
4ab_Grossjean_2025
     RDKit          3D

 25 27  0  0  0  0  0  0  0  0999 V2000
  135.0120  125.1240   66.6760 C   0  0  0  0  0  0  0  0  0  0  0  0
  134.0460  125.2970   65.6500 O   0  0  0  0  0  0  0  0  0  0  0  0
  132.7420  125.5310   65.9490 C   0  0  0  0  0  0  0  0  0  0  0  0
  132.3690  126.0500   67.0060 O   0  0  0  0  0  0  0  0  0  0  0  0
  131.7980  125.0880   64.8690 C   0  0  0  0  0  0  0  0  0  0  0  0
  131.8170  125.7470   63.6330 C   0  0  0  0  0  0  0  0  0  0  0  0
  130.9520  125.3610   62.6120 C   0  0  0  0  0  0  0  0  0  0  0  0
  130.0580  124.3070   62.8030 C   0  0  0  0  0  0  0  0  0  0  0  0
  129.2260  124.0070   61.7070 N   0  0  0  0  0  0  0  0  0  0  0  0
  128.0270  123.3760   61.6680 C   0  0  0  0  0  0  0  0  0  0  0  0
  127.4620  122.9010   62.6540 O   0  0  0  0  0  0  0  0  0  0  0  0
  127.4240  123.2630   60.3390 C   0  0  0  0  0  0  0  0  0  0  0  0
  128.2090  122.3010   59.0840 S   0  0  0  0  0  0  0  0  0  0  0  0
  126.9660  122.7110   57.9250 C   0  0  0  0  0  0  0  0  0  0  0  0
  126.9890  122.2530   56.6730 N   0  0  0  0  0  0  0  0  0  0  0  0
  125.9680  122.6480   55.8750 C   0  0  0  0  0  0  0  0  0  0  0  0
  126.0160  122.1200   54.4530 C   0  0  0  0  0  0  0  0  0  0  0  0
  124.9310  123.4780   56.2960 C   0  0  0  0  0  0  0  0  0  0  0  0
  124.9100  123.9570   57.6110 C   0  0  0  0  0  0  0  0  0  0  0  0
  123.7580  124.8620   58.0230 C   0  0  0  0  0  0  0  0  0  0  0  0
  125.9670  123.5680   58.4770 C   0  0  0  0  0  0  0  0  0  0  0  0
  126.2570  123.8720   59.8530 C   0  0  0  0  0  0  0  0  0  0  0  0
  125.4490  124.6850   60.6080 N   0  0  0  0  0  0  0  0  0  0  0  0
  130.0280  123.6450   64.0390 C   0  0  0  0  0  0  0  0  0  0  0  0
  130.8920  124.0340   65.0600 C   0  0  0  0  0  0  0  0  0  0  0  0
  1  2  1  0
  2  3  1  0
  3  4  2  0
  3  5  1  0
  5  6  2  0
  6  7  1  0
  7  8  2  0
  8  9  1  0
  9 10  1  0
 10 11  2  0
 10 12  1  0
 12 13  1  0
 13 14  1  0
 14 15  2  0
 15 16  1  0
 16 17  1  0
 16 18  2  0
 18 19  1  0
 19 20  1  0
 19 21  2  0
 21 22  1  0
 22 23  1  0
  8 24  1  0
 24 25  2  0
 25  5  1  0
 22 12  2  0
 21 14  1  0
M  END
>  <Binding energies>  (38) 
[-7.95]

>  <Ligand effiencies>  (38) 
[-0.2839285714285714]

>  <Interactions>  (38) 
["V-B:TYR:539:CD2:9845, V-B:PRO:540:N:9855, V-B:TYR:539:CD1:9844, V-B:TYR:539:CE2:9847, V-B:MET:535:CE:9806, V-B:ILE:538:CA:9831, V-B:ILE:538:CG2:9834, V-B:PRO:540:CA:9854, V-B:TYR:539:C:9838, V-B:PRO:540:CB:9856, H-B:ASP:366:OD2:8186, V-B:LEU:363:CD1:8160, V-B:ALA:541:CB:9863, H-B:ALA:541:N:9862, V-A:HIS:456:CE1:4069, V-B:ASP:366:CG:8184, V-A:ARG:545:CZ:4926, H-B:GLU:543:OE2:9881, V-B:TYR:539:CZ:9848, H-B:TYR:539:N:9841, V-B:LEU:363:CA:8156, V-B:TYR:531:CZ:9765, V-B:TYR:531:CE2:9764, V-B:ASP:366:CB:8183, V-B:ILE:538:CD1:9836, H-A:TYR:484:OH:4347, H-A:GLY:454:N:4049, V-B:GLU:543:CG:9878, V-B:ILE:538:CB:9833, V-B:ILE:538:C:9829, V-A:GLY:454:CA:4048, V-A:GLY:453:CA:4043, V-A:GLY:453:C:4041, V-A:ARG:545:CG:4922, V-A:ARG:545:CD:4923, H-A:ARG:545:NE:4924, H-A:HIS:456:ND1:4066, V-B:ILE:538:CG1:9835, V-A:ILE:455:C:4051, V-A:GLY:454:C:4046"]

$$$$
4ac_Grossjean_2025
     RDKit          3D

 23 25  0  0  0  0  0  0  0  0999 V2000
  133.6460  125.4960   66.6360 C   0  0  0  0  0  0  0  0  0  0  0  0
  134.0300  124.8300   65.4370 O   0  0  0  0  0  0  0  0  0  0  0  0
  133.0570  124.4670   64.5270 C   0  0  0  0  0  0  0  0  0  0  0  0
  132.5090  125.4940   63.7590 C   0  0  0  0  0  0  0  0  0  0  0  0
  131.5230  125.2240   62.8140 C   0  0  0  0  0  0  0  0  0  0  0  0
  131.0770  123.9170   62.6180 C   0  0  0  0  0  0  0  0  0  0  0  0
  130.0680  123.7420   61.6520 N   0  0  0  0  0  0  0  0  0  0  0  0
  128.7260  123.6720   61.8170 C   0  0  0  0  0  0  0  0  0  0  0  0
  128.1620  123.7220   62.9130 O   0  0  0  0  0  0  0  0  0  0  0  0
  127.9480  123.5210   60.5840 C   0  0  0  0  0  0  0  0  0  0  0  0
  128.5420  122.4980   59.2760 S   0  0  0  0  0  0  0  0  0  0  0  0
  127.1400  122.8590   58.2930 C   0  0  0  0  0  0  0  0  0  0  0  0
  126.9790  122.3420   57.0750 N   0  0  0  0  0  0  0  0  0  0  0  0
  125.8500  122.7020   56.4200 C   0  0  0  0  0  0  0  0  0  0  0  0
  125.6860  122.1030   55.0360 C   0  0  0  0  0  0  0  0  0  0  0  0
  124.8870  123.5610   56.9480 C   0  0  0  0  0  0  0  0  0  0  0  0
  125.0600  124.1030   58.2270 C   0  0  0  0  0  0  0  0  0  0  0  0
  123.9820  125.0350   58.7600 C   0  0  0  0  0  0  0  0  0  0  0  0
  126.2320  123.7450   58.9460 C   0  0  0  0  0  0  0  0  0  0  0  0
  126.7160  124.1050   60.2510 C   0  0  0  0  0  0  0  0  0  0  0  0
  126.0210  124.9480   61.0820 N   0  0  0  0  0  0  0  0  0  0  0  0
  131.6130  122.8800   63.3950 C   0  0  0  0  0  0  0  0  0  0  0  0
  132.5990  123.1530   64.3400 C   0  0  0  0  0  0  0  0  0  0  0  0
  1  2  1  0
  2  3  1  0
  3  4  2  0
  4  5  1  0
  5  6  2  0
  6  7  1  0
  7  8  1  0
  8  9  2  0
  8 10  1  0
 10 11  1  0
 11 12  1  0
 12 13  2  0
 13 14  1  0
 14 15  1  0
 14 16  2  0
 16 17  1  0
 17 18  1  0
 17 19  2  0
 19 20  1  0
 20 21  1  0
  6 22  1  0
 22 23  2  0
 23  3  1  0
 20 10  2  0
 19 12  1  0
M  END
>  <Binding energies>  (39) 
[-7.69]

>  <Ligand effiencies>  (39) 
[-0.2957692307692308]

>  <Interactions>  (39) 
["V-B:TYR:539:CD2:9845, V-B:PRO:540:N:9855, V-B:TYR:539:CE2:9847, V-B:MET:535:CE:9806, V-B:ILE:538:CA:9831, V-B:ILE:538:CG2:9834, V-B:PRO:540:CA:9854, V-B:TYR:539:C:9838, V-B:PRO:540:CB:9856, H-B:ASP:366:OD2:8186, V-B:PRO:540:CD:9858, V-B:LEU:363:CD1:8160, V-A:HIS:456:CE1:4069, V-B:ASP:366:CG:8184, V-A:ARG:545:CZ:4926, H-B:GLU:543:OE2:9881, V-B:TYR:539:CZ:9848, H-B:TYR:539:N:9841, V-B:LEU:363:CA:8156, V-B:ASP:366:CB:8183, V-B:ILE:538:CD1:9836, H-A:TYR:484:OH:4347, H-A:GLY:454:N:4049, V-B:ILE:538:CB:9833, V-B:ILE:538:C:9829, V-A:GLY:454:CA:4048, V-A:ARG:545:CG:4922, V-A:ARG:545:CD:4923"]

$$$$
4ad_Grossjean_2025
     RDKit          3D

 21 23  0  0  0  0  0  0  0  0999 V2000
  126.6690  122.1320   54.4810 C   0  0  0  0  0  0  0  0  0  0  0  0
  126.3780  122.6450   55.8790 C   0  0  0  0  0  0  0  0  0  0  0  0
  125.2570  123.4300   56.1370 C   0  0  0  0  0  0  0  0  0  0  0  0
  125.0100  123.8940   57.4350 C   0  0  0  0  0  0  0  0  0  0  0  0
  123.7740  124.7490   57.6670 C   0  0  0  0  0  0  0  0  0  0  0  0
  125.9340  123.5360   58.4530 C   0  0  0  0  0  0  0  0  0  0  0  0
  125.9890  123.8290   59.8600 C   0  0  0  0  0  0  0  0  0  0  0  0
  125.0310  124.5870   60.4870 N   0  0  0  0  0  0  0  0  0  0  0  0
  127.0990  123.2740   60.5170 C   0  0  0  0  0  0  0  0  0  0  0  0
  127.4720  123.3850   61.9280 C   0  0  0  0  0  0  0  0  0  0  0  0
  126.7460  122.9190   62.8080 O   0  0  0  0  0  0  0  0  0  0  0  0
  128.6500  124.0120   62.1690 N   0  0  0  0  0  0  0  0  0  0  0  0
  129.2670  124.3160   63.3980 C   0  0  0  0  0  0  0  0  0  0  0  0
  129.4790  123.2350   64.2600 C   0  0  0  0  0  0  0  0  0  0  0  0
  130.0910  123.4320   65.4940 C   0  0  0  0  0  0  0  0  0  0  0  0
  130.5020  124.7090   65.8660 C   0  0  0  0  0  0  0  0  0  0  0  0
  130.3090  125.7920   65.0110 C   0  0  0  0  0  0  0  0  0  0  0  0
  129.6950  125.5990   63.7760 C   0  0  0  0  0  0  0  0  0  0  0  0
  128.1090  122.3600   59.3960 S   0  0  0  0  0  0  0  0  0  0  0  0
  127.0430  122.7280   58.0590 C   0  0  0  0  0  0  0  0  0  0  0  0
  127.2800  122.2840   56.8230 N   0  0  0  0  0  0  0  0  0  0  0  0
  1  2  1  0
  2  3  2  0
  3  4  1  0
  4  5  1  0
  4  6  2  0
  6  7  1  0
  7  8  1  0
  7  9  2  0
  9 10  1  0
 10 11  2  0
 10 12  1  0
 12 13  1  0
 13 14  2  0
 14 15  1  0
 15 16  2  0
 16 17  1  0
 17 18  2  0
  9 19  1  0
 19 20  1  0
 20 21  2  0
 21  2  1  0
 20  6  1  0
 18 13  1  0
M  END
>  <Binding energies>  (40) 
[-7.54]

>  <Ligand effiencies>  (40) 
[-0.31416666666666665]

>  <Interactions>  (40) 
["V-B:TYR:539:CD2:9845, V-B:PRO:540:N:9855, V-B:TYR:539:CD1:9844, V-B:TYR:539:CE2:9847, V-B:MET:535:CE:9806, V-B:ILE:538:CA:9831, V-B:TYR:539:CE1:9846, V-B:PRO:540:CA:9854, V-B:TYR:539:C:9838, V-B:PRO:540:CB:9856, H-B:ASP:366:OD2:8186, V-B:LEU:363:CD1:8160, V-B:ALA:541:CB:9863, H-B:ALA:541:N:9862, V-B:ASP:366:CG:8184, V-B:GLU:543:CD:9879, H-B:TYR:539:N:9841, V-B:LEU:363:CA:8156, V-B:TYR:531:CZ:9765, V-B:TYR:531:CE2:9764, V-B:ASP:366:CB:8183, V-B:VAL:537:C:9821, V-B:ILE:538:CD1:9836, V-A:TYR:484:CZ:4346, V-B:GLU:543:CG:9878, V-B:ILE:538:C:9829, V-A:TYR:484:CE1:4344"]

$$$$
4ae_Grossjean_2025
     RDKit          3D

 22 24  0  0  0  0  0  0  0  0999 V2000
  129.7920  126.5850   65.8670 C   0  0  0  0  0  0  0  0  0  0  0  0
  130.0570  125.3190   65.0770 C   0  0  0  0  0  0  0  0  0  0  0  0
  130.9980  124.3760   65.5000 C   0  0  0  0  0  0  0  0  0  0  0  0
  131.1950  123.2380   64.7180 C   0  0  0  0  0  0  0  0  0  0  0  0
  130.4560  123.0710   63.5440 C   0  0  0  0  0  0  0  0  0  0  0  0
  129.5240  124.0500   63.1830 C   0  0  0  0  0  0  0  0  0  0  0  0
  128.8260  123.8360   61.9810 N   0  0  0  0  0  0  0  0  0  0  0  0
  127.5370  123.4510   61.8060 C   0  0  0  0  0  0  0  0  0  0  0  0
  126.7600  123.2150   62.7330 O   0  0  0  0  0  0  0  0  0  0  0  0
  127.1050  123.3200   60.4130 C   0  0  0  0  0  0  0  0  0  0  0  0
  128.0490  122.3580   59.2740 S   0  0  0  0  0  0  0  0  0  0  0  0
  126.9540  122.7420   57.9670 C   0  0  0  0  0  0  0  0  0  0  0  0
  127.1390  122.2770   56.7320 N   0  0  0  0  0  0  0  0  0  0  0  0
  126.2210  122.6540   55.8100 C   0  0  0  0  0  0  0  0  0  0  0  0
  126.4540  122.1190   54.4080 C   0  0  0  0  0  0  0  0  0  0  0  0
  125.1300  123.4750   56.0920 C   0  0  0  0  0  0  0  0  0  0  0  0
  124.9380  123.9610   57.3900 C   0  0  0  0  0  0  0  0  0  0  0  0
  123.7360  124.8570   57.6490 C   0  0  0  0  0  0  0  0  0  0  0  0
  125.8830  123.5880   58.3850 C   0  0  0  0  0  0  0  0  0  0  0  0
  125.9920  123.9020   59.7850 C   0  0  0  0  0  0  0  0  0  0  0  0
  125.0820  124.7000   60.4310 N   0  0  0  0  0  0  0  0  0  0  0  0
  129.3310  125.1700   63.9400 N   0  0  0  0  0  0  0  0  0  0  0  0
  1  2  1  0
  2  3  2  0
  3  4  1  0
  4  5  2  0
  5  6  1  0
  6  7  1  0
  7  8  1  0
  8  9  2  0
  8 10  1  0
 10 11  1  0
 11 12  1  0
 12 13  2  0
 13 14  1  0
 14 15  1  0
 14 16  2  0
 16 17  1  0
 17 18  1  0
 17 19  2  0
 19 20  1  0
 20 21  1  0
  6 22  2  0
 22  2  1  0
 20 10  2  0
 19 12  1  0
M  END
>  <Binding energies>  (41) 
[-7.41]

>  <Ligand effiencies>  (41) 
[-0.2964]

>  <Interactions>  (41) 
["V-B:TYR:539:CD2:9845, V-B:PRO:540:N:9855, V-B:TYR:539:CD1:9844, V-B:TYR:539:CE2:9847, V-B:MET:535:CE:9806, V-B:ILE:538:CA:9831, V-B:TYR:539:CE1:9846, V-B:PRO:540:CA:9854, V-B:TYR:539:C:9838, V-B:PRO:540:CB:9856, H-B:ASP:366:OD2:8186, V-B:LEU:363:CD1:8160, V-B:ALA:541:CB:9863, H-B:ALA:541:N:9862, V-A:GLU:543:CD:4908, V-B:ASP:366:CG:8184, V-B:GLU:543:CD:9879, H-B:GLU:543:OE2:9881, H-B:TYR:539:N:9841, V-B:LEU:363:CA:8156, V-B:TYR:531:CZ:9765, V-B:TYR:531:CE2:9764, V-B:ASP:366:CB:8183, V-B:VAL:537:C:9821, V-B:ILE:538:CD1:9836, V-A:TYR:484:CZ:4346, V-B:GLU:543:CG:9878, V-B:ILE:538:CB:9833, V-B:ILE:538:C:9829"]

$$$$
4af_Grossjean_2025
     RDKit          3D

 21 23  0  0  0  0  0  0  0  0999 V2000
  126.7740  122.1180   54.9050 C   0  0  0  0  0  0  0  0  0  0  0  0
  126.7360  123.3890   55.7340 C   0  0  0  0  0  0  0  0  0  0  0  0
  125.7750  123.5690   56.7270 C   0  0  0  0  0  0  0  0  0  0  0  0
  125.7570  124.7510   57.4780 C   0  0  0  0  0  0  0  0  0  0  0  0
  124.6890  124.9020   58.5490 C   0  0  0  0  0  0  0  0  0  0  0  0
  126.7390  125.7360   57.1870 C   0  0  0  0  0  0  0  0  0  0  0  0
  127.0050  127.0350   57.7460 C   0  0  0  0  0  0  0  0  0  0  0  0
  126.2510  127.5610   58.7650 N   0  0  0  0  0  0  0  0  0  0  0  0
  128.0930  127.6970   57.1570 C   0  0  0  0  0  0  0  0  0  0  0  0
  128.6180  129.0320   57.4560 C   0  0  0  0  0  0  0  0  0  0  0  0
  128.0680  129.7480   58.2930 O   0  0  0  0  0  0  0  0  0  0  0  0
  129.7290  129.3850   56.7650 N   0  0  0  0  0  0  0  0  0  0  0  0
  130.4450  130.5970   56.7810 C   0  0  0  0  0  0  0  0  0  0  0  0
  131.8030  130.7380   57.1220 C   0  0  0  0  0  0  0  0  0  0  0  0
  132.3890  132.0050   57.1140 C   0  0  0  0  0  0  0  0  0  0  0  0
  131.6010  133.1050   56.7690 C   0  0  0  0  0  0  0  0  0  0  0  0
  130.2880  132.9960   56.4440 N   0  0  0  0  0  0  0  0  0  0  0  0
  129.7330  131.7590   56.4570 C   0  0  0  0  0  0  0  0  0  0  0  0
  128.8200  126.7190   55.8800 S   0  0  0  0  0  0  0  0  0  0  0  0
  127.6670  125.4310   56.1470 C   0  0  0  0  0  0  0  0  0  0  0  0
  127.6880  124.3060   55.4300 N   0  0  0  0  0  0  0  0  0  0  0  0
  1  2  1  0
  2  3  2  0
  3  4  1  0
  4  5  1  0
  4  6  2  0
  6  7  1  0
  7  8  1  0
  7  9  2  0
  9 10  1  0
 10 11  2  0
 10 12  1  0
 12 13  1  0
 13 14  2  0
 14 15  1  0
 15 16  2  0
 16 17  1  0
 17 18  2  0
  9 19  1  0
 19 20  1  0
 20 21  2  0
 21  2  1  0
 20  6  1  0
 18 13  1  0
M  END
>  <Binding energies>  (42) 
[-6.92]

>  <Ligand effiencies>  (42) 
[-0.28833333333333333]

>  <Interactions>  (42) 
["V-A:LEU:363:CD1:3188, V-A:ILE:538:CB:4862, V-A:TYR:539:C:4867, V-A:PRO:540:CA:4883, V-A:PRO:540:CB:4885, V-A:PRO:540:N:4884, V-A:MET:535:CE:4835, H-A:TYR:539:N:4870, V-A:PRO:540:CD:4887, V-B:TYR:539:CD1:9844, V-B:MET:535:CE:9806, V-B:ILE:538:CA:9831, V-B:TYR:539:CE1:9846, H-B:ASP:366:OD2:8186, V-A:TYR:531:CZ:4794, V-A:TYR:531:CE2:4793, V-B:ASP:366:CG:8184, H-B:TYR:531:OH:9766, V-B:ASP:366:CB:8183, V-B:ILE:538:CD1:9836, H-A:TYR:531:OH:4795, V-B:ILE:538:C:9829"]

$$$$
4ag_Grossjean_2025
     RDKit          3D

 22 24  0  0  0  0  0  0  0  0999 V2000
  126.4490  122.1410   54.4500 C   0  0  0  0  0  0  0  0  0  0  0  0
  126.2250  122.6850   55.8480 C   0  0  0  0  0  0  0  0  0  0  0  0
  125.1120  123.4710   56.1420 C   0  0  0  0  0  0  0  0  0  0  0  0
  124.9230  123.9610   57.4390 C   0  0  0  0  0  0  0  0  0  0  0  0
  123.6930  124.8140   57.7100 C   0  0  0  0  0  0  0  0  0  0  0  0
  125.8950  123.6300   58.4210 C   0  0  0  0  0  0  0  0  0  0  0  0
  126.0130  123.9560   59.8160 C   0  0  0  0  0  0  0  0  0  0  0  0
  125.0840  124.7270   60.4710 N   0  0  0  0  0  0  0  0  0  0  0  0
  127.1520  123.4190   60.4320 C   0  0  0  0  0  0  0  0  0  0  0  0
  127.5750  123.5410   61.8270 C   0  0  0  0  0  0  0  0  0  0  0  0
  127.0320  122.8890   62.7220 O   0  0  0  0  0  0  0  0  0  0  0  0
  128.5720  124.4160   62.0710 N   0  0  0  0  0  0  0  0  0  0  0  0
  129.1680  124.6780   63.3810 C   0  0  0  0  0  0  0  0  0  0  0  0
  130.3490  123.7750   63.7160 C   0  0  0  0  0  0  0  0  0  0  0  0
  131.6460  124.1710   63.3760 C   0  0  0  0  0  0  0  0  0  0  0  0
  132.7290  123.3590   63.7030 C   0  0  0  0  0  0  0  0  0  0  0  0
  132.5130  122.1600   64.3790 C   0  0  0  0  0  0  0  0  0  0  0  0
  131.2250  121.7670   64.7350 C   0  0  0  0  0  0  0  0  0  0  0  0
  130.1420  122.5790   64.4090 C   0  0  0  0  0  0  0  0  0  0  0  0
  128.1130  122.4770   59.2900 S   0  0  0  0  0  0  0  0  0  0  0  0
  126.9880  122.8170   57.9940 C   0  0  0  0  0  0  0  0  0  0  0  0
  127.1700  122.3470   56.7590 N   0  0  0  0  0  0  0  0  0  0  0  0
  1  2  1  0
  2  3  2  0
  3  4  1  0
  4  5  1  0
  4  6  2  0
  6  7  1  0
  7  8  1  0
  7  9  2  0
  9 10  1  0
 10 11  2  0
 10 12  1  0
 12 13  1  0
 13 14  1  0
 14 15  2  0
 15 16  1  0
 16 17  2  0
 17 18  1  0
 18 19  2  0
  9 20  1  0
 20 21  1  0
 21 22  2  0
 22  2  1  0
 21  6  1  0
 19 14  1  0
M  END
>  <Binding energies>  (43) 
[-7.56]

>  <Ligand effiencies>  (43) 
[-0.3024]

>  <Interactions>  (43) 
["V-B:TYR:539:CD2:9845, V-B:PRO:540:N:9855, V-B:TYR:539:CD1:9844, V-B:TYR:539:CE2:9847, V-B:MET:535:CE:9806, V-B:ILE:538:CA:9831, V-A:LEU:475:CD2:4258, V-B:TYR:539:CE1:9846, V-B:PRO:540:CA:9854, V-B:TYR:539:C:9838, V-B:PRO:540:CB:9856, H-B:ASP:366:OD2:8186, V-B:LEU:363:CD1:8160, V-B:ALA:541:CB:9863, H-B:ALA:541:N:9862, V-B:ASP:366:CG:8184, V-B:GLU:543:CD:9879, H-B:TYR:539:N:9841, V-B:LEU:363:CA:8156, V-B:TYR:531:CZ:9765, V-B:TYR:531:CE2:9764, V-B:ASP:366:CB:8183, V-B:VAL:537:C:9821, V-B:ILE:538:CD1:9836, V-A:TYR:484:CZ:4346, V-B:GLU:543:CG:9878, V-B:ILE:538:C:9829, V-A:GLY:454:CA:4048, V-A:LEU:475:CD1:4257, V-A:TYR:484:CE1:4344, V-A:LEU:475:CG:4256"]

$$$$
4ah_Grossjean_2025
     RDKit          3D

 28 30  0  0  0  0  0  0  0  0999 V2000
  130.4560  126.1910   67.2540 C   0  0  0  0  0  0  0  0  0  0  0  0
  131.7250  125.8730   66.6960 O   0  0  0  0  0  0  0  0  0  0  0  0
  131.8830  125.8770   65.3210 C   0  0  0  0  0  0  0  0  0  0  0  0
  131.0830  126.6250   64.4430 C   0  0  0  0  0  0  0  0  0  0  0  0
  131.2990  126.5790   63.0650 C   0  0  0  0  0  0  0  0  0  0  0  0
  130.4510  127.4350   62.1310 C   0  0  0  0  0  0  0  0  0  0  0  0
  129.6060  126.6540   61.2270 N   0  0  0  0  0  0  0  0  0  0  0  0
  129.0120  125.4810   61.5310 C   0  0  0  0  0  0  0  0  0  0  0  0
  129.1610  124.9230   62.6200 O   0  0  0  0  0  0  0  0  0  0  0  0
  128.2040  124.8780   60.4720 C   0  0  0  0  0  0  0  0  0  0  0  0
  128.9870  124.1130   59.0880 S   0  0  0  0  0  0  0  0  0  0  0  0
  127.4380  123.7400   58.3630 C   0  0  0  0  0  0  0  0  0  0  0  0
  127.3410  123.1000   57.1970 N   0  0  0  0  0  0  0  0  0  0  0  0
  126.0840  122.8710   56.7470 C   0  0  0  0  0  0  0  0  0  0  0  0
  125.9950  122.1440   55.4180 C   0  0  0  0  0  0  0  0  0  0  0  0
  124.9330  123.2620   57.4290 C   0  0  0  0  0  0  0  0  0  0  0  0
  125.0380  123.9360   58.6510 C   0  0  0  0  0  0  0  0  0  0  0  0
  123.7540  124.3430   59.3570 C   0  0  0  0  0  0  0  0  0  0  0  0
  126.3420  124.1960   59.1550 C   0  0  0  0  0  0  0  0  0  0  0  0
  126.8070  124.8530   60.3470 C   0  0  0  0  0  0  0  0  0  0  0  0
  125.9490  125.3910   61.2710 N   0  0  0  0  0  0  0  0  0  0  0  0
  132.3400  125.8010   62.5570 C   0  0  0  0  0  0  0  0  0  0  0  0
  133.1510  125.0380   63.4100 C   0  0  0  0  0  0  0  0  0  0  0  0
  134.1890  124.2340   62.9740 O   0  0  0  0  0  0  0  0  0  0  0  0
  133.9000  122.9320   62.4750 C   0  0  0  0  0  0  0  0  0  0  0  0
  132.9080  125.0800   64.7900 C   0  0  0  0  0  0  0  0  0  0  0  0
  133.7070  124.3520   65.6400 O   0  0  0  0  0  0  0  0  0  0  0  0
  134.4490  125.1440   66.5560 C   0  0  0  0  0  0  0  0  0  0  0  0
  1  2  1  0
  2  3  1  0
  3  4  2  0
  4  5  1  0
  5  6  1  0
  6  7  1  0
  7  8  1  0
  8  9  2  0
  8 10  1  0
 10 11  1  0
 11 12  1  0
 12 13  2  0
 13 14  1  0
 14 15  1  0
 14 16  2  0
 16 17  1  0
 17 18  1  0
 17 19  2  0
 19 20  1  0
 20 21  1  0
  5 22  2  0
 22 23  1  0
 23 24  1  0
 24 25  1  0
 23 26  2  0
 26 27  1  0
 27 28  1  0
 26  3  1  0
 20 10  2  0
 19 12  1  0
M  END
>  <Binding energies>  (44) 
[-6.93]

>  <Ligand effiencies>  (44) 
[-0.2235483870967742]

>  <Interactions>  (44) 
["V-B:PRO:540:N:9855, V-B:TYR:539:CD1:9844, V-B:TYR:539:CE2:9847, V-A:ILE:369:CG2:3236, V-B:MET:535:CE:9806, V-B:ILE:538:CA:9831, V-B:PRO:540:CA:9854, V-B:PRO:540:CB:9856, H-B:ASP:366:OD2:8186, V-B:PRO:540:CD:9858, V-B:LEU:363:CD1:8160, V-A:GLU:543:CD:4908, V-A:HIS:456:CE1:4069, V-B:ASP:366:CG:8184, V-A:ARG:545:CZ:4926, H-B:GLU:543:OE2:9881, V-B:LEU:363:CA:8156, V-B:ASN:362:C:8143, V-B:LEU:363:CB:8158, V-A:ASP:366:CG:3212, V-A:ILE:369:CD1:3238, V-B:ILE:538:CD1:9836, H-A:TYR:484:OH:4347, H-A:GLY:454:N:4049, V-B:ILE:538:C:9829, V-A:GLY:454:CA:4048, V-A:GLY:453:CA:4043, V-A:GLY:453:C:4041, V-A:ARG:545:CG:4922, V-A:ARG:545:CD:4923"]

$$$$
4ai_Grossjean_2025
     RDKit          3D

 20 22  0  0  0  0  0  0  0  0999 V2000
  126.3740  122.1260   54.3450 C   0  0  0  0  0  0  0  0  0  0  0  0
  126.2200  122.6090   55.7760 C   0  0  0  0  0  0  0  0  0  0  0  0
  125.1570  123.4320   56.1440 C   0  0  0  0  0  0  0  0  0  0  0  0
  125.0300  123.8600   57.4700 C   0  0  0  0  0  0  0  0  0  0  0  0
  123.8530  124.7560   57.8230 C   0  0  0  0  0  0  0  0  0  0  0  0
  126.0110  123.4270   58.4040 C   0  0  0  0  0  0  0  0  0  0  0  0
  126.1830  123.6700   59.8100 C   0  0  0  0  0  0  0  0  0  0  0  0
  125.3180  124.4560   60.5300 N   0  0  0  0  0  0  0  0  0  0  0  0
  127.3010  123.0290   60.3670 C   0  0  0  0  0  0  0  0  0  0  0  0
  127.7770  123.0660   61.7520 C   0  0  0  0  0  0  0  0  0  0  0  0
  126.9900  123.2420   62.6830 O   0  0  0  0  0  0  0  0  0  0  0  0
  129.1110  122.8780   61.9130 N   0  0  0  0  0  0  0  0  0  0  0  0
  129.8230  122.8540   63.1050 C   0  0  0  0  0  0  0  0  0  0  0  0
  129.7090  123.8450   64.0800 C   0  0  0  0  0  0  0  0  0  0  0  0
  130.5660  123.4600   65.0850 C   0  0  0  0  0  0  0  0  0  0  0  0
  131.1630  122.2960   64.7350 O   0  0  0  0  0  0  0  0  0  0  0  0
  130.6830  121.9210   63.4790 N   0  0  0  0  0  0  0  0  0  0  0  0
  128.1900  122.1200   59.1420 S   0  0  0  0  0  0  0  0  0  0  0  0
  127.0490  122.5860   57.9000 C   0  0  0  0  0  0  0  0  0  0  0  0
  127.1730  122.1770   56.6370 N   0  0  0  0  0  0  0  0  0  0  0  0
  1  2  1  0
  2  3  2  0
  3  4  1  0
  4  5  1  0
  4  6  2  0
  6  7  1  0
  7  8  1  0
  7  9  2  0
  9 10  1  0
 10 11  2  0
 10 12  1  0
 12 13  1  0
 13 14  1  0
 14 15  2  0
 15 16  1  0
 16 17  1  0
  9 18  1  0
 18 19  1  0
 19 20  2  0
 20  2  1  0
 19  6  1  0
 17 13  2  0
M  END
>  <Binding energies>  (45) 
[-6.85]

>  <Ligand effiencies>  (45) 
[-0.29782608695652174]

>  <Interactions>  (45) 
["V-B:TYR:539:CD2:9845, V-B:PRO:540:N:9855, V-B:TYR:539:CD1:9844, V-B:TYR:539:CE2:9847, V-B:MET:535:CE:9806, V-B:TYR:539:CG:9843, V-B:ILE:538:CA:9831, V-B:TYR:539:CE1:9846, V-B:PRO:540:CA:9854, V-B:TYR:539:C:9838, V-B:PRO:540:CB:9856, H-B:ASP:366:OD2:8186, V-B:PRO:540:C:9852, V-B:LEU:363:CD1:8160, V-B:ALA:541:CB:9863, H-B:ALA:541:N:9862, V-B:ALA:541:CA:9861, H-B:GLU:543:OE2:9881, H-B:TYR:539:N:9841, V-B:LEU:363:CA:8156, V-B:TYR:531:CZ:9765, V-B:TYR:531:CE2:9764, V-B:ASP:366:CB:8183, V-B:VAL:537:C:9821, V-B:ILE:538:CD1:9836, V-A:TYR:484:CZ:4346, H-A:TYR:484:OH:4347, V-B:GLU:543:CG:9878, V-B:ILE:538:CB:9833, V-B:ILE:538:C:9829, V-A:TYR:484:CE1:4344"]

$$$$
4aj_Grossjean_2025
     RDKit          3D

 20 22  0  0  0  0  0  0  0  0999 V2000
  126.6800  122.1250   54.5390 C   0  0  0  0  0  0  0  0  0  0  0  0
  126.3760  122.6390   55.9340 C   0  0  0  0  0  0  0  0  0  0  0  0
  125.2520  123.4230   56.1800 C   0  0  0  0  0  0  0  0  0  0  0  0
  124.9940  123.8920   57.4740 C   0  0  0  0  0  0  0  0  0  0  0  0
  123.7540  124.7440   57.6920 C   0  0  0  0  0  0  0  0  0  0  0  0
  125.9090  123.5380   58.5020 C   0  0  0  0  0  0  0  0  0  0  0  0
  125.9520  123.8400   59.9070 C   0  0  0  0  0  0  0  0  0  0  0  0
  124.9960  124.6080   60.5210 N   0  0  0  0  0  0  0  0  0  0  0  0
  127.0480  123.2750   60.5780 C   0  0  0  0  0  0  0  0  0  0  0  0
  127.4040  123.3850   61.9940 C   0  0  0  0  0  0  0  0  0  0  0  0
  126.5520  123.2320   62.8720 O   0  0  0  0  0  0  0  0  0  0  0  0
  128.7110  123.6460   62.2470 N   0  0  0  0  0  0  0  0  0  0  0  0
  129.3070  123.7860   63.4920 C   0  0  0  0  0  0  0  0  0  0  0  0
  129.4380  122.8740   64.4320 N   0  0  0  0  0  0  0  0  0  0  0  0
  130.0630  123.3540   65.4900 C   0  0  0  0  0  0  0  0  0  0  0  0
  130.4540  124.6890   65.4200 C   0  0  0  0  0  0  0  0  0  0  0  0
  129.9730  125.3390   63.8810 S   0  0  0  0  0  0  0  0  0  0  0  0
  128.0710  122.3600   59.4690 S   0  0  0  0  0  0  0  0  0  0  0  0
  127.0210  122.7280   58.1200 C   0  0  0  0  0  0  0  0  0  0  0  0
  127.2700  122.2810   56.8890 N   0  0  0  0  0  0  0  0  0  0  0  0
  1  2  1  0
  2  3  2  0
  3  4  1  0
  4  5  1  0
  4  6  2  0
  6  7  1  0
  7  8  1  0
  7  9  2  0
  9 10  1  0
 10 11  2  0
 10 12  1  0
 12 13  1  0
 13 14  2  0
 14 15  1  0
 15 16  2  0
 16 17  1  0
  9 18  1  0
 18 19  1  0
 19 20  2  0
 20  2  1  0
 19  6  1  0
 17 13  1  0
M  END
>  <Binding energies>  (46) 
[-6.98]

>  <Ligand effiencies>  (46) 
[-0.30347826086956525]

>  <Interactions>  (46) 
["V-B:TYR:539:CD2:9845, V-B:PRO:540:N:9855, V-B:TYR:539:CD1:9844, V-B:TYR:539:CE2:9847, V-B:MET:535:CE:9806, V-B:ILE:538:CA:9831, V-B:TYR:539:CE1:9846, V-B:PRO:540:CA:9854, V-B:TYR:539:C:9838, V-B:PRO:540:CB:9856, H-B:ASP:366:OD2:8186, V-B:LEU:363:CD1:8160, V-B:ALA:541:CB:9863, H-B:ALA:541:N:9862, V-B:ASP:366:CG:8184, H-B:GLU:543:OE2:9881, H-B:TYR:539:N:9841, V-B:LEU:363:CA:8156, V-B:TYR:531:CZ:9765, V-B:TYR:531:CE2:9764, V-B:ASP:366:CB:8183, V-B:VAL:537:C:9821, V-B:ILE:538:CD1:9836, V-A:TYR:484:CZ:4346, V-B:GLU:543:CG:9878, V-B:ILE:538:C:9829, V-A:TYR:484:CE1:4344"]

$$$$
4ak_Grossjean_2025
     RDKit          3D

 25 26  0  0  0  0  0  0  0  0999 V2000
  124.8350  130.4820   57.5870 C   0  0  0  0  0  0  0  0  0  0  0  0
  125.6230  129.9810   56.5180 O   0  0  0  0  0  0  0  0  0  0  0  0
  126.7840  130.7600   56.2570 C   0  0  0  0  0  0  0  0  0  0  0  0
  127.4820  131.0950   57.5810 C   0  0  0  0  0  0  0  0  0  0  0  0
  128.4550  132.1070   57.3580 O   0  0  0  0  0  0  0  0  0  0  0  0
  128.4570  132.6190   56.0320 C   0  0  0  0  0  0  0  0  0  0  0  0
  129.8860  133.0190   55.6440 C   0  0  0  0  0  0  0  0  0  0  0  0
  130.6150  133.3520   56.8180 O   0  0  0  0  0  0  0  0  0  0  0  0
  131.7900  132.5740   57.0040 C   0  0  0  0  0  0  0  0  0  0  0  0
  131.9480  132.2410   58.4990 C   0  0  0  0  0  0  0  0  0  0  0  0
  130.7180  132.4120   59.2710 N   0  0  0  0  0  0  0  0  0  0  0  0
  130.6310  132.3860   60.6160 C   0  0  0  0  0  0  0  0  0  0  0  0
  131.6170  132.2310   61.3390 O   0  0  0  0  0  0  0  0  0  0  0  0
  129.2930  132.5620   61.1780 C   0  0  0  0  0  0  0  0  0  0  0  0
  128.0150  133.3050   60.2170 S   0  0  0  0  0  0  0  0  0  0  0  0
  126.8650  133.1240   61.5230 C   0  0  0  0  0  0  0  0  0  0  0  0
  125.6010  133.5370   61.4120 N   0  0  0  0  0  0  0  0  0  0  0  0
  124.8140  133.3400   62.4980 C   0  0  0  0  0  0  0  0  0  0  0  0
  123.3800  133.8150   62.3530 C   0  0  0  0  0  0  0  0  0  0  0  0
  125.2560  132.7450   63.6780 C   0  0  0  0  0  0  0  0  0  0  0  0
  126.5830  132.3120   63.7910 C   0  0  0  0  0  0  0  0  0  0  0  0
  127.0190  131.6730   65.0990 C   0  0  0  0  0  0  0  0  0  0  0  0
  127.4390  132.5030   62.6730 C   0  0  0  0  0  0  0  0  0  0  0  0
  128.8230  132.1870   62.4470 C   0  0  0  0  0  0  0  0  0  0  0  0
  129.6010  131.5780   63.3980 N   0  0  0  0  0  0  0  0  0  0  0  0
  1  2  1  0
  2  3  1  0
  3  4  1  0
  4  5  1  0
  5  6  1  0
  6  7  1  0
  7  8  1  0
  8  9  1  0
  9 10  1  0
 10 11  1  0
 11 12  1  0
 12 13  2  0
 12 14  1  0
 14 15  1  0
 15 16  1  0
 16 17  2  0
 17 18  1  0
 18 19  1  0
 18 20  2  0
 20 21  1  0
 21 22  1  0
 21 23  2  0
 23 24  1  0
 24 25  1  0
 24 14  2  0
 23 16  1  0
M  END
>  <Binding energies>  (47) 
[-5.57]

>  <Ligand effiencies>  (47) 
[-0.19892857142857143]

>  <Interactions>  (47) 
["V-B:ILE:369:CD1:8210, V-A:LEU:363:CD1:3188, V-B:ILE:369:CG2:8208, V-A:ILE:538:CB:4862, V-A:TYR:539:CE2:4876, V-A:TYR:539:C:4867, V-A:ILE:538:C:4858, V-A:PRO:540:CA:4883, V-A:PRO:540:CB:4885, V-B:LEU:475:CD1:9229, V-A:ILE:538:CA:4860, V-A:PRO:540:N:4884, H-A:ALA:541:N:4891, V-A:MET:535:CE:4835, H-A:TYR:539:N:4870, V-A:TYR:539:CD2:4874, V-A:ALA:541:CB:4892, V-A:PRO:540:CD:4887, H-A:TYR:539:O:4868, V-A:PRO:540:C:4881, V-A:TYR:539:CZ:4877, H-A:TYR:539:OH:4878, V-B:GLY:454:CA:9020, V-A:GLU:543:CD:4908, H-A:GLU:543:OE1:4909, V-A:GLU:543:CG:4907, H-B:TYR:531:OH:9766, V-B:ASP:366:CB:8183, V-A:TYR:539:CE1:4875, V-A:TYR:539:CG:4872, V-A:TYR:539:CD1:4873"]

$$$$
4al_Grossjean_2025
     RDKit          3D

 16 17  0  0  0  0  0  0  0  0999 V2000
  129.4790  123.9090   63.1500 C   0  0  0  0  0  0  0  0  0  0  0  0
  128.8890  123.2970   62.0130 O   0  0  0  0  0  0  0  0  0  0  0  0
  127.5390  123.2450   61.8720 C   0  0  0  0  0  0  0  0  0  0  0  0
  126.7460  123.2490   62.8170 O   0  0  0  0  0  0  0  0  0  0  0  0
  127.1100  123.1820   60.4580 C   0  0  0  0  0  0  0  0  0  0  0  0
  128.0480  122.2450   59.2930 S   0  0  0  0  0  0  0  0  0  0  0  0
  126.9490  122.6730   58.0020 C   0  0  0  0  0  0  0  0  0  0  0  0
  127.1240  122.2370   56.7540 N   0  0  0  0  0  0  0  0  0  0  0  0
  126.2000  122.6410   55.8460 C   0  0  0  0  0  0  0  0  0  0  0  0
  126.4190  122.1350   54.4330 C   0  0  0  0  0  0  0  0  0  0  0  0
  125.1180  123.4610   56.1560 C   0  0  0  0  0  0  0  0  0  0  0  0
  124.9360  123.9160   57.4670 C   0  0  0  0  0  0  0  0  0  0  0  0
  123.7400  124.8090   57.7560 C   0  0  0  0  0  0  0  0  0  0  0  0
  125.8850  123.5130   58.4450 C   0  0  0  0  0  0  0  0  0  0  0  0
  126.0030  123.7870   59.8500 C   0  0  0  0  0  0  0  0  0  0  0  0
  125.1060  124.5720   60.5280 N   0  0  0  0  0  0  0  0  0  0  0  0
  1  2  1  0
  2  3  1  0
  3  4  2  0
  3  5  1  0
  5  6  1  0
  6  7  1  0
  7  8  2  0
  8  9  1  0
  9 10  1  0
  9 11  2  0
 11 12  1  0
 12 13  1  0
 12 14  2  0
 14 15  1  0
 15 16  1  0
 15  5  2  0
 14  7  1  0
M  END
>  <Binding energies>  (48) 
[-5.95]

>  <Ligand effiencies>  (48) 
[-0.33055555555555555]

>  <Interactions>  (48) 
["V-B:TYR:539:CD2:9845, V-B:PRO:540:N:9855, V-B:TYR:539:CD1:9844, V-B:TYR:539:CE2:9847, V-B:MET:535:CE:9806, V-B:ILE:538:CA:9831, V-B:TYR:539:CE1:9846, V-B:PRO:540:CA:9854, V-B:TYR:539:C:9838, V-B:PRO:540:CB:9856, H-B:ASP:366:OD2:8186, V-B:PRO:540:C:9852, V-B:LEU:363:CD1:8160, V-B:ALA:541:CB:9863, H-B:ALA:541:N:9862, V-B:ALA:541:CA:9861, V-B:ASP:366:CG:8184, H-B:GLU:543:OE2:9881, H-B:TYR:539:N:9841, V-B:LEU:363:CA:8156, V-B:TYR:531:CZ:9765, V-B:TYR:531:CE2:9764, V-B:ASP:366:CB:8183, V-B:VAL:537:C:9821, V-B:ILE:538:CD1:9836, V-B:ILE:538:CB:9833, V-B:ILE:538:C:9829"]

$$$$
4bc_Grossjean_2025
     RDKit          3D

 26 28  0  0  0  0  0  0  0  0999 V2000
  133.6580  125.4840   66.6940 C   0  0  0  0  0  0  0  0  0  0  0  0
  133.8830  124.7300   65.5080 O   0  0  0  0  0  0  0  0  0  0  0  0
  132.8270  124.4940   64.6490 C   0  0  0  0  0  0  0  0  0  0  0  0
  133.1430  124.3460   63.2990 C   0  0  0  0  0  0  0  0  0  0  0  0
  132.1450  124.1060   62.3590 C   0  0  0  0  0  0  0  0  0  0  0  0
  130.8120  124.0010   62.7600 C   0  0  0  0  0  0  0  0  0  0  0  0
  129.8720  123.7730   61.7380 N   0  0  0  0  0  0  0  0  0  0  0  0
  128.5520  123.4820   61.8370 C   0  0  0  0  0  0  0  0  0  0  0  0
  127.9600  123.3330   62.9070 O   0  0  0  0  0  0  0  0  0  0  0  0
  127.8410  123.3400   60.5630 C   0  0  0  0  0  0  0  0  0  0  0  0
  128.4540  122.2500   59.3220 S   0  0  0  0  0  0  0  0  0  0  0  0
  127.1370  122.6590   58.2480 C   0  0  0  0  0  0  0  0  0  0  0  0
  127.0300  122.1090   57.0390 N   0  0  0  0  0  0  0  0  0  0  0  0
  125.9690  122.5050   56.2980 C   0  0  0  0  0  0  0  0  0  0  0  0
  125.8630  121.8630   54.9270 C   0  0  0  0  0  0  0  0  0  0  0  0
  125.0230  123.4300   56.7330 C   0  0  0  0  0  0  0  0  0  0  0  0
  125.1310  124.0120   58.0050 C   0  0  0  0  0  0  0  0  0  0  0  0
  124.0660  125.0270   58.4380 C   0  0  0  0  0  0  0  0  0  0  0  0
  122.9920  125.0240   57.6470 F   0  0  0  0  0  0  0  0  0  0  0  0
  123.6540  124.7460   59.6740 F   0  0  0  0  0  0  0  0  0  0  0  0
  124.5780  126.2570   58.4120 F   0  0  0  0  0  0  0  0  0  0  0  0
  126.2380  123.6150   58.8130 C   0  0  0  0  0  0  0  0  0  0  0  0
  126.6670  123.9830   60.1410 C   0  0  0  0  0  0  0  0  0  0  0  0
  125.9820  124.8830   60.9170 N   0  0  0  0  0  0  0  0  0  0  0  0
  130.4840  124.1620   64.1150 C   0  0  0  0  0  0  0  0  0  0  0  0
  131.4840  124.4030   65.0520 C   0  0  0  0  0  0  0  0  0  0  0  0
  1  2  1  0
  2  3  1  0
  3  4  2  0
  4  5  1  0
  5  6  2  0
  6  7  1  0
  7  8  1  0
  8  9  2  0
  8 10  1  0
 10 11  1  0
 11 12  1  0
 12 13  2  0
 13 14  1  0
 14 15  1  0
 14 16  2  0
 16 17  1  0
 17 18  1  0
 18 19  1  0
 18 20  1  0
 18 21  1  0
 17 22  2  0
 22 23  1  0
 23 24  1  0
  6 25  1  0
 25 26  2  0
 26  3  1  0
 23 10  2  0
 22 12  1  0
M  END
>  <Binding energies>  (49) 
[-7.2]

>  <Ligand effiencies>  (49) 
[-0.2482758620689655]

>  <Interactions>  (49) 
["V-B:TYR:539:CD2:9845, V-B:PRO:540:N:9855, V-B:TYR:539:CD1:9844, V-B:TYR:539:CE2:9847, V-B:MET:535:CE:9806, V-B:ILE:538:CA:9831, V-B:ILE:538:CG2:9834, V-B:PRO:540:CA:9854, V-B:TYR:539:C:9838, V-B:PRO:540:CB:9856, H-B:ASP:366:OD2:8186, V-B:PRO:540:CD:9858, V-B:LEU:363:CD1:8160, V-B:ALA:541:CB:9863, H-B:ALA:541:N:9862, V-A:HIS:456:CE1:4069, V-B:ASP:366:CG:8184, V-A:ARG:545:CZ:4926, H-B:GLU:543:OE2:9881, H-B:TYR:539:N:9841, V-B:LEU:363:CA:8156, V-B:ASN:362:C:8143, V-B:TYR:531:CZ:9765, V-B:TYR:531:CE2:9764, V-B:ASP:366:CB:8183, V-B:LEU:363:CB:8158, V-B:ILE:538:CD1:9836, H-A:TYR:484:OH:4347, H-A:GLY:454:N:4049, V-B:ILE:538:CB:9833, V-B:ILE:538:C:9829, V-A:ARG:545:CG:4922, V-A:ARG:545:CD:4923, V-B:LEU:363:C:8154, V-B:LEU:363:CG:8159, V-B:ILE:538:CG1:9835"]

$$$$
4bf_Grossjean_2025
     RDKit          3D

 24 26  0  0  0  0  0  0  0  0999 V2000
  126.7850  122.1260   54.8360 C   0  0  0  0  0  0  0  0  0  0  0  0
  126.7470  123.3810   55.6910 C   0  0  0  0  0  0  0  0  0  0  0  0
  125.8050  123.5280   56.7060 C   0  0  0  0  0  0  0  0  0  0  0  0
  125.7780  124.6940   57.4860 C   0  0  0  0  0  0  0  0  0  0  0  0
  124.7220  124.8130   58.5900 C   0  0  0  0  0  0  0  0  0  0  0  0
  123.9820  123.7090   58.7260 F   0  0  0  0  0  0  0  0  0  0  0  0
  125.3150  125.0410   59.7610 F   0  0  0  0  0  0  0  0  0  0  0  0
  123.8900  125.8180   58.3130 F   0  0  0  0  0  0  0  0  0  0  0  0
  126.7460  125.6990   57.1910 C   0  0  0  0  0  0  0  0  0  0  0  0
  127.0200  126.9960   57.7600 C   0  0  0  0  0  0  0  0  0  0  0  0
  126.2960  127.5120   58.8060 N   0  0  0  0  0  0  0  0  0  0  0  0
  128.0890  127.6760   57.1550 C   0  0  0  0  0  0  0  0  0  0  0  0
  128.6120  129.0120   57.4580 C   0  0  0  0  0  0  0  0  0  0  0  0
  128.0630  129.7240   58.2990 O   0  0  0  0  0  0  0  0  0  0  0  0
  129.7210  129.3720   56.7670 N   0  0  0  0  0  0  0  0  0  0  0  0
  130.4340  130.5860   56.7850 C   0  0  0  0  0  0  0  0  0  0  0  0
  131.7940  130.7270   57.1100 C   0  0  0  0  0  0  0  0  0  0  0  0
  132.3780  131.9960   57.1050 C   0  0  0  0  0  0  0  0  0  0  0  0
  131.5830  133.0950   56.7780 C   0  0  0  0  0  0  0  0  0  0  0  0
  130.2670  132.9860   56.4680 N   0  0  0  0  0  0  0  0  0  0  0  0
  129.7140  131.7460   56.4780 C   0  0  0  0  0  0  0  0  0  0  0  0
  128.7910  126.7240   55.8490 S   0  0  0  0  0  0  0  0  0  0  0  0
  127.6560  125.4230   56.1240 C   0  0  0  0  0  0  0  0  0  0  0  0
  127.6780  124.3140   55.3870 N   0  0  0  0  0  0  0  0  0  0  0  0
  1  2  1  0
  2  3  2  0
  3  4  1  0
  4  5  1  0
  5  6  1  0
  5  7  1  0
  5  8  1  0
  4  9  2  0
  9 10  1  0
 10 11  1  0
 10 12  2  0
 12 13  1  0
 13 14  2  0
 13 15  1  0
 15 16  1  0
 16 17  2  0
 17 18  1  0
 18 19  2  0
 19 20  1  0
 20 21  2  0
 12 22  1  0
 22 23  1  0
 23 24  2  0
 24  2  1  0
 23  9  1  0
 21 16  1  0
M  END
>  <Binding energies>  (50) 
[-6.61]

>  <Ligand effiencies>  (50) 
[-0.24481481481481482]

>  <Interactions>  (50) 
["V-A:LEU:363:CD1:3188, V-A:ILE:538:CB:4862, V-A:TYR:539:C:4867, V-A:PRO:540:CA:4883, V-A:PRO:540:CB:4885, V-A:PRO:540:N:4884, V-A:MET:535:CE:4835, H-A:TYR:539:N:4870, V-A:PRO:540:CD:4887, V-B:TYR:539:CD1:9844, V-B:MET:535:CE:9806, V-B:ILE:538:CA:9831, V-B:TYR:539:CE1:9846, V-B:PRO:540:CA:9854, V-B:PRO:540:CB:9856, H-B:ASP:366:OD2:8186, V-B:LEU:363:CD1:8160, V-A:TYR:531:CZ:4794, V-A:TYR:531:CE2:4793, V-B:ASP:366:CG:8184, V-B:LEU:363:CA:8156, H-B:TYR:531:OH:9766, V-B:TYR:531:CZ:9765, V-B:TYR:531:CE2:9764, V-B:ASP:366:CB:8183, V-B:LEU:363:CB:8158, V-B:ILE:538:CD1:9836, H-A:TYR:531:OH:4795, V-B:ILE:538:C:9829"]

$$$$
4bh_Grossjean_2025
     RDKit          3D

 31 33  0  0  0  0  0  0  0  0999 V2000
  133.5450  130.8530   58.2960 C   0  0  0  0  0  0  0  0  0  0  0  0
  132.7450  131.9670   58.6760 O   0  0  0  0  0  0  0  0  0  0  0  0
  131.3780  131.9240   58.4700 C   0  0  0  0  0  0  0  0  0  0  0  0
  130.5060  131.0730   59.1670 C   0  0  0  0  0  0  0  0  0  0  0  0
  129.1360  131.0810   58.9050 C   0  0  0  0  0  0  0  0  0  0  0  0
  128.1990  130.1840   59.7040 C   0  0  0  0  0  0  0  0  0  0  0  0
  127.8400  128.9480   59.0080 N   0  0  0  0  0  0  0  0  0  0  0  0
  128.7050  127.9860   58.6250 C   0  0  0  0  0  0  0  0  0  0  0  0
  129.9210  128.0820   58.7980 O   0  0  0  0  0  0  0  0  0  0  0  0
  128.1200  126.8290   57.9460 C   0  0  0  0  0  0  0  0  0  0  0  0
  128.9750  126.0670   56.6080 S   0  0  0  0  0  0  0  0  0  0  0  0
  127.6770  124.9190   56.3770 C   0  0  0  0  0  0  0  0  0  0  0  0
  127.7360  123.9860   55.4270 N   0  0  0  0  0  0  0  0  0  0  0  0
  126.6730  123.1530   55.3470 C   0  0  0  0  0  0  0  0  0  0  0  0
  126.7590  122.0990   54.2580 C   0  0  0  0  0  0  0  0  0  0  0  0
  125.5640  123.2280   56.1850 C   0  0  0  0  0  0  0  0  0  0  0  0
  125.4950  124.2110   57.1860 C   0  0  0  0  0  0  0  0  0  0  0  0
  124.2560  124.2530   58.0870 C   0  0  0  0  0  0  0  0  0  0  0  0
  124.5480  124.4930   59.3670 F   0  0  0  0  0  0  0  0  0  0  0  0
  123.4340  125.2190   57.6780 F   0  0  0  0  0  0  0  0  0  0  0  0
  123.6210  123.0830   58.0340 F   0  0  0  0  0  0  0  0  0  0  0  0
  126.5990  125.1070   57.2970 C   0  0  0  0  0  0  0  0  0  0  0  0
  126.8770  126.2180   58.1740 C   0  0  0  0  0  0  0  0  0  0  0  0
  126.0060  126.6310   59.1480 N   0  0  0  0  0  0  0  0  0  0  0  0
  128.6230  131.9680   57.9570 C   0  0  0  0  0  0  0  0  0  0  0  0
  129.4720  132.8240   57.2380 C   0  0  0  0  0  0  0  0  0  0  0  0
  129.0340  133.7160   56.2760 O   0  0  0  0  0  0  0  0  0  0  0  0
  129.1500  133.3700   54.9000 C   0  0  0  0  0  0  0  0  0  0  0  0
  130.8490  132.7880   57.5010 C   0  0  0  0  0  0  0  0  0  0  0  0
  131.6900  133.6350   56.8170 O   0  0  0  0  0  0  0  0  0  0  0  0
  132.3380  133.0320   55.7060 C   0  0  0  0  0  0  0  0  0  0  0  0
  1  2  1  0
  2  3  1  0
  3  4  2  0
  4  5  1  0
  5  6  1  0
  6  7  1  0
  7  8  1  0
  8  9  2  0
  8 10  1  0
 10 11  1  0
 11 12  1  0
 12 13  2  0
 13 14  1  0
 14 15  1  0
 14 16  2  0
 16 17  1  0
 17 18  1  0
 18 19  1  0
 18 20  1  0
 18 21  1  0
 17 22  2  0
 22 23  1  0
 23 24  1  0
  5 25  2  0
 25 26  1  0
 26 27  1  0
 27 28  1  0
 26 29  2  0
 29 30  1  0
 30 31  1  0
 29  3  1  0
 23 10  2  0
 22 12  1  0
M  END
>  <Binding energies>  (51) 
[-6.58]

>  <Ligand effiencies>  (51) 
[-0.1935294117647059]

>  <Interactions>  (51) 
["V-A:LEU:363:CD1:3188, V-A:ILE:538:CB:4862, V-A:TYR:539:CE2:4876, V-A:TYR:539:C:4867, V-A:ILE:538:C:4858, V-A:PRO:540:CA:4883, V-A:ILE:538:CG2:4863, V-A:PRO:540:CB:4885, V-A:ILE:538:CA:4860, V-A:PRO:540:N:4884, V-A:MET:535:CE:4835, H-A:TYR:539:N:4870, V-A:TYR:539:CD2:4874, V-B:TYR:539:CD1:9844, V-B:MET:535:CE:9806, V-B:ILE:538:CA:9831, V-B:TYR:539:CE1:9846, V-B:PRO:540:CA:9854, V-B:PRO:540:CB:9856, H-B:ASP:366:OD2:8186, V-B:PRO:540:CD:9858, V-B:LEU:363:CD1:8160, V-A:TYR:539:CZ:4877, V-B:ASP:366:CG:8184, V-B:LEU:363:CA:8156, H-B:TYR:531:OH:9766, V-B:TYR:531:CZ:9765, V-B:TYR:531:CE2:9764, V-B:ASP:366:CB:8183, V-B:LEU:363:CB:8158, V-A:ASP:366:CB:3211, V-A:ASP:366:CG:3212, V-B:VAL:537:C:9821, V-B:ILE:538:CD1:9836, V-A:TYR:539:CE1:4875, V-A:LEU:363:CA:3184, V-A:TYR:539:CG:4872, V-B:ILE:538:C:9829, V-B:PRO:540:CG:9857, V-A:TYR:539:CD1:4873, V-B:LEU:363:C:8154, V-B:LEU:363:CG:8159"]

$$$$
4bi_Grossjean_2025
     RDKit          3D

 23 25  0  0  0  0  0  0  0  0999 V2000
  126.7900  122.5130   56.3630 C   0  0  0  0  0  0  0  0  0  0  0  0
  127.0420  122.8250   57.8270 C   0  0  0  0  0  0  0  0  0  0  0  0
  126.0140  123.2750   58.6520 C   0  0  0  0  0  0  0  0  0  0  0  0
  126.2610  123.5560   60.0060 C   0  0  0  0  0  0  0  0  0  0  0  0
  125.0960  124.0400   60.8760 C   0  0  0  0  0  0  0  0  0  0  0  0
  125.3750  125.1610   61.5450 F   0  0  0  0  0  0  0  0  0  0  0  0
  124.0330  124.2860   60.1110 F   0  0  0  0  0  0  0  0  0  0  0  0
  124.7850  123.1050   61.7750 F   0  0  0  0  0  0  0  0  0  0  0  0
  127.5930  123.3650   60.4790 C   0  0  0  0  0  0  0  0  0  0  0  0
  128.2110  123.5470   61.7700 C   0  0  0  0  0  0  0  0  0  0  0  0
  127.5190  123.9960   62.8660 N   0  0  0  0  0  0  0  0  0  0  0  0
  129.5760  123.2200   61.8050 C   0  0  0  0  0  0  0  0  0  0  0  0
  130.5070  123.2980   62.9340 C   0  0  0  0  0  0  0  0  0  0  0  0
  130.6070  122.3650   63.7330 O   0  0  0  0  0  0  0  0  0  0  0  0
  131.2350  124.4400   63.0100 N   0  0  0  0  0  0  0  0  0  0  0  0
  132.1910  124.7720   63.9620 C   0  0  0  0  0  0  0  0  0  0  0  0
  131.8720  125.3320   65.1980 C   0  0  0  0  0  0  0  0  0  0  0  0
  133.0800  125.5070   65.8340 C   0  0  0  0  0  0  0  0  0  0  0  0
  134.0740  125.0730   65.0230 O   0  0  0  0  0  0  0  0  0  0  0  0
  133.4970  124.6100   63.8390 N   0  0  0  0  0  0  0  0  0  0  0  0
  130.1460  122.6950   60.2210 S   0  0  0  0  0  0  0  0  0  0  0  0
  128.5530  122.8990   59.5300 C   0  0  0  0  0  0  0  0  0  0  0  0
  128.3140  122.6320   58.2460 N   0  0  0  0  0  0  0  0  0  0  0  0
  1  2  1  0
  2  3  2  0
  3  4  1  0
  4  5  1  0
  5  6  1  0
  5  7  1  0
  5  8  1  0
  4  9  2  0
  9 10  1  0
 10 11  1  0
 10 12  2  0
 12 13  1  0
 13 14  2  0
 13 15  1  0
 15 16  1  0
 16 17  1  0
 17 18  2  0
 18 19  1  0
 19 20  1  0
 12 21  1  0
 21 22  1  0
 22 23  2  0
 23  2  1  0
 22  9  1  0
 20 16  2  0
M  END
>  <Binding energies>  (52) 
[-6.68]

>  <Ligand effiencies>  (52) 
[-0.2569230769230769]

>  <Interactions>  (52) 
["V-B:TYR:539:CD2:9845, V-B:PRO:540:N:9855, V-B:TYR:539:CD1:9844, V-B:TYR:539:CE2:9847, V-B:TYR:539:CE1:9846, V-B:PRO:540:CA:9854, V-B:TYR:539:C:9838, V-B:PRO:540:CB:9856, V-B:PRO:540:C:9852, V-B:ALA:541:CB:9863, V-B:ASP:366:CG:8184, V-A:ARG:545:CZ:4926, V-B:GLU:543:CD:9879, H-B:GLU:543:OE2:9881, V-B:LEU:363:CA:8156, V-B:ASN:362:C:8143, H-A:TYR:484:OH:4347, V-B:ASN:362:CB:8147, H-A:ARG:545:NH1:4927, H-A:GLY:454:N:4049, V-B:GLU:543:CG:9878, V-A:ARG:545:CD:4923, H-A:ARG:545:NE:4924"]

$$$$
4bj_Grossjean_2025
     RDKit          3D

 23 25  0  0  0  0  0  0  0  0999 V2000
  126.1410  122.1390   54.5400 C   0  0  0  0  0  0  0  0  0  0  0  0
  126.0900  122.6100   55.9820 C   0  0  0  0  0  0  0  0  0  0  0  0
  125.0790  123.4590   56.4250 C   0  0  0  0  0  0  0  0  0  0  0  0
  125.0470  123.8910   57.7600 C   0  0  0  0  0  0  0  0  0  0  0  0
  123.9160  124.8280   58.2000 C   0  0  0  0  0  0  0  0  0  0  0  0
  122.9250  124.9030   57.3090 F   0  0  0  0  0  0  0  0  0  0  0  0
  123.3920  124.3950   59.3460 F   0  0  0  0  0  0  0  0  0  0  0  0
  124.3940  126.0600   58.3710 F   0  0  0  0  0  0  0  0  0  0  0  0
  126.0820  123.4220   58.6220 C   0  0  0  0  0  0  0  0  0  0  0  0
  126.3760  123.6470   60.0170 C   0  0  0  0  0  0  0  0  0  0  0  0
  125.6040  124.4520   60.8160 N   0  0  0  0  0  0  0  0  0  0  0  0
  127.5130  122.9660   60.4810 C   0  0  0  0  0  0  0  0  0  0  0  0
  128.0980  122.9760   61.8230 C   0  0  0  0  0  0  0  0  0  0  0  0
  127.4110  123.2560   62.8090 O   0  0  0  0  0  0  0  0  0  0  0  0
  129.4110  122.6480   61.8890 N   0  0  0  0  0  0  0  0  0  0  0  0
  130.1960  122.5720   63.0320 C   0  0  0  0  0  0  0  0  0  0  0  0
  129.8310  122.7810   64.2780 N   0  0  0  0  0  0  0  0  0  0  0  0
  130.8380  122.6160   65.1130 C   0  0  0  0  0  0  0  0  0  0  0  0
  132.0570  122.2630   64.5440 C   0  0  0  0  0  0  0  0  0  0  0  0
  131.8650  122.1480   62.8200 S   0  0  0  0  0  0  0  0  0  0  0  0
  128.2720  122.0370   59.1900 S   0  0  0  0  0  0  0  0  0  0  0  0
  127.0570  122.5510   58.0440 C   0  0  0  0  0  0  0  0  0  0  0  0
  127.0840  122.1460   56.7750 N   0  0  0  0  0  0  0  0  0  0  0  0
  1  2  1  0
  2  3  2  0
  3  4  1  0
  4  5  1  0
  5  6  1  0
  5  7  1  0
  5  8  1  0
  4  9  2  0
  9 10  1  0
 10 11  1  0
 10 12  2  0
 12 13  1  0
 13 14  2  0
 13 15  1  0
 15 16  1  0
 16 17  2  0
 17 18  1  0
 18 19  2  0
 19 20  1  0
 12 21  1  0
 21 22  1  0
 22 23  2  0
 23  2  1  0
 22  9  1  0
 20 16  1  0
M  END
>  <Binding energies>  (53) 
[-6.24]

>  <Ligand effiencies>  (53) 
[-0.24000000000000002]

>  <Interactions>  (53) 
["V-B:TYR:539:CD2:9845, V-B:PRO:540:N:9855, V-B:TYR:539:CD1:9844, V-B:TYR:539:CE2:9847, V-B:MET:535:CE:9806, V-B:TYR:539:CG:9843, V-B:ILE:538:CA:9831, V-A:LEU:475:CD2:4258, V-B:PRO:540:CA:9854, V-B:TYR:539:C:9838, V-B:PRO:540:CB:9856, H-B:ASP:366:OD2:8186, V-B:PRO:540:C:9852, V-B:LEU:363:CD1:8160, V-B:ALA:541:CB:9863, H-B:ALA:541:N:9862, V-B:ALA:541:CA:9861, V-B:ASP:366:CG:8184, H-B:GLU:543:OE2:9881, H-B:TYR:539:N:9841, V-B:LEU:363:CA:8156, V-B:ASN:362:C:8143, V-B:TYR:531:CZ:9765, V-B:TYR:531:CE2:9764, V-B:ASP:366:CB:8183, V-B:LEU:363:CB:8158, V-B:ILE:538:CD1:9836, V-A:TYR:484:CZ:4346, V-B:ILE:538:CB:9833, V-B:ILE:538:C:9829, V-A:GLY:454:CA:4048, V-B:LEU:363:C:8154, V-A:TYR:484:CE1:4344, V-B:LEU:363:CG:8159, V-B:TYR:531:CD2:9762"]

$$$$
4bk_Grossjean_2025
     RDKit          3D

 28 29  0  0  0  0  0  0  0  0999 V2000
  129.3690  125.5340   56.3790 C   0  0  0  0  0  0  0  0  0  0  0  0
  130.7800  125.6270   56.5040 O   0  0  0  0  0  0  0  0  0  0  0  0
  131.2310  125.6060   57.8520 C   0  0  0  0  0  0  0  0  0  0  0  0
  130.2620  124.7750   58.7030 C   0  0  0  0  0  0  0  0  0  0  0  0
  130.9980  124.0150   59.6520 O   0  0  0  0  0  0  0  0  0  0  0  0
  132.4040  124.2040   59.5710 C   0  0  0  0  0  0  0  0  0  0  0  0
  133.0400  123.8930   60.9330 C   0  0  0  0  0  0  0  0  0  0  0  0
  132.2790  122.8870   61.5870 O   0  0  0  0  0  0  0  0  0  0  0  0
  131.9720  123.1890   62.9440 C   0  0  0  0  0  0  0  0  0  0  0  0
  130.4690  122.9690   63.1880 C   0  0  0  0  0  0  0  0  0  0  0  0
  129.6650  122.9970   61.9650 N   0  0  0  0  0  0  0  0  0  0  0  0
  128.3370  123.2280   61.9110 C   0  0  0  0  0  0  0  0  0  0  0  0
  127.6660  123.4640   62.9170 O   0  0  0  0  0  0  0  0  0  0  0  0
  127.7310  123.1930   60.5790 C   0  0  0  0  0  0  0  0  0  0  0  0
  128.4240  122.1740   59.3190 S   0  0  0  0  0  0  0  0  0  0  0  0
  127.1900  122.6640   58.1830 C   0  0  0  0  0  0  0  0  0  0  0  0
  127.1670  122.1960   56.9360 N   0  0  0  0  0  0  0  0  0  0  0  0
  126.1620  122.6470   56.1500 C   0  0  0  0  0  0  0  0  0  0  0  0
  126.1550  122.0980   54.7340 C   0  0  0  0  0  0  0  0  0  0  0  0
  125.1900  123.5470   56.5770 C   0  0  0  0  0  0  0  0  0  0  0  0
  125.2080  124.0460   57.8890 C   0  0  0  0  0  0  0  0  0  0  0  0
  124.1190  125.0370   58.3120 C   0  0  0  0  0  0  0  0  0  0  0  0
  123.0950  125.0830   57.4570 F   0  0  0  0  0  0  0  0  0  0  0  0
  123.6310  124.6890   59.5020 F   0  0  0  0  0  0  0  0  0  0  0  0
  124.6310  126.2640   58.3880 F   0  0  0  0  0  0  0  0  0  0  0  0
  126.2550  123.5890   58.7450 C   0  0  0  0  0  0  0  0  0  0  0  0
  126.5900  123.8670   60.1200 C   0  0  0  0  0  0  0  0  0  0  0  0
  125.8570  124.7200   60.9040 N   0  0  0  0  0  0  0  0  0  0  0  0
  1  2  1  0
  2  3  1  0
  3  4  1  0
  4  5  1  0
  5  6  1  0
  6  7  1  0
  7  8  1  0
  8  9  1  0
  9 10  1  0
 10 11  1  0
 11 12  1  0
 12 13  2  0
 12 14  1  0
 14 15  1  0
 15 16  1  0
 16 17  2  0
 17 18  1  0
 18 19  1  0
 18 20  2  0
 20 21  1  0
 21 22  1  0
 22 23  1  0
 22 24  1  0
 22 25  1  0
 21 26  2  0
 26 27  1  0
 27 28  1  0
 27 14  2  0
 26 16  1  0
M  END
>  <Binding energies>  (54) 
[-4.94]

>  <Ligand effiencies>  (54) 
[-0.15935483870967743]

>  <Interactions>  (54) 
["V-B:TYR:539:CD2:9845, V-B:PRO:540:N:9855, V-B:TYR:539:CD1:9844, V-B:TYR:539:CE2:9847, V-A:ILE:369:CG2:3236, V-B:MET:535:CE:9806, V-B:ILE:538:CA:9831, V-B:ILE:538:CG2:9834, V-B:PRO:540:CA:9854, V-B:TYR:539:C:9838, V-B:PRO:540:CB:9856, H-B:ASP:366:OD2:8186, V-B:LEU:363:CD1:8160, V-B:ALA:541:CB:9863, H-B:ALA:541:N:9862, V-B:ASP:366:CG:8184, H-B:GLU:543:OE2:9881, V-B:TYR:539:CZ:9848, H-B:TYR:539:OH:9849, H-B:TYR:539:N:9841, V-B:LEU:363:CA:8156, V-B:ASN:362:C:8143, V-B:TYR:531:CZ:9765, V-B:TYR:531:CE2:9764, V-B:ASP:366:CB:8183, V-B:LEU:363:CB:8158, V-A:ILE:369:CD1:3238, V-B:ILE:538:CD1:9836, H-A:TYR:531:OH:4795, V-B:ILE:538:CB:9833, V-B:ILE:538:C:9829, V-B:LEU:363:C:8154, V-B:LEU:363:CG:8159, V-B:TYR:531:CD2:9762"]

$$$$
4cd_Grossjean_2025
     RDKit          3D

 29 32  0  0  0  0  0  0  0  0999 V2000
  127.9620  123.7000   63.4090 N   0  0  0  0  0  0  0  0  0  0  0  0
  128.6150  123.4520   62.2280 C   0  0  0  0  0  0  0  0  0  0  0  0
  130.0070  123.2880   62.1380 C   0  0  0  0  0  0  0  0  0  0  0  0
  131.0060  123.3600   63.2090 C   0  0  0  0  0  0  0  0  0  0  0  0
  131.6330  122.3570   63.5510 O   0  0  0  0  0  0  0  0  0  0  0  0
  131.1770  124.5850   63.7620 N   0  0  0  0  0  0  0  0  0  0  0  0
  132.0060  124.9800   64.8290 C   0  0  0  0  0  0  0  0  0  0  0  0
  131.3700  125.6260   65.8920 C   0  0  0  0  0  0  0  0  0  0  0  0
  132.1020  126.0420   67.0000 C   0  0  0  0  0  0  0  0  0  0  0  0
  133.4740  125.8070   67.0490 C   0  0  0  0  0  0  0  0  0  0  0  0
  134.1180  125.1520   66.0030 C   0  0  0  0  0  0  0  0  0  0  0  0
  133.3890  124.7340   64.8920 C   0  0  0  0  0  0  0  0  0  0  0  0
  130.5050  122.9740   60.4770 S   0  0  0  0  0  0  0  0  0  0  0  0
  128.8530  123.0730   59.9160 C   0  0  0  0  0  0  0  0  0  0  0  0
  128.5450  122.9120   58.6310 N   0  0  0  0  0  0  0  0  0  0  0  0
  127.2340  123.0200   58.2880 C   0  0  0  0  0  0  0  0  0  0  0  0
  126.9180  122.8360   56.8320 C   0  0  0  0  0  0  0  0  0  0  0  0
  127.7500  123.3840   55.8420 C   0  0  0  0  0  0  0  0  0  0  0  0
  127.4630  123.2170   54.4900 C   0  0  0  0  0  0  0  0  0  0  0  0
  126.3360  122.4970   54.1080 C   0  0  0  0  0  0  0  0  0  0  0  0
  125.4980  121.9410   55.0670 C   0  0  0  0  0  0  0  0  0  0  0  0
  125.7890  122.1080   56.4180 C   0  0  0  0  0  0  0  0  0  0  0  0
  126.2400  123.2690   59.2380 C   0  0  0  0  0  0  0  0  0  0  0  0
  126.5540  123.4370   60.5970 C   0  0  0  0  0  0  0  0  0  0  0  0
  125.4140  123.7110   61.5850 C   0  0  0  0  0  0  0  0  0  0  0  0
  125.4700  122.9440   62.6760 F   0  0  0  0  0  0  0  0  0  0  0  0
  125.4620  124.9810   61.9870 F   0  0  0  0  0  0  0  0  0  0  0  0
  124.2410  123.4800   60.9950 F   0  0  0  0  0  0  0  0  0  0  0  0
  127.9250  123.3380   60.9660 C   0  0  0  0  0  0  0  0  0  0  0  0
  1  2  1  0
  2  3  2  0
  3  4  1  0
  4  5  2  0
  4  6  1  0
  6  7  1  0
  7  8  2  0
  8  9  1  0
  9 10  2  0
 10 11  1  0
 11 12  2  0
  3 13  1  0
 13 14  1  0
 14 15  2  0
 15 16  1  0
 16 17  1  0
 17 18  2  0
 18 19  1  0
 19 20  2  0
 20 21  1  0
 21 22  2  0
 16 23  2  0
 23 24  1  0
 24 25  1  0
 25 26  1  0
 25 27  1  0
 25 28  1  0
 24 29  2  0
 29  2  1  0
 12  7  1  0
 29 14  1  0
 22 17  1  0
M  END
>  <Binding energies>  (55) 
[-7.66]

>  <Ligand effiencies>  (55) 
[-0.239375]

>  <Interactions>  (55) 
["V-B:PRO:540:N:9855, V-B:TYR:539:CD1:9844, V-B:TYR:539:CE2:9847, V-B:MET:535:CE:9806, V-B:ILE:538:CA:9831, V-B:ILE:538:CG2:9834, V-B:TYR:539:CE1:9846, V-B:PRO:540:CA:9854, V-B:TYR:539:C:9838, V-B:PRO:540:CB:9856, V-B:PRO:540:C:9852, V-B:PRO:540:CD:9858, V-B:LEU:363:CD1:8160, V-B:ALA:541:CB:9863, V-B:ALA:541:CA:9861, V-A:HIS:456:CE1:4069, V-B:ARG:545:CZ:9897, V-A:ARG:545:CZ:4926, V-B:GLU:543:CD:9879, H-B:GLU:543:OE2:9881, V-B:TYR:539:CZ:9848, V-B:ASN:362:C:8143, V-B:ILE:538:CD1:9836, V-B:ASN:362:CB:8147, V-B:MET:535:CB:9803, V-B:GLU:543:CG:9878, V-B:ILE:538:CB:9833, V-B:ILE:538:C:9829, V-A:GLY:454:CA:4048, V-A:GLY:453:CA:4043, V-A:GLY:453:C:4041, V-A:ARG:545:CG:4922, V-A:ARG:545:CD:4923, V-B:ALA:541:C:9859, V-B:ILE:538:CG1:9835"]

$$$$
4cg_Grossjean_2025
     RDKit          3D

 30 33  0  0  0  0  0  0  0  0999 V2000
  127.2590  128.1810   63.2950 N   0  0  0  0  0  0  0  0  0  0  0  0
  127.0320  128.6090   64.5780 C   0  0  0  0  0  0  0  0  0  0  0  0
  125.9720  129.4570   64.9280 C   0  0  0  0  0  0  0  0  0  0  0  0
  124.9150  129.9960   64.0730 C   0  0  0  0  0  0  0  0  0  0  0  0
  123.7530  130.0960   64.4730 O   0  0  0  0  0  0  0  0  0  0  0  0
  125.2820  130.3350   62.8190 N   0  0  0  0  0  0  0  0  0  0  0  0
  124.4020  130.9120   61.8050 C   0  0  0  0  0  0  0  0  0  0  0  0
  124.3540  132.4360   61.8390 C   0  0  0  0  0  0  0  0  0  0  0  0
  124.8870  133.1710   60.7770 C   0  0  0  0  0  0  0  0  0  0  0  0
  124.8170  134.5620   60.7900 C   0  0  0  0  0  0  0  0  0  0  0  0
  124.2050  135.2120   61.8600 C   0  0  0  0  0  0  0  0  0  0  0  0
  123.6580  134.4830   62.9140 C   0  0  0  0  0  0  0  0  0  0  0  0
  123.7260  133.0930   62.9010 C   0  0  0  0  0  0  0  0  0  0  0  0
  125.9610  129.7910   66.6570 S   0  0  0  0  0  0  0  0  0  0  0  0
  127.3890  128.8130   66.8960 C   0  0  0  0  0  0  0  0  0  0  0  0
  127.9290  128.6570   68.1020 N   0  0  0  0  0  0  0  0  0  0  0  0
  129.0360  127.8740   68.1920 C   0  0  0  0  0  0  0  0  0  0  0  0
  129.6230  127.7190   69.5670 C   0  0  0  0  0  0  0  0  0  0  0  0
  130.8080  128.3830   69.9230 C   0  0  0  0  0  0  0  0  0  0  0  0
  131.3570  128.2420   71.1950 C   0  0  0  0  0  0  0  0  0  0  0  0
  130.7260  127.4300   72.1320 C   0  0  0  0  0  0  0  0  0  0  0  0
  129.5530  126.7590   71.8050 C   0  0  0  0  0  0  0  0  0  0  0  0
  129.0080  126.9030   70.5330 C   0  0  0  0  0  0  0  0  0  0  0  0
  129.6050  127.2680   67.0670 C   0  0  0  0  0  0  0  0  0  0  0  0
  129.0440  127.4260   65.7900 C   0  0  0  0  0  0  0  0  0  0  0  0
  129.7190  126.7340   64.6000 C   0  0  0  0  0  0  0  0  0  0  0  0
  128.9930  125.7340   64.0960 F   0  0  0  0  0  0  0  0  0  0  0  0
  129.9180  127.6160   63.6200 F   0  0  0  0  0  0  0  0  0  0  0  0
  130.8900  126.2260   64.9790 F   0  0  0  0  0  0  0  0  0  0  0  0
  127.8740  128.2330   65.6870 C   0  0  0  0  0  0  0  0  0  0  0  0
  1  2  1  0
  2  3  2  0
  3  4  1  0
  4  5  2  0
  4  6  1  0
  6  7  1  0
  7  8  1  0
  8  9  2  0
  9 10  1  0
 10 11  2  0
 11 12  1  0
 12 13  2  0
  3 14  1  0
 14 15  1  0
 15 16  2  0
 16 17  1  0
 17 18  1  0
 18 19  2  0
 19 20  1  0
 20 21  2  0
 21 22  1  0
 22 23  2  0
 17 24  2  0
 24 25  1  0
 25 26  1  0
 26 27  1  0
 26 28  1  0
 26 29  1  0
 25 30  2  0
 30  2  1  0
 13  8  1  0
 30 15  1  0
 23 18  1  0
M  END
>  <Binding energies>  (56) 
[-7.46]

>  <Ligand effiencies>  (56) 
[-0.22606060606060607]

>  <Interactions>  (56) 
["V-B:ILE:369:CD1:8210, V-B:ILE:369:CG2:8208, V-B:TRP:381:CH2:8343, V-A:TYR:539:CE2:4876, V-B:LEU:475:CD1:9229, V-A:TYR:539:CD2:4874, H-B:ASP:366:OD2:8186, V-B:GLY:454:CA:9020, V-A:GLU:543:CD:4908, H-B:ARG:545:NE:9895, V-B:HIS:456:CE1:9041, V-A:HIS:456:CE1:4069, H-B:GLY:454:N:9021, H-B:ARG:545:NH1:9898, H-B:ARG:545:NH2:9899, V-B:ARG:545:CZ:9897, V-A:GLU:543:CG:4907, V-B:ASP:366:CG:8184, H-B:GLU:543:OE1:9880, V-B:GLU:543:CD:9879, H-B:GLU:543:OE2:9881, V-B:GLU:543:CG:9878, V-A:HIS:456:CD2:4067, V-A:GLU:543:CB:4906, V-A:HIS:456:CG:4065, V-A:GLY:544:C:4912"]

$$$$
4ch_Grossjean_2025
     RDKit          3D

 36 39  0  0  0  0  0  0  0  0999 V2000
  130.9920  127.8430   72.0230 C   0  0  0  0  0  0  0  0  0  0  0  0
  130.5700  127.8630   73.3830 O   0  0  0  0  0  0  0  0  0  0  0  0
  129.4810  128.6370   73.7430 C   0  0  0  0  0  0  0  0  0  0  0  0
  129.3280  129.9870   73.3900 C   0  0  0  0  0  0  0  0  0  0  0  0
  128.2000  130.7080   73.7870 C   0  0  0  0  0  0  0  0  0  0  0  0
  128.0650  132.1800   73.4180 C   0  0  0  0  0  0  0  0  0  0  0  0
  129.3230  132.9260   73.4510 N   0  0  0  0  0  0  0  0  0  0  0  0
  129.5080  134.1260   74.0400 C   0  0  0  0  0  0  0  0  0  0  0  0
  128.6100  134.7120   74.6480 O   0  0  0  0  0  0  0  0  0  0  0  0
  130.8580  134.6840   73.9480 C   0  0  0  0  0  0  0  0  0  0  0  0
  132.2550  133.6140   73.9180 S   0  0  0  0  0  0  0  0  0  0  0  0
  133.3470  134.9710   73.7790 C   0  0  0  0  0  0  0  0  0  0  0  0
  134.6640  134.7990   73.7140 N   0  0  0  0  0  0  0  0  0  0  0  0
  135.4330  135.9130   73.6010 C   0  0  0  0  0  0  0  0  0  0  0  0
  136.9160  135.6850   73.5370 C   0  0  0  0  0  0  0  0  0  0  0  0
  137.8140  136.6500   74.0220 C   0  0  0  0  0  0  0  0  0  0  0  0
  139.1900  136.4450   73.9650 C   0  0  0  0  0  0  0  0  0  0  0  0
  139.6900  135.2680   73.4190 C   0  0  0  0  0  0  0  0  0  0  0  0
  138.8240  134.2980   72.9270 C   0  0  0  0  0  0  0  0  0  0  0  0
  137.4490  134.5080   72.9840 C   0  0  0  0  0  0  0  0  0  0  0  0
  134.8750  137.1950   73.5710 C   0  0  0  0  0  0  0  0  0  0  0  0
  133.4860  137.3890   73.6400 C   0  0  0  0  0  0  0  0  0  0  0  0
  132.9410  138.8210   73.6020 C   0  0  0  0  0  0  0  0  0  0  0  0
  132.0070  139.0010   72.6650 F   0  0  0  0  0  0  0  0  0  0  0  0
  132.3920  139.1260   74.7760 F   0  0  0  0  0  0  0  0  0  0  0  0
  133.9320  139.6740   73.3450 F   0  0  0  0  0  0  0  0  0  0  0  0
  132.6700  136.2260   73.7450 C   0  0  0  0  0  0  0  0  0  0  0  0
  131.2440  136.0290   73.8330 C   0  0  0  0  0  0  0  0  0  0  0  0
  130.3470  137.0670   73.8140 N   0  0  0  0  0  0  0  0  0  0  0  0
  127.2210  130.0820   74.5600 C   0  0  0  0  0  0  0  0  0  0  0  0
  127.3490  128.7330   74.9290 C   0  0  0  0  0  0  0  0  0  0  0  0
  126.4180  128.0500   75.6900 O   0  0  0  0  0  0  0  0  0  0  0  0
  125.2250  128.7130   76.0960 C   0  0  0  0  0  0  0  0  0  0  0  0
  128.4810  128.0200   74.5080 C   0  0  0  0  0  0  0  0  0  0  0  0
  128.6260  126.7040   74.8750 O   0  0  0  0  0  0  0  0  0  0  0  0
  129.4800  126.5060   75.9940 C   0  0  0  0  0  0  0  0  0  0  0  0
  1  2  1  0
  2  3  1  0
  3  4  2  0
  4  5  1  0
  5  6  1  0
  6  7  1  0
  7  8  1  0
  8  9  2  0
  8 10  1  0
 10 11  1  0
 11 12  1  0
 12 13  2  0
 13 14  1  0
 14 15  1  0
 15 16  2  0
 16 17  1  0
 17 18  2  0
 18 19  1  0
 19 20  2  0
 14 21  2  0
 21 22  1  0
 22 23  1  0
 23 24  1  0
 23 25  1  0
 23 26  1  0
 22 27  2  0
 27 28  1  0
 28 29  1  0
  5 30  2  0
 30 31  1  0
 31 32  1  0
 32 33  1  0
 31 34  2  0
 34 35  1  0
 35 36  1  0
 34  3  1  0
 28 10  2  0
 27 12  1  0
 20 15  1  0
M  END
>  <Binding energies>  (57) 
[-7.09]

>  <Ligand effiencies>  (57) 
[-0.1817948717948718]

>  <Interactions>  (57) 
["V-A:HIS:456:CE1:4069, H-B:LYS:547:NZ:9922, V-B:HIS:456:CG:9037, V-B:TYR:484:CB:9312, V-B:TYR:484:CA:9310, V-B:HIS:456:CD2:9039, V-B:TYR:484:CG:9313, V-B:VAL:458:CG2:9058, V-B:TYR:484:C:9308, V-B:HIS:456:CB:9036, V-B:TYR:484:CD1:9314, H-A:GLU:543:O:4903, V-A:GLY:544:C:4912, H-A:LYS:547:NZ:4951, V-B:LYS:547:CE:9921, V-A:GLY:544:CA:4914, H-B:SER:483:OG:9305, V-B:SER:483:CB:9304, V-A:ARG:356:CB:3116, V-A:PHE:548:CE2:4965, V-A:ILE:546:C:4934, V-A:ARG:356:C:3112, V-A:GLU:357:CB:3133, V-A:ARG:356:CA:3114, H-B:TYR:484:O:9309, V-A:ILE:546:CB:4938, V-A:ILE:546:CG2:4939, V-A:GLU:357:CA:3131"]

$$$$
4cj_Grossjean_2025
     RDKit          3D

 28 31  0  0  0  0  0  0  0  0999 V2000
  123.7770  130.7430   60.3500 N   0  0  0  0  0  0  0  0  0  0  0  0
  125.0590  131.1430   60.6310 C   0  0  0  0  0  0  0  0  0  0  0  0
  125.5350  131.3370   61.9380 C   0  0  0  0  0  0  0  0  0  0  0  0
  124.8230  131.1590   63.2050 C   0  0  0  0  0  0  0  0  0  0  0  0
  123.7490  131.7300   63.4110 O   0  0  0  0  0  0  0  0  0  0  0  0
  125.4310  130.3480   64.1060 N   0  0  0  0  0  0  0  0  0  0  0  0
  124.9700  130.0160   65.3730 C   0  0  0  0  0  0  0  0  0  0  0  0
  123.7250  129.9960   65.7990 N   0  0  0  0  0  0  0  0  0  0  0  0
  123.6510  129.6290   67.0630 C   0  0  0  0  0  0  0  0  0  0  0  0
  124.8590  129.3400   67.6920 C   0  0  0  0  0  0  0  0  0  0  0  0
  126.1560  129.5640   66.5550 S   0  0  0  0  0  0  0  0  0  0  0  0
  127.2250  131.8360   61.9320 S   0  0  0  0  0  0  0  0  0  0  0  0
  127.2800  131.7850   60.1860 C   0  0  0  0  0  0  0  0  0  0  0  0
  128.3920  132.0820   59.5180 N   0  0  0  0  0  0  0  0  0  0  0  0
  128.3420  132.0070   58.1630 C   0  0  0  0  0  0  0  0  0  0  0  0
  129.6170  132.3360   57.4400 C   0  0  0  0  0  0  0  0  0  0  0  0
  129.6060  132.6510   56.0720 C   0  0  0  0  0  0  0  0  0  0  0  0
  130.7850  132.9520   55.3940 C   0  0  0  0  0  0  0  0  0  0  0  0
  131.9970  132.9380   56.0780 C   0  0  0  0  0  0  0  0  0  0  0  0
  132.0360  132.6270   57.4330 C   0  0  0  0  0  0  0  0  0  0  0  0
  130.8540  132.3290   58.1060 C   0  0  0  0  0  0  0  0  0  0  0  0
  127.1690  131.6580   57.4850 C   0  0  0  0  0  0  0  0  0  0  0  0
  125.9900  131.3440   58.1800 C   0  0  0  0  0  0  0  0  0  0  0  0
  124.7420  130.9660   57.3740 C   0  0  0  0  0  0  0  0  0  0  0  0
  123.6880  131.7380   57.6470 F   0  0  0  0  0  0  0  0  0  0  0  0
  124.9950  131.0820   56.0710 F   0  0  0  0  0  0  0  0  0  0  0  0
  124.3940  129.7080   57.6440 F   0  0  0  0  0  0  0  0  0  0  0  0
  126.0370  131.4010   59.6020 C   0  0  0  0  0  0  0  0  0  0  0  0
  1  2  1  0
  2  3  2  0
  3  4  1  0
  4  5  2  0
  4  6  1  0
  6  7  1  0
  7  8  2  0
  8  9  1  0
  9 10  2  0
 10 11  1  0
  3 12  1  0
 12 13  1  0
 13 14  2  0
 14 15  1  0
 15 16  1  0
 16 17  2  0
 17 18  1  0
 18 19  2  0
 19 20  1  0
 20 21  2  0
 15 22  2  0
 22 23  1  0
 23 24  1  0
 24 25  1  0
 24 26  1  0
 24 27  1  0
 23 28  2  0
 28  2  1  0
 11  7  1  0
 28 13  1  0
 21 16  1  0
M  END
>  <Binding energies>  (58) 
[-6.99]

>  <Ligand effiencies>  (58) 
[-0.22548387096774195]

>  <Interactions>  (58) 
["V-A:LEU:363:CD1:3188, V-B:ILE:369:CG2:8208, V-A:ILE:538:CB:4862, V-A:TYR:539:CE2:4876, V-A:TYR:539:C:4867, V-A:ILE:538:C:4858, V-A:PRO:540:CA:4883, V-A:ILE:538:CG2:4863, V-A:PRO:540:CB:4885, V-A:ILE:538:CA:4860, V-A:PRO:540:N:4884, V-A:MET:535:CE:4835, V-A:TYR:539:CD2:4874, V-A:PRO:540:CD:4887, H-B:ASP:366:OD2:8186, V-A:TYR:539:CZ:4877, V-B:GLY:454:CA:9020, V-B:ARG:545:CG:9893, V-B:ARG:545:CD:9894, H-B:ARG:545:NE:9895, V-B:HIS:456:CE1:9041, H-B:TYR:484:OH:9319, H-B:GLY:454:N:9021, V-B:ARG:545:CZ:9897, V-B:ASP:366:CG:8184, V-B:TYR:531:CZ:9765, V-B:ASP:366:CB:8183, V-B:ASP:366:CA:8181, H-B:ASP:366:O:8180, V-B:ILE:369:CB:8207, V-B:TYR:531:CE1:9763, V-B:ASP:366:C:8179, V-B:ASN:370:CB:8216, H-B:ASP:366:OD1:8185, V-B:ASN:370:CG:8217, V-B:ASN:370:CA:8214"]

$$$$
4ck_Grossjean_2025
     RDKit          3D

 33 35  0  0  0  0  0  0  0  0999 V2000
  131.4860  125.3910   58.2400 C   0  0  0  0  0  0  0  0  0  0  0  0
  130.9880  125.5410   56.9200 O   0  0  0  0  0  0  0  0  0  0  0  0
  129.5700  125.5010   56.8440 C   0  0  0  0  0  0  0  0  0  0  0  0
  129.0460  124.4350   57.8150 C   0  0  0  0  0  0  0  0  0  0  0  0
  128.2920  123.4750   57.0880 O   0  0  0  0  0  0  0  0  0  0  0  0
  127.8940  123.9250   55.7990 C   0  0  0  0  0  0  0  0  0  0  0  0
  127.0930  122.8160   55.1060 C   0  0  0  0  0  0  0  0  0  0  0  0
  126.5070  121.9850   56.0990 O   0  0  0  0  0  0  0  0  0  0  0  0
  125.1090  122.1840   56.2640 C   0  0  0  0  0  0  0  0  0  0  0  0
  124.8660  123.3140   57.2760 C   0  0  0  0  0  0  0  0  0  0  0  0
  125.9110  123.3720   58.2980 N   0  0  0  0  0  0  0  0  0  0  0  0
  125.7290  123.6820   59.5990 C   0  0  0  0  0  0  0  0  0  0  0  0
  124.6190  123.9290   60.0740 O   0  0  0  0  0  0  0  0  0  0  0  0
  126.9340  123.6990   60.4270 C   0  0  0  0  0  0  0  0  0  0  0  0
  127.1310  124.9250   61.6770 S   0  0  0  0  0  0  0  0  0  0  0  0
  128.6600  124.2370   62.1710 C   0  0  0  0  0  0  0  0  0  0  0  0
  129.3700  124.7630   63.1660 N   0  0  0  0  0  0  0  0  0  0  0  0
  130.5470  124.1610   63.4780 C   0  0  0  0  0  0  0  0  0  0  0  0
  131.3140  124.7680   64.6170 C   0  0  0  0  0  0  0  0  0  0  0  0
  132.7180  124.7890   64.6080 C   0  0  0  0  0  0  0  0  0  0  0  0
  133.4360  125.3490   65.6620 C   0  0  0  0  0  0  0  0  0  0  0  0
  132.7570  125.8980   66.7440 C   0  0  0  0  0  0  0  0  0  0  0  0
  131.3670  125.8950   66.7770 C   0  0  0  0  0  0  0  0  0  0  0  0
  130.6530  125.3360   65.7200 C   0  0  0  0  0  0  0  0  0  0  0  0
  131.0000  123.0270   62.7960 C   0  0  0  0  0  0  0  0  0  0  0  0
  130.2600  122.4640   61.7440 C   0  0  0  0  0  0  0  0  0  0  0  0
  130.8180  121.2230   61.0360 C   0  0  0  0  0  0  0  0  0  0  0  0
  131.7450  120.5850   61.7520 F   0  0  0  0  0  0  0  0  0  0  0  0
  129.8320  120.3590   60.7970 F   0  0  0  0  0  0  0  0  0  0  0  0
  131.3810  121.5800   59.8820 F   0  0  0  0  0  0  0  0  0  0  0  0
  129.0250  123.0900   61.4070 C   0  0  0  0  0  0  0  0  0  0  0  0
  128.0130  122.8010   60.4200 C   0  0  0  0  0  0  0  0  0  0  0  0
  128.1030  121.7440   59.5510 N   0  0  0  0  0  0  0  0  0  0  0  0
  1  2  1  0
  2  3  1  0
  3  4  1  0
  4  5  1  0
  5  6  1  0
  6  7  1  0
  7  8  1  0
  8  9  1  0
  9 10  1  0
 10 11  1  0
 11 12  1  0
 12 13  2  0
 12 14  1  0
 14 15  1  0
 15 16  1  0
 16 17  2  0
 17 18  1  0
 18 19  1  0
 19 20  2  0
 20 21  1  0
 21 22  2  0
 22 23  1  0
 23 24  2  0
 18 25  2  0
 25 26  1  0
 26 27  1  0
 27 28  1  0
 27 29  1  0
 27 30  1  0
 26 31  2  0
 31 32  1  0
 32 33  1  0
 32 14  2  0
 31 16  1  0
 24 19  1  0
M  END
>  <Binding energies>  (59) 
[-5.99]

>  <Ligand effiencies>  (59) 
[-0.1663888888888889]

>  <Interactions>  (59) 
["V-B:TYR:539:CD2:9845, V-B:PRO:540:N:9855, V-B:TYR:539:CD1:9844, V-B:TYR:539:CE2:9847, V-A:ILE:369:CG2:3236, V-B:MET:535:CE:9806, V-B:ILE:538:CG2:9834, V-A:LEU:475:CD2:4258, H-B:TYR:539:O:9839, V-B:TYR:539:CE1:9846, V-B:PRO:540:CA:9854, V-B:TYR:539:C:9838, V-B:PRO:540:CB:9856, V-B:PRO:540:C:9852, V-B:PRO:540:CD:9858, V-B:LEU:363:CD1:8160, V-B:ALA:541:CB:9863, V-A:HIS:456:CE1:4069, V-A:ARG:545:CZ:4926, V-B:GLU:543:CD:9879, V-B:TYR:539:CZ:9848, H-B:TYR:539:OH:9849, H-B:TYR:539:N:9841, H-A:TYR:531:OH:4795, V-B:PRO:540:CG:9857, V-A:ARG:545:CG:4922, V-A:ARG:545:CD:4923"]

$$$$
4dd_Grossjean_2025
     RDKit          3D

 26 29  0  0  0  0  0  0  0  0999 V2000
  125.7140  129.6700   64.1160 C   0  0  0  0  0  0  0  0  0  0  0  0
  126.0800  130.4930   62.8900 C   0  0  0  0  0  0  0  0  0  0  0  0
  126.0660  131.8890   63.0050 C   0  0  0  0  0  0  0  0  0  0  0  0
  126.3930  132.7030   61.9140 C   0  0  0  0  0  0  0  0  0  0  0  0
  126.3810  134.2000   62.0050 C   0  0  0  0  0  0  0  0  0  0  0  0
  127.5290  134.9500   61.6990 C   0  0  0  0  0  0  0  0  0  0  0  0
  127.5240  136.3400   61.7790 C   0  0  0  0  0  0  0  0  0  0  0  0
  126.3660  137.0030   62.1700 C   0  0  0  0  0  0  0  0  0  0  0  0
  125.2140  136.2870   62.4780 C   0  0  0  0  0  0  0  0  0  0  0  0
  125.2230  134.8970   62.3940 C   0  0  0  0  0  0  0  0  0  0  0  0
  126.7250  132.1810   60.7010 N   0  0  0  0  0  0  0  0  0  0  0  0
  126.7450  130.8540   60.5930 C   0  0  0  0  0  0  0  0  0  0  0  0
  127.1710  130.0500   59.0990 S   0  0  0  0  0  0  0  0  0  0  0  0
  126.9500  128.4610   59.8350 C   0  0  0  0  0  0  0  0  0  0  0  0
  127.1850  127.2440   59.0560 C   0  0  0  0  0  0  0  0  0  0  0  0
  128.2880  127.0250   58.5520 O   0  0  0  0  0  0  0  0  0  0  0  0
  126.1230  126.4090   58.9490 N   0  0  0  0  0  0  0  0  0  0  0  0
  126.0000  125.2020   58.2370 C   0  0  0  0  0  0  0  0  0  0  0  0
  124.7350  124.6070   58.2570 C   0  0  0  0  0  0  0  0  0  0  0  0
  124.5080  123.4170   57.5710 C   0  0  0  0  0  0  0  0  0  0  0  0
  125.5450  122.8240   56.8560 C   0  0  0  0  0  0  0  0  0  0  0  0
  126.8060  123.4120   56.8170 C   0  0  0  0  0  0  0  0  0  0  0  0
  127.0370  124.6020   57.5030 C   0  0  0  0  0  0  0  0  0  0  0  0
  126.5580  128.5770   61.1780 C   0  0  0  0  0  0  0  0  0  0  0  0
  126.3100  127.5030   61.9960 N   0  0  0  0  0  0  0  0  0  0  0  0
  126.4360  129.9350   61.6360 C   0  0  0  0  0  0  0  0  0  0  0  0
  1  2  1  0
  2  3  2  0
  3  4  1  0
  4  5  1  0
  5  6  2  0
  6  7  1  0
  7  8  2  0
  8  9  1  0
  9 10  2  0
  4 11  2  0
 11 12  1  0
 12 13  1  0
 13 14  1  0
 14 15  1  0
 15 16  2  0
 15 17  1  0
 17 18  1  0
 18 19  2  0
 19 20  1  0
 20 21  2  0
 21 22  1  0
 22 23  2  0
 14 24  2  0
 24 25  1  0
 24 26  1  0
 26  2  1  0
 10  5  1  0
 26 12  2  0
 23 18  1  0
M  END
>  <Binding energies>  (60) 
[-7.77]

>  <Ligand effiencies>  (60) 
[-0.2679310344827586]

>  <Interactions>  (60) 
["V-B:TRP:381:CH2:8343, V-B:TRP:381:CZ2:8341, V-B:LEU:475:CD1:9229, V-B:PRO:482:CB:9297, V-A:TYR:539:CD2:4874, V-B:TRP:381:CE2:8338, V-A:ALA:541:CB:4892, V-B:PRO:482:CG:9298, V-B:PRO:540:N:9855, V-B:PRO:540:CA:9854, V-B:PRO:540:CB:9856, H-B:ASP:366:OD2:8186, V-B:PRO:540:CD:9858, V-B:LEU:363:CD1:8160, V-B:ARG:545:CZ:9897, V-B:ASP:366:CG:8184, H-B:GLU:543:OE2:9881, V-B:LEU:363:CA:8156, H-B:TYR:531:OH:9766, H-B:ASP:366:OD1:8185"]

$$$$
4dg_Grossjean_2025
     RDKit          3D

 27 30  0  0  0  0  0  0  0  0999 V2000
  130.9600  126.6060   63.4610 C   0  0  0  0  0  0  0  0  0  0  0  0
  131.0370  125.8570   62.1390 C   0  0  0  0  0  0  0  0  0  0  0  0
  130.9780  124.4590   62.1680 C   0  0  0  0  0  0  0  0  0  0  0  0
  131.0430  123.7120   60.9850 C   0  0  0  0  0  0  0  0  0  0  0  0
  130.9820  122.2100   60.9840 C   0  0  0  0  0  0  0  0  0  0  0  0
  132.1050  121.4430   60.6370 C   0  0  0  0  0  0  0  0  0  0  0  0
  132.0520  120.0510   60.6300 C   0  0  0  0  0  0  0  0  0  0  0  0
  130.8700  119.4040   60.9730 C   0  0  0  0  0  0  0  0  0  0  0  0
  129.7400  120.1390   61.3190 C   0  0  0  0  0  0  0  0  0  0  0  0
  129.7980  121.5290   61.3230 C   0  0  0  0  0  0  0  0  0  0  0  0
  131.1460  124.3050   59.7650 N   0  0  0  0  0  0  0  0  0  0  0  0
  131.2030  125.6370   59.7370 C   0  0  0  0  0  0  0  0  0  0  0  0
  131.3430  126.5250   58.2370 S   0  0  0  0  0  0  0  0  0  0  0  0
  131.3410  128.0630   59.0980 C   0  0  0  0  0  0  0  0  0  0  0  0
  131.4850  129.3180   58.3610 C   0  0  0  0  0  0  0  0  0  0  0  0
  130.8770  129.5180   57.3090 O   0  0  0  0  0  0  0  0  0  0  0  0
  132.3480  130.2130   58.8860 N   0  0  0  0  0  0  0  0  0  0  0  0
  132.6340  131.5370   58.3340 C   0  0  0  0  0  0  0  0  0  0  0  0
  131.4830  132.1130   57.5160 C   0  0  0  0  0  0  0  0  0  0  0  0
  131.6040  132.2180   56.1270 C   0  0  0  0  0  0  0  0  0  0  0  0
  130.5440  132.7140   55.3730 C   0  0  0  0  0  0  0  0  0  0  0  0
  129.3630  133.0920   56.0080 C   0  0  0  0  0  0  0  0  0  0  0  0
  129.2290  132.9740   57.3900 C   0  0  0  0  0  0  0  0  0  0  0  0
  130.2890  132.4770   58.1440 C   0  0  0  0  0  0  0  0  0  0  0  0
  131.2510  127.8720   60.4850 C   0  0  0  0  0  0  0  0  0  0  0  0
  131.2430  128.8950   61.3980 N   0  0  0  0  0  0  0  0  0  0  0  0
  131.1590  126.4900   60.8750 C   0  0  0  0  0  0  0  0  0  0  0  0
  1  2  1  0
  2  3  2  0
  3  4  1  0
  4  5  1  0
  5  6  2  0
  6  7  1  0
  7  8  2  0
  8  9  1  0
  9 10  2  0
  4 11  2  0
 11 12  1  0
 12 13  1  0
 13 14  1  0
 14 15  1  0
 15 16  2  0
 15 17  1  0
 17 18  1  0
 18 19  1  0
 19 20  2  0
 20 21  1  0
 21 22  2  0
 22 23  1  0
 23 24  2  0
 14 25  2  0
 25 26  1  0
 25 27  1  0
 27  2  1  0
 10  5  1  0
 27 12  2  0
 24 19  1  0
M  END
>  <Binding energies>  (61) 
[-7.82]

>  <Ligand effiencies>  (61) 
[-0.26066666666666666]

>  <Interactions>  (61) 
["V-A:LEU:363:CD1:3188, V-A:ILE:538:CB:4862, V-A:TYR:539:CE2:4876, V-A:TYR:539:C:4867, V-A:PRO:540:CA:4883, V-A:ILE:538:CG2:4863, V-A:PRO:540:CB:4885, V-A:ILE:538:CA:4860, V-A:PRO:540:N:4884, V-A:MET:535:CE:4835, V-A:TYR:539:CD2:4874, V-B:TYR:539:CD2:9845, V-B:TYR:539:CE2:9847, V-A:ILE:369:CG2:3236, V-A:LEU:475:CD2:4258, V-B:ALA:541:CB:9863, V-B:ALA:541:CA:9861, V-A:TYR:539:CZ:4877, H-A:GLU:543:OE1:4909, V-A:ASP:366:CB:3211, H-A:ASP:366:OD2:3214, V-A:ASP:366:CG:3212, H-A:TYR:531:OH:4795, V-A:TYR:539:CE1:4875, V-A:TYR:539:CG:4872, V-A:TRP:381:CZ2:3369, V-A:TRP:381:CH2:3371, V-A:PRO:482:CB:4325, V-A:TYR:539:CD1:4873"]

$$$$
4dj_Grossjean_2025
     RDKit          3D

 25 28  0  0  0  0  0  0  0  0999 V2000
  125.6770  123.7350   61.9090 C   0  0  0  0  0  0  0  0  0  0  0  0
  126.7550  123.4520   60.8730 C   0  0  0  0  0  0  0  0  0  0  0  0
  126.3620  123.2790   59.5410 C   0  0  0  0  0  0  0  0  0  0  0  0
  127.3050  123.0140   58.5410 C   0  0  0  0  0  0  0  0  0  0  0  0
  126.9120  122.8290   57.1030 C   0  0  0  0  0  0  0  0  0  0  0  0
  127.7470  123.2750   56.0650 C   0  0  0  0  0  0  0  0  0  0  0  0
  127.3890  123.1070   54.7300 C   0  0  0  0  0  0  0  0  0  0  0  0
  126.1830  122.4920   54.4110 C   0  0  0  0  0  0  0  0  0  0  0  0
  125.3350  122.0440   55.4180 C   0  0  0  0  0  0  0  0  0  0  0  0
  125.6970  122.2130   56.7510 C   0  0  0  0  0  0  0  0  0  0  0  0
  128.6350  122.9300   58.8120 N   0  0  0  0  0  0  0  0  0  0  0  0
  129.0120  123.0940   60.0790 C   0  0  0  0  0  0  0  0  0  0  0  0
  130.6890  123.0040   60.5690 S   0  0  0  0  0  0  0  0  0  0  0  0
  130.2630  123.3170   62.2530 C   0  0  0  0  0  0  0  0  0  0  0  0
  131.3030  123.3680   63.2820 C   0  0  0  0  0  0  0  0  0  0  0  0
  131.9560  122.3610   63.5680 O   0  0  0  0  0  0  0  0  0  0  0  0
  131.4740  124.5730   63.8790 N   0  0  0  0  0  0  0  0  0  0  0  0
  132.3840  124.8870   64.8790 C   0  0  0  0  0  0  0  0  0  0  0  0
  133.6930  124.7550   64.8510 N   0  0  0  0  0  0  0  0  0  0  0  0
  134.2450  125.1540   65.9800 C   0  0  0  0  0  0  0  0  0  0  0  0
  133.3740  125.6250   66.9580 C   0  0  0  0  0  0  0  0  0  0  0  0
  131.7460  125.5360   66.3550 S   0  0  0  0  0  0  0  0  0  0  0  0
  128.8770  123.4770   62.4020 C   0  0  0  0  0  0  0  0  0  0  0  0
  128.2630  123.7270   63.6040 N   0  0  0  0  0  0  0  0  0  0  0  0
  128.1390  123.3560   61.1740 C   0  0  0  0  0  0  0  0  0  0  0  0
  1  2  1  0
  2  3  2  0
  3  4  1  0
  4  5  1  0
  5  6  2  0
  6  7  1  0
  7  8  2  0
  8  9  1  0
  9 10  2  0
  4 11  2  0
 11 12  1  0
 12 13  1  0
 13 14  1  0
 14 15  1  0
 15 16  2  0
 15 17  1  0
 17 18  1  0
 18 19  2  0
 19 20  1  0
 20 21  2  0
 21 22  1  0
 14 23  2  0
 23 24  1  0
 23 25  1  0
 25  2  1  0
 10  5  1  0
 25 12  2  0
 22 18  1  0
M  END
>  <Binding energies>  (62) 
[-8.08]

>  <Ligand effiencies>  (62) 
[-0.2885714285714286]

>  <Interactions>  (62) 
["V-B:PRO:540:N:9855, V-B:TYR:539:CD1:9844, V-B:TYR:539:CE2:9847, V-B:MET:535:CE:9806, V-B:ILE:538:CA:9831, V-B:ILE:538:CG2:9834, V-B:TYR:539:CE1:9846, V-B:PRO:540:CA:9854, V-B:TYR:539:C:9838, V-B:PRO:540:CB:9856, V-B:PRO:540:CD:9858, V-B:LEU:363:CD1:8160, V-B:ALA:541:CB:9863, V-A:HIS:456:CE1:4069, H-B:GLU:543:OE1:9880, V-A:ARG:545:CZ:4926, V-B:GLU:543:CD:9879, H-B:GLU:543:OE2:9881, V-B:TYR:539:CZ:9848, V-B:ILE:538:CD1:9836, H-A:TYR:484:OH:4347, H-A:GLY:454:N:4049, V-B:GLU:543:CG:9878, V-B:ILE:538:CB:9833, V-B:ILE:538:C:9829, V-A:GLY:454:CA:4048, V-A:GLY:453:CA:4043, V-A:GLY:453:C:4041, V-A:ARG:545:CG:4922, V-A:ARG:545:CD:4923"]

$$$$
4ea_Grossjean_2025
     RDKit          3D

 31 34  0  0  0  0  0  0  0  0999 V2000
  127.4580  122.8610   54.3530 C   0  0  0  0  0  0  0  0  0  0  0  0
  126.1070  122.1990   54.6390 C   0  0  0  0  0  0  0  0  0  0  0  0
  125.9370  122.0600   56.0430 O   0  0  0  0  0  0  0  0  0  0  0  0
  126.9010  122.4620   56.9110 C   0  0  0  0  0  0  0  0  0  0  0  0
  127.8420  121.7440   57.2610 O   0  0  0  0  0  0  0  0  0  0  0  0
  126.7070  123.8680   57.4020 C   0  0  0  0  0  0  0  0  0  0  0  0
  125.7360  124.1220   58.3790 C   0  0  0  0  0  0  0  0  0  0  0  0
  125.5320  125.4140   58.8550 C   0  0  0  0  0  0  0  0  0  0  0  0
  126.2920  126.4770   58.3660 C   0  0  0  0  0  0  0  0  0  0  0  0
  125.9980  127.7380   58.9210 N   0  0  0  0  0  0  0  0  0  0  0  0
  126.0440  128.9740   58.3650 C   0  0  0  0  0  0  0  0  0  0  0  0
  126.3750  129.1990   57.2000 O   0  0  0  0  0  0  0  0  0  0  0  0
  125.6640  130.0730   59.2560 C   0  0  0  0  0  0  0  0  0  0  0  0
  125.0500  131.5900   58.5930 S   0  0  0  0  0  0  0  0  0  0  0  0
  124.8650  132.2710   60.1930 C   0  0  0  0  0  0  0  0  0  0  0  0
  124.3990  133.5060   60.3840 N   0  0  0  0  0  0  0  0  0  0  0  0
  124.3040  133.9150   61.6730 C   0  0  0  0  0  0  0  0  0  0  0  0
  123.7720  135.3230   61.8670 C   0  0  0  0  0  0  0  0  0  0  0  0
  124.6590  133.1250   62.7640 C   0  0  0  0  0  0  0  0  0  0  0  0
  125.1470  131.8300   62.5600 C   0  0  0  0  0  0  0  0  0  0  0  0
  125.5200  131.0030   63.7290 C   0  0  0  0  0  0  0  0  0  0  0  0
  124.5290  130.3990   64.5090 C   0  0  0  0  0  0  0  0  0  0  0  0
  124.8790  129.6190   65.6070 C   0  0  0  0  0  0  0  0  0  0  0  0
  126.2230  129.4470   65.9300 C   0  0  0  0  0  0  0  0  0  0  0  0
  127.2190  130.0490   65.1640 C   0  0  0  0  0  0  0  0  0  0  0  0
  126.8670  130.8280   64.0650 C   0  0  0  0  0  0  0  0  0  0  0  0
  125.2620  131.3630   61.2210 C   0  0  0  0  0  0  0  0  0  0  0  0
  125.7140  130.1170   60.6590 C   0  0  0  0  0  0  0  0  0  0  0  0
  126.1510  129.0780   61.4400 N   0  0  0  0  0  0  0  0  0  0  0  0
  127.2670  126.2310   57.3870 C   0  0  0  0  0  0  0  0  0  0  0  0
  127.4700  124.9390   56.9120 C   0  0  0  0  0  0  0  0  0  0  0  0
  1  2  1  0
  2  3  1  0
  3  4  1  0
  4  5  2  0
  4  6  1  0
  6  7  2  0
  7  8  1  0
  8  9  2  0
  9 10  1  0
 10 11  1  0
 11 12  2  0
 11 13  1  0
 13 14  1  0
 14 15  1  0
 15 16  2  0
 16 17  1  0
 17 18  1  0
 17 19  2  0
 19 20  1  0
 20 21  1  0
 21 22  2  0
 22 23  1  0
 23 24  2  0
 24 25  1  0
 25 26  2  0
 20 27  2  0
 27 28  1  0
 28 29  1  0
  9 30  1  0
 30 31  2  0
 31  6  1  0
 28 13  2  0
 27 15  1  0
 26 21  1  0
M  END
>  <Binding energies>  (63) 
[-8.8]

>  <Ligand effiencies>  (63) 
[-0.25882352941176473]

>  <Interactions>  (63) 
["V-B:ILE:369:CG2:8208, V-B:TRP:381:CH2:8343, V-A:TYR:539:CE2:4876, V-B:TRP:381:CZ2:8341, V-B:LEU:475:CD1:9229, V-B:PRO:540:N:9855, V-B:TYR:539:CD1:9844, V-B:MET:535:CE:9806, V-B:TYR:539:CG:9843, V-B:ILE:538:CA:9831, V-B:TYR:539:CE1:9846, V-B:PRO:540:CA:9854, V-B:TYR:539:C:9838, V-B:PRO:540:CB:9856, H-B:ASP:366:OD2:8186, V-A:TYR:539:CZ:4877, V-B:GLY:454:CA:9020, V-B:ARG:545:CZ:9897, V-A:GLU:543:CG:4907, V-B:ASP:366:CG:8184, V-B:GLU:543:CD:9879, V-B:TYR:539:CZ:9848, H-B:TYR:539:N:9841, H-B:TYR:531:OH:9766, V-B:ASP:366:CB:8183, V-B:ILE:538:CD1:9836, V-B:MET:535:CB:9803, V-B:ILE:538:CB:9833, V-B:ILE:538:C:9829, H-B:ASP:366:OD1:8185"]

$$$$
4eb_Grossjean_2025
     RDKit          3D

 30 33  0  0  0  0  0  0  0  0999 V2000
  126.5820  122.3880   54.3070 C   0  0  0  0  0  0  0  0  0  0  0  0
  126.0510  122.1160   55.5960 O   0  0  0  0  0  0  0  0  0  0  0  0
  126.7770  122.3640   56.7170 C   0  0  0  0  0  0  0  0  0  0  0  0
  127.5000  121.5230   57.2590 O   0  0  0  0  0  0  0  0  0  0  0  0
  126.6140  123.7660   57.2320 C   0  0  0  0  0  0  0  0  0  0  0  0
  125.5510  124.0560   58.0970 C   0  0  0  0  0  0  0  0  0  0  0  0
  125.3730  125.3450   58.5910 C   0  0  0  0  0  0  0  0  0  0  0  0
  126.2500  126.3690   58.2320 C   0  0  0  0  0  0  0  0  0  0  0  0
  125.9720  127.6310   58.7920 N   0  0  0  0  0  0  0  0  0  0  0  0
  126.0460  128.8690   58.2460 C   0  0  0  0  0  0  0  0  0  0  0  0
  126.3950  129.0970   57.0870 O   0  0  0  0  0  0  0  0  0  0  0  0
  125.6760  129.9700   59.1390 C   0  0  0  0  0  0  0  0  0  0  0  0
  125.0990  131.5010   58.4770 S   0  0  0  0  0  0  0  0  0  0  0  0
  124.9060  132.1760   60.0790 C   0  0  0  0  0  0  0  0  0  0  0  0
  124.4610  133.4190   60.2710 N   0  0  0  0  0  0  0  0  0  0  0  0
  124.3560  133.8220   61.5600 C   0  0  0  0  0  0  0  0  0  0  0  0
  123.8490  135.2400   61.7550 C   0  0  0  0  0  0  0  0  0  0  0  0
  124.6830  133.0210   62.6520 C   0  0  0  0  0  0  0  0  0  0  0  0
  125.1490  131.7170   62.4450 C   0  0  0  0  0  0  0  0  0  0  0  0
  125.4920  130.8770   63.6160 C   0  0  0  0  0  0  0  0  0  0  0  0
  126.8280  130.5790   63.8990 C   0  0  0  0  0  0  0  0  0  0  0  0
  127.1520  129.7900   65.0010 C   0  0  0  0  0  0  0  0  0  0  0  0
  126.1360  129.2960   65.8170 C   0  0  0  0  0  0  0  0  0  0  0  0
  124.8010  129.5850   65.5410 C   0  0  0  0  0  0  0  0  0  0  0  0
  124.4800  130.3740   64.4400 C   0  0  0  0  0  0  0  0  0  0  0  0
  125.2730  131.2560   61.1060 C   0  0  0  0  0  0  0  0  0  0  0  0
  125.7080  130.0060   60.5420 C   0  0  0  0  0  0  0  0  0  0  0  0
  126.1150  128.9530   61.3220 N   0  0  0  0  0  0  0  0  0  0  0  0
  127.3180  126.0870   57.3660 C   0  0  0  0  0  0  0  0  0  0  0  0
  127.4950  124.7980   56.8730 C   0  0  0  0  0  0  0  0  0  0  0  0
  1  2  1  0
  2  3  1  0
  3  4  2  0
  3  5  1  0
  5  6  2  0
  6  7  1  0
  7  8  2  0
  8  9  1  0
  9 10  1  0
 10 11  2  0
 10 12  1  0
 12 13  1  0
 13 14  1  0
 14 15  2  0
 15 16  1  0
 16 17  1  0
 16 18  2  0
 18 19  1  0
 19 20  1  0
 20 21  2  0
 21 22  1  0
 22 23  2  0
 23 24  1  0
 24 25  2  0
 19 26  2  0
 26 27  1  0
 27 28  1  0
  8 29  1  0
 29 30  2  0
 30  5  1  0
 27 12  2  0
 26 14  1  0
 25 20  1  0
M  END
>  <Binding energies>  (64) 
[-8.7]

>  <Ligand effiencies>  (64) 
[-0.2636363636363636]

>  <Interactions>  (64) 
["V-B:ILE:369:CG2:8208, V-B:TRP:381:CH2:8343, V-A:TYR:539:CE2:4876, V-B:TRP:381:CZ2:8341, V-B:LEU:475:CD1:9229, V-B:PRO:540:N:9855, V-B:TYR:539:CD1:9844, V-B:MET:535:CE:9806, V-B:TYR:539:CG:9843, V-B:ILE:538:CA:9831, V-B:TYR:539:CE1:9846, V-B:PRO:540:CA:9854, V-B:TYR:539:C:9838, V-B:PRO:540:CB:9856, H-B:ASP:366:OD2:8186, V-B:PRO:540:CD:9858, V-A:TYR:539:CZ:4877, V-B:GLY:454:CA:9020, V-B:ARG:545:CD:9894, V-B:ARG:545:CZ:9897, V-B:ASP:366:CG:8184, V-B:GLU:543:CD:9879, H-B:TYR:539:N:9841, H-B:TYR:531:OH:9766, V-B:ASP:366:CB:8183, V-B:ILE:538:CD1:9836, V-B:MET:535:CB:9803, H-B:ASP:366:OD1:8185"]

$$$$
8b_Ghoteimi_2023
     RDKit          3D

 34 38  0  0  0  0  0  0  0  0999 V2000
  129.0590  129.2640   75.3580 C   0  0  0  0  0  0  0  0  0  0  0  0
  130.0910  128.8160   74.4860 O   0  0  0  0  0  0  0  0  0  0  0  0
  129.8390  128.7370   73.1300 C   0  0  0  0  0  0  0  0  0  0  0  0
  129.7800  127.4580   72.5800 C   0  0  0  0  0  0  0  0  0  0  0  0
  129.5320  127.2810   71.2230 C   0  0  0  0  0  0  0  0  0  0  0  0
  129.3370  128.3830   70.3770 C   0  0  0  0  0  0  0  0  0  0  0  0
  129.0730  128.1990   68.9160 C   0  0  0  0  0  0  0  0  0  0  0  0
  128.2750  129.0920   68.1940 C   0  0  0  0  0  0  0  0  0  0  0  0
  128.0430  128.8980   66.8290 C   0  0  0  0  0  0  0  0  0  0  0  0
  127.1850  129.8570   66.0950 C   0  0  0  0  0  0  0  0  0  0  0  0
  125.8060  129.6530   66.0220 C   0  0  0  0  0  0  0  0  0  0  0  0
  125.0000  130.5610   65.3400 C   0  0  0  0  0  0  0  0  0  0  0  0
  125.5580  131.6810   64.7220 C   0  0  0  0  0  0  0  0  0  0  0  0
  124.6820  132.5270   64.0700 O   0  0  0  0  0  0  0  0  0  0  0  0
  124.0100  132.0670   62.9020 C   0  0  0  0  0  0  0  0  0  0  0  0
  126.9460  131.8810   64.7930 C   0  0  0  0  0  0  0  0  0  0  0  0
  127.7510  130.9730   65.4760 C   0  0  0  0  0  0  0  0  0  0  0  0
  128.6470  127.7750   66.2010 C   0  0  0  0  0  0  0  0  0  0  0  0
  128.6280  127.2870   64.8470 C   0  0  0  0  0  0  0  0  0  0  0  0
  127.9350  127.9200   63.8480 N   0  0  0  0  0  0  0  0  0  0  0  0
  129.3800  126.1170   64.6550 C   0  0  0  0  0  0  0  0  0  0  0  0
  129.5830  125.3570   63.4190 C   0  0  0  0  0  0  0  0  0  0  0  0
  130.5760  125.5550   62.7150 O   0  0  0  0  0  0  0  0  0  0  0  0
  128.6160  124.4510   63.1270 N   0  0  0  0  0  0  0  0  0  0  0  0
  128.5570  123.6010   62.0320 C   0  0  0  0  0  0  0  0  0  0  0  0
  129.6290  123.4040   61.1630 C   0  0  0  0  0  0  0  0  0  0  0  0
  129.1700  122.5070   60.2250 C   0  0  0  0  0  0  0  0  0  0  0  0
  127.8900  122.1780   60.5160 O   0  0  0  0  0  0  0  0  0  0  0  0
  127.5120  122.8770   61.6640 N   0  0  0  0  0  0  0  0  0  0  0  0
  130.1360  125.5910   66.1590 S   0  0  0  0  0  0  0  0  0  0  0  0
  129.4430  126.9370   67.0330 C   0  0  0  0  0  0  0  0  0  0  0  0
  129.6620  127.1190   68.3350 N   0  0  0  0  0  0  0  0  0  0  0  0
  129.3960  129.6660   70.9360 C   0  0  0  0  0  0  0  0  0  0  0  0
  129.6440  129.8460   72.2940 C   0  0  0  0  0  0  0  0  0  0  0  0
  1  2  1  0
  2  3  1  0
  3  4  2  0
  4  5  1  0
  5  6  2  0
  6  7  1  0
  7  8  2  0
  8  9  1  0
  9 10  1  0
 10 11  2  0
 11 12  1  0
 12 13  2  0
 13 14  1  0
 14 15  1  0
 13 16  1  0
 16 17  2  0
  9 18  2  0
 18 19  1  0
 19 20  1  0
 19 21  2  0
 21 22  1  0
 22 23  2  0
 22 24  1  0
 24 25  1  0
 25 26  1  0
 26 27  2  0
 27 28  1  0
 28 29  1  0
 21 30  1  0
 30 31  1  0
 31 32  2  0
  6 33  1  0
 33 34  2  0
 34  3  1  0
 32  7  1  0
 17 10  1  0
 31 18  1  0
 29 25  2  0
M  END
>  <Binding energies>  (65) 
[-8.52]

>  <Ligand effiencies>  (65) 
[-0.23027027027027025]

>  <Interactions>  (65) 
["V-B:ILE:369:CD1:8210, V-B:LEU:475:CD1:9229, V-B:TYR:539:CD2:9845, V-B:TYR:539:CE2:9847, V-B:ALA:541:CB:9863, H-B:ALA:541:N:9862, V-B:GLY:454:CA:9020, V-A:GLU:543:CD:4908, V-B:HIS:456:CE1:9041, V-A:HIS:456:CE1:4069, H-B:GLY:454:N:9021, H-A:GLU:543:OE1:4909, V-A:GLU:543:CG:4907, H-B:GLU:543:OE1:9880, V-B:GLU:543:CD:9879, H-B:GLU:543:OE2:9881, V-B:GLU:543:CG:9878, V-A:GLU:543:CB:4906, V-A:GLU:543:C:4902, V-A:LYS:547:CE:4950, H-A:LYS:547:NZ:4951"]

$$$$
9d_Ghoteimi_2023
     RDKit          3D

 38 43  0  0  0  0  0  0  0  0999 V2000
  133.6320  125.1240   63.6620 C   0  0  0  0  0  0  0  0  0  0  0  0
  133.0810  124.0350   64.3880 O   0  0  0  0  0  0  0  0  0  0  0  0
  131.7470  123.7820   64.3570 C   0  0  0  0  0  0  0  0  0  0  0  0
  131.2600  122.6760   64.1030 O   0  0  0  0  0  0  0  0  0  0  0  0
  130.9270  124.9760   64.6570 C   0  0  0  0  0  0  0  0  0  0  0  0
  130.4190  126.0430   63.3490 S   0  0  0  0  0  0  0  0  0  0  0  0
  129.5540  127.0690   64.4690 C   0  0  0  0  0  0  0  0  0  0  0  0
  128.8670  128.1320   64.0530 N   0  0  0  0  0  0  0  0  0  0  0  0
  128.2150  128.8550   65.0010 C   0  0  0  0  0  0  0  0  0  0  0  0
  127.4290  130.0280   64.5090 C   0  0  0  0  0  0  0  0  0  0  0  0
  126.0890  129.8800   64.1390 C   0  0  0  0  0  0  0  0  0  0  0  0
  125.3490  130.9650   63.6770 C   0  0  0  0  0  0  0  0  0  0  0  0
  125.9220  132.2440   63.5790 C   0  0  0  0  0  0  0  0  0  0  0  0
  125.1970  133.3410   63.1000 N   0  0  0  0  0  0  0  0  0  0  0  0
  125.8440  134.3980   62.2970 C   0  0  0  0  0  0  0  0  0  0  0  0
  124.9970  135.6790   62.1540 C   0  0  0  0  0  0  0  0  0  0  0  0
  123.7160  135.3600   61.6370 O   0  0  0  0  0  0  0  0  0  0  0  0
  123.0160  134.4740   62.4950 C   0  0  0  0  0  0  0  0  0  0  0  0
  123.8010  133.1540   62.6510 C   0  0  0  0  0  0  0  0  0  0  0  0
  127.2710  132.3830   63.9370 C   0  0  0  0  0  0  0  0  0  0  0  0
  128.0100  131.2970   64.3960 C   0  0  0  0  0  0  0  0  0  0  0  0
  128.2780  128.5340   66.3590 C   0  0  0  0  0  0  0  0  0  0  0  0
  129.0150  127.4290   66.8030 C   0  0  0  0  0  0  0  0  0  0  0  0
  129.0720  127.1480   68.2620 C   0  0  0  0  0  0  0  0  0  0  0  0
  128.2460  126.1780   68.8340 C   0  0  0  0  0  0  0  0  0  0  0  0
  128.3170  125.9060   70.1980 C   0  0  0  0  0  0  0  0  0  0  0  0
  129.2280  126.5850   71.0220 C   0  0  0  0  0  0  0  0  0  0  0  0
  129.3120  126.3360   72.3940 N   0  0  0  0  0  0  0  0  0  0  0  0
  129.0070  124.9830   72.8980 C   0  0  0  0  0  0  0  0  0  0  0  0
  129.5070  124.7420   74.3390 C   0  0  0  0  0  0  0  0  0  0  0  0
  128.9840  125.7360   75.2070 O   0  0  0  0  0  0  0  0  0  0  0  0
  129.3850  127.0410   74.8140 C   0  0  0  0  0  0  0  0  0  0  0  0
  128.8770  127.3380   73.3860 C   0  0  0  0  0  0  0  0  0  0  0  0
  130.0510  127.5570   70.4370 C   0  0  0  0  0  0  0  0  0  0  0  0
  129.9790  127.8310   69.0740 C   0  0  0  0  0  0  0  0  0  0  0  0
  129.6710  126.6340   65.8230 C   0  0  0  0  0  0  0  0  0  0  0  0
  130.4470  125.4230   65.8950 C   0  0  0  0  0  0  0  0  0  0  0  0
  130.6750  124.7540   67.0690 N   0  0  0  0  0  0  0  0  0  0  0  0
  1  2  1  0
  2  3  1  0
  3  4  2  0
  3  5  1  0
  5  6  1  0
  6  7  1  0
  7  8  2  0
  8  9  1  0
  9 10  1  0
 10 11  2  0
 11 12  1  0
 12 13  2  0
 13 14  1  0
 14 15  1  0
 15 16  1  0
 16 17  1  0
 17 18  1  0
 18 19  1  0
 13 20  1  0
 20 21  2  0
  9 22  2  0
 22 23  1  0
 23 24  1  0
 24 25  2  0
 25 26  1  0
 26 27  2  0
 27 28  1  0
 28 29  1  0
 29 30  1  0
 30 31  1  0
 31 32  1  0
 32 33  1  0
 27 34  1  0
 34 35  2  0
 23 36  2  0
 36 37  1  0
 37 38  1  0
 37  5  2  0
 36  7  1  0
 21 10  1  0
 35 24  1  0
 19 14  1  0
 33 28  1  0
M  END
>  <Binding energies>  (66) 
[-8.52]

>  <Ligand effiencies>  (66) 
[-0.213]

>  <Interactions>  (66) 
["V-B:ILE:369:CD1:8210, V-B:ILE:369:CG2:8208, V-B:TRP:381:CH2:8343, V-B:TRP:381:CZ2:8341, V-B:LEU:475:CD1:9229, V-A:ALA:541:CB:4892, V-B:GLY:454:CA:9020, V-A:GLU:543:CD:4908, V-B:HIS:456:CE1:9041, V-A:HIS:456:CE1:4069, V-A:GLU:543:CG:4907, V-A:ARG:545:CZ:4926, V-B:GLU:543:CD:9879, V-A:TYR:484:CZ:4346, H-A:TYR:484:OH:4347, H-A:GLY:454:N:4049, V-B:GLU:543:CG:9878, V-B:ILE:369:CG1:8209, V-B:GLU:543:CB:9877, H-B:LYS:547:NZ:9922, V-B:HIS:456:CD2:9039, V-A:HIS:456:CD2:4067, V-B:GLU:543:C:9873, V-A:GLU:543:CB:4906, V-A:TYR:484:CE1:4344, V-B:SER:385:C:8376, V-B:LYS:547:CE:9921, H-A:HIS:456:NE2:4070"]

$$$$
RR10_Rahimova_2017
     RDKit          3D

 34 38  0  0  0  0  0  0  0  0999 V2000
  132.2530  125.1780   58.3740 C   0  0  0  0  0  0  0  0  0  0  0  0
  131.6890  125.0420   59.7990 C   0  0  1  0  0  0  0  0  0  0  0  0
  130.5430  126.0460   60.0630 C   0  0  0  0  0  0  0  0  0  0  0  0
  130.0160  125.9160   61.5110 C   0  0  0  0  0  0  0  0  0  0  0  0
  129.5180  124.4810   61.8240 C   0  0  1  0  0  0  0  0  0  0  0  0
  128.3030  124.1730   61.0580 N   0  0  0  0  0  0  0  0  0  0  0  0
  127.2220  123.5290   61.5360 C   0  0  0  0  0  0  0  0  0  0  0  0
  127.1320  123.1420   62.7030 O   0  0  0  0  0  0  0  0  0  0  0  0
  126.0720  123.2710   60.5400 C   0  0  1  0  0  0  0  0  0  0  0  0
  124.9070  124.2520   60.8360 C   0  0  0  0  0  0  0  0  0  0  0  0
  123.7900  124.0600   59.7820 C   0  0  0  0  0  0  0  0  0  0  0  0
  124.3230  124.1350   58.3330 C   0  0  0  0  0  0  0  0  0  0  0  0
  125.4770  123.2150   58.1490 N   0  0  0  0  0  0  0  0  0  0  0  0
  125.9790  122.9930   56.4640 S   0  0  0  0  0  0  0  0  0  0  0  0
  124.8010  123.1880   55.6090 O   0  0  0  0  0  0  0  0  0  0  0  0
  126.7540  121.7490   56.3840 O   0  0  0  0  0  0  0  0  0  0  0  0
  127.0910  124.3580   56.1270 C   0  0  0  0  0  0  0  0  0  0  0  0
  128.1920  124.1530   55.2880 C   0  0  0  0  0  0  0  0  0  0  0  0
  129.0980  125.1740   54.9870 C   0  0  0  0  0  0  0  0  0  0  0  0
  128.8480  126.4200   55.5660 C   0  0  0  0  0  0  0  0  0  0  0  0
  129.4870  127.6360   55.5220 N   0  0  0  0  0  0  0  0  0  0  0  0
  128.7750  128.5200   56.3060 C   0  0  0  0  0  0  0  0  0  0  0  0
  129.1710  129.9540   56.5120 C   0  0  0  0  0  0  0  0  0  0  0  0
  128.2060  130.9170   56.8370 C   0  0  0  0  0  0  0  0  0  0  0  0
  128.5720  132.2460   57.0320 C   0  0  0  0  0  0  0  0  0  0  0  0
  129.9080  132.6200   56.9030 C   0  0  0  0  0  0  0  0  0  0  0  0
  130.8780  131.6750   56.5820 C   0  0  0  0  0  0  0  0  0  0  0  0
  130.5110  130.3460   56.3870 C   0  0  0  0  0  0  0  0  0  0  0  0
  127.7170  127.9560   56.8460 N   0  0  0  0  0  0  0  0  0  0  0  0
  127.7370  126.6580   56.4110 C   0  0  0  0  0  0  0  0  0  0  0  0
  126.8430  125.6140   56.6920 C   0  0  0  0  0  0  0  0  0  0  0  0
  126.5930  123.4680   59.0950 C   0  0  0  0  0  0  0  0  0  0  0  0
  130.6730  123.4830   61.5380 C   0  0  0  0  0  0  0  0  0  0  0  0
  131.1970  123.6050   60.0900 C   0  0  0  0  0  0  0  0  0  0  0  0
  2  1  1  6
  2  3  1  0
  3  4  1  0
  4  5  1  0
  5  6  1  6
  6  7  1  0
  7  8  2  0
  9  7  1  1
  9 10  1  0
 10 11  1  0
 11 12  1  0
 12 13  1  0
 13 14  1  0
 14 15  2  0
 14 16  2  0
 14 17  1  0
 17 18  2  0
 18 19  1  0
 19 20  2  0
 20 21  1  0
 21 22  1  0
 22 23  1  0
 23 24  2  0
 24 25  1  0
 25 26  2  0
 26 27  1  0
 27 28  2  0
 22 29  2  0
 29 30  1  0
 30 31  2  0
 13 32  1  0
  5 33  1  0
 33 34  1  0
 34  2  1  0
 32  9  1  0
 31 17  1  0
 30 20  1  0
 28 23  1  0
M  END
>  <Binding energies>  (67) 
[-10.6]

>  <Ligand effiencies>  (67) 
[-0.29444444444444445]

>  <Interactions>  (67) 
["V-A:TYR:539:CE2:4876, V-A:TYR:539:C:4867, V-A:MET:535:CE:4835, V-A:TYR:539:CD2:4874, V-B:TYR:539:CE2:9847, V-B:MET:535:CE:9806, V-B:TYR:539:CE1:9846, V-B:PRO:540:CA:9854, V-B:PRO:540:CB:9856, V-B:PRO:540:C:9852, V-B:LEU:363:CD1:8160, V-B:ALA:541:CB:9863, H-B:ALA:541:N:9862, V-A:TYR:539:CZ:4877, V-A:TYR:531:CZ:4794, V-B:TYR:539:CZ:9848, H-B:TYR:539:N:9841, V-B:LEU:363:CA:8156, H-B:TYR:531:OH:9766, V-B:ASN:362:C:8143, V-B:LEU:363:CB:8158, V-A:ASP:366:CB:3211, H-A:TYR:531:OH:4795, H-A:MET:535:SD:4834"]

$$$$
RR12_Rahimova_2017
     RDKit          3D

 26 28  0  0  0  0  0  0  0  0999 V2000
  131.3770  132.2560   55.0790 C   0  0  0  0  0  0  0  0  0  0  0  0
  131.6310  132.7510   56.5090 C   0  0  0  0  0  0  0  0  0  0  0  0
  131.5480  131.6200   57.5500 C   0  0  0  0  0  0  0  0  0  0  0  0
  130.6050  131.9620   58.6120 N   0  0  0  0  0  0  0  0  0  0  0  0
  129.2560  132.2550   58.4810 C   0  0  0  0  0  0  0  0  0  0  0  0
  128.5270  132.3130   57.1490 C   0  0  0  0  0  0  0  0  0  0  0  0
  127.8240  130.9870   56.8070 C   0  0  0  0  0  0  0  0  0  0  0  0
  126.3120  131.0210   57.1020 C   0  0  0  0  0  0  0  0  0  0  0  0
  125.9760  131.6070   58.3990 N   0  0  0  0  0  0  0  0  0  0  0  0
  124.7440  131.9950   58.7750 C   0  0  0  0  0  0  0  0  0  0  0  0
  123.7530  131.8970   58.0480 O   0  0  0  0  0  0  0  0  0  0  0  0
  124.6340  132.5740   60.1920 C   0  0  0  0  0  0  0  0  0  0  0  0
  125.9330  132.9350   60.6610 O   0  0  0  0  0  0  0  0  0  0  0  0
  126.1330  134.1930   61.1990 C   0  0  0  0  0  0  0  0  0  0  0  0
  125.0180  134.8060   61.7730 C   0  0  0  0  0  0  0  0  0  0  0  0
  125.1220  136.0720   62.3430 C   0  0  0  0  0  0  0  0  0  0  0  0
  126.3480  136.7300   62.3400 C   0  0  0  0  0  0  0  0  0  0  0  0
  127.4710  136.1340   61.7690 C   0  0  0  0  0  0  0  0  0  0  0  0
  127.3650  134.8680   61.1990 C   0  0  0  0  0  0  0  0  0  0  0  0
  128.6630  132.4980   59.6240 N   0  0  0  0  0  0  0  0  0  0  0  0
  129.6400  132.3390   60.5670 C   0  0  0  0  0  0  0  0  0  0  0  0
  129.5510  132.4670   61.9610 C   0  0  0  0  0  0  0  0  0  0  0  0
  130.7030  132.2450   62.7160 C   0  0  0  0  0  0  0  0  0  0  0  0
  131.9120  131.9040   62.1100 C   0  0  0  0  0  0  0  0  0  0  0  0
  132.0340  131.7700   60.7260 C   0  0  0  0  0  0  0  0  0  0  0  0
  130.8780  131.9940   59.9680 C   0  0  0  0  0  0  0  0  0  0  0  0
  1  2  1  0
  2  3  1  0
  3  4  1  0
  4  5  1  0
  5  6  1  0
  6  7  1  0
  7  8  1  0
  8  9  1  0
  9 10  1  0
 10 11  2  0
 10 12  1  0
 12 13  1  0
 13 14  1  0
 14 15  2  0
 15 16  1  0
 16 17  2  0
 17 18  1  0
 18 19  2  0
  5 20  2  0
 20 21  1  0
 21 22  2  0
 22 23  1  0
 23 24  2  0
 24 25  1  0
 25 26  2  0
 26  4  1  0
 19 14  1  0
 26 21  1  0
M  END
>  <Binding energies>  (68) 
[-6.88]

>  <Ligand effiencies>  (68) 
[-0.2548148148148148]

>  <Interactions>  (68) 
["V-A:LEU:363:CD1:3188, V-B:ILE:369:CG2:8208, V-B:TRP:381:CH2:8343, V-A:ILE:538:CB:4862, V-A:TYR:539:CE2:4876, V-B:TRP:381:CZ2:8341, V-A:PRO:540:CA:4883, V-A:ILE:538:CG2:4863, V-A:PRO:540:CB:4885, V-B:LEU:475:CD1:9229, V-A:ILE:538:CA:4860, V-A:PRO:540:N:4884, V-B:PRO:482:CB:9297, V-A:MET:535:CE:4835, V-A:TYR:539:CD2:4874, V-B:TRP:381:CE2:8338, V-A:ALA:541:CB:4892, V-B:PRO:482:CG:9298, V-A:TYR:539:CZ:4877, H-A:TYR:539:OH:4878, V-A:GLU:543:CD:4908, V-A:MET:535:CG:4833, V-A:TYR:539:CE1:4875, V-A:ALA:541:CA:4890"]

$$$$
RR13_Rahimova_2017
     RDKit          3D

 48 54  0  0  0  0  0  0  0  0999 V2000
  131.0060  125.1220   58.2040 Cl  0  0  0  0  0  0  0  0  0  0  0  0
  130.0610  123.9410   59.0470 C   0  0  0  0  0  0  0  0  0  0  0  0
  130.6210  123.3520   60.1840 C   0  0  0  0  0  0  0  0  0  0  0  0
  129.9210  122.3800   60.8930 C   0  0  0  0  0  0  0  0  0  0  0  0
  128.6540  121.9880   60.4690 C   0  0  0  0  0  0  0  0  0  0  0  0
  128.0890  122.5720   59.3360 C   0  0  0  0  0  0  0  0  0  0  0  0
  128.7740  123.5620   58.6140 C   0  0  0  0  0  0  0  0  0  0  0  0
  128.1370  124.1750   57.3480 C   0  0  1  0  0  0  0  0  0  0  0  0
  126.9750  123.3090   56.8400 C   0  0  0  0  0  0  0  0  0  0  0  0
  127.0670  122.1370   56.2520 N   0  0  0  0  0  0  0  0  0  0  0  0
  125.7630  121.7560   55.9510 N   0  0  0  0  0  0  0  0  0  0  0  0
  124.8780  122.7360   56.3560 N   0  0  0  0  0  0  0  0  0  0  0  0
  125.6520  123.6940   56.8790 N   0  0  0  0  0  0  0  0  0  0  0  0
  125.0530  124.8930   57.4550 C   0  0  0  0  0  0  0  0  0  0  0  0
  124.0000  124.5090   58.5110 C   0  0  0  0  0  0  0  0  0  0  0  0
  124.6260  124.2060   59.8630 C   0  0  0  0  0  0  0  0  0  0  0  0
  123.9300  123.4320   60.7960 C   0  0  0  0  0  0  0  0  0  0  0  0
  124.5010  123.1620   62.0370 C   0  0  0  0  0  0  0  0  0  0  0  0
  125.7650  123.6660   62.3400 C   0  0  0  0  0  0  0  0  0  0  0  0
  126.4620  124.4380   61.4150 C   0  0  0  0  0  0  0  0  0  0  0  0
  125.8920  124.7100   60.1730 C   0  0  0  0  0  0  0  0  0  0  0  0
  127.7520  125.5980   57.5100 N   0  0  0  0  0  0  0  0  0  0  0  0
  128.3520  126.4210   56.4450 C   0  0  0  0  0  0  0  0  0  0  0  0
  127.8490  127.8810   56.5290 C   0  0  0  0  0  0  0  0  0  0  0  0
  128.2270  128.4870   57.8170 N   0  0  0  0  0  0  0  0  0  0  0  0
  127.8360  129.9130   57.9080 C   0  0  1  0  0  0  0  0  0  0  0  0
  128.8210  130.9160   57.2690 C   0  0  0  0  0  0  0  0  0  0  0  0
  128.2700  131.9770   56.5380 C   0  0  0  0  0  0  0  0  0  0  0  0
  129.0820  132.9400   55.9400 C   0  0  0  0  0  0  0  0  0  0  0  0
  130.4660  132.8510   56.0610 C   0  0  0  0  0  0  0  0  0  0  0  0
  131.0350  131.7960   56.7680 C   0  0  0  0  0  0  0  0  0  0  0  0
  130.2290  130.8240   57.3680 C   0  0  0  0  0  0  0  0  0  0  0  0
  131.0340  129.5150   58.1670 Cl  0  0  0  0  0  0  0  0  0  0  0  0
  126.4150  130.1800   57.4080 C   0  0  0  0  0  0  0  0  0  0  0  0
  125.9940  129.9990   56.1770 N   0  0  0  0  0  0  0  0  0  0  0  0
  124.6470  130.3480   56.1790 N   0  0  0  0  0  0  0  0  0  0  0  0
  124.2590  130.7300   57.4470 N   0  0  0  0  0  0  0  0  0  0  0  0
  125.3610  130.5980   58.1940 N   0  0  0  0  0  0  0  0  0  0  0  0
  125.3280  130.9400   59.6110 C   0  0  0  0  0  0  0  0  0  0  0  0
  126.6150  131.6830   60.0150 C   0  0  0  0  0  0  0  0  0  0  0  0
  126.3310  133.0880   60.5240 C   0  0  0  0  0  0  0  0  0  0  0  0
  127.3890  133.9200   60.9000 C   0  0  0  0  0  0  0  0  0  0  0  0
  127.1290  135.2090   61.3590 C   0  0  0  0  0  0  0  0  0  0  0  0
  125.8120  135.6600   61.4420 C   0  0  0  0  0  0  0  0  0  0  0  0
  124.7540  134.8340   61.0670 C   0  0  0  0  0  0  0  0  0  0  0  0
  125.0130  133.5460   60.6070 C   0  0  0  0  0  0  0  0  0  0  0  0
  127.6210  127.6640   58.8790 C   0  0  0  0  0  0  0  0  0  0  0  0
  128.1360  126.2080   58.7950 C   0  0  0  0  0  0  0  0  0  0  0  0
  1  2  1  0
  2  3  2  0
  3  4  1  0
  4  5  2  0
  5  6  1  0
  6  7  2  0
  7  8  1  0
  8  9  1  0
  9 10  2  0
 10 11  1  0
 11 12  2  0
 12 13  1  0
 13 14  1  0
 14 15  1  0
 15 16  1  0
 16 17  2  0
 17 18  1  0
 18 19  2  0
 19 20  1  0
 20 21  2  0
  8 22  1  1
 22 23  1  0
 23 24  1  0
 24 25  1  0
 26 25  1  6
 26 27  1  0
 27 28  2  0
 28 29  1  0
 29 30  2  0
 30 31  1  0
 31 32  2  0
 32 33  1  0
 26 34  1  0
 34 35  2  0
 35 36  1  0
 36 37  2  0
 37 38  1  0
 38 39  1  0
 39 40  1  0
 40 41  1  0
 41 42  2  0
 42 43  1  0
 43 44  2  0
 44 45  1  0
 45 46  2  0
 25 47  1  0
 47 48  1  0
  7  2  1  0
 13  9  1  0
 21 16  1  0
 48 22  1  0
 32 27  1  0
 38 34  1  0
 46 41  1  0
M  END
>  <Binding energies>  (69) 
[-14.94]

>  <Ligand effiencies>  (69) 
[-0.31124999999999997]

>  <Interactions>  (69) 
["V-B:ILE:369:CG2:8208, V-B:TRP:381:CH2:8343, V-A:ILE:538:CB:4862, V-A:TYR:539:CE2:4876, V-B:TRP:381:CZ2:8341, V-A:ILE:538:CA:4860, V-A:MET:535:CE:4835, V-A:TYR:539:CD2:4874, V-B:TYR:539:CD2:9845, V-B:PRO:540:N:9855, V-B:TYR:539:CE2:9847, V-B:MET:535:CE:9806, V-B:TYR:539:CE1:9846, V-B:PRO:540:CA:9854, V-B:TYR:539:C:9838, V-B:PRO:540:CB:9856, V-B:PRO:540:C:9852, V-B:LEU:363:CD1:8160, V-B:ALA:541:CB:9863, V-A:TYR:539:CZ:4877, H-A:TYR:539:OH:4878, V-B:ASP:366:CG:8184, V-B:GLU:543:CD:9879, V-B:TYR:539:CZ:9848, H-B:TYR:539:N:9841, V-B:LEU:363:CA:8156, H-B:TYR:531:OH:9766, V-B:ASN:362:C:8143, V-B:TYR:531:CZ:9765, V-B:TYR:531:CE2:9764, V-B:ASP:366:CB:8183, V-B:ASN:362:CB:8147, V-B:GLU:543:CG:9878, V-A:TYR:539:CE1:4875, V-A:TYR:539:CG:4872, V-B:ASN:362:CA:8145, V-B:ASN:362:CG:8148, V-A:TYR:539:CD1:4873"]

$$$$
RR14_Rahimova_2017
     RDKit          3D

 39 43  0  0  0  0  0  0  0  0999 V2000
  125.2360  122.0730   55.6600 C   0  0  0  0  0  0  0  0  0  0  0  0
  126.6020  122.2530   56.0190 O   0  0  0  0  0  0  0  0  0  0  0  0
  127.1170  123.5330   56.0870 C   0  0  0  0  0  0  0  0  0  0  0  0
  126.4950  124.4080   56.9790 C   0  0  0  0  0  0  0  0  0  0  0  0
  126.9290  125.7250   57.0980 C   0  0  0  0  0  0  0  0  0  0  0  0
  127.9930  126.1820   56.3170 C   0  0  0  0  0  0  0  0  0  0  0  0
  128.4280  127.6410   56.3960 C   0  0  0  0  0  0  0  0  0  0  0  0
  127.3170  128.5650   56.6160 N   0  0  0  0  0  0  0  0  0  0  0  0
  126.7350  129.1820   55.5810 N   0  0  0  0  0  0  0  0  0  0  0  0
  125.7660  129.9850   56.1500 N   0  0  0  0  0  0  0  0  0  0  0  0
  125.7820  129.8460   57.5340 N   0  0  0  0  0  0  0  0  0  0  0  0
  126.7360  128.9840   57.7940 C   0  0  0  0  0  0  0  0  0  0  0  0
  127.1500  128.5270   59.1860 C   0  0  0  0  0  0  0  0  0  0  0  0
  128.2860  129.2990   59.7170 N   0  0  0  0  0  0  0  0  0  0  0  0
  129.5500  128.5600   59.6080 C   0  0  0  0  0  0  0  0  0  0  0  0
  130.7830  129.4750   59.4430 C   0  0  0  0  0  0  0  0  0  0  0  0
  131.1340  129.7820   57.9720 C   0  0  0  0  0  0  0  0  0  0  0  0
  130.9520  131.1920   57.6140 N   0  0  0  0  0  0  0  0  0  0  0  0
  130.0040  131.3180   56.4990 C   0  0  0  0  0  0  0  0  0  0  0  0
  129.8300  132.7880   56.0620 C   0  0  0  0  0  0  0  0  0  0  0  0
  131.0970  133.3620   55.7600 O   0  0  0  0  0  0  0  0  0  0  0  0
  131.9780  133.3420   56.8780 C   0  0  0  0  0  0  0  0  0  0  0  0
  132.2190  131.8880   57.3380 C   0  0  0  0  0  0  0  0  0  0  0  0
  128.3850  130.5930   59.0270 C   0  0  0  0  0  0  0  0  0  0  0  0
  127.8220  131.7980   59.7780 C   0  0  0  0  0  0  0  0  0  0  0  0
  126.5020  131.8850   60.0720 C   0  0  0  0  0  0  0  0  0  0  0  0
  125.9250  133.0570   60.7620 C   0  0  0  0  0  0  0  0  0  0  0  0
  124.5660  133.1710   61.1000 C   0  0  0  0  0  0  0  0  0  0  0  0
  123.5670  132.0700   60.7730 C   0  0  0  0  0  0  0  0  0  0  0  0
  124.1230  134.3230   61.7550 C   0  0  0  0  0  0  0  0  0  0  0  0
  125.0130  135.3490   62.0720 C   0  0  0  0  0  0  0  0  0  0  0  0
  126.3670  135.2440   61.7420 C   0  0  0  0  0  0  0  0  0  0  0  0
  127.3150  136.3800   62.1040 C   0  0  0  0  0  0  0  0  0  0  0  0
  126.8230  134.0910   61.0840 C   0  0  0  0  0  0  0  0  0  0  0  0
  128.1800  133.9420   60.7290 N   0  0  0  0  0  0  0  0  0  0  0  0
  128.7520  132.8860   60.0970 C   0  0  0  0  0  0  0  0  0  0  0  0
  129.9540  132.8940   59.8320 O   0  0  0  0  0  0  0  0  0  0  0  0
  128.6410  125.3060   55.4430 C   0  0  0  0  0  0  0  0  0  0  0  0
  128.2050  123.9900   55.3250 C   0  0  0  0  0  0  0  0  0  0  0  0
  1  2  1  0
  2  3  1  0
  3  4  2  0
  4  5  1  0
  5  6  2  0
  6  7  1  0
  7  8  1  0
  8  9  1  0
  9 10  2  0
 10 11  1  0
 11 12  2  0
 12 13  1  0
 13 14  1  0
 14 15  1  0
 15 16  1  0
 16 17  1  0
 17 18  1  0
 18 19  1  0
 19 20  1  0
 20 21  1  0
 21 22  1  0
 22 23  1  0
 14 24  1  0
 24 25  1  0
 25 26  2  0
 26 27  1  0
 27 28  2  0
 28 29  1  0
 28 30  1  0
 30 31  2  0
 31 32  1  0
 32 33  1  0
 32 34  2  0
 34 35  1  0
 35 36  1  0
 36 37  2  0
  6 38  1  0
 38 39  2  0
 39  3  1  0
 12  8  1  0
 23 18  1  0
 36 25  1  0
 34 27  1  0
M  END
>  <Binding energies>  (70) 
[-10.74]

>  <Ligand effiencies>  (70) 
[-0.2685]

>  <Interactions>  (70) 
["V-B:ILE:369:CD1:8210, V-A:LEU:363:CD1:3188, V-B:ILE:369:CG2:8208, V-A:PRO:540:CG:4886, V-B:TRP:381:CH2:8343, V-A:ILE:538:CB:4862, V-A:TYR:539:CE2:4876, V-A:TYR:539:C:4867, V-A:PRO:540:CA:4883, V-A:PRO:540:CB:4885, V-B:LEU:475:CD1:9229, V-A:ILE:538:CA:4860, V-A:PRO:540:N:4884, V-B:PRO:482:CB:9297, V-A:MET:535:CE:4835, H-A:TYR:539:N:4870, V-A:TYR:539:CD2:4874, V-A:ALA:541:CB:4892, V-A:PRO:540:CD:4887, H-A:TYR:539:O:4868, V-B:PRO:482:CG:9298, V-B:PRO:540:N:9855, V-B:TYR:539:CD1:9844, V-B:MET:535:CE:9806, V-B:ILE:538:CA:9831, V-B:ILE:538:CG2:9834, V-B:TYR:539:CE1:9846, V-B:PRO:540:CD:9858, V-B:LEU:363:CD1:8160, H-A:TYR:539:OH:4878, V-B:TYR:539:CZ:9848, H-B:TYR:539:N:9841, H-B:TYR:531:OH:9766, V-B:ILE:538:CD1:9836, V-B:ILE:369:CB:8207"]

$$$$
RR15_Rahimova_2017
     RDKit          3D

 45 49  0  0  0  0  0  0  0  0999 V2000
  127.4190  132.2310   65.9330 C   0  0  0  0  0  0  0  0  0  0  0  0
  126.1010  132.2570   65.3950 O   0  0  0  0  0  0  0  0  0  0  0  0
  125.9160  132.0690   64.0370 C   0  0  0  0  0  0  0  0  0  0  0  0
  126.6880  132.7040   63.0510 C   0  0  0  0  0  0  0  0  0  0  0  0
  126.4480  132.4730   61.6990 C   0  0  0  0  0  0  0  0  0  0  0  0
  125.4300  131.6040   61.2920 C   0  0  0  0  0  0  0  0  0  0  0  0
  125.1660  131.3590   59.8320 C   0  0  0  0  0  0  0  0  0  0  0  0
  124.0530  131.7500   59.2250 N   0  0  0  0  0  0  0  0  0  0  0  0
  124.1710  131.3440   57.9120 N   0  0  0  0  0  0  0  0  0  0  0  0
  125.3790  130.7810   57.8650 N   0  0  0  0  0  0  0  0  0  0  0  0
  125.8530  130.0630   56.6830 C   0  0  0  0  0  0  0  0  0  0  0  0
  127.2770  129.4650   56.8140 C   0  0  0  0  0  0  0  0  0  0  0  0
  128.2080  130.0520   56.2580 O   0  0  0  0  0  0  0  0  0  0  0  0
  127.4700  128.3340   57.5590 N   0  0  0  0  0  0  0  0  0  0  0  0
  126.3460  127.6620   58.2400 C   0  0  0  0  0  0  0  0  0  0  0  0
  126.5720  126.1500   58.4610 C   0  0  0  0  0  0  0  0  0  0  0  0
  125.2880  125.2880   58.4080 C   0  0  0  0  0  0  0  0  0  0  0  0
  125.5030  123.9420   57.8670 N   0  0  0  0  0  0  0  0  0  0  0  0
  125.0090  123.7760   56.4920 C   0  0  0  0  0  0  0  0  0  0  0  0
  125.3360  122.3720   55.9400 C   0  0  0  0  0  0  0  0  0  0  0  0
  126.7330  122.1150   56.0460 O   0  0  0  0  0  0  0  0  0  0  0  0
  127.1950  122.1740   57.3910 C   0  0  0  0  0  0  0  0  0  0  0  0
  126.9210  123.5740   57.9810 C   0  0  0  0  0  0  0  0  0  0  0  0
  128.7620  127.5810   57.5900 C   0  0  2  0  0  0  0  0  0  0  0  0
  129.9580  128.3930   58.1770 C   0  0  0  0  0  0  0  0  0  0  0  0
  130.3220  128.2360   59.3420 O   0  0  0  0  0  0  0  0  0  0  0  0
  130.5710  129.2280   57.3190 N   0  0  0  0  0  0  0  0  0  0  0  0
  131.7680  130.0080   57.6120 C   0  0  0  0  0  0  0  0  0  0  0  0
  131.7970  131.3110   56.7910 C   0  0  2  0  0  0  0  0  0  0  0  0
  131.5520  132.6020   57.5930 C   0  0  0  0  0  0  0  0  0  0  0  0
  130.1120  132.9560   57.3100 C   0  0  0  0  0  0  0  0  0  0  0  0
  129.9600  132.4700   55.8790 C   0  0  0  0  0  0  0  0  0  0  0  0
  130.6810  131.2420   55.8930 O   0  0  0  0  0  0  0  0  0  0  0  0
  128.9900  126.8490   56.2720 C   0  0  0  0  0  0  0  0  0  0  0  0
  128.8150  125.4600   56.2500 C   0  0  0  0  0  0  0  0  0  0  0  0
  129.0100  124.7400   55.0760 C   0  0  0  0  0  0  0  0  0  0  0  0
  129.3810  125.4050   53.9110 C   0  0  0  0  0  0  0  0  0  0  0  0
  129.5700  124.7050   52.7690 F   0  0  0  0  0  0  0  0  0  0  0  0
  129.5590  126.7860   53.9130 C   0  0  0  0  0  0  0  0  0  0  0  0
  129.3640  127.5060   55.0880 C   0  0  0  0  0  0  0  0  0  0  0  0
  126.0160  130.7320   59.0410 N   0  0  0  0  0  0  0  0  0  0  0  0
  124.6620  130.9700   62.2780 C   0  0  0  0  0  0  0  0  0  0  0  0
  124.8950  131.1910   63.6460 C   0  0  0  0  0  0  0  0  0  0  0  0
  124.1660  130.5860   64.6560 O   0  0  0  0  0  0  0  0  0  0  0  0
  124.8210  129.7130   65.5690 C   0  0  0  0  0  0  0  0  0  0  0  0
  1  2  1  0
  2  3  1  0
  3  4  2  0
  4  5  1  0
  5  6  2  0
  6  7  1  0
  7  8  1  0
  8  9  2  0
  9 10  1  0
 10 11  1  0
 11 12  1  0
 12 13  2  0
 12 14  1  0
 14 15  1  0
 15 16  1  0
 16 17  1  0
 17 18  1  0
 18 19  1  0
 19 20  1  0
 20 21  1  0
 21 22  1  0
 22 23  1  0
 24 14  1  6
 24 25  1  0
 25 26  2  0
 25 27  1  0
 27 28  1  0
 29 28  1  1
 29 30  1  0
 30 31  1  0
 31 32  1  0
 32 33  1  0
 24 34  1  0
 34 35  2  0
 35 36  1  0
 36 37  2  0
 37 38  1  0
 37 39  1  0
 39 40  2  0
 10 41  1  0
  6 42  1  0
 42 43  2  0
 43 44  1  0
 44 45  1  0
 43  3  1  0
 41  7  2  0
 23 18  1  0
 33 29  1  0
 40 34  1  0
M  END
>  <Binding energies>  (71) 
[-9.42]

>  <Ligand effiencies>  (71) 
[-0.20478260869565218]

>  <Interactions>  (71) 
["V-A:LEU:363:CD1:3188, V-A:TYR:539:CE2:4876, V-A:TYR:539:C:4867, V-A:PRO:540:CA:4883, V-A:PRO:540:CB:4885, V-B:LEU:475:CD1:9229, V-A:PRO:540:N:4884, V-A:MET:535:CE:4835, V-A:PRO:540:CD:4887, V-B:TYR:539:CD2:9845, V-B:PRO:540:N:9855, V-B:TYR:539:CD1:9844, V-B:TYR:539:CE2:9847, V-B:MET:535:CE:9806, V-B:TYR:539:CG:9843, V-B:ILE:538:CG2:9834, V-B:TYR:539:CE1:9846, V-B:PRO:540:CA:9854, V-B:TYR:539:C:9838, V-B:TYR:539:CA:9840, V-B:PRO:540:CD:9858, V-B:LEU:363:CD1:8160, H-A:TYR:539:OH:4878, V-A:TYR:531:CZ:4794, V-A:TYR:531:CE2:4793, H-B:TYR:484:OH:9319, H-B:GLY:454:N:9021, V-B:ARG:545:CZ:9897, V-A:GLU:543:CG:4907, V-B:ASP:366:CG:8184, V-B:TYR:539:CZ:9848, H-B:TYR:539:N:9841, V-A:TYR:531:CE1:4792, V-B:TYR:531:CZ:9765, V-B:MET:535:CG:9804, V-B:ILE:538:CD1:9836, V-B:MET:535:CB:9803, H-A:TYR:531:OH:4795, V-B:TYR:531:CE1:9763, V-A:ASN:370:CG:3245, V-B:TYR:484:CE1:9316, V-A:LYS:534:CD:4821, V-B:TYR:484:CZ:9318"]

$$$$
RR17_Rahimova_2017
     RDKit          3D

 38 41  0  0  0  0  0  0  0  0999 V2000
  130.7360  122.1690   63.2800 C   0  0  0  0  0  0  0  0  0  0  0  0
  131.1130  122.5020   64.7270 C   0  0  0  0  0  0  0  0  0  0  0  0
  131.6990  123.8010   64.7590 O   0  0  0  0  0  0  0  0  0  0  0  0
  130.9370  124.8770   65.1750 C   0  0  0  0  0  0  0  0  0  0  0  0
  130.4900  124.8500   66.4950 C   0  0  0  0  0  0  0  0  0  0  0  0
  129.7160  125.8880   67.0040 C   0  0  0  0  0  0  0  0  0  0  0  0
  129.3700  126.9820   66.1960 C   0  0  0  0  0  0  0  0  0  0  0  0
  128.5350  128.0880   66.7730 C   0  0  0  0  0  0  0  0  0  0  0  0
  128.4870  128.3180   67.9850 O   0  0  0  0  0  0  0  0  0  0  0  0
  127.7090  128.9340   65.7780 C   0  0  0  0  0  0  0  0  0  0  0  0
  126.4130  129.9140   66.6180 S   0  0  0  0  0  0  0  0  0  0  0  0
  125.2380  130.0570   65.3000 C   0  0  0  0  0  0  0  0  0  0  0  0
  123.9710  129.7230   65.3720 N   0  0  0  0  0  0  0  0  0  0  0  0
  123.3890  129.9920   64.1400 N   0  0  0  0  0  0  0  0  0  0  0  0
  124.3270  130.4830   63.3700 C   0  0  0  0  0  0  0  0  0  0  0  0
  124.1170  130.9280   61.9300 C   0  0  0  0  0  0  0  0  0  0  0  0
  123.6190  132.2950   61.8010 N   0  0  0  0  0  0  0  0  0  0  0  0
  124.4500  133.4290   61.7690 C   0  0  0  0  0  0  0  0  0  0  0  0
  125.7100  133.2860   61.1890 C   0  0  0  0  0  0  0  0  0  0  0  0
  126.5850  134.3670   61.1290 C   0  0  0  0  0  0  0  0  0  0  0  0
  126.2060  135.6090   61.6480 C   0  0  0  0  0  0  0  0  0  0  0  0
  127.1810  136.7840   61.5810 C   0  0  0  0  0  0  0  0  0  0  0  0
  127.3450  137.2340   60.3350 F   0  0  0  0  0  0  0  0  0  0  0  0
  126.7410  137.7970   62.3300 F   0  0  0  0  0  0  0  0  0  0  0  0
  128.3680  136.3940   62.0450 F   0  0  0  0  0  0  0  0  0  0  0  0
  124.9400  135.7560   62.2240 C   0  0  0  0  0  0  0  0  0  0  0  0
  124.0660  134.6750   62.2820 C   0  0  0  0  0  0  0  0  0  0  0  0
  125.5310  130.5410   64.0410 N   0  0  0  0  0  0  0  0  0  0  0  0
  126.7620  131.0140   63.5620 C   0  0  0  0  0  0  0  0  0  0  0  0
  127.4170  130.3180   62.5460 C   0  0  0  0  0  0  0  0  0  0  0  0
  128.6400  130.7860   62.0730 C   0  0  0  0  0  0  0  0  0  0  0  0
  129.2100  131.9500   62.6140 C   0  0  0  0  0  0  0  0  0  0  0  0
  130.4160  132.4870   62.2070 O   0  0  0  0  0  0  0  0  0  0  0  0
  131.5570  131.6400   62.1120 C   0  0  0  0  0  0  0  0  0  0  0  0
  128.5400  132.6320   63.6320 C   0  0  0  0  0  0  0  0  0  0  0  0
  127.3170  132.1700   64.1090 C   0  0  0  0  0  0  0  0  0  0  0  0
  129.8210  127.0080   64.8690 C   0  0  0  0  0  0  0  0  0  0  0  0
  130.5960  125.9680   64.3620 C   0  0  0  0  0  0  0  0  0  0  0  0
  1  2  1  0
  2  3  1  0
  3  4  1  0
  4  5  2  0
  5  6  1  0
  6  7  2  0
  7  8  1  0
  8  9  2  0
  8 10  1  0
 10 11  1  0
 11 12  1  0
 12 13  2  0
 13 14  1  0
 14 15  2  0
 15 16  1  0
 16 17  1  0
 17 18  1  0
 18 19  2  0
 19 20  1  0
 20 21  2  0
 21 22  1  0
 22 23  1  0
 22 24  1  0
 22 25  1  0
 21 26  1  0
 26 27  2  0
 15 28  1  0
 28 29  1  0
 29 30  2  0
 30 31  1  0
 31 32  2  0
 32 33  1  0
 33 34  1  0
 32 35  1  0
 35 36  2  0
  7 37  1  0
 37 38  2  0
 38  4  1  0
 28 12  1  0
 36 29  1  0
 27 18  1  0
M  END
>  <Binding energies>  (72) 
[-8.32]

>  <Ligand effiencies>  (72) 
[-0.21333333333333335]

>  <Interactions>  (72) 
["V-B:ILE:369:CD1:8210, V-B:ILE:369:CG2:8208, V-B:TRP:381:CH2:8343, V-A:TYR:539:CE2:4876, V-B:TRP:381:CZ2:8341, V-A:TYR:539:C:4867, V-B:LEU:475:CD1:9229, H-A:ALA:541:N:4891, V-B:PRO:482:CB:9297, V-A:TYR:539:CD2:4874, V-B:TRP:381:CE2:8338, V-A:ALA:541:CB:4892, V-B:PRO:482:CG:9298, V-A:LEU:475:CD2:4258, V-B:ALA:541:CB:9863, V-A:PRO:540:C:4881, V-A:GLU:543:CD:4908, H-B:ARG:545:NE:9895, V-A:HIS:456:CE1:4069, H-B:TYR:484:OH:9319, H-B:GLY:454:N:9021, H-B:ARG:545:NH1:9898, H-B:ARG:545:NH2:9899, V-B:ARG:545:CZ:9897, V-A:GLU:543:CG:4907, V-B:ASP:366:CG:8184, V-B:GLU:543:CD:9879, V-A:TYR:484:CZ:4346, H-A:TYR:484:OH:4347, V-B:GLU:543:CG:9878, V-A:TYR:539:CG:4872, V-B:TRP:381:CZ3:8342, V-B:TRP:381:CD2:8336, V-A:TYR:539:CB:4871, V-B:TRP:381:CE3:8339, V-B:GLU:543:CB:9877, V-A:ALA:541:CA:4890, V-A:TYR:484:CE1:4344"]

$$$$
RR19_Rahimova_2017
     RDKit          3D

 46 51  0  0  0  0  0  0  0  0999 V2000
  132.9590  125.0080   58.3340 O   0  0  0  0  0  0  0  0  0  0  0  0
  132.0360  125.5060   58.9850 C   0  0  0  0  0  0  0  0  0  0  0  0
  131.8870  125.4440   60.3330 N   0  0  0  0  0  0  0  0  0  0  0  0
  132.7250  125.0570   61.3500 C   0  0  0  0  0  0  0  0  0  0  0  0
  134.3820  124.7460   61.1970 S   0  0  0  0  0  0  0  0  0  0  0  0
  131.9950  124.9650   62.5090 N   0  0  0  0  0  0  0  0  0  0  0  0
  132.3420  124.7670   63.8060 C   0  0  0  0  0  0  0  0  0  0  0  0
  133.4830  124.8010   64.2720 O   0  0  0  0  0  0  0  0  0  0  0  0
  131.1430  124.4510   64.7360 C   0  0  2  0  0  0  0  0  0  0  0  0
  130.3500  123.1650   64.3630 C   0  0  0  0  0  0  0  0  0  0  0  0
  130.7630  122.5040   63.0580 C   0  0  0  0  0  0  0  0  0  0  0  0
  129.9470  122.5940   61.9100 C   0  0  0  0  0  0  0  0  0  0  0  0
  130.3780  122.0520   60.7070 C   0  0  0  0  0  0  0  0  0  0  0  0
  131.6210  121.4360   60.6210 C   0  0  0  0  0  0  0  0  0  0  0  0
  132.4480  121.3670   61.7350 C   0  0  0  0  0  0  0  0  0  0  0  0
  132.0360  121.9040   62.9470 C   0  0  0  0  0  0  0  0  0  0  0  0
  130.2430  125.6280   64.8760 N   0  0  0  0  0  0  0  0  0  0  0  0
  129.9210  126.1320   66.1010 C   0  0  0  0  0  0  0  0  0  0  0  0
  130.2760  125.7050   67.2010 O   0  0  0  0  0  0  0  0  0  0  0  0
  129.0570  127.3080   65.8310 C   0  0  0  0  0  0  0  0  0  0  0  0
  128.4330  128.2030   66.7010 C   0  0  0  0  0  0  0  0  0  0  0  0
  127.6690  129.2430   66.1580 C   0  0  0  0  0  0  0  0  0  0  0  0
  127.5430  129.3740   64.7690 C   0  0  0  0  0  0  0  0  0  0  0  0
  128.1780  128.4670   63.9130 C   0  0  0  0  0  0  0  0  0  0  0  0
  128.9330  127.4370   64.4750 C   0  0  0  0  0  0  0  0  0  0  0  0
  129.7160  126.3470   63.8400 C   0  0  0  0  0  0  0  0  0  0  0  0
  129.8630  126.1440   62.6340 O   0  0  0  0  0  0  0  0  0  0  0  0
  130.9060  126.2740   58.2480 C   0  0  2  0  0  0  0  0  0  0  0  0
  130.4410  127.5660   58.9810 C   0  0  0  0  0  0  0  0  0  0  0  0
  130.7680  128.8480   58.2360 C   0  0  0  0  0  0  0  0  0  0  0  0
  132.0390  129.4450   58.3800 C   0  0  0  0  0  0  0  0  0  0  0  0
  132.3710  130.5600   57.6200 C   0  0  0  0  0  0  0  0  0  0  0  0
  131.4680  131.0750   56.6990 C   0  0  0  0  0  0  0  0  0  0  0  0
  130.2290  130.4740   56.5190 C   0  0  0  0  0  0  0  0  0  0  0  0
  129.8760  129.3590   57.2690 C   0  0  0  0  0  0  0  0  0  0  0  0
  129.7500  125.4100   57.8760 N   0  0  0  0  0  0  0  0  0  0  0  0
  128.9810  124.7970   58.8190 C   0  0  0  0  0  0  0  0  0  0  0  0
  129.1220  124.8410   60.0420 O   0  0  0  0  0  0  0  0  0  0  0  0
  127.9370  124.0650   58.0600 C   0  0  0  0  0  0  0  0  0  0  0  0
  126.8840  123.2590   58.4970 C   0  0  0  0  0  0  0  0  0  0  0  0
  126.0370  122.6870   57.5410 C   0  0  0  0  0  0  0  0  0  0  0  0
  126.2480  122.9270   56.1770 C   0  0  0  0  0  0  0  0  0  0  0  0
  127.3080  123.7400   55.7590 C   0  0  0  0  0  0  0  0  0  0  0  0
  128.1430  124.2990   56.7280 C   0  0  0  0  0  0  0  0  0  0  0  0
  129.3230  125.1870   56.5980 C   0  0  0  0  0  0  0  0  0  0  0  0
  129.8140  125.6290   55.5590 O   0  0  0  0  0  0  0  0  0  0  0  0
  1  2  2  0
  2  3  1  0
  3  4  1  0
  4  5  2  0
  4  6  1  0
  6  7  1  0
  7  8  2  0
  7  9  1  0
  9 10  1  6
 10 11  1  0
 11 12  2  0
 12 13  1  0
 13 14  2  0
 14 15  1  0
 15 16  2  0
  9 17  1  0
 17 18  1  0
 18 19  2  0
 18 20  1  0
 20 21  2  0
 21 22  1  0
 22 23  2  0
 23 24  1  0
 24 25  2  0
 25 26  1  0
 26 27  2  0
  2 28  1  0
 28 29  1  1
 29 30  1  0
 30 31  2  0
 31 32  1  0
 32 33  2  0
 33 34  1  0
 34 35  2  0
 28 36  1  0
 36 37  1  0
 37 38  2  0
 37 39  1  0
 39 40  2  0
 40 41  1  0
 41 42  2  0
 42 43  1  0
 43 44  2  0
 44 45  1  0
 45 46  2  0
 16 11  1  0
 26 17  1  0
 35 30  1  0
 45 36  1  0
 25 20  1  0
 44 39  1  0
M  END
>  <Binding energies>  (73) 
[-10.36]

>  <Ligand effiencies>  (73) 
[-0.21583333333333332]

>  <Interactions>  (73) 
["V-A:LEU:363:CD1:3188, V-A:MET:535:CE:4835, V-B:TYR:539:CD2:9845, V-B:PRO:540:N:9855, V-B:TYR:539:CE2:9847, V-A:ILE:369:CG2:3236, V-B:MET:535:CE:9806, V-A:LEU:475:CD2:4258, V-B:TYR:539:CE1:9846, V-B:PRO:540:CA:9854, V-B:TYR:539:C:9838, V-B:PRO:540:CB:9856, V-B:PRO:540:CD:9858, V-B:ALA:541:CB:9863, V-A:GLU:543:CD:4908, V-A:TYR:531:CE2:4793, V-A:GLU:543:CG:4907, V-B:GLU:543:CD:9879, V-B:TYR:539:CZ:9848, H-B:TYR:539:OH:9849, V-A:ASP:366:CB:3211, V-A:ASP:366:CG:3212, V-A:ILE:369:CD1:3238, H-A:TYR:484:OH:4347, H-A:GLY:454:N:4049, H-A:TYR:531:OH:4795, V-B:GLU:543:CG:9878, V-A:ILE:369:CB:3235, V-A:ASP:366:CA:3209, V-A:ILE:369:CG1:3237"]

$$$$
RR1_Rahimova_2017
     RDKit          3D

 41 44  0  0  0  0  0  0  0  0999 V2000
  124.1230  130.7700   57.1140 C   0  0  0  0  0  0  0  0  0  0  0  0
  123.7640  131.8480   57.9700 O   0  0  0  0  0  0  0  0  0  0  0  0
  124.1080  131.7910   59.3070 C   0  0  0  0  0  0  0  0  0  0  0  0
  125.3510  132.1900   59.8220 C   0  0  0  0  0  0  0  0  0  0  0  0
  125.6110  132.0890   61.1860 C   0  0  0  0  0  0  0  0  0  0  0  0
  124.6370  131.5970   62.0560 C   0  0  0  0  0  0  0  0  0  0  0  0
  125.0110  131.4910   63.4090 N   0  0  0  0  0  0  0  0  0  0  0  0
  124.5280  130.6720   64.3680 C   0  0  0  0  0  0  0  0  0  0  0  0
  123.5860  129.8930   64.2160 O   0  0  0  0  0  0  0  0  0  0  0  0
  125.2500  130.7760   65.7210 C   0  0  0  0  0  0  0  0  0  0  0  0
  126.9880  131.3320   65.6410 S   0  0  0  0  0  0  0  0  0  0  0  0
  127.7200  129.7790   65.2490 C   0  0  0  0  0  0  0  0  0  0  0  0
  128.1010  128.8980   66.1400 N   0  0  0  0  0  0  0  0  0  0  0  0
  128.5750  127.8930   65.4120 C   0  0  0  0  0  0  0  0  0  0  0  0
  129.1170  126.6370   66.0320 C   0  0  0  0  0  0  0  0  0  0  0  0
  129.7760  125.6640   65.2640 C   0  0  0  0  0  0  0  0  0  0  0  0
  130.2670  124.5050   65.8690 C   0  0  0  0  0  0  0  0  0  0  0  0
  130.0860  124.3430   67.2410 C   0  0  0  0  0  0  0  0  0  0  0  0
  129.4540  125.2620   68.0130 N   0  0  0  0  0  0  0  0  0  0  0  0
  128.9850  126.3830   67.4070 C   0  0  0  0  0  0  0  0  0  0  0  0
  128.5320  128.0720   64.1050 N   0  0  0  0  0  0  0  0  0  0  0  0
  127.9840  129.2850   63.9970 N   0  0  0  0  0  0  0  0  0  0  0  0
  127.7290  129.8720   62.6820 C   0  0  0  0  0  0  0  0  0  0  0  0
  127.2170  128.8850   61.6180 C   0  0  0  0  0  0  0  0  0  0  0  0
  127.0050  129.2580   60.4590 O   0  0  0  0  0  0  0  0  0  0  0  0
  127.0280  127.6260   62.0560 N   0  0  0  0  0  0  0  0  0  0  0  0
  126.7100  126.6490   61.1220 N   0  0  0  0  0  0  0  0  0  0  0  0
  127.5040  125.5580   61.0550 C   0  0  0  0  0  0  0  0  0  0  0  0
  128.4300  125.3270   61.8400 O   0  0  0  0  0  0  0  0  0  0  0  0
  127.1770  124.5770   59.9480 C   0  0  0  0  0  0  0  0  0  0  0  0
  128.1130  123.6040   59.5790 C   0  0  0  0  0  0  0  0  0  0  0  0
  127.8390  122.7010   58.5570 C   0  0  0  0  0  0  0  0  0  0  0  0
  126.6180  122.7480   57.8650 C   0  0  0  0  0  0  0  0  0  0  0  0
  126.2890  121.8890   56.8320 O   0  0  0  0  0  0  0  0  0  0  0  0
  126.2660  122.3770   55.4950 C   0  0  0  0  0  0  0  0  0  0  0  0
  125.6710  123.7190   58.2150 C   0  0  0  0  0  0  0  0  0  0  0  0
  124.4910  123.7360   57.4890 O   0  0  0  0  0  0  0  0  0  0  0  0
  123.5630  124.7970   57.6790 C   0  0  0  0  0  0  0  0  0  0  0  0
  125.9570  124.6220   59.2550 C   0  0  0  0  0  0  0  0  0  0  0  0
  123.3920  131.1990   61.5450 C   0  0  0  0  0  0  0  0  0  0  0  0
  123.1360  131.3020   60.1800 C   0  0  0  0  0  0  0  0  0  0  0  0
  1  2  1  0
  2  3  1  0
  3  4  2  0
  4  5  1  0
  5  6  2  0
  6  7  1  0
  7  8  1  0
  8  9  2  0
  8 10  1  0
 10 11  1  0
 11 12  1  0
 12 13  2  0
 13 14  1  0
 14 15  1  0
 15 16  2  0
 16 17  1  0
 17 18  2  0
 18 19  1  0
 19 20  2  0
 14 21  2  0
 21 22  1  0
 22 23  1  0
 23 24  1  0
 24 25  2  0
 24 26  1  0
 26 27  1  0
 27 28  1  0
 28 29  2  0
 28 30  1  0
 30 31  2  0
 31 32  1  0
 32 33  2  0
 33 34  1  0
 34 35  1  0
 33 36  1  0
 36 37  1  0
 37 38  1  0
 36 39  2  0
  6 40  1  0
 40 41  2  0
 41  3  1  0
 22 12  1  0
 39 30  1  0
 20 15  1  0
M  END
>  <Binding energies>  (74) 
[-8.56]

>  <Ligand effiencies>  (74) 
[-0.19454545454545455]

>  <Interactions>  (74) 
["V-B:ILE:369:CD1:8210, V-B:ILE:369:CG2:8208, V-A:TYR:539:CE2:4876, V-B:TYR:539:CD2:9845, V-B:PRO:540:N:9855, V-B:TYR:539:CD1:9844, V-B:TYR:539:CE2:9847, V-B:MET:535:CE:9806, V-B:ILE:538:CA:9831, V-B:TYR:539:CE1:9846, V-B:PRO:540:CA:9854, V-B:TYR:539:C:9838, V-B:PRO:540:CB:9856, H-B:ASP:366:OD2:8186, V-B:PRO:540:CD:9858, V-B:LEU:363:CD1:8160, H-A:TYR:539:OH:4878, V-B:GLY:454:CA:9020, V-A:GLU:543:CD:4908, H-B:ARG:545:NE:9895, V-A:HIS:456:CE1:4069, H-B:TYR:484:OH:9319, H-B:GLY:454:N:9021, H-B:ARG:545:NH1:9898, H-B:ARG:545:NH2:9899, V-A:GLU:543:CG:4907, V-B:ASP:366:CG:8184, V-B:GLU:543:CD:9879, H-B:GLU:543:OE2:9881, V-B:TYR:539:CZ:9848, H-B:TYR:539:N:9841, V-B:LEU:363:CA:8156, V-B:TYR:531:CZ:9765, V-B:TYR:531:CE2:9764, V-B:ASP:366:CB:8183, V-B:LEU:363:CB:8158, V-B:ILE:538:CD1:9836, V-A:TYR:484:CZ:4346, V-B:GLU:543:CG:9878, V-B:ASP:366:CA:8181, V-B:ILE:369:CB:8207, V-B:TYR:531:CE1:9763, V-B:GLU:543:CB:9877, V-B:ASP:366:C:8179, V-B:ASN:370:CB:8216, V-B:LEU:363:C:8154, V-A:TYR:484:CE1:4344"]

$$$$
RR22_Rahimova_2017
     RDKit          3D

 31 36  0  0  0  0  0  0  0  0999 V2000
  129.2770  133.7600   55.3740 O   0  0  0  0  0  0  0  0  0  0  0  0
  129.3010  133.0090   56.3460 C   0  0  0  0  0  0  0  0  0  0  0  0
  130.0740  133.1290   57.4870 N   0  0  0  0  0  0  0  0  0  0  0  0
  129.9360  132.1940   58.5620 C   0  0  1  0  0  0  0  0  0  0  0  0
  131.2510  131.6700   58.7740 O   0  0  0  0  0  0  0  0  0  0  0  0
  131.8390  131.8420   60.0270 C   0  0  0  0  0  0  0  0  0  0  0  0
  133.2210  131.6620   60.0950 C   0  0  0  0  0  0  0  0  0  0  0  0
  133.8750  131.7770   61.3220 C   0  0  0  0  0  0  0  0  0  0  0  0
  133.1470  132.0650   62.4770 C   0  0  0  0  0  0  0  0  0  0  0  0
  131.7650  132.2440   62.4090 C   0  0  0  0  0  0  0  0  0  0  0  0
  131.0990  132.1560   61.1830 C   0  0  0  0  0  0  0  0  0  0  0  0
  129.6030  132.2900   61.0090 C   0  0  1  0  0  0  0  0  0  0  0  0
  128.7590  133.1900   61.8890 C   0  0  0  0  0  0  0  0  0  0  0  0
  127.6510  133.5610   60.8990 C   0  0  0  0  0  0  0  0  0  0  0  0
  126.3490  134.1110   61.3270 C   0  0  0  0  0  0  0  0  0  0  0  0
  125.2120  133.2910   61.3800 C   0  0  0  0  0  0  0  0  0  0  0  0
  123.9870  133.8150   61.7850 C   0  0  0  0  0  0  0  0  0  0  0  0
  123.8910  135.1580   62.1390 C   0  0  0  0  0  0  0  0  0  0  0  0
  125.0110  135.9840   62.0920 C   0  0  0  0  0  0  0  0  0  0  0  0
  126.2370  135.4620   61.6880 C   0  0  0  0  0  0  0  0  0  0  0  0
  128.0220  133.3530   59.6920 N   0  0  0  0  0  0  0  0  0  0  0  0
  129.3410  132.8680   59.7250 N   0  0  0  0  0  0  0  0  0  0  0  0
  129.0790  131.0520   58.0380 C   0  0  0  0  0  0  0  0  0  0  0  0
  129.0160  129.8400   58.6400 C   0  0  0  0  0  0  0  0  0  0  0  0
  128.2180  128.6610   58.2530 C   0  0  0  0  0  0  0  0  0  0  0  0
  127.1260  128.1950   58.9990 C   0  0  0  0  0  0  0  0  0  0  0  0
  126.4170  127.0710   58.5720 C   0  0  0  0  0  0  0  0  0  0  0  0
  126.8260  126.4340   57.4000 C   0  0  0  0  0  0  0  0  0  0  0  0
  127.8820  126.8570   56.6620 N   0  0  0  0  0  0  0  0  0  0  0  0
  128.5580  127.9530   57.0950 C   0  0  0  0  0  0  0  0  0  0  0  0
  128.2910  131.5070   56.5200 S   0  0  0  0  0  0  0  0  0  0  0  0
  1  2  2  0
  2  3  1  0
  4  3  1  6
  4  5  1  0
  5  6  1  0
  6  7  2  0
  7  8  1  0
  8  9  2  0
  9 10  1  0
 10 11  2  0
 11 12  1  0
 12 13  1  1
 13 14  1  0
 14 15  1  0
 15 16  2  0
 16 17  1  0
 17 18  2  0
 18 19  1  0
 19 20  2  0
 14 21  2  0
 21 22  1  0
  4 23  1  0
 23 24  2  0
 24 25  1  0
 25 26  2  0
 26 27  1  0
 27 28  2  0
 28 29  1  0
 29 30  2  0
 23 31  1  0
 31  2  1  0
 22  4  1  0
 30 25  1  0
 11  6  1  0
 22 12  1  0
 20 15  1  0
M  END
>  <Binding energies>  (75) 
[-8.98]

>  <Ligand effiencies>  (75) 
[-0.280625]

>  <Interactions>  (75) 
["V-B:ILE:369:CD1:8210, V-B:ILE:369:CG2:8208, V-B:TRP:381:CH2:8343, V-A:TYR:539:CE2:4876, V-B:TRP:381:CZ2:8341, V-A:TYR:539:C:4867, V-A:PRO:540:CA:4883, V-A:ASN:362:C:3171, V-A:PRO:540:CB:4885, V-B:LEU:475:CD1:9229, V-A:PRO:540:N:4884, V-A:MET:535:CE:4835, V-A:ASN:362:CB:3175, H-A:TYR:539:N:4870, V-A:TYR:539:CD2:4874, V-A:TYR:539:CA:4869, V-A:ALA:541:CB:4892, H-A:TYR:539:O:4868, V-A:PRO:540:C:4881, V-A:TYR:539:CZ:4877, H-B:TYR:531:OH:9766, V-A:ASP:366:CG:3212, V-A:TYR:539:CE1:4875, V-A:TYR:539:CG:4872, V-A:ALA:541:CA:4890, V-A:ALA:541:C:4888, V-A:TYR:539:CD1:4873, V-A:ASN:362:CA:3173"]

$$$$
RR24_Rahimova_2017
     RDKit          3D

 43 49  0  0  0  0  0  0  0  0999 V2000
  126.7460  122.1320   54.8730 C   0  0  0  0  0  0  0  0  0  0  0  0
  126.9020  123.5530   55.4320 C   0  0  2  0  0  0  0  0  0  0  0  0
  128.3160  124.1580   55.1880 C   0  0  0  0  0  0  0  0  0  0  0  0
  128.8560  124.1350   54.0770 O   0  0  0  0  0  0  0  0  0  0  0  0
  128.8680  124.6710   56.3260 O   0  0  0  0  0  0  0  0  0  0  0  0
  128.8220  126.0280   56.5520 C   0  0  0  0  0  0  0  0  0  0  0  0
  129.4550  126.5560   57.6790 C   0  0  0  0  0  0  0  0  0  0  0  0
  129.4230  127.9280   57.9130 C   0  0  0  0  0  0  0  0  0  0  0  0
  128.7660  128.7780   57.0190 C   0  0  0  0  0  0  0  0  0  0  0  0
  128.7180  130.2860   57.2920 C   0  0  1  0  0  0  0  0  0  0  0  0
  127.3710  130.7160   57.9190 C   0  0  0  0  0  0  0  0  0  0  0  0
  127.2930  131.4590   59.0380 C   0  0  0  0  0  0  0  0  0  0  0  0
  128.4100  131.8900   59.7100 N   0  0  0  0  0  0  0  0  0  0  0  0
  129.6740  131.5780   59.2680 C   0  0  0  0  0  0  0  0  0  0  0  0
  130.6700  132.0870   60.0390 N   0  0  0  0  0  0  0  0  0  0  0  0
  131.9830  131.8190   59.8020 C   0  0  0  0  0  0  0  0  0  0  0  0
  132.8100  132.0290   60.6910 O   0  0  0  0  0  0  0  0  0  0  0  0
  132.2190  131.1650   58.6030 N   0  0  0  0  0  0  0  0  0  0  0  0
  133.6360  130.9300   58.2540 C   0  0  0  0  0  0  0  0  0  0  0  0
  131.2850  130.6060   57.7470 C   0  0  0  0  0  0  0  0  0  0  0  0
  131.5710  129.9890   56.7160 O   0  0  0  0  0  0  0  0  0  0  0  0
  129.8940  130.8300   58.1550 C   0  0  0  0  0  0  0  0  0  0  0  0
  125.9070  131.7110   59.3960 C   0  0  0  0  0  0  0  0  0  0  0  0
  125.3080  132.4080   60.4460 C   0  0  0  0  0  0  0  0  0  0  0  0
  123.9130  132.4700   60.5150 C   0  0  0  0  0  0  0  0  0  0  0  0
  123.1320  131.8410   59.5410 C   0  0  0  0  0  0  0  0  0  0  0  0
  123.7380  131.1450   58.4920 C   0  0  0  0  0  0  0  0  0  0  0  0
  125.1320  131.0860   58.4290 C   0  0  0  0  0  0  0  0  0  0  0  0
  126.0200  130.4320   57.4450 C   0  0  0  0  0  0  0  0  0  0  0  0
  125.7380  129.7840   56.4390 O   0  0  0  0  0  0  0  0  0  0  0  0
  128.1490  128.2470   55.8800 C   0  0  0  0  0  0  0  0  0  0  0  0
  128.1820  126.8760   55.6450 C   0  0  0  0  0  0  0  0  0  0  0  0
  126.4850  123.6420   56.8630 N   0  0  0  0  0  0  0  0  0  0  0  0
  125.2960  124.1990   57.2260 C   0  0  0  0  0  0  0  0  0  0  0  0
  124.4430  124.6910   56.4840 O   0  0  0  0  0  0  0  0  0  0  0  0
  125.2440  124.0910   58.7050 C   0  0  0  0  0  0  0  0  0  0  0  0
  124.2680  124.4950   59.6170 C   0  0  0  0  0  0  0  0  0  0  0  0
  124.4860  124.2580   60.9790 C   0  0  0  0  0  0  0  0  0  0  0  0
  125.6610  123.6280   61.4070 C   0  0  0  0  0  0  0  0  0  0  0  0
  126.6270  123.2290   60.4770 C   0  0  0  0  0  0  0  0  0  0  0  0
  126.3920  123.4750   59.1240 C   0  0  0  0  0  0  0  0  0  0  0  0
  127.2110  123.1730   57.9230 C   0  0  0  0  0  0  0  0  0  0  0  0
  128.3080  122.6140   57.8910 O   0  0  0  0  0  0  0  0  0  0  0  0
  2  1  1  1
  2  3  1  0
  3  4  2  0
  3  5  1  0
  5  6  1  0
  6  7  2  0
  7  8  1  0
  8  9  2  0
 10  9  1  1
 10 11  1  0
 11 12  2  0
 12 13  1  0
 13 14  1  0
 14 15  1  0
 15 16  1  0
 16 17  2  0
 16 18  1  0
 18 19  1  0
 18 20  1  0
 20 21  2  0
 20 22  1  0
 12 23  1  0
 23 24  2  0
 24 25  1  0
 25 26  2  0
 26 27  1  0
 27 28  2  0
 28 29  1  0
 29 30  2  0
  9 31  1  0
 31 32  2  0
  2 33  1  0
 33 34  1  0
 34 35  2  0
 34 36  1  0
 36 37  2  0
 37 38  1  0
 38 39  2  0
 39 40  1  0
 40 41  2  0
 41 42  1  0
 42 43  2  0
 32  6  1  0
 42 33  1  0
 22 10  1  0
 28 23  1  0
 41 36  1  0
 29 11  1  0
 22 14  2  0
M  END
>  <Binding energies>  (76) 
[-11.14]

>  <Ligand effiencies>  (76) 
[-0.24755555555555556]

>  <Interactions>  (76) 
["V-B:ILE:369:CD1:8210, V-A:LEU:363:CD1:3188, V-B:ILE:369:CG2:8208, V-A:TYR:539:CE2:4876, V-A:PRO:540:CA:4883, V-A:PRO:540:CB:4885, V-A:MET:535:CE:4835, H-A:TYR:539:O:4868, V-B:PRO:540:N:9855, V-B:TYR:539:CD1:9844, V-B:MET:535:CE:9806, V-B:ILE:538:CA:9831, V-B:TYR:539:CE1:9846, V-B:PRO:540:CA:9854, V-B:PRO:540:CB:9856, V-B:PRO:540:C:9852, V-B:LEU:363:CD1:8160, V-B:ASP:366:CG:8184, V-B:TYR:539:CZ:9848, H-B:TYR:539:OH:9849, V-B:LEU:363:CA:8156, H-B:TYR:531:OH:9766, V-B:ASN:362:C:8143, V-B:ASP:366:CB:8183, V-A:ASP:366:CB:3211, V-A:ASP:366:CG:3212, V-B:ILE:538:CD1:9836, V-B:ASN:362:CB:8147, H-A:TYR:531:OH:4795, V-A:LEU:363:CA:3184, V-B:ASP:366:CA:8181, V-B:ILE:369:CB:8207, V-B:ILE:369:CG1:8209, V-B:ILE:538:C:9829, V-B:ASP:366:C:8179, H-A:ASN:370:ND2:3247"]

$$$$
RR25_Rahimova_2017
     RDKit          3D

 39 44  0  0  0  0  0  0  0  0999 V2000
  125.5330  130.0960   66.1060 O   0  0  0  0  0  0  0  0  0  0  0  0
  125.5790  130.0030   64.8780 C   0  0  0  0  0  0  0  0  0  0  0  0
  124.4350  130.3470   64.2010 O   0  0  0  0  0  0  0  0  0  0  0  0
  124.4350  130.5240   62.8290 C   0  0  0  0  0  0  0  0  0  0  0  0
  123.4590  131.3710   62.3070 C   0  0  0  0  0  0  0  0  0  0  0  0
  123.3950  131.5890   60.9320 C   0  0  0  0  0  0  0  0  0  0  0  0
  124.2990  130.9620   60.0620 C   0  0  0  0  0  0  0  0  0  0  0  0
  124.2340  131.2020   58.5990 N   0  0  0  0  0  0  0  0  0  0  0  0
  124.7050  130.3550   57.8440 O   0  0  0  0  0  0  0  0  0  0  0  0
  123.7130  132.2370   58.1970 O   0  0  0  0  0  0  0  0  0  0  0  0
  125.2670  130.1030   60.6080 C   0  0  0  0  0  0  0  0  0  0  0  0
  125.3400  129.8670   61.9830 C   0  0  0  0  0  0  0  0  0  0  0  0
  126.3730  128.9570   62.6220 C   0  0  0  0  0  0  0  0  0  0  0  0
  126.7790  129.5210   64.0130 C   0  0  2  0  0  0  0  0  0  0  0  0
  127.7650  128.5610   64.7400 C   0  0  0  0  0  0  0  0  0  0  0  0
  127.7270  128.5780   65.9740 O   0  0  0  0  0  0  0  0  0  0  0  0
  128.5370  127.6600   64.0620 N   0  0  0  0  0  0  0  0  0  0  0  0
  128.8560  127.7990   62.6250 C   0  0  0  0  0  0  0  0  0  0  0  0
  128.8800  126.3990   61.9780 C   0  0  0  0  0  0  0  0  0  0  0  0
  129.8020  125.5010   62.6800 N   0  0  0  0  0  0  0  0  0  0  0  0
  129.9280  124.2110   61.9890 C   0  0  0  0  0  0  0  0  0  0  0  0
  128.6270  123.3660   62.0490 C   0  0  0  0  0  0  0  0  0  0  0  0
  127.7580  123.4140   60.8370 N   0  0  0  0  0  0  0  0  0  0  0  0
  126.5320  124.0200   61.0160 C   0  0  0  0  0  0  0  0  0  0  0  0
  126.1490  124.4640   62.1040 O   0  0  0  0  0  0  0  0  0  0  0  0
  125.6880  124.1200   59.7600 C   0  0  0  0  0  0  0  0  0  0  0  0
  124.4330  124.7410   59.8220 C   0  0  0  0  0  0  0  0  0  0  0  0
  123.6350  124.8570   58.6860 C   0  0  0  0  0  0  0  0  0  0  0  0
  124.0630  124.3620   57.4550 C   0  0  0  0  0  0  0  0  0  0  0  0
  125.3230  123.7260   57.3440 C   0  0  0  0  0  0  0  0  0  0  0  0
  125.8190  123.2020   56.1270 C   0  0  0  0  0  0  0  0  0  0  0  0
  127.0710  122.5910   56.0870 C   0  0  0  0  0  0  0  0  0  0  0  0
  127.8520  122.4830   57.2360 C   0  0  0  0  0  0  0  0  0  0  0  0
  127.4010  122.9870   58.4630 C   0  0  0  0  0  0  0  0  0  0  0  0
  126.1290  123.6110   58.5110 C   0  0  0  0  0  0  0  0  0  0  0  0
  128.2850  122.8580   59.6900 C   0  0  0  0  0  0  0  0  0  0  0  0
  129.3910  122.3110   59.6450 O   0  0  0  0  0  0  0  0  0  0  0  0
  129.3690  125.3300   64.0680 C   0  0  0  0  0  0  0  0  0  0  0  0
  129.3400  126.6790   64.8280 C   0  0  0  0  0  0  0  0  0  0  0  0
  1  2  2  0
  2  3  1  0
  3  4  1  0
  4  5  2  0
  5  6  1  0
  6  7  2  0
  7  8  1  0
  8  9  2  0
  8 10  1  0
  7 11  1  0
 11 12  2  0
 12 13  1  0
 13 14  1  0
 14 15  1  1
 15 16  2  0
 15 17  1  0
 17 18  1  0
 18 19  1  0
 19 20  1  0
 20 21  1  0
 21 22  1  0
 22 23  1  0
 23 24  1  0
 24 25  2  0
 24 26  1  0
 26 27  2  0
 27 28  1  0
 28 29  2  0
 29 30  1  0
 30 31  2  0
 31 32  1  0
 32 33  2  0
 33 34  1  0
 34 35  2  0
 34 36  1  0
 36 37  2  0
 20 38  1  0
 38 39  1  0
 14  2  1  0
 39 17  1  0
 12  4  1  0
 36 23  1  0
 35 26  1  0
 35 30  1  0
M  CHG  2   8   1  10  -1
M  END
>  <Binding energies>  (77) 
[-10.62]

>  <Ligand effiencies>  (77) 
[-0.2723076923076923]

>  <Interactions>  (77) 
["V-B:ILE:369:CD1:8210, V-B:ILE:369:CG2:8208, V-A:TYR:539:CE2:4876, V-B:TYR:539:CD2:9845, V-B:PRO:540:N:9855, V-B:TYR:539:CD1:9844, V-B:TYR:539:CE2:9847, V-B:MET:535:CE:9806, V-B:TYR:539:CG:9843, V-B:TYR:539:CE1:9846, V-B:PRO:540:CA:9854, V-B:TYR:539:C:9838, V-B:PRO:540:CB:9856, V-B:LEU:363:CD1:8160, V-B:ALA:541:CB:9863, H-A:TYR:539:OH:4878, V-A:GLU:543:CD:4908, H-B:TYR:484:OH:9319, H-B:GLY:454:N:9021, H-B:ARG:545:NH2:9899, V-B:ASP:366:CG:8184, V-B:GLU:543:CD:9879, V-B:TYR:539:CZ:9848, V-B:LEU:363:CA:8156, H-B:TYR:531:OH:9766, V-B:ASN:362:C:8143, V-B:TYR:531:CZ:9765, V-B:TYR:531:CE2:9764, V-B:ASP:366:CB:8183, V-B:LEU:363:CB:8158, V-B:GLU:543:CG:9878, V-B:ASP:366:CA:8181, V-B:ILE:369:CB:8207"]

$$$$
RR27_Rahimova_2017
     RDKit          3D

 39 44  0  0  0  0  0  0  0  0999 V2000
  129.5730  124.9890   57.3910 O   0  0  0  0  0  0  0  0  0  0  0  0
  129.1370  125.1640   58.5320 C   0  0  0  0  0  0  0  0  0  0  0  0
  128.3040  124.0240   59.1870 C   0  0  0  0  0  0  0  0  0  0  0  0
  129.1760  122.9530   59.8700 C   0  0  0  0  0  0  0  0  0  0  0  0
  128.6330  121.7490   60.3440 C   0  0  0  0  0  0  0  0  0  0  0  0
  129.4510  120.8010   60.9540 C   0  0  0  0  0  0  0  0  0  0  0  0
  130.8130  121.0530   61.0930 C   0  0  0  0  0  0  0  0  0  0  0  0
  131.3650  122.2440   60.6300 C   0  0  0  0  0  0  0  0  0  0  0  0
  130.5470  123.1910   60.0200 C   0  0  0  0  0  0  0  0  0  0  0  0
  127.2340  123.4730   58.2260 C   0  0  0  0  0  0  0  0  0  0  0  0
  127.5700  122.6540   57.1390 C   0  0  0  0  0  0  0  0  0  0  0  0
  126.5780  122.1830   56.2820 C   0  0  0  0  0  0  0  0  0  0  0  0
  125.2490  122.5330   56.5050 C   0  0  0  0  0  0  0  0  0  0  0  0
  124.9020  123.3550   57.5740 C   0  0  0  0  0  0  0  0  0  0  0  0
  125.8940  123.8260   58.4290 C   0  0  0  0  0  0  0  0  0  0  0  0
  129.4920  126.2520   59.2740 N   0  0  0  0  0  0  0  0  0  0  0  0
  128.8150  126.6380   60.5210 C   0  0  0  0  0  0  0  0  0  0  0  0
  127.6220  127.5350   60.1240 C   0  0  0  0  0  0  0  0  0  0  0  0
  128.0510  128.7580   59.2510 C   0  0  0  0  0  0  0  0  0  0  0  0
  126.8850  129.6210   58.7340 C   0  0  0  0  0  0  0  0  0  0  0  0
  126.7200  129.6690   57.3800 N   0  0  0  0  0  0  0  0  0  0  0  0
  125.6870  130.3970   56.8710 C   0  0  0  0  0  0  0  0  0  0  0  0
  125.4160  130.5170   55.5330 O   0  0  0  0  0  0  0  0  0  0  0  0
  124.8340  131.0740   57.7640 C   0  0  0  0  0  0  0  0  0  0  0  0
  123.7350  131.8640   57.5980 N   0  0  0  0  0  0  0  0  0  0  0  0
  123.3160  132.2560   58.8560 N   0  0  0  0  0  0  0  0  0  0  0  0
  124.1380  131.7100   59.7780 N   0  0  0  0  0  0  0  0  0  0  0  0
  123.9400  131.9800   61.2000 C   0  0  0  0  0  0  0  0  0  0  0  0
  124.3040  133.4010   61.6090 C   0  0  0  0  0  0  0  0  0  0  0  0
  123.3810  134.1930   62.3000 C   0  0  0  0  0  0  0  0  0  0  0  0
  123.7190  135.4920   62.6840 C   0  0  0  0  0  0  0  0  0  0  0  0
  124.9820  136.0030   62.3850 C   0  0  0  0  0  0  0  0  0  0  0  0
  125.9110  135.2140   61.7040 C   0  0  0  0  0  0  0  0  0  0  0  0
  127.4840  135.8350   61.3560 Cl  0  0  0  0  0  0  0  0  0  0  0  0
  125.5710  133.9190   61.3130 C   0  0  0  0  0  0  0  0  0  0  0  0
  125.1130  130.9600   59.1430 C   0  0  0  0  0  0  0  0  0  0  0  0
  126.1220  130.2590   59.6670 N   0  0  0  0  0  0  0  0  0  0  0  0
  129.0620  128.3510   58.1360 C   0  0  0  0  0  0  0  0  0  0  0  0
  130.1700  127.3910   58.6380 C   0  0  0  0  0  0  0  0  0  0  0  0
  1  2  2  0
  2  3  1  0
  3  4  1  0
  4  5  2  0
  5  6  1  0
  6  7  2  0
  7  8  1  0
  8  9  2  0
  3 10  1  0
 10 11  2  0
 11 12  1  0
 12 13  2  0
 13 14  1  0
 14 15  2  0
  2 16  1  0
 16 17  1  0
 17 18  1  0
 18 19  1  0
 19 20  1  0
 20 21  2  0
 21 22  1  0
 22 23  1  0
 22 24  2  0
 24 25  1  0
 25 26  2  0
 26 27  1  0
 27 28  1  0
 28 29  1  0
 29 30  2  0
 30 31  1  0
 31 32  2  0
 32 33  1  0
 33 34  1  0
 33 35  2  0
 27 36  1  0
 36 37  2  0
 19 38  1  0
 38 39  1  0
  9  4  1  0
 15 10  1  0
 39 16  1  0
 37 20  1  0
 36 24  1  0
 35 29  1  0
M  END
>  <Binding energies>  (78) 
[-11.45]

>  <Ligand effiencies>  (78) 
[-0.28625]

>  <Interactions>  (78) 
["V-B:ILE:369:CD1:8210, V-B:ILE:369:CG2:8208, V-B:TRP:381:CH2:8343, V-A:TYR:539:CE2:4876, V-B:TRP:381:CZ2:8341, V-B:SER:385:CB:8380, V-B:LEU:475:CD1:9229, V-A:TYR:539:CD2:4874, V-A:ALA:541:CB:4892, V-B:PRO:482:CG:9298, V-B:TYR:539:CD2:9845, V-B:PRO:540:N:9855, V-B:TYR:539:CD1:9844, V-B:TYR:539:CE2:9847, V-A:ILE:369:CG2:3236, V-B:TYR:539:CG:9843, V-A:LEU:475:CD2:4258, V-B:TYR:539:CE1:9846, V-B:PRO:540:CA:9854, V-B:TYR:539:C:9838, V-B:PRO:540:CB:9856, V-B:TYR:539:CA:9840, V-B:PRO:540:C:9852, V-B:PRO:540:CD:9858, V-B:LEU:363:CD1:8160, V-B:ALA:541:CB:9863, V-A:TYR:539:CZ:4877, H-A:TYR:539:OH:4878, V-B:ASP:366:CG:8184, V-B:TYR:539:CZ:9848, H-B:TYR:539:OH:9849, H-B:TYR:531:OH:9766, V-B:ASP:366:CB:8183, H-B:ASN:370:N:8215, V-B:TYR:531:CE1:9763, V-B:SER:385:CA:8378, V-B:SER:385:C:8376, H-B:ASN:370:ND2:8219"]

$$$$
RR28_Rahimova_2017
     RDKit          3D

 46 49  0  0  0  0  0  0  0  0999 V2000
  127.2050  136.2580   61.3610 C   0  0  0  0  0  0  0  0  0  0  0  0
  127.1380  134.7770   61.0030 C   0  0  0  0  0  0  0  0  0  0  0  0
  126.0520  134.2650   60.7380 O   0  0  0  0  0  0  0  0  0  0  0  0
  128.3090  134.1090   61.0020 N   0  0  0  0  0  0  0  0  0  0  0  0
  128.5470  132.6780   60.7040 C   0  0  0  0  0  0  0  0  0  0  0  0
  129.3000  132.5820   59.3460 C   0  0  0  0  0  0  0  0  0  0  0  0
  128.6360  132.9440   58.1640 C   0  0  0  0  0  0  0  0  0  0  0  0
  129.2760  132.8670   56.9320 C   0  0  0  0  0  0  0  0  0  0  0  0
  130.5980  132.4240   56.8520 C   0  0  0  0  0  0  0  0  0  0  0  0
  131.2830  132.3420   55.4880 C   0  0  0  0  0  0  0  0  0  0  0  0
  132.4380  133.0100   55.4610 F   0  0  0  0  0  0  0  0  0  0  0  0
  131.5350  131.0710   55.1730 F   0  0  0  0  0  0  0  0  0  0  0  0
  130.4790  132.8630   54.5610 F   0  0  0  0  0  0  0  0  0  0  0  0
  131.2700  132.0590   58.0210 C   0  0  0  0  0  0  0  0  0  0  0  0
  130.6280  132.1370   59.2540 C   0  0  0  0  0  0  0  0  0  0  0  0
  127.1970  131.8780   60.7360 C   0  0  0  0  0  0  0  0  0  0  0  0
  126.5500  131.8220   62.1430 C   0  0  0  0  0  0  0  0  0  0  0  0
  127.5390  131.1910   63.0320 N   0  0  0  0  0  0  0  0  0  0  0  0
  127.5040  129.8480   63.2560 C   0  0  0  0  0  0  0  0  0  0  0  0
  126.5660  129.1450   62.8730 O   0  0  0  0  0  0  0  0  0  0  0  0
  128.5900  129.2120   64.1580 C   0  0  0  0  0  0  0  0  0  0  0  0
  129.3000  127.9570   63.5820 C   0  0  0  0  0  0  0  0  0  0  0  0
  129.7770  128.0870   62.1170 C   0  0  0  0  0  0  0  0  0  0  0  0
  130.5470  129.0110   61.8380 O   0  0  0  0  0  0  0  0  0  0  0  0
  129.4560  127.1190   61.2130 N   0  0  0  0  0  0  0  0  0  0  0  0
  128.3250  126.1990   61.3830 C   0  0  0  0  0  0  0  0  0  0  0  0
  127.0780  126.9270   60.8350 C   0  0  0  0  0  0  0  0  0  0  0  0
  127.1990  127.4040   59.3450 C   0  0  0  0  0  0  0  0  0  0  0  0
  126.1490  128.4090   59.0720 N   0  0  0  0  0  0  0  0  0  0  0  0
  126.0420  129.2310   58.0090 C   0  0  0  0  0  0  0  0  0  0  0  0
  124.8500  130.1830   58.0080 C   0  0  0  0  0  0  0  0  0  0  0  0
  126.8360  129.2510   57.0690 O   0  0  0  0  0  0  0  0  0  0  0  0
  126.9170  126.1670   58.4330 C   0  0  0  0  0  0  0  0  0  0  0  0
  125.6840  125.4930   58.4230 C   0  0  0  0  0  0  0  0  0  0  0  0
  125.4740  124.3950   57.5930 C   0  0  0  0  0  0  0  0  0  0  0  0
  126.4920  123.9400   56.7540 C   0  0  0  0  0  0  0  0  0  0  0  0
  126.2750  122.7380   55.8350 C   0  0  0  0  0  0  0  0  0  0  0  0
  126.5530  123.0580   54.5690 F   0  0  0  0  0  0  0  0  0  0  0  0
  127.0840  121.7480   56.2110 F   0  0  0  0  0  0  0  0  0  0  0  0
  125.0190  122.2920   55.8780 F   0  0  0  0  0  0  0  0  0  0  0  0
  127.7250  124.5930   56.7580 C   0  0  0  0  0  0  0  0  0  0  0  0
  127.9320  125.6910   57.5880 C   0  0  0  0  0  0  0  0  0  0  0  0
  128.6300  128.0290   59.1210 C   0  0  0  0  0  0  0  0  0  0  0  0
  129.8120  127.2840   59.7980 C   0  0  0  0  0  0  0  0  0  0  0  0
  128.7570  131.9930   63.2110 C   0  0  0  0  0  0  0  0  0  0  0  0
  129.4540  132.0760   61.8280 C   0  0  0  0  0  0  0  0  0  0  0  0
  1  2  1  0
  2  3  2  0
  2  4  1  0
  4  5  1  0
  5  6  1  0
  6  7  2  0
  7  8  1  0
  8  9  2  0
  9 10  1  0
 10 11  1  0
 10 12  1  0
 10 13  1  0
  9 14  1  0
 14 15  2  0
  5 16  1  0
 16 17  1  0
 17 18  1  0
 18 19  1  0
 19 20  2  0
 19 21  1  0
 21 22  1  0
 22 23  1  0
 23 24  2  0
 23 25  1  0
 25 26  1  0
 26 27  1  0
 27 28  1  0
 28 29  1  0
 29 30  1  0
 30 31  1  0
 30 32  2  0
 28 33  1  0
 33 34  2  0
 34 35  1  0
 35 36  2  0
 36 37  1  0
 37 38  1  0
 37 39  1  0
 37 40  1  0
 36 41  1  0
 41 42  2  0
 28 43  1  0
 43 44  1  0
 18 45  1  0
 45 46  1  0
 46  5  1  0
 15  6  1  0
 44 25  1  0
 42 33  1  0
M  END
>  <Binding energies>  (79) 
[-9.18]

>  <Ligand effiencies>  (79) 
[-0.19125]

>  <Interactions>  (79) 
["V-A:LEU:363:CD1:3188, V-B:TRP:381:CH2:8343, V-A:ILE:538:CB:4862, V-A:TYR:539:CE2:4876, V-A:TYR:539:C:4867, V-A:ILE:538:C:4858, V-A:PRO:540:CA:4883, V-A:ILE:538:CG2:4863, V-A:ILE:538:CA:4860, V-A:PRO:540:N:4884, V-A:MET:535:CE:4835, V-A:TYR:539:CD2:4874, V-A:ALA:541:CB:4892, H-A:TYR:539:O:4868, V-B:PRO:482:CG:9298, V-B:TYR:539:CD2:9845, V-B:PRO:540:N:9855, V-B:TYR:539:CD1:9844, V-B:MET:535:CE:9806, V-B:TYR:539:CG:9843, V-B:ILE:538:CA:9831, V-B:ILE:538:CG2:9834, V-B:TYR:539:CE1:9846, V-B:TYR:539:C:9838, V-B:TYR:539:CA:9840, H-B:ASP:366:OD2:8186, V-B:PRO:540:CD:9858, V-B:LEU:363:CD1:8160, V-A:TYR:539:CZ:4877, V-A:GLU:543:CD:4908, V-A:TYR:531:CZ:4794, V-A:TYR:531:CE2:4793, V-A:MET:535:CG:4833, H-B:ARG:545:NH2:9899, V-A:GLU:543:CG:4907, V-B:ASP:366:CG:8184, V-B:TYR:539:CZ:9848, H-B:TYR:531:OH:9766, V-B:ASP:366:CB:8183, H-A:ARG:545:NH2:4928, V-B:ILE:538:CD1:9836, V-B:MET:535:CB:9803, V-B:ASP:366:CA:8181, V-A:TYR:539:CG:4872, V-A:MET:535:CB:4832, V-B:ILE:538:C:9829, H-B:ASP:366:OD1:8185, V-B:TYR:539:CB:9842, V-A:ILE:538:CG1:4864"]

$$$$
RR29_Rahimova_2017
     RDKit          3D

 18 19  0  0  0  0  0  0  0  0999 V2000
  128.6140  121.4080   60.5330 C   0  0  0  0  0  0  0  0  0  0  0  0
  128.3530  122.8610   60.9030 C   0  0  0  0  0  0  0  0  0  0  0  0
  129.4250  123.8260   60.3490 C   0  0  0  0  0  0  0  0  0  0  0  0
  128.7970  124.9460   59.4940 C   0  0  0  0  0  0  0  0  0  0  0  0
  128.4300  124.4680   58.0970 C   0  0  0  0  0  0  0  0  0  0  0  0
  128.9820  125.1050   56.9680 C   0  0  0  0  0  0  0  0  0  0  0  0
  128.6590  124.6800   55.6720 C   0  0  0  0  0  0  0  0  0  0  0  0
  127.7680  123.6200   55.5470 C   0  0  0  0  0  0  0  0  0  0  0  0
  127.2270  123.0000   56.6380 C   0  0  0  0  0  0  0  0  0  0  0  0
  127.5380  123.3930   57.9350 C   0  0  0  0  0  0  0  0  0  0  0  0
  126.4240  121.9840   56.2260 O   0  0  0  0  0  0  0  0  0  0  0  0
  126.3140  122.1290   54.8350 C   0  0  0  0  0  0  0  0  0  0  0  0
  127.3210  123.0120   54.4160 O   0  0  0  0  0  0  0  0  0  0  0  0
  127.3240  123.1380   61.6150 N   0  0  0  0  0  0  0  0  0  0  0  0
  127.1320  124.4400   62.0220 N   0  0  0  0  0  0  0  0  0  0  0  0
  126.4380  125.3520   61.3230 C   0  0  0  0  0  0  0  0  0  0  0  0
  125.8290  125.1190   60.1590 N   0  0  0  0  0  0  0  0  0  0  0  0
  126.3480  126.5750   61.8240 N   0  0  0  0  0  0  0  0  0  0  0  0
  1  2  1  0
  2  3  1  0
  3  4  1  0
  4  5  1  0
  5  6  2  0
  6  7  1  0
  7  8  2  0
  8  9  1  0
  9 10  2  0
  9 11  1  0
 11 12  1  0
 12 13  1  0
  2 14  2  0
 14 15  1  0
 15 16  1  0
 16 17  1  0
 16 18  2  0
 10  5  1  0
 13  8  1  0
M  CHG  1  18   1
M  END
>  <Binding energies>  (80) 
[-7.54]

>  <Ligand effiencies>  (80) 
[-0.32782608695652177]

>  <Interactions>  (80) 
["V-B:TYR:539:CD2:9845, V-B:PRO:540:N:9855, V-B:TYR:539:CD1:9844, V-B:MET:535:CE:9806, V-B:ILE:538:CA:9831, V-B:TYR:539:CE1:9846, V-B:PRO:540:CA:9854, V-B:TYR:539:C:9838, H-B:ASP:366:OD2:8186, V-B:PRO:540:C:9852, V-B:ALA:541:CB:9863, H-B:ALA:541:N:9862, V-B:ALA:541:CA:9861, V-B:ASP:366:CG:8184, V-B:GLU:543:CD:9879, H-B:GLU:543:OE2:9881, V-B:TYR:539:CZ:9848, H-B:TYR:539:N:9841, V-B:ILE:538:CD1:9836, V-B:ILE:538:C:9829, H-B:ASP:366:OD1:8185"]

$$$$
RR30_Rahimova_2017
     RDKit          3D

 18 19  0  0  0  0  0  0  0  0999 V2000
  129.3800  121.3950   60.6990 C   0  0  0  0  0  0  0  0  0  0  0  0
  128.8410  122.8190   60.5030 C   0  0  0  0  0  0  0  0  0  0  0  0
  127.5240  123.0360   61.2160 C   0  0  0  0  0  0  0  0  0  0  0  0
  127.3190  123.2510   62.4920 N   0  0  0  0  0  0  0  0  0  0  0  0
  125.9410  123.3760   62.6420 N   0  0  0  0  0  0  0  0  0  0  0  0
  125.4310  123.2160   61.4480 C   0  0  0  0  0  0  0  0  0  0  0  0
  123.7290  123.2780   60.9870 S   0  0  0  0  0  0  0  0  0  0  0  0
  123.7500  124.7450   59.9090 C   0  0  0  0  0  0  0  0  0  0  0  0
  124.0790  124.3900   58.4560 C   0  0  0  0  0  0  0  0  0  0  0  0
  123.4090  124.8880   57.5480 O   0  0  0  0  0  0  0  0  0  0  0  0
  125.0870  123.5070   58.2770 N   0  0  0  0  0  0  0  0  0  0  0  0
  125.5610  123.0330   57.0630 C   0  0  0  0  0  0  0  0  0  0  0  0
  125.2970  121.8870   56.4770 N   0  0  0  0  0  0  0  0  0  0  0  0
  125.9560  121.7520   55.2610 N   0  0  0  0  0  0  0  0  0  0  0  0
  126.6990  122.7900   54.9530 C   0  0  0  0  0  0  0  0  0  0  0  0
  127.5140  122.8770   53.6830 C   0  0  0  0  0  0  0  0  0  0  0  0
  126.6440  124.0460   56.1600 S   0  0  0  0  0  0  0  0  0  0  0  0
  126.3750  123.0010   60.4960 O   0  0  0  0  0  0  0  0  0  0  0  0
  1  2  1  0
  2  3  1  0
  3  4  2  0
  4  5  1  0
  5  6  2  0
  6  7  1  0
  7  8  1  0
  8  9  1  0
  9 10  2  0
  9 11  1  0
 11 12  1  0
 12 13  2  0
 13 14  1  0
 14 15  2  0
 15 16  1  0
 15 17  1  0
  6 18  1  0
 18  3  1  0
 17 12  1  0
M  END
>  <Binding energies>  (81) 
[-7.13]

>  <Ligand effiencies>  (81) 
[-0.37526315789473685]

>  <Interactions>  (81) 
["V-B:TYR:539:CD2:9845, V-B:PRO:540:N:9855, V-B:TYR:539:CD1:9844, V-B:TYR:539:CE2:9847, V-B:MET:535:CE:9806, V-B:TYR:539:CE1:9846, V-B:PRO:540:CA:9854, V-B:PRO:540:CB:9856, V-B:PRO:540:C:9852, V-B:PRO:540:CD:9858, V-B:LEU:363:CD1:8160, V-B:ALA:541:CB:9863, H-B:ALA:541:N:9862, V-B:ASP:366:CG:8184, H-B:TYR:539:N:9841, V-B:LEU:363:CA:8156, H-B:TYR:531:OH:9766, V-B:ASN:362:C:8143, V-B:MET:535:CG:9804, V-B:ASP:366:CB:8183, V-B:VAL:537:C:9821, V-B:ILE:538:CD1:9836, V-B:MET:535:CB:9803, H-B:LEU:363:N:8157"]

$$$$
RR31_Rahimova_2017
     RDKit          3D

 18 19  0  0  0  0  0  0  0  0999 V2000
  134.2020  119.8410   61.3910 C   0  0  0  0  0  0  0  0  0  0  0  0
  132.8580  120.5510   61.2940 C   0  0  0  0  0  0  0  0  0  0  0  0
  131.7740  119.8830   60.7250 C   0  0  0  0  0  0  0  0  0  0  0  0
  130.5310  120.5050   60.6260 C   0  0  0  0  0  0  0  0  0  0  0  0
  130.3320  121.8110   61.1000 C   0  0  0  0  0  0  0  0  0  0  0  0
  129.0950  122.4510   60.9980 N   0  0  0  0  0  0  0  0  0  0  0  0
  128.1530  122.1610   59.9000 C   0  0  0  0  0  0  0  0  0  0  0  0
  127.0500  123.2310   59.7160 C   0  0  0  0  0  0  0  0  0  0  0  0
  126.3050  123.4330   60.9610 N   0  0  0  0  0  0  0  0  0  0  0  0
  125.2280  124.4170   60.8090 C   0  0  0  0  0  0  0  0  0  0  0  0
  124.1330  123.9640   59.8230 C   0  0  0  0  0  0  0  0  0  0  0  0
  124.4040  124.4460   58.3890 C   0  0  0  0  0  0  0  0  0  0  0  0
  124.6350  125.9610   58.3800 N   0  0  0  0  0  0  0  0  0  0  0  0
  127.2560  123.8970   61.9710 C   0  0  0  0  0  0  0  0  0  0  0  0
  128.3550  122.8380   62.2160 C   0  0  0  0  0  0  0  0  0  0  0  0
  131.4330  122.4750   61.6620 C   0  0  0  0  0  0  0  0  0  0  0  0
  132.6870  121.8620   61.7670 C   0  0  0  0  0  0  0  0  0  0  0  0
  133.8440  122.6380   62.3850 C   0  0  0  0  0  0  0  0  0  0  0  0
  1  2  1  0
  2  3  2  0
  3  4  1  0
  4  5  2  0
  5  6  1  0
  6  7  1  0
  7  8  1  0
  8  9  1  0
  9 10  1  0
 10 11  1  0
 11 12  1  0
 12 13  1  0
  9 14  1  0
 14 15  1  0
  5 16  1  0
 16 17  2  0
 17 18  1  0
 17  2  1  0
 15  6  1  0
M  CHG  1  13   1
M  END
>  <Binding energies>  (82) 
[-7.04]

>  <Ligand effiencies>  (82) 
[-0.3352380952380952]

>  <Interactions>  (82) 
["V-B:TYR:539:CD2:9845, V-B:PRO:540:N:9855, V-B:TYR:539:CE2:9847, V-A:ILE:369:CG2:3236, V-A:LEU:475:CD2:4258, V-B:PRO:540:CA:9854, V-B:TYR:539:C:9838, V-B:PRO:540:CB:9856, H-B:ASP:366:OD2:8186, V-B:PRO:540:C:9852, V-B:LEU:363:CD1:8160, V-B:ALA:541:CB:9863, H-B:ALA:541:N:9862, V-B:ALA:541:CA:9861, V-B:ASP:366:CG:8184, V-B:GLU:543:CD:9879, V-B:LEU:363:CA:8156, H-B:TYR:531:OH:9766, V-B:ASN:362:C:8143, V-B:TYR:531:CZ:9765, V-B:TYR:531:CE2:9764, V-B:ASP:366:CB:8183, V-A:ILE:369:CD1:3238, V-A:TRP:381:CZ2:3369, V-A:TRP:381:CH2:3371, V-A:GLY:454:CA:4048, V-A:SER:385:C:3404, V-A:SER:385:CA:3406"]

$$$$
RR32_Rahimova_2017
     RDKit          3D

 18 20  0  0  0  0  0  0  0  0999 V2000
  126.7710  123.1310   56.9030 C   0  0  0  0  0  0  0  0  0  0  0  0
  126.9850  123.0580   58.4110 C   0  0  0  0  0  0  0  0  0  0  0  0
  128.2000  122.5600   58.8820 C   0  0  0  0  0  0  0  0  0  0  0  0
  128.4320  122.4820   60.2520 C   0  0  0  0  0  0  0  0  0  0  0  0
  129.6390  121.9880   60.7150 N   0  0  0  0  0  0  0  0  0  0  0  0
  129.8540  120.5330   60.6220 C   0  0  0  0  0  0  0  0  0  0  0  0
  131.1470  120.0600   61.3270 C   0  0  0  0  0  0  0  0  0  0  0  0
  132.3100  120.7400   60.7590 N   0  0  0  0  0  0  0  0  0  0  0  0
  133.5330  120.2710   61.4010 C   0  0  0  0  0  0  0  0  0  0  0  0
  132.1430  122.1760   60.9750 C   0  0  0  0  0  0  0  0  0  0  0  0
  130.8630  122.6800   60.2680 C   0  0  0  0  0  0  0  0  0  0  0  0
  127.5130  122.8710   61.1740 N   0  0  0  0  0  0  0  0  0  0  0  0
  126.3160  123.3580   60.7450 C   0  0  0  0  0  0  0  0  0  0  0  0
  125.3770  123.7550   61.7280 C   0  0  0  0  0  0  0  0  0  0  0  0
  124.1380  124.2590   61.3490 C   0  0  0  0  0  0  0  0  0  0  0  0
  123.8080  124.3810   60.0040 C   0  0  0  0  0  0  0  0  0  0  0  0
  124.7090  124.0010   59.0140 C   0  0  0  0  0  0  0  0  0  0  0  0
  125.9900  123.4770   59.3550 C   0  0  0  0  0  0  0  0  0  0  0  0
  1  2  1  0
  2  3  2  0
  3  4  1  0
  4  5  1  0
  5  6  1  0
  6  7  1  0
  7  8  1  0
  8  9  1  0
  8 10  1  0
 10 11  1  0
  4 12  2  0
 12 13  1  0
 13 14  2  0
 14 15  1  0
 15 16  2  0
 16 17  1  0
 17 18  2  0
 18  2  1  0
 11  5  1  0
 18 13  1  0
M  END
>  <Binding energies>  (83) 
[-6.85]

>  <Ligand effiencies>  (83) 
[-0.38055555555555554]

>  <Interactions>  (83) 
["V-B:TYR:539:CD2:9845, V-B:PRO:540:N:9855, V-B:TYR:539:CE2:9847, V-A:ILE:369:CG2:3236, V-A:LEU:475:CD2:4258, V-B:PRO:540:CA:9854, V-B:TYR:539:C:9838, V-B:PRO:540:CB:9856, V-B:PRO:540:C:9852, V-B:ALA:541:CB:9863, H-B:ALA:541:N:9862, V-B:ASP:366:CG:8184, V-B:TYR:539:CZ:9848, V-B:LEU:363:CA:8156, V-B:ASN:362:C:8143, V-B:ASN:362:CB:8147, V-B:ASN:362:CA:8145, V-A:TRP:381:CH2:3371"]

$$$$
RR5_Rahimova_2017
     RDKit          3D

 45 50  0  0  0  0  0  0  0  0999 V2000
  129.6690  123.9750   58.5010 O   0  0  0  0  0  0  0  0  0  0  0  0
  129.7650  125.1030   58.9820 C   0  0  0  0  0  0  0  0  0  0  0  0
  130.9590  125.4440   59.8940 C   0  0  0  0  0  0  0  0  0  0  0  0
  132.2090  126.0050   59.1260 C   0  0  2  0  0  0  0  0  0  0  0  0
  132.0320  127.3520   58.5480 N   0  0  0  0  0  0  0  0  0  0  0  0
  131.2170  128.3010   59.1500 C   0  0  0  0  0  0  0  0  0  0  0  0
  130.6020  128.1760   60.2120 O   0  0  0  0  0  0  0  0  0  0  0  0
  131.1910  129.3950   58.3690 O   0  0  0  0  0  0  0  0  0  0  0  0
  132.3390  130.2260   58.2170 C   0  0  0  0  0  0  0  0  0  0  0  0
  131.9670  131.7140   58.4000 C   0  0  0  0  0  0  0  0  0  0  0  0
  131.1420  132.2800   57.2580 C   0  0  0  0  0  0  0  0  0  0  0  0
  131.4400  132.3500   55.8940 C   0  0  0  0  0  0  0  0  0  0  0  0
  130.5130  132.8990   55.0070 C   0  0  0  0  0  0  0  0  0  0  0  0
  129.2900  133.3800   55.4790 C   0  0  0  0  0  0  0  0  0  0  0  0
  128.9910  133.3140   56.8420 C   0  0  0  0  0  0  0  0  0  0  0  0
  129.9200  132.7650   57.7270 C   0  0  0  0  0  0  0  0  0  0  0  0
  129.8750  132.5800   59.1860 C   0  0  0  0  0  0  0  0  0  0  0  0
  128.8920  132.9050   60.1240 C   0  0  0  0  0  0  0  0  0  0  0  0
  129.1130  132.6370   61.4750 C   0  0  0  0  0  0  0  0  0  0  0  0
  130.3090  132.0450   61.8870 C   0  0  0  0  0  0  0  0  0  0  0  0
  131.2850  131.7180   60.9460 C   0  0  0  0  0  0  0  0  0  0  0  0
  131.0680  131.9810   59.5920 C   0  0  0  0  0  0  0  0  0  0  0  0
  132.6630  125.0190   58.0210 C   0  0  0  0  0  0  0  0  0  0  0  0
  133.2430  123.9710   58.2240 O   0  0  0  0  0  0  0  0  0  0  0  0
  132.2950  125.5000   56.7970 O   0  0  0  0  0  0  0  0  0  0  0  0
  128.9010  126.1160   58.7510 N   0  0  0  0  0  0  0  0  0  0  0  0
  127.6450  126.2330   57.9510 C   0  0  0  0  0  0  0  0  0  0  0  0
  128.0430  125.5300   56.6110 C   0  0  0  0  0  0  0  0  0  0  0  0
  129.0190  126.0740   55.7590 C   0  0  0  0  0  0  0  0  0  0  0  0
  129.3670  125.4380   54.5700 C   0  0  0  0  0  0  0  0  0  0  0  0
  128.7370  124.2530   54.2070 C   0  0  0  0  0  0  0  0  0  0  0  0
  127.7680  123.6910   55.0310 C   0  0  0  0  0  0  0  0  0  0  0  0
  127.4290  124.3220   56.2240 C   0  0  0  0  0  0  0  0  0  0  0  0
  126.5240  125.4620   58.7260 C   0  0  0  0  0  0  0  0  0  0  0  0
  126.7410  124.9410   60.0120 C   0  0  0  0  0  0  0  0  0  0  0  0
  125.7360  124.2410   60.6750 C   0  0  0  0  0  0  0  0  0  0  0  0
  124.5030  124.0500   60.0600 C   0  0  0  0  0  0  0  0  0  0  0  0
  124.2630  124.5590   58.7880 C   0  0  0  0  0  0  0  0  0  0  0  0
  125.2650  125.2660   58.1310 C   0  0  0  0  0  0  0  0  0  0  0  0
  127.3810  127.7670   57.7780 C   0  0  0  0  0  0  0  0  0  0  0  0
  128.2740  128.5790   57.0560 C   0  0  0  0  0  0  0  0  0  0  0  0
  128.0490  129.9440   56.9050 C   0  0  0  0  0  0  0  0  0  0  0  0
  126.9190  130.5240   57.4710 C   0  0  0  0  0  0  0  0  0  0  0  0
  126.0110  129.7460   58.1780 C   0  0  0  0  0  0  0  0  0  0  0  0
  126.2400  128.3800   58.3270 C   0  0  0  0  0  0  0  0  0  0  0  0
  1  2  2  0
  2  3  1  0
  4  3  1  6
  4  5  1  0
  5  6  1  0
  6  7  2  0
  6  8  1  0
  8  9  1  0
  9 10  1  0
 10 11  1  0
 11 12  2  0
 12 13  1  0
 13 14  2  0
 14 15  1  0
 15 16  2  0
 16 17  1  0
 17 18  2  0
 18 19  1  0
 19 20  2  0
 20 21  1  0
 21 22  2  0
  4 23  1  0
 23 24  2  0
 23 25  1  0
  2 26  1  0
 26 27  1  0
 27 28  1  0
 28 29  2  0
 29 30  1  0
 30 31  2  0
 31 32  1  0
 32 33  2  0
 27 34  1  0
 34 35  2  0
 35 36  1  0
 36 37  2  0
 37 38  1  0
 38 39  2  0
 27 40  1  0
 40 41  2  0
 41 42  1  0
 42 43  2  0
 43 44  1  0
 44 45  2  0
 22 10  1  0
 33 28  1  0
 39 34  1  0
 45 40  1  0
 16 11  1  0
 22 17  1  0
M  END
>  <Binding energies>  (84) 
[-11.02]

>  <Ligand effiencies>  (84) 
[-0.22958333333333333]

>  <Interactions>  (84) 
["V-A:LEU:363:CD1:3188, V-A:ILE:538:CB:4862, V-A:TYR:539:CE2:4876, V-A:TYR:539:C:4867, V-A:ILE:538:C:4858, V-A:PRO:540:CA:4883, V-A:ILE:538:CG2:4863, V-A:PRO:540:CB:4885, V-A:ILE:538:CA:4860, V-A:PRO:540:N:4884, V-A:MET:535:CE:4835, V-A:TYR:539:CD2:4874, V-A:TYR:539:CA:4869, V-A:ALA:541:CB:4892, V-B:TYR:539:CD1:9844, V-B:MET:535:CE:9806, V-B:TYR:539:CE1:9846, V-B:PRO:540:CA:9854, V-B:PRO:540:CB:9856, V-A:TYR:539:CZ:4877, V-B:ASP:366:CG:8184, V-B:TYR:539:CZ:9848, H-B:TYR:539:OH:9849, V-B:LEU:363:CA:8156, V-B:ASN:362:C:8143, V-B:MET:535:CG:9804, V-B:ASP:366:CB:8183, V-A:ASP:366:CB:3211, V-A:ASP:366:CG:3212, V-B:MET:535:CB:9803, H-A:TYR:531:OH:4795, V-A:TYR:539:CE1:4875, V-A:TYR:539:CG:4872, V-A:ASP:366:CA:3209, V-A:TYR:539:CD1:4873, V-A:ASP:366:C:3207"]

$$$$
