1a_Ghoteimi_2023
     RDKit          3D

 40 43  0  0  0  0  0  0  0  0999 V2000
  126.0100  130.5000   55.5880 C   0  0  0  0  0  0  0  0  0  0  0  0
  124.8830  130.4550   56.6240 C   0  0  0  0  0  0  0  0  0  0  0  0
  125.2700  131.1960   57.7750 O   0  0  0  0  0  0  0  0  0  0  0  0
  124.3490  131.6330   58.6710 C   0  0  0  0  0  0  0  0  0  0  0  0
  123.3560  132.2970   58.3570 O   0  0  0  0  0  0  0  0  0  0  0  0
  124.6550  131.2240   60.0830 C   0  0  0  0  0  0  0  0  0  0  0  0
  123.9320  131.7260   61.1750 C   0  0  0  0  0  0  0  0  0  0  0  0
  124.2410  131.3300   62.4730 C   0  0  0  0  0  0  0  0  0  0  0  0
  125.2810  130.4170   62.7030 C   0  0  0  0  0  0  0  0  0  0  0  0
  125.6810  129.9530   63.9710 N   0  0  0  0  0  0  0  0  0  0  0  0
  124.9570  129.7840   65.0990 C   0  0  0  0  0  0  0  0  0  0  0  0
  123.7520  130.0050   65.2160 O   0  0  0  0  0  0  0  0  0  0  0  0
  125.7360  129.2670   66.3080 C   0  0  0  0  0  0  0  0  0  0  0  0
  127.4970  129.7020   66.2100 S   0  0  0  0  0  0  0  0  0  0  0  0
  128.3950  128.2450   66.6940 C   0  0  0  0  0  0  0  0  0  0  0  0
  128.3960  128.0180   68.0290 N   0  0  0  0  0  0  0  0  0  0  0  0
  129.0430  126.9330   68.5290 C   0  0  0  0  0  0  0  0  0  0  0  0
  128.9810  126.7390   70.0170 C   0  0  0  0  0  0  0  0  0  0  0  0
  129.3990  127.7460   70.9020 C   0  0  0  0  0  0  0  0  0  0  0  0
  129.3400  127.5640   72.2800 C   0  0  0  0  0  0  0  0  0  0  0  0
  128.8630  126.3710   72.8180 C   0  0  0  0  0  0  0  0  0  0  0  0
  128.8370  126.2790   74.1970 O   0  0  0  0  0  0  0  0  0  0  0  0
  129.9330  125.6730   74.8720 C   0  0  0  0  0  0  0  0  0  0  0  0
  128.4460  125.3550   71.9480 C   0  0  0  0  0  0  0  0  0  0  0  0
  128.5070  125.5400   70.5700 C   0  0  0  0  0  0  0  0  0  0  0  0
  129.7110  126.0460   67.6750 C   0  0  0  0  0  0  0  0  0  0  0  0
  129.7450  126.2740   66.2930 C   0  0  0  0  0  0  0  0  0  0  0  0
  130.5040  125.3040   65.4470 C   0  0  0  0  0  0  0  0  0  0  0  0
  131.8040  125.5910   65.0180 C   0  0  0  0  0  0  0  0  0  0  0  0
  132.5090  124.6750   64.2420 C   0  0  0  0  0  0  0  0  0  0  0  0
  131.9360  123.4540   63.8880 C   0  0  0  0  0  0  0  0  0  0  0  0
  132.7110  122.6090   63.1180 O   0  0  0  0  0  0  0  0  0  0  0  0
  133.4450  123.1450   62.0240 C   0  0  0  0  0  0  0  0  0  0  0  0
  130.6350  123.1590   64.3250 C   0  0  0  0  0  0  0  0  0  0  0  0
  129.9300  124.0770   65.0990 C   0  0  0  0  0  0  0  0  0  0  0  0
  129.0640  127.4040   65.7790 C   0  0  0  0  0  0  0  0  0  0  0  0
  129.0510  127.6860   64.3400 C   0  0  0  0  0  0  0  0  0  0  0  0
  129.0410  127.9070   63.2040 N   0  0  0  0  0  0  0  0  0  0  0  0
  126.0040  129.9180   61.6200 C   0  0  0  0  0  0  0  0  0  0  0  0
  125.6940  130.3150   60.3210 C   0  0  0  0  0  0  0  0  0  0  0  0
  1  2  1  0
  2  3  1  0
  3  4  1  0
  4  5  2  0
  4  6  1  0
  6  7  2  0
  7  8  1  0
  8  9  2  0
  9 10  1  0
 10 11  1  0
 11 12  2  0
 11 13  1  0
 13 14  1  0
 14 15  1  0
 15 16  2  0
 16 17  1  0
 17 18  1  0
 18 19  2  0
 19 20  1  0
 20 21  2  0
 21 22  1  0
 22 23  1  0
 21 24  1  0
 24 25  2  0
 17 26  2  0
 26 27  1  0
 27 28  1  0
 28 29  2  0
 29 30  1  0
 30 31  2  0
 31 32  1  0
 32 33  1  0
 31 34  1  0
 34 35  2  0
 27 36  2  0
 36 37  1  0
 37 38  3  0
  9 39  1  0
 39 40  2  0
 40  6  1  0
 36 15  1  0
 25 18  1  0
 35 28  1  0
M  END
>  <Binding energies>  (1) 
[-10.24]

>  <Ligand effiencies>  (1) 
[-0.2497560975609756]

>  <Interactions>  (1) 
["V-B:ILE:369:CD1:8210, V-A:TYR:539:CE2:4876, V-A:MET:535:CE:4835, V-A:ILE:369:CG2:3236, V-A:TYR:539:CZ:4877, H-A:TYR:539:OH:4878, V-A:GLU:543:CD:4908, H-B:ARG:545:NE:9895, V-B:HIS:456:CE1:9041, V-A:HIS:456:CE1:4069, H-B:TYR:484:OH:9319, H-B:GLY:454:N:9021, H-B:ARG:545:NH1:9898, H-B:ARG:545:NH2:9899, V-B:ARG:545:CZ:9897, V-A:GLU:543:CG:4907, V-B:ASP:366:CG:8184, V-B:GLU:543:CD:9879, V-B:TYR:531:CZ:9765, V-B:ASP:366:CB:8183, V-A:ILE:369:CD1:3238, V-B:GLU:543:CG:9878, H-B:ASN:370:N:8215, V-B:TYR:531:CE1:9763, V-B:GLU:543:CB:9877, H-B:LYS:547:NZ:9922, V-A:HIS:456:CD2:4067, V-B:GLU:543:C:9873"]

$$$$
1b_Ghoteimi_2023
     RDKit          3D

 34 37  0  0  0  0  0  0  0  0999 V2000
  131.6840  132.4220   55.8090 C   0  0  0  0  0  0  0  0  0  0  0  0
  130.9280  133.3720   56.5510 O   0  0  0  0  0  0  0  0  0  0  0  0
  130.1810  132.9420   57.6310 C   0  0  0  0  0  0  0  0  0  0  0  0
  128.7990  132.8950   57.4550 C   0  0  0  0  0  0  0  0  0  0  0  0
  127.9660  132.4760   58.4880 C   0  0  0  0  0  0  0  0  0  0  0  0
  128.4900  132.0870   59.7300 C   0  0  0  0  0  0  0  0  0  0  0  0
  127.5860  131.6370   60.8440 C   0  0  0  0  0  0  0  0  0  0  0  0
  128.0150  130.8020   61.8810 C   0  0  0  0  0  0  0  0  0  0  0  0
  127.1330  130.4140   62.8980 C   0  0  0  0  0  0  0  0  0  0  0  0
  127.6580  129.5170   63.9700 C   0  0  0  0  0  0  0  0  0  0  0  0
  127.4230  129.8130   65.3160 C   0  0  0  0  0  0  0  0  0  0  0  0
  127.9170  128.9840   66.3190 C   0  0  0  0  0  0  0  0  0  0  0  0
  128.6590  127.8470   65.9980 C   0  0  0  0  0  0  0  0  0  0  0  0
  129.1100  127.0840   67.0580 O   0  0  0  0  0  0  0  0  0  0  0  0
  130.2050  126.1970   66.8590 C   0  0  0  0  0  0  0  0  0  0  0  0
  128.9040  127.5500   64.6490 C   0  0  0  0  0  0  0  0  0  0  0  0
  128.4090  128.3810   63.6480 C   0  0  0  0  0  0  0  0  0  0  0  0
  125.8020  130.8980   62.8580 C   0  0  0  0  0  0  0  0  0  0  0  0
  124.8690  130.6010   63.9480 C   0  0  0  0  0  0  0  0  0  0  0  0
  124.1320  130.3650   64.8090 N   0  0  0  0  0  0  0  0  0  0  0  0
  125.4290  131.7210   61.7710 C   0  0  0  0  0  0  0  0  0  0  0  0
  123.8020  132.4120   61.5530 S   0  0  0  0  0  0  0  0  0  0  0  0
  122.9860  131.5070   60.1950 C   0  0  0  0  0  0  0  0  0  0  0  0
  123.7930  131.4250   58.8910 C   0  0  0  0  0  0  0  0  0  0  0  0
  123.6430  132.2670   58.0030 O   0  0  0  0  0  0  0  0  0  0  0  0
  124.6450  130.3770   58.8210 N   0  0  0  0  0  0  0  0  0  0  0  0
  125.4970  130.0540   57.7710 C   0  0  0  0  0  0  0  0  0  0  0  0
  126.7630  129.5020   57.9600 C   0  0  0  0  0  0  0  0  0  0  0  0
  127.2730  129.3340   56.6930 C   0  0  0  0  0  0  0  0  0  0  0  0
  126.3590  129.7610   55.7880 O   0  0  0  0  0  0  0  0  0  0  0  0
  125.2380  130.2150   56.4840 N   0  0  0  0  0  0  0  0  0  0  0  0
  126.3070  132.0920   60.8080 N   0  0  0  0  0  0  0  0  0  0  0  0
  129.8830  132.1400   59.8970 C   0  0  0  0  0  0  0  0  0  0  0  0
  130.7190  132.5600   58.8670 C   0  0  0  0  0  0  0  0  0  0  0  0
  1  2  1  0
  2  3  1  0
  3  4  2  0
  4  5  1  0
  5  6  2  0
  6  7  1  0
  7  8  2  0
  8  9  1  0
  9 10  1  0
 10 11  2  0
 11 12  1  0
 12 13  2  0
 13 14  1  0
 14 15  1  0
 13 16  1  0
 16 17  2  0
  9 18  2  0
 18 19  1  0
 19 20  3  0
 18 21  1  0
 21 22  1  0
 22 23  1  0
 23 24  1  0
 24 25  2  0
 24 26  1  0
 26 27  1  0
 27 28  1  0
 28 29  2  0
 29 30  1  0
 30 31  1  0
 21 32  2  0
  6 33  1  0
 33 34  2  0
 34  3  1  0
 32  7  1  0
 17 10  1  0
 31 27  2  0
M  END
>  <Binding energies>  (2) 
[-9.31]

>  <Ligand effiencies>  (2) 
[-0.266]

>  <Interactions>  (2) 
["V-B:ILE:369:CD1:8210, V-A:LEU:363:CD1:3188, V-B:ILE:369:CG2:8208, V-A:ILE:538:CB:4862, V-A:TYR:539:CE2:4876, V-A:TYR:539:C:4867, V-A:PRO:540:CA:4883, V-A:ILE:538:CG2:4863, V-A:PRO:540:CB:4885, V-A:PRO:540:N:4884, V-A:MET:535:CE:4835, H-A:TYR:539:N:4870, V-A:TYR:539:CD2:4874, H-B:ASP:366:OD2:8186, V-A:TYR:539:CZ:4877, H-A:TYR:539:OH:4878, V-A:GLU:543:CD:4908, V-A:HIS:456:CE1:4069, H-B:GLY:454:N:9021, V-A:GLU:543:CG:4907, V-B:ASP:366:CG:8184, V-B:GLU:543:CD:9879, H-B:TYR:531:OH:9766, V-B:ASP:366:CB:8183, V-A:TYR:539:CE1:4875, V-B:ASP:366:CA:8181, H-B:ASN:370:N:8215, V-A:TYR:539:CG:4872, V-B:ILE:369:CB:8207, V-B:ILE:369:CG1:8209, V-B:ASP:366:C:8179, V-A:TYR:539:CD1:4873, H-B:ASP:366:OD1:8185"]

$$$$
1c_Ghoteimi_2023
     RDKit          3D

 34 37  0  0  0  0  0  0  0  0999 V2000
  129.9860  124.9830   75.0210 C   0  0  0  0  0  0  0  0  0  0  0  0
  129.0170  125.8520   74.4440 O   0  0  0  0  0  0  0  0  0  0  0  0
  129.0870  126.1410   73.0950 C   0  0  0  0  0  0  0  0  0  0  0  0
  128.3480  125.3250   72.2420 C   0  0  0  0  0  0  0  0  0  0  0  0
  128.3620  125.5420   70.8670 C   0  0  0  0  0  0  0  0  0  0  0  0
  129.1180  126.5820   70.3030 C   0  0  0  0  0  0  0  0  0  0  0  0
  129.1410  126.8160   68.8200 C   0  0  0  0  0  0  0  0  0  0  0  0
  129.7360  125.9240   67.9220 C   0  0  0  0  0  0  0  0  0  0  0  0
  129.7080  126.1720   66.5450 C   0  0  0  0  0  0  0  0  0  0  0  0
  130.3040  125.1440   65.6410 C   0  0  0  0  0  0  0  0  0  0  0  0
  131.3950  125.4600   64.8260 C   0  0  0  0  0  0  0  0  0  0  0  0
  131.9360  124.5070   63.9690 C   0  0  0  0  0  0  0  0  0  0  0  0
  131.3940  123.2230   63.9050 C   0  0  0  0  0  0  0  0  0  0  0  0
  131.9950  122.3430   63.0250 O   0  0  0  0  0  0  0  0  0  0  0  0
  133.3300  122.5900   62.5980 C   0  0  0  0  0  0  0  0  0  0  0  0
  130.2940  122.9040   64.7160 C   0  0  0  0  0  0  0  0  0  0  0  0
  129.7550  123.8600   65.5730 C   0  0  0  0  0  0  0  0  0  0  0  0
  129.0900  127.3590   66.0870 C   0  0  0  0  0  0  0  0  0  0  0  0
  129.0570  127.6930   64.6590 C   0  0  0  0  0  0  0  0  0  0  0  0
  129.0320  127.9550   63.5320 N   0  0  0  0  0  0  0  0  0  0  0  0
  128.4940  128.2060   67.0440 C   0  0  0  0  0  0  0  0  0  0  0  0
  127.5390  129.6400   66.5990 S   0  0  0  0  0  0  0  0  0  0  0  0
  125.8140  129.1850   66.9730 C   0  0  0  0  0  0  0  0  0  0  0  0
  124.8500  129.6100   65.8590 C   0  0  0  0  0  0  0  0  0  0  0  0
  123.6850  129.8930   66.1390 O   0  0  0  0  0  0  0  0  0  0  0  0
  125.3930  129.6800   64.6240 N   0  0  0  0  0  0  0  0  0  0  0  0
  124.7890  130.1790   63.4810 C   0  0  0  0  0  0  0  0  0  0  0  0
  123.6030  130.7390   63.3730 N   0  0  0  0  0  0  0  0  0  0  0  0
  123.3670  131.1360   62.1370 C   0  0  0  0  0  0  0  0  0  0  0  0
  124.3790  130.9010   61.2110 C   0  0  0  0  0  0  0  0  0  0  0  0
  125.7070  130.1140   62.0110 S   0  0  0  0  0  0  0  0  0  0  0  0
  128.5130  127.9350   68.3720 N   0  0  0  0  0  0  0  0  0  0  0  0
  129.8540  127.4010   71.1730 C   0  0  0  0  0  0  0  0  0  0  0  0
  129.8430  127.1870   72.5480 C   0  0  0  0  0  0  0  0  0  0  0  0
  1  2  1  0
  2  3  1  0
  3  4  2  0
  4  5  1  0
  5  6  2  0
  6  7  1  0
  7  8  2  0
  8  9  1  0
  9 10  1  0
 10 11  2  0
 11 12  1  0
 12 13  2  0
 13 14  1  0
 14 15  1  0
 13 16  1  0
 16 17  2  0
  9 18  2  0
 18 19  1  0
 19 20  3  0
 18 21  1  0
 21 22  1  0
 22 23  1  0
 23 24  1  0
 24 25  2  0
 24 26  1  0
 26 27  1  0
 27 28  2  0
 28 29  1  0
 29 30  2  0
 30 31  1  0
 21 32  2  0
  6 33  1  0
 33 34  2  0
 34  3  1  0
 32  7  1  0
 17 10  1  0
 31 27  1  0
M  END
>  <Binding energies>  (3) 
[-8.74]

>  <Ligand effiencies>  (3) 
[-0.24971428571428572]

>  <Interactions>  (3) 
["V-B:ILE:369:CD1:8210, V-B:ALA:541:CB:9863, V-A:GLU:543:CD:4908, V-B:ARG:545:CD:9894, H-B:ARG:545:NE:9895, V-B:HIS:456:CE1:9041, V-A:HIS:456:CE1:4069, H-B:TYR:484:OH:9319, H-B:GLY:454:N:9021, V-B:ARG:545:CZ:9897, V-A:GLU:543:CG:4907, V-B:ASP:366:CG:8184, H-B:GLU:543:OE1:9880, V-B:GLU:543:CD:9879, H-B:GLU:543:OE2:9881, V-A:ILE:369:CD1:3238, V-B:GLU:543:CG:9878, V-B:GLU:543:CB:9877, V-A:GLY:454:CA:4048, H-B:LYS:547:NZ:9922, V-B:GLU:543:C:9873, V-A:TYR:484:CE1:4344, V-B:LYS:547:CE:9921"]

$$$$
1d_Ghoteimi_2023
     RDKit          3D

 30 32  0  0  0  0  0  0  0  0999 V2000
  133.8470  125.4610   63.7470 C   0  0  0  0  0  0  0  0  0  0  0  0
  133.5770  124.7300   64.9340 O   0  0  0  0  0  0  0  0  0  0  0  0
  133.9650  125.2070   66.1350 C   0  0  0  0  0  0  0  0  0  0  0  0
  135.0930  125.1210   66.6240 O   0  0  0  0  0  0  0  0  0  0  0  0
  132.8260  125.8970   66.8810 C   0  0  0  0  0  0  0  0  0  0  0  0
  131.3160  125.6850   65.8900 S   0  0  0  0  0  0  0  0  0  0  0  0
  130.0250  126.5980   66.7060 C   0  0  0  0  0  0  0  0  0  0  0  0
  129.9490  126.3640   68.0380 N   0  0  0  0  0  0  0  0  0  0  0  0
  129.0060  126.9930   68.7840 C   0  0  0  0  0  0  0  0  0  0  0  0
  128.9930  126.6820   70.2530 C   0  0  0  0  0  0  0  0  0  0  0  0
  129.7120  127.4660   71.1690 C   0  0  0  0  0  0  0  0  0  0  0  0
  129.7040  127.1720   72.5290 C   0  0  0  0  0  0  0  0  0  0  0  0
  128.9800  126.0870   73.0170 C   0  0  0  0  0  0  0  0  0  0  0  0
  129.0330  125.8700   74.3800 O   0  0  0  0  0  0  0  0  0  0  0  0
  130.1260  125.1370   74.9230 C   0  0  0  0  0  0  0  0  0  0  0  0
  128.2570  125.2950   72.1150 C   0  0  0  0  0  0  0  0  0  0  0  0
  128.2660  125.5920   70.7540 C   0  0  0  0  0  0  0  0  0  0  0  0
  128.1120  127.8930   68.1910 C   0  0  0  0  0  0  0  0  0  0  0  0
  128.1580  128.1420   66.8140 C   0  0  0  0  0  0  0  0  0  0  0  0
  127.1700  129.1090   66.2460 C   0  0  0  0  0  0  0  0  0  0  0  0
  127.5670  130.0300   65.2720 C   0  0  0  0  0  0  0  0  0  0  0  0
  126.6510  130.9340   64.7380 C   0  0  0  0  0  0  0  0  0  0  0  0
  125.3230  130.9320   65.1620 C   0  0  0  0  0  0  0  0  0  0  0  0
  124.4880  131.8670   64.5830 O   0  0  0  0  0  0  0  0  0  0  0  0
  124.1220  131.7210   63.2150 C   0  0  0  0  0  0  0  0  0  0  0  0
  124.9170  130.0000   66.1300 C   0  0  0  0  0  0  0  0  0  0  0  0
  125.8340  129.0980   66.6620 C   0  0  0  0  0  0  0  0  0  0  0  0
  129.1290  127.4620   66.0370 C   0  0  0  0  0  0  0  0  0  0  0  0
  129.1550  127.6050   64.5790 C   0  0  0  0  0  0  0  0  0  0  0  0
  129.1740  127.7190   63.4270 N   0  0  0  0  0  0  0  0  0  0  0  0
  1  2  1  0
  2  3  1  0
  3  4  2  0
  3  5  1  0
  5  6  1  0
  6  7  1  0
  7  8  2  0
  8  9  1  0
  9 10  1  0
 10 11  2  0
 11 12  1  0
 12 13  2  0
 13 14  1  0
 14 15  1  0
 13 16  1  0
 16 17  2  0
  9 18  2  0
 18 19  1  0
 19 20  1  0
 20 21  2  0
 21 22  1  0
 22 23  2  0
 23 24  1  0
 24 25  1  0
 23 26  1  0
 26 27  2  0
 19 28  2  0
 28 29  1  0
 29 30  3  0
 28  7  1  0
 17 10  1  0
 27 20  1  0
M  END
>  <Binding energies>  (4) 
[-8.43]

>  <Ligand effiencies>  (4) 
[-0.28099999999999997]

>  <Interactions>  (4) 
["V-B:GLY:454:CA:9020, V-A:GLU:543:CD:4908, V-B:HIS:456:CE1:9041, V-A:HIS:456:CE1:4069, H-B:GLY:454:N:9021, V-A:GLU:543:CG:4907, V-A:ARG:545:CZ:4926, V-B:GLU:543:CD:9879, H-A:TYR:484:OH:4347, H-A:GLY:454:N:4049, V-A:GLY:454:CA:4048, V-A:GLY:453:CA:4043, H-B:LYS:547:NZ:9922, V-B:GLU:543:C:9873, V-A:ARG:545:CG:4922, V-A:ARG:545:CD:4923, H-A:ARG:545:NE:4924, H-A:ILE:455:N:4054"]

$$$$
1j_Grossjean_2025
     RDKit          3D

 20 21  0  0  0  0  0  0  0  0999 V2000
  127.2540  127.8800   58.2990 C   0  0  0  0  0  0  0  0  0  0  0  0
  126.8930  126.5360   57.6940 C   0  0  0  0  0  0  0  0  0  0  0  0
  127.6900  125.9360   56.7210 C   0  0  0  0  0  0  0  0  0  0  0  0
  127.3150  124.6910   56.2090 C   0  0  0  0  0  0  0  0  0  0  0  0
  128.2150  124.0450   55.1550 C   0  0  0  0  0  0  0  0  0  0  0  0
  126.1340  124.0760   56.6820 C   0  0  0  0  0  0  0  0  0  0  0  0
  125.7500  122.7470   56.1970 C   0  0  0  0  0  0  0  0  0  0  0  0
  125.4500  121.6980   55.8130 N   0  0  0  0  0  0  0  0  0  0  0  0
  125.3710  124.7690   57.6520 C   0  0  0  0  0  0  0  0  0  0  0  0
  123.8600  124.1460   58.3550 S   0  0  0  0  0  0  0  0  0  0  0  0
  123.9510  124.3790   60.1550 C   0  0  0  0  0  0  0  0  0  0  0  0
  125.1020  123.5880   60.7790 C   0  0  0  0  0  0  0  0  0  0  0  0
  124.8820  122.8690   61.7550 O   0  0  0  0  0  0  0  0  0  0  0  0
  126.3060  123.7450   60.1860 N   0  0  0  0  0  0  0  0  0  0  0  0
  127.4990  123.1460   60.5640 C   0  0  0  0  0  0  0  0  0  0  0  0
  127.9190  122.8800   61.7830 N   0  0  0  0  0  0  0  0  0  0  0  0
  129.1050  122.3040   61.7710 C   0  0  0  0  0  0  0  0  0  0  0  0
  129.6730  122.0890   60.5190 C   0  0  0  0  0  0  0  0  0  0  0  0
  128.5860  122.6770   59.2960 S   0  0  0  0  0  0  0  0  0  0  0  0
  125.7550  125.9670   58.1590 N   0  0  0  0  0  0  0  0  0  0  0  0
  1  2  1  0
  2  3  2  0
  3  4  1  0
  4  5  1  0
  4  6  2  0
  6  7  1  0
  7  8  3  0
  6  9  1  0
  9 10  1  0
 10 11  1  0
 11 12  1  0
 12 13  2  0
 12 14  1  0
 14 15  1  0
 15 16  2  0
 16 17  1  0
 17 18  2  0
 18 19  1  0
  9 20  2  0
 20  2  1  0
 19 15  1  0
M  END
>  <Binding energies>  (5) 
[-6.64]

>  <Ligand effiencies>  (5) 
[-0.3161904761904762]

>  <Interactions>  (5) 
["V-B:TYR:539:CD2:9845, V-B:TYR:539:CD1:9844, V-B:TYR:539:CE2:9847, V-B:MET:535:CE:9806, V-B:TYR:539:CE1:9846, V-B:PRO:540:CA:9854, V-B:PRO:540:CB:9856, V-B:PRO:540:CD:9858, V-B:LEU:363:CD1:8160, V-B:ALA:541:CB:9863, H-B:ALA:541:N:9862, V-B:ASP:366:CG:8184, V-B:TYR:539:CZ:9848, H-B:TYR:539:N:9841, V-B:LEU:363:CA:8156, H-B:TYR:531:OH:9766, V-B:ASN:362:C:8143, V-B:ASN:362:CB:8147"]

$$$$
1o_Grossjean_2025
     RDKit          3D

 26 27  0  0  0  0  0  0  0  0999 V2000
  132.0660  132.4090   57.4450 C   0  0  0  0  0  0  0  0  0  0  0  0
  131.1680  133.3650   56.9000 O   0  0  0  0  0  0  0  0  0  0  0  0
  130.1020  132.9780   56.1530 C   0  0  0  0  0  0  0  0  0  0  0  0
  130.1100  132.9540   54.9180 O   0  0  0  0  0  0  0  0  0  0  0  0
  128.9130  132.5770   56.9770 C   0  0  0  0  0  0  0  0  0  0  0  0
  128.7840  132.9480   58.3240 C   0  0  0  0  0  0  0  0  0  0  0  0
  127.6660  132.5620   59.0600 C   0  0  0  0  0  0  0  0  0  0  0  0
  126.6610  131.7950   58.4700 C   0  0  0  0  0  0  0  0  0  0  0  0
  125.5720  131.4680   59.3020 N   0  0  0  0  0  0  0  0  0  0  0  0
  124.2500  131.6860   59.1240 C   0  0  0  0  0  0  0  0  0  0  0  0
  123.7440  132.1990   58.1260 O   0  0  0  0  0  0  0  0  0  0  0  0
  123.3430  131.2150   60.2700 C   0  0  0  0  0  0  0  0  0  0  0  0
  124.0800  131.0790   61.6170 C   0  0  0  0  0  0  0  0  0  0  0  0
  124.0520  132.5880   62.6290 S   0  0  0  0  0  0  0  0  0  0  0  0
  125.5190  133.5340   62.2720 C   0  0  0  0  0  0  0  0  0  0  0  0
  126.6600  132.8020   62.3220 N   0  0  0  0  0  0  0  0  0  0  0  0
  127.8390  133.4130   62.0590 C   0  0  0  0  0  0  0  0  0  0  0  0
  129.0690  132.5270   62.1190 C   0  0  0  0  0  0  0  0  0  0  0  0
  127.9290  134.7690   61.7510 C   0  0  0  0  0  0  0  0  0  0  0  0
  126.7630  135.5390   61.7220 C   0  0  0  0  0  0  0  0  0  0  0  0
  126.8900  137.0260   61.3960 C   0  0  0  0  0  0  0  0  0  0  0  0
  125.5200  134.9230   61.9970 C   0  0  0  0  0  0  0  0  0  0  0  0
  124.2950  135.7260   62.0300 C   0  0  0  0  0  0  0  0  0  0  0  0
  123.3290  136.3610   62.0540 N   0  0  0  0  0  0  0  0  0  0  0  0
  126.7810  131.4240   57.1220 C   0  0  0  0  0  0  0  0  0  0  0  0
  127.8980  131.8120   56.3880 C   0  0  0  0  0  0  0  0  0  0  0  0
  1  2  1  0
  2  3  1  0
  3  4  2  0
  3  5  1  0
  5  6  2  0
  6  7  1  0
  7  8  2  0
  8  9  1  0
  9 10  1  0
 10 11  2  0
 10 12  1  0
 12 13  1  0
 13 14  1  0
 14 15  1  0
 15 16  2  0
 16 17  1  0
 17 18  1  0
 17 19  2  0
 19 20  1  0
 20 21  1  0
 20 22  2  0
 22 23  1  0
 23 24  3  0
  8 25  1  0
 25 26  2  0
 26  5  1  0
 22 15  1  0
M  END
>  <Binding energies>  (6) 
[-8.19]

>  <Ligand effiencies>  (6) 
[-0.3033333333333333]

>  <Interactions>  (6) 
["V-B:ILE:369:CD1:8210, V-A:LEU:363:CD1:3188, V-B:ILE:369:CG2:8208, V-B:TRP:381:CH2:8343, V-A:ILE:538:CB:4862, V-A:TYR:539:CE2:4876, V-B:TRP:381:CZ2:8341, V-A:TYR:539:C:4867, V-A:PRO:540:CA:4883, V-A:PRO:540:CB:4885, V-B:LEU:475:CD1:9229, V-A:ILE:538:CA:4860, V-A:PRO:540:N:4884, V-B:PRO:482:CB:9297, V-A:MET:535:CE:4835, H-A:TYR:539:N:4870, V-A:TYR:539:CD2:4874, V-B:TRP:381:CE2:8338, V-A:ALA:541:CB:4892, V-A:PRO:540:CD:4887, V-B:PRO:482:CG:9298, V-A:TYR:539:CZ:4877, H-A:TYR:539:OH:4878, V-B:ASP:366:CG:8184, V-B:ASP:366:CB:8183, V-A:TYR:539:CE1:4875, V-B:ASP:366:CA:8181, V-A:TYR:539:CG:4872, V-B:TRP:381:CZ3:8342, V-B:ILE:369:CB:8207, V-B:TRP:381:CE3:8339"]

$$$$
1p_Grossjean_2025
     RDKit          3D

 21 22  0  0  0  0  0  0  0  0999 V2000
  124.8710  123.6970   62.8490 C   0  0  0  0  0  0  0  0  0  0  0  0
  125.3900  123.5740   61.4290 C   0  0  0  0  0  0  0  0  0  0  0  0
  124.6370  124.0070   60.3390 C   0  0  0  0  0  0  0  0  0  0  0  0
  125.1600  123.8580   59.0500 C   0  0  0  0  0  0  0  0  0  0  0  0
  124.3110  124.3250   57.8680 C   0  0  0  0  0  0  0  0  0  0  0  0
  126.4390  123.2800   58.8850 C   0  0  0  0  0  0  0  0  0  0  0  0
  126.9870  123.0690   57.5450 C   0  0  0  0  0  0  0  0  0  0  0  0
  127.4200  122.9030   56.4840 N   0  0  0  0  0  0  0  0  0  0  0  0
  127.1420  122.8900   60.0500 C   0  0  0  0  0  0  0  0  0  0  0  0
  128.7620  122.1590   60.0240 S   0  0  0  0  0  0  0  0  0  0  0  0
  129.8040  123.1470   61.1380 C   0  0  0  0  0  0  0  0  0  0  0  0
  129.4550  122.9760   62.6290 C   0  0  0  0  0  0  0  0  0  0  0  0
  130.6690  123.1020   63.5610 C   0  0  0  0  0  0  0  0  0  0  0  0
  131.1230  122.0940   64.1060 O   0  0  0  0  0  0  0  0  0  0  0  0
  131.1690  124.3500   63.7050 N   0  0  0  0  0  0  0  0  0  0  0  0
  132.2530  124.7360   64.4820 C   0  0  0  0  0  0  0  0  0  0  0  0
  132.1220  125.2450   65.7740 C   0  0  0  0  0  0  0  0  0  0  0  0
  133.4080  125.5000   66.1910 C   0  0  0  0  0  0  0  0  0  0  0  0
  134.2690  125.1650   65.2020 O   0  0  0  0  0  0  0  0  0  0  0  0
  133.5250  124.6830   64.1230 N   0  0  0  0  0  0  0  0  0  0  0  0
  126.6170  123.0210   61.2950 N   0  0  0  0  0  0  0  0  0  0  0  0
  1  2  1  0
  2  3  2  0
  3  4  1  0
  4  5  1  0
  4  6  2  0
  6  7  1  0
  7  8  3  0
  6  9  1  0
  9 10  1  0
 10 11  1  0
 11 12  1  0
 12 13  1  0
 13 14  2  0
 13 15  1  0
 15 16  1  0
 16 17  1  0
 17 18  2  0
 18 19  1  0
 19 20  1  0
  9 21  2  0
 21  2  1  0
 20 16  2  0
M  END
>  <Binding energies>  (7) 
[-7.61]

>  <Ligand effiencies>  (7) 
[-0.34590909090909094]

>  <Interactions>  (7) 
["V-B:PRO:540:N:9855, V-B:PRO:540:CA:9854, V-B:PRO:540:CB:9856, V-B:PRO:540:C:9852, V-B:LEU:363:CD1:8160, V-B:ALA:541:CB:9863, H-B:ALA:541:N:9862, V-A:HIS:456:CE1:4069, V-A:ARG:545:CZ:4926, V-B:GLU:543:CD:9879, V-B:LEU:363:CA:8156, V-B:TYR:531:CE2:9764, H-A:TYR:484:OH:4347, V-B:ASN:362:CB:8147, H-A:ARG:545:NH1:4927, H-A:GLY:454:N:4049, V-B:GLU:543:CG:9878, V-B:ASN:362:CG:8148, V-A:ARG:545:CG:4922, V-A:ARG:545:CD:4923, H-A:ARG:545:NE:4924"]

$$$$
2a_Ghoteimi_2023
     RDKit          3D

 48 53  0  0  0  0  0  0  0  0999 V2000
  124.1860  124.1920   58.6130 C   0  0  0  0  0  0  0  0  0  0  0  0
  124.5500  124.2230   57.1260 C   0  0  0  0  0  0  0  0  0  0  0  0
  124.8300  122.9020   56.6810 O   0  0  0  0  0  0  0  0  0  0  0  0
  126.0730  122.5510   56.2620 C   0  0  0  0  0  0  0  0  0  0  0  0
  126.2800  121.7820   55.3180 O   0  0  0  0  0  0  0  0  0  0  0  0
  127.1710  123.1970   57.0570 C   0  0  0  0  0  0  0  0  0  0  0  0
  127.8220  124.3590   56.6170 C   0  0  0  0  0  0  0  0  0  0  0  0
  128.8340  124.9330   57.3790 C   0  0  0  0  0  0  0  0  0  0  0  0
  129.2150  124.3640   58.5960 C   0  0  0  0  0  0  0  0  0  0  0  0
  130.2530  125.0250   59.2810 N   0  0  0  0  0  0  0  0  0  0  0  0
  131.4030  125.5530   58.8090 C   0  0  0  0  0  0  0  0  0  0  0  0
  131.7790  125.4990   57.6370 O   0  0  0  0  0  0  0  0  0  0  0  0
  132.2930  126.2250   59.8630 C   0  0  0  0  0  0  0  0  0  0  0  0
  132.3970  125.3280   61.4450 S   0  0  0  0  0  0  0  0  0  0  0  0
  131.0690  125.9600   62.4430 C   0  0  0  0  0  0  0  0  0  0  0  0
  130.1240  126.6260   61.7400 N   0  0  0  0  0  0  0  0  0  0  0  0
  129.0630  127.1650   62.3920 C   0  0  0  0  0  0  0  0  0  0  0  0
  128.0640  127.8940   61.5520 C   0  0  0  0  0  0  0  0  0  0  0  0
  128.1040  127.8260   60.1540 C   0  0  0  0  0  0  0  0  0  0  0  0
  127.1790  128.5170   59.3770 C   0  0  0  0  0  0  0  0  0  0  0  0
  126.1730  129.2950   59.9670 C   0  0  0  0  0  0  0  0  0  0  0  0
  125.2690  130.0080   59.1730 N   0  0  0  0  0  0  0  0  0  0  0  0
  125.5140  130.2260   57.7330 C   0  0  0  0  0  0  0  0  0  0  0  0
  124.2700  130.7010   56.9530 C   0  0  0  0  0  0  0  0  0  0  0  0
  123.7320  131.8650   57.5590 O   0  0  0  0  0  0  0  0  0  0  0  0
  123.3350  131.6160   58.8980 C   0  0  0  0  0  0  0  0  0  0  0  0
  124.5490  131.1690   59.7380 C   0  0  0  0  0  0  0  0  0  0  0  0
  126.1450  129.3700   61.3690 C   0  0  0  0  0  0  0  0  0  0  0  0
  127.0690  128.6780   62.1460 C   0  0  0  0  0  0  0  0  0  0  0  0
  128.9220  127.0320   63.7760 C   0  0  0  0  0  0  0  0  0  0  0  0
  129.8880  126.3470   64.5250 C   0  0  0  0  0  0  0  0  0  0  0  0
  129.6780  126.2480   66.0020 C   0  0  0  0  0  0  0  0  0  0  0  0
  129.3960  127.3940   66.7500 C   0  0  0  0  0  0  0  0  0  0  0  0
  129.2190  127.3150   68.1280 C   0  0  0  0  0  0  0  0  0  0  0  0
  129.3150  126.0870   68.8000 C   0  0  0  0  0  0  0  0  0  0  0  0
  129.1590  125.9890   70.1850 N   0  0  0  0  0  0  0  0  0  0  0  0
  127.8830  125.4890   70.7350 C   0  0  0  0  0  0  0  0  0  0  0  0
  127.9820  125.0660   72.2170 C   0  0  0  0  0  0  0  0  0  0  0  0
  128.4800  126.1420   72.9970 O   0  0  0  0  0  0  0  0  0  0  0  0
  129.7710  126.5460   72.5700 C   0  0  0  0  0  0  0  0  0  0  0  0
  129.7220  127.0040   71.0970 C   0  0  0  0  0  0  0  0  0  0  0  0
  129.6100  124.9440   68.0430 C   0  0  0  0  0  0  0  0  0  0  0  0
  129.7890  125.0220   66.6650 C   0  0  0  0  0  0  0  0  0  0  0  0
  130.9950  125.7860   63.8430 C   0  0  0  0  0  0  0  0  0  0  0  0
  132.0090  125.0100   64.5650 C   0  0  0  0  0  0  0  0  0  0  0  0
  132.8080  124.3990   65.1370 N   0  0  0  0  0  0  0  0  0  0  0  0
  128.5740  123.1980   59.0390 C   0  0  0  0  0  0  0  0  0  0  0  0
  127.5600  122.6250   58.2760 C   0  0  0  0  0  0  0  0  0  0  0  0
  1  2  1  0
  2  3  1  0
  3  4  1  0
  4  5  2  0
  4  6  1  0
  6  7  2  0
  7  8  1  0
  8  9  2  0
  9 10  1  0
 10 11  1  0
 11 12  2  0
 11 13  1  0
 13 14  1  0
 14 15  1  0
 15 16  2  0
 16 17  1  0
 17 18  1  0
 18 19  2  0
 19 20  1  0
 20 21  2  0
 21 22  1  0
 22 23  1  0
 23 24  1  0
 24 25  1  0
 25 26  1  0
 26 27  1  0
 21 28  1  0
 28 29  2  0
 17 30  2  0
 30 31  1  0
 31 32  1  0
 32 33  2  0
 33 34  1  0
 34 35  2  0
 35 36  1  0
 36 37  1  0
 37 38  1  0
 38 39  1  0
 39 40  1  0
 40 41  1  0
 35 42  1  0
 42 43  2  0
 31 44  2  0
 44 45  1  0
 45 46  3  0
  9 47  1  0
 47 48  2  0
 48  6  1  0
 44 15  1  0
 29 18  1  0
 43 32  1  0
 27 22  1  0
 41 36  1  0
M  END
>  <Binding energies>  (8) 
[-11.46]

>  <Ligand effiencies>  (8) 
[-0.2338775510204082]

>  <Interactions>  (8) 
["V-B:ILE:369:CG2:8208, V-B:TYR:539:CD2:9845, V-B:PRO:540:N:9855, V-B:TYR:539:CE2:9847, V-B:MET:535:CE:9806, V-B:TYR:539:CE1:9846, V-B:PRO:540:CA:9854, V-B:TYR:539:C:9838, V-B:PRO:540:CB:9856, V-B:PRO:540:CD:9858, V-B:LEU:363:CD1:8160, H-A:TYR:539:OH:4878, V-A:GLU:543:CD:4908, V-B:HIS:456:CE1:9041, V-A:HIS:456:CE1:4069, V-A:GLU:543:CG:4907, V-B:ASP:366:CG:8184, V-B:GLU:543:CD:9879, V-B:TYR:539:CZ:9848, H-B:TYR:539:OH:9849, H-B:TYR:539:N:9841, V-B:LEU:363:CA:8156, V-B:TYR:531:CZ:9765, V-B:TYR:531:CE2:9764, V-B:ASP:366:CB:8183, V-A:ASP:366:CB:3211, V-A:ASP:366:CG:3212, V-A:TYR:484:CZ:4346, H-A:TYR:484:OH:4347, H-A:GLY:454:N:4049, H-A:TYR:531:OH:4795, V-B:GLU:543:CG:9878, V-B:ASP:366:CA:8181, H-B:ASN:370:N:8215, V-B:ILE:369:CB:8207, V-B:TYR:531:CE1:9763, V-B:GLU:543:CB:9877, V-A:ASP:366:CA:3209, V-B:ASP:366:C:8179, V-B:ASN:370:CB:8216, H-B:LYS:547:NZ:9922, V-A:HIS:456:CD2:4067, V-B:GLU:543:C:9873, V-A:TYR:484:CE1:4344, V-B:GLU:543:CA:9875, V-B:LYS:547:CE:9921, V-B:GLY:544:C:9883"]

$$$$
2aa_Ghoteimi_2023
     RDKit          3D

 48 53  0  0  0  0  0  0  0  0999 V2000
  127.4880  123.4730   55.1670 C   0  0  0  0  0  0  0  0  0  0  0  0
  126.7380  122.1370   55.1710 C   0  0  0  0  0  0  0  0  0  0  0  0
  125.9700  122.0320   56.3630 O   0  0  0  0  0  0  0  0  0  0  0  0
  125.4010  123.1280   56.9300 C   0  0  0  0  0  0  0  0  0  0  0  0
  124.4870  123.7700   56.4010 O   0  0  0  0  0  0  0  0  0  0  0  0
  125.9820  123.4710   58.2710 C   0  0  0  0  0  0  0  0  0  0  0  0
  127.2800  123.0840   58.6370 C   0  0  0  0  0  0  0  0  0  0  0  0
  127.7920  123.4210   59.8860 C   0  0  0  0  0  0  0  0  0  0  0  0
  127.0180  124.1420   60.7970 C   0  0  0  0  0  0  0  0  0  0  0  0
  127.6360  124.4310   62.0290 N   0  0  0  0  0  0  0  0  0  0  0  0
  128.6830  123.8300   62.6340 C   0  0  0  0  0  0  0  0  0  0  0  0
  129.3260  122.8880   62.1670 O   0  0  0  0  0  0  0  0  0  0  0  0
  129.0630  124.4270   63.9960 C   0  0  0  0  0  0  0  0  0  0  0  0
  129.4670  125.7900   63.8270 O   0  0  0  0  0  0  0  0  0  0  0  0
  129.0590  126.7560   64.7380 C   0  0  0  0  0  0  0  0  0  0  0  0
  128.4440  127.8720   64.2550 N   0  0  0  0  0  0  0  0  0  0  0  0
  128.0300  128.8330   65.1180 C   0  0  0  0  0  0  0  0  0  0  0  0
  127.3680  130.0320   64.5160 C   0  0  0  0  0  0  0  0  0  0  0  0
  128.0080  131.2750   64.5120 C   0  0  0  0  0  0  0  0  0  0  0  0
  127.3990  132.3930   63.9480 C   0  0  0  0  0  0  0  0  0  0  0  0
  126.1310  132.3060   63.3520 C   0  0  0  0  0  0  0  0  0  0  0  0
  125.5000  133.4220   62.7920 N   0  0  0  0  0  0  0  0  0  0  0  0
  126.1320  134.2000   61.7070 C   0  0  0  0  0  0  0  0  0  0  0  0
  125.4750  135.5750   61.4630 C   0  0  0  0  0  0  0  0  0  0  0  0
  124.0860  135.4150   61.2280 O   0  0  0  0  0  0  0  0  0  0  0  0
  123.4370  134.8150   62.3390 C   0  0  0  0  0  0  0  0  0  0  0  0
  124.0330  133.4170   62.6090 C   0  0  0  0  0  0  0  0  0  0  0  0
  125.4840  131.0620   63.3780 C   0  0  0  0  0  0  0  0  0  0  0  0
  126.0920  129.9460   63.9450 C   0  0  0  0  0  0  0  0  0  0  0  0
  128.2370  128.7060   66.4950 C   0  0  0  0  0  0  0  0  0  0  0  0
  128.8760  127.5740   67.0160 C   0  0  0  0  0  0  0  0  0  0  0  0
  129.0920  127.5070   68.4930 C   0  0  0  0  0  0  0  0  0  0  0  0
  128.5190  126.4780   69.2440 C   0  0  0  0  0  0  0  0  0  0  0  0
  128.7000  126.4200   70.6230 C   0  0  0  0  0  0  0  0  0  0  0  0
  129.4480  127.4000   71.2940 C   0  0  0  0  0  0  0  0  0  0  0  0
  129.6450  127.3610   72.6770 N   0  0  0  0  0  0  0  0  0  0  0  0
  129.3510  128.5290   73.5290 C   0  0  0  0  0  0  0  0  0  0  0  0
  129.2880  128.1920   75.0340 C   0  0  0  0  0  0  0  0  0  0  0  0
  130.4940  127.5600   75.4400 O   0  0  0  0  0  0  0  0  0  0  0  0
  130.7170  126.3530   74.7280 C   0  0  0  0  0  0  0  0  0  0  0  0
  130.8170  126.6420   73.2160 C   0  0  0  0  0  0  0  0  0  0  0  0
  130.0250  128.4250   70.5310 C   0  0  0  0  0  0  0  0  0  0  0  0
  129.8450  128.4820   69.1530 C   0  0  0  0  0  0  0  0  0  0  0  0
  129.2850  126.5660   66.1130 C   0  0  0  0  0  0  0  0  0  0  0  0
  129.9160  125.3260   66.5710 C   0  0  0  0  0  0  0  0  0  0  0  0
  130.4140  124.3460   66.9350 N   0  0  0  0  0  0  0  0  0  0  0  0
  125.7230  124.5380   60.4360 C   0  0  0  0  0  0  0  0  0  0  0  0
  125.2140  124.2030   59.1850 C   0  0  0  0  0  0  0  0  0  0  0  0
  1  2  1  0
  2  3  1  0
  3  4  1  0
  4  5  2  0
  4  6  1  0
  6  7  2  0
  7  8  1  0
  8  9  2  0
  9 10  1  0
 10 11  1  0
 11 12  2  0
 11 13  1  0
 13 14  1  0
 14 15  1  0
 15 16  2  0
 16 17  1  0
 17 18  1  0
 18 19  2  0
 19 20  1  0
 20 21  2  0
 21 22  1  0
 22 23  1  0
 23 24  1  0
 24 25  1  0
 25 26  1  0
 26 27  1  0
 21 28  1  0
 28 29  2  0
 17 30  2  0
 30 31  1  0
 31 32  1  0
 32 33  2  0
 33 34  1  0
 34 35  2  0
 35 36  1  0
 36 37  1  0
 37 38  1  0
 38 39  1  0
 39 40  1  0
 40 41  1  0
 35 42  1  0
 42 43  2  0
 31 44  2  0
 44 45  1  0
 45 46  3  0
  9 47  1  0
 47 48  2  0
 48  6  1  0
 44 15  1  0
 29 18  1  0
 43 32  1  0
 27 22  1  0
 41 36  1  0
M  END
>  <Binding energies>  (9) 
[-10.95]

>  <Ligand effiencies>  (9) 
[-0.22346938775510203]

>  <Interactions>  (9) 
["V-B:ILE:369:CD1:8210, V-B:ILE:369:CG2:8208, V-B:TRP:381:CH2:8343, V-B:TRP:381:CZ2:8341, V-B:LEU:475:CD1:9229, V-A:TYR:539:CD2:4874, V-A:ALA:541:CB:4892, V-B:PRO:540:N:9855, V-B:TYR:539:CD1:9844, V-B:MET:535:CE:9806, V-B:ILE:538:CA:9831, V-B:TYR:539:CE1:9846, V-B:PRO:540:CA:9854, V-B:PRO:540:CB:9856, V-B:PRO:540:CD:9858, V-B:LEU:363:CD1:8160, V-B:ALA:541:CB:9863, V-B:GLY:454:CA:9020, V-A:GLU:543:CD:4908, V-B:HIS:456:CE1:9041, V-A:HIS:456:CE1:4069, V-A:GLU:543:CG:4907, V-B:GLU:543:CD:9879, H-B:GLU:543:OE2:9881, V-B:TYR:539:CZ:9848, H-B:TYR:539:N:9841, H-B:TYR:531:OH:9766, V-B:ILE:538:CD1:9836, H-A:TYR:484:OH:4347, V-B:GLU:543:CG:9878, V-B:GLU:543:CB:9877, V-B:ILE:538:C:9829, V-A:HIS:456:CD2:4067, V-A:GLU:543:CB:4906, V-A:LYS:547:CE:4950, V-A:HIS:456:CG:4065, H-A:LYS:547:NZ:4951, V-B:SER:385:C:8376"]

$$$$
2b_Ghoteimi_2023
     RDKit          3D

 42 47  0  0  0  0  0  0  0  0999 V2000
  124.1930  129.3050   67.2150 N   0  0  0  0  0  0  0  0  0  0  0  0
  124.9190  129.5790   66.3560 C   0  0  0  0  0  0  0  0  0  0  0  0
  125.8420  129.9260   65.2720 C   0  0  0  0  0  0  0  0  0  0  0  0
  127.2440  129.8730   65.4760 C   0  0  0  0  0  0  0  0  0  0  0  0
  127.8810  129.4740   66.7660 C   0  0  0  0  0  0  0  0  0  0  0  0
  128.4610  128.2110   66.9030 C   0  0  0  0  0  0  0  0  0  0  0  0
  129.0560  127.8330   68.1040 C   0  0  0  0  0  0  0  0  0  0  0  0
  129.0700  128.7020   69.2070 C   0  0  0  0  0  0  0  0  0  0  0  0
  129.6710  128.3500   70.4170 N   0  0  0  0  0  0  0  0  0  0  0  0
  131.1300  128.5240   70.5720 C   0  0  0  0  0  0  0  0  0  0  0  0
  131.7110  127.7600   71.7810 C   0  0  0  0  0  0  0  0  0  0  0  0
  131.0230  128.1270   72.9670 O   0  0  0  0  0  0  0  0  0  0  0  0
  129.6380  127.8290   72.8840 C   0  0  0  0  0  0  0  0  0  0  0  0
  129.0040  128.6030   71.7090 C   0  0  0  0  0  0  0  0  0  0  0  0
  128.4820  129.9660   69.0600 C   0  0  0  0  0  0  0  0  0  0  0  0
  127.8920  130.3460   67.8580 C   0  0  0  0  0  0  0  0  0  0  0  0
  128.0870  130.2080   64.4090 C   0  0  0  0  0  0  0  0  0  0  0  0
  127.5500  130.5540   63.1660 C   0  0  0  0  0  0  0  0  0  0  0  0
  128.4060  130.8910   61.9860 C   0  0  0  0  0  0  0  0  0  0  0  0
  129.7190  131.3430   62.1620 C   0  0  0  0  0  0  0  0  0  0  0  0
  130.5260  131.6430   61.0690 C   0  0  0  0  0  0  0  0  0  0  0  0
  130.0470  131.5140   59.7550 C   0  0  0  0  0  0  0  0  0  0  0  0
  130.8570  131.7820   58.6460 N   0  0  0  0  0  0  0  0  0  0  0  0
  131.6180  130.6890   58.0080 C   0  0  0  0  0  0  0  0  0  0  0  0
  132.7430  131.1820   57.0730 C   0  0  0  0  0  0  0  0  0  0  0  0
  132.2120  132.0670   56.0990 O   0  0  0  0  0  0  0  0  0  0  0  0
  131.6210  133.2080   56.7010 C   0  0  0  0  0  0  0  0  0  0  0  0
  130.4640  132.7770   57.6280 C   0  0  0  0  0  0  0  0  0  0  0  0
  128.7340  131.0540   59.5830 C   0  0  0  0  0  0  0  0  0  0  0  0
  127.9280  130.7520   60.6770 C   0  0  0  0  0  0  0  0  0  0  0  0
  126.2070  130.6020   62.9720 N   0  0  0  0  0  0  0  0  0  0  0  0
  125.3720  130.3150   63.9980 C   0  0  0  0  0  0  0  0  0  0  0  0
  123.6490  130.4330   63.5690 S   0  0  0  0  0  0  0  0  0  0  0  0
  123.3670  132.0930   62.8830 C   0  0  0  0  0  0  0  0  0  0  0  0
  123.9610  132.2450   61.4820 C   0  0  0  0  0  0  0  0  0  0  0  0
  124.7510  133.1650   61.2580 O   0  0  0  0  0  0  0  0  0  0  0  0
  123.5530  131.3320   60.5750 N   0  0  0  0  0  0  0  0  0  0  0  0
  123.9400  131.2340   59.2460 C   0  0  0  0  0  0  0  0  0  0  0  0
  124.9680  130.3970   58.8130 C   0  0  0  0  0  0  0  0  0  0  0  0
  125.0370  130.5890   57.4530 C   0  0  0  0  0  0  0  0  0  0  0  0
  124.1000  131.4940   57.0860 O   0  0  0  0  0  0  0  0  0  0  0  0
  123.4090  131.8950   58.2310 N   0  0  0  0  0  0  0  0  0  0  0  0
  1  2  3  0
  2  3  1  0
  3  4  2  0
  4  5  1  0
  5  6  2  0
  6  7  1  0
  7  8  2  0
  8  9  1  0
  9 10  1  0
 10 11  1  0
 11 12  1  0
 12 13  1  0
 13 14  1  0
  8 15  1  0
 15 16  2  0
  4 17  1  0
 17 18  2  0
 18 19  1  0
 19 20  2  0
 20 21  1  0
 21 22  2  0
 22 23  1  0
 23 24  1  0
 24 25  1  0
 25 26  1  0
 26 27  1  0
 27 28  1  0
 22 29  1  0
 29 30  2  0
 18 31  1  0
 31 32  2  0
 32 33  1  0
 33 34  1  0
 34 35  1  0
 35 36  2  0
 35 37  1  0
 37 38  1  0
 38 39  1  0
 39 40  2  0
 40 41  1  0
 41 42  1  0
 32  3  1  0
 42 38  2  0
 16  5  1  0
 30 19  1  0
 14  9  1  0
 28 23  1  0
M  END
>  <Binding energies>  (10) 
[-11.06]

>  <Ligand effiencies>  (10) 
[-0.2572093023255814]

>  <Interactions>  (10) 
["V-B:ILE:369:CD1:8210, V-A:LEU:363:CD1:3188, V-B:ILE:369:CG2:8208, V-A:ILE:538:CB:4862, V-A:TYR:539:C:4867, V-A:PRO:540:CA:4883, V-A:PRO:540:CB:4885, V-A:PRO:540:N:4884, V-A:PRO:540:CD:4887, H-B:ASP:366:OD2:8186, H-A:TYR:539:OH:4878, V-B:GLY:454:CA:9020, V-A:GLU:543:CD:4908, V-A:TYR:531:CE2:4793, V-B:ARG:545:CD:9894, H-B:ARG:545:NE:9895, V-B:HIS:456:CE1:9041, V-A:HIS:456:CE1:4069, H-B:TYR:484:OH:9319, H-B:GLY:454:N:9021, H-B:ARG:545:NH1:9898, H-B:ARG:545:NH2:9899, V-B:ARG:545:CZ:9897, V-A:GLU:543:CG:4907, V-B:ASP:366:CG:8184, V-B:GLY:453:C:9013, V-B:GLU:543:CD:9879, V-B:ASP:366:CB:8183, V-B:ASP:366:CA:8181, H-B:ASN:370:N:8215, V-B:ILE:369:CB:8207, V-B:TYR:484:CE1:9316, V-B:HIS:456:CD2:9039, V-A:GLU:543:CB:4906, V-B:TYR:484:CZ:9318, V-A:ARG:545:CA:4919, V-A:HIS:456:CG:4065, H-A:LYS:547:NZ:4951, H-B:ASP:366:OD1:8185, V-A:GLU:543:CA:4904"]

$$$$
2c_Ghoteimi_2023
     RDKit          3D

 42 47  0  0  0  0  0  0  0  0999 V2000
  127.5400  132.3850   64.8620 N   0  0  0  0  0  0  0  0  0  0  0  0
  127.4270  131.5060   64.1190 C   0  0  0  0  0  0  0  0  0  0  0  0
  127.2840  130.3870   63.1820 C   0  0  0  0  0  0  0  0  0  0  0  0
  127.4750  129.0520   63.6190 C   0  0  0  0  0  0  0  0  0  0  0  0
  127.8300  128.6780   65.0200 C   0  0  0  0  0  0  0  0  0  0  0  0
  128.8330  127.7370   65.2640 C   0  0  0  0  0  0  0  0  0  0  0  0
  129.1730  127.3870   66.5680 C   0  0  0  0  0  0  0  0  0  0  0  0
  128.5080  127.9560   67.6650 C   0  0  0  0  0  0  0  0  0  0  0  0
  128.8470  127.6340   68.9820 N   0  0  0  0  0  0  0  0  0  0  0  0
  128.5850  126.2690   69.4820 C   0  0  0  0  0  0  0  0  0  0  0  0
  128.6380  126.1640   71.0210 C   0  0  0  0  0  0  0  0  0  0  0  0
  129.8840  126.6480   71.4990 O   0  0  0  0  0  0  0  0  0  0  0  0
  130.0880  128.0080   71.1470 C   0  0  0  0  0  0  0  0  0  0  0  0
  130.0720  128.1620   69.6120 C   0  0  0  0  0  0  0  0  0  0  0  0
  127.5000  128.8960   67.4100 C   0  0  0  0  0  0  0  0  0  0  0  0
  127.1620  129.2480   66.1070 C   0  0  0  0  0  0  0  0  0  0  0  0
  127.3240  128.0180   62.6860 C   0  0  0  0  0  0  0  0  0  0  0  0
  126.9660  128.3020   61.3650 C   0  0  0  0  0  0  0  0  0  0  0  0
  126.7760  127.2340   60.3360 C   0  0  0  0  0  0  0  0  0  0  0  0
  126.7520  127.5490   58.9740 C   0  0  0  0  0  0  0  0  0  0  0  0
  126.5800  126.5570   58.0110 C   0  0  0  0  0  0  0  0  0  0  0  0
  126.4140  125.2120   58.3770 C   0  0  0  0  0  0  0  0  0  0  0  0
  126.2660  124.2010   57.4220 N   0  0  0  0  0  0  0  0  0  0  0  0
  127.4530  123.6770   56.7160 C   0  0  0  0  0  0  0  0  0  0  0  0
  127.1110  122.8670   55.4470 C   0  0  0  0  0  0  0  0  0  0  0  0
  126.2110  121.8190   55.7670 O   0  0  0  0  0  0  0  0  0  0  0  0
  124.9960  122.3220   56.2990 C   0  0  0  0  0  0  0  0  0  0  0  0
  125.2730  123.1200   57.5910 C   0  0  0  0  0  0  0  0  0  0  0  0
  126.4520  124.8990   59.7430 C   0  0  0  0  0  0  0  0  0  0  0  0
  126.6250  125.8910   60.7050 C   0  0  0  0  0  0  0  0  0  0  0  0
  126.7810  129.5810   60.9500 N   0  0  0  0  0  0  0  0  0  0  0  0
  126.9530  130.6010   61.8250 C   0  0  0  0  0  0  0  0  0  0  0  0
  126.6820  132.2060   61.1100 S   0  0  0  0  0  0  0  0  0  0  0  0
  128.3080  132.8890   60.6690 C   0  0  0  0  0  0  0  0  0  0  0  0
  128.7760  132.4130   59.2920 C   0  0  0  0  0  0  0  0  0  0  0  0
  128.1300  131.5470   58.7010 O   0  0  0  0  0  0  0  0  0  0  0  0
  129.8990  132.9990   58.8240 N   0  0  0  0  0  0  0  0  0  0  0  0
  130.5140  132.7570   57.6050 C   0  0  0  0  0  0  0  0  0  0  0  0
  130.2180  133.2770   56.4330 N   0  0  0  0  0  0  0  0  0  0  0  0
  131.0160  132.8260   55.4870 C   0  0  0  0  0  0  0  0  0  0  0  0
  131.9900  131.9150   55.8850 C   0  0  0  0  0  0  0  0  0  0  0  0
  131.8420  131.6420   57.5960 S   0  0  0  0  0  0  0  0  0  0  0  0
  1  2  3  0
  2  3  1  0
  3  4  2  0
  4  5  1  0
  5  6  2  0
  6  7  1  0
  7  8  2  0
  8  9  1  0
  9 10  1  0
 10 11  1  0
 11 12  1  0
 12 13  1  0
 13 14  1  0
  8 15  1  0
 15 16  2  0
  4 17  1  0
 17 18  2  0
 18 19  1  0
 19 20  2  0
 20 21  1  0
 21 22  2  0
 22 23  1  0
 23 24  1  0
 24 25  1  0
 25 26  1  0
 26 27  1  0
 27 28  1  0
 22 29  1  0
 29 30  2  0
 18 31  1  0
 31 32  2  0
 32 33  1  0
 33 34  1  0
 34 35  1  0
 35 36  2  0
 35 37  1  0
 37 38  1  0
 38 39  2  0
 39 40  1  0
 40 41  2  0
 41 42  1  0
 32  3  1  0
 42 38  1  0
 16  5  1  0
 30 19  1  0
 14  9  1  0
 28 23  1  0
M  END
>  <Binding energies>  (11) 
[-10.69]

>  <Ligand effiencies>  (11) 
[-0.24860465116279068]

>  <Interactions>  (11) 
["V-A:LEU:363:CD1:3188, V-A:ILE:538:CB:4862, V-A:TYR:539:C:4867, V-A:PRO:540:CA:4883, V-A:ILE:538:CG2:4863, V-A:ILE:538:CA:4860, V-A:PRO:540:N:4884, V-A:MET:535:CE:4835, H-A:TYR:539:N:4870, H-A:TYR:539:O:4868, V-B:PRO:540:N:9855, V-B:TYR:539:CD1:9844, V-B:MET:535:CE:9806, V-B:ILE:538:CG2:9834, V-B:TYR:539:CE1:9846, V-B:PRO:540:CA:9854, V-B:PRO:540:CB:9856, V-B:PRO:540:CD:9858, V-B:LEU:363:CD1:8160, V-A:GLU:543:CD:4908, V-A:TYR:531:CE2:4793, V-B:HIS:456:CE1:9041, V-A:HIS:456:CE1:4069, V-A:GLU:543:CG:4907, V-B:ASP:366:CG:8184, V-B:GLU:543:CD:9879, V-B:TYR:539:CZ:9848, H-B:TYR:539:N:9841, V-B:GLU:543:CB:9877, V-B:PRO:540:CG:9857, V-A:GLU:543:CB:4906"]

$$$$
2j_Grossjean_2025
     RDKit          3D

 23 24  0  0  0  0  0  0  0  0999 V2000
  127.1300  133.8540   61.2920 C   0  0  0  0  0  0  0  0  0  0  0  0
  128.3360  133.2140   60.6300 C   0  0  0  0  0  0  0  0  0  0  0  0
  129.4500  132.8220   61.3680 C   0  0  0  0  0  0  0  0  0  0  0  0
  130.5400  132.2310   60.7120 C   0  0  0  0  0  0  0  0  0  0  0  0
  131.7640  131.8030   61.5440 C   0  0  0  0  0  0  0  0  0  0  0  0
  131.6920  132.3310   62.7660 F   0  0  0  0  0  0  0  0  0  0  0  0
  131.8030  130.4740   61.6490 F   0  0  0  0  0  0  0  0  0  0  0  0
  132.9190  132.1970   61.0030 F   0  0  0  0  0  0  0  0  0  0  0  0
  130.4690  132.0530   59.3070 C   0  0  0  0  0  0  0  0  0  0  0  0
  131.5780  131.4420   58.5700 C   0  0  0  0  0  0  0  0  0  0  0  0
  132.4540  130.9580   57.9880 N   0  0  0  0  0  0  0  0  0  0  0  0
  129.2980  132.4810   58.6370 C   0  0  0  0  0  0  0  0  0  0  0  0
  129.0970  132.3050   56.8700 S   0  0  0  0  0  0  0  0  0  0  0  0
  128.2840  130.7040   56.5400 C   0  0  0  0  0  0  0  0  0  0  0  0
  126.7950  130.6490   56.9090 C   0  0  0  0  0  0  0  0  0  0  0  0
  126.0010  129.9980   56.2270 O   0  0  0  0  0  0  0  0  0  0  0  0
  126.4550  131.3650   58.0040 N   0  0  0  0  0  0  0  0  0  0  0  0
  125.1870  131.4870   58.5560 C   0  0  0  0  0  0  0  0  0  0  0  0
  124.0760  131.8500   57.9520 N   0  0  0  0  0  0  0  0  0  0  0  0
  123.0510  131.8550   58.7830 C   0  0  0  0  0  0  0  0  0  0  0  0
  123.3230  131.4900   60.0980 C   0  0  0  0  0  0  0  0  0  0  0  0
  125.0160  131.1210   60.2430 S   0  0  0  0  0  0  0  0  0  0  0  0
  128.2530  133.0490   59.2910 N   0  0  0  0  0  0  0  0  0  0  0  0
  1  2  1  0
  2  3  2  0
  3  4  1  0
  4  5  1  0
  5  6  1  0
  5  7  1  0
  5  8  1  0
  4  9  2  0
  9 10  1  0
 10 11  3  0
  9 12  1  0
 12 13  1  0
 13 14  1  0
 14 15  1  0
 15 16  2  0
 15 17  1  0
 17 18  1  0
 18 19  2  0
 19 20  1  0
 20 21  2  0
 21 22  1  0
 12 23  2  0
 23  2  1  0
 22 18  1  0
M  END
>  <Binding energies>  (12) 
[-5.85]

>  <Ligand effiencies>  (12) 
[-0.24375]

>  <Interactions>  (12) 
["V-B:ILE:369:CD1:8210, V-B:ILE:369:CG2:8208, V-A:TYR:539:CE2:4876, V-A:TYR:539:C:4867, V-A:PRO:540:CA:4883, V-A:PRO:540:CB:4885, V-A:MET:535:CE:4835, V-A:TYR:539:CD2:4874, V-A:ALA:541:CB:4892, V-A:PRO:540:C:4881, V-A:TYR:539:CZ:4877, H-A:TYR:539:OH:4878, V-A:GLU:543:CD:4908, V-B:ASP:366:CG:8184, H-B:TYR:531:OH:9766, V-B:ASP:366:CB:8183, V-A:ASP:366:CG:3212, V-B:ASP:366:CA:8181, V-B:ILE:369:CB:8207, V-A:ALA:541:CA:4890, V-B:ASP:366:C:8179, V-A:ALA:541:C:4888"]

$$$$
3ab_Grossjean_2025
     RDKit          3D

 33 35  0  0  0  0  0  0  0  0999 V2000
  132.0700  132.5360   57.1020 C   0  0  0  0  0  0  0  0  0  0  0  0
  131.1820  133.4490   56.4730 O   0  0  0  0  0  0  0  0  0  0  0  0
  130.1160  133.0070   55.7590 C   0  0  0  0  0  0  0  0  0  0  0  0
  130.0920  132.9640   54.5260 O   0  0  0  0  0  0  0  0  0  0  0  0
  128.9660  132.5690   56.6200 C   0  0  0  0  0  0  0  0  0  0  0  0
  127.9210  131.7770   56.1190 C   0  0  0  0  0  0  0  0  0  0  0  0
  126.8680  131.3860   56.9410 C   0  0  0  0  0  0  0  0  0  0  0  0
  126.8400  131.7840   58.2870 C   0  0  0  0  0  0  0  0  0  0  0  0
  125.8310  131.4430   59.2080 N   0  0  0  0  0  0  0  0  0  0  0  0
  124.5040  131.6800   59.1650 C   0  0  0  0  0  0  0  0  0  0  0  0
  123.9130  132.2820   58.2690 O   0  0  0  0  0  0  0  0  0  0  0  0
  123.7030  131.1400   60.3520 C   0  0  0  0  0  0  0  0  0  0  0  0
  123.7830  132.2480   61.7920 S   0  0  0  0  0  0  0  0  0  0  0  0
  125.3690  133.0550   61.7580 C   0  0  0  0  0  0  0  0  0  0  0  0
  126.4150  132.1940   61.7600 N   0  0  0  0  0  0  0  0  0  0  0  0
  127.6850  132.6730   61.7300 C   0  0  0  0  0  0  0  0  0  0  0  0
  128.7860  131.6540   61.7320 C   0  0  0  0  0  0  0  0  0  0  0  0
  130.1060  132.0220   61.4240 C   0  0  0  0  0  0  0  0  0  0  0  0
  131.1320  131.0810   61.4250 C   0  0  0  0  0  0  0  0  0  0  0  0
  130.8510  129.7530   61.7330 C   0  0  0  0  0  0  0  0  0  0  0  0
  129.5510  129.3620   62.0370 C   0  0  0  0  0  0  0  0  0  0  0  0
  128.5290  130.3060   62.0350 C   0  0  0  0  0  0  0  0  0  0  0  0
  127.9310  134.0510   61.7190 C   0  0  0  0  0  0  0  0  0  0  0  0
  126.8650  134.9620   61.7360 C   0  0  0  0  0  0  0  0  0  0  0  0
  127.1790  136.4710   61.7280 C   0  0  0  0  0  0  0  0  0  0  0  0
  126.6700  137.1110   62.7830 F   0  0  0  0  0  0  0  0  0  0  0  0
  128.4980  136.6670   61.7420 F   0  0  0  0  0  0  0  0  0  0  0  0
  126.6700  137.0360   60.6320 F   0  0  0  0  0  0  0  0  0  0  0  0
  125.5420  134.4570   61.7640 C   0  0  0  0  0  0  0  0  0  0  0  0
  124.3940  135.3650   61.8400 C   0  0  0  0  0  0  0  0  0  0  0  0
  123.4900  136.0850   61.9000 N   0  0  0  0  0  0  0  0  0  0  0  0
  127.8810  132.5660   58.7900 C   0  0  0  0  0  0  0  0  0  0  0  0
  128.9320  132.9570   57.9660 C   0  0  0  0  0  0  0  0  0  0  0  0
  1  2  1  0
  2  3  1  0
  3  4  2  0
  3  5  1  0
  5  6  2  0
  6  7  1  0
  7  8  2  0
  8  9  1  0
  9 10  1  0
 10 11  2  0
 10 12  1  0
 12 13  1  0
 13 14  1  0
 14 15  2  0
 15 16  1  0
 16 17  1  0
 17 18  2  0
 18 19  1  0
 19 20  2  0
 20 21  1  0
 21 22  2  0
 16 23  2  0
 23 24  1  0
 24 25  1  0
 25 26  1  0
 25 27  1  0
 25 28  1  0
 24 29  2  0
 29 30  1  0
 30 31  3  0
  8 32  1  0
 32 33  2  0
 33  5  1  0
 29 14  1  0
 22 17  1  0
M  END
>  <Binding energies>  (13) 
[-8.29]

>  <Ligand effiencies>  (13) 
[-0.2438235294117647]

>  <Interactions>  (13) 
["V-B:ILE:369:CD1:8210, V-A:LEU:363:CD1:3188, V-B:ILE:369:CG2:8208, V-B:TRP:381:CH2:8343, V-A:ILE:538:CB:4862, V-A:TYR:539:CE2:4876, V-B:TRP:381:CZ2:8341, V-A:TYR:539:C:4867, V-A:ILE:538:C:4858, V-A:PRO:540:CA:4883, V-A:PRO:540:CB:4885, V-B:LEU:475:CD1:9229, V-A:ILE:538:CA:4860, V-A:PRO:540:N:4884, V-B:PRO:482:CB:9297, V-A:MET:535:CE:4835, H-A:TYR:539:N:4870, V-A:TYR:539:CD2:4874, V-B:TRP:381:CE2:8338, V-A:ALA:541:CB:4892, V-A:PRO:540:CD:4887, V-B:PRO:482:CG:9298, V-A:PRO:540:C:4881, V-A:TYR:539:CZ:4877, H-A:TYR:539:OH:4878, V-B:ASP:366:CG:8184, V-B:ASP:366:CB:8183, V-A:TYR:539:CE1:4875, V-B:ASP:366:CA:8181, V-A:TYR:539:CG:4872, V-B:TRP:381:CZ3:8342, V-B:TRP:381:CD2:8336, V-A:TYR:539:CB:4871, V-B:TRP:381:CE3:8339, V-A:ALA:541:CA:4890"]

$$$$
3ac_Grossjean_2025
     RDKit          3D

 31 33  0  0  0  0  0  0  0  0999 V2000
  123.4660  129.6290   67.0020 C   0  0  0  0  0  0  0  0  0  0  0  0
  123.7460  129.8940   65.6310 O   0  0  0  0  0  0  0  0  0  0  0  0
  125.0470  130.1570   65.2460 C   0  0  0  0  0  0  0  0  0  0  0  0
  125.2300  130.6040   63.9380 C   0  0  0  0  0  0  0  0  0  0  0  0
  126.5040  130.8990   63.4620 C   0  0  0  0  0  0  0  0  0  0  0  0
  127.6180  130.7420   64.2870 C   0  0  0  0  0  0  0  0  0  0  0  0
  128.8610  131.0840   63.7240 N   0  0  0  0  0  0  0  0  0  0  0  0
  129.1840  132.1480   62.9570 C   0  0  0  0  0  0  0  0  0  0  0  0
  128.4170  133.0590   62.6450 O   0  0  0  0  0  0  0  0  0  0  0  0
  130.6300  132.1880   62.4610 C   0  0  0  0  0  0  0  0  0  0  0  0
  130.9470  130.9520   61.1650 S   0  0  0  0  0  0  0  0  0  0  0  0
  130.1660  131.4920   59.6560 C   0  0  0  0  0  0  0  0  0  0  0  0
  128.8130  131.4250   59.7030 N   0  0  0  0  0  0  0  0  0  0  0  0
  128.0790  131.8110   58.6270 C   0  0  0  0  0  0  0  0  0  0  0  0
  126.5890  131.6990   58.7580 C   0  0  0  0  0  0  0  0  0  0  0  0
  125.9270  132.2080   59.8880 C   0  0  0  0  0  0  0  0  0  0  0  0
  124.5440  132.1120   60.0130 C   0  0  0  0  0  0  0  0  0  0  0  0
  123.8010  131.5030   59.0070 C   0  0  0  0  0  0  0  0  0  0  0  0
  124.4320  130.9860   57.8800 C   0  0  0  0  0  0  0  0  0  0  0  0
  125.8160  131.0840   57.7600 C   0  0  0  0  0  0  0  0  0  0  0  0
  128.7020  132.2620   57.4590 C   0  0  0  0  0  0  0  0  0  0  0  0
  130.1010  132.3190   57.3770 C   0  0  0  0  0  0  0  0  0  0  0  0
  130.7460  132.8170   56.0680 C   0  0  0  0  0  0  0  0  0  0  0  0
  129.8630  133.3670   55.2320 F   0  0  0  0  0  0  0  0  0  0  0  0
  131.6710  133.7410   56.3320 F   0  0  0  0  0  0  0  0  0  0  0  0
  131.3240  131.7970   55.4320 F   0  0  0  0  0  0  0  0  0  0  0  0
  130.8640  131.9100   58.4990 C   0  0  0  0  0  0  0  0  0  0  0  0
  132.3260  131.8790   58.4340 C   0  0  0  0  0  0  0  0  0  0  0  0
  133.4820  131.8550   58.3810 N   0  0  0  0  0  0  0  0  0  0  0  0
  127.4410  130.2990   65.6080 C   0  0  0  0  0  0  0  0  0  0  0  0
  126.1650  130.0060   66.0810 C   0  0  0  0  0  0  0  0  0  0  0  0
  1  2  1  0
  2  3  1  0
  3  4  2  0
  4  5  1  0
  5  6  2  0
  6  7  1  0
  7  8  1  0
  8  9  2  0
  8 10  1  0
 10 11  1  0
 11 12  1  0
 12 13  2  0
 13 14  1  0
 14 15  1  0
 15 16  2  0
 16 17  1  0
 17 18  2  0
 18 19  1  0
 19 20  2  0
 14 21  2  0
 21 22  1  0
 22 23  1  0
 23 24  1  0
 23 25  1  0
 23 26  1  0
 22 27  2  0
 27 28  1  0
 28 29  3  0
  6 30  1  0
 30 31  2  0
 31  3  1  0
 27 12  1  0
 20 15  1  0
M  END
>  <Binding energies>  (14) 
[-7.94]

>  <Ligand effiencies>  (14) 
[-0.248125]

>  <Interactions>  (14) 
["V-A:LEU:363:CD1:3188, V-B:ILE:369:CG2:8208, V-A:ILE:538:CB:4862, V-A:TYR:539:CE2:4876, V-A:TYR:539:C:4867, V-A:ILE:538:C:4858, V-A:PRO:540:CA:4883, V-A:ILE:538:CG2:4863, V-A:PRO:540:CB:4885, V-A:ILE:538:CA:4860, V-A:PRO:540:N:4884, V-A:MET:535:CE:4835, V-A:TYR:539:CD2:4874, V-A:TYR:539:CA:4869, V-A:ALA:541:CB:4892, V-A:PRO:540:CD:4887, V-A:TYR:539:CZ:4877, V-B:GLY:454:CA:9020, V-A:GLU:543:CD:4908, V-A:TYR:531:CE2:4793, V-B:ARG:545:CG:9893, H-A:GLU:543:OE2:4910, V-B:ARG:545:CD:9894, H-B:ARG:545:NE:9895, H-B:GLY:454:N:9021, V-B:ARG:545:CZ:9897, H-A:GLU:543:OE1:4909, V-A:GLU:543:CG:4907, V-B:ASP:366:CG:8184, V-B:GLY:453:C:9013, V-B:ASP:366:CB:8183, V-A:TYR:539:CE1:4875, V-B:ASP:366:CA:8181, V-B:ILE:369:CB:8207, V-A:ALA:541:CA:4890, V-B:ASP:366:C:8179, V-A:TYR:539:CD1:4873"]

$$$$
3af_Grossjean_2025
     RDKit          3D

 29 31  0  0  0  0  0  0  0  0999 V2000
  123.6730  134.0820   61.4230 N   0  0  0  0  0  0  0  0  0  0  0  0
  124.7930  133.8040   61.3310 C   0  0  0  0  0  0  0  0  0  0  0  0
  126.2110  133.4540   61.2150 C   0  0  0  0  0  0  0  0  0  0  0  0
  127.2160  134.3950   61.5450 C   0  0  0  0  0  0  0  0  0  0  0  0
  126.8950  135.8020   62.0850 C   0  0  0  0  0  0  0  0  0  0  0  0
  127.8940  136.3240   62.8000 F   0  0  0  0  0  0  0  0  0  0  0  0
  126.6500  136.6330   61.0710 F   0  0  0  0  0  0  0  0  0  0  0  0
  125.8230  135.7550   62.8760 F   0  0  0  0  0  0  0  0  0  0  0  0
  128.5600  134.0310   61.3650 C   0  0  0  0  0  0  0  0  0  0  0  0
  128.8890  132.7660   60.8680 C   0  0  0  0  0  0  0  0  0  0  0  0
  130.3070  132.3330   60.6380 C   0  0  0  0  0  0  0  0  0  0  0  0
  131.1360  131.9890   61.7180 C   0  0  0  0  0  0  0  0  0  0  0  0
  132.4520  131.5840   61.5110 C   0  0  0  0  0  0  0  0  0  0  0  0
  132.9570  131.5160   60.2180 C   0  0  0  0  0  0  0  0  0  0  0  0
  132.1560  131.8490   59.1300 C   0  0  0  0  0  0  0  0  0  0  0  0
  130.8410  132.2530   59.3410 C   0  0  0  0  0  0  0  0  0  0  0  0
  127.9220  131.8690   60.5490 N   0  0  0  0  0  0  0  0  0  0  0  0
  126.6180  132.1880   60.7350 C   0  0  0  0  0  0  0  0  0  0  0  0
  125.4990  130.8810   60.2760 S   0  0  0  0  0  0  0  0  0  0  0  0
  125.0430  131.1180   58.5310 C   0  0  0  0  0  0  0  0  0  0  0  0
  126.2330  130.9000   57.5980 C   0  0  0  0  0  0  0  0  0  0  0  0
  126.1630  130.0280   56.7320 O   0  0  0  0  0  0  0  0  0  0  0  0
  127.2960  131.7040   57.8180 N   0  0  0  0  0  0  0  0  0  0  0  0
  128.5370  131.7550   57.1520 C   0  0  0  0  0  0  0  0  0  0  0  0
  129.3520  130.6500   56.8480 C   0  0  0  0  0  0  0  0  0  0  0  0
  130.5640  130.8480   56.1830 C   0  0  0  0  0  0  0  0  0  0  0  0
  130.9320  132.1480   55.8360 C   0  0  0  0  0  0  0  0  0  0  0  0
  130.1640  133.2300   56.1170 N   0  0  0  0  0  0  0  0  0  0  0  0
  128.9890  133.0210   56.7640 C   0  0  0  0  0  0  0  0  0  0  0  0
  1  2  3  0
  2  3  1  0
  3  4  2  0
  4  5  1  0
  5  6  1  0
  5  7  1  0
  5  8  1  0
  4  9  1  0
  9 10  2  0
 10 11  1  0
 11 12  2  0
 12 13  1  0
 13 14  2  0
 14 15  1  0
 15 16  2  0
 10 17  1  0
 17 18  2  0
 18 19  1  0
 19 20  1  0
 20 21  1  0
 21 22  2  0
 21 23  1  0
 23 24  1  0
 24 25  2  0
 25 26  1  0
 26 27  2  0
 27 28  1  0
 28 29  2  0
 18  3  1  0
 29 24  1  0
 16 11  1  0
M  END
>  <Binding energies>  (15) 
[-7.52]

>  <Ligand effiencies>  (15) 
[-0.25066666666666665]

>  <Interactions>  (15) 
["V-B:ILE:369:CG2:8208, V-B:TRP:381:CH2:8343, V-A:TYR:539:CE2:4876, V-B:TRP:381:CZ2:8341, V-A:TYR:539:C:4867, V-A:PRO:540:CA:4883, V-A:PRO:540:CB:4885, V-B:LEU:475:CD1:9229, V-A:PRO:540:N:4884, V-B:PRO:482:CB:9297, V-A:MET:535:CE:4835, H-A:TYR:539:N:4870, V-A:TYR:539:CD2:4874, V-B:TRP:381:CE2:8338, V-A:ALA:541:CB:4892, V-B:PRO:482:CG:9298, V-A:TYR:539:CZ:4877, H-B:TYR:531:OH:9766, V-B:ASP:366:CB:8183, V-A:ASP:366:CG:3212, V-A:TYR:539:CE1:4875, V-A:TYR:539:CG:4872, V-B:TRP:381:CZ3:8342, V-A:ALA:541:CA:4890, V-A:TYR:539:CD1:4873"]

$$$$
3ag_Grossjean_2025
     RDKit          3D

 30 32  0  0  0  0  0  0  0  0999 V2000
  123.7690  124.7250   58.0000 N   0  0  0  0  0  0  0  0  0  0  0  0
  124.7220  124.2250   58.4250 C   0  0  0  0  0  0  0  0  0  0  0  0
  125.9280  123.5920   58.9680 C   0  0  0  0  0  0  0  0  0  0  0  0
  126.1880  123.6030   60.3600 C   0  0  0  0  0  0  0  0  0  0  0  0
  125.2120  124.2160   61.3830 C   0  0  0  0  0  0  0  0  0  0  0  0
  125.2520  123.6030   62.5680 F   0  0  0  0  0  0  0  0  0  0  0  0
  125.5120  125.4990   61.5840 F   0  0  0  0  0  0  0  0  0  0  0  0
  123.9590  124.1300   60.9330 F   0  0  0  0  0  0  0  0  0  0  0  0
  127.3820  123.0320   60.8240 C   0  0  0  0  0  0  0  0  0  0  0  0
  128.2970  122.4760   59.9240 C   0  0  0  0  0  0  0  0  0  0  0  0
  129.5880  121.8550   60.3640 C   0  0  0  0  0  0  0  0  0  0  0  0
  129.6130  120.5620   60.9080 C   0  0  0  0  0  0  0  0  0  0  0  0
  130.8080  119.9790   61.3190 C   0  0  0  0  0  0  0  0  0  0  0  0
  132.0000  120.6850   61.1910 C   0  0  0  0  0  0  0  0  0  0  0  0
  132.0030  121.9700   60.6570 C   0  0  0  0  0  0  0  0  0  0  0  0
  130.8060  122.5490   60.2490 C   0  0  0  0  0  0  0  0  0  0  0  0
  128.0390  122.4560   58.5900 N   0  0  0  0  0  0  0  0  0  0  0  0
  126.8820  122.9840   58.1220 C   0  0  0  0  0  0  0  0  0  0  0  0
  126.7120  122.8670   56.3540 S   0  0  0  0  0  0  0  0  0  0  0  0
  127.9230  124.0050   55.6170 C   0  0  0  0  0  0  0  0  0  0  0  0
  128.2710  125.1640   56.5530 C   0  0  0  0  0  0  0  0  0  0  0  0
  127.4420  126.0510   56.7670 O   0  0  0  0  0  0  0  0  0  0  0  0
  129.4960  125.1390   57.1050 N   0  0  0  0  0  0  0  0  0  0  0  0
  130.0210  126.1230   58.0510 C   0  0  0  0  0  0  0  0  0  0  0  0
  131.2610  125.6580   58.8080 C   0  0  0  0  0  0  0  0  0  0  0  0
  132.3400  125.1160   58.1060 C   0  0  0  0  0  0  0  0  0  0  0  0
  133.4860  124.7190   58.7900 C   0  0  0  0  0  0  0  0  0  0  0  0
  133.5520  124.8730   60.1730 C   0  0  0  0  0  0  0  0  0  0  0  0
  132.4850  125.4270   60.8780 C   0  0  0  0  0  0  0  0  0  0  0  0
  131.3400  125.8250   60.1940 C   0  0  0  0  0  0  0  0  0  0  0  0
  1  2  3  0
  2  3  1  0
  3  4  2  0
  4  5  1  0
  5  6  1  0
  5  7  1  0
  5  8  1  0
  4  9  1  0
  9 10  2  0
 10 11  1  0
 11 12  2  0
 12 13  1  0
 13 14  2  0
 14 15  1  0
 15 16  2  0
 10 17  1  0
 17 18  2  0
 18 19  1  0
 19 20  1  0
 20 21  1  0
 21 22  2  0
 21 23  1  0
 23 24  1  0
 24 25  1  0
 25 26  2  0
 26 27  1  0
 27 28  2  0
 28 29  1  0
 29 30  2  0
 18  3  1  0
 30 25  1  0
 16 11  1  0
M  END
>  <Binding energies>  (16) 
[-8.16]

>  <Ligand effiencies>  (16) 
[-0.2632258064516129]

>  <Interactions>  (16) 
["V-B:TYR:539:CD2:9845, V-B:PRO:540:N:9855, V-B:TYR:539:CE2:9847, V-A:ILE:369:CG2:3236, V-A:LEU:475:CD2:4258, V-B:TYR:539:CE1:9846, V-B:PRO:540:CA:9854, V-B:TYR:539:C:9838, V-B:PRO:540:CB:9856, V-B:PRO:540:C:9852, V-B:ALA:541:CB:9863, V-B:ARG:545:CZ:9897, V-B:ASP:366:CG:8184, V-B:GLU:543:CD:9879, V-B:TYR:539:CZ:9848, H-B:TYR:539:OH:9849, V-B:LEU:363:CA:8156, H-B:TYR:531:OH:9766, V-B:ASN:362:C:8143, V-A:ASP:366:CB:3211, V-A:ASP:366:CG:3212, V-A:ILE:369:CD1:3238, V-B:ASN:362:CB:8147, V-B:GLU:543:CG:9878, V-B:ASN:362:CA:8145, V-A:TRP:381:CH2:3371, V-A:ILE:369:CB:3235, V-A:ASP:366:CA:3209, V-A:ASP:366:C:3207"]

$$$$
3bc_Grossjean_2025
     RDKit          3D

 28 30  0  0  0  0  0  0  0  0999 V2000
  131.4810  132.8560   56.3070 C   0  0  0  0  0  0  0  0  0  0  0  0
  130.1530  133.1240   55.8690 O   0  0  0  0  0  0  0  0  0  0  0  0
  129.0900  132.6740   56.6300 C   0  0  0  0  0  0  0  0  0  0  0  0
  129.0940  133.0340   57.9780 C   0  0  0  0  0  0  0  0  0  0  0  0
  128.0650  132.6270   58.8230 C   0  0  0  0  0  0  0  0  0  0  0  0
  127.0180  131.8460   58.3300 C   0  0  0  0  0  0  0  0  0  0  0  0
  126.0180  131.4940   59.2560 N   0  0  0  0  0  0  0  0  0  0  0  0
  124.6780  131.6250   59.1530 C   0  0  0  0  0  0  0  0  0  0  0  0
  124.0900  132.0630   58.1630 O   0  0  0  0  0  0  0  0  0  0  0  0
  123.8900  131.1390   60.3780 C   0  0  0  0  0  0  0  0  0  0  0  0
  123.8110  132.3190   61.7680 S   0  0  0  0  0  0  0  0  0  0  0  0
  125.3350  133.2380   61.7890 C   0  0  0  0  0  0  0  0  0  0  0  0
  126.4420  132.4570   61.7610 N   0  0  0  0  0  0  0  0  0  0  0  0
  127.6740  133.0300   61.7700 C   0  0  0  0  0  0  0  0  0  0  0  0
  128.8480  132.0960   61.7600 C   0  0  0  0  0  0  0  0  0  0  0  0
  130.1170  132.5450   61.3650 C   0  0  0  0  0  0  0  0  0  0  0  0
  131.2120  131.6840   61.3520 C   0  0  0  0  0  0  0  0  0  0  0  0
  131.0490  130.3570   61.7350 C   0  0  0  0  0  0  0  0  0  0  0  0
  129.8010  129.8850   62.1280 C   0  0  0  0  0  0  0  0  0  0  0  0
  128.7090  130.7500   62.1380 C   0  0  0  0  0  0  0  0  0  0  0  0
  127.8200  134.4200   61.8090 C   0  0  0  0  0  0  0  0  0  0  0  0
  126.6870  135.2410   61.8140 C   0  0  0  0  0  0  0  0  0  0  0  0
  126.8930  136.7550   61.8390 C   0  0  0  0  0  0  0  0  0  0  0  0
  125.4050  134.6490   61.7930 C   0  0  0  0  0  0  0  0  0  0  0  0
  124.2060  135.4890   61.7490 C   0  0  0  0  0  0  0  0  0  0  0  0
  123.2600  136.1540   61.7150 N   0  0  0  0  0  0  0  0  0  0  0  0
  127.0000  131.4910   56.9730 C   0  0  0  0  0  0  0  0  0  0  0  0
  128.0310  131.9000   56.1310 C   0  0  0  0  0  0  0  0  0  0  0  0
  1  2  1  0
  2  3  1  0
  3  4  2  0
  4  5  1  0
  5  6  2  0
  6  7  1  0
  7  8  1  0
  8  9  2  0
  8 10  1  0
 10 11  1  0
 11 12  1  0
 12 13  2  0
 13 14  1  0
 14 15  1  0
 15 16  2  0
 16 17  1  0
 17 18  2  0
 18 19  1  0
 19 20  2  0
 14 21  2  0
 21 22  1  0
 22 23  1  0
 22 24  2  0
 24 25  1  0
 25 26  3  0
  6 27  1  0
 27 28  2  0
 28  3  1  0
 24 12  1  0
 20 15  1  0
M  END
>  <Binding energies>  (17) 
[-7.96]

>  <Ligand effiencies>  (17) 
[-0.27448275862068966]

>  <Interactions>  (17) 
["V-B:ILE:369:CD1:8210, V-A:LEU:363:CD1:3188, V-B:ILE:369:CG2:8208, V-B:TRP:381:CH2:8343, V-A:ILE:538:CB:4862, V-A:TYR:539:CE2:4876, V-B:TRP:381:CZ2:8341, V-A:TYR:539:C:4867, V-A:PRO:540:CA:4883, V-B:LEU:475:CD1:9229, V-A:ILE:538:CA:4860, V-A:PRO:540:N:4884, V-B:PRO:482:CB:9297, V-A:MET:535:CE:4835, H-A:TYR:539:N:4870, V-A:TYR:539:CD2:4874, V-A:ALA:541:CB:4892, V-B:PRO:482:CG:9298, V-A:PRO:540:C:4881, V-A:TYR:539:CZ:4877, H-A:TYR:539:OH:4878, V-B:ASP:366:CG:8184, V-B:ASP:366:CB:8183, V-A:TYR:539:CE1:4875, V-B:ASP:366:CA:8181, V-A:TYR:539:CG:4872"]

$$$$
3bd_Grossjean_2025
     RDKit          3D

 26 28  0  0  0  0  0  0  0  0999 V2000
  126.3380  122.1400   54.6070 C   0  0  0  0  0  0  0  0  0  0  0  0
  126.8670  123.0510   55.7130 C   0  0  0  0  0  0  0  0  0  0  0  0
  126.2400  123.0070   56.9630 C   0  0  0  0  0  0  0  0  0  0  0  0
  126.6930  123.8280   58.0020 C   0  0  0  0  0  0  0  0  0  0  0  0
  126.0700  123.8270   59.3660 C   0  0  0  0  0  0  0  0  0  0  0  0
  126.8600  123.6690   60.5160 C   0  0  0  0  0  0  0  0  0  0  0  0
  126.2880  123.6650   61.7850 C   0  0  0  0  0  0  0  0  0  0  0  0
  124.9120  123.8200   61.9230 C   0  0  0  0  0  0  0  0  0  0  0  0
  124.1070  123.9760   60.8000 C   0  0  0  0  0  0  0  0  0  0  0  0
  124.6820  123.9790   59.5330 C   0  0  0  0  0  0  0  0  0  0  0  0
  127.7480  124.6640   57.8170 N   0  0  0  0  0  0  0  0  0  0  0  0
  128.3670  124.7210   56.6110 C   0  0  0  0  0  0  0  0  0  0  0  0
  129.7310  125.8680   56.4950 S   0  0  0  0  0  0  0  0  0  0  0  0
  130.4190  126.0960   58.1620 C   0  0  0  0  0  0  0  0  0  0  0  0
  130.9780  124.7930   58.7340 C   0  0  0  0  0  0  0  0  0  0  0  0
  132.1560  124.5030   58.5220 O   0  0  0  0  0  0  0  0  0  0  0  0
  130.1040  124.0380   59.4350 N   0  0  0  0  0  0  0  0  0  0  0  0
  130.3220  122.8150   60.0980 C   0  0  0  0  0  0  0  0  0  0  0  0
  131.6150  122.6000   60.5810 C   0  0  0  0  0  0  0  0  0  0  0  0
  131.9280  121.4160   61.2430 C   0  0  0  0  0  0  0  0  0  0  0  0
  130.9500  120.4410   61.4140 C   0  0  0  0  0  0  0  0  0  0  0  0
  129.6600  120.6380   60.9240 C   0  0  0  0  0  0  0  0  0  0  0  0
  129.3440  121.8210   60.2630 C   0  0  0  0  0  0  0  0  0  0  0  0
  127.9570  123.9270   55.5190 C   0  0  0  0  0  0  0  0  0  0  0  0
  128.6350  123.9960   54.2210 C   0  0  0  0  0  0  0  0  0  0  0  0
  129.1710  124.0480   53.1970 N   0  0  0  0  0  0  0  0  0  0  0  0
  1  2  1  0
  2  3  2  0
  3  4  1  0
  4  5  1  0
  5  6  2  0
  6  7  1  0
  7  8  2  0
  8  9  1  0
  9 10  2  0
  4 11  2  0
 11 12  1  0
 12 13  1  0
 13 14  1  0
 14 15  1  0
 15 16  2  0
 15 17  1  0
 17 18  1  0
 18 19  2  0
 19 20  1  0
 20 21  2  0
 21 22  1  0
 22 23  2  0
 12 24  2  0
 24 25  1  0
 25 26  3  0
 24  2  1  0
 10  5  1  0
 23 18  1  0
M  END
>  <Binding energies>  (18) 
[-8.16]

>  <Ligand effiencies>  (18) 
[-0.3022222222222222]

>  <Interactions>  (18) 
["V-B:TYR:539:CD2:9845, V-B:PRO:540:N:9855, V-B:TYR:539:CD1:9844, V-B:TYR:539:CE2:9847, V-A:ILE:369:CG2:3236, V-B:MET:535:CE:9806, V-B:ILE:538:CA:9831, V-A:LEU:475:CD2:4258, V-B:TYR:539:CE1:9846, V-B:PRO:540:CA:9854, V-B:PRO:540:CB:9856, V-B:ALA:541:CB:9863, V-B:TYR:539:CZ:9848, H-B:TYR:539:OH:9849, V-B:LEU:363:CA:8156, V-B:ASN:362:C:8143, V-B:MET:535:CG:9804, V-B:ILE:538:CD1:9836, V-B:ASN:362:CB:8147, V-B:MET:535:CB:9803, H-A:TYR:531:OH:4795, V-B:ILE:538:C:9829, H-A:ASN:370:ND2:3247"]

$$$$
3be_Grossjean_2025
     RDKit          3D

 27 29  0  0  0  0  0  0  0  0999 V2000
  133.1050  120.6310   61.3690 C   0  0  0  0  0  0  0  0  0  0  0  0
  131.6750  121.0320   61.0620 C   0  0  0  0  0  0  0  0  0  0  0  0
  130.5980  120.2010   61.3800 C   0  0  0  0  0  0  0  0  0  0  0  0
  129.3090  120.6330   61.0660 C   0  0  0  0  0  0  0  0  0  0  0  0
  129.1300  121.8730   60.4470 C   0  0  0  0  0  0  0  0  0  0  0  0
  130.2520  122.6580   60.1590 C   0  0  0  0  0  0  0  0  0  0  0  0
  130.0060  123.8910   59.5270 N   0  0  0  0  0  0  0  0  0  0  0  0
  130.8940  124.7800   59.0330 C   0  0  0  0  0  0  0  0  0  0  0  0
  132.1180  124.6410   59.0690 O   0  0  0  0  0  0  0  0  0  0  0  0
  130.2660  126.0290   58.3940 C   0  0  0  0  0  0  0  0  0  0  0  0
  129.7020  125.8190   56.6710 S   0  0  0  0  0  0  0  0  0  0  0  0
  128.3370  124.6770   56.6720 C   0  0  0  0  0  0  0  0  0  0  0  0
  127.6580  124.6430   57.8450 N   0  0  0  0  0  0  0  0  0  0  0  0
  126.5880  123.8170   57.9850 C   0  0  0  0  0  0  0  0  0  0  0  0
  125.9010  123.8290   59.3180 C   0  0  0  0  0  0  0  0  0  0  0  0
  124.5120  124.0150   59.4090 C   0  0  0  0  0  0  0  0  0  0  0  0
  123.8690  124.0300   60.6430 C   0  0  0  0  0  0  0  0  0  0  0  0
  124.6080  123.8590   61.8080 C   0  0  0  0  0  0  0  0  0  0  0  0
  125.9850  123.6740   61.7470 C   0  0  0  0  0  0  0  0  0  0  0  0
  126.6250  123.6610   60.5110 C   0  0  0  0  0  0  0  0  0  0  0  0
  126.1750  122.9930   56.9320 C   0  0  0  0  0  0  0  0  0  0  0  0
  126.8500  123.0340   55.7070 C   0  0  0  0  0  0  0  0  0  0  0  0
  126.3530  122.1290   54.5810 C   0  0  0  0  0  0  0  0  0  0  0  0
  127.9530  123.9010   55.5550 C   0  0  0  0  0  0  0  0  0  0  0  0
  128.6390  124.0000   54.2650 C   0  0  0  0  0  0  0  0  0  0  0  0
  129.1800  124.0760   53.2440 N   0  0  0  0  0  0  0  0  0  0  0  0
  131.5160  122.2390   60.4620 N   0  0  0  0  0  0  0  0  0  0  0  0
  1  2  1  0
  2  3  2  0
  3  4  1  0
  4  5  2  0
  5  6  1  0
  6  7  1  0
  7  8  1  0
  8  9  2  0
  8 10  1  0
 10 11  1  0
 11 12  1  0
 12 13  2  0
 13 14  1  0
 14 15  1  0
 15 16  2  0
 16 17  1  0
 17 18  2  0
 18 19  1  0
 19 20  2  0
 14 21  2  0
 21 22  1  0
 22 23  1  0
 22 24  2  0
 24 25  1  0
 25 26  3  0
  6 27  2  0
 27  2  1  0
 24 12  1  0
 20 15  1  0
M  END
>  <Binding energies>  (19) 
[-8.24]

>  <Ligand effiencies>  (19) 
[-0.2942857142857143]

>  <Interactions>  (19) 
["V-B:TYR:539:CD2:9845, V-B:PRO:540:N:9855, V-B:TYR:539:CD1:9844, V-B:TYR:539:CE2:9847, V-A:ILE:369:CG2:3236, V-B:MET:535:CE:9806, V-B:ILE:538:CA:9831, V-A:LEU:475:CD2:4258, V-B:TYR:539:CE1:9846, V-B:PRO:540:CA:9854, V-B:TYR:539:C:9838, V-B:PRO:540:CB:9856, V-B:PRO:540:C:9852, V-B:ALA:541:CB:9863, V-B:ALA:541:CA:9861, V-B:TYR:539:CZ:9848, H-B:TYR:539:OH:9849, V-B:LEU:363:CA:8156, V-B:ASN:362:C:8143, V-B:MET:535:CG:9804, V-B:ILE:538:CD1:9836, V-B:ASN:362:CB:8147, V-B:MET:535:CB:9803, H-A:TYR:531:OH:4795, V-B:ASN:362:CA:8145, V-B:ILE:538:C:9829, H-A:ASN:370:ND2:3247"]

$$$$
3bf_Grossjean_2025
     RDKit          3D

 26 28  0  0  0  0  0  0  0  0999 V2000
  126.8000  136.6130   62.5350 C   0  0  0  0  0  0  0  0  0  0  0  0
  126.9320  135.2760   61.8110 C   0  0  0  0  0  0  0  0  0  0  0  0
  128.1970  134.6820   61.7510 C   0  0  0  0  0  0  0  0  0  0  0  0
  128.3600  133.4480   61.1100 C   0  0  0  0  0  0  0  0  0  0  0  0
  129.6840  132.7490   61.0290 C   0  0  0  0  0  0  0  0  0  0  0  0
  130.2870  132.2230   62.1830 C   0  0  0  0  0  0  0  0  0  0  0  0
  131.5160  131.5730   62.1160 C   0  0  0  0  0  0  0  0  0  0  0  0
  132.1610  131.4400   60.8910 C   0  0  0  0  0  0  0  0  0  0  0  0
  131.5860  131.9530   59.7340 C   0  0  0  0  0  0  0  0  0  0  0  0
  130.3570  132.6040   59.8050 C   0  0  0  0  0  0  0  0  0  0  0  0
  127.3020  132.8130   60.5400 N   0  0  0  0  0  0  0  0  0  0  0  0
  126.0740  133.3880   60.5690 C   0  0  0  0  0  0  0  0  0  0  0  0
  124.8140  132.4180   59.7690 S   0  0  0  0  0  0  0  0  0  0  0  0
  125.5770  130.8650   59.1900 C   0  0  0  0  0  0  0  0  0  0  0  0
  126.5020  131.0080   57.9720 C   0  0  0  0  0  0  0  0  0  0  0  0
  126.1530  130.5930   56.8650 O   0  0  0  0  0  0  0  0  0  0  0  0
  127.6720  131.6360   58.2230 N   0  0  0  0  0  0  0  0  0  0  0  0
  128.7320  131.9140   57.3410 C   0  0  0  0  0  0  0  0  0  0  0  0
  129.5700  130.8500   56.9930 C   0  0  0  0  0  0  0  0  0  0  0  0
  130.6320  131.0590   56.1110 C   0  0  0  0  0  0  0  0  0  0  0  0
  130.8240  132.3390   55.5920 C   0  0  0  0  0  0  0  0  0  0  0  0
  130.0200  133.3880   55.9020 N   0  0  0  0  0  0  0  0  0  0  0  0
  128.9920  133.1690   56.7620 C   0  0  0  0  0  0  0  0  0  0  0  0
  125.8330  134.6210   61.2140 C   0  0  0  0  0  0  0  0  0  0  0  0
  124.4910  135.2010   61.3100 C   0  0  0  0  0  0  0  0  0  0  0  0
  123.4320  135.6620   61.3840 N   0  0  0  0  0  0  0  0  0  0  0  0
  1  2  1  0
  2  3  2  0
  3  4  1  0
  4  5  1  0
  5  6  2  0
  6  7  1  0
  7  8  2  0
  8  9  1  0
  9 10  2  0
  4 11  2  0
 11 12  1  0
 12 13  1  0
 13 14  1  0
 14 15  1  0
 15 16  2  0
 15 17  1  0
 17 18  1  0
 18 19  2  0
 19 20  1  0
 20 21  2  0
 21 22  1  0
 22 23  2  0
 12 24  2  0
 24 25  1  0
 25 26  3  0
 24  2  1  0
 10  5  1  0
 23 18  1  0
M  END
>  <Binding energies>  (20) 
[-7.79]

>  <Ligand effiencies>  (20) 
[-0.2885185185185185]

>  <Interactions>  (20) 
["V-B:ILE:369:CG2:8208, V-B:TRP:381:CH2:8343, V-A:ILE:538:CB:4862, V-A:TYR:539:CE2:4876, V-B:TRP:381:CZ2:8341, V-A:TYR:539:C:4867, V-A:PRO:540:CA:4883, V-A:ILE:538:CG2:4863, V-A:PRO:540:CB:4885, V-B:LEU:475:CD1:9229, V-A:ILE:538:CA:4860, V-A:PRO:540:N:4884, V-B:PRO:482:CB:9297, V-A:MET:535:CE:4835, H-A:TYR:539:N:4870, V-A:TYR:539:CD2:4874, V-A:ALA:541:CB:4892, V-B:PRO:482:CG:9298, V-A:PRO:540:C:4881, V-A:TYR:539:CZ:4877, H-A:TYR:539:OH:4878, H-B:TYR:531:OH:9766, V-A:TYR:539:CE1:4875, V-A:TYR:539:CG:4872, V-A:ALA:541:CA:4890, V-A:TYR:539:CD1:4873"]

$$$$
3bg_Grossjean_2025
     RDKit          3D

 27 29  0  0  0  0  0  0  0  0999 V2000
  125.0070  124.2810   61.0330 C   0  0  0  0  0  0  0  0  0  0  0  0
  126.0440  123.6750   60.0890 C   0  0  0  0  0  0  0  0  0  0  0  0
  127.1930  123.1050   60.6460 C   0  0  0  0  0  0  0  0  0  0  0  0
  128.1660  122.5310   59.8170 C   0  0  0  0  0  0  0  0  0  0  0  0
  129.4170  121.8920   60.3520 C   0  0  0  0  0  0  0  0  0  0  0  0
  130.6560  122.5500   60.2780 C   0  0  0  0  0  0  0  0  0  0  0  0
  131.8130  121.9690   60.7890 C   0  0  0  0  0  0  0  0  0  0  0  0
  131.7510  120.7130   61.3820 C   0  0  0  0  0  0  0  0  0  0  0  0
  130.5420  120.0320   61.4580 C   0  0  0  0  0  0  0  0  0  0  0  0
  129.3870  120.6170   60.9450 C   0  0  0  0  0  0  0  0  0  0  0  0
  127.9960  122.5080   58.4680 N   0  0  0  0  0  0  0  0  0  0  0  0
  126.8850  123.0550   57.9110 C   0  0  0  0  0  0  0  0  0  0  0  0
  126.7690  122.9270   56.1330 S   0  0  0  0  0  0  0  0  0  0  0  0
  128.0300  124.0180   55.3980 C   0  0  0  0  0  0  0  0  0  0  0  0
  128.3560  125.2060   56.3080 C   0  0  0  0  0  0  0  0  0  0  0  0
  127.5940  126.1720   56.3530 O   0  0  0  0  0  0  0  0  0  0  0  0
  129.5030  125.1280   57.0050 N   0  0  0  0  0  0  0  0  0  0  0  0
  130.0970  126.2130   57.7860 C   0  0  0  0  0  0  0  0  0  0  0  0
  131.2790  125.7300   58.6190 C   0  0  0  0  0  0  0  0  0  0  0  0
  131.2570  125.8670   60.0110 C   0  0  0  0  0  0  0  0  0  0  0  0
  132.3400  125.4340   60.7710 C   0  0  0  0  0  0  0  0  0  0  0  0
  133.4380  124.8540   60.1380 C   0  0  0  0  0  0  0  0  0  0  0  0
  133.4590  124.6950   58.7550 C   0  0  0  0  0  0  0  0  0  0  0  0
  132.3750  125.1290   57.9950 C   0  0  0  0  0  0  0  0  0  0  0  0
  125.8780  123.6620   58.6880 C   0  0  0  0  0  0  0  0  0  0  0  0
  124.6820  124.2450   58.0750 C   0  0  0  0  0  0  0  0  0  0  0  0
  123.7370  124.7060   57.5920 N   0  0  0  0  0  0  0  0  0  0  0  0
  1  2  1  0
  2  3  2  0
  3  4  1  0
  4  5  1  0
  5  6  2  0
  6  7  1  0
  7  8  2  0
  8  9  1  0
  9 10  2  0
  4 11  2  0
 11 12  1  0
 12 13  1  0
 13 14  1  0
 14 15  1  0
 15 16  2  0
 15 17  1  0
 17 18  1  0
 18 19  1  0
 19 20  2  0
 20 21  1  0
 21 22  2  0
 22 23  1  0
 23 24  2  0
 12 25  2  0
 25 26  1  0
 26 27  3  0
 25  2  1  0
 10  5  1  0
 24 19  1  0
M  END
>  <Binding energies>  (21) 
[-8.42]

>  <Ligand effiencies>  (21) 
[-0.3007142857142857]

>  <Interactions>  (21) 
["V-B:TYR:539:CD2:9845, V-B:PRO:540:N:9855, V-B:TYR:539:CD1:9844, V-B:TYR:539:CE2:9847, V-A:ILE:369:CG2:3236, V-A:LEU:475:CD2:4258, V-B:TYR:539:CE1:9846, V-B:PRO:540:CA:9854, V-B:TYR:539:C:9838, V-B:PRO:540:CB:9856, V-B:PRO:540:C:9852, V-B:LEU:363:CD1:8160, V-B:ALA:541:CB:9863, V-B:ALA:541:CA:9861, V-B:TYR:539:CZ:9848, H-B:TYR:539:OH:9849, H-B:TYR:531:OH:9766, V-A:ASP:366:CB:3211, V-A:ASP:366:CG:3212, V-A:ILE:369:CD1:3238, V-A:ILE:369:CB:3235, V-A:ASP:366:CA:3209, V-A:ASP:366:C:3207"]

$$$$
3ca_Grossjean_2025
     RDKit          3D

 31 33  0  0  0  0  0  0  0  0999 V2000
  133.1560  131.8300   63.0370 C   0  0  0  0  0  0  0  0  0  0  0  0
  132.9120  131.6830   61.5330 C   0  0  0  0  0  0  0  0  0  0  0  0
  131.9380  132.6320   61.1160 O   0  0  0  0  0  0  0  0  0  0  0  0
  130.6280  132.2920   61.0130 C   0  0  0  0  0  0  0  0  0  0  0  0
  129.7620  132.6690   61.8090 O   0  0  0  0  0  0  0  0  0  0  0  0
  130.3330  131.4170   59.8280 C   0  0  0  0  0  0  0  0  0  0  0  0
  130.6470  130.0540   59.8890 C   0  0  0  0  0  0  0  0  0  0  0  0
  130.3860  129.2170   58.8070 C   0  0  0  0  0  0  0  0  0  0  0  0
  129.8140  129.7270   57.6410 C   0  0  0  0  0  0  0  0  0  0  0  0
  129.5920  128.7950   56.6090 N   0  0  0  0  0  0  0  0  0  0  0  0
  128.4290  128.3480   56.0880 C   0  0  0  0  0  0  0  0  0  0  0  0
  127.3060  128.7130   56.4340 O   0  0  0  0  0  0  0  0  0  0  0  0
  128.5700  127.3180   54.9620 C   0  0  0  0  0  0  0  0  0  0  0  0
  129.3020  125.7430   55.5180 S   0  0  0  0  0  0  0  0  0  0  0  0
  128.0250  124.6770   56.1730 C   0  0  0  0  0  0  0  0  0  0  0  0
  127.5130  123.7700   55.3030 N   0  0  0  0  0  0  0  0  0  0  0  0
  126.5580  122.9180   55.7350 C   0  0  0  0  0  0  0  0  0  0  0  0
  126.0490  121.9240   54.7100 C   0  0  0  0  0  0  0  0  0  0  0  0
  126.0660  122.9420   57.0380 C   0  0  0  0  0  0  0  0  0  0  0  0
  126.5660  123.8800   57.9500 C   0  0  0  0  0  0  0  0  0  0  0  0
  125.9990  123.8780   59.3320 C   0  0  0  0  0  0  0  0  0  0  0  0
  124.6440  124.1650   59.5370 C   0  0  0  0  0  0  0  0  0  0  0  0
  124.1080  124.1740   60.8220 C   0  0  0  0  0  0  0  0  0  0  0  0
  124.9300  123.9000   61.9120 C   0  0  0  0  0  0  0  0  0  0  0  0
  126.2820  123.6190   61.7270 C   0  0  0  0  0  0  0  0  0  0  0  0
  126.8140  123.6120   60.4400 C   0  0  0  0  0  0  0  0  0  0  0  0
  127.5810  124.7700   57.5140 C   0  0  0  0  0  0  0  0  0  0  0  0
  128.1790  125.7390   58.4370 C   0  0  0  0  0  0  0  0  0  0  0  0
  128.6510  126.5040   59.1680 N   0  0  0  0  0  0  0  0  0  0  0  0
  129.4890  131.0900   57.5730 C   0  0  0  0  0  0  0  0  0  0  0  0
  129.7490  131.9250   58.6570 C   0  0  0  0  0  0  0  0  0  0  0  0
  1  2  1  0
  2  3  1  0
  3  4  1  0
  4  5  2  0
  4  6  1  0
  6  7  2  0
  7  8  1  0
  8  9  2  0
  9 10  1  0
 10 11  1  0
 11 12  2  0
 11 13  1  0
 13 14  1  0
 14 15  1  0
 15 16  2  0
 16 17  1  0
 17 18  1  0
 17 19  2  0
 19 20  1  0
 20 21  1  0
 21 22  2  0
 22 23  1  0
 23 24  2  0
 24 25  1  0
 25 26  2  0
 20 27  2  0
 27 28  1  0
 28 29  3  0
  9 30  1  0
 30 31  2  0
 31  6  1  0
 27 15  1  0
 26 21  1  0
M  END
>  <Binding energies>  (22) 
[-8.61]

>  <Ligand effiencies>  (22) 
[-0.2690625]

>  <Interactions>  (22) 
["V-A:PRO:540:CA:4883, V-A:PRO:540:CB:4885, H-A:ALA:541:N:4891, V-A:MET:535:CE:4835, V-A:ASN:362:CB:3175, V-B:PRO:540:N:9855, V-B:TYR:539:CD1:9844, V-B:MET:535:CE:9806, V-B:ILE:538:CA:9831, V-B:ILE:538:CG2:9834, V-B:TYR:539:CE1:9846, V-B:PRO:540:CA:9854, V-B:PRO:540:CB:9856, V-B:PRO:540:CD:9858, V-A:PRO:540:C:4881, V-A:GLU:543:CD:4908, V-B:ASP:366:CG:8184, V-A:ARG:545:CZ:4926, V-B:TYR:539:CZ:9848, H-B:TYR:539:OH:9849, V-B:LEU:363:CA:8156, H-B:TYR:531:OH:9766, V-B:ASN:362:C:8143, V-B:ILE:538:CD1:9836, V-B:ASN:362:CB:8147, H-A:TYR:531:OH:4795, V-B:ILE:538:CB:9833, V-B:ILE:538:C:9829, V-A:ALA:541:C:4888, V-A:ASN:362:CG:3176, V-B:ILE:538:CG1:9835"]

$$$$
3ce_Grossjean_2025
     RDKit          3D

 27 29  0  0  0  0  0  0  0  0999 V2000
  123.4960  129.6260   67.3610 C   0  0  0  0  0  0  0  0  0  0  0  0
  124.4380  129.7110   66.1750 C   0  0  0  0  0  0  0  0  0  0  0  0
  125.8080  129.4710   66.3110 C   0  0  0  0  0  0  0  0  0  0  0  0
  126.6120  129.5570   65.1750 C   0  0  0  0  0  0  0  0  0  0  0  0
  126.0350  129.8780   63.9430 C   0  0  0  0  0  0  0  0  0  0  0  0
  124.6580  130.1170   63.8800 C   0  0  0  0  0  0  0  0  0  0  0  0
  124.1300  130.4160   62.6120 N   0  0  0  0  0  0  0  0  0  0  0  0
  123.9500  131.6310   62.0480 C   0  0  0  0  0  0  0  0  0  0  0  0
  124.2380  132.7060   62.5770 O   0  0  0  0  0  0  0  0  0  0  0  0
  123.3490  131.6270   60.6430 C   0  0  0  0  0  0  0  0  0  0  0  0
  124.3940  130.7260   59.4600 S   0  0  0  0  0  0  0  0  0  0  0  0
  125.9450  131.5940   59.4280 C   0  0  0  0  0  0  0  0  0  0  0  0
  126.1630  132.3740   60.5160 N   0  0  0  0  0  0  0  0  0  0  0  0
  127.3240  133.0640   60.5950 C   0  0  0  0  0  0  0  0  0  0  0  0
  127.5090  133.9050   61.8430 C   0  0  0  0  0  0  0  0  0  0  0  0
  128.2950  133.0140   59.5980 C   0  0  0  0  0  0  0  0  0  0  0  0
  128.0770  132.2350   58.4540 C   0  0  0  0  0  0  0  0  0  0  0  0
  129.1360  132.2330   57.4010 C   0  0  0  0  0  0  0  0  0  0  0  0
  128.9740  132.9990   56.2400 C   0  0  0  0  0  0  0  0  0  0  0  0
  129.9550  132.9990   55.2520 C   0  0  0  0  0  0  0  0  0  0  0  0
  131.1000  132.2250   55.4160 C   0  0  0  0  0  0  0  0  0  0  0  0
  131.2710  131.4490   56.5600 C   0  0  0  0  0  0  0  0  0  0  0  0
  130.2900  131.4530   57.5470 C   0  0  0  0  0  0  0  0  0  0  0  0
  126.8700  131.4970   58.3610 C   0  0  0  0  0  0  0  0  0  0  0  0
  126.5930  130.6520   57.1960 C   0  0  0  0  0  0  0  0  0  0  0  0
  126.3750  129.9850   56.2750 N   0  0  0  0  0  0  0  0  0  0  0  0
  123.8630  130.0270   64.9870 N   0  0  0  0  0  0  0  0  0  0  0  0
  1  2  1  0
  2  3  2  0
  3  4  1  0
  4  5  2  0
  5  6  1  0
  6  7  1  0
  7  8  1  0
  8  9  2  0
  8 10  1  0
 10 11  1  0
 11 12  1  0
 12 13  2  0
 13 14  1  0
 14 15  1  0
 14 16  2  0
 16 17  1  0
 17 18  1  0
 18 19  2  0
 19 20  1  0
 20 21  2  0
 21 22  1  0
 22 23  2  0
 17 24  2  0
 24 25  1  0
 25 26  3  0
  6 27  2  0
 27  2  1  0
 24 12  1  0
 23 18  1  0
M  END
>  <Binding energies>  (23) 
[-9.15]

>  <Ligand effiencies>  (23) 
[-0.3267857142857143]

>  <Interactions>  (23) 
["V-B:ILE:369:CD1:8210, V-B:ILE:369:CG2:8208, V-A:ILE:538:CB:4862, V-A:TYR:539:CE2:4876, V-A:TYR:539:C:4867, V-A:ILE:538:C:4858, V-A:ILE:538:CG2:4863, V-A:ILE:538:CA:4860, V-A:MET:535:CE:4835, V-A:TYR:539:CD2:4874, V-A:ALA:541:CB:4892, H-B:ASP:366:OD2:8186, V-A:TYR:539:CZ:4877, V-B:GLY:454:CA:9020, V-B:ARG:545:CG:9893, V-B:ARG:545:CD:9894, H-B:ARG:545:NE:9895, H-B:GLY:454:N:9021, H-B:ARG:545:NH1:9898, H-B:ARG:545:NH2:9899, V-B:ARG:545:CZ:9897, V-B:ASP:366:CG:8184, H-B:TYR:531:OH:9766, V-B:ASP:366:CB:8183, V-A:TYR:539:CE1:4875, V-B:ASP:366:CA:8181, V-A:TYR:539:CG:4872, V-B:ILE:369:CB:8207, V-A:TYR:539:CD1:4873, H-B:ASP:366:OD1:8185, V-B:ARG:545:CB:9892, V-B:ILE:455:C:9023"]

$$$$
3cj_Grossjean_2025
     RDKit          3D

 25 27  0  0  0  0  0  0  0  0999 V2000
  127.6890  133.9070   61.7940 C   0  0  0  0  0  0  0  0  0  0  0  0
  127.4430  133.0640   60.5590 C   0  0  0  0  0  0  0  0  0  0  0  0
  128.3560  133.0270   59.5080 C   0  0  0  0  0  0  0  0  0  0  0  0
  128.0990  132.2150   58.3940 C   0  0  0  0  0  0  0  0  0  0  0  0
  129.1350  132.1570   57.3220 C   0  0  0  0  0  0  0  0  0  0  0  0
  130.1770  131.2240   57.3910 C   0  0  0  0  0  0  0  0  0  0  0  0
  131.1520  131.1790   56.3970 C   0  0  0  0  0  0  0  0  0  0  0  0
  131.0890  132.0730   55.3320 C   0  0  0  0  0  0  0  0  0  0  0  0
  130.0650  133.0120   55.2540 C   0  0  0  0  0  0  0  0  0  0  0  0
  129.0910  133.0550   56.2500 C   0  0  0  0  0  0  0  0  0  0  0  0
  126.8890  131.4790   58.3620 C   0  0  0  0  0  0  0  0  0  0  0  0
  126.5490  130.6340   57.2120 C   0  0  0  0  0  0  0  0  0  0  0  0
  126.2830  129.9670   56.3050 N   0  0  0  0  0  0  0  0  0  0  0  0
  126.0220  131.5730   59.4740 C   0  0  0  0  0  0  0  0  0  0  0  0
  124.5390  130.5990   59.6220 S   0  0  0  0  0  0  0  0  0  0  0  0
  123.4510  131.5680   60.7150 C   0  0  0  0  0  0  0  0  0  0  0  0
  123.9640  131.5870   62.1590 C   0  0  0  0  0  0  0  0  0  0  0  0
  124.0820  132.6640   62.7470 O   0  0  0  0  0  0  0  0  0  0  0  0
  124.2180  130.3760   62.6980 N   0  0  0  0  0  0  0  0  0  0  0  0
  124.5590  130.1110   64.0150 C   0  0  0  0  0  0  0  0  0  0  0  0
  123.7560  130.0020   65.0510 N   0  0  0  0  0  0  0  0  0  0  0  0
  124.4240  129.7130   66.1510 C   0  0  0  0  0  0  0  0  0  0  0  0
  125.8030  129.5840   66.0190 C   0  0  0  0  0  0  0  0  0  0  0  0
  126.2410  129.8580   64.3590 S   0  0  0  0  0  0  0  0  0  0  0  0
  126.2990  132.3430   60.5560 N   0  0  0  0  0  0  0  0  0  0  0  0
  1  2  1  0
  2  3  2  0
  3  4  1  0
  4  5  1  0
  5  6  2  0
  6  7  1  0
  7  8  2  0
  8  9  1  0
  9 10  2  0
  4 11  2  0
 11 12  1  0
 12 13  3  0
 11 14  1  0
 14 15  1  0
 15 16  1  0
 16 17  1  0
 17 18  2  0
 17 19  1  0
 19 20  1  0
 20 21  2  0
 21 22  1  0
 22 23  2  0
 23 24  1  0
 14 25  2  0
 25  2  1  0
 10  5  1  0
 24 20  1  0
M  END
>  <Binding energies>  (24) 
[-8.06]

>  <Ligand effiencies>  (24) 
[-0.31]

>  <Interactions>  (24) 
["V-B:ILE:369:CD1:8210, V-B:ILE:369:CG2:8208, V-A:ILE:538:CB:4862, V-A:TYR:539:CE2:4876, V-A:TYR:539:C:4867, V-A:ILE:538:C:4858, V-A:ILE:538:CG2:4863, V-A:ILE:538:CA:4860, V-A:MET:535:CE:4835, V-A:TYR:539:CD2:4874, V-A:ALA:541:CB:4892, H-B:ASP:366:OD2:8186, V-A:TYR:539:CZ:4877, V-A:TYR:531:CE2:4793, V-B:ARG:545:CD:9894, H-B:ARG:545:NE:9895, H-B:GLY:454:N:9021, H-B:ARG:545:NH1:9898, H-B:ARG:545:NH2:9899, V-B:ARG:545:CZ:9897, V-B:ASP:366:CG:8184, H-B:TYR:531:OH:9766, V-B:ASP:366:CB:8183, V-A:TYR:539:CE1:4875, V-B:ASP:366:CA:8181, V-A:TYR:539:CG:4872, V-B:ILE:369:CB:8207, V-A:TYR:539:CD1:4873, H-B:ASP:366:OD1:8185"]

$$$$
4ba_Grossjean_2025
     RDKit          3D

 28 30  0  0  0  0  0  0  0  0999 V2000
  124.4390  124.1060   57.3550 C   0  0  0  0  0  0  0  0  0  0  0  0
  124.9070  123.3060   56.1240 C   0  0  0  0  0  0  0  0  0  0  0  0
  126.3250  122.7100   56.2320 C   0  0  0  0  0  0  0  0  0  0  0  0
  126.7290  121.9430   55.3550 O   0  0  0  0  0  0  0  0  0  0  0  0
  127.1600  123.1040   57.4150 C   0  0  0  0  0  0  0  0  0  0  0  0
  127.5260  122.1300   58.3530 C   0  0  0  0  0  0  0  0  0  0  0  0
  128.2990  122.4670   59.4610 C   0  0  0  0  0  0  0  0  0  0  0  0
  128.7240  123.7820   59.6530 C   0  0  0  0  0  0  0  0  0  0  0  0
  129.4920  124.0140   60.8100 N   0  0  0  0  0  0  0  0  0  0  0  0
  129.9290  123.1460   61.7550 C   0  0  0  0  0  0  0  0  0  0  0  0
  129.6650  121.9430   61.7640 O   0  0  0  0  0  0  0  0  0  0  0  0
  130.7420  123.7380   62.8190 C   0  0  0  0  0  0  0  0  0  0  0  0
  132.4880  123.4960   62.8390 S   0  0  0  0  0  0  0  0  0  0  0  0
  132.6430  124.4020   64.3250 C   0  0  0  0  0  0  0  0  0  0  0  0
  133.8280  124.5880   64.9040 N   0  0  0  0  0  0  0  0  0  0  0  0
  133.8230  125.3050   66.0510 C   0  0  0  0  0  0  0  0  0  0  0  0
  135.1830  125.4970   66.6990 C   0  0  0  0  0  0  0  0  0  0  0  0
  132.6730  125.8390   66.6250 C   0  0  0  0  0  0  0  0  0  0  0  0
  131.4200  125.6470   66.0200 C   0  0  0  0  0  0  0  0  0  0  0  0
  130.1830  126.2560   66.6870 C   0  0  0  0  0  0  0  0  0  0  0  0
  129.5100  127.0830   65.8840 F   0  0  0  0  0  0  0  0  0  0  0  0
  129.3440  125.2870   67.0560 F   0  0  0  0  0  0  0  0  0  0  0  0
  130.5490  126.9550   67.7630 F   0  0  0  0  0  0  0  0  0  0  0  0
  131.3910  124.8900   64.8110 C   0  0  0  0  0  0  0  0  0  0  0  0
  130.3210  124.4850   63.9320 C   0  0  0  0  0  0  0  0  0  0  0  0
  129.0080  124.8070   64.1670 N   0  0  0  0  0  0  0  0  0  0  0  0
  128.3550  124.7650   58.7220 C   0  0  0  0  0  0  0  0  0  0  0  0
  127.5820  124.4260   57.6150 C   0  0  0  0  0  0  0  0  0  0  0  0
  1  2  1  0
  2  3  1  0
  3  4  2  0
  3  5  1  0
  5  6  2  0
  6  7  1  0
  7  8  2  0
  8  9  1  0
  9 10  1  0
 10 11  2  0
 10 12  1  0
 12 13  1  0
 13 14  1  0
 14 15  2  0
 15 16  1  0
 16 17  1  0
 16 18  2  0
 18 19  1  0
 19 20  1  0
 20 21  1  0
 20 22  1  0
 20 23  1  0
 19 24  2  0
 24 25  1  0
 25 26  1  0
  8 27  1  0
 27 28  2  0
 28  5  1  0
 25 12  2  0
 24 14  1  0
M  END
>  <Binding energies>  (25) 
[-7.47]

>  <Ligand effiencies>  (25) 
[-0.24096774193548387]

>  <Interactions>  (25) 
["V-B:TYR:539:CD2:9845, V-B:PRO:540:N:9855, V-B:TYR:539:CE2:9847, V-B:MET:535:CE:9806, V-B:TYR:539:CG:9843, V-B:PRO:540:CA:9854, V-B:TYR:539:C:9838, V-B:PRO:540:CB:9856, V-B:LEU:363:CD1:8160, V-A:GLU:543:CD:4908, V-A:HIS:456:CE1:4069, H-B:GLU:543:OE1:9880, V-A:ARG:545:CZ:4926, V-B:GLU:543:CD:9879, H-B:GLU:543:OE2:9881, H-B:TYR:539:N:9841, V-B:TYR:531:CE2:9764, H-A:TYR:484:OH:4347, H-A:GLY:454:N:4049, V-B:GLU:543:CG:9878, V-B:GLU:543:CB:9877, V-A:GLY:453:CA:4043, V-A:GLY:453:C:4041, V-A:ARG:545:CG:4922, V-A:ARG:545:CD:4923, V-A:ILE:455:C:4051"]

$$$$
4bb_Grossjean_2025
     RDKit          3D

 27 29  0  0  0  0  0  0  0  0999 V2000
  133.4550  125.5310   67.0420 C   0  0  0  0  0  0  0  0  0  0  0  0
  133.8120  125.3570   65.5640 C   0  0  0  0  0  0  0  0  0  0  0  0
  134.9900  125.4940   65.2310 O   0  0  0  0  0  0  0  0  0  0  0  0
  132.7080  125.0390   64.5990 C   0  0  0  0  0  0  0  0  0  0  0  0
  133.0230  124.7500   63.2660 C   0  0  0  0  0  0  0  0  0  0  0  0
  132.0180  124.4530   62.3500 C   0  0  0  0  0  0  0  0  0  0  0  0
  130.6810  124.4300   62.7510 C   0  0  0  0  0  0  0  0  0  0  0  0
  129.7460  124.1210   61.7430 N   0  0  0  0  0  0  0  0  0  0  0  0
  128.5080  123.5780   61.8410 C   0  0  0  0  0  0  0  0  0  0  0  0
  127.9890  123.2230   62.9000 O   0  0  0  0  0  0  0  0  0  0  0  0
  127.8020  123.3990   60.5690 C   0  0  0  0  0  0  0  0  0  0  0  0
  128.4570  122.3260   59.3340 S   0  0  0  0  0  0  0  0  0  0  0  0
  127.1450  122.7040   58.2430 C   0  0  0  0  0  0  0  0  0  0  0  0
  127.0660  122.1520   57.0330 N   0  0  0  0  0  0  0  0  0  0  0  0
  126.0050  122.5230   56.2790 C   0  0  0  0  0  0  0  0  0  0  0  0
  125.9340  121.8810   54.9060 C   0  0  0  0  0  0  0  0  0  0  0  0
  125.0320  123.4240   56.7020 C   0  0  0  0  0  0  0  0  0  0  0  0
  125.1100  124.0090   57.9750 C   0  0  0  0  0  0  0  0  0  0  0  0
  124.0150  124.9950   58.3960 C   0  0  0  0  0  0  0  0  0  0  0  0
  123.5510  124.7650   59.6270 F   0  0  0  0  0  0  0  0  0  0  0  0
  124.4960  126.2380   58.3760 F   0  0  0  0  0  0  0  0  0  0  0  0
  122.9830  124.9090   57.5580 F   0  0  0  0  0  0  0  0  0  0  0  0
  126.2170  123.6390   58.7970 C   0  0  0  0  0  0  0  0  0  0  0  0
  126.6230  124.0210   60.1260 C   0  0  0  0  0  0  0  0  0  0  0  0
  125.9110  124.9100   60.8910 N   0  0  0  0  0  0  0  0  0  0  0  0
  130.3570  124.7260   64.0840 C   0  0  0  0  0  0  0  0  0  0  0  0
  131.3640  125.0250   64.9980 C   0  0  0  0  0  0  0  0  0  0  0  0
  1  2  1  0
  2  3  2  0
  2  4  1  0
  4  5  2  0
  5  6  1  0
  6  7  2  0
  7  8  1  0
  8  9  1  0
  9 10  2  0
  9 11  1  0
 11 12  1  0
 12 13  1  0
 13 14  2  0
 14 15  1  0
 15 16  1  0
 15 17  2  0
 17 18  1  0
 18 19  1  0
 19 20  1  0
 19 21  1  0
 19 22  1  0
 18 23  2  0
 23 24  1  0
 24 25  1  0
  7 26  1  0
 26 27  2  0
 27  4  1  0
 24 11  2  0
 23 13  1  0
M  END
>  <Binding energies>  (26) 
[-7.87]

>  <Ligand effiencies>  (26) 
[-0.26233333333333336]

>  <Interactions>  (26) 
["V-B:TYR:539:CD2:9845, V-B:PRO:540:N:9855, V-B:TYR:539:CD1:9844, V-B:TYR:539:CE2:9847, V-B:MET:535:CE:9806, V-B:ILE:538:CA:9831, V-B:ILE:538:CG2:9834, V-B:PRO:540:CA:9854, V-B:TYR:539:C:9838, V-B:PRO:540:CB:9856, H-B:ASP:366:OD2:8186, V-B:PRO:540:CD:9858, V-B:LEU:363:CD1:8160, V-B:ALA:541:CB:9863, H-B:ALA:541:N:9862, V-A:HIS:456:CE1:4069, V-B:ASP:366:CG:8184, V-A:ARG:545:CZ:4926, H-B:GLU:543:OE2:9881, H-B:TYR:539:N:9841, V-B:LEU:363:CA:8156, V-B:ASN:362:C:8143, V-B:TYR:531:CZ:9765, V-B:TYR:531:CE2:9764, V-B:ASP:366:CB:8183, V-B:LEU:363:CB:8158, V-B:ILE:538:CD1:9836, H-A:ARG:545:NH1:4927, H-A:GLY:454:N:4049, V-B:ILE:538:CB:9833, V-B:ILE:538:C:9829, V-A:ARG:545:CG:4922, V-A:ARG:545:CD:4923, H-A:ARG:545:NE:4924, V-B:LEU:363:C:8154, V-B:LEU:363:CG:8159"]

$$$$
4bd_Grossjean_2025
     RDKit          3D

 24 26  0  0  0  0  0  0  0  0999 V2000
  134.4010  130.3750   57.6300 C   0  0  0  0  0  0  0  0  0  0  0  0
  133.0510  131.0220   57.8840 C   0  0  0  0  0  0  0  0  0  0  0  0
  132.2110  131.3680   56.8290 C   0  0  0  0  0  0  0  0  0  0  0  0
  130.9660  131.9680   57.0780 C   0  0  0  0  0  0  0  0  0  0  0  0
  130.0770  132.3340   55.8850 C   0  0  0  0  0  0  0  0  0  0  0  0
  129.7060  133.6170   55.8850 F   0  0  0  0  0  0  0  0  0  0  0  0
  130.7330  132.1080   54.7470 F   0  0  0  0  0  0  0  0  0  0  0  0
  128.9660  131.5980   55.9080 F   0  0  0  0  0  0  0  0  0  0  0  0
  130.6140  132.1980   58.4410 C   0  0  0  0  0  0  0  0  0  0  0  0
  129.4510  132.7750   59.0710 C   0  0  0  0  0  0  0  0  0  0  0  0
  128.3790  133.2400   58.3560 N   0  0  0  0  0  0  0  0  0  0  0  0
  129.5200  132.8180   60.4740 C   0  0  0  0  0  0  0  0  0  0  0  0
  128.5340  133.3480   61.4200 C   0  0  0  0  0  0  0  0  0  0  0  0
  128.3790  132.8250   62.5250 O   0  0  0  0  0  0  0  0  0  0  0  0
  127.8430  134.4340   60.9920 N   0  0  0  0  0  0  0  0  0  0  0  0
  126.8130  135.1470   61.6320 C   0  0  0  0  0  0  0  0  0  0  0  0
  127.1750  136.3770   62.1900 C   0  0  0  0  0  0  0  0  0  0  0  0
  126.2240  137.1630   62.8360 C   0  0  0  0  0  0  0  0  0  0  0  0
  124.9050  136.7230   62.9170 C   0  0  0  0  0  0  0  0  0  0  0  0
  124.5290  135.5070   62.3530 C   0  0  0  0  0  0  0  0  0  0  0  0
  125.4770  134.7180   61.7070 C   0  0  0  0  0  0  0  0  0  0  0  0
  131.0340  132.1320   61.0590 S   0  0  0  0  0  0  0  0  0  0  0  0
  131.5660  131.7970   59.4280 C   0  0  0  0  0  0  0  0  0  0  0  0
  132.7460  131.2270   59.1860 N   0  0  0  0  0  0  0  0  0  0  0  0
  1  2  1  0
  2  3  2  0
  3  4  1  0
  4  5  1  0
  5  6  1  0
  5  7  1  0
  5  8  1  0
  4  9  2  0
  9 10  1  0
 10 11  1  0
 10 12  2  0
 12 13  1  0
 13 14  2  0
 13 15  1  0
 15 16  1  0
 16 17  2  0
 17 18  1  0
 18 19  2  0
 19 20  1  0
 20 21  2  0
 12 22  1  0
 22 23  1  0
 23 24  2  0
 24  2  1  0
 23  9  1  0
 21 16  1  0
M  END
>  <Binding energies>  (27) 
[-6.63]

>  <Ligand effiencies>  (27) 
[-0.24555555555555555]

>  <Interactions>  (27) 
["V-A:LEU:363:CD1:3188, V-B:TRP:381:CH2:8343, V-A:ILE:538:CB:4862, V-A:TYR:539:CE2:4876, V-B:TRP:381:CZ2:8341, V-A:TYR:539:C:4867, V-A:ILE:538:C:4858, V-A:PRO:540:CA:4883, V-B:SER:385:CB:8380, V-A:ILE:538:CG2:4863, V-A:PRO:540:CB:4885, V-B:LEU:475:CD1:9229, V-A:ILE:538:CA:4860, V-A:PRO:540:N:4884, V-B:PRO:482:CB:9297, V-A:MET:535:CE:4835, V-A:TYR:539:CD2:4874, V-B:TRP:381:CE2:8338, V-A:TYR:539:CA:4869, V-A:ALA:541:CB:4892, V-B:LEU:475:CB:9227, H-A:TYR:539:O:4868, V-B:PRO:482:CG:9298, V-A:PRO:540:C:4881, V-A:TYR:539:CZ:4877, V-A:TYR:531:CE2:4793, V-A:MET:535:CG:4833, V-A:ASP:366:CB:3211, V-A:ASP:366:CG:3212, V-A:TYR:539:CE1:4875, V-A:LEU:363:CA:3184, V-A:TYR:539:CG:4872, V-A:MET:535:CB:4832, V-A:LEU:363:CB:3186, V-A:TYR:539:CD1:4873, V-A:LEU:363:CG:3187, V-A:LEU:363:C:3182"]

$$$$
4be_Grossjean_2025
     RDKit          3D

 25 27  0  0  0  0  0  0  0  0999 V2000
  129.8160  124.4070   66.8800 C   0  0  0  0  0  0  0  0  0  0  0  0
  130.4540  124.4460   65.5040 C   0  0  0  0  0  0  0  0  0  0  0  0
  131.8140  124.7170   65.3360 C   0  0  0  0  0  0  0  0  0  0  0  0
  132.3320  124.7400   64.0410 C   0  0  0  0  0  0  0  0  0  0  0  0
  131.4860  124.4940   62.9560 C   0  0  0  0  0  0  0  0  0  0  0  0
  130.1340  124.2240   63.1950 C   0  0  0  0  0  0  0  0  0  0  0  0
  129.3360  123.9920   62.0610 N   0  0  0  0  0  0  0  0  0  0  0  0
  128.1380  123.3610   61.9760 C   0  0  0  0  0  0  0  0  0  0  0  0
  127.5470  122.8790   62.9450 O   0  0  0  0  0  0  0  0  0  0  0  0
  127.5740  123.2590   60.6270 C   0  0  0  0  0  0  0  0  0  0  0  0
  128.4090  122.3220   59.3890 S   0  0  0  0  0  0  0  0  0  0  0  0
  127.1910  122.7240   58.2010 C   0  0  0  0  0  0  0  0  0  0  0  0
  127.2640  122.2700   56.9510 N   0  0  0  0  0  0  0  0  0  0  0  0
  126.2610  122.6470   56.1230 C   0  0  0  0  0  0  0  0  0  0  0  0
  126.3640  122.1220   54.7030 C   0  0  0  0  0  0  0  0  0  0  0  0
  125.1980  123.4570   56.5130 C   0  0  0  0  0  0  0  0  0  0  0  0
  125.1160  123.9370   57.8290 C   0  0  0  0  0  0  0  0  0  0  0  0
  123.9250  124.8220   58.2130 C   0  0  0  0  0  0  0  0  0  0  0  0
  124.2610  126.1040   58.3830 F   0  0  0  0  0  0  0  0  0  0  0  0
  123.0020  124.7780   57.2530 F   0  0  0  0  0  0  0  0  0  0  0  0
  123.3930  124.3930   59.3570 F   0  0  0  0  0  0  0  0  0  0  0  0
  126.1590  123.5620   58.7270 C   0  0  0  0  0  0  0  0  0  0  0  0
  126.4140  123.8590   60.1160 C   0  0  0  0  0  0  0  0  0  0  0  0
  125.5860  124.6530   60.8670 N   0  0  0  0  0  0  0  0  0  0  0  0
  129.6200  124.2050   64.4600 N   0  0  0  0  0  0  0  0  0  0  0  0
  1  2  1  0
  2  3  2  0
  3  4  1  0
  4  5  2  0
  5  6  1  0
  6  7  1  0
  7  8  1  0
  8  9  2  0
  8 10  1  0
 10 11  1  0
 11 12  1  0
 12 13  2  0
 13 14  1  0
 14 15  1  0
 14 16  2  0
 16 17  1  0
 17 18  1  0
 18 19  1  0
 18 20  1  0
 18 21  1  0
 17 22  2  0
 22 23  1  0
 23 24  1  0
  6 25  2  0
 25  2  1  0
 23 10  2  0
 22 12  1  0
M  END
>  <Binding energies>  (28) 
[-6.83]

>  <Ligand effiencies>  (28) 
[-0.24392857142857144]

>  <Interactions>  (28) 
["V-B:TYR:539:CD2:9845, V-B:PRO:540:N:9855, V-B:TYR:539:CD1:9844, V-B:TYR:539:CE2:9847, V-B:MET:535:CE:9806, V-B:ILE:538:CA:9831, V-B:TYR:539:CE1:9846, V-B:PRO:540:CA:9854, V-B:TYR:539:C:9838, V-B:PRO:540:CB:9856, H-B:ASP:366:OD2:8186, V-B:LEU:363:CD1:8160, V-B:ALA:541:CB:9863, H-B:ALA:541:N:9862, V-A:HIS:456:CE1:4069, V-B:ASP:366:CG:8184, V-B:GLU:543:CD:9879, H-B:GLU:543:OE2:9881, H-B:TYR:539:N:9841, V-B:LEU:363:CA:8156, V-B:ASN:362:C:8143, V-B:TYR:531:CZ:9765, V-B:TYR:531:CE2:9764, V-B:ASP:366:CB:8183, V-B:LEU:363:CB:8158, V-B:ILE:538:CD1:9836, V-A:TYR:484:CZ:4346, V-B:GLU:543:CG:9878, V-B:GLU:543:CB:9877, V-B:ILE:538:C:9829, V-B:LEU:363:C:8154, V-A:TYR:484:CE1:4344, V-B:LEU:363:CG:8159, V-B:GLU:543:CA:9875, V-B:TYR:531:CD2:9762"]

$$$$
4bg_Grossjean_2025
     RDKit          3D

 25 27  0  0  0  0  0  0  0  0999 V2000
  126.4020  122.1550   54.7320 C   0  0  0  0  0  0  0  0  0  0  0  0
  126.3110  122.6600   56.1600 C   0  0  0  0  0  0  0  0  0  0  0  0
  125.3010  123.5350   56.5480 C   0  0  0  0  0  0  0  0  0  0  0  0
  125.2310  124.0000   57.8720 C   0  0  0  0  0  0  0  0  0  0  0  0
  124.1010  124.9620   58.2520 C   0  0  0  0  0  0  0  0  0  0  0  0
  123.5140  124.6460   59.4090 F   0  0  0  0  0  0  0  0  0  0  0  0
  124.5850  126.1980   58.3740 F   0  0  0  0  0  0  0  0  0  0  0  0
  123.1590  124.9480   57.3100 F   0  0  0  0  0  0  0  0  0  0  0  0
  126.2300  123.5350   58.7780 C   0  0  0  0  0  0  0  0  0  0  0  0
  126.4830  123.7910   60.1750 C   0  0  0  0  0  0  0  0  0  0  0  0
  125.7060  124.6340   60.9290 N   0  0  0  0  0  0  0  0  0  0  0  0
  127.5850  123.0940   60.6940 C   0  0  0  0  0  0  0  0  0  0  0  0
  128.1390  123.1400   62.0470 C   0  0  0  0  0  0  0  0  0  0  0  0
  127.4250  123.3610   63.0260 O   0  0  0  0  0  0  0  0  0  0  0  0
  129.4600  122.8870   62.1530 N   0  0  0  0  0  0  0  0  0  0  0  0
  130.2280  122.8940   63.3980 C   0  0  0  0  0  0  0  0  0  0  0  0
  131.5450  123.6510   63.2980 C   0  0  0  0  0  0  0  0  0  0  0  0
  132.2480  123.6790   62.0900 C   0  0  0  0  0  0  0  0  0  0  0  0
  133.4330  124.4040   61.9910 C   0  0  0  0  0  0  0  0  0  0  0  0
  133.9040  125.1100   63.0960 C   0  0  0  0  0  0  0  0  0  0  0  0
  133.2010  125.1000   64.2980 C   0  0  0  0  0  0  0  0  0  0  0  0
  132.0160  124.3740   64.3980 C   0  0  0  0  0  0  0  0  0  0  0  0
  128.3730  122.1250   59.4520 S   0  0  0  0  0  0  0  0  0  0  0  0
  127.2070  122.6340   58.2540 C   0  0  0  0  0  0  0  0  0  0  0  0
  127.2690  122.1980   56.9960 N   0  0  0  0  0  0  0  0  0  0  0  0
  1  2  1  0
  2  3  2  0
  3  4  1  0
  4  5  1  0
  5  6  1  0
  5  7  1  0
  5  8  1  0
  4  9  2  0
  9 10  1  0
 10 11  1  0
 10 12  2  0
 12 13  1  0
 13 14  2  0
 13 15  1  0
 15 16  1  0
 16 17  1  0
 17 18  2  0
 18 19  1  0
 19 20  2  0
 20 21  1  0
 21 22  2  0
 12 23  1  0
 23 24  1  0
 24 25  2  0
 25  2  1  0
 24  9  1  0
 22 17  1  0
M  END
>  <Binding energies>  (29) 
[-6.93]

>  <Ligand effiencies>  (29) 
[-0.2475]

>  <Interactions>  (29) 
["V-B:TYR:539:CD2:9845, V-B:PRO:540:N:9855, V-B:TYR:539:CD1:9844, V-B:TYR:539:CE2:9847, V-B:MET:535:CE:9806, V-B:ILE:538:CA:9831, V-B:TYR:539:CE1:9846, V-B:PRO:540:CA:9854, V-B:TYR:539:C:9838, V-B:PRO:540:CB:9856, H-B:ASP:366:OD2:8186, V-B:LEU:363:CD1:8160, V-B:ALA:541:CB:9863, H-B:ALA:541:N:9862, V-B:ASP:366:CG:8184, V-A:ARG:545:CZ:4926, H-B:GLU:543:OE2:9881, H-B:TYR:539:N:9841, V-B:LEU:363:CA:8156, V-B:ASN:362:C:8143, V-B:TYR:531:CZ:9765, V-B:TYR:531:CE2:9764, V-B:ASP:366:CB:8183, V-B:LEU:363:CB:8158, V-A:ILE:369:CD1:3238, V-B:ILE:538:CD1:9836, V-B:ILE:538:C:9829, V-A:GLY:453:CA:4043, V-B:LEU:363:C:8154, V-B:LEU:363:CG:8159, V-B:TYR:531:CD2:9762"]

$$$$
4ca_Grossjean_2025
     RDKit          3D

 34 37  0  0  0  0  0  0  0  0999 V2000
  128.1570  123.2600   53.5140 C   0  0  0  0  0  0  0  0  0  0  0  0
  126.8430  122.5040   53.7340 C   0  0  0  0  0  0  0  0  0  0  0  0
  126.8120  121.9840   55.0580 O   0  0  0  0  0  0  0  0  0  0  0  0
  125.7280  122.1600   55.8560 C   0  0  0  0  0  0  0  0  0  0  0  0
  124.7700  121.3800   55.8830 O   0  0  0  0  0  0  0  0  0  0  0  0
  125.8100  123.3960   56.7030 C   0  0  0  0  0  0  0  0  0  0  0  0
  126.6180  124.4610   56.2840 C   0  0  0  0  0  0  0  0  0  0  0  0
  126.7110  125.6220   57.0470 C   0  0  0  0  0  0  0  0  0  0  0  0
  126.0060  125.7400   58.2450 C   0  0  0  0  0  0  0  0  0  0  0  0
  126.1660  126.9600   58.9310 N   0  0  0  0  0  0  0  0  0  0  0  0
  127.2960  127.6070   59.3090 C   0  0  0  0  0  0  0  0  0  0  0  0
  128.4350  127.2180   59.0490 O   0  0  0  0  0  0  0  0  0  0  0  0
  127.0850  128.8490   60.0550 C   0  0  0  0  0  0  0  0  0  0  0  0
  127.5390  130.3970   59.3450 S   0  0  0  0  0  0  0  0  0  0  0  0
  126.9550  131.2620   60.7470 C   0  0  0  0  0  0  0  0  0  0  0  0
  127.0210  132.5890   60.8210 N   0  0  0  0  0  0  0  0  0  0  0  0
  126.5300  133.1740   61.9430 C   0  0  0  0  0  0  0  0  0  0  0  0
  126.6100  134.6730   61.9920 C   0  0  0  0  0  0  0  0  0  0  0  0
  125.5640  135.4320   62.5400 C   0  0  0  0  0  0  0  0  0  0  0  0
  125.6300  136.8220   62.5830 C   0  0  0  0  0  0  0  0  0  0  0  0
  126.7480  137.4760   62.0760 C   0  0  0  0  0  0  0  0  0  0  0  0
  127.7980  136.7490   61.5260 C   0  0  0  0  0  0  0  0  0  0  0  0
  127.7280  135.3590   61.4840 C   0  0  0  0  0  0  0  0  0  0  0  0
  125.9940  132.4230   62.9950 C   0  0  0  0  0  0  0  0  0  0  0  0
  125.9240  131.0230   62.9290 C   0  0  0  0  0  0  0  0  0  0  0  0
  125.3210  130.2620   64.1160 C   0  0  0  0  0  0  0  0  0  0  0  0
  126.1140  129.2890   64.5700 F   0  0  0  0  0  0  0  0  0  0  0  0
  125.1030  131.1020   65.1270 F   0  0  0  0  0  0  0  0  0  0  0  0
  124.1680  129.7000   63.7540 F   0  0  0  0  0  0  0  0  0  0  0  0
  126.4210  130.4000   61.7490 C   0  0  0  0  0  0  0  0  0  0  0  0
  126.5060  129.0240   61.3240 C   0  0  0  0  0  0  0  0  0  0  0  0
  126.0620  127.9810   62.0960 N   0  0  0  0  0  0  0  0  0  0  0  0
  125.1900  124.6820   58.6700 C   0  0  0  0  0  0  0  0  0  0  0  0
  125.0960  123.5220   57.9050 C   0  0  0  0  0  0  0  0  0  0  0  0
  1  2  1  0
  2  3  1  0
  3  4  1  0
  4  5  2  0
  4  6  1  0
  6  7  2  0
  7  8  1  0
  8  9  2  0
  9 10  1  0
 10 11  1  0
 11 12  2  0
 11 13  1  0
 13 14  1  0
 14 15  1  0
 15 16  2  0
 16 17  1  0
 17 18  1  0
 18 19  2  0
 19 20  1  0
 20 21  2  0
 21 22  1  0
 22 23  2  0
 17 24  2  0
 24 25  1  0
 25 26  1  0
 26 27  1  0
 26 28  1  0
 26 29  1  0
 25 30  2  0
 30 31  1  0
 31 32  1  0
  9 33  1  0
 33 34  2  0
 34  6  1  0
 31 13  2  0
 30 15  1  0
 23 18  1  0
M  END
>  <Binding energies>  (30) 
[-8.37]

>  <Ligand effiencies>  (30) 
[-0.22621621621621618]

>  <Interactions>  (30) 
["V-B:TRP:381:CH2:8343, V-B:TRP:381:CZ2:8341, V-A:TYR:539:C:4867, V-B:LEU:475:CD1:9229, V-B:PRO:482:CB:9297, V-A:TYR:539:CD2:4874, V-B:TRP:381:CE2:8338, V-A:ALA:541:CB:4892, V-B:PRO:482:CG:9298, V-B:PRO:540:N:9855, V-B:TYR:539:CD1:9844, V-B:MET:535:CE:9806, V-B:ILE:538:CA:9831, V-B:ILE:538:CG2:9834, V-B:TYR:539:CE1:9846, V-B:PRO:540:CA:9854, V-B:PRO:540:CB:9856, H-B:ASP:366:OD2:8186, V-B:PRO:540:CD:9858, V-B:LEU:363:CD1:8160, V-B:GLY:454:CA:9020, V-B:ARG:545:CZ:9897, V-B:ASP:366:CG:8184, H-B:GLU:543:OE1:9880, V-B:GLU:543:CD:9879, H-B:GLU:543:OE2:9881, V-B:TYR:539:CZ:9848, H-B:TYR:539:N:9841, H-B:TYR:531:OH:9766, V-B:MET:535:CG:9804, V-B:ASP:366:CB:8183, V-B:VAL:537:C:9821, V-B:ILE:538:CD1:9836, V-B:MET:535:CB:9803, V-B:TRP:381:CZ3:8342, V-B:TRP:381:CD2:8336, H-B:ASP:366:OD1:8185"]

$$$$
4cb_Grossjean_2025
     RDKit          3D

 33 36  0  0  0  0  0  0  0  0999 V2000
  127.1070  122.5080   53.9330 C   0  0  0  0  0  0  0  0  0  0  0  0
  126.8240  121.8390   55.1540 O   0  0  0  0  0  0  0  0  0  0  0  0
  125.6830  122.0950   55.8430 C   0  0  0  0  0  0  0  0  0  0  0  0
  124.6730  121.3880   55.7740 O   0  0  0  0  0  0  0  0  0  0  0  0
  125.7700  123.3260   56.6990 C   0  0  0  0  0  0  0  0  0  0  0  0
  126.8020  124.2470   56.4710 C   0  0  0  0  0  0  0  0  0  0  0  0
  126.9050  125.4010   57.2420 C   0  0  0  0  0  0  0  0  0  0  0  0
  125.9860  125.6550   58.2600 C   0  0  0  0  0  0  0  0  0  0  0  0
  126.1750  126.8580   58.9670 N   0  0  0  0  0  0  0  0  0  0  0  0
  127.3160  127.4320   59.4230 C   0  0  0  0  0  0  0  0  0  0  0  0
  128.4440  126.9760   59.2320 O   0  0  0  0  0  0  0  0  0  0  0  0
  127.1330  128.6820   60.1670 C   0  0  0  0  0  0  0  0  0  0  0  0
  127.4790  130.2290   59.3980 S   0  0  0  0  0  0  0  0  0  0  0  0
  126.9930  131.1020   60.8330 C   0  0  0  0  0  0  0  0  0  0  0  0
  127.0290  132.4310   60.8830 N   0  0  0  0  0  0  0  0  0  0  0  0
  126.6220  133.0210   62.0370 C   0  0  0  0  0  0  0  0  0  0  0  0
  126.6680  134.5210   62.0620 C   0  0  0  0  0  0  0  0  0  0  0  0
  125.5560  135.2670   62.4860 C   0  0  0  0  0  0  0  0  0  0  0  0
  125.5900  136.6590   62.5070 C   0  0  0  0  0  0  0  0  0  0  0  0
  126.7420  137.3270   62.1040 C   0  0  0  0  0  0  0  0  0  0  0  0
  127.8570  136.6130   61.6760 C   0  0  0  0  0  0  0  0  0  0  0  0
  127.8170  135.2220   61.6550 C   0  0  0  0  0  0  0  0  0  0  0  0
  126.2020  132.2710   63.1420 C   0  0  0  0  0  0  0  0  0  0  0  0
  126.1640  130.8700   63.1000 C   0  0  0  0  0  0  0  0  0  0  0  0
  125.6920  130.1100   64.3460 C   0  0  0  0  0  0  0  0  0  0  0  0
  124.4970  129.5370   64.1870 F   0  0  0  0  0  0  0  0  0  0  0  0
  126.5620  129.1440   64.6410 F   0  0  0  0  0  0  0  0  0  0  0  0
  125.5980  130.9480   65.3780 F   0  0  0  0  0  0  0  0  0  0  0  0
  126.5740  130.2410   61.8890 C   0  0  0  0  0  0  0  0  0  0  0  0
  126.6590  128.8610   61.4770 C   0  0  0  0  0  0  0  0  0  0  0  0
  126.3090  127.8200   62.2980 N   0  0  0  0  0  0  0  0  0  0  0  0
  124.9480  124.7410   58.4940 C   0  0  0  0  0  0  0  0  0  0  0  0
  124.8450  123.5880   57.7200 C   0  0  0  0  0  0  0  0  0  0  0  0
  1  2  1  0
  2  3  1  0
  3  4  2  0
  3  5  1  0
  5  6  2  0
  6  7  1  0
  7  8  2  0
  8  9  1  0
  9 10  1  0
 10 11  2  0
 10 12  1  0
 12 13  1  0
 13 14  1  0
 14 15  2  0
 15 16  1  0
 16 17  1  0
 17 18  2  0
 18 19  1  0
 19 20  2  0
 20 21  1  0
 21 22  2  0
 16 23  2  0
 23 24  1  0
 24 25  1  0
 25 26  1  0
 25 27  1  0
 25 28  1  0
 24 29  2  0
 29 30  1  0
 30 31  1  0
  8 32  1  0
 32 33  2  0
 33  5  1  0
 30 12  2  0
 29 14  1  0
 22 17  1  0
M  END
>  <Binding energies>  (31) 
[-8.55]

>  <Ligand effiencies>  (31) 
[-0.23750000000000002]

>  <Interactions>  (31) 
["V-B:TRP:381:CH2:8343, V-B:TRP:381:CZ2:8341, V-B:LEU:475:CD1:9229, V-B:PRO:482:CB:9297, V-A:TYR:539:CD2:4874, V-B:TRP:381:CE2:8338, V-A:ALA:541:CB:4892, V-B:PRO:482:CG:9298, V-B:PRO:540:N:9855, V-B:TYR:539:CD1:9844, V-B:MET:535:CE:9806, V-B:ILE:538:CA:9831, V-B:ILE:538:CG2:9834, V-B:TYR:539:CE1:9846, V-B:PRO:540:CA:9854, V-B:PRO:540:CB:9856, H-B:ASP:366:OD2:8186, V-B:PRO:540:CD:9858, V-B:LEU:363:CD1:8160, V-B:ARG:545:CZ:9897, V-B:ASP:366:CG:8184, H-B:GLU:543:OE1:9880, V-B:GLU:543:CD:9879, H-B:GLU:543:OE2:9881, H-B:TYR:539:N:9841, H-B:TYR:531:OH:9766, V-B:ASP:366:CB:8183, V-B:VAL:537:C:9821, V-B:ILE:538:CD1:9836, V-B:MET:535:CB:9803, V-B:TRP:381:CZ3:8342, H-B:ASP:366:OD1:8185"]

$$$$
4cc_Grossjean_2025
     RDKit          3D

 31 34  0  0  0  0  0  0  0  0999 V2000
  126.5450  122.1190   54.3930 C   0  0  0  0  0  0  0  0  0  0  0  0
  126.0000  122.0130   55.7040 O   0  0  0  0  0  0  0  0  0  0  0  0
  125.9590  123.1340   56.5100 C   0  0  0  0  0  0  0  0  0  0  0  0
  126.9620  124.0810   56.3100 C   0  0  0  0  0  0  0  0  0  0  0  0
  127.0010  125.2450   57.0740 C   0  0  0  0  0  0  0  0  0  0  0  0
  126.0390  125.4710   58.0600 C   0  0  0  0  0  0  0  0  0  0  0  0
  126.1500  126.6810   58.7700 N   0  0  0  0  0  0  0  0  0  0  0  0
  127.2640  127.3550   59.1460 C   0  0  0  0  0  0  0  0  0  0  0  0
  128.4100  126.9990   58.8680 O   0  0  0  0  0  0  0  0  0  0  0  0
  127.0290  128.5730   59.9270 C   0  0  0  0  0  0  0  0  0  0  0  0
  127.2740  130.1580   59.1940 S   0  0  0  0  0  0  0  0  0  0  0  0
  126.8060  130.9630   60.6740 C   0  0  0  0  0  0  0  0  0  0  0  0
  126.7840  132.2910   60.7650 N   0  0  0  0  0  0  0  0  0  0  0  0
  126.3980  132.8260   61.9520 C   0  0  0  0  0  0  0  0  0  0  0  0
  126.3860  134.3250   62.0260 C   0  0  0  0  0  0  0  0  0  0  0  0
  125.2320  135.0140   62.4340 C   0  0  0  0  0  0  0  0  0  0  0  0
  125.2130  136.4050   62.5030 C   0  0  0  0  0  0  0  0  0  0  0  0
  126.3510  137.1290   62.1640 C   0  0  0  0  0  0  0  0  0  0  0  0
  127.5060  136.4710   61.7540 C   0  0  0  0  0  0  0  0  0  0  0  0
  127.5210  135.0800   61.6850 C   0  0  0  0  0  0  0  0  0  0  0  0
  126.0530  132.0260   63.0460 C   0  0  0  0  0  0  0  0  0  0  0  0
  126.0750  130.6240   62.9610 C   0  0  0  0  0  0  0  0  0  0  0  0
  125.6780  129.8090   64.1970 C   0  0  0  0  0  0  0  0  0  0  0  0
  126.4220  128.7120   64.3630 F   0  0  0  0  0  0  0  0  0  0  0  0
  125.8170  130.5540   65.2930 F   0  0  0  0  0  0  0  0  0  0  0  0
  124.4090  129.4170   64.0900 F   0  0  0  0  0  0  0  0  0  0  0  0
  126.4690  130.0520   61.7180 C   0  0  0  0  0  0  0  0  0  0  0  0
  126.6100  128.6910   61.2620 C   0  0  0  0  0  0  0  0  0  0  0  0
  126.3530  127.6100   62.0660 N   0  0  0  0  0  0  0  0  0  0  0  0
  125.0190  124.5290   58.2580 C   0  0  0  0  0  0  0  0  0  0  0  0
  124.9830  123.3680   57.4920 C   0  0  0  0  0  0  0  0  0  0  0  0
  1  2  1  0
  2  3  1  0
  3  4  2  0
  4  5  1  0
  5  6  2  0
  6  7  1  0
  7  8  1  0
  8  9  2  0
  8 10  1  0
 10 11  1  0
 11 12  1  0
 12 13  2  0
 13 14  1  0
 14 15  1  0
 15 16  2  0
 16 17  1  0
 17 18  2  0
 18 19  1  0
 19 20  2  0
 14 21  2  0
 21 22  1  0
 22 23  1  0
 23 24  1  0
 23 25  1  0
 23 26  1  0
 22 27  2  0
 27 28  1  0
 28 29  1  0
  6 30  1  0
 30 31  2  0
 31  3  1  0
 28 10  2  0
 27 12  1  0
 20 15  1  0
M  END
>  <Binding energies>  (32) 
[-8.15]

>  <Ligand effiencies>  (32) 
[-0.23970588235294119]

>  <Interactions>  (32) 
["V-B:TRP:381:CH2:8343, V-B:TRP:381:CZ2:8341, V-B:LEU:475:CD1:9229, V-B:PRO:482:CB:9297, V-A:TYR:539:CD2:4874, V-B:TRP:381:CE2:8338, V-A:ALA:541:CB:4892, V-B:PRO:482:CG:9298, V-B:TYR:539:CD1:9844, V-B:MET:535:CE:9806, V-B:ILE:538:CA:9831, V-B:TYR:539:CE1:9846, V-B:PRO:540:CA:9854, V-B:PRO:540:CB:9856, H-B:ASP:366:OD2:8186, V-B:LEU:363:CD1:8160, V-B:ARG:545:CZ:9897, V-B:ASP:366:CG:8184, V-B:GLU:543:CD:9879, H-B:GLU:543:OE2:9881, H-B:TYR:539:N:9841, H-B:TYR:531:OH:9766, V-B:VAL:537:C:9821, V-B:ILE:538:CD1:9836, V-B:TRP:381:CZ3:8342, V-B:ILE:538:C:9829, H-B:ASP:366:OD1:8185"]

$$$$
4ce_Grossjean_2025
     RDKit          3D

 30 33  0  0  0  0  0  0  0  0999 V2000
  127.4760  123.3440   55.4640 C   0  0  0  0  0  0  0  0  0  0  0  0
  126.4600  123.7470   56.5160 C   0  0  0  0  0  0  0  0  0  0  0  0
  125.3660  122.9350   56.8250 C   0  0  0  0  0  0  0  0  0  0  0  0
  124.4760  123.3650   57.8100 C   0  0  0  0  0  0  0  0  0  0  0  0
  124.6990  124.5820   58.4570 C   0  0  0  0  0  0  0  0  0  0  0  0
  125.8130  125.3500   58.0950 C   0  0  0  0  0  0  0  0  0  0  0  0
  125.9970  126.5540   58.7990 N   0  0  0  0  0  0  0  0  0  0  0  0
  127.1520  127.2130   59.0660 C   0  0  0  0  0  0  0  0  0  0  0  0
  128.2610  126.8290   58.6910 O   0  0  0  0  0  0  0  0  0  0  0  0
  127.0090  128.4430   59.8470 C   0  0  0  0  0  0  0  0  0  0  0  0
  127.2950  130.0100   59.0940 S   0  0  0  0  0  0  0  0  0  0  0  0
  126.8970  130.8460   60.5760 C   0  0  0  0  0  0  0  0  0  0  0  0
  126.9250  132.1740   60.6520 N   0  0  0  0  0  0  0  0  0  0  0  0
  126.5850  132.7340   61.8430 C   0  0  0  0  0  0  0  0  0  0  0  0
  126.6220  134.2330   61.8950 C   0  0  0  0  0  0  0  0  0  0  0  0
  127.8250  134.9280   61.6910 C   0  0  0  0  0  0  0  0  0  0  0  0
  127.8680  136.3190   61.7450 C   0  0  0  0  0  0  0  0  0  0  0  0
  126.7040  137.0360   62.0010 C   0  0  0  0  0  0  0  0  0  0  0  0
  125.5000  136.3720   62.2070 C   0  0  0  0  0  0  0  0  0  0  0  0
  125.4610  134.9810   62.1560 C   0  0  0  0  0  0  0  0  0  0  0  0
  126.2390  131.9590   62.9540 C   0  0  0  0  0  0  0  0  0  0  0  0
  126.2120  130.5560   62.8850 C   0  0  0  0  0  0  0  0  0  0  0  0
  125.8230  129.7680   64.1400 C   0  0  0  0  0  0  0  0  0  0  0  0
  126.6170  128.7200   64.3680 F   0  0  0  0  0  0  0  0  0  0  0  0
  125.8910  130.5610   65.2100 F   0  0  0  0  0  0  0  0  0  0  0  0
  124.5790  129.3060   64.0140 F   0  0  0  0  0  0  0  0  0  0  0  0
  126.5520  129.9580   61.6370 C   0  0  0  0  0  0  0  0  0  0  0  0
  126.6260  128.5890   61.1910 C   0  0  0  0  0  0  0  0  0  0  0  0
  126.3460  127.5260   62.0100 N   0  0  0  0  0  0  0  0  0  0  0  0
  126.6900  124.9340   57.1360 N   0  0  0  0  0  0  0  0  0  0  0  0
  1  2  1  0
  2  3  2  0
  3  4  1  0
  4  5  2  0
  5  6  1  0
  6  7  1  0
  7  8  1  0
  8  9  2  0
  8 10  1  0
 10 11  1  0
 11 12  1  0
 12 13  2  0
 13 14  1  0
 14 15  1  0
 15 16  2  0
 16 17  1  0
 17 18  2  0
 18 19  1  0
 19 20  2  0
 14 21  2  0
 21 22  1  0
 22 23  1  0
 23 24  1  0
 23 25  1  0
 23 26  1  0
 22 27  2  0
 27 28  1  0
 28 29  1  0
  6 30  2  0
 30  2  1  0
 28 10  2  0
 27 12  1  0
 20 15  1  0
M  END
>  <Binding energies>  (33) 
[-7.53]

>  <Ligand effiencies>  (33) 
[-0.22818181818181818]

>  <Interactions>  (33) 
["V-B:TRP:381:CH2:8343, V-B:TRP:381:CZ2:8341, V-B:LEU:475:CD1:9229, V-B:PRO:482:CB:9297, V-A:TYR:539:CD2:4874, V-B:TRP:381:CE2:8338, V-A:ALA:541:CB:4892, V-B:PRO:482:CG:9298, V-B:PRO:540:N:9855, V-B:TYR:539:CD1:9844, V-B:MET:535:CE:9806, V-B:TYR:539:CE1:9846, V-B:PRO:540:CA:9854, V-B:PRO:540:CB:9856, H-B:ASP:366:OD2:8186, V-B:PRO:540:CD:9858, V-B:LEU:363:CD1:8160, V-B:ARG:545:CZ:9897, V-B:ASP:366:CG:8184, V-B:GLU:543:CD:9879, H-B:GLU:543:OE2:9881, V-B:TYR:539:CZ:9848, V-B:LEU:363:CA:8156, H-B:TYR:531:OH:9766, V-B:ASP:366:CB:8183, V-B:TRP:381:CZ3:8342, H-B:ASP:366:OD1:8185"]

$$$$
4cf_Grossjean_2025
     RDKit          3D

 29 32  0  0  0  0  0  0  0  0999 V2000
  127.8590  123.6450   63.4560 N   0  0  0  0  0  0  0  0  0  0  0  0
  128.5220  123.3830   62.2840 C   0  0  0  0  0  0  0  0  0  0  0  0
  129.9120  123.1940   62.2130 C   0  0  0  0  0  0  0  0  0  0  0  0
  130.9010  123.2670   63.2920 C   0  0  0  0  0  0  0  0  0  0  0  0
  131.4570  122.2470   63.7030 O   0  0  0  0  0  0  0  0  0  0  0  0
  131.1480  124.5110   63.7700 N   0  0  0  0  0  0  0  0  0  0  0  0
  131.9910  124.9180   64.8220 C   0  0  0  0  0  0  0  0  0  0  0  0
  131.5640  125.4930   66.0340 C   0  0  0  0  0  0  0  0  0  0  0  0
  132.5100  125.8670   66.9910 C   0  0  0  0  0  0  0  0  0  0  0  0
  133.8610  125.6570   66.7140 C   0  0  0  0  0  0  0  0  0  0  0  0
  134.2990  125.1110   65.5510 N   0  0  0  0  0  0  0  0  0  0  0  0
  133.3670  124.7540   64.6290 C   0  0  0  0  0  0  0  0  0  0  0  0
  130.4260  122.8720   60.5580 S   0  0  0  0  0  0  0  0  0  0  0  0
  128.7830  123.0010   59.9750 C   0  0  0  0  0  0  0  0  0  0  0  0
  128.4890  122.8500   58.6850 N   0  0  0  0  0  0  0  0  0  0  0  0
  127.1850  122.9840   58.3260 C   0  0  0  0  0  0  0  0  0  0  0  0
  126.8850  122.8160   56.8650 C   0  0  0  0  0  0  0  0  0  0  0  0
  127.7680  123.3070   55.8900 C   0  0  0  0  0  0  0  0  0  0  0  0
  127.4980  123.1550   54.5330 C   0  0  0  0  0  0  0  0  0  0  0  0
  126.3360  122.5040   54.1300 C   0  0  0  0  0  0  0  0  0  0  0  0
  125.4460  122.0040   55.0750 C   0  0  0  0  0  0  0  0  0  0  0  0
  125.7200  122.1590   56.4300 C   0  0  0  0  0  0  0  0  0  0  0  0
  126.1820  123.2440   59.2650 C   0  0  0  0  0  0  0  0  0  0  0  0
  126.4810  123.4000   60.6270 C   0  0  0  0  0  0  0  0  0  0  0  0
  125.3330  123.6890   61.6020 C   0  0  0  0  0  0  0  0  0  0  0  0
  124.1270  123.4950   61.0630 F   0  0  0  0  0  0  0  0  0  0  0  0
  125.4300  122.8880   62.6620 F   0  0  0  0  0  0  0  0  0  0  0  0
  125.3900  124.9590   62.0030 F   0  0  0  0  0  0  0  0  0  0  0  0
  127.8470  123.2800   61.0140 C   0  0  0  0  0  0  0  0  0  0  0  0
  1  2  1  0
  2  3  2  0
  3  4  1  0
  4  5  2  0
  4  6  1  0
  6  7  1  0
  7  8  2  0
  8  9  1  0
  9 10  2  0
 10 11  1  0
 11 12  2  0
  3 13  1  0
 13 14  1  0
 14 15  2  0
 15 16  1  0
 16 17  1  0
 17 18  2  0
 18 19  1  0
 19 20  2  0
 20 21  1  0
 21 22  2  0
 16 23  2  0
 23 24  1  0
 24 25  1  0
 25 26  1  0
 25 27  1  0
 25 28  1  0
 24 29  2  0
 29  2  1  0
 12  7  1  0
 29 14  1  0
 22 17  1  0
M  END
>  <Binding energies>  (34) 
[-7.85]

>  <Ligand effiencies>  (34) 
[-0.2453125]

>  <Interactions>  (34) 
["V-B:PRO:540:N:9855, V-B:TYR:539:CD1:9844, V-B:TYR:539:CE2:9847, V-B:MET:535:CE:9806, V-B:ILE:538:CA:9831, V-B:ILE:538:CG2:9834, V-B:TYR:539:CE1:9846, V-B:PRO:540:CA:9854, V-B:TYR:539:C:9838, V-B:PRO:540:CB:9856, V-B:PRO:540:C:9852, V-B:PRO:540:CD:9858, V-B:LEU:363:CD1:8160, V-B:ALA:541:CB:9863, V-B:ALA:541:CA:9861, V-A:HIS:456:CE1:4069, V-B:ARG:545:CZ:9897, H-B:GLU:543:OE1:9880, V-A:ARG:545:CZ:4926, V-B:GLU:543:CD:9879, H-B:GLU:543:OE2:9881, V-B:TYR:539:CZ:9848, V-B:ASN:362:C:8143, V-B:ILE:538:CD1:9836, H-A:TYR:484:OH:4347, V-B:ASN:362:CB:8147, V-B:MET:535:CB:9803, H-A:GLY:454:N:4049, V-B:GLU:543:CG:9878, V-B:ASN:362:CA:8145, V-B:ILE:538:CB:9833, V-B:ILE:538:C:9829, V-A:GLY:454:CA:4048, V-A:ARG:545:CG:4922, V-A:ARG:545:CD:4923, H-A:ARG:545:NE:4924, V-B:ALA:541:C:9859, V-B:ILE:538:CG1:9835"]

$$$$
4ci_Grossjean_2025
     RDKit          3D

 28 31  0  0  0  0  0  0  0  0999 V2000
  128.2330  123.7370   63.5590 N   0  0  0  0  0  0  0  0  0  0  0  0
  128.8260  123.4980   62.3460 C   0  0  0  0  0  0  0  0  0  0  0  0
  130.2130  123.3510   62.1840 C   0  0  0  0  0  0  0  0  0  0  0  0
  131.2620  123.4030   63.2050 C   0  0  0  0  0  0  0  0  0  0  0  0
  131.6430  122.3740   63.7690 O   0  0  0  0  0  0  0  0  0  0  0  0
  131.7530  124.6380   63.4760 N   0  0  0  0  0  0  0  0  0  0  0  0
  132.7410  124.9740   64.3930 C   0  0  0  0  0  0  0  0  0  0  0  0
  132.4810  125.2040   65.7430 C   0  0  0  0  0  0  0  0  0  0  0  0
  133.7040  125.5040   66.2970 C   0  0  0  0  0  0  0  0  0  0  0  0
  134.6520  125.4570   65.3300 O   0  0  0  0  0  0  0  0  0  0  0  0
  134.0280  125.1210   64.1280 N   0  0  0  0  0  0  0  0  0  0  0  0
  130.6280  123.0440   60.4990 S   0  0  0  0  0  0  0  0  0  0  0  0
  128.9470  123.1250   60.0240 C   0  0  0  0  0  0  0  0  0  0  0  0
  128.5740  122.9590   58.7570 N   0  0  0  0  0  0  0  0  0  0  0  0
  127.2460  123.0350   58.4840 C   0  0  0  0  0  0  0  0  0  0  0  0
  126.8560  122.8480   57.0450 C   0  0  0  0  0  0  0  0  0  0  0  0
  125.6330  122.2500   56.7020 C   0  0  0  0  0  0  0  0  0  0  0  0
  125.2660  122.0750   55.3700 C   0  0  0  0  0  0  0  0  0  0  0  0
  126.1220  122.4960   54.3580 C   0  0  0  0  0  0  0  0  0  0  0  0
  127.3410  123.0870   54.6690 C   0  0  0  0  0  0  0  0  0  0  0  0
  127.7050  123.2590   56.0020 C   0  0  0  0  0  0  0  0  0  0  0  0
  126.3010  123.2950   59.4820 C   0  0  0  0  0  0  0  0  0  0  0  0
  126.6840  123.4720   60.8220 C   0  0  0  0  0  0  0  0  0  0  0  0
  125.5960  123.7530   61.8650 C   0  0  0  0  0  0  0  0  0  0  0  0
  125.8150  123.1420   63.0300 F   0  0  0  0  0  0  0  0  0  0  0  0
  125.5340  125.0630   62.1070 F   0  0  0  0  0  0  0  0  0  0  0  0
  124.4150  123.3340   61.4090 F   0  0  0  0  0  0  0  0  0  0  0  0
  128.0730  123.3810   61.1200 C   0  0  0  0  0  0  0  0  0  0  0  0
  1  2  1  0
  2  3  2  0
  3  4  1  0
  4  5  2  0
  4  6  1  0
  6  7  1  0
  7  8  1  0
  8  9  2  0
  9 10  1  0
 10 11  1  0
  3 12  1  0
 12 13  1  0
 13 14  2  0
 14 15  1  0
 15 16  1  0
 16 17  2  0
 17 18  1  0
 18 19  2  0
 19 20  1  0
 20 21  2  0
 15 22  2  0
 22 23  1  0
 23 24  1  0
 24 25  1  0
 24 26  1  0
 24 27  1  0
 23 28  2  0
 28  2  1  0
 11  7  2  0
 28 13  1  0
 21 16  1  0
M  END
>  <Binding energies>  (35) 
[-8.35]

>  <Ligand effiencies>  (35) 
[-0.2693548387096774]

>  <Interactions>  (35) 
["V-B:PRO:540:N:9855, V-B:TYR:539:CD1:9844, V-B:TYR:539:CE2:9847, V-B:MET:535:CE:9806, V-B:ILE:538:CA:9831, V-B:ILE:538:CG2:9834, V-B:TYR:539:CE1:9846, V-B:PRO:540:CA:9854, V-B:TYR:539:C:9838, V-B:PRO:540:CB:9856, V-B:PRO:540:CD:9858, V-B:LEU:363:CD1:8160, V-B:ALA:541:CB:9863, V-B:ALA:541:CA:9861, V-A:HIS:456:CE1:4069, V-B:ARG:545:CZ:9897, H-B:GLU:543:OE1:9880, V-A:ARG:545:CZ:4926, V-B:GLU:543:CD:9879, H-B:GLU:543:OE2:9881, V-B:TYR:539:CZ:9848, V-B:ASN:362:C:8143, H-A:ARG:545:NH2:4928, V-B:ILE:538:CD1:9836, V-B:ASN:362:CB:8147, H-A:ARG:545:NH1:4927, V-B:MET:535:CB:9803, H-A:GLY:454:N:4049, V-B:GLU:543:CG:9878, V-B:ILE:538:CB:9833, V-B:ILE:538:C:9829, V-A:ARG:545:CG:4922, V-A:ARG:545:CD:4923, H-A:ARG:545:NE:4924, V-B:ALA:541:C:9859"]

$$$$
8a_Ghoteimi_2023
     RDKit          3D

 40 44  0  0  0  0  0  0  0  0999 V2000
  131.2470  132.2020   55.0800 C   0  0  0  0  0  0  0  0  0  0  0  0
  132.0120  132.5060   56.3710 C   0  0  0  0  0  0  0  0  0  0  0  0
  131.2390  133.3800   57.1830 O   0  0  0  0  0  0  0  0  0  0  0  0
  129.9310  133.1190   57.4470 C   0  0  0  0  0  0  0  0  0  0  0  0
  129.0070  133.4590   56.7020 O   0  0  0  0  0  0  0  0  0  0  0  0
  129.7220  132.3810   58.7370 C   0  0  0  0  0  0  0  0  0  0  0  0
  130.5380  131.2830   59.0370 C   0  0  0  0  0  0  0  0  0  0  0  0
  130.3680  130.5770   60.2250 C   0  0  0  0  0  0  0  0  0  0  0  0
  129.3800  130.9510   61.1370 C   0  0  0  0  0  0  0  0  0  0  0  0
  129.2980  130.1620   62.3010 N   0  0  0  0  0  0  0  0  0  0  0  0
  128.2450  129.4940   62.8340 C   0  0  0  0  0  0  0  0  0  0  0  0
  127.1150  129.4770   62.3470 O   0  0  0  0  0  0  0  0  0  0  0  0
  128.5340  128.7570   64.0690 C   0  0  0  0  0  0  0  0  0  0  0  0
  127.7930  129.2460   65.5920 S   0  0  0  0  0  0  0  0  0  0  0  0
  128.6140  127.9670   66.4560 C   0  0  0  0  0  0  0  0  0  0  0  0
  128.4710  127.8060   67.7710 N   0  0  0  0  0  0  0  0  0  0  0  0
  129.1580  126.7840   68.3460 C   0  0  0  0  0  0  0  0  0  0  0  0
  128.9990  126.6350   69.8250 C   0  0  0  0  0  0  0  0  0  0  0  0
  129.6390  127.5100   70.7140 C   0  0  0  0  0  0  0  0  0  0  0  0
  129.4960  127.3590   72.0900 C   0  0  0  0  0  0  0  0  0  0  0  0
  128.7100  126.3340   72.6130 C   0  0  0  0  0  0  0  0  0  0  0  0
  128.6270  126.2600   73.9900 O   0  0  0  0  0  0  0  0  0  0  0  0
  129.7490  125.7840   74.7270 C   0  0  0  0  0  0  0  0  0  0  0  0
  128.0600  125.4570   71.7330 C   0  0  0  0  0  0  0  0  0  0  0  0
  128.2070  125.6090   70.3560 C   0  0  0  0  0  0  0  0  0  0  0  0
  129.9750  125.9260   67.6070 C   0  0  0  0  0  0  0  0  0  0  0  0
  130.1160  126.0810   66.2240 C   0  0  0  0  0  0  0  0  0  0  0  0
  130.9720  125.1210   65.4820 C   0  0  0  0  0  0  0  0  0  0  0  0
  132.3050  125.4350   65.2070 C   0  0  0  0  0  0  0  0  0  0  0  0
  133.1170  124.5300   64.5290 C   0  0  0  0  0  0  0  0  0  0  0  0
  132.6140  123.2940   64.1200 C   0  0  0  0  0  0  0  0  0  0  0  0
  133.4920  122.4600   63.4550 O   0  0  0  0  0  0  0  0  0  0  0  0
  133.1510  121.9860   62.1580 C   0  0  0  0  0  0  0  0  0  0  0  0
  131.2770  122.9730   64.4030 C   0  0  0  0  0  0  0  0  0  0  0  0
  130.4670  123.8800   65.0820 C   0  0  0  0  0  0  0  0  0  0  0  0
  129.4230  127.1590   65.6040 C   0  0  0  0  0  0  0  0  0  0  0  0
  129.3720  127.6450   64.2470 C   0  0  0  0  0  0  0  0  0  0  0  0
  130.0980  127.0740   63.2320 N   0  0  0  0  0  0  0  0  0  0  0  0
  128.5610  132.0530   60.8470 C   0  0  0  0  0  0  0  0  0  0  0  0
  128.7330  132.7580   59.6590 C   0  0  0  0  0  0  0  0  0  0  0  0
  1  2  1  0
  2  3  1  0
  3  4  1  0
  4  5  2  0
  4  6  1  0
  6  7  2  0
  7  8  1  0
  8  9  2  0
  9 10  1  0
 10 11  1  0
 11 12  2  0
 11 13  1  0
 13 14  1  0
 14 15  1  0
 15 16  2  0
 16 17  1  0
 17 18  1  0
 18 19  2  0
 19 20  1  0
 20 21  2  0
 21 22  1  0
 22 23  1  0
 21 24  1  0
 24 25  2  0
 17 26  2  0
 26 27  1  0
 27 28  1  0
 28 29  2  0
 29 30  1  0
 30 31  2  0
 31 32  1  0
 32 33  1  0
 31 34  1  0
 34 35  2  0
 27 36  2  0
 36 37  1  0
 37 38  1  0
  9 39  1  0
 39 40  2  0
 40  6  1  0
 37 13  2  0
 36 15  1  0
 25 18  1  0
 35 28  1  0
M  END
>  <Binding energies>  (36) 
[-9.93]

>  <Ligand effiencies>  (36) 
[-0.23093023255813952]

>  <Interactions>  (36) 
["V-A:LEU:363:CD1:3188, V-A:ILE:538:CB:4862, V-A:TYR:539:C:4867, V-A:PRO:540:CA:4883, V-A:ILE:538:CG2:4863, V-A:ILE:538:CA:4860, V-A:PRO:540:N:4884, V-A:MET:535:CE:4835, H-A:TYR:539:N:4870, V-A:TYR:539:CD2:4874, V-A:TYR:539:CA:4869, V-A:ILE:369:CG2:3236, V-A:LEU:475:CD2:4258, V-A:GLU:543:CD:4908, V-A:MET:535:CG:4833, V-B:HIS:456:CE1:9041, V-A:HIS:456:CE1:4069, H-A:GLU:543:OE1:4909, V-A:GLU:543:CG:4907, V-A:ARG:545:CZ:4926, V-B:GLU:543:CD:9879, V-A:ILE:369:CD1:3238, H-A:GLY:454:N:4049, V-B:GLU:543:CB:9877, V-A:GLY:454:CA:4048, H-B:LYS:547:NZ:9922, V-B:HIS:456:CD2:9039, V-B:GLU:543:C:9873, V-B:LYS:547:CE:9921, V-B:GLY:544:C:9883"]

$$$$
8c_Ghoteimi_2023
     RDKit          3D

 34 38  0  0  0  0  0  0  0  0999 V2000
  129.1110  129.4710   75.1850 C   0  0  0  0  0  0  0  0  0  0  0  0
  130.1250  128.8690   74.3890 O   0  0  0  0  0  0  0  0  0  0  0  0
  129.8810  128.6370   73.0490 C   0  0  0  0  0  0  0  0  0  0  0  0
  129.6870  129.7600   72.2470 C   0  0  0  0  0  0  0  0  0  0  0  0
  129.4320  129.6210   70.8860 C   0  0  0  0  0  0  0  0  0  0  0  0
  129.3650  128.3530   70.2900 C   0  0  0  0  0  0  0  0  0  0  0  0
  129.0890  128.1980   68.8280 C   0  0  0  0  0  0  0  0  0  0  0  0
  128.2470  129.0760   68.1400 C   0  0  0  0  0  0  0  0  0  0  0  0
  128.0070  128.9100   66.7720 C   0  0  0  0  0  0  0  0  0  0  0  0
  127.1040  129.8530   66.0740 C   0  0  0  0  0  0  0  0  0  0  0  0
  125.7290  129.6110   66.0330 C   0  0  0  0  0  0  0  0  0  0  0  0
  124.8810  130.5040   65.3850 C   0  0  0  0  0  0  0  0  0  0  0  0
  125.3910  131.6460   64.7670 C   0  0  0  0  0  0  0  0  0  0  0  0
  124.4740  132.4760   64.1500 O   0  0  0  0  0  0  0  0  0  0  0  0
  123.8900  132.0720   62.9170 C   0  0  0  0  0  0  0  0  0  0  0  0
  126.7730  131.8860   64.8050 C   0  0  0  0  0  0  0  0  0  0  0  0
  127.6210  130.9920   65.4540 C   0  0  0  0  0  0  0  0  0  0  0  0
  128.6460  127.8290   66.1080 C   0  0  0  0  0  0  0  0  0  0  0  0
  128.6280  127.3740   64.7430 C   0  0  0  0  0  0  0  0  0  0  0  0
  127.8960  128.0050   63.7680 N   0  0  0  0  0  0  0  0  0  0  0  0
  129.4210  126.2400   64.5100 C   0  0  0  0  0  0  0  0  0  0  0  0
  129.6370  125.5200   63.2530 C   0  0  0  0  0  0  0  0  0  0  0  0
  130.7100  125.6080   62.6530 O   0  0  0  0  0  0  0  0  0  0  0  0
  128.5880  124.7760   62.8220 N   0  0  0  0  0  0  0  0  0  0  0  0
  128.5310  124.0020   61.6720 C   0  0  0  0  0  0  0  0  0  0  0  0
  127.8630  122.8840   61.4820 N   0  0  0  0  0  0  0  0  0  0  0  0
  128.0350  122.4180   60.2620 C   0  0  0  0  0  0  0  0  0  0  0  0
  128.8630  123.1630   59.4280 C   0  0  0  0  0  0  0  0  0  0  0  0
  129.4430  124.5500   60.3020 S   0  0  0  0  0  0  0  0  0  0  0  0
  130.2190  125.7060   65.9900 S   0  0  0  0  0  0  0  0  0  0  0  0
  129.4860  127.0010   66.9080 C   0  0  0  0  0  0  0  0  0  0  0  0
  129.7130  127.1580   68.2120 N   0  0  0  0  0  0  0  0  0  0  0  0
  129.5640  127.2290   71.1030 C   0  0  0  0  0  0  0  0  0  0  0  0
  129.8180  127.3640   72.4650 C   0  0  0  0  0  0  0  0  0  0  0  0
  1  2  1  0
  2  3  1  0
  3  4  2  0
  4  5  1  0
  5  6  2  0
  6  7  1  0
  7  8  2  0
  8  9  1  0
  9 10  1  0
 10 11  2  0
 11 12  1  0
 12 13  2  0
 13 14  1  0
 14 15  1  0
 13 16  1  0
 16 17  2  0
  9 18  2  0
 18 19  1  0
 19 20  1  0
 19 21  2  0
 21 22  1  0
 22 23  2  0
 22 24  1  0
 24 25  1  0
 25 26  2  0
 26 27  1  0
 27 28  2  0
 28 29  1  0
 21 30  1  0
 30 31  1  0
 31 32  2  0
  6 33  1  0
 33 34  2  0
 34  3  1  0
 32  7  1  0
 17 10  1  0
 31 18  1  0
 29 25  1  0
M  END
>  <Binding energies>  (37) 
[-8.3]

>  <Ligand effiencies>  (37) 
[-0.22432432432432434]

>  <Interactions>  (37) 
["V-B:ILE:369:CD1:8210, V-B:LEU:475:CD1:9229, V-B:TYR:539:CD2:9845, V-B:TYR:539:CE2:9847, V-B:PRO:540:CA:9854, V-B:PRO:540:C:9852, H-B:ALA:541:N:9862, V-B:GLY:454:CA:9020, V-A:GLU:543:CD:4908, V-B:HIS:456:CE1:9041, V-A:HIS:456:CE1:4069, H-B:GLY:454:N:9021, V-A:GLU:543:CG:4907, H-B:GLU:543:OE1:9880, V-B:GLU:543:CD:9879, H-B:GLU:543:OE2:9881, V-B:GLU:543:CG:9878, V-A:GLU:543:CB:4906, V-A:GLU:543:C:4902, V-A:LYS:547:CE:4950, H-A:LYS:547:NZ:4951"]

$$$$
8d_Ghoteimi_2023
     RDKit          3D

 30 33  0  0  0  0  0  0  0  0999 V2000
  132.4010  132.1900   61.8730 C   0  0  0  0  0  0  0  0  0  0  0  0
  131.0060  131.9670   61.7170 O   0  0  0  0  0  0  0  0  0  0  0  0
  130.4710  131.7440   60.4890 C   0  0  0  0  0  0  0  0  0  0  0  0
  130.2110  132.6350   59.6760 O   0  0  0  0  0  0  0  0  0  0  0  0
  130.2260  130.3100   60.2190 C   0  0  0  0  0  0  0  0  0  0  0  0
  129.1510  129.8320   58.9050 S   0  0  0  0  0  0  0  0  0  0  0  0
  129.4050  128.1390   59.2600 C   0  0  0  0  0  0  0  0  0  0  0  0
  128.8130  127.1750   58.5540 N   0  0  0  0  0  0  0  0  0  0  0  0
  129.0810  125.8910   58.9130 C   0  0  0  0  0  0  0  0  0  0  0  0
  128.4010  124.8290   58.1080 C   0  0  0  0  0  0  0  0  0  0  0  0
  128.0940  125.0310   56.7550 C   0  0  0  0  0  0  0  0  0  0  0  0
  127.4600  124.0400   56.0100 C   0  0  0  0  0  0  0  0  0  0  0  0
  127.1160  122.8240   56.5980 C   0  0  0  0  0  0  0  0  0  0  0  0
  126.4910  121.9000   55.7840 O   0  0  0  0  0  0  0  0  0  0  0  0
  125.1410  122.1220   55.3900 C   0  0  0  0  0  0  0  0  0  0  0  0
  127.4200  122.6100   57.9500 C   0  0  0  0  0  0  0  0  0  0  0  0
  128.0550  123.6040   58.6910 C   0  0  0  0  0  0  0  0  0  0  0  0
  129.9310  125.5760   59.9770 C   0  0  0  0  0  0  0  0  0  0  0  0
  130.5540  126.5860   60.7160 C   0  0  0  0  0  0  0  0  0  0  0  0
  131.4560  126.2200   61.8330 C   0  0  0  0  0  0  0  0  0  0  0  0
  132.6550  125.5510   61.5760 C   0  0  0  0  0  0  0  0  0  0  0  0
  133.4980  125.1990   62.6260 C   0  0  0  0  0  0  0  0  0  0  0  0
  133.1600  125.5130   63.9430 C   0  0  0  0  0  0  0  0  0  0  0  0
  134.0560  125.1240   64.9190 O   0  0  0  0  0  0  0  0  0  0  0  0
  133.7800  125.4350   66.2800 C   0  0  0  0  0  0  0  0  0  0  0  0
  131.9560  126.1900   64.1980 C   0  0  0  0  0  0  0  0  0  0  0  0
  131.1130  126.5400   63.1470 C   0  0  0  0  0  0  0  0  0  0  0  0
  130.2910  127.9350   60.3560 C   0  0  0  0  0  0  0  0  0  0  0  0
  130.7440  129.1920   60.8850 C   0  0  0  0  0  0  0  0  0  0  0  0
  131.6030  129.2790   61.9500 N   0  0  0  0  0  0  0  0  0  0  0  0
  1  2  1  0
  2  3  1  0
  3  4  2  0
  3  5  1  0
  5  6  1  0
  6  7  1  0
  7  8  2  0
  8  9  1  0
  9 10  1  0
 10 11  2  0
 11 12  1  0
 12 13  2  0
 13 14  1  0
 14 15  1  0
 13 16  1  0
 16 17  2  0
  9 18  2  0
 18 19  1  0
 19 20  1  0
 20 21  2  0
 21 22  1  0
 22 23  2  0
 23 24  1  0
 24 25  1  0
 23 26  1  0
 26 27  2  0
 19 28  2  0
 28 29  1  0
 29 30  1  0
 29  5  2  0
 28  7  1  0
 17 10  1  0
 27 20  1  0
M  END
>  <Binding energies>  (38) 
[-7.28]

>  <Ligand effiencies>  (38) 
[-0.2275]

>  <Interactions>  (38) 
["V-A:PRO:540:CA:4883, V-A:PRO:540:CB:4885, H-A:ALA:541:N:4891, V-B:TYR:539:CD2:9845, V-B:PRO:540:N:9855, V-B:TYR:539:CD1:9844, V-B:TYR:539:CE2:9847, V-B:MET:535:CE:9806, V-B:TYR:539:CG:9843, V-B:ILE:538:CA:9831, V-B:ILE:538:CG2:9834, V-B:TYR:539:CE1:9846, V-B:PRO:540:CA:9854, V-B:TYR:539:C:9838, V-B:PRO:540:CD:9858, V-B:LEU:363:CD1:8160, V-A:PRO:540:C:4881, V-A:GLU:543:CD:4908, V-A:HIS:456:CE1:4069, H-A:GLU:543:OE1:4909, V-A:ARG:545:CZ:4926, V-B:TYR:539:CZ:9848, H-B:TYR:539:N:9841, H-A:ASP:366:OD2:3214, V-A:ASP:366:CG:3212, V-B:ILE:538:CD1:9836, H-A:ARG:545:NH1:4927, H-A:GLY:454:N:4049, V-B:ILE:538:CB:9833, V-A:ARG:545:CG:4922, V-A:ARG:545:CD:4923, H-A:ARG:545:NE:4924, H-A:ASP:366:OD1:3213"]

$$$$
9a_Ghoteimi_2023
     RDKit          3D

 48 54  0  0  0  0  0  0  0  0999 V2000
  125.8930  130.4830   55.0150 C   0  0  0  0  0  0  0  0  0  0  0  0
  125.9790  130.7020   56.5290 C   0  0  0  0  0  0  0  0  0  0  0  0
  124.7280  130.3780   57.1260 O   0  0  0  0  0  0  0  0  0  0  0  0
  124.2270  131.1180   58.1470 C   0  0  0  0  0  0  0  0  0  0  0  0
  123.4090  132.0310   57.9880 O   0  0  0  0  0  0  0  0  0  0  0  0
  124.7690  130.7230   59.4900 C   0  0  0  0  0  0  0  0  0  0  0  0
  125.9490  129.9710   59.5580 C   0  0  0  0  0  0  0  0  0  0  0  0
  126.4760  129.5870   60.7870 C   0  0  0  0  0  0  0  0  0  0  0  0
  125.8380  129.9480   61.9740 C   0  0  0  0  0  0  0  0  0  0  0  0
  126.4600  129.5050   63.1570 N   0  0  0  0  0  0  0  0  0  0  0  0
  126.9180  130.2060   64.2250 C   0  0  0  0  0  0  0  0  0  0  0  0
  126.8520  131.4310   64.3280 O   0  0  0  0  0  0  0  0  0  0  0  0
  127.5130  129.3990   65.2940 C   0  0  0  0  0  0  0  0  0  0  0  0
  127.3410  129.8890   66.9800 S   0  0  0  0  0  0  0  0  0  0  0  0
  128.2450  128.4960   67.5250 C   0  0  0  0  0  0  0  0  0  0  0  0
  128.4620  128.2670   68.8200 N   0  0  0  0  0  0  0  0  0  0  0  0
  129.1670  127.1490   69.1380 C   0  0  0  0  0  0  0  0  0  0  0  0
  129.3890  126.9060   70.5960 C   0  0  0  0  0  0  0  0  0  0  0  0
  130.2890  127.6970   71.3200 C   0  0  0  0  0  0  0  0  0  0  0  0
  130.5010  127.4780   72.6780 C   0  0  0  0  0  0  0  0  0  0  0  0
  129.8100  126.4690   73.3670 C   0  0  0  0  0  0  0  0  0  0  0  0
  130.0270  126.2250   74.7280 N   0  0  0  0  0  0  0  0  0  0  0  0
  131.1890  125.4430   75.1960 C   0  0  0  0  0  0  0  0  0  0  0  0
  131.0730  124.9720   76.6610 C   0  0  0  0  0  0  0  0  0  0  0  0
  130.8300  126.0810   77.5110 O   0  0  0  0  0  0  0  0  0  0  0  0
  129.6220  126.7430   77.1690 C   0  0  0  0  0  0  0  0  0  0  0  0
  129.7020  127.2690   75.7210 C   0  0  0  0  0  0  0  0  0  0  0  0
  128.9210  125.6700   72.6340 C   0  0  0  0  0  0  0  0  0  0  0  0
  128.7110  125.8870   71.2760 C   0  0  0  0  0  0  0  0  0  0  0  0
  129.6730  126.2840   68.1650 C   0  0  0  0  0  0  0  0  0  0  0  0
  129.4650  126.5320   66.8040 C   0  0  0  0  0  0  0  0  0  0  0  0
  130.0560  125.6000   65.8100 C   0  0  0  0  0  0  0  0  0  0  0  0
  130.9220  126.0710   64.8200 C   0  0  0  0  0  0  0  0  0  0  0  0
  131.4850  125.1940   63.8980 C   0  0  0  0  0  0  0  0  0  0  0  0
  131.2130  123.8180   63.9530 C   0  0  0  0  0  0  0  0  0  0  0  0
  131.7580  122.9200   63.0320 N   0  0  0  0  0  0  0  0  0  0  0  0
  130.8520  122.0920   62.2110 C   0  0  0  0  0  0  0  0  0  0  0  0
  131.5490  121.4430   60.9970 C   0  0  0  0  0  0  0  0  0  0  0  0
  132.6730  120.6900   61.4270 O   0  0  0  0  0  0  0  0  0  0  0  0
  133.6250  121.5030   62.0940 C   0  0  0  0  0  0  0  0  0  0  0  0
  132.9830  122.1540   63.3380 C   0  0  0  0  0  0  0  0  0  0  0  0
  130.3450  123.3560   64.9530 C   0  0  0  0  0  0  0  0  0  0  0  0
  129.7780  124.2330   65.8720 C   0  0  0  0  0  0  0  0  0  0  0  0
  128.6980  127.6780   66.4490 C   0  0  0  0  0  0  0  0  0  0  0  0
  128.2440  128.2060   65.1860 C   0  0  0  0  0  0  0  0  0  0  0  0
  128.4970  127.5810   63.9910 N   0  0  0  0  0  0  0  0  0  0  0  0
  124.6570  130.7040   61.9170 C   0  0  0  0  0  0  0  0  0  0  0  0
  124.1300  131.0860   60.6860 C   0  0  0  0  0  0  0  0  0  0  0  0
  1  2  1  0
  2  3  1  0
  3  4  1  0
  4  5  2  0
  4  6  1  0
  6  7  2  0
  7  8  1  0
  8  9  2  0
  9 10  1  0
 10 11  1  0
 11 12  2  0
 11 13  1  0
 13 14  1  0
 14 15  1  0
 15 16  2  0
 16 17  1  0
 17 18  1  0
 18 19  2  0
 19 20  1  0
 20 21  2  0
 21 22  1  0
 22 23  1  0
 23 24  1  0
 24 25  1  0
 25 26  1  0
 26 27  1  0
 21 28  1  0
 28 29  2  0
 17 30  2  0
 30 31  1  0
 31 32  1  0
 32 33  2  0
 33 34  1  0
 34 35  2  0
 35 36  1  0
 36 37  1  0
 37 38  1  0
 38 39  1  0
 39 40  1  0
 40 41  1  0
 35 42  1  0
 42 43  2  0
 31 44  2  0
 44 45  1  0
 45 46  1  0
  9 47  1  0
 47 48  2  0
 48  6  1  0
 45 13  2  0
 44 15  1  0
 29 18  1  0
 43 32  1  0
 27 22  1  0
 41 36  1  0
M  END
>  <Binding energies>  (39) 
[-10.18]

>  <Ligand effiencies>  (39) 
[-0.1996078431372549]

>  <Interactions>  (39) 
["V-A:TYR:539:CE2:4876, V-A:MET:535:CE:4835, V-B:TYR:539:CD2:9845, V-B:TYR:539:CE2:9847, V-A:ILE:369:CG2:3236, V-A:LEU:475:CD2:4258, V-B:ALA:541:CB:9863, V-A:TYR:539:CZ:4877, H-A:TYR:539:OH:4878, V-A:GLU:543:CD:4908, V-B:HIS:456:CE1:9041, V-A:HIS:456:CE1:4069, H-A:GLU:543:OE1:4909, V-A:GLU:543:CG:4907, V-B:ASP:366:CG:8184, H-B:GLU:543:OE1:9880, V-B:GLU:543:CD:9879, H-B:GLU:543:OE2:9881, H-B:TYR:531:OH:9766, V-B:TYR:531:CZ:9765, V-B:ASP:366:CB:8183, V-A:ILE:369:CD1:3238, V-B:GLU:543:CG:9878, V-B:ASP:366:CA:8181, H-B:ASN:370:N:8215, V-B:TYR:531:CE1:9763, V-B:GLU:543:CB:9877, V-A:GLY:454:CA:4048, V-B:ASP:366:C:8179, V-A:HIS:456:CD2:4067, V-A:LYS:547:CE:4950, V-A:TYR:484:CE1:4344"]

$$$$
9b_Ghoteimi_2023
     RDKit          3D

 42 48  0  0  0  0  0  0  0  0999 V2000
  128.7740  125.8790   58.6650 N   0  0  0  0  0  0  0  0  0  0  0  0
  128.7100  125.2070   59.8600 C   0  0  0  0  0  0  0  0  0  0  0  0
  128.3160  123.8640   59.9710 C   0  0  0  0  0  0  0  0  0  0  0  0
  127.9360  122.9320   58.9070 C   0  0  0  0  0  0  0  0  0  0  0  0
  128.2490  121.7410   58.9710 O   0  0  0  0  0  0  0  0  0  0  0  0
  127.2380  123.4760   57.8780 N   0  0  0  0  0  0  0  0  0  0  0  0
  126.7640  122.8320   56.7420 C   0  0  0  0  0  0  0  0  0  0  0  0
  127.1210  123.2100   55.4490 C   0  0  0  0  0  0  0  0  0  0  0  0
  126.4530  122.3360   54.6230 C   0  0  0  0  0  0  0  0  0  0  0  0
  125.7320  121.4750   55.3810 O   0  0  0  0  0  0  0  0  0  0  0  0
  125.9370  121.8000   56.7220 N   0  0  0  0  0  0  0  0  0  0  0  0
  128.3190  123.3370   61.6540 S   0  0  0  0  0  0  0  0  0  0  0  0
  128.8270  124.9180   62.1960 C   0  0  0  0  0  0  0  0  0  0  0  0
  128.9960  125.1920   63.4880 N   0  0  0  0  0  0  0  0  0  0  0  0
  129.3760  126.4570   63.8060 C   0  0  0  0  0  0  0  0  0  0  0  0
  129.5380  126.7440   65.2640 C   0  0  0  0  0  0  0  0  0  0  0  0
  130.4380  126.0120   66.0500 C   0  0  0  0  0  0  0  0  0  0  0  0
  130.5740  126.2740   67.4100 C   0  0  0  0  0  0  0  0  0  0  0  0
  129.8060  127.2660   68.0380 C   0  0  0  0  0  0  0  0  0  0  0  0
  129.9340  127.5420   69.4040 N   0  0  0  0  0  0  0  0  0  0  0  0
  131.1720  128.1270   69.9570 C   0  0  0  0  0  0  0  0  0  0  0  0
  131.0140  128.6790   71.3890 C   0  0  0  0  0  0  0  0  0  0  0  0
  130.5040  127.6700   72.2440 O   0  0  0  0  0  0  0  0  0  0  0  0
  129.2300  127.2190   71.8140 C   0  0  0  0  0  0  0  0  0  0  0  0
  129.3290  126.6250   70.3920 C   0  0  0  0  0  0  0  0  0  0  0  0
  128.9210  128.0080   67.2420 C   0  0  0  0  0  0  0  0  0  0  0  0
  128.7880  127.7500   65.8810 C   0  0  0  0  0  0  0  0  0  0  0  0
  129.6110  127.4330   62.8340 C   0  0  0  0  0  0  0  0  0  0  0  0
  129.4540  127.1430   61.4730 C   0  0  0  0  0  0  0  0  0  0  0  0
  129.7450  128.2060   60.4780 C   0  0  0  0  0  0  0  0  0  0  0  0
  130.8440  128.0910   59.6250 C   0  0  0  0  0  0  0  0  0  0  0  0
  131.1080  129.0760   58.6780 C   0  0  0  0  0  0  0  0  0  0  0  0
  130.2810  130.2040   58.5590 C   0  0  0  0  0  0  0  0  0  0  0  0
  130.5190  131.1970   57.6050 N   0  0  0  0  0  0  0  0  0  0  0  0
  129.4830  132.2160   57.3500 C   0  0  0  0  0  0  0  0  0  0  0  0
  129.6980  132.9850   56.0290 C   0  0  0  0  0  0  0  0  0  0  0  0
  130.9920  133.5690   56.0120 O   0  0  0  0  0  0  0  0  0  0  0  0
  132.0130  132.5880   56.1220 C   0  0  0  0  0  0  0  0  0  0  0  0
  131.8540  131.8060   57.4430 C   0  0  0  0  0  0  0  0  0  0  0  0
  129.1690  130.2990   59.4090 C   0  0  0  0  0  0  0  0  0  0  0  0
  128.9050  129.3140   60.3560 C   0  0  0  0  0  0  0  0  0  0  0  0
  129.0230  125.8340   61.1200 C   0  0  0  0  0  0  0  0  0  0  0  0
  1  2  1  0
  2  3  2  0
  3  4  1  0
  4  5  2  0
  4  6  1  0
  6  7  1  0
  7  8  1  0
  8  9  2  0
  9 10  1  0
 10 11  1  0
  3 12  1  0
 12 13  1  0
 13 14  2  0
 14 15  1  0
 15 16  1  0
 16 17  2  0
 17 18  1  0
 18 19  2  0
 19 20  1  0
 20 21  1  0
 21 22  1  0
 22 23  1  0
 23 24  1  0
 24 25  1  0
 19 26  1  0
 26 27  2  0
 15 28  2  0
 28 29  1  0
 29 30  1  0
 30 31  2  0
 31 32  1  0
 32 33  2  0
 33 34  1  0
 34 35  1  0
 35 36  1  0
 36 37  1  0
 37 38  1  0
 38 39  1  0
 33 40  1  0
 40 41  2  0
 29 42  2  0
 42  2  1  0
 11  7  2  0
 42 13  1  0
 27 16  1  0
 41 30  1  0
 25 20  1  0
 39 34  1  0
M  END
>  <Binding energies>  (40) 
[-10.25]

>  <Ligand effiencies>  (40) 
[-0.22777777777777777]

>  <Interactions>  (40) 
["V-A:LEU:363:CD1:3188, V-A:ILE:538:CB:4862, V-A:ILE:538:CG2:4863, V-A:ILE:538:CA:4860, V-A:MET:535:CE:4835, H-A:TYR:539:N:4870, V-B:TYR:539:CD2:9845, V-B:PRO:540:N:9855, V-B:TYR:539:CD1:9844, V-B:TYR:539:CE2:9847, V-B:MET:535:CE:9806, V-B:ILE:538:CA:9831, V-B:TYR:539:CE1:9846, V-B:PRO:540:CA:9854, V-B:ALA:541:CB:9863, V-A:GLU:543:CD:4908, V-B:HIS:456:CE1:9041, V-A:HIS:456:CE1:4069, V-A:GLU:543:CG:4907, V-B:GLU:543:CD:9879, H-B:TYR:539:N:9841, V-A:ASP:366:CG:3212, V-B:ILE:538:CD1:9836, V-A:TYR:539:CE1:4875, V-A:TYR:539:CD1:4873, V-A:GLU:543:CB:4906, V-A:GLY:544:C:4912"]

$$$$
9c_Ghoteimi_2023
     RDKit          3D

 42 48  0  0  0  0  0  0  0  0999 V2000
  130.2350  124.4720   66.5690 N   0  0  0  0  0  0  0  0  0  0  0  0
  129.9120  125.1050   65.3950 C   0  0  0  0  0  0  0  0  0  0  0  0
  130.0920  124.5260   64.1300 C   0  0  0  0  0  0  0  0  0  0  0  0
  130.6120  123.1950   63.8000 C   0  0  0  0  0  0  0  0  0  0  0  0
  131.1620  122.5020   64.6570 O   0  0  0  0  0  0  0  0  0  0  0  0
  130.4440  122.8090   62.5110 N   0  0  0  0  0  0  0  0  0  0  0  0
  130.8540  121.6130   61.9380 C   0  0  0  0  0  0  0  0  0  0  0  0
  130.1260  120.5470   61.6850 N   0  0  0  0  0  0  0  0  0  0  0  0
  130.8470  119.5860   61.1390 C   0  0  0  0  0  0  0  0  0  0  0  0
  132.1960  119.8670   60.9380 C   0  0  0  0  0  0  0  0  0  0  0  0
  132.5270  121.4790   61.4990 S   0  0  0  0  0  0  0  0  0  0  0  0
  129.6000  125.6300   62.8470 S   0  0  0  0  0  0  0  0  0  0  0  0
  129.1750  126.8640   64.0090 C   0  0  0  0  0  0  0  0  0  0  0  0
  128.7200  128.0560   63.6280 N   0  0  0  0  0  0  0  0  0  0  0  0
  128.4350  128.9500   64.6100 C   0  0  0  0  0  0  0  0  0  0  0  0
  127.9480  130.2870   64.1530 C   0  0  0  0  0  0  0  0  0  0  0  0
  126.7390  130.8160   64.6200 C   0  0  0  0  0  0  0  0  0  0  0  0
  126.2850  132.0570   64.1850 C   0  0  0  0  0  0  0  0  0  0  0  0
  127.0180  132.8110   63.2540 C   0  0  0  0  0  0  0  0  0  0  0  0
  126.5790  134.0640   62.8120 N   0  0  0  0  0  0  0  0  0  0  0  0
  125.1800  134.2830   62.3890 C   0  0  0  0  0  0  0  0  0  0  0  0
  124.7900  135.7710   62.2720 C   0  0  0  0  0  0  0  0  0  0  0  0
  125.6920  136.4420   61.4070 O   0  0  0  0  0  0  0  0  0  0  0  0
  127.0220  136.3820   61.8960 C   0  0  0  0  0  0  0  0  0  0  0  0
  127.4820  134.9120   62.0060 C   0  0  0  0  0  0  0  0  0  0  0  0
  128.2370  132.2850   62.8040 C   0  0  0  0  0  0  0  0  0  0  0  0
  128.6930  131.0450   63.2440 C   0  0  0  0  0  0  0  0  0  0  0  0
  128.5770  128.6420   65.9650 C   0  0  0  0  0  0  0  0  0  0  0  0
  129.0330  127.3830   66.3710 C   0  0  0  0  0  0  0  0  0  0  0  0
  129.1370  127.0920   67.8230 C   0  0  0  0  0  0  0  0  0  0  0  0
  130.1010  127.7340   68.6020 C   0  0  0  0  0  0  0  0  0  0  0  0
  130.1910  127.4770   69.9680 C   0  0  0  0  0  0  0  0  0  0  0  0
  129.3200  126.5700   70.5890 C   0  0  0  0  0  0  0  0  0  0  0  0
  129.3840  126.3050   71.9610 N   0  0  0  0  0  0  0  0  0  0  0  0
  129.0130  127.3670   72.9170 C   0  0  0  0  0  0  0  0  0  0  0  0
  129.4950  127.0850   74.3570 C   0  0  0  0  0  0  0  0  0  0  0  0
  129.0100  125.8240   74.7930 O   0  0  0  0  0  0  0  0  0  0  0  0
  129.4690  124.7700   73.9620 C   0  0  0  0  0  0  0  0  0  0  0  0
  128.9910  124.9930   72.5100 C   0  0  0  0  0  0  0  0  0  0  0  0
  128.3410  125.9470   69.8000 C   0  0  0  0  0  0  0  0  0  0  0  0
  128.2520  126.2030   68.4350 C   0  0  0  0  0  0  0  0  0  0  0  0
  129.3730  126.4410   65.3580 C   0  0  0  0  0  0  0  0  0  0  0  0
  1  2  1  0
  2  3  2  0
  3  4  1  0
  4  5  2  0
  4  6  1  0
  6  7  1  0
  7  8  2  0
  8  9  1  0
  9 10  2  0
 10 11  1  0
  3 12  1  0
 12 13  1  0
 13 14  2  0
 14 15  1  0
 15 16  1  0
 16 17  2  0
 17 18  1  0
 18 19  2  0
 19 20  1  0
 20 21  1  0
 21 22  1  0
 22 23  1  0
 23 24  1  0
 24 25  1  0
 19 26  1  0
 26 27  2  0
 15 28  2  0
 28 29  1  0
 29 30  1  0
 30 31  2  0
 31 32  1  0
 32 33  2  0
 33 34  1  0
 34 35  1  0
 35 36  1  0
 36 37  1  0
 37 38  1  0
 38 39  1  0
 33 40  1  0
 40 41  2  0
 29 42  2  0
 42  2  1  0
 11  7  1  0
 42 13  1  0
 27 16  1  0
 41 30  1  0
 25 20  1  0
 39 34  1  0
M  END
>  <Binding energies>  (41) 
[-9.32]

>  <Ligand effiencies>  (41) 
[-0.2071111111111111]

>  <Interactions>  (41) 
["V-B:TRP:381:CH2:8343, V-B:TRP:381:CZ2:8341, V-B:LEU:475:CD1:9229, V-B:PRO:482:CB:9297, V-A:ALA:541:CB:4892, V-B:PRO:482:CG:9298, V-B:TYR:539:CD2:9845, V-A:ILE:369:CG2:3236, V-A:LEU:475:CD2:4258, V-B:ALA:541:CB:9863, V-A:GLU:543:CD:4908, V-B:HIS:456:CE1:9041, V-A:HIS:456:CE1:4069, V-A:GLU:543:CG:4907, V-B:GLU:543:CD:9879, V-A:TYR:484:CZ:4346, H-A:TYR:484:OH:4347, V-B:GLU:543:CG:9878, V-B:GLU:543:CB:9877, V-A:TRP:381:CZ2:3369, V-A:TRP:381:CH2:3371, V-A:PRO:482:CB:4325, H-B:LYS:547:NZ:9922, V-B:HIS:456:CD2:9039, V-A:HIS:456:CD2:4067, V-B:GLU:543:C:9873, V-A:GLU:543:CB:4906, V-A:TYR:484:CE1:4344, V-B:LYS:547:CE:9921, H-A:HIS:456:NE2:4070"]

$$$$
RR11_Rahimova_2017
     RDKit          3D

 33 38  0  0  0  0  0  0  0  0999 V2000
  133.8660  121.5770   62.1730 N   0  0  0  0  0  0  0  0  0  0  0  0
  133.1040  122.4170   62.9830 C   0  0  0  0  0  0  0  0  0  0  0  0
  131.9310  121.9410   63.5660 C   0  0  0  0  0  0  0  0  0  0  0  0
  131.1720  122.7800   64.3770 C   0  0  0  0  0  0  0  0  0  0  0  0
  131.5770  124.1000   64.6130 C   0  0  0  0  0  0  0  0  0  0  0  0
  130.7610  125.0010   65.4920 C   0  0  0  0  0  0  0  0  0  0  0  0
  130.1910  126.1160   65.0880 N   0  0  0  0  0  0  0  0  0  0  0  0
  129.5440  126.6110   66.1900 C   0  0  0  0  0  0  0  0  0  0  0  0
  128.7720  127.7740   66.3160 C   0  0  0  0  0  0  0  0  0  0  0  0
  128.1930  128.0570   67.5590 C   0  0  0  0  0  0  0  0  0  0  0  0
  127.3540  129.3170   67.7270 C   0  0  0  0  0  0  0  0  0  0  0  0
  126.4290  129.5760   66.5460 C   0  0  0  0  0  0  0  0  0  0  0  0
  125.0520  129.6990   66.7630 C   0  0  0  0  0  0  0  0  0  0  0  0
  124.1650  129.9460   65.7140 C   0  0  0  0  0  0  0  0  0  0  0  0
  124.6900  130.0770   64.4220 C   0  0  0  0  0  0  0  0  0  0  0  0
  124.0390  130.3110   63.2390 N   0  0  0  0  0  0  0  0  0  0  0  0
  124.9820  130.3420   62.3230 C   0  0  0  0  0  0  0  0  0  0  0  0
  124.7360  130.5570   60.8570 C   0  0  0  0  0  0  0  0  0  0  0  0
  123.6390  131.3130   60.4240 C   0  0  0  0  0  0  0  0  0  0  0  0
  123.4040  131.5040   59.0650 C   0  0  0  0  0  0  0  0  0  0  0  0
  124.2660  130.9390   58.1280 C   0  0  0  0  0  0  0  0  0  0  0  0
  124.0290  131.1260   56.7660 N   0  0  0  0  0  0  0  0  0  0  0  0
  125.3630  130.1890   58.5430 C   0  0  0  0  0  0  0  0  0  0  0  0
  125.5970  129.9990   59.9020 C   0  0  0  0  0  0  0  0  0  0  0  0
  126.2350  130.1420   62.8640 N   0  0  0  0  0  0  0  0  0  0  0  0
  126.0870  129.9640   64.2190 C   0  0  0  0  0  0  0  0  0  0  0  0
  126.9800  129.7220   65.2660 C   0  0  0  0  0  0  0  0  0  0  0  0
  128.4020  127.2100   68.6530 C   0  0  0  0  0  0  0  0  0  0  0  0
  129.1700  126.0470   68.5610 C   0  0  0  0  0  0  0  0  0  0  0  0
  129.7290  125.7680   67.3120 C   0  0  0  0  0  0  0  0  0  0  0  0
  130.5160  124.7500   66.8260 N   0  0  0  0  0  0  0  0  0  0  0  0
  132.7580  124.5660   64.0180 C   0  0  0  0  0  0  0  0  0  0  0  0
  133.5190  123.7290   63.2070 C   0  0  0  0  0  0  0  0  0  0  0  0
  1  2  1  0
  2  3  2  0
  3  4  1  0
  4  5  2  0
  5  6  1  0
  6  7  2  0
  7  8  1  0
  8  9  2  0
  9 10  1  0
 10 11  1  0
 11 12  1  0
 12 13  2  0
 13 14  1  0
 14 15  2  0
 15 16  1  0
 16 17  2  0
 17 18  1  0
 18 19  2  0
 19 20  1  0
 20 21  2  0
 21 22  1  0
 21 23  1  0
 23 24  2  0
 17 25  1  0
 25 26  1  0
 26 27  2  0
 10 28  2  0
 28 29  1  0
 29 30  2  0
 30 31  1  0
  5 32  1  0
 32 33  2  0
 33  2  1  0
 31  6  1  0
 30  8  1  0
 27 12  1  0
 26 15  1  0
 24 18  1  0
M  END
>  <Binding energies>  (42) 
[-8.86]

>  <Ligand effiencies>  (42) 
[-0.22717948717948716]

>  <Interactions>  (42) 
["V-B:ILE:369:CD1:8210, V-B:ILE:369:CG2:8208, V-A:ILE:369:CG2:3236, V-A:LEU:475:CD2:4258, V-A:TYR:539:CZ:4877, H-A:TYR:539:OH:4878, V-B:GLY:454:CA:9020, V-A:GLU:543:CD:4908, V-B:ARG:545:CD:9894, V-B:HIS:456:CE1:9041, V-A:HIS:456:CE1:4069, H-B:GLY:454:N:9021, H-B:ARG:545:NH2:9899, V-B:ARG:545:CZ:9897, V-A:GLU:543:CG:4907, V-B:ASP:366:CG:8184, V-B:GLU:543:CD:9879, V-B:TYR:531:CZ:9765, V-B:ASP:366:CB:8183, V-A:ILE:369:CD1:3238, V-A:TYR:484:CZ:4346, H-A:TYR:484:OH:4347, V-B:GLU:543:CG:9878, V-B:ASP:366:CA:8181, H-B:ASP:366:O:8180, V-B:ILE:369:CB:8207, V-B:TYR:531:CE1:9763, V-B:GLU:543:CB:9877, V-A:GLY:454:CA:4048, V-B:ASP:366:C:8179, V-B:ASN:370:CB:8216, V-A:TYR:484:CE1:4344, H-A:HIS:456:NE2:4070, V-B:ASN:370:CA:8214, H-A:SER:385:O:3405"]

$$$$
RR16_Rahimova_2017
     RDKit          3D

 44 49  0  0  0  0  0  0  0  0999 V2000
  123.4280  133.3500   62.3510 O   0  0  0  0  0  0  0  0  0  0  0  0
  123.8250  131.9400   62.2640 S   0  0  0  0  0  0  0  0  0  0  0  0
  122.8460  130.8680   62.4760 O   0  0  0  0  0  0  0  0  0  0  0  0
  125.1610  131.6940   63.3900 N   0  0  0  0  0  0  0  0  0  0  0  0
  125.6090  130.3290   63.7530 C   0  0  0  0  0  0  0  0  0  0  0  0
  127.0040  130.4120   64.4250 C   0  0  0  0  0  0  0  0  0  0  0  0
  127.3920  129.2780   65.3930 C   0  0  0  0  0  0  0  0  0  0  0  0
  126.8930  129.4870   66.8340 C   0  0  0  0  0  0  0  0  0  0  0  0
  125.3740  129.3370   67.0460 C   0  0  0  0  0  0  0  0  0  0  0  0
  124.4520  130.0960   66.0720 C   0  0  0  0  0  0  0  0  0  0  0  0
  124.4990  129.6570   64.5950 C   0  0  0  0  0  0  0  0  0  0  0  0
  124.5560  131.7070   60.6480 C   0  0  0  0  0  0  0  0  0  0  0  0
  123.7660  131.3040   59.5690 C   0  0  0  0  0  0  0  0  0  0  0  0
  124.3670  131.0080   58.3490 C   0  0  0  0  0  0  0  0  0  0  0  0
  125.7520  131.1160   58.2130 C   0  0  0  0  0  0  0  0  0  0  0  0
  126.5420  130.6010   56.6890 S   0  0  0  0  0  0  0  0  0  0  0  0
  127.4020  131.7060   56.2450 O   0  0  0  0  0  0  0  0  0  0  0  0
  125.4930  130.0780   55.8050 O   0  0  0  0  0  0  0  0  0  0  0  0
  127.5810  129.2470   57.1750 N   0  0  0  0  0  0  0  0  0  0  0  0
  127.6760  128.1540   56.1730 C   0  0  0  0  0  0  0  0  0  0  0  0
  128.3300  126.9050   56.7980 C   0  0  0  0  0  0  0  0  0  0  0  0
  129.6900  127.2380   57.4600 C   0  0  0  0  0  0  0  0  0  0  0  0
  130.3340  126.0200   58.1270 C   0  0  0  0  0  0  0  0  0  0  0  0
  131.7310  125.9220   58.1950 C   0  0  0  0  0  0  0  0  0  0  0  0
  132.3600  124.8330   58.8010 C   0  0  0  0  0  0  0  0  0  0  0  0
  133.7270  124.7550   58.8620 O   0  0  0  0  0  0  0  0  0  0  0  0
  131.5540  123.8240   59.3500 C   0  0  0  0  0  0  0  0  0  0  0  0
  131.8820  122.6730   60.0070 N   0  0  0  0  0  0  0  0  0  0  0  0
  130.7060  122.0510   60.3660 N   0  0  0  0  0  0  0  0  0  0  0  0
  129.6770  122.7840   59.8980 N   0  0  0  0  0  0  0  0  0  0  0  0
  128.3050  122.4030   60.2080 C   0  0  0  0  0  0  0  0  0  0  0  0
  127.3100  122.8890   59.1630 C   0  0  0  0  0  0  0  0  0  0  0  0
  126.2580  123.7330   59.5350 C   0  0  0  0  0  0  0  0  0  0  0  0
  125.3580  124.1980   58.5750 C   0  0  0  0  0  0  0  0  0  0  0  0
  125.5060  123.8230   57.2390 C   0  0  0  0  0  0  0  0  0  0  0  0
  126.5550  122.9840   56.8620 C   0  0  0  0  0  0  0  0  0  0  0  0
  126.7470  122.5280   55.2090 Cl  0  0  0  0  0  0  0  0  0  0  0  0
  127.4530  122.5150   57.8230 C   0  0  0  0  0  0  0  0  0  0  0  0
  130.1450  123.9260   59.2700 C   0  0  0  0  0  0  0  0  0  0  0  0
  129.5130  125.0150   58.6600 C   0  0  0  0  0  0  0  0  0  0  0  0
  129.5980  128.4630   58.4070 C   0  0  0  0  0  0  0  0  0  0  0  0
  128.8940  129.6590   57.7350 C   0  0  0  0  0  0  0  0  0  0  0  0
  126.5360  131.5600   59.2810 C   0  0  0  0  0  0  0  0  0  0  0  0
  125.9360  131.8520   60.5010 C   0  0  0  0  0  0  0  0  0  0  0  0
  1  2  2  0
  2  3  2  0
  2  4  1  0
  4  5  1  0
  5  6  1  0
  6  7  1  0
  7  8  1  0
  8  9  1  0
  9 10  1  0
 10 11  1  0
  2 12  1  0
 12 13  2  0
 13 14  1  0
 14 15  2  0
 15 16  1  0
 16 17  2  0
 16 18  2  0
 16 19  1  0
 19 20  1  0
 20 21  1  0
 21 22  1  0
 22 23  1  0
 23 24  2  0
 24 25  1  0
 25 26  1  0
 25 27  2  0
 27 28  1  0
 28 29  2  0
 29 30  1  0
 30 31  1  0
 31 32  1  0
 32 33  2  0
 33 34  1  0
 34 35  2  0
 35 36  1  0
 36 37  1  0
 36 38  2  0
 30 39  1  0
 39 40  2  0
 22 41  1  0
 41 42  1  0
 15 43  1  0
 43 44  2  0
 11  5  1  0
 44 12  1  0
 42 19  1  0
 40 23  1  0
 39 27  1  0
 38 32  1  0
M  END
>  <Binding energies>  (43) 
[-10.21]

>  <Ligand effiencies>  (43) 
[-0.21270833333333336]

>  <Interactions>  (43) 
["V-B:ILE:369:CD1:8210, V-B:ILE:369:CG2:8208, V-A:TYR:539:CE2:4876, V-A:MET:535:CE:4835, V-B:TYR:539:CD2:9845, V-B:PRO:540:N:9855, V-B:TYR:539:CD1:9844, V-B:TYR:539:CE2:9847, V-B:MET:535:CE:9806, V-B:TYR:539:CG:9843, V-B:ILE:538:CA:9831, V-B:TYR:539:CE1:9846, V-B:PRO:540:CA:9854, V-B:TYR:539:C:9838, V-B:PRO:540:CB:9856, V-B:PRO:540:C:9852, V-B:LEU:363:CD1:8160, V-A:TYR:539:CZ:4877, H-A:TYR:539:OH:4878, V-B:GLY:454:CA:9020, V-B:ARG:545:CG:9893, V-B:HIS:456:CE1:9041, H-B:GLY:454:N:9021, V-B:ARG:545:CZ:9897, V-A:GLU:543:CG:4907, V-B:ASP:366:CG:8184, V-B:GLU:543:CD:9879, V-B:TYR:539:CZ:9848, H-B:TYR:539:OH:9849, H-B:TYR:531:OH:9766, V-B:ASP:366:CB:8183, V-A:ASP:366:CB:3211, V-B:ASP:366:CA:8181, V-B:ILE:369:CB:8207, V-B:ASP:366:C:8179, H-A:ASP:366:O:3208"]

$$$$
RR18_Rahimova_2017
     RDKit          3D

 36 41  0  0  0  0  0  0  0  0999 V2000
  123.9740  123.6880   60.9960 C   0  0  0  0  0  0  0  0  0  0  0  0
  125.3650  124.1310   61.3740 C   0  0  0  0  0  0  0  0  0  0  0  0
  126.4030  123.5530   62.0870 C   0  0  0  0  0  0  0  0  0  0  0  0
  127.4490  124.4740   62.0940 C   0  0  0  0  0  0  0  0  0  0  0  0
  127.0140  125.5820   61.3850 C   0  0  0  0  0  0  0  0  0  0  0  0
  127.6510  126.9190   61.0140 C   0  0  1  0  0  0  0  0  0  0  0  0
  127.2220  127.3810   59.5900 C   0  0  0  0  0  0  0  0  0  0  0  0
  127.6140  126.6120   58.4140 C   0  0  0  0  0  0  0  0  0  0  0  0
  128.6240  126.8890   57.7630 O   0  0  0  0  0  0  0  0  0  0  0  0
  126.7890  125.5790   58.1260 N   0  0  0  0  0  0  0  0  0  0  0  0
  126.8330  124.6420   57.0710 C   0  0  0  0  0  0  0  0  0  0  0  0
  127.8850  124.5720   56.1400 C   0  0  0  0  0  0  0  0  0  0  0  0
  127.8650  123.6260   55.1170 C   0  0  0  0  0  0  0  0  0  0  0  0
  126.7960  122.7420   55.0030 C   0  0  0  0  0  0  0  0  0  0  0  0
  125.7420  122.8070   55.9120 C   0  0  0  0  0  0  0  0  0  0  0  0
  125.7490  123.7500   56.9440 C   0  0  0  0  0  0  0  0  0  0  0  0
  124.5680  123.7820   57.9100 C   0  0  0  0  0  0  0  0  0  0  0  0
  126.3920  128.4520   59.4810 C   0  0  0  0  0  0  0  0  0  0  0  0
  125.9940  129.2360   60.5210 N   0  0  0  0  0  0  0  0  0  0  0  0
  126.4770  129.0270   61.6890 C   0  0  0  0  0  0  0  0  0  0  0  0
  126.1780  130.0390   63.0830 S   0  0  0  0  0  0  0  0  0  0  0  0
  127.2340  129.0220   64.1130 C   0  0  0  0  0  0  0  0  0  0  0  0
  127.5210  129.2060   65.4490 C   0  0  0  0  0  0  0  0  0  0  0  0
  127.0040  130.3830   66.1630 C   0  0  0  0  0  0  0  0  0  0  0  0
  126.2850  131.2980   65.7650 O   0  0  0  0  0  0  0  0  0  0  0  0
  127.4780  130.3310   67.4120 N   0  0  0  0  0  0  0  0  0  0  0  0
  128.2390  129.2250   67.6460 C   0  0  0  0  0  0  0  0  0  0  0  0
  128.8690  128.8570   68.8340 C   0  0  0  0  0  0  0  0  0  0  0  0
  129.5800  127.6610   68.8750 C   0  0  0  0  0  0  0  0  0  0  0  0
  129.6410  126.8560   67.7390 C   0  0  0  0  0  0  0  0  0  0  0  0
  129.0020  127.2470   66.5600 C   0  0  0  0  0  0  0  0  0  0  0  0
  128.2980  128.4640   66.4910 C   0  0  0  0  0  0  0  0  0  0  0  0
  127.7710  127.9430   63.2840 C   0  0  0  0  0  0  0  0  0  0  0  0
  128.5730  127.0830   63.6350 O   0  0  0  0  0  0  0  0  0  0  0  0
  127.2950  127.9910   62.0100 N   0  0  0  0  0  0  0  0  0  0  0  0
  125.7430  125.3660   60.9510 O   0  0  0  0  0  0  0  0  0  0  0  0
  1  2  1  0
  2  3  2  0
  3  4  1  0
  4  5  2  0
  6  5  1  1
  6  7  1  0
  7  8  1  0
  8  9  2  0
  8 10  1  0
 10 11  1  0
 11 12  2  0
 12 13  1  0
 13 14  2  0
 14 15  1  0
 15 16  2  0
 16 17  1  0
  7 18  2  0
 18 19  1  0
 19 20  2  0
 20 21  1  0
 21 22  1  0
 22 23  2  0
 23 24  1  0
 24 25  2  0
 24 26  1  0
 26 27  1  0
 27 28  2  0
 28 29  1  0
 29 30  2  0
 30 31  1  0
 31 32  2  0
 22 33  1  0
 33 34  2  0
 33 35  1  0
  5 36  1  0
 36  2  1  0
 35  6  1  0
 16 11  1  0
 35 20  1  0
 32 23  1  0
 32 27  1  0
M  END
>  <Binding energies>  (44) 
[-8.48]

>  <Ligand effiencies>  (44) 
[-0.2231578947368421]

>  <Interactions>  (44) 
["V-B:TYR:539:CD1:9844, V-B:MET:535:CE:9806, V-B:TYR:539:CE1:9846, V-B:PRO:540:CA:9854, V-B:PRO:540:CB:9856, H-B:ASP:366:OD2:8186, V-B:LEU:363:CD1:8160, V-B:ALA:541:CB:9863, V-A:GLU:543:CD:4908, V-B:HIS:456:CE1:9041, V-A:HIS:456:CE1:4069, H-B:TYR:484:OH:9319, H-B:ARG:545:NH2:9899, V-A:GLU:543:CG:4907, V-B:ASP:366:CG:8184, V-B:GLU:543:CD:9879, V-B:TYR:539:CZ:9848, V-B:LEU:363:CA:8156, H-B:TYR:531:OH:9766, V-B:ASN:362:C:8143, V-B:ASN:362:CB:8147, V-B:GLU:543:CG:9878, V-B:ASN:362:CA:8145, V-B:TYR:484:CE1:9316, V-A:GLU:543:CB:4906, V-B:TYR:484:CZ:9318"]

$$$$
RR20_Rahimova_2017
     RDKit          3D

 38 43  0  0  0  0  0  0  0  0999 V2000
  135.7140  123.7720   76.9200 C   0  0  0  0  0  0  0  0  0  0  0  0
  134.4780  124.4500   76.3580 C   0  0  0  0  0  0  0  0  0  0  0  0
  133.2160  123.9110   76.6070 C   0  0  0  0  0  0  0  0  0  0  0  0
  132.0800  124.5360   76.0990 C   0  0  0  0  0  0  0  0  0  0  0  0
  132.1980  125.6980   75.3270 C   0  0  0  0  0  0  0  0  0  0  0  0
  130.9500  126.3730   74.8020 C   0  0  0  0  0  0  0  0  0  0  0  0
  130.5790  127.4050   75.3660 O   0  0  0  0  0  0  0  0  0  0  0  0
  130.2970  125.8330   73.7320 N   0  0  0  0  0  0  0  0  0  0  0  0
  129.3550  124.7120   73.8870 C   0  0  0  0  0  0  0  0  0  0  0  0
  128.7210  124.4930   72.5240 C   0  0  0  0  0  0  0  0  0  0  0  0
  129.0730  125.7490   71.7870 C   0  0  0  0  0  0  0  0  0  0  0  0
  128.6870  126.1560   70.5090 C   0  0  0  0  0  0  0  0  0  0  0  0
  129.2520  127.2950   69.9220 C   0  0  0  0  0  0  0  0  0  0  0  0
  128.8300  127.7390   68.5490 C   0  0  0  0  0  0  0  0  0  0  0  0
  127.8870  128.6620   68.4490 N   0  0  0  0  0  0  0  0  0  0  0  0
  127.6140  128.9860   67.2110 C   0  0  0  0  0  0  0  0  0  0  0  0
  126.6900  129.9140   66.7540 N   0  0  0  0  0  0  0  0  0  0  0  0
  125.8600  129.7830   65.6910 C   0  0  0  0  0  0  0  0  0  0  0  0
  125.8040  128.7770   64.9810 O   0  0  0  0  0  0  0  0  0  0  0  0
  124.9070  130.9570   65.3640 C   0  0  0  0  0  0  0  0  0  0  0  0
  125.5830  132.0730   64.6750 N   0  0  0  0  0  0  0  0  0  0  0  0
  126.8960  131.6880   64.1360 C   0  0  0  0  0  0  0  0  0  0  0  0
  127.6690  132.9420   63.6680 C   0  0  0  0  0  0  0  0  0  0  0  0
  126.8100  133.8980   62.8400 C   0  0  0  0  0  0  0  0  0  0  0  0
  127.3910  134.9400   62.1100 C   0  0  0  0  0  0  0  0  0  0  0  0
  126.6060  135.8340   61.3860 C   0  0  0  0  0  0  0  0  0  0  0  0
  125.2220  135.6930   61.3820 C   0  0  0  0  0  0  0  0  0  0  0  0
  124.6310  134.6540   62.0970 C   0  0  0  0  0  0  0  0  0  0  0  0
  125.4080  133.7500   62.8290 C   0  0  0  0  0  0  0  0  0  0  0  0
  124.7630  132.5750   63.5670 C   0  0  0  0  0  0  0  0  0  0  0  0
  128.5300  128.1300   66.0330 S   0  0  0  0  0  0  0  0  0  0  0  0
  129.3360  127.2650   67.3200 C   0  0  0  0  0  0  0  0  0  0  0  0
  130.3590  126.1960   67.0010 C   0  0  0  0  0  0  0  0  0  0  0  0
  130.2540  127.9830   70.6240 C   0  0  0  0  0  0  0  0  0  0  0  0
  130.6550  127.5680   71.8930 C   0  0  0  0  0  0  0  0  0  0  0  0
  130.0210  126.4780   72.5050 C   0  0  0  0  0  0  0  0  0  0  0  0
  133.4660  126.2500   75.1060 C   0  0  0  0  0  0  0  0  0  0  0  0
  134.6030  125.6250   75.6140 C   0  0  0  0  0  0  0  0  0  0  0  0
  1  2  1  0
  2  3  2  0
  3  4  1  0
  4  5  2  0
  5  6  1  0
  6  7  2  0
  6  8  1  0
  8  9  1  0
  9 10  1  0
 10 11  1  0
 11 12  2  0
 12 13  1  0
 13 14  1  0
 14 15  1  0
 15 16  2  0
 16 17  1  0
 17 18  1  0
 18 19  2  0
 18 20  1  0
 20 21  1  0
 21 22  1  0
 22 23  1  0
 23 24  1  0
 24 25  2  0
 25 26  1  0
 26 27  2  0
 27 28  1  0
 28 29  2  0
 29 30  1  0
 16 31  1  0
 31 32  1  0
 32 33  1  0
 13 34  2  0
 34 35  1  0
 35 36  2  0
  5 37  1  0
 37 38  2  0
 38  2  1  0
 36  8  1  0
 36 11  1  0
 32 14  2  0
 30 21  1  0
 29 24  1  0
M  END
>  <Binding energies>  (45) 
[-10.53]

>  <Ligand effiencies>  (45) 
[-0.26999999999999996]

>  <Interactions>  (45) 
["V-B:TRP:381:CH2:8343, V-B:TRP:381:CZ2:8341, V-B:LEU:475:CD1:9229, V-A:TYR:539:CD2:4874, V-A:ALA:541:CB:4892, V-B:GLY:454:CA:9020, V-A:GLU:543:CD:4908, H-B:ARG:545:NE:9895, V-B:HIS:456:CE1:9041, V-A:HIS:456:CE1:4069, H-B:TYR:484:OH:9319, H-B:ARG:545:NH2:9899, V-A:GLU:543:CG:4907, V-B:GLU:543:CD:9879, V-A:HIS:456:CD2:4067, V-B:TYR:484:CZ:9318, V-A:LYS:547:CE:4950, V-A:HIS:456:CG:4065, H-A:LYS:547:NZ:4951, V-A:HIS:456:CB:4064, V-A:ASP:473:CG:4239, V-A:LYS:471:CD:4218, V-A:VAL:458:CG2:4086, V-A:HIS:456:C:4060, V-B:LYS:547:CE:9921, V-A:VAL:457:C:4072, V-A:HIS:456:CA:4062, V-A:VAL:457:CA:4074, V-A:LYS:471:CB:4216, V-A:LYS:471:C:4212, V-A:LYS:471:CG:4217"]

$$$$
RR21_Rahimova_2017
     RDKit          3D

 40 45  0  0  0  0  0  0  0  0999 V2000
  132.0010  131.5890   54.8710 C   0  0  0  0  0  0  0  0  0  0  0  0
  132.2430  132.2350   56.1170 O   0  0  0  0  0  0  0  0  0  0  0  0
  131.2100  132.3560   57.0280 C   0  0  0  0  0  0  0  0  0  0  0  0
  131.2980  131.9740   58.3770 C   0  0  0  0  0  0  0  0  0  0  0  0
  130.2080  132.1330   59.2320 C   0  0  0  0  0  0  0  0  0  0  0  0
  129.0070  132.6790   58.7650 C   0  0  0  0  0  0  0  0  0  0  0  0
  127.8390  132.8530   59.6870 C   0  0  0  0  0  0  0  0  0  0  0  0
  127.6270  134.0200   60.2630 N   0  0  0  0  0  0  0  0  0  0  0  0
  126.5280  133.8810   61.0200 N   0  0  0  0  0  0  0  0  0  0  0  0
  126.0030  134.9660   61.7690 C   0  0  0  0  0  0  0  0  0  0  0  0
  126.8260  136.0340   62.1590 C   0  0  0  0  0  0  0  0  0  0  0  0
  126.2980  137.0950   62.8910 C   0  0  0  0  0  0  0  0  0  0  0  0
  124.9480  137.0920   63.2340 C   0  0  0  0  0  0  0  0  0  0  0  0
  124.1220  136.0370   62.8560 C   0  0  0  0  0  0  0  0  0  0  0  0
  124.6470  134.9750   62.1250 C   0  0  0  0  0  0  0  0  0  0  0  0
  126.0310  132.6080   60.9050 C   0  0  0  0  0  0  0  0  0  0  0  0
  126.8650  131.8970   60.0550 C   0  0  0  0  0  0  0  0  0  0  0  0
  126.7210  130.5240   59.5950 C   0  0  0  0  0  0  0  0  0  0  0  0
  127.1200  129.3880   60.2110 C   0  0  0  0  0  0  0  0  0  0  0  0
  127.9540  129.2280   61.7730 S   0  0  0  0  0  0  0  0  0  0  0  0
  127.9350  127.4800   61.5890 C   0  0  0  0  0  0  0  0  0  0  0  0
  128.3900  126.5880   62.4130 N   0  0  0  0  0  0  0  0  0  0  0  0
  128.3010  125.1940   62.1470 C   0  0  0  0  0  0  0  0  0  0  0  0
  128.6880  124.2880   62.8840 O   0  0  0  0  0  0  0  0  0  0  0  0
  127.6530  124.8680   60.8290 C   0  0  0  0  0  0  0  0  0  0  0  0
  127.5190  123.3940   60.4240 C   0  0  0  0  0  0  0  0  0  0  0  0
  126.9310  123.1750   59.0310 C   0  0  0  0  0  0  0  0  0  0  0  0
  127.6760  122.5130   58.0530 C   0  0  0  0  0  0  0  0  0  0  0  0
  127.1330  122.2990   56.7880 C   0  0  0  0  0  0  0  0  0  0  0  0
  125.8410  122.7440   56.5000 C   0  0  0  0  0  0  0  0  0  0  0  0
  125.2490  122.4980   55.1250 C   0  0  0  0  0  0  0  0  0  0  0  0
  125.0900  123.3970   57.4810 C   0  0  0  0  0  0  0  0  0  0  0  0
  125.6330  123.6110   58.7440 C   0  0  0  0  0  0  0  0  0  0  0  0
  127.2090  125.7680   60.0140 N   0  0  0  0  0  0  0  0  0  0  0  0
  127.3520  127.1050   60.4070 N   0  0  0  0  0  0  0  0  0  0  0  0
  126.8860  128.0880   59.5980 C   0  0  0  0  0  0  0  0  0  0  0  0
  126.3400  127.9010   58.5040 O   0  0  0  0  0  0  0  0  0  0  0  0
  128.9170  133.0530   57.4200 C   0  0  0  0  0  0  0  0  0  0  0  0
  130.0060  132.8950   56.5630 C   0  0  0  0  0  0  0  0  0  0  0  0
  129.8870  133.2680   55.2670 F   0  0  0  0  0  0  0  0  0  0  0  0
  1  2  1  0
  2  3  1  0
  3  4  2  0
  4  5  1  0
  5  6  2  0
  6  7  1  0
  7  8  2  0
  8  9  1  0
  9 10  1  0
 10 11  2  0
 11 12  1  0
 12 13  2  0
 13 14  1  0
 14 15  2  0
  9 16  1  0
 16 17  2  0
 17 18  1  0
 18 19  2  0
 19 20  1  0
 20 21  1  0
 21 22  2  0
 22 23  1  0
 23 24  2  0
 23 25  1  0
 25 26  1  0
 26 27  1  0
 27 28  2  0
 28 29  1  0
 29 30  2  0
 30 31  1  0
 30 32  1  0
 32 33  2  0
 25 34  2  0
 34 35  1  0
 35 36  1  0
 36 37  2  0
  6 38  1  0
 38 39  2  0
 39 40  1  0
 39  3  1  0
 17  7  1  0
 36 19  1  0
 15 10  1  0
 35 21  1  0
 33 27  1  0
M  END
>  <Binding energies>  (46) 
[-10.06]

>  <Ligand effiencies>  (46) 
[-0.2515]

>  <Interactions>  (46) 
["V-A:LEU:363:CD1:3188, V-B:TRP:381:CH2:8343, V-A:ILE:538:CB:4862, V-A:TYR:539:CE2:4876, V-B:TRP:381:CZ2:8341, V-A:TYR:539:C:4867, V-A:ILE:538:C:4858, V-A:PRO:540:CA:4883, V-B:SER:385:CB:8380, V-A:ILE:538:CG2:4863, V-A:PRO:540:CB:4885, V-B:LEU:475:CD1:9229, V-A:ILE:538:CA:4860, V-A:PRO:540:N:4884, V-B:PRO:482:CB:9297, V-A:MET:535:CE:4835, V-A:TYR:539:CD2:4874, V-B:TRP:381:CE2:8338, V-A:ALA:541:CB:4892, V-B:LEU:475:CB:9227, V-B:PRO:482:CG:9298, V-B:TYR:539:CD2:9845, V-B:PRO:540:N:9855, V-B:TYR:539:CD1:9844, V-B:TYR:539:CE2:9847, V-B:MET:535:CE:9806, V-B:TYR:539:CG:9843, V-B:ILE:538:CA:9831, V-B:ILE:538:CG2:9834, V-B:TYR:539:CE1:9846, V-B:PRO:540:CA:9854, V-B:TYR:539:C:9838, V-B:PRO:540:CB:9856, V-B:TYR:539:CA:9840, V-B:PRO:540:CD:9858, V-B:LEU:363:CD1:8160, V-A:TYR:539:CZ:4877, V-A:TYR:531:CZ:4794, V-A:TYR:531:CE2:4793, V-A:MET:535:CG:4833, V-B:GLU:543:CD:9879, V-B:TYR:539:CZ:9848, H-B:TYR:531:OH:9766, V-B:ILE:538:CD1:9836, V-A:TYR:539:CE1:4875, V-A:TYR:539:CG:4872, V-B:LEU:475:CG:9228, V-A:TYR:539:CD1:4873, V-B:SER:385:CA:8378, V-B:SER:385:C:8376"]

$$$$
RR23_Rahimova_2017
     RDKit          3D

 39 44  0  0  0  0  0  0  0  0999 V2000
  124.1330  124.2020   60.9900 C   0  0  0  0  0  0  0  0  0  0  0  0
  124.8940  123.9170   59.7070 C   0  0  0  0  0  0  0  0  0  0  0  0
  124.2760  124.1140   58.4710 C   0  0  0  0  0  0  0  0  0  0  0  0
  124.9780  123.8610   57.2950 C   0  0  0  0  0  0  0  0  0  0  0  0
  126.2980  123.3990   57.3460 C   0  0  0  0  0  0  0  0  0  0  0  0
  127.0490  123.1510   56.0570 C   0  0  0  0  0  0  0  0  0  0  0  0
  126.8020  122.1100   55.4430 O   0  0  0  0  0  0  0  0  0  0  0  0
  127.9510  124.0790   55.6170 N   0  0  0  0  0  0  0  0  0  0  0  0
  128.5670  123.9810   54.2840 C   0  0  0  0  0  0  0  0  0  0  0  0
  129.3840  125.2490   54.0970 C   0  0  0  0  0  0  0  0  0  0  0  0
  128.8680  126.1420   55.1850 C   0  0  0  0  0  0  0  0  0  0  0  0
  129.1860  127.4730   55.4530 C   0  0  0  0  0  0  0  0  0  0  0  0
  128.7160  128.0930   56.6200 C   0  0  0  0  0  0  0  0  0  0  0  0
  129.0420  129.5570   56.9540 C   0  0  2  0  0  0  0  0  0  0  0  0
  129.3670  129.7390   58.3530 N   0  0  0  0  0  0  0  0  0  0  0  0
  129.0070  130.8830   58.7780 C   0  0  0  0  0  0  0  0  0  0  0  0
  129.1280  131.3860   60.0360 N   0  0  0  0  0  0  0  0  0  0  0  0
  129.5270  130.7480   61.1630 C   0  0  0  0  0  0  0  0  0  0  0  0
  129.8990  129.5740   61.2290 O   0  0  0  0  0  0  0  0  0  0  0  0
  129.4950  131.5920   62.4480 C   0  0  0  0  0  0  0  0  0  0  0  0
  128.5100  132.6840   62.2860 N   0  0  0  0  0  0  0  0  0  0  0  0
  129.0000  133.8480   61.7070 N   0  0  0  0  0  0  0  0  0  0  0  0
  128.2400  134.8780   61.5110 N   0  0  0  0  0  0  0  0  0  0  0  0
  126.8950  134.8290   61.8840 C   0  0  0  0  0  0  0  0  0  0  0  0
  126.1030  135.9580   61.6610 C   0  0  0  0  0  0  0  0  0  0  0  0
  124.7550  135.9400   62.0230 C   0  0  0  0  0  0  0  0  0  0  0  0
  124.2000  134.8000   62.6080 C   0  0  0  0  0  0  0  0  0  0  0  0
  124.9900  133.6710   62.8330 C   0  0  0  0  0  0  0  0  0  0  0  0
  126.3410  133.6880   62.4670 C   0  0  0  0  0  0  0  0  0  0  0  0
  127.2140  132.4780   62.7060 C   0  0  0  0  0  0  0  0  0  0  0  0
  126.8120  131.4340   63.2260 O   0  0  0  0  0  0  0  0  0  0  0  0
  128.2300  131.9780   57.5990 S   0  0  0  0  0  0  0  0  0  0  0  0
  127.9580  130.5680   56.5120 C   0  0  2  0  0  0  0  0  0  0  0  0
  126.4900  130.1100   56.6400 C   0  0  0  0  0  0  0  0  0  0  0  0
  127.9660  127.3390   57.5310 C   0  0  0  0  0  0  0  0  0  0  0  0
  127.6660  126.0010   57.2730 C   0  0  0  0  0  0  0  0  0  0  0  0
  128.0700  125.4130   56.0670 C   0  0  0  0  0  0  0  0  0  0  0  0
  126.9200  123.2310   58.5900 C   0  0  0  0  0  0  0  0  0  0  0  0
  126.2190  123.4850   59.7650 C   0  0  0  0  0  0  0  0  0  0  0  0
  1  2  1  0
  2  3  2  0
  3  4  1  0
  4  5  2  0
  5  6  1  0
  6  7  2  0
  6  8  1  0
  8  9  1  0
  9 10  1  0
 10 11  1  0
 11 12  2  0
 12 13  1  0
 14 13  1  1
 14 15  1  0
 15 16  2  0
 16 17  1  0
 17 18  1  0
 18 19  2  0
 18 20  1  0
 20 21  1  0
 21 22  1  0
 22 23  2  0
 23 24  1  0
 24 25  2  0
 25 26  1  0
 26 27  2  0
 27 28  1  0
 28 29  2  0
 29 30  1  0
 30 31  2  0
 16 32  1  0
 32 33  1  0
 33 34  1  1
 13 35  2  0
 35 36  1  0
 36 37  2  0
  5 38  1  0
 38 39  2  0
 39  2  1  0
 37  8  1  0
 37 11  1  0
 33 14  1  0
 30 21  1  0
 29 24  1  0
M  END
>  <Binding energies>  (47) 
[-10.59]

>  <Ligand effiencies>  (47) 
[-0.26475]

>  <Interactions>  (47) 
["V-B:TRP:381:CH2:8343, V-B:TRP:381:CZ2:8341, V-B:LEU:475:CD1:9229, H-A:ALA:541:N:4891, V-A:MET:535:CE:4835, V-A:TYR:539:CD2:4874, V-A:ALA:541:CB:4892, H-A:TYR:539:O:4868, V-B:PRO:540:N:9855, V-B:TYR:539:CD1:9844, V-B:TYR:539:CE1:9846, V-B:PRO:540:CA:9854, V-B:PRO:540:CB:9856, V-B:LEU:363:CD1:8160, V-A:TYR:531:CZ:4794, V-B:ASP:366:CG:8184, V-B:TYR:539:CZ:9848, H-B:TYR:539:N:9841, V-B:LEU:363:CA:8156, V-B:ASN:362:C:8143, V-B:MET:535:CG:9804, V-B:ASN:362:CB:8147, V-B:MET:535:CB:9803, V-B:ASN:362:CA:8145"]

$$$$
RR26_Rahimova_2017
     RDKit          3D

 38 44  0  0  0  0  0  0  0  0999 V2000
  123.8060  124.8390   58.2230 C   0  0  0  0  0  0  0  0  0  0  0  0
  125.0570  124.1700   57.6690 C   0  0  0  0  0  0  0  0  0  0  0  0
  124.9140  122.9510   56.9960 C   0  0  0  0  0  0  0  0  0  0  0  0
  126.0190  122.3150   56.4340 C   0  0  0  0  0  0  0  0  0  0  0  0
  127.2790  122.8960   56.5350 C   0  0  0  0  0  0  0  0  0  0  0  0
  127.4340  124.1100   57.2020 C   0  0  0  0  0  0  0  0  0  0  0  0
  126.3350  124.7610   57.7820 C   0  0  0  0  0  0  0  0  0  0  0  0
  126.5920  126.0560   58.4960 C   0  0  0  0  0  0  0  0  0  0  0  0
  126.1900  127.2280   58.0100 N   0  0  0  0  0  0  0  0  0  0  0  0
  126.5990  128.0570   58.9320 C   0  0  0  0  0  0  0  0  0  0  0  0
  126.5430  129.7640   59.1730 S   0  0  0  0  0  0  0  0  0  0  0  0
  127.4120  129.5480   60.7390 C   0  0  0  0  0  0  0  0  0  0  0  0
  127.7880  130.5060   61.6160 C   0  0  0  0  0  0  0  0  0  0  0  0
  127.5810  131.9420   61.5180 C   0  0  0  0  0  0  0  0  0  0  0  0
  126.7110  132.7340   62.2510 C   0  0  0  0  0  0  0  0  0  0  0  0
  126.8840  134.0340   61.8510 N   0  0  0  0  0  0  0  0  0  0  0  0
  126.2180  135.1940   62.3240 C   0  0  0  0  0  0  0  0  0  0  0  0
  126.9440  136.3240   62.7300 C   0  0  0  0  0  0  0  0  0  0  0  0
  126.2780  137.4540   63.1950 C   0  0  0  0  0  0  0  0  0  0  0  0
  124.8870  137.4620   63.2530 C   0  0  0  0  0  0  0  0  0  0  0  0
  124.1540  136.3480   62.8490 C   0  0  0  0  0  0  0  0  0  0  0  0
  124.8170  135.2150   62.3860 C   0  0  0  0  0  0  0  0  0  0  0  0
  127.8450  134.1090   60.9170 N   0  0  0  0  0  0  0  0  0  0  0  0
  128.2630  132.8770   60.7060 C   0  0  0  0  0  0  0  0  0  0  0  0
  129.3390  132.6160   59.6980 C   0  0  0  0  0  0  0  0  0  0  0  0
  130.5290  131.9770   60.0790 C   0  0  0  0  0  0  0  0  0  0  0  0
  131.5410  131.7340   59.1480 C   0  0  0  0  0  0  0  0  0  0  0  0
  131.3680  132.1300   57.8240 C   0  0  0  0  0  0  0  0  0  0  0  0
  130.1760  132.7530   57.4260 C   0  0  0  0  0  0  0  0  0  0  0  0
  129.1710  133.0010   58.3590 C   0  0  0  0  0  0  0  0  0  0  0  0
  129.9800  133.2020   56.1350 O   0  0  0  0  0  0  0  0  0  0  0  0
  130.8540  132.6090   55.1700 C   0  0  0  0  0  0  0  0  0  0  0  0
  132.3070  132.5690   55.7030 C   0  0  0  0  0  0  0  0  0  0  0  0
  132.3730  131.8270   56.9260 O   0  0  0  0  0  0  0  0  0  0  0  0
  127.7210  128.1480   61.0140 C   0  0  0  0  0  0  0  0  0  0  0  0
  128.3040  127.6560   61.9810 O   0  0  0  0  0  0  0  0  0  0  0  0
  127.2170  127.4060   59.9340 N   0  0  0  0  0  0  0  0  0  0  0  0
  127.2140  126.0980   59.6640 N   0  0  0  0  0  0  0  0  0  0  0  0
  1  2  1  0
  2  3  2  0
  3  4  1  0
  4  5  2  0
  5  6  1  0
  6  7  2  0
  7  8  1  0
  8  9  1  0
  9 10  2  0
 10 11  1  0
 11 12  1  0
 12 13  2  0
 13 14  1  0
 14 15  2  0
 15 16  1  0
 16 17  1  0
 17 18  2  0
 18 19  1  0
 19 20  2  0
 20 21  1  0
 21 22  2  0
 16 23  1  0
 23 24  2  0
 24 25  1  0
 25 26  2  0
 26 27  1  0
 27 28  2  0
 28 29  1  0
 29 30  2  0
 29 31  1  0
 31 32  1  0
 32 33  1  0
 33 34  1  0
 12 35  1  0
 35 36  2  0
 35 37  1  0
 37 38  1  0
  7  2  1  0
 38  8  2  0
 37 10  1  0
 24 14  1  0
 30 25  1  0
 22 17  1  0
 34 28  1  0
M  END
>  <Binding energies>  (48) 
[-10.57]

>  <Ligand effiencies>  (48) 
[-0.2781578947368421]

>  <Interactions>  (48) 
["V-A:LEU:363:CD1:3188, V-B:TRP:381:CH2:8343, V-A:ILE:538:CB:4862, V-A:TYR:539:CE2:4876, V-B:TRP:381:CZ2:8341, V-A:TYR:539:C:4867, V-A:PRO:540:CA:4883, V-B:SER:385:CB:8380, V-A:ILE:538:CG2:4863, V-A:PRO:540:CB:4885, V-B:LEU:475:CD1:9229, V-A:ILE:538:CA:4860, V-A:PRO:540:N:4884, V-B:PRO:482:CB:9297, V-A:MET:535:CE:4835, H-A:TYR:539:N:4870, V-A:TYR:539:CD2:4874, V-B:TRP:381:CE2:8338, V-A:ALA:541:CB:4892, V-B:LEU:475:CB:9227, V-B:PRO:482:CG:9298, V-B:PRO:540:N:9855, V-B:TYR:539:CD1:9844, V-B:TYR:539:CE1:9846, V-B:PRO:540:CA:9854, V-B:TYR:539:C:9838, V-B:PRO:540:CB:9856, V-B:PRO:540:CD:9858, V-B:LEU:363:CD1:8160, V-B:ASP:366:CG:8184, V-B:TYR:539:CZ:9848, V-B:LEU:363:CA:8156, H-B:TYR:531:OH:9766, V-B:TYR:531:CE2:9764, V-B:ASP:366:CB:8183, V-A:TYR:539:CG:4872, V-B:SER:385:CA:8378, V-B:SER:385:C:8376"]

$$$$
RR2_Rahimova_2017
     RDKit          3D

 46 50  0  0  0  0  0  0  0  0999 V2000
  132.1090  131.7310   54.6670 C   0  0  0  0  0  0  0  0  0  0  0  0
  132.3520  132.5190   55.8260 O   0  0  0  0  0  0  0  0  0  0  0  0
  131.3920  132.5710   56.8200 C   0  0  0  0  0  0  0  0  0  0  0  0
  130.0590  132.9540   56.6140 C   0  0  0  0  0  0  0  0  0  0  0  0
  129.1620  132.9790   57.6780 C   0  0  0  0  0  0  0  0  0  0  0  0
  129.5750  132.6260   58.9710 C   0  0  0  0  0  0  0  0  0  0  0  0
  128.5800  132.6680   60.1140 C   0  0  0  0  0  0  0  0  0  0  0  0
  128.1320  131.6190   60.5900 O   0  0  0  0  0  0  0  0  0  0  0  0
  128.2260  133.9020   60.5430 N   0  0  0  0  0  0  0  0  0  0  0  0
  127.2470  134.0000   61.5270 N   0  0  0  0  0  0  0  0  0  0  0  0
  126.5390  135.1440   61.6100 C   0  0  0  0  0  0  0  0  0  0  0  0
  126.8050  136.1850   61.0010 O   0  0  0  0  0  0  0  0  0  0  0  0
  125.3080  135.0940   62.5240 C   0  0  0  0  0  0  0  0  0  0  0  0
  123.8200  134.3300   61.7790 S   0  0  0  0  0  0  0  0  0  0  0  0
  124.5500  132.9710   60.9170 C   0  0  0  0  0  0  0  0  0  0  0  0
  124.7690  132.9800   59.6260 N   0  0  0  0  0  0  0  0  0  0  0  0
  125.2780  131.7360   59.2810 N   0  0  0  0  0  0  0  0  0  0  0  0
  125.3760  131.0310   60.3830 C   0  0  0  0  0  0  0  0  0  0  0  0
  125.9040  129.6330   60.4190 C   0  0  0  0  0  0  0  0  0  0  0  0
  126.2800  129.0640   61.6390 C   0  0  0  0  0  0  0  0  0  0  0  0
  126.7800  127.7660   61.6820 C   0  0  0  0  0  0  0  0  0  0  0  0
  126.8920  127.0170   60.5050 C   0  0  0  0  0  0  0  0  0  0  0  0
  127.3980  125.7090   60.4870 N   0  0  0  0  0  0  0  0  0  0  0  0
  126.4040  124.2370   60.5670 S   0  0  0  0  0  0  0  0  0  0  0  0
  125.0560  124.6810   60.9430 O   0  0  0  0  0  0  0  0  0  0  0  0
  127.1230  123.2460   61.3760 O   0  0  0  0  0  0  0  0  0  0  0  0
  126.3020  123.6490   58.8790 C   0  0  0  0  0  0  0  0  0  0  0  0
  125.1590  123.8860   58.1110 C   0  0  0  0  0  0  0  0  0  0  0  0
  125.0930  123.4060   56.8050 C   0  0  0  0  0  0  0  0  0  0  0  0
  126.1690  122.6960   56.2670 C   0  0  0  0  0  0  0  0  0  0  0  0
  126.0890  122.1620   54.8490 C   0  0  0  0  0  0  0  0  0  0  0  0
  127.3080  122.4580   57.0390 C   0  0  0  0  0  0  0  0  0  0  0  0
  127.3750  122.9350   58.3440 C   0  0  0  0  0  0  0  0  0  0  0  0
  126.5130  127.5850   59.2880 C   0  0  0  0  0  0  0  0  0  0  0  0
  126.0190  128.8850   59.2430 C   0  0  0  0  0  0  0  0  0  0  0  0
  124.9220  131.7600   61.4690 N   0  0  0  0  0  0  0  0  0  0  0  0
  124.8180  131.3530   62.8160 C   0  0  0  0  0  0  0  0  0  0  0  0
  123.8800  130.3870   63.1820 C   0  0  0  0  0  0  0  0  0  0  0  0
  123.7860  129.9870   64.5110 C   0  0  0  0  0  0  0  0  0  0  0  0
  124.6200  130.5440   65.4820 C   0  0  0  0  0  0  0  0  0  0  0  0
  124.4520  130.0850   66.7740 O   0  0  0  0  0  0  0  0  0  0  0  0
  125.4490  129.2470   67.3500 C   0  0  0  0  0  0  0  0  0  0  0  0
  125.5610  131.5160   65.1050 C   0  0  0  0  0  0  0  0  0  0  0  0
  125.6610  131.9180   63.7760 C   0  0  0  0  0  0  0  0  0  0  0  0
  130.9090  132.2380   59.1680 C   0  0  0  0  0  0  0  0  0  0  0  0
  131.8030  132.2120   58.1020 C   0  0  0  0  0  0  0  0  0  0  0  0
  1  2  1  0
  2  3  1  0
  3  4  2  0
  4  5  1  0
  5  6  2  0
  6  7  1  0
  7  8  2  0
  7  9  1  0
  9 10  1  0
 10 11  1  0
 11 12  2  0
 11 13  1  0
 13 14  1  0
 14 15  1  0
 15 16  2  0
 16 17  1  0
 17 18  2  0
 18 19  1  0
 19 20  2  0
 20 21  1  0
 21 22  2  0
 22 23  1  0
 23 24  1  0
 24 25  2  0
 24 26  2  0
 24 27  1  0
 27 28  2  0
 28 29  1  0
 29 30  2  0
 30 31  1  0
 30 32  1  0
 32 33  2  0
 22 34  1  0
 34 35  2  0
 18 36  1  0
 36 37  1  0
 37 38  2  0
 38 39  1  0
 39 40  2  0
 40 41  1  0
 41 42  1  0
 40 43  1  0
 43 44  2  0
  6 45  1  0
 45 46  2  0
 46  3  1  0
 36 15  1  0
 44 37  1  0
 35 19  1  0
 33 27  1  0
M  END
>  <Binding energies>  (49) 
[-11.04]

>  <Ligand effiencies>  (49) 
[-0.22530612244897957]

>  <Interactions>  (49) 
["V-A:LEU:363:CD1:3188, V-B:ILE:369:CG2:8208, V-A:ILE:538:CB:4862, V-A:TYR:539:CE2:4876, V-A:TYR:539:C:4867, V-A:PRO:540:CA:4883, V-A:ILE:538:CG2:4863, V-A:PRO:540:CB:4885, V-B:LEU:475:CD1:9229, V-A:PRO:540:N:4884, V-A:MET:535:CE:4835, V-A:TYR:539:CD2:4874, H-A:TYR:539:O:4868, V-B:TYR:539:CD2:9845, V-B:PRO:540:N:9855, V-B:TYR:539:CD1:9844, V-B:TYR:539:CE2:9847, V-B:MET:535:CE:9806, V-B:TYR:539:CG:9843, V-B:ILE:538:CA:9831, V-B:TYR:539:CE1:9846, V-B:PRO:540:CA:9854, V-B:TYR:539:C:9838, V-B:PRO:540:CB:9856, V-B:LEU:363:CD1:8160, H-B:ALA:541:N:9862, V-B:GLY:454:CA:9020, V-A:TYR:531:CZ:4794, V-A:TYR:531:CE2:4793, V-A:MET:535:CG:4833, V-B:ARG:545:CG:9893, V-B:HIS:456:CE1:9041, H-B:TYR:484:OH:9319, H-B:GLY:454:N:9021, H-B:ARG:545:NH2:9899, V-B:GLY:453:CA:9015, V-B:ARG:545:CZ:9897, V-B:ASP:366:CG:8184, V-B:GLY:453:C:9013, V-B:TYR:539:CZ:9848, V-B:ASP:366:CB:8183, V-B:ILE:538:CD1:9836, V-A:TYR:539:CG:4872, V-B:ILE:538:CB:9833, V-B:ILE:538:C:9829"]

$$$$
RR33_Rahimova_2017
     RDKit          3D

 18 19  0  0  0  0  0  0  0  0999 V2000
  125.5760  130.7530   56.8810 C   0  0  0  0  0  0  0  0  0  0  0  0
  124.1540  130.7640   57.4480 C   0  0  0  0  0  0  0  0  0  0  0  0
  124.0410  131.8350   58.3810 O   0  0  0  0  0  0  0  0  0  0  0  0
  124.2520  131.5890   59.7240 C   0  0  0  0  0  0  0  0  0  0  0  0
  125.0300  130.4760   60.0380 C   0  0  0  0  0  0  0  0  0  0  0  0
  125.2930  130.1470   61.3640 C   0  0  0  0  0  0  0  0  0  0  0  0
  124.7790  130.9310   62.4010 C   0  0  0  0  0  0  0  0  0  0  0  0
  125.0620  130.5760   63.8260 C   0  0  0  0  0  0  0  0  0  0  0  0
  126.2320  130.5140   64.4210 N   0  0  0  0  0  0  0  0  0  0  0  0
  125.9720  130.1630   65.6700 C   0  0  0  0  0  0  0  0  0  0  0  0
  127.0870  129.9990   66.6810 C   0  0  0  0  0  0  0  0  0  0  0  0
  126.9520  128.7380   67.3940 N   0  0  0  0  0  0  0  0  0  0  0  0
  128.2400  128.0750   67.5130 C   0  0  0  0  0  0  0  0  0  0  0  0
  124.6010  130.0080   65.8350 C   0  0  0  0  0  0  0  0  0  0  0  0
  123.6930  129.6360   66.9820 C   0  0  0  0  0  0  0  0  0  0  0  0
  124.0190  130.2740   64.6430 O   0  0  0  0  0  0  0  0  0  0  0  0
  124.0020  132.0510   62.0910 C   0  0  0  0  0  0  0  0  0  0  0  0
  123.7370  132.3800   60.7640 C   0  0  0  0  0  0  0  0  0  0  0  0
  1  2  1  0
  2  3  1  0
  3  4  1  0
  4  5  2  0
  5  6  1  0
  6  7  2  0
  7  8  1  0
  8  9  2  0
  9 10  1  0
 10 11  1  0
 11 12  1  0
 12 13  1  0
 10 14  2  0
 14 15  1  0
 14 16  1  0
  7 17  1  0
 17 18  2  0
 18  4  1  0
 16  8  1  0
M  END
>  <Binding energies>  (50) 
[-5.7]

>  <Ligand effiencies>  (50) 
[-0.3]

>  <Interactions>  (50) 
["V-B:ILE:369:CD1:8210, V-B:ILE:369:CG2:8208, V-A:TYR:539:CE2:4876, V-A:TYR:539:CZ:4877, H-A:TYR:539:OH:4878, V-B:GLY:454:CA:9020, V-B:ARG:545:CG:9893, V-B:ARG:545:CD:9894, V-B:HIS:456:CE1:9041, H-B:GLY:454:N:9021, H-B:ARG:545:NH2:9899, V-B:ARG:545:CZ:9897, V-A:GLU:543:CG:4907, V-B:ASP:366:CG:8184, H-B:GLU:543:OE1:9880, V-B:GLU:543:CD:9879, H-B:GLU:543:OE2:9881, V-B:ASP:366:CB:8183, V-B:ASP:366:CA:8181, V-B:ILE:369:CB:8207, V-B:TYR:531:CE1:9763, V-B:ASP:366:C:8179"]

$$$$
RR3_Rahimova_2017
     RDKit          3D

 38 44  0  0  0  0  0  0  0  0999 V2000
  125.5770  122.0640   54.9870 C   0  0  0  0  0  0  0  0  0  0  0  0
  124.8910  122.1470   56.1940 C   0  0  0  0  0  0  0  0  0  0  0  0
  125.4880  122.7700   57.2850 C   0  0  0  0  0  0  0  0  0  0  0  0
  126.7760  123.3190   57.1850 C   0  0  0  0  0  0  0  0  0  0  0  0
  127.4170  123.9900   58.3600 C   0  0  0  0  0  0  0  0  0  0  0  0
  126.6470  124.4350   59.4430 C   0  0  0  0  0  0  0  0  0  0  0  0
  127.2430  125.0630   60.5330 C   0  0  0  0  0  0  0  0  0  0  0  0
  128.6260  125.2670   60.5610 C   0  0  0  0  0  0  0  0  0  0  0  0
  129.2720  125.9460   61.7280 C   0  0  0  0  0  0  0  0  0  0  0  0
  129.1780  125.4150   62.9420 N   0  0  0  0  0  0  0  0  0  0  0  0
  129.8670  126.1890   63.7450 C   0  0  0  0  0  0  0  0  0  0  0  0
  130.0340  125.9780   65.1800 C   0  0  0  0  0  0  0  0  0  0  0  0
  130.7900  124.9790   65.7690 C   0  0  0  0  0  0  0  0  0  0  0  0
  130.7300  125.0830   67.1350 N   0  0  0  0  0  0  0  0  0  0  0  0
  129.9330  126.1490   67.4880 C   0  0  0  0  0  0  0  0  0  0  0  0
  129.5770  126.6450   68.7470 C   0  0  0  0  0  0  0  0  0  0  0  0
  128.7380  127.7590   68.7750 C   0  0  0  0  0  0  0  0  0  0  0  0
  128.2720  128.3560   67.6080 C   0  0  0  0  0  0  0  0  0  0  0  0
  128.6280  127.8630   66.3540 C   0  0  0  0  0  0  0  0  0  0  0  0
  129.4710  126.7400   66.2700 C   0  0  0  0  0  0  0  0  0  0  0  0
  130.4140  127.2400   63.0610 N   0  0  0  0  0  0  0  0  0  0  0  0
  130.0300  127.1290   61.7490 C   0  0  0  0  0  0  0  0  0  0  0  0
  130.3920  128.1400   60.7100 C   0  0  0  0  0  0  0  0  0  0  0  0
  130.3640  129.5010   61.0180 C   0  0  0  0  0  0  0  0  0  0  0  0
  130.6880  130.4460   60.0500 C   0  0  0  0  0  0  0  0  0  0  0  0
  131.0520  130.0530   58.7530 C   0  0  0  0  0  0  0  0  0  0  0  0
  131.3810  131.0730   57.7090 C   0  0  0  0  0  0  0  0  0  0  0  0
  131.7110  132.3890   58.0670 C   0  0  0  0  0  0  0  0  0  0  0  0
  132.0220  133.3370   57.0940 C   0  0  0  0  0  0  0  0  0  0  0  0
  132.0060  132.9770   55.7510 C   0  0  0  0  0  0  0  0  0  0  0  0
  131.6830  131.6780   55.3730 C   0  0  0  0  0  0  0  0  0  0  0  0
  131.3710  130.7340   56.3470 C   0  0  0  0  0  0  0  0  0  0  0  0
  131.0930  128.6830   58.4620 C   0  0  0  0  0  0  0  0  0  0  0  0
  130.7700  127.7350   59.4290 C   0  0  0  0  0  0  0  0  0  0  0  0
  129.4020  124.8150   59.4930 C   0  0  0  0  0  0  0  0  0  0  0  0
  128.8030  124.1880   58.4030 C   0  0  0  0  0  0  0  0  0  0  0  0
  127.4490  123.2220   55.9580 C   0  0  0  0  0  0  0  0  0  0  0  0
  126.8550  122.6000   54.8640 C   0  0  0  0  0  0  0  0  0  0  0  0
  1  2  2  0
  2  3  1  0
  3  4  2  0
  4  5  1  0
  5  6  2  0
  6  7  1  0
  7  8  2  0
  8  9  1  0
  9 10  1  0
 10 11  2  0
 11 12  1  0
 12 13  2  0
 13 14  1  0
 14 15  1  0
 15 16  2  0
 16 17  1  0
 17 18  2  0
 18 19  1  0
 19 20  2  0
 11 21  1  0
 21 22  1  0
 22 23  1  0
 23 24  2  0
 24 25  1  0
 25 26  2  0
 26 27  1  0
 27 28  2  0
 28 29  1  0
 29 30  2  0
 30 31  1  0
 31 32  2  0
 26 33  1  0
 33 34  2  0
  8 35  1  0
 35 36  2  0
  4 37  1  0
 37 38  2  0
 38  1  1  0
 36  5  1  0
 22  9  2  0
 34 23  1  0
 20 12  1  0
 32 27  1  0
 20 15  1  0
M  END
>  <Binding energies>  (51) 
[-10.48]

>  <Ligand effiencies>  (51) 
[-0.262]

>  <Interactions>  (51) 
["V-A:LEU:363:CD1:3188, V-A:PRO:540:CG:4886, V-A:ILE:538:CB:4862, V-A:TYR:539:C:4867, V-A:PRO:540:CA:4883, V-A:ILE:538:CG2:4863, V-A:PRO:540:CB:4885, V-A:ILE:538:CA:4860, V-A:PRO:540:N:4884, V-A:MET:535:CE:4835, V-A:PRO:540:CD:4887, V-B:PRO:540:N:9855, V-B:TYR:539:CD1:9844, V-B:TYR:539:CE2:9847, V-B:MET:535:CE:9806, V-B:ILE:538:CA:9831, V-B:ILE:538:CG2:9834, V-B:TYR:539:CE1:9846, V-B:PRO:540:CA:9854, V-B:PRO:540:CB:9856, V-B:PRO:540:CD:9858, V-B:LEU:363:CD1:8160, V-A:GLU:543:CD:4908, V-A:TYR:531:CZ:4794, V-A:TYR:531:CE2:4793, H-A:GLU:543:OE2:4910, V-B:HIS:456:CE1:9041, V-A:HIS:456:CE1:4069, H-A:GLU:543:OE1:4909, V-A:GLU:543:CG:4907, V-B:GLU:543:CD:9879, V-B:TYR:539:CZ:9848, V-A:ASP:366:CB:3211, V-B:ILE:538:CD1:9836, V-A:TYR:484:CZ:4346, H-A:TYR:484:OH:4347, V-B:GLU:543:CG:9878, V-B:ILE:538:CB:9833, V-B:ILE:538:C:9829, V-B:PRO:540:CG:9857, V-A:TYR:484:CE1:4344, H-A:HIS:456:NE2:4070, V-B:ILE:538:CG1:9835"]

$$$$
RR4_Rahimova_2017
     RDKit          3D

 40 44  0  0  0  0  0  0  0  0999 V2000
  130.1020  125.4400   74.2200 C   0  0  0  0  0  0  0  0  0  0  0  0
  128.9130  126.0250   73.7000 O   0  0  0  0  0  0  0  0  0  0  0  0
  128.8140  126.2560   72.3410 C   0  0  0  0  0  0  0  0  0  0  0  0
  129.5790  127.3010   71.8270 C   0  0  0  0  0  0  0  0  0  0  0  0
  129.5440  127.6050   70.4700 C   0  0  0  0  0  0  0  0  0  0  0  0
  128.7380  126.8740   69.5840 C   0  0  0  0  0  0  0  0  0  0  0  0
  128.7020  127.2060   68.1200 C   0  0  0  0  0  0  0  0  0  0  0  0
  127.8950  128.2200   67.5930 C   0  0  0  0  0  0  0  0  0  0  0  0
  127.9000  128.4940   66.2190 C   0  0  0  0  0  0  0  0  0  0  0  0
  127.0330  129.6100   65.7330 C   0  0  0  0  0  0  0  0  0  0  0  0
  125.6810  129.3820   65.4620 C   0  0  0  0  0  0  0  0  0  0  0  0
  124.8640  130.4190   65.0200 C   0  0  0  0  0  0  0  0  0  0  0  0
  125.3800  131.7030   64.8460 C   0  0  0  0  0  0  0  0  0  0  0  0
  124.4950  132.6680   64.4050 O   0  0  0  0  0  0  0  0  0  0  0  0
  124.0450  132.6330   63.0540 C   0  0  0  0  0  0  0  0  0  0  0  0
  126.7350  131.9370   65.1210 C   0  0  0  0  0  0  0  0  0  0  0  0
  127.5500  130.8990   65.5640 C   0  0  0  0  0  0  0  0  0  0  0  0
  128.7170  127.7030   65.3750 C   0  0  0  0  0  0  0  0  0  0  0  0
  128.7600  127.9490   63.9310 C   0  0  0  0  0  0  0  0  0  0  0  0
  128.7940  128.1420   62.7910 N   0  0  0  0  0  0  0  0  0  0  0  0
  129.4850  126.6760   65.9710 C   0  0  0  0  0  0  0  0  0  0  0  0
  130.5560  125.5800   65.0660 S   0  0  0  0  0  0  0  0  0  0  0  0
  129.5690  124.1330   64.5560 C   0  0  0  0  0  0  0  0  0  0  0  0
  129.2480  124.0770   63.0560 C   0  0  0  0  0  0  0  0  0  0  0  0
  130.1550  124.0970   62.2210 O   0  0  0  0  0  0  0  0  0  0  0  0
  127.9290  124.0220   62.7610 N   0  0  0  0  0  0  0  0  0  0  0  0
  127.3220  123.9600   61.5040 C   0  0  0  0  0  0  0  0  0  0  0  0
  125.9640  124.9580   61.0560 S   0  0  0  0  0  0  0  0  0  0  0  0
  125.8940  124.2490   59.4720 C   0  0  0  0  0  0  0  0  0  0  0  0
  126.8860  123.2720   59.3000 C   0  0  0  0  0  0  0  0  0  0  0  0
  127.7040  123.1210   60.4460 C   0  0  0  0  0  0  0  0  0  0  0  0
  128.8210  122.1840   60.5190 C   0  0  0  0  0  0  0  0  0  0  0  0
  129.7060  121.4400   60.5770 N   0  0  0  0  0  0  0  0  0  0  0  0
  127.0560  122.5260   57.9710 C   0  0  0  0  0  0  0  0  0  0  0  0
  126.3120  123.2630   56.8340 C   0  0  0  0  0  0  0  0  0  0  0  0
  124.8930  123.6870   57.2490 C   0  0  0  0  0  0  0  0  0  0  0  0
  124.9090  124.7090   58.4050 C   0  0  0  0  0  0  0  0  0  0  0  0
  129.4860  126.4530   67.3070 N   0  0  0  0  0  0  0  0  0  0  0  0
  127.9740  125.8200   70.1110 C   0  0  0  0  0  0  0  0  0  0  0  0
  128.0070  125.5130   71.4680 C   0  0  0  0  0  0  0  0  0  0  0  0
  1  2  1  0
  2  3  1  0
  3  4  2  0
  4  5  1  0
  5  6  2  0
  6  7  1  0
  7  8  2  0
  8  9  1  0
  9 10  1  0
 10 11  2  0
 11 12  1  0
 12 13  2  0
 13 14  1  0
 14 15  1  0
 13 16  1  0
 16 17  2  0
  9 18  2  0
 18 19  1  0
 19 20  3  0
 18 21  1  0
 21 22  1  0
 22 23  1  0
 23 24  1  0
 24 25  2  0
 24 26  1  0
 26 27  1  0
 27 28  1  0
 28 29  1  0
 29 30  2  0
 30 31  1  0
 31 32  1  0
 32 33  3  0
 30 34  1  0
 34 35  1  0
 35 36  1  0
 36 37  1  0
 21 38  2  0
  6 39  1  0
 39 40  2  0
 40  3  1  0
 38  7  1  0
 17 10  1  0
 31 27  2  0
 37 29  1  0
M  END
>  <Binding energies>  (52) 
[-11.13]

>  <Ligand effiencies>  (52) 
[-0.27146341463414636]

>  <Interactions>  (52) 
["V-B:ILE:369:CD1:8210, V-B:LEU:475:CD1:9229, V-B:TYR:539:CD2:9845, V-B:PRO:540:N:9855, V-B:TYR:539:CE2:9847, V-B:PRO:540:CA:9854, V-B:TYR:539:C:9838, V-B:PRO:540:CB:9856, V-B:LEU:363:CD1:8160, V-B:ALA:541:CB:9863, V-B:GLY:454:CA:9020, V-A:GLU:543:CD:4908, V-B:HIS:456:CE1:9041, V-A:HIS:456:CE1:4069, H-B:GLY:454:N:9021, V-B:ARG:545:CZ:9897, V-A:GLU:543:CG:4907, V-B:GLU:543:CD:9879, H-B:GLU:543:OE2:9881, V-B:GLU:543:CG:9878, V-B:GLU:543:CB:9877, H-B:LYS:547:NZ:9922, V-A:HIS:456:CD2:4067, V-B:GLU:543:C:9873, V-B:GLY:544:C:9883"]

$$$$
RR6_Rahimova_2017
     RDKit          3D

 38 41  0  0  0  0  0  0  0  0999 V2000
  132.0090  132.6220   55.9030 C   0  0  0  0  0  0  0  0  0  0  0  0
  131.4100  133.4000   56.9300 O   0  0  0  0  0  0  0  0  0  0  0  0
  130.1170  133.2030   57.2920 C   0  0  0  0  0  0  0  0  0  0  0  0
  129.1570  133.4770   56.5630 O   0  0  0  0  0  0  0  0  0  0  0  0
  129.9670  132.6180   58.6670 C   0  0  0  0  0  0  0  0  0  0  0  0
  131.0710  132.1770   59.4110 C   0  0  0  0  0  0  0  0  0  0  0  0
  130.8990  131.6310   60.6810 C   0  0  0  0  0  0  0  0  0  0  0  0
  129.6120  131.5140   61.2280 C   0  0  0  0  0  0  0  0  0  0  0  0
  129.3230  130.9540   62.4860 N   0  0  0  0  0  0  0  0  0  0  0  0
  128.2560  131.1590   63.2900 C   0  0  0  0  0  0  0  0  0  0  0  0
  127.3050  131.8990   63.0380 O   0  0  0  0  0  0  0  0  0  0  0  0
  128.2990  130.4400   64.6430 C   0  0  0  0  0  0  0  0  0  0  0  0
  127.7250  128.7110   64.5730 S   0  0  0  0  0  0  0  0  0  0  0  0
  128.7260  127.7900   65.7230 C   0  0  0  0  0  0  0  0  0  0  0  0
  129.4430  126.7880   65.1600 N   0  0  0  0  0  0  0  0  0  0  0  0
  130.2660  126.0340   65.9320 C   0  0  0  0  0  0  0  0  0  0  0  0
  131.0700  124.9850   65.2210 C   0  0  0  0  0  0  0  0  0  0  0  0
  132.3510  125.2710   64.7240 C   0  0  0  0  0  0  0  0  0  0  0  0
  133.0920  124.3020   64.0530 C   0  0  0  0  0  0  0  0  0  0  0  0
  132.5670  123.0230   63.8720 C   0  0  0  0  0  0  0  0  0  0  0  0
  133.3740  121.9720   63.1320 C   0  0  0  0  0  0  0  0  0  0  0  0
  131.2980  122.7190   64.3600 C   0  0  0  0  0  0  0  0  0  0  0  0
  130.5620  123.6910   65.0300 C   0  0  0  0  0  0  0  0  0  0  0  0
  130.3740  126.2710   67.3060 C   0  0  0  0  0  0  0  0  0  0  0  0
  129.6390  127.3000   67.9120 C   0  0  0  0  0  0  0  0  0  0  0  0
  129.8170  127.5100   69.3800 C   0  0  0  0  0  0  0  0  0  0  0  0
  130.7680  128.4200   69.8500 C   0  0  0  0  0  0  0  0  0  0  0  0
  130.9290  128.6340   71.2170 C   0  0  0  0  0  0  0  0  0  0  0  0
  130.1400  127.9470   72.1380 C   0  0  0  0  0  0  0  0  0  0  0  0
  130.3680  128.2250   73.4720 O   0  0  0  0  0  0  0  0  0  0  0  0
  129.3710  128.9170   74.2170 C   0  0  0  0  0  0  0  0  0  0  0  0
  129.1800  127.0370   71.6720 C   0  0  0  0  0  0  0  0  0  0  0  0
  129.0210  126.8260   70.3050 C   0  0  0  0  0  0  0  0  0  0  0  0
  128.7820  128.0830   67.1010 C   0  0  0  0  0  0  0  0  0  0  0  0
  127.9640  129.1560   67.6750 C   0  0  0  0  0  0  0  0  0  0  0  0
  127.3190  130.0030   68.1290 N   0  0  0  0  0  0  0  0  0  0  0  0
  128.5140  131.9670   60.4980 C   0  0  0  0  0  0  0  0  0  0  0  0
  128.6880  132.5100   59.2270 C   0  0  0  0  0  0  0  0  0  0  0  0
  1  2  1  0
  2  3  1  0
  3  4  2  0
  3  5  1  0
  5  6  2  0
  6  7  1  0
  7  8  2  0
  8  9  1  0
  9 10  1  0
 10 11  2  0
 10 12  1  0
 12 13  1  0
 13 14  1  0
 14 15  2  0
 15 16  1  0
 16 17  1  0
 17 18  2  0
 18 19  1  0
 19 20  2  0
 20 21  1  0
 20 22  1  0
 22 23  2  0
 16 24  2  0
 24 25  1  0
 25 26  1  0
 26 27  2  0
 27 28  1  0
 28 29  2  0
 29 30  1  0
 30 31  1  0
 29 32  1  0
 32 33  2  0
 25 34  2  0
 34 35  1  0
 35 36  3  0
  8 37  1  0
 37 38  2  0
 38  5  1  0
 34 14  1  0
 23 17  1  0
 33 26  1  0
M  END
>  <Binding energies>  (53) 
[-10.2]

>  <Ligand effiencies>  (53) 
[-0.2615384615384615]

>  <Interactions>  (53) 
["V-A:LEU:363:CD1:3188, V-A:ILE:538:CB:4862, V-A:TYR:539:CE2:4876, V-A:TYR:539:C:4867, V-A:PRO:540:CA:4883, V-A:ILE:538:CG2:4863, V-A:PRO:540:CB:4885, V-A:PRO:540:N:4884, H-A:TYR:539:N:4870, V-A:TYR:539:CD2:4874, V-A:TYR:539:CA:4869, V-A:LEU:475:CD2:4258, V-A:GLU:543:CD:4908, V-B:HIS:456:CE1:9041, V-A:HIS:456:CE1:4069, H-B:TYR:484:OH:9319, H-A:GLU:543:OE1:4909, V-A:GLU:543:CG:4907, V-A:ARG:545:CZ:4926, V-B:GLU:543:CD:9879, V-A:GLY:454:CA:4048, V-A:GLU:543:CB:4906, V-A:LYS:547:CE:4950, H-A:LYS:547:NZ:4951, H-B:HIS:456:ND1:9038"]

$$$$
RR7_Rahimova_2017
     RDKit          3D

 47 53  0  0  0  0  0  0  0  0999 V2000
  125.2120  123.4440   62.7830 C   0  0  0  0  0  0  0  0  0  0  0  0
  126.3790  122.9370   62.1430 O   0  0  0  0  0  0  0  0  0  0  0  0
  126.8170  123.5300   60.9750 C   0  0  0  0  0  0  0  0  0  0  0  0
  128.1640  123.3620   60.6590 C   0  0  0  0  0  0  0  0  0  0  0  0
  128.6950  123.9190   59.5000 C   0  0  0  0  0  0  0  0  0  0  0  0
  127.8900  124.6700   58.6310 C   0  0  0  0  0  0  0  0  0  0  0  0
  128.4520  125.2780   57.3080 C   0  0  0  0  0  0  0  0  0  0  0  0
  129.8910  125.2770   57.4380 O   0  0  0  0  0  0  0  0  0  0  0  0
  130.5460  126.3160   58.1720 C   0  0  0  0  0  0  0  0  0  0  0  0
  131.9840  125.8750   58.4900 C   0  0  1  0  0  0  0  0  0  0  0  0
  132.2270  126.2120   59.8530 O   0  0  0  0  0  0  0  0  0  0  0  0
  132.5630  125.0900   60.6170 C   0  0  1  0  0  0  0  0  0  0  0  0
  132.0660  125.2410   61.9710 N   0  0  0  0  0  0  0  0  0  0  0  0
  131.9940  126.3970   62.7290 C   0  0  0  0  0  0  0  0  0  0  0  0
  131.5420  126.2400   63.9490 N   0  0  0  0  0  0  0  0  0  0  0  0
  131.3330  124.8920   64.0500 C   0  0  0  0  0  0  0  0  0  0  0  0
  130.8690  124.0860   65.1080 C   0  0  0  0  0  0  0  0  0  0  0  0
  130.5190  124.7030   66.3230 N   0  0  0  0  0  0  0  0  0  0  0  0
  129.7670  125.8100   66.5320 C   0  0  0  0  0  0  0  0  0  0  0  0
  129.2640  126.4870   65.6320 O   0  0  0  0  0  0  0  0  0  0  0  0
  129.5870  126.2160   67.9790 C   0  0  0  0  0  0  0  0  0  0  0  0
  130.2410  127.3590   68.4650 C   0  0  0  0  0  0  0  0  0  0  0  0
  130.0850  127.7540   69.7900 C   0  0  0  0  0  0  0  0  0  0  0  0
  129.2700  127.0130   70.6400 C   0  0  0  0  0  0  0  0  0  0  0  0
  128.6090  125.8790   70.1760 C   0  0  0  0  0  0  0  0  0  0  0  0
  128.7650  125.4820   68.8510 C   0  0  0  0  0  0  0  0  0  0  0  0
  130.7760  122.7340   64.9260 N   0  0  0  0  0  0  0  0  0  0  0  0
  131.1420  122.2300   63.7180 C   0  0  0  0  0  0  0  0  0  0  0  0
  131.5970  122.9130   62.6340 N   0  0  0  0  0  0  0  0  0  0  0  0
  131.6710  124.2340   62.8390 C   0  0  0  0  0  0  0  0  0  0  0  0
  131.9960  123.8990   59.8530 C   0  0  0  0  0  0  0  0  0  0  0  0
  132.2280  124.3610   58.4240 C   0  0  2  0  0  0  0  0  0  0  0  0
  133.5320  124.0420   57.9670 O   0  0  0  0  0  0  0  0  0  0  0  0
  128.1080  124.4120   56.0670 C   0  0  0  0  0  0  0  0  0  0  0  0
  128.8940  124.4930   54.9060 C   0  0  0  0  0  0  0  0  0  0  0  0
  128.5870  123.7320   53.7840 C   0  0  0  0  0  0  0  0  0  0  0  0
  127.4870  122.8790   53.8090 C   0  0  0  0  0  0  0  0  0  0  0  0
  126.6940  122.7820   54.9490 C   0  0  0  0  0  0  0  0  0  0  0  0
  127.0020  123.5450   56.0710 C   0  0  0  0  0  0  0  0  0  0  0  0
  127.9640  126.7140   56.9620 C   0  0  0  0  0  0  0  0  0  0  0  0
  127.5300  127.5810   57.9780 C   0  0  0  0  0  0  0  0  0  0  0  0
  127.0830  128.8630   57.6780 C   0  0  0  0  0  0  0  0  0  0  0  0
  127.0560  129.2920   56.3540 C   0  0  0  0  0  0  0  0  0  0  0  0
  127.4680  128.4450   55.3300 C   0  0  0  0  0  0  0  0  0  0  0  0
  127.9150  127.1620   55.6320 C   0  0  0  0  0  0  0  0  0  0  0  0
  126.5330  124.8240   58.9460 C   0  0  0  0  0  0  0  0  0  0  0  0
  126.0000  124.2660   60.1050 C   0  0  0  0  0  0  0  0  0  0  0  0
  1  2  1  0
  2  3  1  0
  3  4  2  0
  4  5  1  0
  5  6  2  0
  6  7  1  0
  7  8  1  0
  8  9  1  0
 10  9  1  1
 10 11  1  0
 11 12  1  0
 12 13  1  1
 13 14  1  0
 14 15  2  0
 15 16  1  0
 16 17  2  0
 17 18  1  0
 18 19  1  0
 19 20  2  0
 19 21  1  0
 21 22  2  0
 22 23  1  0
 23 24  2  0
 24 25  1  0
 25 26  2  0
 17 27  1  0
 27 28  2  0
 28 29  1  0
 29 30  2  0
 12 31  1  0
 31 32  1  0
 32 33  1  1
  7 34  1  0
 34 35  2  0
 35 36  1  0
 36 37  2  0
 37 38  1  0
 38 39  2  0
  7 40  1  0
 40 41  2  0
 41 42  1  0
 42 43  2  0
 43 44  1  0
 44 45  2  0
  6 46  1  0
 46 47  2  0
 47  3  1  0
 32 10  1  0
 39 34  1  0
 45 40  1  0
 30 13  1  0
 30 16  1  0
 26 21  1  0
M  END
>  <Binding energies>  (54) 
[-10.5]

>  <Ligand effiencies>  (54) 
[-0.21428571428571427]

>  <Interactions>  (54) 
["V-A:MET:535:CE:4835, V-B:TYR:539:CD1:9844, V-B:TYR:539:CE2:9847, V-A:ILE:369:CG2:3236, V-B:MET:535:CE:9806, V-A:LEU:475:CD2:4258, V-B:TYR:539:CE1:9846, V-B:PRO:540:CA:9854, V-B:ALA:541:CB:9863, H-B:ALA:541:N:9862, V-B:ALA:541:CA:9861, V-A:GLU:543:CD:4908, V-B:HIS:456:CE1:9041, V-A:HIS:456:CE1:4069, V-A:ARG:545:CZ:4926, V-B:GLU:543:CD:9879, V-B:TYR:539:CZ:9848, H-B:TYR:539:OH:9849, V-B:MET:535:CG:9804, V-A:ASP:366:CB:3211, H-A:ARG:545:NH2:4928, V-A:ASP:366:CG:3212, V-B:ILE:538:CD1:9836, V-A:TYR:484:CZ:4346, H-A:TYR:484:OH:4347, V-B:ASN:362:CB:8147, V-B:MET:535:CB:9803, V-B:GLU:543:CG:9878, V-B:GLU:543:CB:9877, H-A:ASN:370:N:3243, V-B:GLU:543:C:9873, V-A:GLU:543:CB:4906, V-B:ALA:541:C:9859, V-A:TYR:484:CE1:4344, V-B:GLU:543:CA:9875, H-A:HIS:456:NE2:4070, H-A:ASP:366:O:3208"]

$$$$
RR8_A_Rahimova_2017
     RDKit          3D

 42 46  0  0  0  0  0  0  0  0999 V2000
  126.4220  126.2120   60.8040 O   0  0  0  0  0  0  0  0  0  0  0  0
  126.7420  126.2990   59.6130 C   0  0  0  0  0  0  0  0  0  0  0  0
  127.3090  127.4070   59.0440 O   0  0  0  0  0  0  0  0  0  0  0  0
  126.4740  128.2570   58.3070 C   0  0  1  0  0  0  0  0  0  0  0  0
  125.8390  129.1950   59.1280 O   0  0  0  0  0  0  0  0  0  0  0  0
  125.7410  130.4690   58.4980 C   0  0  2  0  0  0  0  0  0  0  0  0
  124.2630  130.8950   58.4800 C   0  0  0  0  0  0  0  0  0  0  0  0
  124.1790  132.2760   58.8030 O   0  0  0  0  0  0  0  0  0  0  0  0
  124.0970  132.5390   60.1980 C   0  0  0  0  0  0  0  0  0  0  0  0
  125.1930  133.5120   60.6050 C   0  0  0  0  0  0  0  0  0  0  0  0
  124.8630  134.8160   60.9810 C   0  0  0  0  0  0  0  0  0  0  0  0
  125.8640  135.7070   61.3600 C   0  0  0  0  0  0  0  0  0  0  0  0
  127.1940  135.2900   61.3660 C   0  0  0  0  0  0  0  0  0  0  0  0
  127.5310  133.9890   60.9980 C   0  0  0  0  0  0  0  0  0  0  0  0
  126.5300  133.0980   60.6200 C   0  0  0  0  0  0  0  0  0  0  0  0
  126.3810  130.2460   57.1210 C   0  0  1  0  0  0  0  0  0  0  0  0
  127.1660  131.3530   56.6820 O   0  0  0  0  0  0  0  0  0  0  0  0
  127.9030  132.0270   57.6950 C   0  0  0  0  0  0  0  0  0  0  0  0
  129.3060  132.3420   57.1950 C   0  0  0  0  0  0  0  0  0  0  0  0
  129.5140  132.6100   55.8380 C   0  0  0  0  0  0  0  0  0  0  0  0
  130.7950  132.8890   55.3720 C   0  0  0  0  0  0  0  0  0  0  0  0
  131.8680  132.8970   56.2620 C   0  0  0  0  0  0  0  0  0  0  0  0
  131.6710  132.6240   57.6130 C   0  0  0  0  0  0  0  0  0  0  0  0
  130.3890  132.3430   58.0800 C   0  0  0  0  0  0  0  0  0  0  0  0
  127.3300  129.0860   57.3600 C   0  0  2  0  0  0  0  0  0  0  0  0
  127.6330  128.4250   56.1340 O   0  0  0  0  0  0  0  0  0  0  0  0
  128.9920  128.0390   55.9620 C   0  0  0  0  0  0  0  0  0  0  0  0
  129.0670  126.7430   55.1700 C   0  0  0  0  0  0  0  0  0  0  0  0
  128.5420  125.5610   55.7040 C   0  0  0  0  0  0  0  0  0  0  0  0
  128.6040  124.3790   54.9710 C   0  0  0  0  0  0  0  0  0  0  0  0
  129.1860  124.3810   53.7050 C   0  0  0  0  0  0  0  0  0  0  0  0
  129.7050  125.5540   53.1640 C   0  0  0  0  0  0  0  0  0  0  0  0
  129.6440  126.7380   53.8970 C   0  0  0  0  0  0  0  0  0  0  0  0
  126.5550  125.1760   58.6340 C   0  0  0  0  0  0  0  0  0  0  0  0
  127.4600  124.1060   58.5510 C   0  0  0  0  0  0  0  0  0  0  0  0
  127.2600  123.0800   57.6310 C   0  0  0  0  0  0  0  0  0  0  0  0
  126.1550  123.0980   56.7710 C   0  0  0  0  0  0  0  0  0  0  0  0
  125.9420  122.0040   55.7920 N   0  0  0  0  0  0  0  0  0  0  0  0
  124.8800  121.3890   55.8190 O   0  0  0  0  0  0  0  0  0  0  0  0
  126.8360  121.7510   54.9890 O   0  0  0  0  0  0  0  0  0  0  0  0
  125.2540  124.1670   56.8530 C   0  0  0  0  0  0  0  0  0  0  0  0
  125.4520  125.1940   57.7710 C   0  0  0  0  0  0  0  0  0  0  0  0
  1  2  2  0
  2  3  1  0
  4  3  1  1
  4  5  1  0
  5  6  1  0
  6  7  1  6
  7  8  1  0
  8  9  1  0
  9 10  1  0
 10 11  2  0
 11 12  1  0
 12 13  2  0
 13 14  1  0
 14 15  2  0
  6 16  1  0
 16 17  1  1
 17 18  1  0
 18 19  1  0
 19 20  2  0
 20 21  1  0
 21 22  2  0
 22 23  1  0
 23 24  2  0
 16 25  1  0
 25 26  1  6
 26 27  1  0
 27 28  1  0
 28 29  2  0
 29 30  1  0
 30 31  2  0
 31 32  1  0
 32 33  2  0
  2 34  1  0
 34 35  2  0
 35 36  1  0
 36 37  2  0
 37 38  1  0
 38 39  2  0
 38 40  1  0
 37 41  1  0
 41 42  2  0
 25  4  1  0
 33 28  1  0
 42 34  1  0
 15 10  1  0
 24 19  1  0
M  CHG  2  38   1  40  -1
M  END
>  <Binding energies>  (55) 
[-11.16]

>  <Ligand effiencies>  (55) 
[-0.26571428571428574]

>  <Interactions>  (55) 
["V-B:ILE:369:CD1:8210, V-A:LEU:363:CD1:3188, V-B:ILE:369:CG2:8208, V-B:TRP:381:CH2:8343, V-A:ILE:538:CB:4862, V-A:TYR:539:CE2:4876, V-B:TRP:381:CZ2:8341, V-A:TYR:539:C:4867, V-A:ILE:538:C:4858, V-A:PRO:540:CA:4883, V-A:ILE:538:CG2:4863, V-A:PRO:540:CB:4885, V-A:ILE:538:CA:4860, V-A:PRO:540:N:4884, V-A:MET:535:CE:4835, V-A:TYR:539:CD2:4874, V-A:PRO:540:CD:4887, V-B:PRO:540:N:9855, V-B:TYR:539:CD1:9844, V-B:MET:535:CE:9806, V-B:ILE:538:CA:9831, V-B:ILE:538:CG2:9834, V-B:TYR:539:CE1:9846, V-B:PRO:540:CA:9854, V-B:PRO:540:CD:9858, V-B:LEU:363:CD1:8160, V-A:TYR:539:CZ:4877, H-A:TYR:539:OH:4878, V-A:TYR:531:CZ:4794, H-B:ARG:545:NH2:9899, V-B:ASP:366:CG:8184, V-B:TYR:539:CZ:9848, H-B:TYR:539:N:9841, H-B:TYR:531:OH:9766, V-A:TYR:531:CE1:4792, V-B:TYR:531:CZ:9765, V-B:MET:535:CG:9804, V-B:ASP:366:CB:8183, V-B:ILE:538:CD1:9836, V-B:MET:535:CB:9803, V-B:ASP:366:CA:8181, V-B:ILE:369:CB:8207, V-B:ILE:538:C:9829, V-B:ASP:366:C:8179, V-A:LYS:534:CD:4821"]

$$$$
RR8_B_Rahimova_2017
     RDKit          3D

 42 46  0  0  0  0  0  0  0  0999 V2000
  123.6930  131.8900   57.6380 O   0  0  0  0  0  0  0  0  0  0  0  0
  124.3110  131.0320   58.2760 C   0  0  0  0  0  0  0  0  0  0  0  0
  125.0320  130.0180   57.7100 O   0  0  0  0  0  0  0  0  0  0  0  0
  126.0140  130.3520   56.7600 C   0  0  2  0  0  0  0  0  0  0  0  0
  126.3950  129.2450   55.9920 O   0  0  0  0  0  0  0  0  0  0  0  0
  127.5110  128.5680   56.5700 C   0  0  2  0  0  0  0  0  0  0  0  0
  127.1330  127.1030   56.8520 C   0  0  0  0  0  0  0  0  0  0  0  0
  127.9660  126.2480   56.0800 O   0  0  0  0  0  0  0  0  0  0  0  0
  128.2650  124.9980   56.6850 C   0  0  0  0  0  0  0  0  0  0  0  0
  127.1800  123.9950   56.3230 C   0  0  0  0  0  0  0  0  0  0  0  0
  126.0820  123.8240   57.1700 C   0  0  0  0  0  0  0  0  0  0  0  0
  125.0980  122.8900   56.8570 C   0  0  0  0  0  0  0  0  0  0  0  0
  125.2160  122.1300   55.6950 C   0  0  0  0  0  0  0  0  0  0  0  0
  126.3040  122.2990   54.8420 C   0  0  0  0  0  0  0  0  0  0  0  0
  127.2900  123.2310   55.1570 C   0  0  0  0  0  0  0  0  0  0  0  0
  127.8660  129.4070   57.8030 C   0  0  1  0  0  0  0  0  0  0  0  0
  129.2840  129.4140   57.9920 O   0  0  0  0  0  0  0  0  0  0  0  0
  130.0960  129.5560   56.8240 C   0  0  0  0  0  0  0  0  0  0  0  0
  130.8390  130.8880   56.7940 C   0  0  0  0  0  0  0  0  0  0  0  0
  130.6320  131.7820   55.7400 C   0  0  0  0  0  0  0  0  0  0  0  0
  131.2870  133.0110   55.7320 C   0  0  0  0  0  0  0  0  0  0  0  0
  132.1490  133.3400   56.7760 C   0  0  0  0  0  0  0  0  0  0  0  0
  132.3630  132.4510   57.8280 C   0  0  0  0  0  0  0  0  0  0  0  0
  131.7060  131.2230   57.8380 C   0  0  0  0  0  0  0  0  0  0  0  0
  127.2930  130.7810   57.4780 C   0  0  2  0  0  0  0  0  0  0  0  0
  127.0600  131.5190   58.6750 O   0  0  0  0  0  0  0  0  0  0  0  0
  128.1880  132.1940   59.2090 C   0  0  0  0  0  0  0  0  0  0  0  0
  127.8100  132.7480   60.5720 C   0  0  0  0  0  0  0  0  0  0  0  0
  126.9400  133.8370   60.6750 C   0  0  0  0  0  0  0  0  0  0  0  0
  126.6160  134.3480   61.9290 C   0  0  0  0  0  0  0  0  0  0  0  0
  127.1610  133.7710   63.0730 C   0  0  0  0  0  0  0  0  0  0  0  0
  128.0280  132.6830   62.9780 C   0  0  0  0  0  0  0  0  0  0  0  0
  128.3520  132.1710   61.7250 C   0  0  0  0  0  0  0  0  0  0  0  0
  124.3180  130.9720   59.7770 C   0  0  0  0  0  0  0  0  0  0  0  0
  123.4110  131.7110   60.5510 C   0  0  0  0  0  0  0  0  0  0  0  0
  123.4460  131.6420   61.9390 C   0  0  0  0  0  0  0  0  0  0  0  0
  124.3940  130.8440   62.5900 C   0  0  0  0  0  0  0  0  0  0  0  0
  124.4480  130.7930   64.0720 N   0  0  0  0  0  0  0  0  0  0  0  0
  123.7400  129.9790   64.6580 O   0  0  0  0  0  0  0  0  0  0  0  0
  125.2020  131.5640   64.6600 O   0  0  0  0  0  0  0  0  0  0  0  0
  125.2970  130.1020   61.8170 C   0  0  0  0  0  0  0  0  0  0  0  0
  125.2570  130.1640   60.4270 C   0  0  0  0  0  0  0  0  0  0  0  0
  1  2  2  0
  2  3  1  0
  4  3  1  1
  4  5  1  0
  5  6  1  0
  6  7  1  1
  7  8  1  0
  8  9  1  0
  9 10  1  0
 10 11  2  0
 11 12  1  0
 12 13  2  0
 13 14  1  0
 14 15  2  0
  6 16  1  0
 16 17  1  6
 17 18  1  0
 18 19  1  0
 19 20  2  0
 20 21  1  0
 21 22  2  0
 22 23  1  0
 23 24  2  0
 16 25  1  0
 25 26  1  1
 26 27  1  0
 27 28  1  0
 28 29  2  0
 29 30  1  0
 30 31  2  0
 31 32  1  0
 32 33  2  0
  2 34  1  0
 34 35  2  0
 35 36  1  0
 36 37  2  0
 37 38  1  0
 38 39  2  0
 38 40  1  0
 37 41  1  0
 41 42  2  0
 25  4  1  0
 33 28  1  0
 42 34  1  0
 15 10  1  0
 24 19  1  0
M  CHG  2  38   1  40  -1
M  END
>  <Binding energies>  (56) 
[-10.79]

>  <Ligand effiencies>  (56) 
[-0.25690476190476186]

>  <Interactions>  (56) 
["V-B:ILE:369:CD1:8210, V-A:LEU:363:CD1:3188, V-B:ILE:369:CG2:8208, V-A:PRO:540:CG:4886, V-A:ILE:538:CB:4862, V-A:TYR:539:CE2:4876, V-A:TYR:539:C:4867, V-A:ILE:538:C:4858, V-A:PRO:540:CA:4883, V-A:ILE:538:CG2:4863, V-A:PRO:540:CB:4885, V-B:LEU:475:CD1:9229, V-A:ILE:538:CA:4860, V-A:PRO:540:N:4884, V-A:MET:535:CE:4835, V-A:TYR:539:CD2:4874, V-A:ALA:541:CB:4892, V-A:PRO:540:CD:4887, V-B:PRO:540:N:9855, V-B:TYR:539:CD1:9844, V-B:MET:535:CE:9806, V-B:ILE:538:CA:9831, V-B:ILE:538:CG2:9834, V-B:TYR:539:CE1:9846, V-B:PRO:540:CA:9854, V-B:PRO:540:CB:9856, V-B:PRO:540:CD:9858, V-B:LEU:363:CD1:8160, H-A:TYR:539:OH:4878, V-B:GLY:454:CA:9020, V-A:TYR:531:CZ:4794, H-B:ARG:545:NE:9895, H-B:TYR:484:OH:9319, H-B:GLY:454:N:9021, H-B:ARG:545:NH1:9898, H-B:ARG:545:NH2:9899, V-B:ASP:366:CG:8184, V-B:TYR:539:CZ:9848, H-B:TYR:531:OH:9766, V-B:ASP:366:CB:8183, V-B:ILE:538:CD1:9836, V-B:ASP:366:CA:8181, H-B:ASN:370:N:8215, V-B:ILE:369:CB:8207, V-B:TYR:531:CE1:9763, V-B:ILE:538:C:9829, V-B:ASP:366:C:8179"]

$$$$
RR9_Rahimova_2017
     RDKit          3D

 36 40  0  0  0  0  0  0  0  0999 V2000
  125.2210  122.1250   55.4830 C   0  0  0  0  0  0  0  0  0  0  0  0
  126.7000  122.5230   55.5260 C   0  0  0  0  0  0  0  0  0  0  0  0
  127.0340  122.8990   56.8590 O   0  0  0  0  0  0  0  0  0  0  0  0
  126.9330  124.2240   57.2360 C   0  0  0  0  0  0  0  0  0  0  0  0
  125.9180  124.5410   58.1370 C   0  0  0  0  0  0  0  0  0  0  0  0
  125.7380  125.8500   58.5710 C   0  0  0  0  0  0  0  0  0  0  0  0
  126.5720  126.8830   58.1160 C   0  0  0  0  0  0  0  0  0  0  0  0
  126.3800  128.2970   58.5770 C   0  0  0  0  0  0  0  0  0  0  0  0
  127.2790  128.9100   59.4640 C   0  0  0  0  0  0  0  0  0  0  0  0
  127.1020  130.2410   59.8840 C   0  0  0  0  0  0  0  0  0  0  0  0
  128.1530  130.8730   60.7540 C   0  0  0  0  0  0  0  0  0  0  0  0
  127.8660  131.2860   61.8780 O   0  0  0  0  0  0  0  0  0  0  0  0
  129.3830  130.9670   60.2110 N   0  0  0  0  0  0  0  0  0  0  0  0
  130.5340  131.6560   60.8050 C   0  0  0  0  0  0  0  0  0  0  0  0
  131.6770  131.9070   59.7940 C   0  0  0  0  0  0  0  0  0  0  0  0
  131.2150  132.2550   58.3840 C   0  0  0  0  0  0  0  0  0  0  0  0
  132.0440  131.9920   57.2890 C   0  0  0  0  0  0  0  0  0  0  0  0
  131.6050  132.2790   55.9990 C   0  0  0  0  0  0  0  0  0  0  0  0
  130.3410  132.8320   55.8080 C   0  0  0  0  0  0  0  0  0  0  0  0
  129.5100  133.1010   56.8950 C   0  0  0  0  0  0  0  0  0  0  0  0
  129.9490  132.8130   58.1860 C   0  0  0  0  0  0  0  0  0  0  0  0
  125.9530  130.9070   59.3890 C   0  0  0  0  0  0  0  0  0  0  0  0
  125.3020  132.1890   59.5160 C   0  0  0  0  0  0  0  0  0  0  0  0
  125.6510  133.3480   60.3890 C   0  0  0  0  0  0  0  0  0  0  0  0
  124.6440  134.0690   61.0380 C   0  0  0  0  0  0  0  0  0  0  0  0
  124.9710  135.1600   61.8390 C   0  0  0  0  0  0  0  0  0  0  0  0
  126.3070  135.5320   61.9980 C   0  0  0  0  0  0  0  0  0  0  0  0
  126.6630  136.7320   62.8570 C   0  0  0  0  0  0  0  0  0  0  0  0
  127.3150  134.8150   61.3520 C   0  0  0  0  0  0  0  0  0  0  0  0
  126.9870  133.7240   60.5530 C   0  0  0  0  0  0  0  0  0  0  0  0
  124.2480  132.2500   58.7330 N   0  0  0  0  0  0  0  0  0  0  0  0
  124.1150  131.0600   58.1250 N   0  0  0  0  0  0  0  0  0  0  0  0
  125.1180  130.1960   58.4940 C   0  0  0  0  0  0  0  0  0  0  0  0
  125.2850  128.9390   58.0840 N   0  0  0  0  0  0  0  0  0  0  0  0
  127.5900  126.5570   57.2090 C   0  0  0  0  0  0  0  0  0  0  0  0
  127.7730  125.2460   56.7730 C   0  0  0  0  0  0  0  0  0  0  0  0
  1  2  1  0
  2  3  1  0
  3  4  1  0
  4  5  2  0
  5  6  1  0
  6  7  2  0
  7  8  1  0
  8  9  2  0
  9 10  1  0
 10 11  1  0
 11 12  2  0
 11 13  1  0
 13 14  1  0
 14 15  1  0
 15 16  1  0
 16 17  2  0
 17 18  1  0
 18 19  2  0
 19 20  1  0
 20 21  2  0
 10 22  2  0
 22 23  1  0
 23 24  1  0
 24 25  2  0
 25 26  1  0
 26 27  2  0
 27 28  1  0
 27 29  1  0
 29 30  2  0
 23 31  2  0
 31 32  1  0
 32 33  1  0
 33 34  2  0
  7 35  1  0
 35 36  2  0
 36  4  1  0
 34  8  1  0
 21 16  1  0
 33 22  1  0
 30 24  1  0
M  END
>  <Binding energies>  (57) 
[-9.6]

>  <Ligand effiencies>  (57) 
[-0.25263157894736843]

>  <Interactions>  (57) 
["V-A:LEU:363:CD1:3188, V-B:ILE:369:CG2:8208, V-B:TRP:381:CH2:8343, V-A:ILE:538:CB:4862, V-A:TYR:539:CE2:4876, V-B:TRP:381:CZ2:8341, V-A:TYR:539:C:4867, V-A:PRO:540:CA:4883, V-A:PRO:540:CB:4885, V-B:LEU:475:CD1:9229, V-A:ILE:538:CA:4860, V-A:PRO:540:N:4884, V-B:PRO:482:CB:9297, V-A:MET:535:CE:4835, V-A:TYR:539:CD2:4874, V-A:TYR:539:CA:4869, V-A:ALA:541:CB:4892, V-B:PRO:482:CG:9298, V-B:TYR:539:CD1:9844, V-B:MET:535:CE:9806, V-B:ILE:538:CA:9831, V-B:ILE:538:CG2:9834, V-B:TYR:539:CE1:9846, V-B:PRO:540:CD:9858, V-B:LEU:363:CD1:8160, H-A:TYR:539:OH:4878, V-B:ASP:366:CG:8184, H-B:TYR:531:OH:9766, V-B:ASP:366:CB:8183, V-B:ILE:538:CD1:9836, V-B:ASP:366:CA:8181, H-B:ASP:366:O:8180, V-A:TYR:539:CG:4872, V-B:ILE:538:CB:9833, V-B:ASP:366:C:8179, V-A:TYR:539:CD1:4873"]

$$$$
