1a_Ghoteimi_2023
     RDKit          3D

 40 43  0  0  0  0  0  0  0  0999 V2000
  128.8920  132.4910   54.9770 C   0  0  0  0  0  0  0  0  0  0  0  0
  130.1690  133.2820   54.6810 C   0  0  0  0  0  0  0  0  0  0  0  0
  130.5240  134.0490   55.8250 O   0  0  0  0  0  0  0  0  0  0  0  0
  131.5570  133.6780   56.6250 C   0  0  0  0  0  0  0  0  0  0  0  0
  132.7380  133.9420   56.3790 O   0  0  0  0  0  0  0  0  0  0  0  0
  131.1180  132.9180   57.8440 C   0  0  0  0  0  0  0  0  0  0  0  0
  131.9950  132.0870   58.5560 C   0  0  0  0  0  0  0  0  0  0  0  0
  131.5590  131.3920   59.6810 C   0  0  0  0  0  0  0  0  0  0  0  0
  130.2320  131.5210   60.1180 C   0  0  0  0  0  0  0  0  0  0  0  0
  129.6840  130.8630   61.2350 N   0  0  0  0  0  0  0  0  0  0  0  0
  129.0680  131.3740   62.3240 C   0  0  0  0  0  0  0  0  0  0  0  0
  128.8540  132.5680   62.5310 O   0  0  0  0  0  0  0  0  0  0  0  0
  128.6060  130.3480   63.3590 C   0  0  0  0  0  0  0  0  0  0  0  0
  127.3250  129.2470   62.6910 S   0  0  0  0  0  0  0  0  0  0  0  0
  128.1580  127.7510   62.2120 C   0  0  0  0  0  0  0  0  0  0  0  0
  129.2560  127.4720   62.9540 N   0  0  0  0  0  0  0  0  0  0  0  0
  129.9810  126.3520   62.6940 C   0  0  0  0  0  0  0  0  0  0  0  0
  131.1720  126.1020   63.5730 C   0  0  0  0  0  0  0  0  0  0  0  0
  131.1780  126.4940   64.9220 C   0  0  0  0  0  0  0  0  0  0  0  0
  132.2830  126.2600   65.7350 C   0  0  0  0  0  0  0  0  0  0  0  0
  133.4170  125.6300   65.2270 C   0  0  0  0  0  0  0  0  0  0  0  0
  134.4650  125.4370   66.1070 O   0  0  0  0  0  0  0  0  0  0  0  0
  134.2640  125.6920   67.4920 C   0  0  0  0  0  0  0  0  0  0  0  0
  133.4280  125.2370   63.8820 C   0  0  0  0  0  0  0  0  0  0  0  0
  132.3210  125.4730   63.0720 C   0  0  0  0  0  0  0  0  0  0  0  0
  129.6030  125.4840   61.6620 C   0  0  0  0  0  0  0  0  0  0  0  0
  128.4860  125.7640   60.8650 C   0  0  0  0  0  0  0  0  0  0  0  0
  128.1610  124.8090   59.7630 C   0  0  0  0  0  0  0  0  0  0  0  0
  126.9810  124.0580   59.7880 C   0  0  0  0  0  0  0  0  0  0  0  0
  126.6790  123.1820   58.7500 C   0  0  0  0  0  0  0  0  0  0  0  0
  127.5440  123.0430   57.6640 C   0  0  0  0  0  0  0  0  0  0  0  0
  127.1610  122.1510   56.6820 O   0  0  0  0  0  0  0  0  0  0  0  0
  125.9890  122.4190   55.9190 C   0  0  0  0  0  0  0  0  0  0  0  0
  128.7240  123.8010   57.6310 C   0  0  0  0  0  0  0  0  0  0  0  0
  129.0250  124.6760   58.6720 C   0  0  0  0  0  0  0  0  0  0  0  0
  127.7330  126.9300   61.1460 C   0  0  0  0  0  0  0  0  0  0  0  0
  126.5450  127.2680   60.3560 C   0  0  0  0  0  0  0  0  0  0  0  0
  125.6070  127.5340   59.7320 N   0  0  0  0  0  0  0  0  0  0  0  0
  129.3560  132.3430   59.4090 C   0  0  0  0  0  0  0  0  0  0  0  0
  129.7940  133.0380   58.2840 C   0  0  0  0  0  0  0  0  0  0  0  0
  1  2  1  0
  2  3  1  0
  3  4  1  0
  4  5  2  0
  4  6  1  0
  6  7  2  0
  7  8  1  0
  8  9  2  0
  9 10  1  0
 10 11  1  0
 11 12  2  0
 11 13  1  0
 13 14  1  0
 14 15  1  0
 15 16  2  0
 16 17  1  0
 17 18  1  0
 18 19  2  0
 19 20  1  0
 20 21  2  0
 21 22  1  0
 22 23  1  0
 21 24  1  0
 24 25  2  0
 17 26  2  0
 26 27  1  0
 27 28  1  0
 28 29  2  0
 29 30  1  0
 30 31  2  0
 31 32  1  0
 32 33  1  0
 31 34  1  0
 34 35  2  0
 27 36  2  0
 36 37  1  0
 37 38  3  0
  9 39  1  0
 39 40  2  0
 40  6  1  0
 36 15  1  0
 25 18  1  0
 35 28  1  0
M  END
>  <Binding energies>  (1) 
[-9.25]

>  <Ligand effiencies>  (1) 
[-0.22560975609756098]

>  <Interactions>  (1) 
["V-A:TYR:539:CZ:4876, V-A:PRO:540:CB:4884, V-A:TYR:539:CD1:4872, V-A:TYR:539:C:4866, V-B:TYR:539:CZ:9848, V-A:MET:535:CB:4831, V-A:ASP:366:CG:3212, V-A:MET:535:CG:4832, V-A:PRO:540:N:4883, V-B:TYR:539:CD2:9845, V-B:MET:535:CE:9806, V-A:PRO:540:CA:4882, V-B:TYR:539:C:9838, V-A:TYR:539:CE1:4874, V-B:TYR:539:CE2:9847, H-B:TYR:539:N:9841, V-B:PRO:540:CA:9854, V-B:PRO:540:CB:9856, V-B:ILE:538:CD1:9836, V-B:PRO:540:N:9855, H-A:TYR:539:N:4869, V-A:PRO:540:CD:4886, V-B:PRO:540:CD:9858, V-A:ILE:538:CB:4861, V-A:ARG:545:CZ:4925, H-A:GLY:454:N:4049, H-A:TYR:484:OH:4347, V-A:ARG:545:CD:4922, V-B:ILE:538:CA:9831, V-A:ILE:455:C:4051, H-A:ARG:545:NE:4923, V-A:ARG:545:CG:4921, V-A:TYR:484:CZ:4346, V-A:GLU:543:CD:4907, V-A:ILE:538:CA:4859, V-A:ILE:538:CG2:4862, V-A:HIS:456:CE1:4069"]

$$$$
1b_Ghoteimi_2023
     RDKit          3D

 34 37  0  0  0  0  0  0  0  0999 V2000
  126.6680  122.0480   55.3690 C   0  0  0  0  0  0  0  0  0  0  0  0
  126.8310  122.4030   56.7370 O   0  0  0  0  0  0  0  0  0  0  0  0
  126.4510  123.6640   57.1560 C   0  0  0  0  0  0  0  0  0  0  0  0
  127.4550  124.6260   57.2340 C   0  0  0  0  0  0  0  0  0  0  0  0
  127.1650  125.9230   57.6470 C   0  0  0  0  0  0  0  0  0  0  0  0
  125.8580  126.2990   57.9920 C   0  0  0  0  0  0  0  0  0  0  0  0
  125.5500  127.7000   58.4390 C   0  0  0  0  0  0  0  0  0  0  0  0
  125.3000  128.0350   59.7740 C   0  0  0  0  0  0  0  0  0  0  0  0
  125.0210  129.3580   60.1400 C   0  0  0  0  0  0  0  0  0  0  0  0
  124.7590  129.6420   61.5830 C   0  0  0  0  0  0  0  0  0  0  0  0
  125.6160  129.1400   62.5670 C   0  0  0  0  0  0  0  0  0  0  0  0
  125.3710  129.3940   63.9140 C   0  0  0  0  0  0  0  0  0  0  0  0
  124.2660  130.1500   64.3030 C   0  0  0  0  0  0  0  0  0  0  0  0
  124.1020  130.3510   65.6610 O   0  0  0  0  0  0  0  0  0  0  0  0
  124.4600  129.3110   66.5640 C   0  0  0  0  0  0  0  0  0  0  0  0
  123.3990  130.6490   63.3190 C   0  0  0  0  0  0  0  0  0  0  0  0
  123.6460  130.3930   61.9740 C   0  0  0  0  0  0  0  0  0  0  0  0
  125.0090  130.3490   59.1280 C   0  0  0  0  0  0  0  0  0  0  0  0
  124.8180  131.7620   59.4710 C   0  0  0  0  0  0  0  0  0  0  0  0
  124.6660  132.8760   59.7440 N   0  0  0  0  0  0  0  0  0  0  0  0
  125.2490  129.9410   57.7970 C   0  0  0  0  0  0  0  0  0  0  0  0
  125.2650  131.0440   56.3990 S   0  0  0  0  0  0  0  0  0  0  0  0
  126.5300  130.4480   55.2280 C   0  0  0  0  0  0  0  0  0  0  0  0
  127.9730  130.8440   55.5730 C   0  0  0  0  0  0  0  0  0  0  0  0
  128.7700  130.0070   56.0020 O   0  0  0  0  0  0  0  0  0  0  0  0
  128.2630  132.1490   55.3700 N   0  0  0  0  0  0  0  0  0  0  0  0
  129.4790  132.7840   55.5920 C   0  0  0  0  0  0  0  0  0  0  0  0
  130.6110  132.5560   54.8110 C   0  0  0  0  0  0  0  0  0  0  0  0
  131.5860  133.3650   55.3490 C   0  0  0  0  0  0  0  0  0  0  0  0
  131.0660  134.0470   56.3980 O   0  0  0  0  0  0  0  0  0  0  0  0
  129.7300  133.6710   56.5420 N   0  0  0  0  0  0  0  0  0  0  0  0
  125.5300  128.6550   57.4730 N   0  0  0  0  0  0  0  0  0  0  0  0
  124.8540  125.3210   57.9110 C   0  0  0  0  0  0  0  0  0  0  0  0
  125.1400  124.0230   57.5000 C   0  0  0  0  0  0  0  0  0  0  0  0
  1  2  1  0
  2  3  1  0
  3  4  2  0
  4  5  1  0
  5  6  2  0
  6  7  1  0
  7  8  2  0
  8  9  1  0
  9 10  1  0
 10 11  2  0
 11 12  1  0
 12 13  2  0
 13 14  1  0
 14 15  1  0
 13 16  1  0
 16 17  2  0
  9 18  2  0
 18 19  1  0
 19 20  3  0
 18 21  1  0
 21 22  1  0
 22 23  1  0
 23 24  1  0
 24 25  2  0
 24 26  1  0
 26 27  1  0
 27 28  1  0
 28 29  2  0
 29 30  1  0
 30 31  1  0
 21 32  2  0
  6 33  1  0
 33 34  2  0
 34  3  1  0
 32  7  1  0
 17 10  1  0
 31 27  2  0
M  END
>  <Binding energies>  (2) 
[-9.57]

>  <Ligand effiencies>  (2) 
[-0.2734285714285714]

>  <Interactions>  (2) 
["V-B:LEU:363:CD1:8159, V-B:TYR:531:CZ:9765, V-A:TYR:539:CZ:4876, V-A:MET:535:CB:4831, V-B:TYR:531:CE2:9764, V-A:MET:535:CG:4832, H-B:TYR:531:OH:9766, V-A:TYR:531:CE2:4792, V-B:MET:535:CE:9806, V-B:ILE:369:CG2:8207, V-A:TYR:539:CE1:4874, V-B:TYR:539:CD1:9844, V-B:ASP:366:CG:8183, V-B:ASP:366:CB:8182, V-B:GLY:453:CA:9014, V-B:MET:535:CG:9804, H-B:TYR:539:N:9841, V-B:GLY:453:C:9012, V-B:ARG:545:CZ:9897, V-B:ILE:538:CD1:9836, H-B:GLY:454:N:9020, H-A:TYR:539:N:4869, V-A:TYR:531:CZ:4793, H-A:TYR:531:OH:4794, V-A:ILE:538:CB:4861, V-B:ILE:538:CA:9831, H-B:TYR:484:OH:9318, V-A:MET:535:CE:4834, H-A:TYR:539:OH:4877, V-A:ILE:538:CA:4859, V-A:ILE:538:CG2:4862, V-B:ILE:538:C:9829, V-B:ARG:545:CG:9893, V-B:ARG:545:CD:9894, V-B:GLY:454:CA:9019"]

$$$$
1c_Ghoteimi_2023
     RDKit          3D

 34 37  0  0  0  0  0  0  0  0999 V2000
  125.6430  121.7260   55.8200 C   0  0  0  0  0  0  0  0  0  0  0  0
  126.4190  122.2660   56.8840 O   0  0  0  0  0  0  0  0  0  0  0  0
  126.2460  123.5900   57.2420 C   0  0  0  0  0  0  0  0  0  0  0  0
  124.9520  123.9850   57.5700 C   0  0  0  0  0  0  0  0  0  0  0  0
  124.6850  125.3000   57.9390 C   0  0  0  0  0  0  0  0  0  0  0  0
  125.7070  126.2610   57.9910 C   0  0  0  0  0  0  0  0  0  0  0  0
  125.4230  127.6820   58.3840 C   0  0  0  0  0  0  0  0  0  0  0  0
  125.2090  128.0710   59.7110 C   0  0  0  0  0  0  0  0  0  0  0  0
  124.9740  129.4140   60.0320 C   0  0  0  0  0  0  0  0  0  0  0  0
  124.8220  129.7670   61.4750 C   0  0  0  0  0  0  0  0  0  0  0  0
  125.7880  129.3810   62.4080 C   0  0  0  0  0  0  0  0  0  0  0  0
  125.6340  129.6920   63.7550 C   0  0  0  0  0  0  0  0  0  0  0  0
  124.5100  130.3910   64.1960 C   0  0  0  0  0  0  0  0  0  0  0  0
  124.4410  130.6570   65.5500 O   0  0  0  0  0  0  0  0  0  0  0  0
  124.3020  129.5740   66.4640 C   0  0  0  0  0  0  0  0  0  0  0  0
  123.5350  130.7760   63.2630 C   0  0  0  0  0  0  0  0  0  0  0  0
  123.6910  130.4620   61.9160 C   0  0  0  0  0  0  0  0  0  0  0  0
  124.9290  130.3600   58.9810 C   0  0  0  0  0  0  0  0  0  0  0  0
  124.6540  131.7760   59.2490 C   0  0  0  0  0  0  0  0  0  0  0  0
  124.4370  132.8920   59.4610 N   0  0  0  0  0  0  0  0  0  0  0  0
  125.1700  129.9020   57.6690 C   0  0  0  0  0  0  0  0  0  0  0  0
  125.3110  131.0020   56.2780 S   0  0  0  0  0  0  0  0  0  0  0  0
  126.6620  130.3080   55.2700 C   0  0  0  0  0  0  0  0  0  0  0  0
  128.0420  130.7430   55.7750 C   0  0  0  0  0  0  0  0  0  0  0  0
  128.8510  129.8900   56.1440 O   0  0  0  0  0  0  0  0  0  0  0  0
  128.2780  132.0730   55.7330 N   0  0  0  0  0  0  0  0  0  0  0  0
  129.4840  132.7080   55.9830 C   0  0  0  0  0  0  0  0  0  0  0  0
  129.9460  133.1380   57.1370 N   0  0  0  0  0  0  0  0  0  0  0  0
  131.1510  133.6600   57.0110 C   0  0  0  0  0  0  0  0  0  0  0  0
  131.6920  133.6570   55.7300 C   0  0  0  0  0  0  0  0  0  0  0  0
  130.5520  132.9330   54.6350 S   0  0  0  0  0  0  0  0  0  0  0  0
  125.4180  128.6010   57.3840 N   0  0  0  0  0  0  0  0  0  0  0  0
  127.0080  125.8500   57.6650 C   0  0  0  0  0  0  0  0  0  0  0  0
  127.2780  124.5370   57.2940 C   0  0  0  0  0  0  0  0  0  0  0  0
  1  2  1  0
  2  3  1  0
  3  4  2  0
  4  5  1  0
  5  6  2  0
  6  7  1  0
  7  8  2  0
  8  9  1  0
  9 10  1  0
 10 11  2  0
 11 12  1  0
 12 13  2  0
 13 14  1  0
 14 15  1  0
 13 16  1  0
 16 17  2  0
  9 18  2  0
 18 19  1  0
 19 20  3  0
 18 21  1  0
 21 22  1  0
 22 23  1  0
 23 24  1  0
 24 25  2  0
 24 26  1  0
 26 27  1  0
 27 28  2  0
 28 29  1  0
 29 30  2  0
 30 31  1  0
 21 32  2  0
  6 33  1  0
 33 34  2  0
 34  3  1  0
 32  7  1  0
 17 10  1  0
 31 27  1  0
M  END
>  <Binding energies>  (3) 
[-8.53]

>  <Ligand effiencies>  (3) 
[-0.2437142857142857]

>  <Interactions>  (3) 
["V-B:LEU:363:CD1:8159, V-B:TYR:531:CZ:9765, V-A:TYR:539:CZ:4876, V-A:TYR:539:CD1:4872, V-A:TYR:539:C:4866, V-A:MET:535:CB:4831, V-B:TYR:531:CE2:9764, V-A:MET:535:CG:4832, H-B:TYR:531:OH:9766, V-A:TYR:531:CE2:4792, V-A:LEU:363:CD1:3188, V-A:PRO:540:N:4883, V-B:MET:535:CE:9806, V-A:TYR:539:CA:4868, V-B:ILE:369:CG2:8207, V-A:PRO:540:CA:4882, V-A:TYR:539:CE1:4874, V-B:ASP:366:CG:8183, V-B:ASP:366:CB:8182, V-B:ILE:538:CG2:9834, V-B:GLY:453:CA:9014, H-B:TYR:539:N:9841, V-B:GLY:453:C:9012, V-B:PRO:540:CB:9856, V-B:ARG:545:CZ:9897, V-B:ILE:538:CD1:9836, V-B:PRO:540:N:9855, H-B:GLY:454:N:9020, V-A:PRO:540:CD:4886, V-B:PRO:540:CD:9858, H-A:TYR:531:OH:4794, V-A:ILE:538:CB:4861, V-B:ILE:538:CA:9831, H-B:TYR:484:OH:9318, V-A:MET:535:CE:4834, H-A:TYR:539:OH:4877, V-A:ILE:538:CA:4859, V-A:ILE:538:CG2:4862, V-B:ILE:538:C:9829, V-B:ILE:538:CB:9833, V-B:ARG:545:CD:9894, V-B:GLY:454:CA:9019"]

$$$$
1d_Ghoteimi_2023
     RDKit          3D

 30 32  0  0  0  0  0  0  0  0999 V2000
  124.3140  129.5570   64.4250 C   0  0  0  0  0  0  0  0  0  0  0  0
  124.1310  130.2300   65.6610 O   0  0  0  0  0  0  0  0  0  0  0  0
  123.9440  129.5320   66.8000 C   0  0  0  0  0  0  0  0  0  0  0  0
  122.9550  129.5860   67.5340 O   0  0  0  0  0  0  0  0  0  0  0  0
  125.1270  128.6250   67.1250 C   0  0  0  0  0  0  0  0  0  0  0  0
  126.6460  129.5760   66.8210 S   0  0  0  0  0  0  0  0  0  0  0  0
  128.0110  128.5580   67.3370 C   0  0  0  0  0  0  0  0  0  0  0  0
  128.0510  128.3350   68.6730 N   0  0  0  0  0  0  0  0  0  0  0  0
  129.0440  127.5770   69.2030 C   0  0  0  0  0  0  0  0  0  0  0  0
  129.0120  127.3740   70.6910 C   0  0  0  0  0  0  0  0  0  0  0  0
  129.7400  128.2070   71.5550 C   0  0  0  0  0  0  0  0  0  0  0  0
  129.7140  128.0130   72.9330 C   0  0  0  0  0  0  0  0  0  0  0  0
  128.9640  126.9800   73.4900 C   0  0  0  0  0  0  0  0  0  0  0  0
  129.0000  126.8610   74.8660 O   0  0  0  0  0  0  0  0  0  0  0  0
  130.2510  126.9660   75.5380 C   0  0  0  0  0  0  0  0  0  0  0  0
  128.2320  126.1400   72.6400 C   0  0  0  0  0  0  0  0  0  0  0  0
  128.2590  126.3370   71.2620 C   0  0  0  0  0  0  0  0  0  0  0  0
  130.0250  127.0100   68.3810 C   0  0  0  0  0  0  0  0  0  0  0  0
  130.0160  127.2370   66.9990 C   0  0  0  0  0  0  0  0  0  0  0  0
  131.0990  126.6080   66.1820 C   0  0  0  0  0  0  0  0  0  0  0  0
  132.3930  126.4940   66.6970 C   0  0  0  0  0  0  0  0  0  0  0  0
  133.4060  125.9090   65.9410 C   0  0  0  0  0  0  0  0  0  0  0  0
  133.1450  125.4230   64.6610 C   0  0  0  0  0  0  0  0  0  0  0  0
  134.2110  124.8660   63.9820 O   0  0  0  0  0  0  0  0  0  0  0  0
  134.0550  124.5130   62.6120 C   0  0  0  0  0  0  0  0  0  0  0  0
  131.8440  125.5240   64.1440 C   0  0  0  0  0  0  0  0  0  0  0  0
  130.8330  126.1090   64.9020 C   0  0  0  0  0  0  0  0  0  0  0  0
  128.9930  128.0520   66.4560 C   0  0  0  0  0  0  0  0  0  0  0  0
  128.9950  128.4070   65.0330 C   0  0  0  0  0  0  0  0  0  0  0  0
  128.9970  128.6860   63.9100 N   0  0  0  0  0  0  0  0  0  0  0  0
  1  2  1  0
  2  3  1  0
  3  4  2  0
  3  5  1  0
  5  6  1  0
  6  7  1  0
  7  8  2  0
  8  9  1  0
  9 10  1  0
 10 11  2  0
 11 12  1  0
 12 13  2  0
 13 14  1  0
 14 15  1  0
 13 16  1  0
 16 17  2  0
  9 18  2  0
 18 19  1  0
 19 20  1  0
 20 21  2  0
 21 22  1  0
 22 23  2  0
 23 24  1  0
 24 25  1  0
 23 26  1  0
 26 27  2  0
 19 28  2  0
 28 29  1  0
 29 30  3  0
 28  7  1  0
 17 10  1  0
 27 20  1  0
M  END
>  <Binding energies>  (4) 
[-8.08]

>  <Ligand effiencies>  (4) 
[-0.2693333333333333]

>  <Interactions>  (4) 
["V-A:ASP:366:CG:3212, V-B:ARG:545:CZ:9897, H-B:GLY:454:N:9020, V-B:GLU:543:CD:9879, V-A:ARG:545:CZ:4925, H-A:GLY:454:N:4049, V-A:ILE:369:CD1:3238, V-A:ARG:545:CD:4922, V-A:ARG:545:CG:4921, V-A:GLU:543:CD:4907, H-B:TYR:484:OH:9318, V-B:GLU:543:C:9873, V-A:HIS:456:CE1:4069, V-B:HIS:456:CE1:9040, V-B:ARG:545:CG:9893, H-B:ILE:455:N:9025, V-B:ARG:545:CD:9894, H-B:LYS:547:NZ:9922"]

$$$$
1j_Grossjean_2025
     RDKit          3D

 20 21  0  0  0  0  0  0  0  0999 V2000
  125.3370  123.6650   63.2240 C   0  0  0  0  0  0  0  0  0  0  0  0
  125.4980  123.6300   61.7150 C   0  0  0  0  0  0  0  0  0  0  0  0
  124.4350  123.9190   60.8620 C   0  0  0  0  0  0  0  0  0  0  0  0
  124.6450  123.8850   59.4800 C   0  0  0  0  0  0  0  0  0  0  0  0
  123.4690  124.2230   58.5640 C   0  0  0  0  0  0  0  0  0  0  0  0
  125.9250  123.5500   58.9840 C   0  0  0  0  0  0  0  0  0  0  0  0
  126.1820  123.5600   57.5410 C   0  0  0  0  0  0  0  0  0  0  0  0
  126.3810  123.5690   56.4010 N   0  0  0  0  0  0  0  0  0  0  0  0
  126.9390  123.2460   59.9230 C   0  0  0  0  0  0  0  0  0  0  0  0
  128.6030  122.8030   59.4760 S   0  0  0  0  0  0  0  0  0  0  0  0
  129.6300  122.9350   60.9700 C   0  0  0  0  0  0  0  0  0  0  0  0
  130.7080  121.8510   61.0230 C   0  0  0  0  0  0  0  0  0  0  0  0
  131.8950  122.1800   61.0560 O   0  0  0  0  0  0  0  0  0  0  0  0
  130.2550  120.5780   61.0320 N   0  0  0  0  0  0  0  0  0  0  0  0
  131.0260  119.4240   61.0690 C   0  0  0  0  0  0  0  0  0  0  0  0
  132.2840  119.2820   60.7090 N   0  0  0  0  0  0  0  0  0  0  0  0
  132.6980  118.0430   60.8810 C   0  0  0  0  0  0  0  0  0  0  0  0
  131.7650  117.1460   61.3930 C   0  0  0  0  0  0  0  0  0  0  0  0
  130.2660  117.9830   61.6630 S   0  0  0  0  0  0  0  0  0  0  0  0
  126.7310  123.3030   61.2620 N   0  0  0  0  0  0  0  0  0  0  0  0
  1  2  1  0
  2  3  2  0
  3  4  1  0
  4  5  1  0
  4  6  2  0
  6  7  1  0
  7  8  3  0
  6  9  1  0
  9 10  1  0
 10 11  1  0
 11 12  1  0
 12 13  2  0
 12 14  1  0
 14 15  1  0
 15 16  2  0
 16 17  1  0
 17 18  2  0
 18 19  1  0
  9 20  2  0
 20  2  1  0
 19 15  1  0
M  END
>  <Binding energies>  (5) 
[-7.27]

>  <Ligand effiencies>  (5) 
[-0.34619047619047616]

>  <Interactions>  (5) 
["V-B:LEU:363:CD1:8159, V-B:LEU:363:CA:8155, H-B:TYR:531:OH:9766, V-B:TYR:539:CD2:9845, V-B:TYR:539:C:9838, V-B:ASP:366:CG:8183, V-B:TYR:539:CE2:9847, V-B:ASP:366:CB:8182, V-B:PRO:540:CA:9854, V-B:PRO:540:CB:9856, V-B:PRO:540:N:9855, V-B:GLU:543:CD:9879, V-B:ALA:541:C:9859, V-B:GLU:543:CG:9878, V-A:LEU:475:CD2:4258, V-B:ALA:541:CB:9863, V-A:HIS:383:CE1:3393, V-A:SER:385:CA:3406, V-A:SER:385:CB:3408, V-B:LEU:363:CB:8157, H-B:ALA:541:N:9862, H-B:TYR:539:O:9839, V-A:PRO:482:CG:4326, V-A:THR:477:CG2:4272, V-A:PRO:482:CB:4325"]

$$$$
1o_Grossjean_2025
     RDKit          3D

 26 27  0  0  0  0  0  0  0  0999 V2000
  129.7400  133.6510   55.5350 C   0  0  0  0  0  0  0  0  0  0  0  0
  130.2190  133.7770   56.8670 O   0  0  0  0  0  0  0  0  0  0  0  0
  131.4550  133.3320   57.2100 C   0  0  0  0  0  0  0  0  0  0  0  0
  132.4630  134.0450   57.1950 O   0  0  0  0  0  0  0  0  0  0  0  0
  131.4740  131.8870   57.6150 C   0  0  0  0  0  0  0  0  0  0  0  0
  130.3110  131.1040   57.6280 C   0  0  0  0  0  0  0  0  0  0  0  0
  130.3640  129.7640   58.0070 C   0  0  0  0  0  0  0  0  0  0  0  0
  131.5750  129.1830   58.3840 C   0  0  0  0  0  0  0  0  0  0  0  0
  131.5160  127.8210   58.7390 N   0  0  0  0  0  0  0  0  0  0  0  0
  131.0900  126.7570   58.0220 C   0  0  0  0  0  0  0  0  0  0  0  0
  130.7010  126.7980   56.8550 O   0  0  0  0  0  0  0  0  0  0  0  0
  131.1420  125.4060   58.7510 C   0  0  0  0  0  0  0  0  0  0  0  0
  129.8600  125.0930   59.5480 C   0  0  0  0  0  0  0  0  0  0  0  0
  128.9400  123.6520   58.9310 S   0  0  0  0  0  0  0  0  0  0  0  0
  127.2550  123.7730   59.4960 C   0  0  0  0  0  0  0  0  0  0  0  0
  127.1410  123.8190   60.8480 N   0  0  0  0  0  0  0  0  0  0  0  0
  125.9060  123.9200   61.3940 C   0  0  0  0  0  0  0  0  0  0  0  0
  125.8590  123.9810   62.9090 C   0  0  0  0  0  0  0  0  0  0  0  0
  124.7460  123.9670   60.6250 C   0  0  0  0  0  0  0  0  0  0  0  0
  124.8500  123.8940   59.2320 C   0  0  0  0  0  0  0  0  0  0  0  0
  123.5620  123.9330   58.4110 C   0  0  0  0  0  0  0  0  0  0  0  0
  126.1290  123.7840   58.6390 C   0  0  0  0  0  0  0  0  0  0  0  0
  126.2530  123.6480   57.1860 C   0  0  0  0  0  0  0  0  0  0  0  0
  126.3500  123.5410   56.0370 N   0  0  0  0  0  0  0  0  0  0  0  0
  132.7440  129.9590   58.3680 C   0  0  0  0  0  0  0  0  0  0  0  0
  132.6890  131.2970   57.9880 C   0  0  0  0  0  0  0  0  0  0  0  0
  1  2  1  0
  2  3  1  0
  3  4  2  0
  3  5  1  0
  5  6  2  0
  6  7  1  0
  7  8  2  0
  8  9  1  0
  9 10  1  0
 10 11  2  0
 10 12  1  0
 12 13  1  0
 13 14  1  0
 14 15  1  0
 15 16  2  0
 16 17  1  0
 17 18  1  0
 17 19  2  0
 19 20  1  0
 20 21  1  0
 20 22  2  0
 22 23  1  0
 23 24  3  0
  8 25  1  0
 25 26  2  0
 26  5  1  0
 22 15  1  0
M  END
>  <Binding energies>  (6) 
[-8.31]

>  <Ligand effiencies>  (6) 
[-0.3077777777777778]

>  <Interactions>  (6) 
["V-B:LEU:363:CD1:8159, V-A:TYR:539:CZ:4876, V-B:LEU:363:CA:8155, V-A:PRO:540:CB:4884, V-A:TYR:539:CD1:4872, V-A:TYR:539:C:4866, V-A:ASP:366:CG:3212, H-B:TYR:531:OH:9766, V-A:TYR:531:CE2:4792, V-A:PRO:540:N:4883, V-B:MET:535:CE:9806, V-A:PRO:540:CA:4882, V-A:TYR:539:CE1:4874, V-B:TYR:539:CE2:9847, V-B:PRO:540:CA:9854, V-B:PRO:540:CB:9856, H-A:TYR:539:N:4869, V-A:PRO:540:CD:4886, V-A:TYR:531:CZ:4793, H-A:TYR:531:OH:4794, V-A:TYR:539:CG:4871, V-A:ILE:538:CB:4861, V-B:GLU:543:CD:9879, H-A:ASP:366:OD2:3214, V-B:GLU:543:CG:9878, V-B:LEU:363:CB:8157, V-A:ASP:366:CB:3211, V-A:ILE:538:C:4857, V-A:ILE:538:CA:4859, V-A:TYR:539:CE2:4875"]

$$$$
1p_Grossjean_2025
     RDKit          3D

 21 22  0  0  0  0  0  0  0  0999 V2000
  130.2320  117.4660   60.7750 C   0  0  0  0  0  0  0  0  0  0  0  0
  130.8620  118.8020   61.1240 C   0  0  0  0  0  0  0  0  0  0  0  0
  132.2130  119.0530   60.8930 C   0  0  0  0  0  0  0  0  0  0  0  0
  132.7430  120.2980   61.2480 C   0  0  0  0  0  0  0  0  0  0  0  0
  134.2300  120.5460   60.9990 C   0  0  0  0  0  0  0  0  0  0  0  0
  131.8960  121.2720   61.8230 C   0  0  0  0  0  0  0  0  0  0  0  0
  132.4360  122.5640   62.2460 C   0  0  0  0  0  0  0  0  0  0  0  0
  132.8650  123.5860   62.5810 N   0  0  0  0  0  0  0  0  0  0  0  0
  130.5320  120.9380   62.0000 C   0  0  0  0  0  0  0  0  0  0  0  0
  129.3300  122.0470   62.6970 S   0  0  0  0  0  0  0  0  0  0  0  0
  129.0770  123.3780   61.4870 C   0  0  0  0  0  0  0  0  0  0  0  0
  129.8690  123.1870   60.1790 C   0  0  0  0  0  0  0  0  0  0  0  0
  129.0260  123.4050   58.9140 C   0  0  0  0  0  0  0  0  0  0  0  0
  129.2170  124.4070   58.2220 O   0  0  0  0  0  0  0  0  0  0  0  0
  128.1190  122.4400   58.6420 N   0  0  0  0  0  0  0  0  0  0  0  0
  127.2390  122.3920   57.5690 C   0  0  0  0  0  0  0  0  0  0  0  0
  125.9160  122.8270   57.6490 C   0  0  0  0  0  0  0  0  0  0  0  0
  125.3930  122.6150   56.3940 C   0  0  0  0  0  0  0  0  0  0  0  0
  126.3490  122.0780   55.6010 O   0  0  0  0  0  0  0  0  0  0  0  0
  127.5150  121.9410   56.3570 N   0  0  0  0  0  0  0  0  0  0  0  0
  130.0310  119.7200   61.6720 N   0  0  0  0  0  0  0  0  0  0  0  0
  1  2  1  0
  2  3  2  0
  3  4  1  0
  4  5  1  0
  4  6  2  0
  6  7  1  0
  7  8  3  0
  6  9  1  0
  9 10  1  0
 10 11  1  0
 11 12  1  0
 12 13  1  0
 13 14  2  0
 13 15  1  0
 15 16  1  0
 16 17  1  0
 17 18  2  0
 18 19  1  0
 19 20  1  0
  9 21  2  0
 21  2  1  0
 20 16  2  0
M  END
>  <Binding energies>  (7) 
[-7.54]

>  <Ligand effiencies>  (7) 
[-0.3427272727272727]

>  <Interactions>  (7) 
["V-B:LEU:363:CD1:8159, V-B:TYR:539:CZ:9848, V-B:TYR:531:CE2:9764, V-B:TYR:539:CD2:9845, V-B:TYR:539:C:9838, V-B:TYR:539:CA:9840, V-B:TYR:539:CG:9843, V-B:TYR:539:CE2:9847, H-B:TYR:539:N:9841, V-B:PRO:540:CA:9854, V-B:PRO:540:CB:9856, V-B:PRO:540:N:9855, V-B:PRO:540:CD:9858, V-A:ILE:369:CD1:3238, V-A:LEU:475:CD2:4258, V-B:ALA:541:CB:9863, V-A:SER:385:C:3404, V-A:HIS:383:CE1:3393, V-A:ILE:369:CG2:3236, V-A:SER:385:CA:3406, V-B:TYR:539:CB:9842, V-A:SER:385:CB:3408, H-B:ALA:541:N:9862, H-B:TYR:539:O:9839, V-A:PRO:482:CG:4326, V-A:PRO:482:CB:4325"]

$$$$
2a_Ghoteimi_2023
     RDKit          3D

 48 53  0  0  0  0  0  0  0  0999 V2000
  129.5330  133.3000   54.8540 C   0  0  0  0  0  0  0  0  0  0  0  0
  130.9440  133.2130   55.4420 C   0  0  0  0  0  0  0  0  0  0  0  0
  130.9250  133.6800   56.7850 O   0  0  0  0  0  0  0  0  0  0  0  0
  131.1120  132.8300   57.8270 C   0  0  0  0  0  0  0  0  0  0  0  0
  132.1500  132.1840   57.9990 O   0  0  0  0  0  0  0  0  0  0  0  0
  129.9320  132.7590   58.7530 C   0  0  0  0  0  0  0  0  0  0  0  0
  128.6300  132.5360   58.2820 C   0  0  0  0  0  0  0  0  0  0  0  0
  127.5590  132.4750   59.1680 C   0  0  0  0  0  0  0  0  0  0  0  0
  127.7630  132.6300   60.5400 C   0  0  0  0  0  0  0  0  0  0  0  0
  126.6090  132.5540   61.3430 N   0  0  0  0  0  0  0  0  0  0  0  0
  125.8200  133.5420   61.8190 C   0  0  0  0  0  0  0  0  0  0  0  0
  126.0170  134.7470   61.6570 O   0  0  0  0  0  0  0  0  0  0  0  0
  124.6190  133.0730   62.6510 C   0  0  0  0  0  0  0  0  0  0  0  0
  123.8240  131.5530   62.0370 S   0  0  0  0  0  0  0  0  0  0  0  0
  124.8130  130.2110   62.6560 C   0  0  0  0  0  0  0  0  0  0  0  0
  125.0350  129.2310   61.7490 N   0  0  0  0  0  0  0  0  0  0  0  0
  125.7700  128.1470   62.1050 C   0  0  0  0  0  0  0  0  0  0  0  0
  125.9670  127.1010   61.0560 C   0  0  0  0  0  0  0  0  0  0  0  0
  126.0830  127.4440   59.7030 C   0  0  0  0  0  0  0  0  0  0  0  0
  126.2540  126.4650   58.7280 C   0  0  0  0  0  0  0  0  0  0  0  0
  126.3240  125.1070   59.0690 C   0  0  0  0  0  0  0  0  0  0  0  0
  126.4660  124.1320   58.0760 N   0  0  0  0  0  0  0  0  0  0  0  0
  125.2920  123.4690   57.4740 C   0  0  0  0  0  0  0  0  0  0  0  0
  125.6080  122.7070   56.1700 C   0  0  0  0  0  0  0  0  0  0  0  0
  126.6570  121.7790   56.3910 O   0  0  0  0  0  0  0  0  0  0  0  0
  127.8450  122.4310   56.8090 C   0  0  0  0  0  0  0  0  0  0  0  0
  127.6000  123.1850   58.1330 C   0  0  0  0  0  0  0  0  0  0  0  0
  126.1950  124.7680   60.4260 C   0  0  0  0  0  0  0  0  0  0  0  0
  126.0260  125.7470   61.4000 C   0  0  0  0  0  0  0  0  0  0  0  0
  126.3120  128.0310   63.3880 C   0  0  0  0  0  0  0  0  0  0  0  0
  126.0940  129.0330   64.3440 C   0  0  0  0  0  0  0  0  0  0  0  0
  126.6970  128.8420   65.6980 C   0  0  0  0  0  0  0  0  0  0  0  0
  125.8860  128.5280   66.7910 C   0  0  0  0  0  0  0  0  0  0  0  0
  126.4350  128.3670   68.0590 C   0  0  0  0  0  0  0  0  0  0  0  0
  127.8140  128.5140   68.2730 C   0  0  0  0  0  0  0  0  0  0  0  0
  128.3830  128.3750   69.5420 N   0  0  0  0  0  0  0  0  0  0  0  0
  129.6930  128.9980   69.8190 C   0  0  0  0  0  0  0  0  0  0  0  0
  130.0110  129.1040   71.3250 C   0  0  0  0  0  0  0  0  0  0  0  0
  129.9230  127.8240   71.9320 O   0  0  0  0  0  0  0  0  0  0  0  0
  128.6250  127.2670   71.7970 C   0  0  0  0  0  0  0  0  0  0  0  0
  128.2680  127.1160   70.3040 C   0  0  0  0  0  0  0  0  0  0  0  0
  128.6200  128.8410   67.1730 C   0  0  0  0  0  0  0  0  0  0  0  0
  128.0700  129.0030   65.9040 C   0  0  0  0  0  0  0  0  0  0  0  0
  125.3270  130.1630   63.9710 C   0  0  0  0  0  0  0  0  0  0  0  0
  125.1120  131.2700   64.9090 C   0  0  0  0  0  0  0  0  0  0  0  0
  124.9430  132.1410   65.6520 N   0  0  0  0  0  0  0  0  0  0  0  0
  129.0620  132.8620   61.0180 C   0  0  0  0  0  0  0  0  0  0  0  0
  130.1330  132.9220   60.1310 C   0  0  0  0  0  0  0  0  0  0  0  0
  1  2  1  0
  2  3  1  0
  3  4  1  0
  4  5  2  0
  4  6  1  0
  6  7  2  0
  7  8  1  0
  8  9  2  0
  9 10  1  0
 10 11  1  0
 11 12  2  0
 11 13  1  0
 13 14  1  0
 14 15  1  0
 15 16  2  0
 16 17  1  0
 17 18  1  0
 18 19  2  0
 19 20  1  0
 20 21  2  0
 21 22  1  0
 22 23  1  0
 23 24  1  0
 24 25  1  0
 25 26  1  0
 26 27  1  0
 21 28  1  0
 28 29  2  0
 17 30  2  0
 30 31  1  0
 31 32  1  0
 32 33  2  0
 33 34  1  0
 34 35  2  0
 35 36  1  0
 36 37  1  0
 37 38  1  0
 38 39  1  0
 39 40  1  0
 40 41  1  0
 35 42  1  0
 42 43  2  0
 31 44  2  0
 44 45  1  0
 45 46  3  0
  9 47  1  0
 47 48  2  0
 48  6  1  0
 44 15  1  0
 29 18  1  0
 43 32  1  0
 27 22  1  0
 41 36  1  0
M  END
>  <Binding energies>  (8) 
[-11.56]

>  <Ligand effiencies>  (8) 
[-0.23591836734693877]

>  <Interactions>  (8) 
["V-B:LEU:363:CD1:8159, V-A:TYR:539:CZ:4876, V-A:TYR:539:CD1:4872, V-A:TYR:539:C:4866, V-B:TYR:539:CZ:9848, V-B:TYR:531:CE2:9764, V-A:MET:535:CG:4832, V-A:TYR:531:CE2:4792, V-A:PRO:540:N:4883, V-B:TYR:539:CD2:9845, V-B:MET:535:CE:9806, V-B:TYR:539:CE1:9846, V-A:PRO:540:CA:4882, V-B:TYR:539:C:9838, V-B:TYR:539:CA:9840, V-A:TYR:539:CE1:4874, V-B:TYR:539:CD1:9844, V-B:ASP:366:CG:8183, V-B:TYR:539:CG:9843, V-B:TYR:539:CE2:9847, V-B:LEU:475:CD1:9228, H-B:TYR:539:N:9841, V-B:PRO:540:CA:9854, V-B:PRO:540:CB:9856, V-B:PRO:540:N:9855, H-B:GLY:454:N:9020, H-A:TYR:539:N:4869, H-B:SER:385:OG:8380, H-A:TYR:531:OH:4794, V-A:ILE:538:CB:4861, V-B:GLU:543:CD:9879, H-B:ARG:545:NH2:9899, V-A:GLU:543:CD:4907, V-A:GLU:543:CG:4906, V-A:PRO:540:C:4880, H-B:TYR:484:OH:9318, V-A:ILE:538:CA:4859, V-A:TYR:539:CE2:4875, V-A:ILE:538:CG2:4862, V-A:HIS:456:CE1:4069, V-B:HIS:456:CE1:9040, V-A:GLU:543:CB:4905, V-B:GLY:454:CA:9019, V-A:GLU:543:C:4901"]

$$$$
2aa_Ghoteimi_2023
     RDKit          3D

 48 53  0  0  0  0  0  0  0  0999 V2000
  123.6470  137.0650   57.6420 C   0  0  0  0  0  0  0  0  0  0  0  0
  124.1220  137.0350   59.0980 C   0  0  0  0  0  0  0  0  0  0  0  0
  125.5420  136.9800   59.1290 O   0  0  0  0  0  0  0  0  0  0  0  0
  126.2100  136.7270   60.2850 C   0  0  0  0  0  0  0  0  0  0  0  0
  127.0400  137.5000   60.7750 O   0  0  0  0  0  0  0  0  0  0  0  0
  125.8280  135.4190   60.9160 C   0  0  0  0  0  0  0  0  0  0  0  0
  126.1020  135.1380   62.2630 C   0  0  0  0  0  0  0  0  0  0  0  0
  125.7320  133.9180   62.8210 C   0  0  0  0  0  0  0  0  0  0  0  0
  125.0900  132.9520   62.0450 C   0  0  0  0  0  0  0  0  0  0  0  0
  124.7570  131.7560   62.7100 N   0  0  0  0  0  0  0  0  0  0  0  0
  123.5450  131.2430   63.0130 C   0  0  0  0  0  0  0  0  0  0  0  0
  122.4640  131.7540   62.7140 O   0  0  0  0  0  0  0  0  0  0  0  0
  123.5880  129.9070   63.7670 C   0  0  0  0  0  0  0  0  0  0  0  0
  124.0820  130.1190   65.0940 O   0  0  0  0  0  0  0  0  0  0  0  0
  125.4240  129.9100   65.3800 C   0  0  0  0  0  0  0  0  0  0  0  0
  126.3390  130.2170   64.4180 N   0  0  0  0  0  0  0  0  0  0  0  0
  127.6590  130.0280   64.6650 C   0  0  0  0  0  0  0  0  0  0  0  0
  128.6050  130.3830   63.5610 C   0  0  0  0  0  0  0  0  0  0  0  0
  129.3230  129.3890   62.8890 C   0  0  0  0  0  0  0  0  0  0  0  0
  130.1990  129.7130   61.8560 C   0  0  0  0  0  0  0  0  0  0  0  0
  130.3790  131.0440   61.4480 C   0  0  0  0  0  0  0  0  0  0  0  0
  131.2650  131.3880   60.4210 N   0  0  0  0  0  0  0  0  0  0  0  0
  130.9450  132.4580   59.4540 C   0  0  0  0  0  0  0  0  0  0  0  0
  131.8490  132.4590   58.2040 C   0  0  0  0  0  0  0  0  0  0  0  0
  133.2120  132.5170   58.5900 O   0  0  0  0  0  0  0  0  0  0  0  0
  133.5740  131.3990   59.3860 C   0  0  0  0  0  0  0  0  0  0  0  0
  132.7210  131.3670   60.6720 C   0  0  0  0  0  0  0  0  0  0  0  0
  129.6730  132.0380   62.1400 C   0  0  0  0  0  0  0  0  0  0  0  0
  128.8000  131.7140   63.1740 C   0  0  0  0  0  0  0  0  0  0  0  0
  128.0980  129.5070   65.8860 C   0  0  0  0  0  0  0  0  0  0  0  0
  127.1780  129.1720   66.8880 C   0  0  0  0  0  0  0  0  0  0  0  0
  127.7050  128.5950   68.1620 C   0  0  0  0  0  0  0  0  0  0  0  0
  127.1150  127.4580   68.7190 C   0  0  0  0  0  0  0  0  0  0  0  0
  127.5880  126.9280   69.9160 C   0  0  0  0  0  0  0  0  0  0  0  0
  128.6580  127.5280   70.5980 C   0  0  0  0  0  0  0  0  0  0  0  0
  129.1520  127.0100   71.7990 N   0  0  0  0  0  0  0  0  0  0  0  0
  128.6380  125.7460   72.3600 C   0  0  0  0  0  0  0  0  0  0  0  0
  129.5320  125.1610   73.4750 C   0  0  0  0  0  0  0  0  0  0  0  0
  129.7260  126.1270   74.4970 O   0  0  0  0  0  0  0  0  0  0  0  0
  130.3550  127.2970   73.9980 C   0  0  0  0  0  0  0  0  0  0  0  0
  129.4840  127.9380   72.8990 C   0  0  0  0  0  0  0  0  0  0  0  0
  129.2480  128.6640   70.0280 C   0  0  0  0  0  0  0  0  0  0  0  0
  128.7760  129.1940   68.8310 C   0  0  0  0  0  0  0  0  0  0  0  0
  125.8050  129.3930   66.6310 C   0  0  0  0  0  0  0  0  0  0  0  0
  124.7760  129.1200   67.6370 C   0  0  0  0  0  0  0  0  0  0  0  0
  123.9640  128.9040   68.4330 N   0  0  0  0  0  0  0  0  0  0  0  0
  124.8060  133.2270   60.6990 C   0  0  0  0  0  0  0  0  0  0  0  0
  125.1740  134.4500   60.1450 C   0  0  0  0  0  0  0  0  0  0  0  0
  1  2  1  0
  2  3  1  0
  3  4  1  0
  4  5  2  0
  4  6  1  0
  6  7  2  0
  7  8  1  0
  8  9  2  0
  9 10  1  0
 10 11  1  0
 11 12  2  0
 11 13  1  0
 13 14  1  0
 14 15  1  0
 15 16  2  0
 16 17  1  0
 17 18  1  0
 18 19  2  0
 19 20  1  0
 20 21  2  0
 21 22  1  0
 22 23  1  0
 23 24  1  0
 24 25  1  0
 25 26  1  0
 26 27  1  0
 21 28  1  0
 28 29  2  0
 17 30  2  0
 30 31  1  0
 31 32  1  0
 32 33  2  0
 33 34  1  0
 34 35  2  0
 35 36  1  0
 36 37  1  0
 37 38  1  0
 38 39  1  0
 39 40  1  0
 40 41  1  0
 35 42  1  0
 42 43  2  0
 31 44  2  0
 44 45  1  0
 45 46  3  0
  9 47  1  0
 47 48  2  0
 48  6  1  0
 44 15  1  0
 29 18  1  0
 43 32  1  0
 27 22  1  0
 41 36  1  0
M  END
>  <Binding energies>  (9) 
[-11.6]

>  <Ligand effiencies>  (9) 
[-0.236734693877551]

>  <Interactions>  (9) 
["V-A:LEU:363:CA:3184, V-A:PRO:540:CB:4884, V-A:TYR:539:CD1:4872, V-A:ASN:362:C:3171, V-A:PRO:540:N:4883, V-B:ILE:369:CG2:8207, V-A:PRO:540:CA:4882, V-A:TYR:539:CE1:4874, V-B:GLY:453:CA:9014, V-B:LEU:475:CD1:9228, V-B:ARG:545:CZ:9897, H-B:GLY:454:N:9020, H-B:HIS:383:NE2:8364, H-B:SER:385:OG:8380, V-B:HIS:383:CD2:8362, V-A:TYR:539:CG:4871, V-B:SER:385:CB:8379, V-B:GLU:543:CD:9879, V-A:GLU:543:CD:4907, V-A:GLU:543:CG:4906, H-B:TYR:484:OH:9318, V-B:GLU:543:CB:9877, V-A:HIS:456:CD2:4067, V-A:HIS:456:CE1:4069, V-B:HIS:456:CE1:9040, V-B:ARG:545:CG:9893, V-A:GLU:543:CB:4905, V-B:ARG:545:CD:9894, V-B:GLY:454:CA:9019, V-A:TYR:539:CB:4870, H-B:HIS:456:ND1:9037, H-B:LYS:547:NZ:9922, V-B:VAL:384:C:8367"]

$$$$
2b_Ghoteimi_2023
     RDKit          3D

 42 47  0  0  0  0  0  0  0  0999 V2000
  124.8890  132.3000   65.4270 N   0  0  0  0  0  0  0  0  0  0  0  0
  125.0710  131.4420   64.6710 C   0  0  0  0  0  0  0  0  0  0  0  0
  125.3030  130.3530   63.7190 C   0  0  0  0  0  0  0  0  0  0  0  0
  126.0480  129.2090   64.1010 C   0  0  0  0  0  0  0  0  0  0  0  0
  126.6380  129.0180   65.4590 C   0  0  0  0  0  0  0  0  0  0  0  0
  128.0210  129.0670   65.6390 C   0  0  0  0  0  0  0  0  0  0  0  0
  128.5760  128.8890   66.9030 C   0  0  0  0  0  0  0  0  0  0  0  0
  127.7630  128.6380   68.0200 C   0  0  0  0  0  0  0  0  0  0  0  0
  128.2950  128.4690   69.2990 N   0  0  0  0  0  0  0  0  0  0  0  0
  128.2000  127.1460   69.9490 C   0  0  0  0  0  0  0  0  0  0  0  0
  128.4720  127.1900   71.4670 C   0  0  0  0  0  0  0  0  0  0  0  0
  129.7310  127.7940   71.7210 O   0  0  0  0  0  0  0  0  0  0  0  0
  129.7840  129.1230   71.2270 C   0  0  0  0  0  0  0  0  0  0  0  0
  129.5550  129.1260   69.7020 C   0  0  0  0  0  0  0  0  0  0  0  0
  126.3760  128.5870   67.8280 C   0  0  0  0  0  0  0  0  0  0  0  0
  125.8200  128.7700   66.5650 C   0  0  0  0  0  0  0  0  0  0  0  0
  126.2390  128.1910   63.1580 C   0  0  0  0  0  0  0  0  0  0  0  0
  125.6790  128.2960   61.8820 C   0  0  0  0  0  0  0  0  0  0  0  0
  125.8290  127.2240   60.8480 C   0  0  0  0  0  0  0  0  0  0  0  0
  126.0510  125.8950   61.2250 C   0  0  0  0  0  0  0  0  0  0  0  0
  126.1750  124.8910   60.2690 C   0  0  0  0  0  0  0  0  0  0  0  0
  126.0950  125.1800   58.8980 C   0  0  0  0  0  0  0  0  0  0  0  0
  126.1870  124.1760   57.9270 N   0  0  0  0  0  0  0  0  0  0  0  0
  127.3120  123.2190   57.9620 C   0  0  0  0  0  0  0  0  0  0  0  0
  127.5020  122.4400   56.6430 C   0  0  0  0  0  0  0  0  0  0  0  0
  126.2920  121.7900   56.2840 O   0  0  0  0  0  0  0  0  0  0  0  0
  125.2410  122.7210   56.0870 C   0  0  0  0  0  0  0  0  0  0  0  0
  124.9840  123.5120   57.3870 C   0  0  0  0  0  0  0  0  0  0  0  0
  125.8650  126.5120   58.5250 C   0  0  0  0  0  0  0  0  0  0  0  0
  125.7380  127.5150   59.4820 C   0  0  0  0  0  0  0  0  0  0  0  0
  124.9660  129.3910   61.5180 N   0  0  0  0  0  0  0  0  0  0  0  0
  124.7950  130.4030   62.4010 C   0  0  0  0  0  0  0  0  0  0  0  0
  123.8410  131.7590   61.7560 S   0  0  0  0  0  0  0  0  0  0  0  0
  124.8240  132.5470   60.4440 C   0  0  0  0  0  0  0  0  0  0  0  0
  125.8550  133.5260   61.0080 C   0  0  0  0  0  0  0  0  0  0  0  0
  126.7480  133.1040   61.7450 O   0  0  0  0  0  0  0  0  0  0  0  0
  125.6910  134.8160   60.6440 N   0  0  0  0  0  0  0  0  0  0  0  0
  126.4830  135.8990   61.0000 C   0  0  0  0  0  0  0  0  0  0  0  0
  127.2910  135.9090   62.1360 C   0  0  0  0  0  0  0  0  0  0  0  0
  127.9010  137.1410   62.1300 C   0  0  0  0  0  0  0  0  0  0  0  0
  127.4830  137.8370   61.0470 O   0  0  0  0  0  0  0  0  0  0  0  0
  126.5850  137.0380   60.3360 N   0  0  0  0  0  0  0  0  0  0  0  0
  1  2  3  0
  2  3  1  0
  3  4  2  0
  4  5  1  0
  5  6  2  0
  6  7  1  0
  7  8  2  0
  8  9  1  0
  9 10  1  0
 10 11  1  0
 11 12  1  0
 12 13  1  0
 13 14  1  0
  8 15  1  0
 15 16  2  0
  4 17  1  0
 17 18  2  0
 18 19  1  0
 19 20  2  0
 20 21  1  0
 21 22  2  0
 22 23  1  0
 23 24  1  0
 24 25  1  0
 25 26  1  0
 26 27  1  0
 27 28  1  0
 22 29  1  0
 29 30  2  0
 18 31  1  0
 31 32  2  0
 32 33  1  0
 33 34  1  0
 34 35  1  0
 35 36  2  0
 35 37  1  0
 37 38  1  0
 38 39  1  0
 39 40  2  0
 40 41  1  0
 41 42  1  0
 32  3  1  0
 42 38  2  0
 16  5  1  0
 30 19  1  0
 14  9  1  0
 28 23  1  0
M  END
>  <Binding energies>  (10) 
[-11.15]

>  <Ligand effiencies>  (10) 
[-0.2593023255813954]

>  <Interactions>  (10) 
["V-B:LEU:363:CD1:8159, V-B:TYR:531:CZ:9765, V-A:TYR:539:CD1:4872, V-B:TYR:539:CZ:9848, V-B:TYR:531:CE2:9764, V-B:TYR:539:CD2:9845, V-B:MET:535:CE:9806, V-B:TYR:539:CE1:9846, V-B:ILE:369:CG2:8207, V-B:TYR:539:C:9838, V-B:TYR:539:CA:9840, V-A:TYR:539:CE1:4874, V-B:TYR:539:CD1:9844, V-B:ASP:366:CG:8183, V-B:TYR:539:CG:9843, V-B:ASP:366:CB:8182, V-A:ALA:541:CB:4891, H-B:TYR:539:N:9841, V-B:PRO:540:CA:9854, V-B:PRO:540:CB:9856, V-B:ILE:538:CD1:9836, V-B:PRO:540:N:9855, H-B:GLY:454:N:9020, H-B:HIS:383:NE2:8364, H-B:SER:385:OG:8380, V-B:SER:385:CB:8379, V-B:GLU:543:CD:9879, V-A:GLU:543:CD:4907, V-A:GLU:543:CG:4906, H-B:TYR:484:OH:9318, V-B:GLU:543:CB:9877, V-A:HIS:456:CE1:4069, V-B:HIS:456:CE1:9040, V-A:GLU:543:CB:4905, V-B:GLY:454:CA:9019, V-B:PRO:482:CG:9297, V-B:PRO:482:CB:9296, V-A:GLU:543:C:4901"]

$$$$
2c_Ghoteimi_2023
     RDKit          3D

 42 47  0  0  0  0  0  0  0  0999 V2000
  130.1520  124.0470   65.8550 N   0  0  0  0  0  0  0  0  0  0  0  0
  130.2510  124.8090   64.9910 C   0  0  0  0  0  0  0  0  0  0  0  0
  130.3760  125.7710   63.8910 C   0  0  0  0  0  0  0  0  0  0  0  0
  130.7180  125.3340   62.5870 C   0  0  0  0  0  0  0  0  0  0  0  0
  130.9760  123.9070   62.2280 C   0  0  0  0  0  0  0  0  0  0  0  0
  132.2530  123.5010   61.8340 C   0  0  0  0  0  0  0  0  0  0  0  0
  132.5020  122.1720   61.5030 C   0  0  0  0  0  0  0  0  0  0  0  0
  131.4780  121.2140   61.5420 C   0  0  0  0  0  0  0  0  0  0  0  0
  131.7100  119.8710   61.2330 N   0  0  0  0  0  0  0  0  0  0  0  0
  130.5830  118.9180   61.2620 C   0  0  0  0  0  0  0  0  0  0  0  0
  131.0340  117.4420   61.2870 C   0  0  0  0  0  0  0  0  0  0  0  0
  131.8940  117.1770   60.1890 O   0  0  0  0  0  0  0  0  0  0  0  0
  133.0560  117.9900   60.2250 C   0  0  0  0  0  0  0  0  0  0  0  0
  132.6590  119.4800   60.1730 C   0  0  0  0  0  0  0  0  0  0  0  0
  130.1980  121.6320   61.9350 C   0  0  0  0  0  0  0  0  0  0  0  0
  129.9500  122.9600   62.2680 C   0  0  0  0  0  0  0  0  0  0  0  0
  130.8220  126.2910   61.5690 C   0  0  0  0  0  0  0  0  0  0  0  0
  130.5670  127.6400   61.8360 C   0  0  0  0  0  0  0  0  0  0  0  0
  130.6470  128.6970   60.7820 C   0  0  0  0  0  0  0  0  0  0  0  0
  130.7420  130.0480   61.1300 C   0  0  0  0  0  0  0  0  0  0  0  0
  130.8230  131.0360   60.1530 C   0  0  0  0  0  0  0  0  0  0  0  0
  130.8000  130.7100   58.7880 C   0  0  0  0  0  0  0  0  0  0  0  0
  130.9060  131.6890   57.7940 N   0  0  0  0  0  0  0  0  0  0  0  0
  129.7150  132.4680   57.3980 C   0  0  0  0  0  0  0  0  0  0  0  0
  129.8800  133.2150   56.0590 C   0  0  0  0  0  0  0  0  0  0  0  0
  131.0310  134.0420   56.1020 O   0  0  0  0  0  0  0  0  0  0  0  0
  132.2090  133.2820   56.3210 C   0  0  0  0  0  0  0  0  0  0  0  0
  132.1130  132.5310   57.6660 C   0  0  0  0  0  0  0  0  0  0  0  0
  130.7180  129.3540   58.4430 C   0  0  0  0  0  0  0  0  0  0  0  0
  130.6390  128.3660   59.4220 C   0  0  0  0  0  0  0  0  0  0  0  0
  130.2370  128.0550   63.0860 N   0  0  0  0  0  0  0  0  0  0  0  0
  130.1610  127.1530   64.0930 C   0  0  0  0  0  0  0  0  0  0  0  0
  129.7290  127.8720   65.6620 S   0  0  0  0  0  0  0  0  0  0  0  0
  130.6320  126.9570   66.9480 C   0  0  0  0  0  0  0  0  0  0  0  0
  130.0150  127.1560   68.3340 C   0  0  0  0  0  0  0  0  0  0  0  0
  130.5260  127.9610   69.1130 O   0  0  0  0  0  0  0  0  0  0  0  0
  128.9260  126.4030   68.5990 N   0  0  0  0  0  0  0  0  0  0  0  0
  128.1780  126.4090   69.7680 C   0  0  0  0  0  0  0  0  0  0  0  0
  126.9100  126.7260   69.9140 N   0  0  0  0  0  0  0  0  0  0  0  0
  126.5240  126.6140   71.1690 C   0  0  0  0  0  0  0  0  0  0  0  0
  127.4930  126.1960   72.0760 C   0  0  0  0  0  0  0  0  0  0  0  0
  128.9880  125.9390   71.2280 S   0  0  0  0  0  0  0  0  0  0  0  0
  1  2  3  0
  2  3  1  0
  3  4  2  0
  4  5  1  0
  5  6  2  0
  6  7  1  0
  7  8  2  0
  8  9  1  0
  9 10  1  0
 10 11  1  0
 11 12  1  0
 12 13  1  0
 13 14  1  0
  8 15  1  0
 15 16  2  0
  4 17  1  0
 17 18  2  0
 18 19  1  0
 19 20  2  0
 20 21  1  0
 21 22  2  0
 22 23  1  0
 23 24  1  0
 24 25  1  0
 25 26  1  0
 26 27  1  0
 27 28  1  0
 22 29  1  0
 29 30  2  0
 18 31  1  0
 31 32  2  0
 32 33  1  0
 33 34  1  0
 34 35  1  0
 35 36  2  0
 35 37  1  0
 37 38  1  0
 38 39  2  0
 39 40  1  0
 40 41  2  0
 41 42  1  0
 32  3  1  0
 42 38  1  0
 16  5  1  0
 30 19  1  0
 14  9  1  0
 28 23  1  0
M  END
>  <Binding energies>  (11) 
[-10.06]

>  <Ligand effiencies>  (11) 
[-0.23395348837209304]

>  <Interactions>  (11) 
["V-A:PRO:540:CB:4884, V-A:TYR:539:CD1:4872, V-A:TYR:531:CE2:4792, V-A:LEU:363:CD1:3188, V-A:PRO:540:N:4883, V-B:TYR:539:CD2:9845, V-A:PRO:540:CA:4882, V-A:TYR:539:CE1:4874, V-B:TYR:539:CE2:9847, H-A:TYR:539:N:4869, V-A:PRO:540:CD:4886, V-A:ILE:538:CB:4861, V-B:GLU:543:CD:9879, H-A:TYR:484:OH:4347, V-B:GLU:543:CG:9878, V-A:LEU:475:CD2:4258, V-B:ALA:541:CB:9863, V-A:HIS:383:CE1:3393, V-A:ILE:369:CG2:3236, V-A:SER:385:CA:3406, H-A:HIS:383:ND1:3390, V-A:SER:385:CB:3408, V-A:GLU:543:CD:4907, H-B:GLU:543:OE2:9881, V-B:GLU:543:CB:9877, V-B:GLU:543:C:9873, V-B:GLY:544:CA:9885, V-A:HIS:456:CD2:4067, V-A:HIS:456:CE1:4069, V-B:GLY:544:C:9883, V-B:HIS:456:CE1:9040, V-A:PRO:482:CG:4326, V-A:PRO:482:CB:4325, V-A:VAL:384:C:3396, V-B:ARG:545:CA:9890"]

$$$$
2j_Grossjean_2025
     RDKit          3D

 23 24  0  0  0  0  0  0  0  0999 V2000
  124.7960  123.5430   63.2200 C   0  0  0  0  0  0  0  0  0  0  0  0
  125.3440  123.5510   61.8050 C   0  0  0  0  0  0  0  0  0  0  0  0
  124.5420  123.8790   60.7150 C   0  0  0  0  0  0  0  0  0  0  0  0
  125.0950  123.8760   59.4250 C   0  0  0  0  0  0  0  0  0  0  0  0
  124.1930  124.2410   58.2300 C   0  0  0  0  0  0  0  0  0  0  0  0
  124.3200  123.3280   57.2670 F   0  0  0  0  0  0  0  0  0  0  0  0
  122.9180  124.2880   58.6170 F   0  0  0  0  0  0  0  0  0  0  0  0
  124.4960  125.4280   57.7000 F   0  0  0  0  0  0  0  0  0  0  0  0
  126.4620  123.5340   59.2770 C   0  0  0  0  0  0  0  0  0  0  0  0
  127.0930  123.5140   57.9530 C   0  0  0  0  0  0  0  0  0  0  0  0
  127.5900  123.4990   56.9080 N   0  0  0  0  0  0  0  0  0  0  0  0
  127.2030  123.2140   60.4400 C   0  0  0  0  0  0  0  0  0  0  0  0
  128.9330  122.7720   60.3720 S   0  0  0  0  0  0  0  0  0  0  0  0
  129.4960  122.3900   62.0660 C   0  0  0  0  0  0  0  0  0  0  0  0
  130.4760  121.2130   62.1710 C   0  0  0  0  0  0  0  0  0  0  0  0
  131.5210  121.3190   62.8160 O   0  0  0  0  0  0  0  0  0  0  0  0
  130.0980  120.1000   61.5030 N   0  0  0  0  0  0  0  0  0  0  0  0
  130.7920  118.8990   61.4320 C   0  0  0  0  0  0  0  0  0  0  0  0
  130.4240  117.7260   61.9000 N   0  0  0  0  0  0  0  0  0  0  0  0
  131.3290  116.7990   61.6520 C   0  0  0  0  0  0  0  0  0  0  0  0
  132.4660  117.2170   60.9670 C   0  0  0  0  0  0  0  0  0  0  0  0
  132.3310  118.9180   60.6330 S   0  0  0  0  0  0  0  0  0  0  0  0
  126.6500  123.2250   61.6790 N   0  0  0  0  0  0  0  0  0  0  0  0
  1  2  1  0
  2  3  2  0
  3  4  1  0
  4  5  1  0
  5  6  1  0
  5  7  1  0
  5  8  1  0
  4  9  2  0
  9 10  1  0
 10 11  3  0
  9 12  1  0
 12 13  1  0
 13 14  1  0
 14 15  1  0
 15 16  2  0
 15 17  1  0
 17 18  1  0
 18 19  2  0
 19 20  1  0
 20 21  2  0
 21 22  1  0
 12 23  2  0
 23  2  1  0
 22 18  1  0
M  END
>  <Binding energies>  (12) 
[-7.05]

>  <Ligand effiencies>  (12) 
[-0.29375]

>  <Interactions>  (12) 
["V-B:LEU:363:CD1:8159, V-B:TYR:531:CZ:9765, V-B:LEU:363:CA:8155, V-B:TYR:531:CE2:9764, V-B:TYR:539:CD2:9845, V-B:TYR:539:C:9838, V-B:ASP:366:CG:8183, V-B:ASP:366:CB:8182, V-B:PRO:540:CA:9854, V-B:PRO:540:CB:9856, V-B:ARG:545:CZ:9897, V-B:PRO:540:N:9855, V-B:GLU:543:CD:9879, V-B:ALA:541:C:9859, V-B:GLU:543:CG:9878, V-A:LEU:475:CD2:4258, V-B:ALA:541:CB:9863, V-A:HIS:383:CE1:3393, V-A:SER:385:CA:3406, V-A:SER:385:CB:3408, V-B:LEU:363:CB:8157, V-B:ASN:362:CB:8146, H-B:ALA:541:N:9862, H-B:TYR:539:O:9839, V-A:PRO:482:CG:4326, V-A:THR:477:CG2:4272, V-A:PRO:482:CB:4325, V-B:LEU:363:C:8153, V-B:LEU:363:CG:8158"]

$$$$
3ab_Grossjean_2025
     RDKit          3D

 33 35  0  0  0  0  0  0  0  0999 V2000
  124.8680  122.5410   55.2990 C   0  0  0  0  0  0  0  0  0  0  0  0
  125.7240  123.1760   56.2390 O   0  0  0  0  0  0  0  0  0  0  0  0
  126.9260  122.6380   56.5650 C   0  0  0  0  0  0  0  0  0  0  0  0
  127.6510  122.0510   55.7570 O   0  0  0  0  0  0  0  0  0  0  0  0
  127.2890  122.8290   58.0100 C   0  0  0  0  0  0  0  0  0  0  0  0
  126.3990  123.4040   58.9300 C   0  0  0  0  0  0  0  0  0  0  0  0
  126.7630  123.5670   60.2640 C   0  0  0  0  0  0  0  0  0  0  0  0
  128.0320  123.1570   60.7030 C   0  0  0  0  0  0  0  0  0  0  0  0
  128.5020  123.2690   62.0250 N   0  0  0  0  0  0  0  0  0  0  0  0
  127.8180  123.2930   63.1890 C   0  0  0  0  0  0  0  0  0  0  0  0
  126.5940  123.2330   63.3010 O   0  0  0  0  0  0  0  0  0  0  0  0
  128.6760  123.4100   64.4510 C   0  0  0  0  0  0  0  0  0  0  0  0
  129.7680  121.9740   64.6720 S   0  0  0  0  0  0  0  0  0  0  0  0
  131.0530  122.0850   63.4450 C   0  0  0  0  0  0  0  0  0  0  0  0
  131.1150  121.0080   62.6270 N   0  0  0  0  0  0  0  0  0  0  0  0
  132.0470  120.9620   61.6400 C   0  0  0  0  0  0  0  0  0  0  0  0
  132.0470  119.7350   60.7760 C   0  0  0  0  0  0  0  0  0  0  0  0
  131.0150  118.7880   60.8720 C   0  0  0  0  0  0  0  0  0  0  0  0
  131.0100  117.6490   60.0720 C   0  0  0  0  0  0  0  0  0  0  0  0
  132.0420  117.4390   59.1620 C   0  0  0  0  0  0  0  0  0  0  0  0
  133.0780  118.3600   59.0490 C   0  0  0  0  0  0  0  0  0  0  0  0
  133.0790  119.4980   59.8510 C   0  0  0  0  0  0  0  0  0  0  0  0
  132.9610  122.0070   61.4690 C   0  0  0  0  0  0  0  0  0  0  0  0
  132.9300  123.1240   62.3150 C   0  0  0  0  0  0  0  0  0  0  0  0
  133.9580  124.2510   62.0970 C   0  0  0  0  0  0  0  0  0  0  0  0
  133.5210  125.4390   62.5210 F   0  0  0  0  0  0  0  0  0  0  0  0
  135.0840  123.9800   62.7580 F   0  0  0  0  0  0  0  0  0  0  0  0
  134.2370  124.3660   60.7980 F   0  0  0  0  0  0  0  0  0  0  0  0
  131.9540  123.1690   63.3420 C   0  0  0  0  0  0  0  0  0  0  0  0
  131.9130  124.2860   64.2900 C   0  0  0  0  0  0  0  0  0  0  0  0
  131.8840  125.1690   65.0360 N   0  0  0  0  0  0  0  0  0  0  0  0
  128.9170  122.5800   59.7910 C   0  0  0  0  0  0  0  0  0  0  0  0
  128.5510  122.4180   58.4580 C   0  0  0  0  0  0  0  0  0  0  0  0
  1  2  1  0
  2  3  1  0
  3  4  2  0
  3  5  1  0
  5  6  2  0
  6  7  1  0
  7  8  2  0
  8  9  1  0
  9 10  1  0
 10 11  2  0
 10 12  1  0
 12 13  1  0
 13 14  1  0
 14 15  2  0
 15 16  1  0
 16 17  1  0
 17 18  2  0
 18 19  1  0
 19 20  2  0
 20 21  1  0
 21 22  2  0
 16 23  2  0
 23 24  1  0
 24 25  1  0
 25 26  1  0
 25 27  1  0
 25 28  1  0
 24 29  2  0
 29 30  1  0
 30 31  3  0
  8 32  1  0
 32 33  2  0
 33  5  1  0
 29 14  1  0
 22 17  1  0
M  END
>  <Binding energies>  (13) 
[-9.12]

>  <Ligand effiencies>  (13) 
[-0.268235294117647]

>  <Interactions>  (13) 
["V-B:LEU:363:CD1:8159, V-B:TYR:531:CZ:9765, V-B:TYR:539:CZ:9848, V-B:TYR:531:CE2:9764, V-A:ASP:366:CG:3212, H-B:TYR:531:OH:9766, V-B:TYR:539:CD2:9845, V-B:MET:535:CE:9806, V-B:TYR:539:C:9838, V-B:TYR:539:CG:9843, V-B:TYR:539:CE2:9847, V-B:ILE:538:CG2:9834, V-B:MET:535:CG:9804, H-B:TYR:539:N:9841, V-B:PRO:540:CA:9854, V-B:PRO:540:CB:9856, V-B:ILE:538:CD1:9836, V-B:PRO:540:N:9855, V-B:GLU:543:CD:9879, V-A:ARG:545:CZ:4925, H-A:TYR:484:OH:4347, V-A:ILE:369:CD1:3238, V-B:GLU:543:CG:9878, V-A:LEU:475:CD2:4258, V-B:ALA:541:CB:9863, V-A:HIS:383:CE1:3393, V-A:ILE:369:CG2:3236, V-B:ILE:538:CA:9831, V-B:TYR:539:CB:9842, V-A:GLY:454:CA:4048, V-A:GLY:453:C:4041, V-A:ASP:366:CB:3211, V-A:ASP:366:CA:3209, V-A:ILE:369:CB:3235, V-A:ILE:369:CG1:3237, H-B:ALA:541:N:9862, V-A:LEU:373:CD1:3279, V-A:GLY:453:CA:4043, V-B:ILE:538:CB:9833, V-A:LEU:373:CG:3278, V-A:LEU:373:CD2:3280"]

$$$$
3ac_Grossjean_2025
     RDKit          3D

 31 33  0  0  0  0  0  0  0  0999 V2000
  124.8930  122.3790   55.5800 C   0  0  0  0  0  0  0  0  0  0  0  0
  126.1240  123.0650   55.7880 O   0  0  0  0  0  0  0  0  0  0  0  0
  126.6310  123.1680   57.0690 C   0  0  0  0  0  0  0  0  0  0  0  0
  125.8300  123.8220   58.0050 C   0  0  0  0  0  0  0  0  0  0  0  0
  126.2560  123.9700   59.3210 C   0  0  0  0  0  0  0  0  0  0  0  0
  127.4970  123.4730   59.7200 C   0  0  0  0  0  0  0  0  0  0  0  0
  127.8320  123.6530   61.0750 N   0  0  0  0  0  0  0  0  0  0  0  0
  127.0610  123.4850   62.1720 C   0  0  0  0  0  0  0  0  0  0  0  0
  125.8960  123.0870   62.1680 O   0  0  0  0  0  0  0  0  0  0  0  0
  127.7290  123.8240   63.5050 C   0  0  0  0  0  0  0  0  0  0  0  0
  128.6670  122.4190   64.1800 S   0  0  0  0  0  0  0  0  0  0  0  0
  130.2910  122.4100   63.4450 C   0  0  0  0  0  0  0  0  0  0  0  0
  130.5110  121.3340   62.6510 N   0  0  0  0  0  0  0  0  0  0  0  0
  131.7030  121.1940   62.0160 C   0  0  0  0  0  0  0  0  0  0  0  0
  131.8670  119.9720   61.1610 C   0  0  0  0  0  0  0  0  0  0  0  0
  132.9610  119.8470   60.2890 C   0  0  0  0  0  0  0  0  0  0  0  0
  133.1220  118.7140   59.4970 C   0  0  0  0  0  0  0  0  0  0  0  0
  132.1860  117.6870   59.5650 C   0  0  0  0  0  0  0  0  0  0  0  0
  131.0910  117.7870   60.4160 C   0  0  0  0  0  0  0  0  0  0  0  0
  130.9340  118.9230   61.2060 C   0  0  0  0  0  0  0  0  0  0  0  0
  132.7200  122.1380   62.1850 C   0  0  0  0  0  0  0  0  0  0  0  0
  132.5270  123.2490   63.0190 C   0  0  0  0  0  0  0  0  0  0  0  0
  133.6770  124.2620   63.1820 C   0  0  0  0  0  0  0  0  0  0  0  0
  133.8160  124.6910   64.4380 F   0  0  0  0  0  0  0  0  0  0  0  0
  134.8360  123.7070   62.8220 F   0  0  0  0  0  0  0  0  0  0  0  0
  133.4520  125.3290   62.4140 F   0  0  0  0  0  0  0  0  0  0  0  0
  131.2830  123.3890   63.6850 C   0  0  0  0  0  0  0  0  0  0  0  0
  131.0630  124.4890   64.6250 C   0  0  0  0  0  0  0  0  0  0  0  0
  130.8900  125.3580   65.3690 N   0  0  0  0  0  0  0  0  0  0  0  0
  128.3060  122.8070   58.7860 C   0  0  0  0  0  0  0  0  0  0  0  0
  127.8770  122.6600   57.4700 C   0  0  0  0  0  0  0  0  0  0  0  0
  1  2  1  0
  2  3  1  0
  3  4  2  0
  4  5  1  0
  5  6  2  0
  6  7  1  0
  7  8  1  0
  8  9  2  0
  8 10  1  0
 10 11  1  0
 11 12  1  0
 12 13  2  0
 13 14  1  0
 14 15  1  0
 15 16  2  0
 16 17  1  0
 17 18  2  0
 18 19  1  0
 19 20  2  0
 14 21  2  0
 21 22  1  0
 22 23  1  0
 23 24  1  0
 23 25  1  0
 23 26  1  0
 22 27  2  0
 27 28  1  0
 28 29  3  0
  6 30  1  0
 30 31  2  0
 31  3  1  0
 27 12  1  0
 20 15  1  0
M  END
>  <Binding energies>  (14) 
[-8.98]

>  <Ligand effiencies>  (14) 
[-0.280625]

>  <Interactions>  (14) 
["V-B:LEU:363:CD1:8159, V-B:TYR:539:CZ:9848, V-B:TYR:531:CE2:9764, V-A:ASP:366:CG:3212, H-B:TYR:531:OH:9766, V-B:TYR:539:CD2:9845, V-B:MET:535:CE:9806, V-B:TYR:539:CE1:9846, V-B:TYR:539:C:9838, V-B:TYR:539:CD1:9844, V-B:TYR:539:CG:9843, V-B:TYR:539:CE2:9847, V-B:ILE:538:CG2:9834, V-B:PRO:540:CA:9854, V-B:PRO:540:CB:9856, V-B:ILE:538:CD1:9836, V-B:PRO:540:N:9855, V-B:GLU:543:CD:9879, H-A:TYR:484:OH:4347, V-A:ILE:369:CD1:3238, V-B:GLU:543:CG:9878, V-A:LEU:475:CD2:4258, V-B:ALA:541:CB:9863, V-A:HIS:383:CE1:3393, V-A:ILE:369:CG2:3236, V-B:ILE:538:CA:9831, V-A:SER:385:CA:3406, V-B:TYR:539:CB:9842, V-A:GLY:454:CA:4048, V-A:GLY:453:C:4041, H-B:ALA:541:N:9862, V-A:GLY:453:CA:4043, V-B:ILE:538:CB:9833, V-A:LEU:373:CD2:3280"]

$$$$
3af_Grossjean_2025
     RDKit          3D

 29 31  0  0  0  0  0  0  0  0999 V2000
  125.6480  130.4540   53.6620 N   0  0  0  0  0  0  0  0  0  0  0  0
  125.9490  130.7120   54.7500 C   0  0  0  0  0  0  0  0  0  0  0  0
  126.3290  131.0380   56.1270 C   0  0  0  0  0  0  0  0  0  0  0  0
  125.3410  131.2300   57.1230 C   0  0  0  0  0  0  0  0  0  0  0  0
  123.8340  131.0640   56.8430 C   0  0  0  0  0  0  0  0  0  0  0  0
  123.3800  131.9180   55.9240 F   0  0  0  0  0  0  0  0  0  0  0  0
  123.5870  129.8300   56.4020 F   0  0  0  0  0  0  0  0  0  0  0  0
  123.1360  131.2730   57.9600 F   0  0  0  0  0  0  0  0  0  0  0  0
  125.7520  131.5950   58.4140 C   0  0  0  0  0  0  0  0  0  0  0  0
  127.1100  131.7650   58.7020 C   0  0  0  0  0  0  0  0  0  0  0  0
  127.6030  132.1720   60.0580 C   0  0  0  0  0  0  0  0  0  0  0  0
  127.6370  133.5250   60.4330 C   0  0  0  0  0  0  0  0  0  0  0  0
  128.0910  133.9090   61.6920 C   0  0  0  0  0  0  0  0  0  0  0  0
  128.5180  132.9420   62.5960 C   0  0  0  0  0  0  0  0  0  0  0  0
  128.4910  131.5940   62.2510 C   0  0  0  0  0  0  0  0  0  0  0  0
  128.0360  131.2150   60.9910 C   0  0  0  0  0  0  0  0  0  0  0  0
  128.0540  131.5830   57.7430 N   0  0  0  0  0  0  0  0  0  0  0  0
  127.6830  131.2090   56.4950 C   0  0  0  0  0  0  0  0  0  0  0  0
  129.0590  131.0050   55.3820 S   0  0  0  0  0  0  0  0  0  0  0  0
  130.0150  132.5520   55.3800 C   0  0  0  0  0  0  0  0  0  0  0  0
  130.5260  132.9060   56.7760 C   0  0  0  0  0  0  0  0  0  0  0  0
  130.3390  134.0420   57.2110 O   0  0  0  0  0  0  0  0  0  0  0  0
  131.1660  131.9110   57.4270 N   0  0  0  0  0  0  0  0  0  0  0  0
  131.7570  131.9100   58.7060 C   0  0  0  0  0  0  0  0  0  0  0  0
  133.0280  131.3960   59.0240 C   0  0  0  0  0  0  0  0  0  0  0  0
  133.4890  131.4590   60.3400 C   0  0  0  0  0  0  0  0  0  0  0  0
  132.6670  132.0340   61.3100 C   0  0  0  0  0  0  0  0  0  0  0  0
  131.4390  132.5360   61.0300 N   0  0  0  0  0  0  0  0  0  0  0  0
  131.0050  132.4680   59.7460 C   0  0  0  0  0  0  0  0  0  0  0  0
  1  2  3  0
  2  3  1  0
  3  4  2  0
  4  5  1  0
  5  6  1  0
  5  7  1  0
  5  8  1  0
  4  9  1  0
  9 10  2  0
 10 11  1  0
 11 12  2  0
 12 13  1  0
 13 14  2  0
 14 15  1  0
 15 16  2  0
 10 17  1  0
 17 18  2  0
 18 19  1  0
 19 20  1  0
 20 21  1  0
 21 22  2  0
 21 23  1  0
 23 24  1  0
 24 25  2  0
 25 26  1  0
 26 27  2  0
 27 28  1  0
 28 29  2  0
 18  3  1  0
 29 24  1  0
 16 11  1  0
M  END
>  <Binding energies>  (15) 
[-7.91]

>  <Ligand effiencies>  (15) 
[-0.26366666666666666]

>  <Interactions>  (15) 
["V-A:LEU:363:CA:3184, V-A:TYR:539:CZ:4876, V-B:ILE:369:CB:8206, V-A:PRO:540:CB:4884, V-A:TYR:539:CD1:4872, V-B:ILE:369:C:8202, V-B:ASN:370:CB:8215, V-A:ASN:362:C:3171, V-A:ASN:362:CB:3175, V-A:MET:535:CG:4832, V-B:TYR:531:CE1:9763, V-A:PRO:540:N:4883, V-B:ILE:369:CG2:8207, V-A:PRO:540:CA:4882, V-A:TYR:539:CE1:4874, V-B:ASN:370:CA:8213, V-B:ASP:366:CB:8182, V-A:ALA:541:CB:4891, H-A:TYR:539:N:4869, H-A:TYR:531:OH:4794, H-A:ALA:541:N:4890, H-A:TYR:539:OH:4877, V-B:ASP:366:CA:8180, V-B:ASP:366:C:8178, H-B:LYS:534:NZ:9794, V-B:TYR:531:CD1:9761"]

$$$$
3ag_Grossjean_2025
     RDKit          3D

 30 32  0  0  0  0  0  0  0  0999 V2000
  125.6520  130.3650   53.8060 N   0  0  0  0  0  0  0  0  0  0  0  0
  125.9160  130.6480   54.8970 C   0  0  0  0  0  0  0  0  0  0  0  0
  126.2460  131.0060   56.2790 C   0  0  0  0  0  0  0  0  0  0  0  0
  125.2300  131.3710   57.1950 C   0  0  0  0  0  0  0  0  0  0  0  0
  123.7330  131.3590   56.8250 C   0  0  0  0  0  0  0  0  0  0  0  0
  123.3850  132.3840   56.0450 F   0  0  0  0  0  0  0  0  0  0  0  0
  123.4370  130.2360   56.1700 F   0  0  0  0  0  0  0  0  0  0  0  0
  122.9870  131.4270   57.9280 F   0  0  0  0  0  0  0  0  0  0  0  0
  125.6020  131.7580   58.4910 C   0  0  0  0  0  0  0  0  0  0  0  0
  126.9510  131.7910   58.8590 C   0  0  0  0  0  0  0  0  0  0  0  0
  127.4050  132.1980   60.2280 C   0  0  0  0  0  0  0  0  0  0  0  0
  127.4170  131.2730   61.2840 C   0  0  0  0  0  0  0  0  0  0  0  0
  127.8380  131.6450   62.5580 C   0  0  0  0  0  0  0  0  0  0  0  0
  128.2520  132.9510   62.7950 C   0  0  0  0  0  0  0  0  0  0  0  0
  128.2470  133.8880   61.7660 C   0  0  0  0  0  0  0  0  0  0  0  0
  127.8250  133.5130   60.4940 C   0  0  0  0  0  0  0  0  0  0  0  0
  127.9220  131.4280   57.9820 N   0  0  0  0  0  0  0  0  0  0  0  0
  127.5840  131.0320   56.7310 C   0  0  0  0  0  0  0  0  0  0  0  0
  128.9830  130.5920   55.7230 S   0  0  0  0  0  0  0  0  0  0  0  0
  129.6300  132.1260   54.9940 C   0  0  0  0  0  0  0  0  0  0  0  0
  130.5720  132.8650   55.9460 C   0  0  0  0  0  0  0  0  0  0  0  0
  130.3600  134.0470   56.2260 O   0  0  0  0  0  0  0  0  0  0  0  0
  131.6020  132.1550   56.4380 N   0  0  0  0  0  0  0  0  0  0  0  0
  132.5980  132.6510   57.3860 C   0  0  0  0  0  0  0  0  0  0  0  0
  132.3860  132.1730   58.8190 C   0  0  0  0  0  0  0  0  0  0  0  0
  133.4760  131.7250   59.5700 C   0  0  0  0  0  0  0  0  0  0  0  0
  133.2910  131.3160   60.8880 C   0  0  0  0  0  0  0  0  0  0  0  0
  132.0190  131.3640   61.4530 C   0  0  0  0  0  0  0  0  0  0  0  0
  130.9300  131.8230   60.7140 C   0  0  0  0  0  0  0  0  0  0  0  0
  131.1150  132.2330   59.3970 C   0  0  0  0  0  0  0  0  0  0  0  0
  1  2  3  0
  2  3  1  0
  3  4  2  0
  4  5  1  0
  5  6  1  0
  5  7  1  0
  5  8  1  0
  4  9  1  0
  9 10  2  0
 10 11  1  0
 11 12  2  0
 12 13  1  0
 13 14  2  0
 14 15  1  0
 15 16  2  0
 10 17  1  0
 17 18  2  0
 18 19  1  0
 19 20  1  0
 20 21  1  0
 21 22  2  0
 21 23  1  0
 23 24  1  0
 24 25  1  0
 25 26  2  0
 26 27  1  0
 27 28  2  0
 28 29  1  0
 29 30  2  0
 18  3  1  0
 30 25  1  0
 16 11  1  0
M  END
>  <Binding energies>  (16) 
[-8.13]

>  <Ligand effiencies>  (16) 
[-0.26225806451612904]

>  <Interactions>  (16) 
["V-A:LEU:363:CA:3184, V-A:TYR:539:CZ:4876, V-B:ILE:369:CB:8206, V-A:PRO:540:CB:4884, V-A:TYR:539:CD1:4872, V-B:ILE:369:C:8202, V-B:ASN:370:CB:8215, V-A:ASN:362:C:3171, V-A:ASN:362:CB:3175, V-A:MET:535:CG:4832, V-B:TYR:531:CE1:9763, V-A:TYR:531:CE2:4792, V-A:LEU:363:CD1:3188, V-A:PRO:540:N:4883, V-B:ILE:369:CG2:8207, V-A:PRO:540:CA:4882, V-A:TYR:539:CE1:4874, V-B:ASN:370:CA:8213, V-A:ALA:541:CB:4891, H-A:TYR:539:N:4869, V-A:TYR:531:CZ:4793, H-A:TYR:531:OH:4794, H-A:TYR:539:OH:4877, V-B:ASP:366:CA:8180, V-B:ASP:366:C:8178, H-B:LYS:534:NZ:9794, V-B:TYR:531:CD1:9761, V-B:ILE:369:CA:8204"]

$$$$
3bc_Grossjean_2025
     RDKit          3D

 28 30  0  0  0  0  0  0  0  0999 V2000
  124.8750  122.2650   55.7400 C   0  0  0  0  0  0  0  0  0  0  0  0
  126.0520  123.0560   55.8590 O   0  0  0  0  0  0  0  0  0  0  0  0
  126.6500  123.1930   57.0980 C   0  0  0  0  0  0  0  0  0  0  0  0
  125.8710  123.7680   58.1030 C   0  0  0  0  0  0  0  0  0  0  0  0
  126.3870  123.9470   59.3840 C   0  0  0  0  0  0  0  0  0  0  0  0
  127.6960  123.5600   59.6750 C   0  0  0  0  0  0  0  0  0  0  0  0
  128.1250  123.7690   60.9990 N   0  0  0  0  0  0  0  0  0  0  0  0
  127.5170  123.4280   62.1550 C   0  0  0  0  0  0  0  0  0  0  0  0
  126.4510  122.8140   62.2330 O   0  0  0  0  0  0  0  0  0  0  0  0
  128.2810  123.8310   63.4250 C   0  0  0  0  0  0  0  0  0  0  0  0
  129.1960  122.4790   64.2410 S   0  0  0  0  0  0  0  0  0  0  0  0
  130.7150  122.2340   63.3470 C   0  0  0  0  0  0  0  0  0  0  0  0
  130.7130  121.1290   62.5610 N   0  0  0  0  0  0  0  0  0  0  0  0
  131.8100  120.8240   61.8210 C   0  0  0  0  0  0  0  0  0  0  0  0
  131.7350  119.5740   60.9950 C   0  0  0  0  0  0  0  0  0  0  0  0
  130.6510  118.6930   61.1250 C   0  0  0  0  0  0  0  0  0  0  0  0
  130.5740  117.5310   60.3620 C   0  0  0  0  0  0  0  0  0  0  0  0
  131.5860  117.2330   59.4560 C   0  0  0  0  0  0  0  0  0  0  0  0
  132.6740  118.0880   59.3090 C   0  0  0  0  0  0  0  0  0  0  0  0
  132.7460  119.2480   60.0760 C   0  0  0  0  0  0  0  0  0  0  0  0
  132.9490  121.6340   61.8560 C   0  0  0  0  0  0  0  0  0  0  0  0
  132.9590  122.7910   62.6440 C   0  0  0  0  0  0  0  0  0  0  0  0
  134.2180  123.6560   62.6380 C   0  0  0  0  0  0  0  0  0  0  0  0
  131.8160  123.1170   63.4060 C   0  0  0  0  0  0  0  0  0  0  0  0
  131.7860  124.3480   64.1990 C   0  0  0  0  0  0  0  0  0  0  0  0
  131.7650  125.3200   64.8260 N   0  0  0  0  0  0  0  0  0  0  0  0
  128.4810  122.9690   58.6740 C   0  0  0  0  0  0  0  0  0  0  0  0
  127.9610  122.7910   57.3940 C   0  0  0  0  0  0  0  0  0  0  0  0
  1  2  1  0
  2  3  1  0
  3  4  2  0
  4  5  1  0
  5  6  2  0
  6  7  1  0
  7  8  1  0
  8  9  2  0
  8 10  1  0
 10 11  1  0
 11 12  1  0
 12 13  2  0
 13 14  1  0
 14 15  1  0
 15 16  2  0
 16 17  1  0
 17 18  2  0
 18 19  1  0
 19 20  2  0
 14 21  2  0
 21 22  1  0
 22 23  1  0
 22 24  2  0
 24 25  1  0
 25 26  3  0
  6 27  1  0
 27 28  2  0
 28  3  1  0
 24 12  1  0
 20 15  1  0
M  END
>  <Binding energies>  (17) 
[-9.6]

>  <Ligand effiencies>  (17) 
[-0.3310344827586207]

>  <Interactions>  (17) 
["V-B:LEU:363:CD1:8159, V-B:TYR:539:CZ:9848, V-B:TYR:531:CE2:9764, H-B:TYR:531:OH:9766, V-B:TYR:539:CD2:9845, V-B:MET:535:CE:9806, V-B:TYR:539:CE1:9846, V-B:TYR:539:C:9838, V-B:TYR:539:CD1:9844, V-B:TYR:539:CG:9843, V-B:TYR:539:CE2:9847, V-B:ILE:538:CG2:9834, V-B:PRO:540:CA:9854, V-B:PRO:540:CB:9856, V-B:ILE:538:CD1:9836, V-B:PRO:540:N:9855, V-B:PRO:540:CD:9858, V-B:GLU:543:CD:9879, H-A:TYR:484:OH:4347, V-A:ILE:369:CD1:3238, V-B:GLU:543:CG:9878, V-A:LEU:475:CD2:4258, V-B:ALA:541:CB:9863, V-A:HIS:383:CE1:3393, V-A:ILE:369:CG2:3236, V-B:ILE:538:CA:9831, V-B:TYR:539:CB:9842, V-A:GLY:454:CA:4048, V-A:GLY:453:C:4041, H-B:ALA:541:N:9862, V-B:ILE:538:CB:9833, V-A:LEU:373:CG:3278, V-A:LEU:373:CD2:3280"]

$$$$
3bd_Grossjean_2025
     RDKit          3D

 26 28  0  0  0  0  0  0  0  0999 V2000
  134.1910  123.5760   62.8540 C   0  0  0  0  0  0  0  0  0  0  0  0
  132.8900  122.7810   62.7630 C   0  0  0  0  0  0  0  0  0  0  0  0
  132.8880  121.6000   62.0120 C   0  0  0  0  0  0  0  0  0  0  0  0
  131.7150  120.8450   61.9010 C   0  0  0  0  0  0  0  0  0  0  0  0
  131.6440  119.5680   61.1160 C   0  0  0  0  0  0  0  0  0  0  0  0
  130.5530  118.6960   61.2620 C   0  0  0  0  0  0  0  0  0  0  0  0
  130.4820  117.5090   60.5370 C   0  0  0  0  0  0  0  0  0  0  0  0
  131.5050  117.1760   59.6550 C   0  0  0  0  0  0  0  0  0  0  0  0
  132.5980  118.0210   59.4950 C   0  0  0  0  0  0  0  0  0  0  0  0
  132.6660  119.2070   60.2210 C   0  0  0  0  0  0  0  0  0  0  0  0
  130.5740  121.2350   62.5280 N   0  0  0  0  0  0  0  0  0  0  0  0
  130.5590  122.3780   63.2600 C   0  0  0  0  0  0  0  0  0  0  0  0
  128.9970  122.7870   64.0220 S   0  0  0  0  0  0  0  0  0  0  0  0
  128.2050  124.0830   63.0240 C   0  0  0  0  0  0  0  0  0  0  0  0
  127.3930  123.5000   61.8670 C   0  0  0  0  0  0  0  0  0  0  0  0
  126.3800  122.8460   62.1160 O   0  0  0  0  0  0  0  0  0  0  0  0
  127.8770  123.7450   60.6300 N   0  0  0  0  0  0  0  0  0  0  0  0
  127.3470  123.3700   59.3810 C   0  0  0  0  0  0  0  0  0  0  0  0
  128.2490  122.8040   58.4760 C   0  0  0  0  0  0  0  0  0  0  0  0
  127.8180  122.4090   57.2120 C   0  0  0  0  0  0  0  0  0  0  0  0
  126.4870  122.5900   56.8480 C   0  0  0  0  0  0  0  0  0  0  0  0
  125.5820  123.1660   57.7360 C   0  0  0  0  0  0  0  0  0  0  0  0
  126.0090  123.5610   59.0010 C   0  0  0  0  0  0  0  0  0  0  0  0
  131.7030  123.1910   63.4060 C   0  0  0  0  0  0  0  0  0  0  0  0
  131.6730  124.4230   64.2010 C   0  0  0  0  0  0  0  0  0  0  0  0
  131.6520  125.3940   64.8300 N   0  0  0  0  0  0  0  0  0  0  0  0
  1  2  1  0
  2  3  2  0
  3  4  1  0
  4  5  1  0
  5  6  2  0
  6  7  1  0
  7  8  2  0
  8  9  1  0
  9 10  2  0
  4 11  2  0
 11 12  1  0
 12 13  1  0
 13 14  1  0
 14 15  1  0
 15 16  2  0
 15 17  1  0
 17 18  1  0
 18 19  2  0
 19 20  1  0
 20 21  2  0
 21 22  1  0
 22 23  2  0
 12 24  2  0
 24 25  1  0
 25 26  3  0
 24  2  1  0
 10  5  1  0
 23 18  1  0
M  END
>  <Binding energies>  (18) 
[-9.07]

>  <Ligand effiencies>  (18) 
[-0.33592592592592596]

>  <Interactions>  (18) 
["V-B:TYR:539:CZ:9848, V-B:TYR:539:CD2:9845, V-B:MET:535:CE:9806, V-B:TYR:539:CE1:9846, V-B:TYR:539:C:9838, V-B:TYR:539:CA:9840, V-B:TYR:539:CD1:9844, V-B:TYR:539:CG:9843, V-B:TYR:539:CE2:9847, V-B:PRO:540:CA:9854, V-B:PRO:540:CB:9856, V-B:PRO:540:N:9855, V-B:PRO:540:CD:9858, V-B:GLU:543:CD:9879, H-A:TYR:484:OH:4347, V-A:ILE:369:CD1:3238, V-A:LEU:475:CD2:4258, V-B:ALA:541:CB:9863, V-A:HIS:383:CE1:3393, V-B:TYR:539:CB:9842, V-A:GLY:454:CA:4048, V-A:GLY:453:C:4041, H-B:ALA:541:N:9862, V-A:PRO:482:CG:4326, V-A:LEU:373:CD2:3280"]

$$$$
3be_Grossjean_2025
     RDKit          3D

 27 29  0  0  0  0  0  0  0  0999 V2000
  124.5460  123.8660   57.9380 C   0  0  0  0  0  0  0  0  0  0  0  0
  125.9700  123.4630   58.2670 C   0  0  0  0  0  0  0  0  0  0  0  0
  126.7960  122.8530   57.3190 C   0  0  0  0  0  0  0  0  0  0  0  0
  128.0940  122.5060   57.6930 C   0  0  0  0  0  0  0  0  0  0  0  0
  128.5330  122.7760   58.9920 C   0  0  0  0  0  0  0  0  0  0  0  0
  127.6560  123.3920   59.8910 C   0  0  0  0  0  0  0  0  0  0  0  0
  128.1530  123.6270   61.1870 N   0  0  0  0  0  0  0  0  0  0  0  0
  127.5180  123.5000   62.3720 C   0  0  0  0  0  0  0  0  0  0  0  0
  126.3440  123.1480   62.5030 O   0  0  0  0  0  0  0  0  0  0  0  0
  128.3780  123.8330   63.6010 C   0  0  0  0  0  0  0  0  0  0  0  0
  129.3770  122.4480   64.2470 S   0  0  0  0  0  0  0  0  0  0  0  0
  130.8870  122.3720   63.3080 C   0  0  0  0  0  0  0  0  0  0  0  0
  130.9720  121.2840   62.5030 N   0  0  0  0  0  0  0  0  0  0  0  0
  132.0720  121.1010   61.7250 C   0  0  0  0  0  0  0  0  0  0  0  0
  132.0930  119.8660   60.8740 C   0  0  0  0  0  0  0  0  0  0  0  0
  131.0770  118.9030   60.9810 C   0  0  0  0  0  0  0  0  0  0  0  0
  131.0920  117.7540   60.1970 C   0  0  0  0  0  0  0  0  0  0  0  0
  132.1270  117.5490   59.2910 C   0  0  0  0  0  0  0  0  0  0  0  0
  133.1470  118.4860   59.1670 C   0  0  0  0  0  0  0  0  0  0  0  0
  133.1290  119.6340   59.9540 C   0  0  0  0  0  0  0  0  0  0  0  0
  133.1260  122.0200   61.7450 C   0  0  0  0  0  0  0  0  0  0  0  0
  133.0430  123.1600   62.5520 C   0  0  0  0  0  0  0  0  0  0  0  0
  134.2110  124.1460   62.5280 C   0  0  0  0  0  0  0  0  0  0  0  0
  131.8960  123.3600   63.3500 C   0  0  0  0  0  0  0  0  0  0  0  0
  131.7660  124.5730   64.1600 C   0  0  0  0  0  0  0  0  0  0  0  0
  131.6640  125.5330   64.8000 N   0  0  0  0  0  0  0  0  0  0  0  0
  126.3830  123.7310   59.5320 N   0  0  0  0  0  0  0  0  0  0  0  0
  1  2  1  0
  2  3  2  0
  3  4  1  0
  4  5  2  0
  5  6  1  0
  6  7  1  0
  7  8  1  0
  8  9  2  0
  8 10  1  0
 10 11  1  0
 11 12  1  0
 12 13  2  0
 13 14  1  0
 14 15  1  0
 15 16  2  0
 16 17  1  0
 17 18  2  0
 18 19  1  0
 19 20  2  0
 14 21  2  0
 21 22  1  0
 22 23  1  0
 22 24  2  0
 24 25  1  0
 25 26  3  0
  6 27  2  0
 27  2  1  0
 24 12  1  0
 20 15  1  0
M  END
>  <Binding energies>  (19) 
[-9.04]

>  <Ligand effiencies>  (19) 
[-0.32285714285714284]

>  <Interactions>  (19) 
["V-B:LEU:363:CD1:8159, V-B:TYR:539:CZ:9848, V-A:ASP:366:CG:3212, V-B:TYR:539:CD2:9845, V-B:MET:535:CE:9806, V-B:TYR:539:CE1:9846, V-B:TYR:539:C:9838, V-B:TYR:539:CA:9840, V-B:TYR:539:CD1:9844, V-B:TYR:539:CG:9843, V-B:TYR:539:CE2:9847, V-B:PRO:540:CA:9854, V-B:PRO:540:CB:9856, V-B:PRO:540:N:9855, V-B:GLU:543:CD:9879, H-A:TYR:484:OH:4347, V-A:ILE:369:CD1:3238, V-B:GLU:543:CG:9878, V-A:LEU:475:CD2:4258, V-A:HIS:383:CE1:3393, V-A:ILE:369:CG2:3236, V-A:SER:385:CA:3406, V-B:TYR:539:CB:9842, V-A:GLY:453:C:4041, H-B:ALA:541:N:9862, V-A:LEU:373:CD1:3279, V-A:LEU:373:CG:3278, V-A:LEU:373:CD2:3280"]

$$$$
3bf_Grossjean_2025
     RDKit          3D

 26 28  0  0  0  0  0  0  0  0999 V2000
  134.1570  123.6190   62.8180 C   0  0  0  0  0  0  0  0  0  0  0  0
  132.8620  122.8230   62.6750 C   0  0  0  0  0  0  0  0  0  0  0  0
  132.8930  121.6420   61.9280 C   0  0  0  0  0  0  0  0  0  0  0  0
  131.7320  120.8740   61.7840 C   0  0  0  0  0  0  0  0  0  0  0  0
  131.7040  119.5880   61.0140 C   0  0  0  0  0  0  0  0  0  0  0  0
  132.7160  119.2840   60.0900 C   0  0  0  0  0  0  0  0  0  0  0  0
  132.6970  118.0920   59.3720 C   0  0  0  0  0  0  0  0  0  0  0  0
  131.6610  117.1850   59.5680 C   0  0  0  0  0  0  0  0  0  0  0  0
  130.6450  117.4630   60.4760 C   0  0  0  0  0  0  0  0  0  0  0  0
  130.6670  118.6570   61.1920 C   0  0  0  0  0  0  0  0  0  0  0  0
  130.5640  121.2610   62.3630 N   0  0  0  0  0  0  0  0  0  0  0  0
  130.5120  122.4170   63.0700 C   0  0  0  0  0  0  0  0  0  0  0  0
  128.9040  122.7650   63.7490 S   0  0  0  0  0  0  0  0  0  0  0  0
  128.1010  124.0160   62.6900 C   0  0  0  0  0  0  0  0  0  0  0  0
  127.2270  123.4510   61.5610 C   0  0  0  0  0  0  0  0  0  0  0  0
  126.1300  122.9470   61.8070 O   0  0  0  0  0  0  0  0  0  0  0  0
  127.7500  123.5860   60.3230 N   0  0  0  0  0  0  0  0  0  0  0  0
  127.2170  123.1700   59.0890 C   0  0  0  0  0  0  0  0  0  0  0  0
  125.9080  123.5660   58.7920 C   0  0  0  0  0  0  0  0  0  0  0  0
  125.3270  123.1960   57.5780 C   0  0  0  0  0  0  0  0  0  0  0  0
  126.0820  122.4380   56.6820 C   0  0  0  0  0  0  0  0  0  0  0  0
  127.3560  122.0490   56.9380 N   0  0  0  0  0  0  0  0  0  0  0  0
  127.9080  122.4160   58.1230 C   0  0  0  0  0  0  0  0  0  0  0  0
  131.6490  123.2300   63.2720 C   0  0  0  0  0  0  0  0  0  0  0  0
  131.6060  124.4380   64.1010 C   0  0  0  0  0  0  0  0  0  0  0  0
  131.5730  125.3930   64.7550 N   0  0  0  0  0  0  0  0  0  0  0  0
  1  2  1  0
  2  3  2  0
  3  4  1  0
  4  5  1  0
  5  6  2  0
  6  7  1  0
  7  8  2  0
  8  9  1  0
  9 10  2  0
  4 11  2  0
 11 12  1  0
 12 13  1  0
 13 14  1  0
 14 15  1  0
 15 16  2  0
 15 17  1  0
 17 18  1  0
 18 19  2  0
 19 20  1  0
 20 21  2  0
 21 22  1  0
 22 23  2  0
 12 24  2  0
 24 25  1  0
 25 26  3  0
 24  2  1  0
 10  5  1  0
 23 18  1  0
M  END
>  <Binding energies>  (20) 
[-9.24]

>  <Ligand effiencies>  (20) 
[-0.3422222222222222]

>  <Interactions>  (20) 
["V-B:LEU:363:CD1:8159, V-B:TYR:539:CD2:9845, V-B:TYR:539:C:9838, V-B:TYR:539:CA:9840, V-B:TYR:539:CG:9843, V-B:TYR:539:CE2:9847, H-B:TYR:539:N:9841, V-B:PRO:540:CA:9854, V-B:PRO:540:CB:9856, V-B:PRO:540:N:9855, V-B:PRO:540:CD:9858, V-B:GLU:543:CD:9879, H-A:TYR:484:OH:4347, V-A:ILE:369:CD1:3238, V-A:LEU:475:CD2:4258, V-B:ALA:541:CB:9863, V-A:HIS:383:CE1:3393, V-A:ILE:369:CG2:3236, V-B:TYR:539:CB:9842, V-A:GLY:454:CA:4048, V-A:GLY:453:C:4041, H-B:ALA:541:N:9862, V-A:LEU:373:CD2:3280"]

$$$$
3bg_Grossjean_2025
     RDKit          3D

 27 29  0  0  0  0  0  0  0  0999 V2000
  134.5100  124.0590   62.7260 C   0  0  0  0  0  0  0  0  0  0  0  0
  133.3030  123.1240   62.7360 C   0  0  0  0  0  0  0  0  0  0  0  0
  133.3170  122.0170   61.8820 C   0  0  0  0  0  0  0  0  0  0  0  0
  132.2330  121.1280   61.8650 C   0  0  0  0  0  0  0  0  0  0  0  0
  132.1900  119.9140   60.9800 C   0  0  0  0  0  0  0  0  0  0  0  0
  131.1860  118.9430   61.1310 C   0  0  0  0  0  0  0  0  0  0  0  0
  131.1320  117.8260   60.3010 C   0  0  0  0  0  0  0  0  0  0  0  0
  132.0870  117.6600   59.3050 C   0  0  0  0  0  0  0  0  0  0  0  0
  133.0990  118.5980   59.1390 C   0  0  0  0  0  0  0  0  0  0  0  0
  133.1500  119.7120   59.9720 C   0  0  0  0  0  0  0  0  0  0  0  0
  131.1690  121.3230   62.6890 N   0  0  0  0  0  0  0  0  0  0  0  0
  131.1400  122.3910   63.5270 C   0  0  0  0  0  0  0  0  0  0  0  0
  129.7020  122.5110   64.5790 S   0  0  0  0  0  0  0  0  0  0  0  0
  128.4790  123.5810   63.7540 C   0  0  0  0  0  0  0  0  0  0  0  0
  128.0760  123.0340   62.3820 C   0  0  0  0  0  0  0  0  0  0  0  0
  126.8880  122.8320   62.1260 O   0  0  0  0  0  0  0  0  0  0  0  0
  129.0770  122.7760   61.5230 N   0  0  0  0  0  0  0  0  0  0  0  0
  128.9400  122.0860   60.2400 C   0  0  0  0  0  0  0  0  0  0  0  0
  128.3000  122.9780   59.1830 C   0  0  0  0  0  0  0  0  0  0  0  0
  127.6460  122.4060   58.0860 C   0  0  0  0  0  0  0  0  0  0  0  0
  127.0700  123.2200   57.1160 C   0  0  0  0  0  0  0  0  0  0  0  0
  127.1370  124.6060   57.2510 C   0  0  0  0  0  0  0  0  0  0  0  0
  127.7670  125.1830   58.3500 C   0  0  0  0  0  0  0  0  0  0  0  0
  128.3450  124.3680   59.3210 C   0  0  0  0  0  0  0  0  0  0  0  0
  132.1910  123.3300   63.5790 C   0  0  0  0  0  0  0  0  0  0  0  0
  132.1500  124.4770   64.4910 C   0  0  0  0  0  0  0  0  0  0  0  0
  132.1200  125.3820   65.2100 N   0  0  0  0  0  0  0  0  0  0  0  0
  1  2  1  0
  2  3  2  0
  3  4  1  0
  4  5  1  0
  5  6  2  0
  6  7  1  0
  7  8  2  0
  8  9  1  0
  9 10  2  0
  4 11  2  0
 11 12  1  0
 12 13  1  0
 13 14  1  0
 14 15  1  0
 15 16  2  0
 15 17  1  0
 17 18  1  0
 18 19  1  0
 19 20  2  0
 20 21  1  0
 21 22  2  0
 22 23  1  0
 23 24  2  0
 12 25  2  0
 25 26  1  0
 26 27  3  0
 25  2  1  0
 10  5  1  0
 24 19  1  0
M  END
>  <Binding energies>  (21) 
[-8.4]

>  <Ligand effiencies>  (21) 
[-0.3]

>  <Interactions>  (21) 
["V-A:ASP:366:CG:3212, V-B:TYR:539:CD2:9845, V-B:MET:535:CE:9806, V-B:TYR:539:C:9838, V-B:TYR:539:CA:9840, V-B:TYR:539:CG:9843, V-B:TYR:539:CE2:9847, V-B:PRO:540:CA:9854, V-B:PRO:540:N:9855, V-B:GLU:543:CD:9879, H-A:TYR:484:OH:4347, V-A:ILE:369:CD1:3238, V-B:GLU:543:CG:9878, V-A:LEU:475:CD2:4258, V-B:ALA:541:CB:9863, V-A:HIS:383:CE1:3393, V-A:ILE:369:CG2:3236, V-A:SER:385:CA:3406, V-B:TYR:539:CB:9842, V-A:GLY:454:CA:4048, V-A:GLY:453:C:4041, H-B:ALA:541:N:9862, V-A:GLY:453:CA:4043, V-A:LEU:373:CG:3278, V-A:LEU:373:CD2:3280"]

$$$$
3ca_Grossjean_2025
     RDKit          3D

 31 33  0  0  0  0  0  0  0  0999 V2000
  130.3580  133.2520   54.2490 C   0  0  0  0  0  0  0  0  0  0  0  0
  129.3640  133.4060   55.4040 C   0  0  0  0  0  0  0  0  0  0  0  0
  130.0080  134.0440   56.5000 O   0  0  0  0  0  0  0  0  0  0  0  0
  131.2220  133.6270   56.9400 C   0  0  0  0  0  0  0  0  0  0  0  0
  132.2850  134.1720   56.6240 O   0  0  0  0  0  0  0  0  0  0  0  0
  131.1460  132.4390   57.8560 C   0  0  0  0  0  0  0  0  0  0  0  0
  132.2330  131.5590   57.9280 C   0  0  0  0  0  0  0  0  0  0  0  0
  132.1920  130.4490   58.7670 C   0  0  0  0  0  0  0  0  0  0  0  0
  131.0620  130.1920   59.5450 C   0  0  0  0  0  0  0  0  0  0  0  0
  131.1260  129.0440   60.3590 N   0  0  0  0  0  0  0  0  0  0  0  0
  130.1870  128.5080   61.1670 C   0  0  0  0  0  0  0  0  0  0  0  0
  129.0470  128.9450   61.3230 O   0  0  0  0  0  0  0  0  0  0  0  0
  130.6140  127.2400   61.9150 C   0  0  0  0  0  0  0  0  0  0  0  0
  130.9070  125.8190   60.8100 S   0  0  0  0  0  0  0  0  0  0  0  0
  129.4240  124.8280   60.6880 C   0  0  0  0  0  0  0  0  0  0  0  0
  128.9220  124.3760   61.8650 N   0  0  0  0  0  0  0  0  0  0  0  0
  127.7910  123.6370   61.8510 C   0  0  0  0  0  0  0  0  0  0  0  0
  127.2830  123.1840   63.2050 C   0  0  0  0  0  0  0  0  0  0  0  0
  127.1250  123.3080   60.6720 C   0  0  0  0  0  0  0  0  0  0  0  0
  127.6340  123.7480   59.4430 C   0  0  0  0  0  0  0  0  0  0  0  0
  126.8940  123.3580   58.2050 C   0  0  0  0  0  0  0  0  0  0  0  0
  127.5750  122.7560   57.1400 C   0  0  0  0  0  0  0  0  0  0  0  0
  126.8970  122.3980   55.9780 C   0  0  0  0  0  0  0  0  0  0  0  0
  125.5300  122.6470   55.8740 C   0  0  0  0  0  0  0  0  0  0  0  0
  124.8390  123.2520   56.9210 C   0  0  0  0  0  0  0  0  0  0  0  0
  125.5220  123.6080   58.0820 C   0  0  0  0  0  0  0  0  0  0  0  0
  128.8110  124.5380   59.4450 C   0  0  0  0  0  0  0  0  0  0  0  0
  129.3620  125.0700   58.1950 C   0  0  0  0  0  0  0  0  0  0  0  0
  129.7950  125.4900   57.2060 N   0  0  0  0  0  0  0  0  0  0  0  0
  129.9720  131.0730   59.4860 C   0  0  0  0  0  0  0  0  0  0  0  0
  130.0160  132.1830   58.6480 C   0  0  0  0  0  0  0  0  0  0  0  0
  1  2  1  0
  2  3  1  0
  3  4  1  0
  4  5  2  0
  4  6  1  0
  6  7  2  0
  7  8  1  0
  8  9  2  0
  9 10  1  0
 10 11  1  0
 11 12  2  0
 11 13  1  0
 13 14  1  0
 14 15  1  0
 15 16  2  0
 16 17  1  0
 17 18  1  0
 17 19  2  0
 19 20  1  0
 20 21  1  0
 21 22  2  0
 22 23  1  0
 23 24  2  0
 24 25  1  0
 25 26  2  0
 20 27  2  0
 27 28  1  0
 28 29  3  0
  9 30  1  0
 30 31  2  0
 31  6  1  0
 27 15  1  0
 26 21  1  0
M  END
>  <Binding energies>  (22) 
[-8.92]

>  <Ligand effiencies>  (22) 
[-0.27875]

>  <Interactions>  (22) 
["V-B:LEU:363:CD1:8159, V-B:TYR:531:CZ:9765, V-A:TYR:539:CZ:4876, V-A:TYR:539:CD1:4872, V-A:TYR:539:C:4866, V-A:MET:535:CB:4831, V-B:TYR:531:CE2:9764, V-A:ASP:366:CG:3212, V-A:MET:535:CG:4832, V-A:TYR:531:CE2:4792, V-A:PRO:540:N:4883, V-B:TYR:539:CD2:9845, V-B:MET:535:CE:9806, V-A:PRO:540:CA:4882, V-B:TYR:539:C:9838, V-A:TYR:539:CE1:4874, V-B:TYR:539:CD1:9844, V-B:TYR:539:CG:9843, V-B:TYR:539:CE2:9847, V-B:PRO:540:CA:9854, V-B:PRO:540:CB:9856, V-B:ILE:538:CD1:9836, V-B:PRO:540:N:9855, H-A:TYR:539:N:4869, V-A:PRO:540:CD:4886, V-A:TYR:531:CZ:4793, V-A:TYR:539:CG:4871, V-A:ILE:538:CB:4861, V-B:GLU:543:CD:9879, V-B:ALA:541:C:9859, H-A:ASP:366:OD2:3214, V-B:GLU:543:CG:9878, V-B:ALA:541:CB:9863, V-B:ILE:538:CA:9831, V-B:ALA:541:CA:9861, V-A:ASP:366:CB:3211, H-B:TYR:539:OH:9849, V-A:ILE:538:CA:4859, V-A:TYR:539:CE2:4875, V-A:ILE:538:CG2:4862"]

$$$$
3ce_Grossjean_2025
     RDKit          3D

 27 29  0  0  0  0  0  0  0  0999 V2000
  134.8160  125.6900   67.1770 C   0  0  0  0  0  0  0  0  0  0  0  0
  133.6420  125.8090   66.2250 C   0  0  0  0  0  0  0  0  0  0  0  0
  132.3810  126.2180   66.6660 C   0  0  0  0  0  0  0  0  0  0  0  0
  131.3500  126.3150   65.7320 C   0  0  0  0  0  0  0  0  0  0  0  0
  131.6000  126.0040   64.3930 C   0  0  0  0  0  0  0  0  0  0  0  0
  132.8840  125.5920   64.0200 C   0  0  0  0  0  0  0  0  0  0  0  0
  133.0830  125.3120   62.6570 N   0  0  0  0  0  0  0  0  0  0  0  0
  133.3200  124.1150   62.0760 C   0  0  0  0  0  0  0  0  0  0  0  0
  133.3950  123.0410   62.6750 O   0  0  0  0  0  0  0  0  0  0  0  0
  133.4930  124.1380   60.5580 C   0  0  0  0  0  0  0  0  0  0  0  0
  132.1550  125.0520   59.7350 S   0  0  0  0  0  0  0  0  0  0  0  0
  130.7310  123.9900   59.8040 C   0  0  0  0  0  0  0  0  0  0  0  0
  130.7530  123.1050   60.8310 N   0  0  0  0  0  0  0  0  0  0  0  0
  129.7050  122.2620   60.9800 C   0  0  0  0  0  0  0  0  0  0  0  0
  129.7870  121.3080   62.1560 C   0  0  0  0  0  0  0  0  0  0  0  0
  128.6150  122.2600   60.1140 C   0  0  0  0  0  0  0  0  0  0  0  0
  128.5860  123.1490   59.0310 C   0  0  0  0  0  0  0  0  0  0  0  0
  127.4080  123.0920   58.1150 C   0  0  0  0  0  0  0  0  0  0  0  0
  126.1820  123.6390   58.5120 C   0  0  0  0  0  0  0  0  0  0  0  0
  125.0770  123.5840   57.6650 C   0  0  0  0  0  0  0  0  0  0  0  0
  125.1930  122.9740   56.4190 C   0  0  0  0  0  0  0  0  0  0  0  0
  126.4030  122.4170   56.0140 C   0  0  0  0  0  0  0  0  0  0  0  0
  127.5050  122.4740   56.8620 C   0  0  0  0  0  0  0  0  0  0  0  0
  129.6710  124.0470   58.8680 C   0  0  0  0  0  0  0  0  0  0  0  0
  129.6900  125.0110   57.7630 C   0  0  0  0  0  0  0  0  0  0  0  0
  129.7040  125.7710   56.8910 N   0  0  0  0  0  0  0  0  0  0  0  0
  133.9000  125.5020   64.9280 N   0  0  0  0  0  0  0  0  0  0  0  0
  1  2  1  0
  2  3  2  0
  3  4  1  0
  4  5  2  0
  5  6  1  0
  6  7  1  0
  7  8  1  0
  8  9  2  0
  8 10  1  0
 10 11  1  0
 11 12  1  0
 12 13  2  0
 13 14  1  0
 14 15  1  0
 14 16  2  0
 16 17  1  0
 17 18  1  0
 18 19  2  0
 19 20  1  0
 20 21  2  0
 21 22  1  0
 22 23  2  0
 17 24  2  0
 24 25  1  0
 25 26  3  0
  6 27  2  0
 27  2  1  0
 24 12  1  0
 23 18  1  0
M  END
>  <Binding energies>  (23) 
[-9.3]

>  <Ligand effiencies>  (23) 
[-0.3321428571428572]

>  <Interactions>  (23) 
["V-B:LEU:363:CD1:8159, V-B:TYR:531:CZ:9765, V-B:TYR:539:CZ:9848, V-B:TYR:531:CE2:9764, V-A:ASP:366:CG:3212, V-B:TYR:539:CD2:9845, V-B:MET:535:CE:9806, V-B:TYR:539:CE1:9846, V-B:TYR:539:C:9838, V-B:TYR:539:CA:9840, V-B:TYR:539:CD1:9844, V-B:TYR:539:CG:9843, V-B:TYR:539:CE2:9847, V-B:PRO:540:CA:9854, V-B:PRO:540:CB:9856, V-B:PRO:540:N:9855, H-A:ASP:366:OD1:3213, V-A:ARG:545:CZ:4925, H-A:GLY:454:N:4049, H-A:TYR:484:OH:4347, H-A:ARG:545:NH1:4926, V-A:ILE:369:CD1:3238, H-A:ARG:545:NH2:4927, V-A:ARG:545:CD:4922, H-A:ASP:366:OD2:3214, V-A:LEU:475:CD2:4258, V-B:ALA:541:CB:9863, V-A:ILE:369:CG2:3236, V-B:ILE:538:CA:9831, V-A:ILE:455:C:4051, V-A:GLY:454:CA:4048, H-A:ARG:545:NE:4923, V-A:ARG:545:CG:4921, V-A:GLY:453:C:4041, H-B:TYR:539:OH:9849, V-A:GLY:453:CA:4043"]

$$$$
3cj_Grossjean_2025
     RDKit          3D

 25 27  0  0  0  0  0  0  0  0999 V2000
  131.7650  125.0960   58.3860 C   0  0  0  0  0  0  0  0  0  0  0  0
  130.4670  124.6510   59.0310 C   0  0  0  0  0  0  0  0  0  0  0  0
  129.3480  124.3240   58.2680 C   0  0  0  0  0  0  0  0  0  0  0  0
  128.1760  123.8950   58.9050 C   0  0  0  0  0  0  0  0  0  0  0  0
  127.0250  123.4930   58.0460 C   0  0  0  0  0  0  0  0  0  0  0  0
  127.2030  122.5790   57.0000 C   0  0  0  0  0  0  0  0  0  0  0  0
  126.1310  122.2140   56.1900 C   0  0  0  0  0  0  0  0  0  0  0  0
  124.8750  122.7690   56.4200 C   0  0  0  0  0  0  0  0  0  0  0  0
  124.6840  123.6860   57.4500 C   0  0  0  0  0  0  0  0  0  0  0  0
  125.7580  124.0490   58.2590 C   0  0  0  0  0  0  0  0  0  0  0  0
  128.1590  123.8410   60.3210 C   0  0  0  0  0  0  0  0  0  0  0  0
  126.9540  123.4290   61.0470 C   0  0  0  0  0  0  0  0  0  0  0  0
  126.0020  123.1010   61.6190 N   0  0  0  0  0  0  0  0  0  0  0  0
  129.3410  124.1870   61.0150 C   0  0  0  0  0  0  0  0  0  0  0  0
  129.4980  124.0350   62.7820 S   0  0  0  0  0  0  0  0  0  0  0  0
  129.3410  122.2510   63.1130 C   0  0  0  0  0  0  0  0  0  0  0  0
  130.5140  121.4570   62.5290 C   0  0  0  0  0  0  0  0  0  0  0  0
  131.6570  121.6730   62.9380 O   0  0  0  0  0  0  0  0  0  0  0  0
  130.1820  120.5270   61.6080 N   0  0  0  0  0  0  0  0  0  0  0  0
  131.0290  119.5940   61.0320 C   0  0  0  0  0  0  0  0  0  0  0  0
  132.2190  119.7970   60.5100 N   0  0  0  0  0  0  0  0  0  0  0  0
  132.7550  118.6720   60.0790 C   0  0  0  0  0  0  0  0  0  0  0  0
  131.9920  117.5210   60.2480 C   0  0  0  0  0  0  0  0  0  0  0  0
  130.4900  117.9450   61.0130 S   0  0  0  0  0  0  0  0  0  0  0  0
  130.4760  124.5750   60.3810 N   0  0  0  0  0  0  0  0  0  0  0  0
  1  2  1  0
  2  3  2  0
  3  4  1  0
  4  5  1  0
  5  6  2  0
  6  7  1  0
  7  8  2  0
  8  9  1  0
  9 10  2  0
  4 11  2  0
 11 12  1  0
 12 13  3  0
 11 14  1  0
 14 15  1  0
 15 16  1  0
 16 17  1  0
 17 18  2  0
 17 19  1  0
 19 20  1  0
 20 21  2  0
 21 22  1  0
 22 23  2  0
 23 24  1  0
 14 25  2  0
 25  2  1  0
 10  5  1  0
 24 20  1  0
M  END
>  <Binding energies>  (24) 
[-8.08]

>  <Ligand effiencies>  (24) 
[-0.3107692307692308]

>  <Interactions>  (24) 
["V-B:LEU:363:CD1:8159, V-B:TYR:531:CZ:9765, V-B:TYR:539:CZ:9848, V-B:TYR:531:CE2:9764, V-B:TYR:539:CD2:9845, V-B:MET:535:CE:9806, V-B:TYR:539:C:9838, V-B:TYR:539:CE2:9847, V-B:PRO:540:CA:9854, V-B:PRO:540:CB:9856, V-B:PRO:540:N:9855, V-B:PRO:540:CD:9858, V-A:LEU:475:CD2:4258, V-B:ALA:541:CB:9863, V-A:HIS:383:CE1:3393, V-B:ILE:538:CA:9831, V-A:SER:385:CA:3406, H-B:ALA:541:N:9862, H-B:TYR:539:O:9839, V-A:PRO:482:CG:4326, V-A:PRO:482:CB:4325, V-B:ILE:538:C:9829"]

$$$$
4ba_Grossjean_2025
     RDKit          3D

 28 30  0  0  0  0  0  0  0  0999 V2000
  130.9680  126.2050   67.3490 C   0  0  0  0  0  0  0  0  0  0  0  0
  132.4780  126.4660   67.1900 C   0  0  0  0  0  0  0  0  0  0  0  0
  133.1230  125.8360   65.9390 C   0  0  0  0  0  0  0  0  0  0  0  0
  134.3520  125.7650   65.8600 O   0  0  0  0  0  0  0  0  0  0  0  0
  132.2080  125.3280   64.8630 C   0  0  0  0  0  0  0  0  0  0  0  0
  131.6070  126.2380   63.9850 C   0  0  0  0  0  0  0  0  0  0  0  0
  130.7530  125.7940   62.9790 C   0  0  0  0  0  0  0  0  0  0  0  0
  130.4860  124.4330   62.8280 C   0  0  0  0  0  0  0  0  0  0  0  0
  129.6020  124.0960   61.7850 N   0  0  0  0  0  0  0  0  0  0  0  0
  128.3760  123.5190   61.8330 C   0  0  0  0  0  0  0  0  0  0  0  0
  127.8300  123.1390   62.8700 O   0  0  0  0  0  0  0  0  0  0  0  0
  127.7180  123.3410   60.5360 C   0  0  0  0  0  0  0  0  0  0  0  0
  128.5280  122.4590   59.2440 S   0  0  0  0  0  0  0  0  0  0  0  0
  127.1960  122.7450   58.1500 C   0  0  0  0  0  0  0  0  0  0  0  0
  127.2140  122.2860   56.8990 N   0  0  0  0  0  0  0  0  0  0  0  0
  126.1270  122.5700   56.1470 C   0  0  0  0  0  0  0  0  0  0  0  0
  126.1720  122.0460   54.7220 C   0  0  0  0  0  0  0  0  0  0  0  0
  125.0300  123.2910   56.6120 C   0  0  0  0  0  0  0  0  0  0  0  0
  125.0040  123.7770   57.9290 C   0  0  0  0  0  0  0  0  0  0  0  0
  123.7750  124.5620   58.3960 C   0  0  0  0  0  0  0  0  0  0  0  0
  122.8290  124.6570   57.4600 F   0  0  0  0  0  0  0  0  0  0  0  0
  123.2300  123.9620   59.4550 F   0  0  0  0  0  0  0  0  0  0  0  0
  124.1330  125.8030   58.7290 F   0  0  0  0  0  0  0  0  0  0  0  0
  126.1400  123.4990   58.7480 C   0  0  0  0  0  0  0  0  0  0  0  0
  126.4720  123.8340   60.1110 C   0  0  0  0  0  0  0  0  0  0  0  0
  125.6390  124.5670   60.9170 N   0  0  0  0  0  0  0  0  0  0  0  0
  131.0780  123.5150   63.7070 C   0  0  0  0  0  0  0  0  0  0  0  0
  131.9320  123.9610   64.7130 C   0  0  0  0  0  0  0  0  0  0  0  0
  1  2  1  0
  2  3  1  0
  3  4  2  0
  3  5  1  0
  5  6  2  0
  6  7  1  0
  7  8  2  0
  8  9  1  0
  9 10  1  0
 10 11  2  0
 10 12  1  0
 12 13  1  0
 13 14  1  0
 14 15  2  0
 15 16  1  0
 16 17  1  0
 16 18  2  0
 18 19  1  0
 19 20  1  0
 20 21  1  0
 20 22  1  0
 20 23  1  0
 19 24  2  0
 24 25  1  0
 25 26  1  0
  8 27  1  0
 27 28  2  0
 28  5  1  0
 25 12  2  0
 24 14  1  0
M  END
>  <Binding energies>  (25) 
[-8.02]

>  <Ligand effiencies>  (25) 
[-0.2587096774193548]

>  <Interactions>  (25) 
["V-B:LEU:363:CD1:8159, V-B:TYR:531:CZ:9765, V-B:LEU:363:CA:8155, V-B:TYR:531:CE2:9764, V-B:TYR:539:CD2:9845, V-B:MET:535:CE:9806, V-B:TYR:539:C:9838, V-B:ASP:366:CG:8183, V-B:TYR:539:CG:9843, V-B:TYR:539:CE2:9847, V-B:ASP:366:CB:8182, V-B:ILE:538:CG2:9834, V-B:MET:535:CG:9804, H-B:TYR:539:N:9841, V-B:PRO:540:CA:9854, V-B:PRO:540:CB:9856, V-B:ILE:538:CD1:9836, V-B:PRO:540:N:9855, V-A:ARG:545:CZ:4925, H-A:GLY:454:N:4049, H-A:TYR:484:OH:4347, H-A:ARG:545:NH1:4926, V-A:ARG:545:CD:4922, V-B:ILE:538:CA:9831, V-B:LEU:363:CB:8157, H-A:ARG:545:NE:4923, V-A:ARG:545:CG:4921, H-B:ALA:541:N:9862, V-A:HIS:456:CE1:4069, V-B:ILE:538:C:9829, V-B:ILE:538:CB:9833, H-B:ASP:366:OD1:8184, V-B:ASN:362:C:8142, V-B:ILE:538:CG1:9835, V-B:LEU:363:C:8153, V-B:VAL:537:C:9821, V-B:LEU:363:CG:8158"]

$$$$
4bb_Grossjean_2025
     RDKit          3D

 27 29  0  0  0  0  0  0  0  0999 V2000
  132.4760  126.5070   67.2290 C   0  0  0  0  0  0  0  0  0  0  0  0
  133.0180  125.8420   65.9620 C   0  0  0  0  0  0  0  0  0  0  0  0
  134.2380  125.7090   65.8520 O   0  0  0  0  0  0  0  0  0  0  0  0
  132.0380  125.3970   64.9180 C   0  0  0  0  0  0  0  0  0  0  0  0
  132.2710  125.7180   63.5750 C   0  0  0  0  0  0  0  0  0  0  0  0
  131.3770  125.3180   62.5860 C   0  0  0  0  0  0  0  0  0  0  0  0
  130.2380  124.5830   62.9190 C   0  0  0  0  0  0  0  0  0  0  0  0
  129.4000  124.2330   61.8420 N   0  0  0  0  0  0  0  0  0  0  0  0
  128.2250  123.5570   61.8360 C   0  0  0  0  0  0  0  0  0  0  0  0
  127.6900  123.0920   62.8420 O   0  0  0  0  0  0  0  0  0  0  0  0
  127.6150  123.3770   60.5160 C   0  0  0  0  0  0  0  0  0  0  0  0
  128.4870  122.5210   59.2460 S   0  0  0  0  0  0  0  0  0  0  0  0
  127.1830  122.7800   58.1100 C   0  0  0  0  0  0  0  0  0  0  0  0
  127.2480  122.3230   56.8610 N   0  0  0  0  0  0  0  0  0  0  0  0
  126.1780  122.5860   56.0760 C   0  0  0  0  0  0  0  0  0  0  0  0
  126.2710  122.0550   54.6570 C   0  0  0  0  0  0  0  0  0  0  0  0
  125.0560  123.2890   56.5070 C   0  0  0  0  0  0  0  0  0  0  0  0
  124.9820  123.7730   57.8220 C   0  0  0  0  0  0  0  0  0  0  0  0
  123.7270  124.5410   58.2490 C   0  0  0  0  0  0  0  0  0  0  0  0
  122.8380  124.6800   57.2630 F   0  0  0  0  0  0  0  0  0  0  0  0
  123.1210  123.8950   59.2460 F   0  0  0  0  0  0  0  0  0  0  0  0
  124.0630  125.7650   58.6580 F   0  0  0  0  0  0  0  0  0  0  0  0
  126.0950  123.5130   58.6770 C   0  0  0  0  0  0  0  0  0  0  0  0
  126.3740  123.8440   60.0520 C   0  0  0  0  0  0  0  0  0  0  0  0
  125.4970  124.5470   60.8370 N   0  0  0  0  0  0  0  0  0  0  0  0
  129.9930  124.2640   64.2630 C   0  0  0  0  0  0  0  0  0  0  0  0
  130.8880  124.6670   65.2510 C   0  0  0  0  0  0  0  0  0  0  0  0
  1  2  1  0
  2  3  2  0
  2  4  1  0
  4  5  2  0
  5  6  1  0
  6  7  2  0
  7  8  1  0
  8  9  1  0
  9 10  2  0
  9 11  1  0
 11 12  1  0
 12 13  1  0
 13 14  2  0
 14 15  1  0
 15 16  1  0
 15 17  2  0
 17 18  1  0
 18 19  1  0
 19 20  1  0
 19 21  1  0
 19 22  1  0
 18 23  2  0
 23 24  1  0
 24 25  1  0
  7 26  1  0
 26 27  2  0
 27  4  1  0
 24 11  2  0
 23 13  1  0
M  END
>  <Binding energies>  (26) 
[-7.88]

>  <Ligand effiencies>  (26) 
[-0.26266666666666666]

>  <Interactions>  (26) 
["V-B:LEU:363:CD1:8159, V-B:TYR:531:CZ:9765, V-B:LEU:363:CA:8155, V-B:TYR:531:CE2:9764, V-B:TYR:539:CD2:9845, V-B:MET:535:CE:9806, V-B:TYR:539:C:9838, V-B:ASP:366:CG:8183, V-B:TYR:539:CE2:9847, V-B:ASP:366:CB:8182, V-B:ILE:538:CG2:9834, V-B:MET:535:CG:9804, H-B:TYR:539:N:9841, V-B:PRO:540:CA:9854, V-B:PRO:540:CB:9856, V-B:ILE:538:CD1:9836, V-B:PRO:540:N:9855, V-B:GLU:543:CD:9879, V-A:ARG:545:CZ:4925, H-A:GLY:454:N:4049, H-A:TYR:484:OH:4347, H-A:ARG:545:NH1:4926, V-B:ILE:538:CA:9831, V-B:LEU:363:CB:8157, H-A:ARG:545:NE:4923, V-A:ARG:545:CG:4921, H-B:ALA:541:N:9862, V-A:HIS:456:CE1:4069, V-B:ILE:538:C:9829, V-B:ILE:538:CB:9833, H-B:ASP:366:OD1:8184, V-B:ASN:362:C:8142, V-B:ILE:538:CG1:9835, V-B:LEU:363:C:8153, V-B:TYR:531:CD2:9762, V-B:VAL:537:C:9821, V-B:LEU:363:CG:8158"]

$$$$
4bd_Grossjean_2025
     RDKit          3D

 24 26  0  0  0  0  0  0  0  0999 V2000
  128.6210  117.1720   76.7900 C   0  0  0  0  0  0  0  0  0  0  0  0
  128.7000  118.5070   76.0730 C   0  0  0  0  0  0  0  0  0  0  0  0
  127.9980  118.7300   74.8920 C   0  0  0  0  0  0  0  0  0  0  0  0
  128.0820  119.9690   74.2370 C   0  0  0  0  0  0  0  0  0  0  0  0
  127.2940  120.1670   72.9380 C   0  0  0  0  0  0  0  0  0  0  0  0
  128.0610  120.5500   71.9150 F   0  0  0  0  0  0  0  0  0  0  0  0
  126.7040  119.0240   72.5890 F   0  0  0  0  0  0  0  0  0  0  0  0
  126.3650  121.1070   73.1120 F   0  0  0  0  0  0  0  0  0  0  0  0
  128.9070  120.9680   74.8340 C   0  0  0  0  0  0  0  0  0  0  0  0
  129.2310  122.3240   74.4640 C   0  0  0  0  0  0  0  0  0  0  0  0
  128.7210  122.9260   73.3430 N   0  0  0  0  0  0  0  0  0  0  0  0
  130.1110  122.9670   75.3510 C   0  0  0  0  0  0  0  0  0  0  0  0
  130.6560  124.3260   75.2720 C   0  0  0  0  0  0  0  0  0  0  0  0
  129.9250  125.2820   75.0160 O   0  0  0  0  0  0  0  0  0  0  0  0
  131.9870  124.4320   75.5110 N   0  0  0  0  0  0  0  0  0  0  0  0
  132.8150  125.5700   75.4720 C   0  0  0  0  0  0  0  0  0  0  0  0
  134.1010  125.4090   75.9960 C   0  0  0  0  0  0  0  0  0  0  0  0
  134.9980  126.4740   75.9940 C   0  0  0  0  0  0  0  0  0  0  0  0
  134.6130  127.7000   75.4600 C   0  0  0  0  0  0  0  0  0  0  0  0
  133.3390  127.8690   74.9230 C   0  0  0  0  0  0  0  0  0  0  0  0
  132.4390  126.8070   74.9230 C   0  0  0  0  0  0  0  0  0  0  0  0
  130.5610  121.9060   76.6840 S   0  0  0  0  0  0  0  0  0  0  0  0
  129.5740  120.6110   76.0460 C   0  0  0  0  0  0  0  0  0  0  0  0
  129.4900  119.4330   76.6630 N   0  0  0  0  0  0  0  0  0  0  0  0
  1  2  1  0
  2  3  2  0
  3  4  1  0
  4  5  1  0
  5  6  1  0
  5  7  1  0
  5  8  1  0
  4  9  2  0
  9 10  1  0
 10 11  1  0
 10 12  2  0
 12 13  1  0
 13 14  2  0
 13 15  1  0
 15 16  1  0
 16 17  2  0
 17 18  1  0
 18 19  2  0
 19 20  1  0
 20 21  2  0
 12 22  1  0
 22 23  1  0
 23 24  2  0
 24  2  1  0
 23  9  1  0
 21 16  1  0
M  END
>  <Binding energies>  (27) 
[-6.61]

>  <Ligand effiencies>  (27) 
[-0.24481481481481482]

>  <Interactions>  (27) 
["V-B:GLU:543:CA:9875, V-A:VAL:458:CG2:4086, V-B:GLU:543:C:9873, V-A:VAL:457:C:4072, V-B:GLY:544:CA:9885, V-A:HIS:456:CG:4065, V-A:HIS:456:CB:4064, V-A:HIS:456:C:4060, H-B:GLU:543:O:9874, V-A:TYR:484:CD2:4343, H-B:LYS:547:NZ:9922, V-A:ASP:473:CG:4239, V-A:TYR:484:CB:4340, V-A:TYR:484:CG:4341, V-A:VAL:457:CA:4074, H-A:ASP:473:OD2:4241, V-A:TYR:484:C:4336, V-A:TYR:484:CA:4338"]

$$$$
4be_Grossjean_2025
     RDKit          3D

 25 27  0  0  0  0  0  0  0  0999 V2000
  126.4670  122.0480   55.0590 C   0  0  0  0  0  0  0  0  0  0  0  0
  126.0840  122.6110   56.4140 C   0  0  0  0  0  0  0  0  0  0  0  0
  124.7820  123.0380   56.6860 C   0  0  0  0  0  0  0  0  0  0  0  0
  124.5020  123.5480   57.9550 C   0  0  0  0  0  0  0  0  0  0  0  0
  125.5190  123.6190   58.9090 C   0  0  0  0  0  0  0  0  0  0  0  0
  126.8000  123.1680   58.5730 C   0  0  0  0  0  0  0  0  0  0  0  0
  127.7800  123.2720   59.5760 N   0  0  0  0  0  0  0  0  0  0  0  0
  127.6450  123.1240   60.9180 C   0  0  0  0  0  0  0  0  0  0  0  0
  126.5790  122.8540   61.4740 O   0  0  0  0  0  0  0  0  0  0  0  0
  128.8680  123.3290   61.6990 C   0  0  0  0  0  0  0  0  0  0  0  0
  129.0230  124.7380   62.7470 S   0  0  0  0  0  0  0  0  0  0  0  0
  130.6370  124.2630   63.2230 C   0  0  0  0  0  0  0  0  0  0  0  0
  131.3490  124.9900   64.0820 N   0  0  0  0  0  0  0  0  0  0  0  0
  132.5840  124.5200   64.3750 C   0  0  0  0  0  0  0  0  0  0  0  0
  133.3820  125.3630   65.3530 C   0  0  0  0  0  0  0  0  0  0  0  0
  133.1160  123.3520   63.8350 C   0  0  0  0  0  0  0  0  0  0  0  0
  132.3700  122.5820   62.9300 C   0  0  0  0  0  0  0  0  0  0  0  0
  132.9960  121.3020   62.3660 C   0  0  0  0  0  0  0  0  0  0  0  0
  132.1020  120.3340   62.1510 F   0  0  0  0  0  0  0  0  0  0  0  0
  133.5850  121.5650   61.1990 F   0  0  0  0  0  0  0  0  0  0  0  0
  133.9020  120.8280   63.2200 F   0  0  0  0  0  0  0  0  0  0  0  0
  131.0640  123.0520   62.5960 C   0  0  0  0  0  0  0  0  0  0  0  0
  130.0340  122.5470   61.7220 C   0  0  0  0  0  0  0  0  0  0  0  0
  130.1830  121.4000   60.9860 N   0  0  0  0  0  0  0  0  0  0  0  0
  127.0830  122.6730   57.3320 N   0  0  0  0  0  0  0  0  0  0  0  0
  1  2  1  0
  2  3  2  0
  3  4  1  0
  4  5  2  0
  5  6  1  0
  6  7  1  0
  7  8  1  0
  8  9  2  0
  8 10  1  0
 10 11  1  0
 11 12  1  0
 12 13  2  0
 13 14  1  0
 14 15  1  0
 14 16  2  0
 16 17  1  0
 17 18  1  0
 18 19  1  0
 18 20  1  0
 18 21  1  0
 17 22  2  0
 22 23  1  0
 23 24  1  0
  6 25  2  0
 25  2  1  0
 23 10  2  0
 22 12  1  0
M  END
>  <Binding energies>  (28) 
[-6.65]

>  <Ligand effiencies>  (28) 
[-0.23750000000000002]

>  <Interactions>  (28) 
["V-B:LEU:363:CD1:8159, V-B:TYR:531:CZ:9765, V-B:TYR:531:CE2:9764, V-B:TYR:539:CD2:9845, V-B:MET:535:CE:9806, V-B:TYR:539:C:9838, V-B:TYR:539:CE2:9847, V-B:ILE:538:CG2:9834, V-B:MET:535:CG:9804, V-B:PRO:540:CA:9854, V-B:PRO:540:CB:9856, V-B:ILE:538:CD1:9836, V-B:PRO:540:N:9855, V-B:PRO:540:CD:9858, V-A:ARG:545:CZ:4925, V-A:ILE:369:CD1:3238, V-A:LEU:475:CD2:4258, V-A:SER:385:C:3404, V-A:ILE:369:CG2:3236, V-B:ILE:538:CA:9831, V-A:SER:385:CA:3406, V-A:SER:385:CB:3408, V-A:GLY:454:CA:4048, H-B:ALA:541:N:9862, H-B:TYR:539:O:9839, V-B:ILE:538:C:9829, V-B:ILE:538:CB:9833, V-B:VAL:537:C:9821"]

$$$$
4bg_Grossjean_2025
     RDKit          3D

 25 27  0  0  0  0  0  0  0  0999 V2000
  126.7100  122.0430   54.9820 C   0  0  0  0  0  0  0  0  0  0  0  0
  126.4530  122.5740   56.3810 C   0  0  0  0  0  0  0  0  0  0  0  0
  125.3090  123.3130   56.6690 C   0  0  0  0  0  0  0  0  0  0  0  0
  125.0860  123.8020   57.9660 C   0  0  0  0  0  0  0  0  0  0  0  0
  123.8130  124.6110   58.2350 C   0  0  0  0  0  0  0  0  0  0  0  0
  123.0000  124.6710   57.1780 F   0  0  0  0  0  0  0  0  0  0  0  0
  123.1280  124.0550   59.2350 F   0  0  0  0  0  0  0  0  0  0  0  0
  124.1330  125.8620   58.5640 F   0  0  0  0  0  0  0  0  0  0  0  0
  126.0730  123.5070   58.9520 C   0  0  0  0  0  0  0  0  0  0  0  0
  126.1920  123.8360   60.3520 C   0  0  0  0  0  0  0  0  0  0  0  0
  125.2580  124.5860   61.0200 N   0  0  0  0  0  0  0  0  0  0  0  0
  127.3400  123.3130   60.9670 C   0  0  0  0  0  0  0  0  0  0  0  0
  127.7870  123.4740   62.3500 C   0  0  0  0  0  0  0  0  0  0  0  0
  127.1580  124.1660   63.1530 O   0  0  0  0  0  0  0  0  0  0  0  0
  128.8990  122.7920   62.6950 N   0  0  0  0  0  0  0  0  0  0  0  0
  129.5350  122.8140   64.0120 C   0  0  0  0  0  0  0  0  0  0  0  0
  130.7970  123.6630   64.0650 C   0  0  0  0  0  0  0  0  0  0  0  0
  130.7810  124.9040   64.7110 C   0  0  0  0  0  0  0  0  0  0  0  0
  131.9470  125.6610   64.7920 C   0  0  0  0  0  0  0  0  0  0  0  0
  133.1280  125.1710   64.2400 C   0  0  0  0  0  0  0  0  0  0  0  0
  133.1560  123.9280   63.6100 C   0  0  0  0  0  0  0  0  0  0  0  0
  131.9900  123.1710   63.5280 C   0  0  0  0  0  0  0  0  0  0  0  0
  128.3350  122.4240   59.8170 S   0  0  0  0  0  0  0  0  0  0  0  0
  127.1970  122.7330   58.5280 C   0  0  0  0  0  0  0  0  0  0  0  0
  127.4040  122.2720   57.2940 N   0  0  0  0  0  0  0  0  0  0  0  0
  1  2  1  0
  2  3  2  0
  3  4  1  0
  4  5  1  0
  5  6  1  0
  5  7  1  0
  5  8  1  0
  4  9  2  0
  9 10  1  0
 10 11  1  0
 10 12  2  0
 12 13  1  0
 13 14  2  0
 13 15  1  0
 15 16  1  0
 16 17  1  0
 17 18  2  0
 18 19  1  0
 19 20  2  0
 20 21  1  0
 21 22  2  0
 12 23  1  0
 23 24  1  0
 24 25  2  0
 25  2  1  0
 24  9  1  0
 22 17  1  0
M  END
>  <Binding energies>  (29) 
[-6.78]

>  <Ligand effiencies>  (29) 
[-0.24214285714285716]

>  <Interactions>  (29) 
["V-B:LEU:363:CD1:8159, V-B:TYR:531:CZ:9765, V-B:LEU:363:CA:8155, V-B:TYR:531:CE2:9764, V-B:TYR:539:CD2:9845, V-B:MET:535:CE:9806, V-B:TYR:539:C:9838, V-B:TYR:539:CD1:9844, V-B:ASP:366:CG:8183, V-B:TYR:539:CE2:9847, V-B:ASP:366:CB:8182, V-B:MET:535:CG:9804, H-B:TYR:539:N:9841, V-B:PRO:540:CA:9854, V-B:PRO:540:CB:9856, V-B:ILE:538:CD1:9836, V-B:PRO:540:N:9855, V-A:ARG:545:CZ:4925, V-B:ALA:541:CB:9863, V-B:ILE:538:CA:9831, V-A:GLY:454:CA:4048, V-B:LEU:363:CB:8157, H-B:GLU:543:OE1:9880, V-B:ILE:538:C:9829, V-B:ILE:538:CB:9833, H-B:ASP:366:OD1:8184, V-B:ASN:362:C:8142, V-B:TYR:531:CD2:9762, V-B:VAL:537:C:9821, V-B:LEU:363:CG:8158"]

$$$$
4ca_Grossjean_2025
     RDKit          3D

 34 37  0  0  0  0  0  0  0  0999 V2000
  130.4380  132.9820   54.4830 C   0  0  0  0  0  0  0  0  0  0  0  0
  129.3730  133.6440   55.3610 C   0  0  0  0  0  0  0  0  0  0  0  0
  129.8820  133.8090   56.6780 O   0  0  0  0  0  0  0  0  0  0  0  0
  131.1490  133.4360   56.9930 C   0  0  0  0  0  0  0  0  0  0  0  0
  132.1370  134.1490   56.7930 O   0  0  0  0  0  0  0  0  0  0  0  0
  131.2280  132.0710   57.6120 C   0  0  0  0  0  0  0  0  0  0  0  0
  130.0920  131.2500   57.6070 C   0  0  0  0  0  0  0  0  0  0  0  0
  130.1350  129.9770   58.1690 C   0  0  0  0  0  0  0  0  0  0  0  0
  131.3090  129.5020   58.7530 C   0  0  0  0  0  0  0  0  0  0  0  0
  131.2440  128.1980   59.2820 N   0  0  0  0  0  0  0  0  0  0  0  0
  130.1780  127.4910   59.7320 C   0  0  0  0  0  0  0  0  0  0  0  0
  129.0160  127.8970   59.6990 O   0  0  0  0  0  0  0  0  0  0  0  0
  130.4880  126.1620   60.2630 C   0  0  0  0  0  0  0  0  0  0  0  0
  130.2710  124.7330   59.2560 S   0  0  0  0  0  0  0  0  0  0  0  0
  130.8630  123.6910   60.5280 C   0  0  0  0  0  0  0  0  0  0  0  0
  130.9510  122.3740   60.3610 N   0  0  0  0  0  0  0  0  0  0  0  0
  131.4360  121.6470   61.4010 C   0  0  0  0  0  0  0  0  0  0  0  0
  131.5330  120.1650   61.1780 C   0  0  0  0  0  0  0  0  0  0  0  0
  130.4920  119.3090   61.5710 C   0  0  0  0  0  0  0  0  0  0  0  0
  130.5790  117.9330   61.3720 C   0  0  0  0  0  0  0  0  0  0  0  0
  131.7130  117.3920   60.7760 C   0  0  0  0  0  0  0  0  0  0  0  0
  132.7600  118.2170   60.3790 C   0  0  0  0  0  0  0  0  0  0  0  0
  132.6700  119.5920   60.5800 C   0  0  0  0  0  0  0  0  0  0  0  0
  131.8080  122.2440   62.6100 C   0  0  0  0  0  0  0  0  0  0  0  0
  131.7140  123.6310   62.7980 C   0  0  0  0  0  0  0  0  0  0  0  0
  132.1420  124.2190   64.1480 C   0  0  0  0  0  0  0  0  0  0  0  0
  133.0550  125.1850   64.0320 F   0  0  0  0  0  0  0  0  0  0  0  0
  131.0850  124.7420   64.7680 F   0  0  0  0  0  0  0  0  0  0  0  0
  132.6710  123.2620   64.9100 F   0  0  0  0  0  0  0  0  0  0  0  0
  131.2230  124.4050   61.7080 C   0  0  0  0  0  0  0  0  0  0  0  0
  131.0000  125.8190   61.5260 C   0  0  0  0  0  0  0  0  0  0  0  0
  131.2650  126.7420   62.5050 N   0  0  0  0  0  0  0  0  0  0  0  0
  132.4530  130.3130   58.7580 C   0  0  0  0  0  0  0  0  0  0  0  0
  132.4090  131.5850   58.1930 C   0  0  0  0  0  0  0  0  0  0  0  0
  1  2  1  0
  2  3  1  0
  3  4  1  0
  4  5  2  0
  4  6  1  0
  6  7  2  0
  7  8  1  0
  8  9  2  0
  9 10  1  0
 10 11  1  0
 11 12  2  0
 11 13  1  0
 13 14  1  0
 14 15  1  0
 15 16  2  0
 16 17  1  0
 17 18  1  0
 18 19  2  0
 19 20  1  0
 20 21  2  0
 21 22  1  0
 22 23  2  0
 17 24  2  0
 24 25  1  0
 25 26  1  0
 26 27  1  0
 26 28  1  0
 26 29  1  0
 25 30  2  0
 30 31  1  0
 31 32  1  0
  9 33  1  0
 33 34  2  0
 34  6  1  0
 31 13  2  0
 30 15  1  0
 23 18  1  0
M  END
>  <Binding energies>  (30) 
[-8.86]

>  <Ligand effiencies>  (30) 
[-0.23945945945945946]

>  <Interactions>  (30) 
["V-A:TYR:539:CZ:4876, V-A:TYR:539:CD1:4872, V-A:TYR:539:C:4866, V-A:MET:535:CB:4831, V-A:ASP:366:CG:3212, V-A:MET:535:CG:4832, V-A:TYR:531:CE2:4792, V-A:PRO:540:N:4883, V-B:TYR:539:CD2:9845, V-A:PRO:540:CA:4882, V-A:TYR:539:CE1:4874, V-B:TYR:539:CE2:9847, H-A:TYR:539:N:4869, V-A:PRO:540:CD:4886, V-A:TYR:539:CG:4871, V-A:ILE:538:CB:4861, H-A:ASP:366:OD1:3213, V-A:ARG:545:CZ:4925, H-A:ASP:366:OD2:3214, V-A:LEU:475:CD2:4258, V-B:ALA:541:CB:9863, V-A:HIS:383:CE1:3393, V-A:SER:385:CA:3406, V-A:SER:385:CB:3408, V-A:GLY:454:CA:4048, H-A:GLU:543:OE2:4909, V-A:TYR:484:CZ:4346, V-A:ASP:366:CB:3211, V-A:ILE:538:CA:4859, V-A:TYR:539:CE2:4875, V-A:ILE:538:CG2:4862, V-A:TYR:539:CD2:4873, V-A:PRO:482:CG:4326, V-A:PRO:482:CB:4325"]

$$$$
4cb_Grossjean_2025
     RDKit          3D

 33 36  0  0  0  0  0  0  0  0999 V2000
  129.5790  133.4430   55.0980 C   0  0  0  0  0  0  0  0  0  0  0  0
  129.9180  133.6840   56.4560 O   0  0  0  0  0  0  0  0  0  0  0  0
  131.1550  133.3850   56.9310 C   0  0  0  0  0  0  0  0  0  0  0  0
  132.1210  134.1500   56.8460 O   0  0  0  0  0  0  0  0  0  0  0  0
  131.2320  132.0290   57.5740 C   0  0  0  0  0  0  0  0  0  0  0  0
  130.1020  131.2010   57.5610 C   0  0  0  0  0  0  0  0  0  0  0  0
  130.1440  129.9360   58.1410 C   0  0  0  0  0  0  0  0  0  0  0  0
  131.3120  129.4760   58.7500 C   0  0  0  0  0  0  0  0  0  0  0  0
  131.2480  128.1780   59.2910 N   0  0  0  0  0  0  0  0  0  0  0  0
  130.1890  127.4880   59.7800 C   0  0  0  0  0  0  0  0  0  0  0  0
  129.0310  127.9070   59.7820 O   0  0  0  0  0  0  0  0  0  0  0  0
  130.5000  126.1570   60.3090 C   0  0  0  0  0  0  0  0  0  0  0  0
  130.2780  124.7280   59.3020 S   0  0  0  0  0  0  0  0  0  0  0  0
  130.8730  123.6840   60.5720 C   0  0  0  0  0  0  0  0  0  0  0  0
  130.9590  122.3670   60.4060 N   0  0  0  0  0  0  0  0  0  0  0  0
  131.4430  121.6390   61.4460 C   0  0  0  0  0  0  0  0  0  0  0  0
  131.5330  120.1570   61.2260 C   0  0  0  0  0  0  0  0  0  0  0  0
  130.4860  119.3080   61.6190 C   0  0  0  0  0  0  0  0  0  0  0  0
  130.5640  117.9320   61.4220 C   0  0  0  0  0  0  0  0  0  0  0  0
  131.6950  117.3830   60.8270 C   0  0  0  0  0  0  0  0  0  0  0  0
  132.7490  118.2010   60.4310 C   0  0  0  0  0  0  0  0  0  0  0  0
  132.6670  119.5750   60.6320 C   0  0  0  0  0  0  0  0  0  0  0  0
  131.8180  122.2370   62.6540 C   0  0  0  0  0  0  0  0  0  0  0  0
  131.7280  123.6240   62.8410 C   0  0  0  0  0  0  0  0  0  0  0  0
  132.1590  124.2140   64.1900 C   0  0  0  0  0  0  0  0  0  0  0  0
  133.0260  125.2210   64.0670 F   0  0  0  0  0  0  0  0  0  0  0  0
  131.0920  124.6830   64.8360 F   0  0  0  0  0  0  0  0  0  0  0  0
  132.7430  123.2710   64.9290 F   0  0  0  0  0  0  0  0  0  0  0  0
  131.2370  124.3990   61.7500 C   0  0  0  0  0  0  0  0  0  0  0  0
  131.0180  125.8130   61.5690 C   0  0  0  0  0  0  0  0  0  0  0  0
  131.2920  126.7360   62.5460 N   0  0  0  0  0  0  0  0  0  0  0  0
  132.4500  130.2970   58.7640 C   0  0  0  0  0  0  0  0  0  0  0  0
  132.4060  131.5610   58.1820 C   0  0  0  0  0  0  0  0  0  0  0  0
  1  2  1  0
  2  3  1  0
  3  4  2  0
  3  5  1  0
  5  6  2  0
  6  7  1  0
  7  8  2  0
  8  9  1  0
  9 10  1  0
 10 11  2  0
 10 12  1  0
 12 13  1  0
 13 14  1  0
 14 15  2  0
 15 16  1  0
 16 17  1  0
 17 18  2  0
 18 19  1  0
 19 20  2  0
 20 21  1  0
 21 22  2  0
 16 23  2  0
 23 24  1  0
 24 25  1  0
 25 26  1  0
 25 27  1  0
 25 28  1  0
 24 29  2  0
 29 30  1  0
 30 31  1  0
  8 32  1  0
 32 33  2  0
 33  5  1  0
 30 12  2  0
 29 14  1  0
 22 17  1  0
M  END
>  <Binding energies>  (31) 
[-8.53]

>  <Ligand effiencies>  (31) 
[-0.23694444444444443]

>  <Interactions>  (31) 
["V-A:TYR:539:CZ:4876, V-A:TYR:539:C:4866, V-A:ASP:366:CG:3212, V-A:PRO:540:N:4883, V-B:TYR:539:CD2:9845, V-A:PRO:540:CA:4882, V-A:TYR:539:CE1:4874, V-B:TYR:539:CE2:9847, H-A:TYR:539:N:4869, V-A:PRO:540:CD:4886, H-A:ASP:366:OD1:3213, V-A:ARG:545:CZ:4925, H-A:ASP:366:OD2:3214, V-A:LEU:475:CD2:4258, V-B:ALA:541:CB:9863, V-A:HIS:383:CE1:3393, V-A:SER:385:CA:3406, V-A:SER:385:CB:3408, V-A:GLY:454:CA:4048, H-A:GLU:543:OE2:4909, V-A:TYR:484:CZ:4346, V-A:ASP:366:CB:3211, V-A:ILE:538:CA:4859, V-A:TYR:539:CE2:4875, V-A:PRO:482:CG:4326, V-A:PRO:482:CB:4325"]

$$$$
4cc_Grossjean_2025
     RDKit          3D

 31 34  0  0  0  0  0  0  0  0999 V2000
  130.4230  133.7250   55.5290 C   0  0  0  0  0  0  0  0  0  0  0  0
  130.8960  133.6370   56.8680 O   0  0  0  0  0  0  0  0  0  0  0  0
  131.0500  132.3930   57.4480 C   0  0  0  0  0  0  0  0  0  0  0  0
  129.9530  131.5350   57.3810 C   0  0  0  0  0  0  0  0  0  0  0  0
  130.0150  130.2590   57.9360 C   0  0  0  0  0  0  0  0  0  0  0  0
  131.1770  129.8280   58.5790 C   0  0  0  0  0  0  0  0  0  0  0  0
  131.1520  128.5190   59.0950 N   0  0  0  0  0  0  0  0  0  0  0  0
  130.1750  127.5840   59.0120 C   0  0  0  0  0  0  0  0  0  0  0  0
  129.1180  127.7450   58.4010 O   0  0  0  0  0  0  0  0  0  0  0  0
  130.4490  126.3240   59.7100 C   0  0  0  0  0  0  0  0  0  0  0  0
  130.3980  124.7950   58.8350 S   0  0  0  0  0  0  0  0  0  0  0  0
  130.8130  123.9030   60.2790 C   0  0  0  0  0  0  0  0  0  0  0  0
  130.9390  122.5780   60.2650 N   0  0  0  0  0  0  0  0  0  0  0  0
  131.2740  121.9730   61.4340 C   0  0  0  0  0  0  0  0  0  0  0  0
  131.4060  120.4790   61.3880 C   0  0  0  0  0  0  0  0  0  0  0  0
  130.3190  119.6510   61.7130 C   0  0  0  0  0  0  0  0  0  0  0  0
  130.4350  118.2640   61.6750 C   0  0  0  0  0  0  0  0  0  0  0  0
  131.6440  117.6820   61.3100 C   0  0  0  0  0  0  0  0  0  0  0  0
  132.7380  118.4790   60.9870 C   0  0  0  0  0  0  0  0  0  0  0  0
  132.6180  119.8650   61.0280 C   0  0  0  0  0  0  0  0  0  0  0  0
  131.4640  122.6990   62.6140 C   0  0  0  0  0  0  0  0  0  0  0  0
  131.3310  124.0970   62.6400 C   0  0  0  0  0  0  0  0  0  0  0  0
  131.5590  124.8300   63.9670 C   0  0  0  0  0  0  0  0  0  0  0  0
  131.7320  124.0020   65.0010 F   0  0  0  0  0  0  0  0  0  0  0  0
  132.6500  125.5910   63.8800 F   0  0  0  0  0  0  0  0  0  0  0  0
  130.5070  125.6000   64.2440 F   0  0  0  0  0  0  0  0  0  0  0  0
  130.9890  124.7430   61.4180 C   0  0  0  0  0  0  0  0  0  0  0  0
  130.7700  126.1230   61.0620 C   0  0  0  0  0  0  0  0  0  0  0  0
  130.8710  127.1470   61.9700 N   0  0  0  0  0  0  0  0  0  0  0  0
  132.2900  130.6810   58.6390 C   0  0  0  0  0  0  0  0  0  0  0  0
  132.2230  131.9550   58.0820 C   0  0  0  0  0  0  0  0  0  0  0  0
  1  2  1  0
  2  3  1  0
  3  4  2  0
  4  5  1  0
  5  6  2  0
  6  7  1  0
  7  8  1  0
  8  9  2  0
  8 10  1  0
 10 11  1  0
 11 12  1  0
 12 13  2  0
 13 14  1  0
 14 15  1  0
 15 16  2  0
 16 17  1  0
 17 18  2  0
 18 19  1  0
 19 20  2  0
 14 21  2  0
 21 22  1  0
 22 23  1  0
 23 24  1  0
 23 25  1  0
 23 26  1  0
 22 27  2  0
 27 28  1  0
 28 29  1  0
  6 30  1  0
 30 31  2  0
 31  3  1  0
 28 10  2  0
 27 12  1  0
 20 15  1  0
M  END
>  <Binding energies>  (32) 
[-7.41]

>  <Ligand effiencies>  (32) 
[-0.21794117647058825]

>  <Interactions>  (32) 
["V-A:PRO:540:CB:4884, V-B:TYR:539:CZ:9848, V-A:ASP:366:CG:3212, V-B:TYR:539:CD2:9845, V-B:TYR:539:CE2:9847, H-A:TYR:539:N:4869, V-A:ILE:538:CB:4861, V-A:ARG:545:CZ:4925, H-A:ASP:366:OD2:3214, V-A:LEU:475:CD2:4258, V-B:ALA:541:CB:9863, V-A:HIS:383:CE1:3393, V-A:SER:385:CA:3406, V-A:SER:385:CB:3408, H-A:GLU:543:OE2:4909, V-A:TYR:484:CZ:4346, V-A:ASP:366:CB:3211, V-A:ILE:538:C:4857, V-A:ILE:538:CA:4859, V-A:ILE:538:CG2:4862, V-A:PRO:482:CG:4326, V-A:PRO:482:CB:4325"]

$$$$
4ce_Grossjean_2025
     RDKit          3D

 30 33  0  0  0  0  0  0  0  0999 V2000
  135.4750  125.7960   66.9750 C   0  0  0  0  0  0  0  0  0  0  0  0
  133.9710  125.9410   66.8370 C   0  0  0  0  0  0  0  0  0  0  0  0
  133.1890  126.4630   67.8710 C   0  0  0  0  0  0  0  0  0  0  0  0
  131.8120  126.5750   67.6700 C   0  0  0  0  0  0  0  0  0  0  0  0
  131.2570  126.1680   66.4560 C   0  0  0  0  0  0  0  0  0  0  0  0
  132.0970  125.6480   65.4650 C   0  0  0  0  0  0  0  0  0  0  0  0
  131.4820  125.2780   64.2550 N   0  0  0  0  0  0  0  0  0  0  0  0
  130.9230  124.0890   63.9160 C   0  0  0  0  0  0  0  0  0  0  0  0
  130.8610  123.1200   64.6750 O   0  0  0  0  0  0  0  0  0  0  0  0
  130.3780  124.0140   62.5590 C   0  0  0  0  0  0  0  0  0  0  0  0
  128.8500  123.1890   62.2610 S   0  0  0  0  0  0  0  0  0  0  0  0
  128.9190  123.5790   60.5600 C   0  0  0  0  0  0  0  0  0  0  0  0
  127.9580  123.2000   59.7210 N   0  0  0  0  0  0  0  0  0  0  0  0
  128.0910  123.5620   58.4180 C   0  0  0  0  0  0  0  0  0  0  0  0
  126.9880  123.1240   57.5010 C   0  0  0  0  0  0  0  0  0  0  0  0
  127.2780  122.4530   56.3020 C   0  0  0  0  0  0  0  0  0  0  0  0
  126.2600  122.0500   55.4420 C   0  0  0  0  0  0  0  0  0  0  0  0
  124.9340  122.3110   55.7710 C   0  0  0  0  0  0  0  0  0  0  0  0
  124.6200  122.9750   56.9510 C   0  0  0  0  0  0  0  0  0  0  0  0
  125.6410  123.3790   57.8080 C   0  0  0  0  0  0  0  0  0  0  0  0
  129.1980  124.2850   57.9610 C   0  0  0  0  0  0  0  0  0  0  0  0
  130.2210  124.6850   58.8360 C   0  0  0  0  0  0  0  0  0  0  0  0
  131.4040  125.4750   58.2690 C   0  0  0  0  0  0  0  0  0  0  0  0
  131.2760  125.7500   56.9690 F   0  0  0  0  0  0  0  0  0  0  0  0
  131.5200  126.6380   58.9120 F   0  0  0  0  0  0  0  0  0  0  0  0
  132.5280  124.7750   58.4210 F   0  0  0  0  0  0  0  0  0  0  0  0
  130.0830  124.3230   60.2080 C   0  0  0  0  0  0  0  0  0  0  0  0
  130.9010  124.5560   61.3730 C   0  0  0  0  0  0  0  0  0  0  0  0
  132.0840  125.2480   61.3220 N   0  0  0  0  0  0  0  0  0  0  0  0
  133.4450  125.5400   65.6510 N   0  0  0  0  0  0  0  0  0  0  0  0
  1  2  1  0
  2  3  2  0
  3  4  1  0
  4  5  2  0
  5  6  1  0
  6  7  1  0
  7  8  1  0
  8  9  2  0
  8 10  1  0
 10 11  1  0
 11 12  1  0
 12 13  2  0
 13 14  1  0
 14 15  1  0
 15 16  2  0
 16 17  1  0
 17 18  2  0
 18 19  1  0
 19 20  2  0
 14 21  2  0
 21 22  1  0
 22 23  1  0
 23 24  1  0
 23 25  1  0
 23 26  1  0
 22 27  2  0
 27 28  1  0
 28 29  1  0
  6 30  2  0
 30  2  1  0
 28 10  2  0
 27 12  1  0
 20 15  1  0
M  END
>  <Binding energies>  (33) 
[-7.96]

>  <Ligand effiencies>  (33) 
[-0.2412121212121212]

>  <Interactions>  (33) 
["V-B:LEU:363:CD1:8159, V-B:TYR:539:CZ:9848, V-B:TYR:531:CE2:9764, V-A:ASP:366:CG:3212, V-B:MET:535:CE:9806, V-B:TYR:539:CE1:9846, V-B:TYR:539:C:9838, V-B:TYR:539:CD1:9844, V-B:TYR:539:CG:9843, V-B:TYR:539:CE2:9847, V-B:ILE:538:CG2:9834, V-B:MET:535:CG:9804, V-B:PRO:540:CA:9854, V-B:PRO:540:CB:9856, V-B:ILE:538:CD1:9836, V-B:PRO:540:N:9855, V-B:PRO:540:CD:9858, H-A:ASP:366:OD1:3213, V-A:ARG:545:CZ:4925, H-A:GLY:454:N:4049, H-A:TYR:484:OH:4347, V-A:ARG:545:CD:4922, H-A:ASP:366:OD2:3214, V-B:ILE:538:CA:9831, V-A:ILE:455:C:4051, V-A:GLY:454:CA:4048, H-A:ARG:545:NE:4923, V-A:ARG:545:CG:4921, V-A:GLY:453:C:4041, V-A:ASP:366:CB:3211, V-A:HIS:456:CE1:4069, V-A:GLY:453:CA:4043, V-B:ILE:538:C:9829, V-B:ILE:538:CB:9833, V-A:ARG:545:CB:4920"]

$$$$
4cf_Grossjean_2025
     RDKit          3D

 29 32  0  0  0  0  0  0  0  0999 V2000
  131.1530  129.3120   61.9910 N   0  0  0  0  0  0  0  0  0  0  0  0
  130.0880  130.0710   62.4040 C   0  0  0  0  0  0  0  0  0  0  0  0
  129.7990  131.3410   61.8810 C   0  0  0  0  0  0  0  0  0  0  0  0
  130.5400  132.1040   60.8730 C   0  0  0  0  0  0  0  0  0  0  0  0
  131.3960  132.9230   61.2110 O   0  0  0  0  0  0  0  0  0  0  0  0
  130.2200  131.8290   59.5850 N   0  0  0  0  0  0  0  0  0  0  0  0
  130.7010  132.4110   58.3960 C   0  0  0  0  0  0  0  0  0  0  0  0
  132.0320  132.3570   57.9400 C   0  0  0  0  0  0  0  0  0  0  0  0
  132.3790  132.9920   56.7460 C   0  0  0  0  0  0  0  0  0  0  0  0
  131.3870  133.6680   56.0350 C   0  0  0  0  0  0  0  0  0  0  0  0
  130.0990  133.7410   56.4560 N   0  0  0  0  0  0  0  0  0  0  0  0
  129.7770  133.1200   57.6200 C   0  0  0  0  0  0  0  0  0  0  0  0
  128.3600  132.0270   62.6330 S   0  0  0  0  0  0  0  0  0  0  0  0
  128.1620  130.6160   63.6450 C   0  0  0  0  0  0  0  0  0  0  0  0
  127.1640  130.5240   64.5220 N   0  0  0  0  0  0  0  0  0  0  0  0
  127.1030  129.3950   65.2760 C   0  0  0  0  0  0  0  0  0  0  0  0
  125.9710  129.3220   66.2600 C   0  0  0  0  0  0  0  0  0  0  0  0
  126.1740  128.8070   67.5490 C   0  0  0  0  0  0  0  0  0  0  0  0
  125.1310  128.7370   68.4690 C   0  0  0  0  0  0  0  0  0  0  0  0
  123.8650  129.1860   68.1090 C   0  0  0  0  0  0  0  0  0  0  0  0
  123.6360  129.7060   66.8390 C   0  0  0  0  0  0  0  0  0  0  0  0
  124.6820  129.7740   65.9240 C   0  0  0  0  0  0  0  0  0  0  0  0
  128.0270  128.3560   65.1290 C   0  0  0  0  0  0  0  0  0  0  0  0
  129.0800  128.4420   64.2050 C   0  0  0  0  0  0  0  0  0  0  0  0
  130.0610  127.2680   64.1000 C   0  0  0  0  0  0  0  0  0  0  0  0
  130.1350  126.5450   65.2200 F   0  0  0  0  0  0  0  0  0  0  0  0
  129.6800  126.4490   63.1200 F   0  0  0  0  0  0  0  0  0  0  0  0
  131.2860  127.7250   63.8410 F   0  0  0  0  0  0  0  0  0  0  0  0
  129.1660  129.6290   63.4220 C   0  0  0  0  0  0  0  0  0  0  0  0
  1  2  1  0
  2  3  2  0
  3  4  1  0
  4  5  2  0
  4  6  1  0
  6  7  1  0
  7  8  2  0
  8  9  1  0
  9 10  2  0
 10 11  1  0
 11 12  2  0
  3 13  1  0
 13 14  1  0
 14 15  2  0
 15 16  1  0
 16 17  1  0
 17 18  2  0
 18 19  1  0
 19 20  2  0
 20 21  1  0
 21 22  2  0
 16 23  2  0
 23 24  1  0
 24 25  1  0
 25 26  1  0
 25 27  1  0
 25 28  1  0
 24 29  2  0
 29  2  1  0
 12  7  1  0
 29 14  1  0
 22 17  1  0
M  END
>  <Binding energies>  (34) 
[-7.59]

>  <Ligand effiencies>  (34) 
[-0.2371875]

>  <Interactions>  (34) 
["V-A:PRO:540:CB:4884, V-A:TYR:539:CD1:4872, V-A:TYR:539:C:4866, V-A:TYR:531:CE2:4792, V-A:LEU:363:CD1:3188, V-A:PRO:540:N:4883, V-A:PRO:540:CA:4882, V-A:TYR:539:CE1:4874, V-B:GLY:453:C:9012, H-A:TYR:539:N:4869, V-A:PRO:540:CD:4886, V-A:ILE:538:CB:4861, V-B:GLU:543:CD:9879, V-A:ARG:545:CZ:4925, H-A:ASP:366:OD2:3214, H-A:GLU:543:OE2:4909, H-A:GLU:543:OE1:4908, V-A:GLU:543:CD:4907, H-A:ALA:541:N:4890, V-A:ILE:538:CA:4859, V-A:ILE:538:CG2:4862, V-B:HIS:456:CE1:9040, V-B:ARG:545:CG:9893, V-B:ARG:545:CD:9894, V-B:GLY:454:CA:9019, V-B:ARG:545:CB:9892, V-B:ILE:455:C:9022"]

$$$$
4ci_Grossjean_2025
     RDKit          3D

 28 31  0  0  0  0  0  0  0  0999 V2000
  128.9470  124.3950   63.8820 N   0  0  0  0  0  0  0  0  0  0  0  0
  129.3850  123.9980   62.6450 C   0  0  0  0  0  0  0  0  0  0  0  0
  130.7390  123.7820   62.3410 C   0  0  0  0  0  0  0  0  0  0  0  0
  131.9040  123.9100   63.2210 C   0  0  0  0  0  0  0  0  0  0  0  0
  132.7640  123.0270   63.2570 O   0  0  0  0  0  0  0  0  0  0  0  0
  131.9450  125.0370   63.9740 N   0  0  0  0  0  0  0  0  0  0  0  0
  132.9240  125.4080   64.8880 C   0  0  0  0  0  0  0  0  0  0  0  0
  132.6360  125.8220   66.1880 C   0  0  0  0  0  0  0  0  0  0  0  0
  133.8580  126.0970   66.7550 C   0  0  0  0  0  0  0  0  0  0  0  0
  134.8330  125.8600   65.8440 O   0  0  0  0  0  0  0  0  0  0  0  0
  134.2270  125.4240   64.6650 N   0  0  0  0  0  0  0  0  0  0  0  0
  130.9420  123.2710   60.6670 S   0  0  0  0  0  0  0  0  0  0  0  0
  129.2190  123.3600   60.3830 C   0  0  0  0  0  0  0  0  0  0  0  0
  128.6940  123.0660   59.1970 N   0  0  0  0  0  0  0  0  0  0  0  0
  127.3440  123.1600   59.0720 C   0  0  0  0  0  0  0  0  0  0  0  0
  126.7820  122.8260   57.7200 C   0  0  0  0  0  0  0  0  0  0  0  0
  127.6140  122.3600   56.6890 C   0  0  0  0  0  0  0  0  0  0  0  0
  127.0980  122.0470   55.4340 C   0  0  0  0  0  0  0  0  0  0  0  0
  125.7370  122.2000   55.1900 C   0  0  0  0  0  0  0  0  0  0  0  0
  124.8910  122.6640   56.1910 C   0  0  0  0  0  0  0  0  0  0  0  0
  125.4110  122.9760   57.4440 C   0  0  0  0  0  0  0  0  0  0  0  0
  126.5330  123.5670   60.1360 C   0  0  0  0  0  0  0  0  0  0  0  0
  127.0760  123.8800   61.3930 C   0  0  0  0  0  0  0  0  0  0  0  0
  126.1270  124.3180   62.5140 C   0  0  0  0  0  0  0  0  0  0  0  0
  124.8400  124.2490   62.1690 F   0  0  0  0  0  0  0  0  0  0  0  0
  126.2970  123.5340   63.5780 F   0  0  0  0  0  0  0  0  0  0  0  0
  126.3830  125.5820   62.8530 F   0  0  0  0  0  0  0  0  0  0  0  0
  128.4890  123.7710   61.5360 C   0  0  0  0  0  0  0  0  0  0  0  0
  1  2  1  0
  2  3  2  0
  3  4  1  0
  4  5  2  0
  4  6  1  0
  6  7  1  0
  7  8  1  0
  8  9  2  0
  9 10  1  0
 10 11  1  0
  3 12  1  0
 12 13  1  0
 13 14  2  0
 14 15  1  0
 15 16  1  0
 16 17  2  0
 17 18  1  0
 18 19  2  0
 19 20  1  0
 20 21  2  0
 15 22  2  0
 22 23  1  0
 23 24  1  0
 24 25  1  0
 24 26  1  0
 24 27  1  0
 23 28  2  0
 28  2  1  0
 11  7  2  0
 28 13  1  0
 21 16  1  0
M  END
>  <Binding energies>  (35) 
[-7.79]

>  <Ligand effiencies>  (35) 
[-0.25129032258064515]

>  <Interactions>  (35) 
["V-B:LEU:363:CD1:8159, V-B:TYR:531:CZ:9765, V-B:TYR:539:CZ:9848, V-B:TYR:531:CE2:9764, V-B:TYR:539:CD2:9845, V-B:MET:535:CE:9806, V-B:TYR:539:CE1:9846, V-B:TYR:539:C:9838, V-B:TYR:539:CA:9840, V-B:TYR:539:CD1:9844, V-B:TYR:539:CG:9843, V-B:TYR:539:CE2:9847, V-B:ILE:538:CG2:9834, V-B:MET:535:CG:9804, V-B:PRO:540:CA:9854, V-B:PRO:540:CB:9856, V-B:ARG:545:CZ:9897, V-B:ILE:538:CD1:9836, V-B:PRO:540:N:9855, V-B:PRO:540:CD:9858, V-B:GLU:543:CD:9879, V-A:ARG:545:CZ:4925, H-A:GLY:454:N:4049, H-A:ARG:545:NH1:4926, V-B:ALA:541:C:9859, H-A:ARG:545:NH2:4927, V-A:ARG:545:CD:4922, V-B:GLU:543:CG:9878, V-B:ILE:538:CA:9831, H-A:ARG:545:NE:4923, V-A:ARG:545:CG:4921, V-B:ALA:541:CA:9861, H-B:GLU:543:OE2:9881, H-B:GLU:543:OE1:9880, V-B:ILE:538:C:9829, V-B:ILE:538:CB:9833, V-B:ILE:538:CG1:9835"]

$$$$
8a_Ghoteimi_2023
     RDKit          3D

 40 44  0  0  0  0  0  0  0  0999 V2000
  128.9930  132.4070   55.1210 C   0  0  0  0  0  0  0  0  0  0  0  0
  130.2290  133.2940   54.9450 C   0  0  0  0  0  0  0  0  0  0  0  0
  130.4900  133.9870   56.1590 O   0  0  0  0  0  0  0  0  0  0  0  0
  131.5600  133.6650   56.9330 C   0  0  0  0  0  0  0  0  0  0  0  0
  132.7190  133.9900   56.6600 O   0  0  0  0  0  0  0  0  0  0  0  0
  131.1910  132.8680   58.1520 C   0  0  0  0  0  0  0  0  0  0  0  0
  132.1840  132.1400   58.8180 C   0  0  0  0  0  0  0  0  0  0  0  0
  131.8740  131.3910   59.9500 C   0  0  0  0  0  0  0  0  0  0  0  0
  130.5670  131.3530   60.4380 C   0  0  0  0  0  0  0  0  0  0  0  0
  130.3700  130.5580   61.5860 N   0  0  0  0  0  0  0  0  0  0  0  0
  129.3890  129.6700   61.8790 C   0  0  0  0  0  0  0  0  0  0  0  0
  128.4480  129.4030   61.1320 O   0  0  0  0  0  0  0  0  0  0  0  0
  129.5140  129.0100   63.1820 C   0  0  0  0  0  0  0  0  0  0  0  0
  128.7220  129.6880   64.6040 S   0  0  0  0  0  0  0  0  0  0  0  0
  129.3460  128.4080   65.6200 C   0  0  0  0  0  0  0  0  0  0  0  0
  129.0950  128.3680   66.9280 N   0  0  0  0  0  0  0  0  0  0  0  0
  129.6320  127.3330   67.6270 C   0  0  0  0  0  0  0  0  0  0  0  0
  129.3550  127.3190   69.0960 C   0  0  0  0  0  0  0  0  0  0  0  0
  128.7180  126.2260   69.7020 C   0  0  0  0  0  0  0  0  0  0  0  0
  128.4520  126.2240   71.0680 C   0  0  0  0  0  0  0  0  0  0  0  0
  128.8180  127.3080   71.8630 C   0  0  0  0  0  0  0  0  0  0  0  0
  128.5130  127.2190   73.2080 O   0  0  0  0  0  0  0  0  0  0  0  0
  127.1480  127.2520   73.6120 C   0  0  0  0  0  0  0  0  0  0  0  0
  129.4620  128.4030   71.2680 C   0  0  0  0  0  0  0  0  0  0  0  0
  129.7240  128.4040   69.9000 C   0  0  0  0  0  0  0  0  0  0  0  0
  130.4070  126.3440   67.0180 C   0  0  0  0  0  0  0  0  0  0  0  0
  130.6590  126.3730   65.6420 C   0  0  0  0  0  0  0  0  0  0  0  0
  131.4630  125.2790   65.0400 C   0  0  0  0  0  0  0  0  0  0  0  0
  130.9270  123.9950   64.9260 C   0  0  0  0  0  0  0  0  0  0  0  0
  131.6690  122.9710   64.3430 C   0  0  0  0  0  0  0  0  0  0  0  0
  132.9560  123.2130   63.8610 C   0  0  0  0  0  0  0  0  0  0  0  0
  133.6170  122.1380   63.2990 O   0  0  0  0  0  0  0  0  0  0  0  0
  133.7050  122.0410   61.8830 C   0  0  0  0  0  0  0  0  0  0  0  0
  133.4930  124.5060   63.9680 C   0  0  0  0  0  0  0  0  0  0  0  0
  132.7480  125.5280   64.5490 C   0  0  0  0  0  0  0  0  0  0  0  0
  130.1250  127.4600   64.8940 C   0  0  0  0  0  0  0  0  0  0  0  0
  130.2200  127.8390   63.5050 C   0  0  0  0  0  0  0  0  0  0  0  0
  130.9530  127.1220   62.5940 N   0  0  0  0  0  0  0  0  0  0  0  0
  129.5660  132.0830   59.7800 C   0  0  0  0  0  0  0  0  0  0  0  0
  129.8790  132.8320   58.6480 C   0  0  0  0  0  0  0  0  0  0  0  0
  1  2  1  0
  2  3  1  0
  3  4  1  0
  4  5  2  0
  4  6  1  0
  6  7  2  0
  7  8  1  0
  8  9  2  0
  9 10  1  0
 10 11  1  0
 11 12  2  0
 11 13  1  0
 13 14  1  0
 14 15  1  0
 15 16  2  0
 16 17  1  0
 17 18  1  0
 18 19  2  0
 19 20  1  0
 20 21  2  0
 21 22  1  0
 22 23  1  0
 21 24  1  0
 24 25  2  0
 17 26  2  0
 26 27  1  0
 27 28  1  0
 28 29  2  0
 29 30  1  0
 30 31  2  0
 31 32  1  0
 32 33  1  0
 31 34  1  0
 34 35  2  0
 27 36  2  0
 36 37  1  0
 37 38  1  0
  9 39  1  0
 39 40  2  0
 40  6  1  0
 37 13  2  0
 36 15  1  0
 25 18  1  0
 35 28  1  0
M  END
>  <Binding energies>  (36) 
[-9.67]

>  <Ligand effiencies>  (36) 
[-0.22488372093023257]

>  <Interactions>  (36) 
["V-A:TYR:539:CZ:4876, V-A:PRO:540:CB:4884, V-A:TYR:539:CD1:4872, V-A:TYR:539:C:4866, V-A:MET:535:CG:4832, V-A:PRO:540:N:4883, V-A:PRO:540:CA:4882, V-A:TYR:539:CE1:4874, H-A:TYR:539:N:4869, V-A:PRO:540:CD:4886, V-A:ILE:538:CB:4861, V-B:GLU:543:CD:9879, V-A:ARG:545:CZ:4925, H-A:GLY:454:N:4049, V-A:ILE:369:CD1:3238, H-A:ASP:366:OD2:3214, V-A:LEU:475:CD2:4258, V-A:ILE:369:CG2:3236, V-A:GLY:454:CA:4048, H-A:GLU:543:OE2:4909, V-A:TYR:484:CZ:4346, V-A:GLU:543:CD:4907, V-A:GLU:543:CG:4906, V-A:ILE:538:CA:4859, V-A:ILE:538:CG2:4862, V-B:GLU:543:CB:9877, V-B:GLU:543:C:9873, V-A:HIS:456:CE1:4069, V-B:HIS:456:CE1:9040, V-A:GLU:543:CB:4905, V-B:LYS:547:CE:9921, V-B:HIS:456:CD2:9038"]

$$$$
8c_Ghoteimi_2023
     RDKit          3D

 34 38  0  0  0  0  0  0  0  0999 V2000
  124.1900  132.5030   63.6050 C   0  0  0  0  0  0  0  0  0  0  0  0
  124.5540  131.5060   64.5530 O   0  0  0  0  0  0  0  0  0  0  0  0
  125.1110  130.3230   64.1060 C   0  0  0  0  0  0  0  0  0  0  0  0
  124.7040  129.8780   62.8500 C   0  0  0  0  0  0  0  0  0  0  0  0
  125.2100  128.6950   62.3210 C   0  0  0  0  0  0  0  0  0  0  0  0
  126.1400  127.9250   63.0350 C   0  0  0  0  0  0  0  0  0  0  0  0
  126.6860  126.6510   62.4730 C   0  0  0  0  0  0  0  0  0  0  0  0
  126.2670  126.1510   61.2360 C   0  0  0  0  0  0  0  0  0  0  0  0
  126.7950  124.9580   60.7320 C   0  0  0  0  0  0  0  0  0  0  0  0
  126.3240  124.4520   59.4230 C   0  0  0  0  0  0  0  0  0  0  0  0
  127.2220  124.2950   58.3640 C   0  0  0  0  0  0  0  0  0  0  0  0
  126.7790  123.8100   57.1380 C   0  0  0  0  0  0  0  0  0  0  0  0
  125.4370  123.4790   56.9480 C   0  0  0  0  0  0  0  0  0  0  0  0
  125.0890  123.0030   55.6980 O   0  0  0  0  0  0  0  0  0  0  0  0
  126.0010  122.1700   54.9930 C   0  0  0  0  0  0  0  0  0  0  0  0
  124.5350  123.6410   58.0110 C   0  0  0  0  0  0  0  0  0  0  0  0
  124.9790  124.1260   59.2390 C   0  0  0  0  0  0  0  0  0  0  0  0
  127.7690  124.2770   61.5100 C   0  0  0  0  0  0  0  0  0  0  0  0
  128.5060  123.0590   61.3030 C   0  0  0  0  0  0  0  0  0  0  0  0
  128.3500  122.2870   60.1790 N   0  0  0  0  0  0  0  0  0  0  0  0
  129.3880  122.7420   62.3480 C   0  0  0  0  0  0  0  0  0  0  0  0
  130.2870  121.5920   62.4670 C   0  0  0  0  0  0  0  0  0  0  0  0
  131.2410  121.6160   63.2470 O   0  0  0  0  0  0  0  0  0  0  0  0
  129.9900  120.5380   61.6680 N   0  0  0  0  0  0  0  0  0  0  0  0
  130.6740  119.3330   61.5870 C   0  0  0  0  0  0  0  0  0  0  0  0
  130.2360  118.1330   61.9020 N   0  0  0  0  0  0  0  0  0  0  0  0
  131.1570  117.2120   61.6970 C   0  0  0  0  0  0  0  0  0  0  0  0
  132.3780  117.6610   61.2040 C   0  0  0  0  0  0  0  0  0  0  0  0
  132.3060  119.3870   61.0040 S   0  0  0  0  0  0  0  0  0  0  0  0
  129.3280  123.9600   63.6230 S   0  0  0  0  0  0  0  0  0  0  0  0
  128.1240  124.8810   62.7520 C   0  0  0  0  0  0  0  0  0  0  0  0
  127.6190  126.0170   63.2330 N   0  0  0  0  0  0  0  0  0  0  0  0
  126.5470  128.3810   64.2960 C   0  0  0  0  0  0  0  0  0  0  0  0
  126.0420  129.5630   64.8290 C   0  0  0  0  0  0  0  0  0  0  0  0
  1  2  1  0
  2  3  1  0
  3  4  2  0
  4  5  1  0
  5  6  2  0
  6  7  1  0
  7  8  2  0
  8  9  1  0
  9 10  1  0
 10 11  2  0
 11 12  1  0
 12 13  2  0
 13 14  1  0
 14 15  1  0
 13 16  1  0
 16 17  2  0
  9 18  2  0
 18 19  1  0
 19 20  1  0
 19 21  2  0
 21 22  1  0
 22 23  2  0
 22 24  1  0
 24 25  1  0
 25 26  2  0
 26 27  1  0
 27 28  2  0
 28 29  1  0
 21 30  1  0
 30 31  1  0
 31 32  2  0
  6 33  1  0
 33 34  2  0
 34  3  1  0
 32  7  1  0
 17 10  1  0
 31 18  1  0
 29 25  1  0
M  END
>  <Binding energies>  (37) 
[-8.25]

>  <Ligand effiencies>  (37) 
[-0.22297297297297297]

>  <Interactions>  (37) 
["V-B:LEU:363:CD1:8159, V-B:TYR:531:CZ:9765, V-B:TYR:531:CE2:9764, H-B:TYR:531:OH:9766, V-B:TYR:539:CD2:9845, V-B:MET:535:CE:9806, V-B:TYR:539:C:9838, V-B:ASP:366:CG:8183, V-B:ILE:538:CG2:9834, V-B:LEU:475:CD1:9228, V-B:MET:535:CG:9804, V-B:PRO:540:CA:9854, V-B:PRO:540:CB:9856, V-B:ARG:545:CZ:9897, V-B:ILE:538:CD1:9836, V-B:PRO:540:N:9855, H-B:GLY:454:N:9020, V-B:GLU:543:CD:9879, V-A:LEU:475:CD2:4258, V-B:ALA:541:CB:9863, V-A:HIS:383:CE1:3393, V-B:ILE:538:CA:9831, V-A:SER:385:CA:3406, V-A:SER:385:CB:3408, V-B:PRO:540:C:9852, H-B:TYR:539:O:9839, V-A:PRO:482:CG:4326, V-A:PRO:482:CB:4325, V-B:ILE:538:C:9829, V-B:ILE:538:CB:9833, V-B:GLY:454:CA:9019, V-B:ILE:538:CG1:9835"]

$$$$
8d_Ghoteimi_2023
     RDKit          3D

 30 33  0  0  0  0  0  0  0  0999 V2000
  135.2410  125.1150   76.6070 C   0  0  0  0  0  0  0  0  0  0  0  0
  134.1070  125.8440   77.0560 O   0  0  0  0  0  0  0  0  0  0  0  0
  133.6800  126.9480   76.3900 C   0  0  0  0  0  0  0  0  0  0  0  0
  134.1430  128.0790   76.5600 O   0  0  0  0  0  0  0  0  0  0  0  0
  132.5930  126.6570   75.4300 C   0  0  0  0  0  0  0  0  0  0  0  0
  132.0010  127.9290   74.3590 S   0  0  0  0  0  0  0  0  0  0  0  0
  130.8410  126.8360   73.6400 C   0  0  0  0  0  0  0  0  0  0  0  0
  130.0100  127.2280   72.6730 N   0  0  0  0  0  0  0  0  0  0  0  0
  129.1490  126.2980   72.1820 C   0  0  0  0  0  0  0  0  0  0  0  0
  128.2250  126.7650   71.1020 C   0  0  0  0  0  0  0  0  0  0  0  0
  126.8510  126.4940   71.1560 C   0  0  0  0  0  0  0  0  0  0  0  0
  125.9960  126.9310   70.1480 C   0  0  0  0  0  0  0  0  0  0  0  0
  126.4910  127.6480   69.0600 C   0  0  0  0  0  0  0  0  0  0  0  0
  125.5710  128.0410   68.1080 O   0  0  0  0  0  0  0  0  0  0  0  0
  126.0190  128.7630   66.9650 C   0  0  0  0  0  0  0  0  0  0  0  0
  127.8640  127.9260   68.9960 C   0  0  0  0  0  0  0  0  0  0  0  0
  128.7160  127.4880   70.0070 C   0  0  0  0  0  0  0  0  0  0  0  0
  129.1150  124.9850   72.6620 C   0  0  0  0  0  0  0  0  0  0  0  0
  129.9880  124.5730   73.6730 C   0  0  0  0  0  0  0  0  0  0  0  0
  129.9340  123.1730   74.1550 C   0  0  0  0  0  0  0  0  0  0  0  0
  131.0600  122.3540   74.0590 C   0  0  0  0  0  0  0  0  0  0  0  0
  131.0060  121.0350   74.5030 C   0  0  0  0  0  0  0  0  0  0  0  0
  129.8320  120.5190   75.0510 C   0  0  0  0  0  0  0  0  0  0  0  0
  129.8710  119.2020   75.4640 O   0  0  0  0  0  0  0  0  0  0  0  0
  130.8930  118.7850   76.3630 C   0  0  0  0  0  0  0  0  0  0  0  0
  128.7010  121.3470   75.1500 C   0  0  0  0  0  0  0  0  0  0  0  0
  128.7560  122.6650   74.7050 C   0  0  0  0  0  0  0  0  0  0  0  0
  130.8980  125.5280   74.1990 C   0  0  0  0  0  0  0  0  0  0  0  0
  131.9070  125.4550   75.2190 C   0  0  0  0  0  0  0  0  0  0  0  0
  132.1650  124.3060   75.9230 N   0  0  0  0  0  0  0  0  0  0  0  0
  1  2  1  0
  2  3  1  0
  3  4  2  0
  3  5  1  0
  5  6  1  0
  6  7  1  0
  7  8  2  0
  8  9  1  0
  9 10  1  0
 10 11  2  0
 11 12  1  0
 12 13  2  0
 13 14  1  0
 14 15  1  0
 13 16  1  0
 16 17  2  0
  9 18  2  0
 18 19  1  0
 19 20  1  0
 20 21  2  0
 21 22  1  0
 22 23  2  0
 23 24  1  0
 24 25  1  0
 23 26  1  0
 26 27  2  0
 19 28  2  0
 28 29  1  0
 29 30  1  0
 29  5  2  0
 28  7  1  0
 17 10  1  0
 27 20  1  0
M  END
>  <Binding energies>  (38) 
[-6.74]

>  <Ligand effiencies>  (38) 
[-0.210625]

>  <Interactions>  (38) 
["V-B:GLU:543:CD:9879, V-B:GLU:543:CB:9877, V-A:VAL:458:CG2:4086, V-A:LYS:471:CD:4218, V-B:GLU:543:C:9873, V-A:VAL:457:C:4072, V-B:GLY:544:CA:9885, V-A:HIS:456:CD2:4067, H-A:HIS:456:ND1:4066, V-A:HIS:456:CE1:4069, V-A:HIS:456:CG:4065, V-B:GLY:544:C:9883, V-B:HIS:456:CE1:9040, V-A:HIS:456:CB:4064, V-A:HIS:456:C:4060, V-B:ARG:545:CG:9893, V-B:ARG:545:CA:9890, V-B:LYS:547:CE:9921, V-A:ASP:473:CG:4239, V-A:TYR:484:CB:4340, V-A:TYR:484:CG:4341, V-A:VAL:457:CA:4074, H-A:ASP:473:OD2:4241, V-A:ASP:485:CA:4352, V-A:PRO:486:CD:4365, V-A:ASP:473:CB:4238"]

$$$$
9a_Ghoteimi_2023
     RDKit          3D

 48 54  0  0  0  0  0  0  0  0999 V2000
  130.3690  117.1690   60.6560 C   0  0  0  0  0  0  0  0  0  0  0  0
  131.2660  117.0220   61.8890 C   0  0  0  0  0  0  0  0  0  0  0  0
  132.5600  117.5370   61.5980 O   0  0  0  0  0  0  0  0  0  0  0  0
  132.7290  118.5370   60.6960 C   0  0  0  0  0  0  0  0  0  0  0  0
  133.0960  118.3480   59.5310 O   0  0  0  0  0  0  0  0  0  0  0  0
  132.4310  119.8990   61.2540 C   0  0  0  0  0  0  0  0  0  0  0  0
  131.1380  120.4240   61.1280 C   0  0  0  0  0  0  0  0  0  0  0  0
  130.8320  121.6830   61.6340 C   0  0  0  0  0  0  0  0  0  0  0  0
  131.8080  122.4440   62.2780 C   0  0  0  0  0  0  0  0  0  0  0  0
  131.3850  123.7020   62.7490 N   0  0  0  0  0  0  0  0  0  0  0  0
  131.8410  124.4520   63.7830 C   0  0  0  0  0  0  0  0  0  0  0  0
  132.7670  124.1190   64.5230 O   0  0  0  0  0  0  0  0  0  0  0  0
  131.1530  125.7310   63.9790 C   0  0  0  0  0  0  0  0  0  0  0  0
  130.9950  126.8720   62.6420 S   0  0  0  0  0  0  0  0  0  0  0  0
  130.1200  128.0010   63.6500 C   0  0  0  0  0  0  0  0  0  0  0  0
  129.6650  129.1580   63.1690 N   0  0  0  0  0  0  0  0  0  0  0  0
  128.9870  129.9600   64.0320 C   0  0  0  0  0  0  0  0  0  0  0  0
  128.4760  131.2470   63.4700 C   0  0  0  0  0  0  0  0  0  0  0  0
  129.1700  131.8990   62.4440 C   0  0  0  0  0  0  0  0  0  0  0  0
  128.7010  133.0980   61.9130 C   0  0  0  0  0  0  0  0  0  0  0  0
  127.5120  133.6820   62.3790 C   0  0  0  0  0  0  0  0  0  0  0  0
  127.0390  134.8950   61.8690 N   0  0  0  0  0  0  0  0  0  0  0  0
  127.7360  136.1700   62.1360 C   0  0  0  0  0  0  0  0  0  0  0  0
  126.8920  137.4210   61.8120 C   0  0  0  0  0  0  0  0  0  0  0  0
  126.4320  137.3640   60.4720 O   0  0  0  0  0  0  0  0  0  0  0  0
  125.6200  136.2210   60.2500 C   0  0  0  0  0  0  0  0  0  0  0  0
  126.4310  134.9380   60.5220 C   0  0  0  0  0  0  0  0  0  0  0  0
  126.8290  133.0310   63.4170 C   0  0  0  0  0  0  0  0  0  0  0  0
  127.3000  131.8350   63.9490 C   0  0  0  0  0  0  0  0  0  0  0  0
  128.7920  129.6170   65.3720 C   0  0  0  0  0  0  0  0  0  0  0  0
  129.2860  128.4130   65.8850 C   0  0  0  0  0  0  0  0  0  0  0  0
  129.0820  128.1140   67.3260 C   0  0  0  0  0  0  0  0  0  0  0  0
  130.1650  128.0900   68.2080 C   0  0  0  0  0  0  0  0  0  0  0  0
  129.9710  127.8240   69.5600 C   0  0  0  0  0  0  0  0  0  0  0  0
  128.6840  127.5910   70.0700 C   0  0  0  0  0  0  0  0  0  0  0  0
  128.4650  127.3110   71.4210 N   0  0  0  0  0  0  0  0  0  0  0  0
  129.5740  127.4810   72.3810 C   0  0  0  0  0  0  0  0  0  0  0  0
  129.1100  127.5110   73.8520 C   0  0  0  0  0  0  0  0  0  0  0  0
  128.3590  126.3440   74.1490 O   0  0  0  0  0  0  0  0  0  0  0  0
  127.2060  126.2400   73.3300 C   0  0  0  0  0  0  0  0  0  0  0  0
  127.6190  126.1770   71.8430 C   0  0  0  0  0  0  0  0  0  0  0  0
  127.6030  127.6210   69.1770 C   0  0  0  0  0  0  0  0  0  0  0  0
  127.7990  127.8830   67.8240 C   0  0  0  0  0  0  0  0  0  0  0  0
  129.9680  127.5400   64.9900 C   0  0  0  0  0  0  0  0  0  0  0  0
  130.5470  126.2290   65.1440 C   0  0  0  0  0  0  0  0  0  0  0  0
  130.4920  125.5320   66.3230 N   0  0  0  0  0  0  0  0  0  0  0  0
  133.1050  121.9250   62.4130 C   0  0  0  0  0  0  0  0  0  0  0  0
  133.4100  120.6650   61.9050 C   0  0  0  0  0  0  0  0  0  0  0  0
  1  2  1  0
  2  3  1  0
  3  4  1  0
  4  5  2  0
  4  6  1  0
  6  7  2  0
  7  8  1  0
  8  9  2  0
  9 10  1  0
 10 11  1  0
 11 12  2  0
 11 13  1  0
 13 14  1  0
 14 15  1  0
 15 16  2  0
 16 17  1  0
 17 18  1  0
 18 19  2  0
 19 20  1  0
 20 21  2  0
 21 22  1  0
 22 23  1  0
 23 24  1  0
 24 25  1  0
 25 26  1  0
 26 27  1  0
 21 28  1  0
 28 29  2  0
 17 30  2  0
 30 31  1  0
 31 32  1  0
 32 33  2  0
 33 34  1  0
 34 35  2  0
 35 36  1  0
 36 37  1  0
 37 38  1  0
 38 39  1  0
 39 40  1  0
 40 41  1  0
 35 42  1  0
 42 43  2  0
 31 44  2  0
 44 45  1  0
 45 46  1  0
  9 47  1  0
 47 48  2  0
 48  6  1  0
 45 13  2  0
 44 15  1  0
 29 18  1  0
 43 32  1  0
 27 22  1  0
 41 36  1  0
M  END
>  <Binding energies>  (39) 
[-10.5]

>  <Ligand effiencies>  (39) 
[-0.20588235294117646]

>  <Interactions>  (39) 
["V-A:TYR:539:CD1:4872, V-B:TYR:539:CD2:9845, V-A:TYR:539:CE1:4874, V-B:TYR:539:CE2:9847, V-A:ALA:541:CB:4891, V-B:LEU:475:CD1:9228, H-B:HIS:383:NE2:8364, H-B:SER:385:OG:8380, V-A:TYR:539:CG:4871, V-B:SER:385:CB:8379, V-B:GLU:543:CD:9879, H-A:GLY:454:N:4049, H-A:TYR:484:OH:4347, V-A:LEU:475:CD2:4258, V-A:SER:385:C:3404, V-A:HIS:383:CE1:3393, V-A:SER:385:CA:3406, V-B:TYR:539:CB:9842, H-A:HIS:383:ND1:3390, V-A:SER:385:CB:3408, V-A:GLU:543:CD:4907, H-B:GLU:543:OE2:9881, V-A:GLU:543:CG:4906, V-B:VAL:344:CG1:7971, V-B:GLU:543:CB:9877, V-B:GLU:543:C:9873, V-B:GLY:544:CA:9885, V-A:HIS:456:CE1:4069, V-B:GLY:544:C:9883, V-B:HIS:456:CE1:9040, V-A:PRO:482:CG:4326, V-A:PRO:482:CB:4325, V-A:GLU:543:CB:4905, V-B:PRO:482:CG:9297, V-B:PRO:482:CB:9296, V-A:TYR:539:CB:4870, V-B:LYS:547:CE:9921, H-B:LYS:547:NZ:9922"]

$$$$
9b_Ghoteimi_2023
     RDKit          3D

 42 48  0  0  0  0  0  0  0  0999 V2000
  128.5770  129.5020   59.2900 N   0  0  0  0  0  0  0  0  0  0  0  0
  128.7120  130.1580   60.4870 C   0  0  0  0  0  0  0  0  0  0  0  0
  129.0950  131.5050   60.5920 C   0  0  0  0  0  0  0  0  0  0  0  0
  129.3920  132.4560   59.5180 C   0  0  0  0  0  0  0  0  0  0  0  0
  128.7060  133.4690   59.3680 O   0  0  0  0  0  0  0  0  0  0  0  0
  130.4470  132.1340   58.7280 N   0  0  0  0  0  0  0  0  0  0  0  0
  130.9390  132.8430   57.6400 C   0  0  0  0  0  0  0  0  0  0  0  0
  132.2640  132.7650   57.2160 C   0  0  0  0  0  0  0  0  0  0  0  0
  132.3420  133.6000   56.1260 C   0  0  0  0  0  0  0  0  0  0  0  0
  131.1250  134.1530   55.9050 O   0  0  0  0  0  0  0  0  0  0  0  0
  130.2440  133.6660   56.8710 N   0  0  0  0  0  0  0  0  0  0  0  0
  129.2000  132.0090   62.2780 S   0  0  0  0  0  0  0  0  0  0  0  0
  128.7480  130.4130   62.8300 C   0  0  0  0  0  0  0  0  0  0  0  0
  128.6700  130.1200   64.1270 N   0  0  0  0  0  0  0  0  0  0  0  0
  128.3280  128.8450   64.4510 C   0  0  0  0  0  0  0  0  0  0  0  0
  128.2680  128.5360   65.9120 C   0  0  0  0  0  0  0  0  0  0  0  0
  127.0950  128.7450   66.6480 C   0  0  0  0  0  0  0  0  0  0  0  0
  127.0490  128.4700   68.0110 C   0  0  0  0  0  0  0  0  0  0  0  0
  128.1780  127.9890   68.6920 C   0  0  0  0  0  0  0  0  0  0  0  0
  128.1460  127.7050   70.0620 N   0  0  0  0  0  0  0  0  0  0  0  0
  129.3370  127.8940   70.9150 C   0  0  0  0  0  0  0  0  0  0  0  0
  129.0310  127.8680   72.4270 C   0  0  0  0  0  0  0  0  0  0  0  0
  128.3510  126.6710   72.7640 O   0  0  0  0  0  0  0  0  0  0  0  0
  127.1170  126.5610   72.0730 C   0  0  0  0  0  0  0  0  0  0  0  0
  127.3610  126.5510   70.5480 C   0  0  0  0  0  0  0  0  0  0  0  0
  129.3430  127.7630   67.9460 C   0  0  0  0  0  0  0  0  0  0  0  0
  129.3880  128.0340   66.5810 C   0  0  0  0  0  0  0  0  0  0  0  0
  128.0410  127.8800   63.4820 C   0  0  0  0  0  0  0  0  0  0  0  0
  128.1020  128.1900   62.1190 C   0  0  0  0  0  0  0  0  0  0  0  0
  127.7580  127.1370   61.1290 C   0  0  0  0  0  0  0  0  0  0  0  0
  126.4260  126.8980   60.7900 C   0  0  0  0  0  0  0  0  0  0  0  0
  126.1020  125.9250   59.8490 C   0  0  0  0  0  0  0  0  0  0  0  0
  127.1020  125.1640   59.2220 C   0  0  0  0  0  0  0  0  0  0  0  0
  126.8000  124.1940   58.2640 N   0  0  0  0  0  0  0  0  0  0  0  0
  127.8190  123.1870   57.9090 C   0  0  0  0  0  0  0  0  0  0  0  0
  127.5110  122.4500   56.5880 C   0  0  0  0  0  0  0  0  0  0  0  0
  126.2220  121.8580   56.6510 O   0  0  0  0  0  0  0  0  0  0  0  0
  125.2080  122.8300   56.8590 C   0  0  0  0  0  0  0  0  0  0  0  0
  125.4590  123.5810   58.1840 C   0  0  0  0  0  0  0  0  0  0  0  0
  128.4380  125.4270   59.5580 C   0  0  0  0  0  0  0  0  0  0  0  0
  128.7620  126.4000   60.5000 C   0  0  0  0  0  0  0  0  0  0  0  0
  128.4920  129.5100   61.7560 C   0  0  0  0  0  0  0  0  0  0  0  0
  1  2  1  0
  2  3  2  0
  3  4  1  0
  4  5  2  0
  4  6  1  0
  6  7  1  0
  7  8  1  0
  8  9  2  0
  9 10  1  0
 10 11  1  0
  3 12  1  0
 12 13  1  0
 13 14  2  0
 14 15  1  0
 15 16  1  0
 16 17  2  0
 17 18  1  0
 18 19  2  0
 19 20  1  0
 20 21  1  0
 21 22  1  0
 22 23  1  0
 23 24  1  0
 24 25  1  0
 19 26  1  0
 26 27  2  0
 15 28  2  0
 28 29  1  0
 29 30  1  0
 30 31  2  0
 31 32  1  0
 32 33  2  0
 33 34  1  0
 34 35  1  0
 35 36  1  0
 36 37  1  0
 37 38  1  0
 38 39  1  0
 33 40  1  0
 40 41  2  0
 29 42  2  0
 42  2  1  0
 11  7  2  0
 42 13  1  0
 27 16  1  0
 41 30  1  0
 25 20  1  0
 39 34  1  0
M  END
>  <Binding energies>  (40) 
[-9.79]

>  <Ligand effiencies>  (40) 
[-0.21755555555555553]

>  <Interactions>  (40) 
["V-B:LEU:363:CD1:8159, V-A:PRO:540:CB:4884, V-A:TYR:539:C:4866, V-B:TYR:539:CZ:9848, V-B:TYR:531:CE2:9764, V-A:TYR:531:CE2:4792, V-A:LEU:363:CD1:3188, V-A:PRO:540:N:4883, V-B:TYR:539:CD2:9845, V-B:MET:535:CE:9806, V-B:TYR:539:CE1:9846, V-A:PRO:540:CA:4882, V-B:TYR:539:C:9838, V-B:TYR:539:CA:9840, V-B:TYR:539:CD1:9844, V-B:TYR:539:CG:9843, V-B:TYR:539:CE2:9847, H-B:TYR:539:N:9841, V-B:PRO:540:CA:9854, V-B:PRO:540:CB:9856, V-B:PRO:540:N:9855, H-A:TYR:539:N:4869, V-A:PRO:540:CD:4886, V-B:PRO:540:CD:9858, V-A:ILE:538:CB:4861, V-B:GLU:543:CD:9879, V-A:GLU:543:CD:4907, V-A:GLU:543:CG:4906, V-A:ILE:538:CG2:4862, V-B:GLU:543:CB:9877, V-B:GLU:543:C:9873, V-B:GLY:544:CA:9885, V-A:HIS:456:CE1:4069, V-B:GLY:544:C:9883, V-B:HIS:456:CE1:9040"]

$$$$
9c_Ghoteimi_2023
     RDKit          3D

 42 48  0  0  0  0  0  0  0  0999 V2000
  130.2940  124.1140   64.7060 N   0  0  0  0  0  0  0  0  0  0  0  0
  130.3780  124.3170   63.3520 C   0  0  0  0  0  0  0  0  0  0  0  0
  130.5050  123.2740   62.4200 C   0  0  0  0  0  0  0  0  0  0  0  0
  130.5510  121.8300   62.6660 C   0  0  0  0  0  0  0  0  0  0  0  0
  130.3680  121.3760   63.7970 O   0  0  0  0  0  0  0  0  0  0  0  0
  130.8110  121.0630   61.5780 N   0  0  0  0  0  0  0  0  0  0  0  0
  130.9230  119.6800   61.5400 C   0  0  0  0  0  0  0  0  0  0  0  0
  129.9880  118.7860   61.7810 N   0  0  0  0  0  0  0  0  0  0  0  0
  130.4500  117.5570   61.6570 C   0  0  0  0  0  0  0  0  0  0  0  0
  131.7920  117.4360   61.3070 C   0  0  0  0  0  0  0  0  0  0  0  0
  132.4760  119.0240   61.1330 S   0  0  0  0  0  0  0  0  0  0  0  0
  130.6160  123.9000   60.7750 S   0  0  0  0  0  0  0  0  0  0  0  0
  130.5110  125.5480   61.3460 C   0  0  0  0  0  0  0  0  0  0  0  0
  130.5690  126.5820   60.5080 N   0  0  0  0  0  0  0  0  0  0  0  0
  130.4960  127.8230   61.0550 C   0  0  0  0  0  0  0  0  0  0  0  0
  130.5860  128.9650   60.0950 C   0  0  0  0  0  0  0  0  0  0  0  0
  131.5970  129.9260   60.2040 C   0  0  0  0  0  0  0  0  0  0  0  0
  131.6710  130.9920   59.3130 C   0  0  0  0  0  0  0  0  0  0  0  0
  130.7260  131.1440   58.2860 C   0  0  0  0  0  0  0  0  0  0  0  0
  130.7900  132.2070   57.3770 N   0  0  0  0  0  0  0  0  0  0  0  0
  129.8060  132.3450   56.2840 C   0  0  0  0  0  0  0  0  0  0  0  0
  129.8120  133.7330   55.6100 C   0  0  0  0  0  0  0  0  0  0  0  0
  131.1200  134.0450   55.1570 O   0  0  0  0  0  0  0  0  0  0  0  0
  132.0460  134.0820   56.2310 C   0  0  0  0  0  0  0  0  0  0  0  0
  132.1060  132.7060   56.9290 C   0  0  0  0  0  0  0  0  0  0  0  0
  129.7260  130.1680   58.1690 C   0  0  0  0  0  0  0  0  0  0  0  0
  129.6560  129.0990   59.0590 C   0  0  0  0  0  0  0  0  0  0  0  0
  130.3370  128.0260   62.4280 C   0  0  0  0  0  0  0  0  0  0  0  0
  130.2540  126.9420   63.3090 C   0  0  0  0  0  0  0  0  0  0  0  0
  130.0530  127.2090   64.7550 C   0  0  0  0  0  0  0  0  0  0  0  0
  129.0240  128.0510   65.1810 C   0  0  0  0  0  0  0  0  0  0  0  0
  128.8230  128.2900   66.5370 C   0  0  0  0  0  0  0  0  0  0  0  0
  129.6470  127.6950   67.5050 C   0  0  0  0  0  0  0  0  0  0  0  0
  129.4560  127.9120   68.8730 N   0  0  0  0  0  0  0  0  0  0  0  0
  128.9980  126.7940   69.7220 C   0  0  0  0  0  0  0  0  0  0  0  0
  128.4600  127.2530   71.0940 C   0  0  0  0  0  0  0  0  0  0  0  0
  129.4420  128.0260   71.7680 O   0  0  0  0  0  0  0  0  0  0  0  0
  129.7990  129.1820   71.0270 C   0  0  0  0  0  0  0  0  0  0  0  0
  130.3670  128.7740   69.6500 C   0  0  0  0  0  0  0  0  0  0  0  0
  130.6650  126.8350   67.0660 C   0  0  0  0  0  0  0  0  0  0  0  0
  130.8660  126.5950   65.7100 C   0  0  0  0  0  0  0  0  0  0  0  0
  130.3640  125.6320   62.7620 C   0  0  0  0  0  0  0  0  0  0  0  0
  1  2  1  0
  2  3  2  0
  3  4  1  0
  4  5  2  0
  4  6  1  0
  6  7  1  0
  7  8  2  0
  8  9  1  0
  9 10  2  0
 10 11  1  0
  3 12  1  0
 12 13  1  0
 13 14  2  0
 14 15  1  0
 15 16  1  0
 16 17  2  0
 17 18  1  0
 18 19  2  0
 19 20  1  0
 20 21  1  0
 21 22  1  0
 22 23  1  0
 23 24  1  0
 24 25  1  0
 19 26  1  0
 26 27  2  0
 15 28  2  0
 28 29  1  0
 29 30  1  0
 30 31  2  0
 31 32  1  0
 32 33  2  0
 33 34  1  0
 34 35  1  0
 35 36  1  0
 36 37  1  0
 37 38  1  0
 38 39  1  0
 33 40  1  0
 40 41  2  0
 29 42  2  0
 42  2  1  0
 11  7  1  0
 42 13  1  0
 27 16  1  0
 41 30  1  0
 25 20  1  0
 39 34  1  0
M  END
>  <Binding energies>  (41) 
[-8.94]

>  <Ligand effiencies>  (41) 
[-0.19866666666666666]

>  <Interactions>  (41) 
["V-A:TYR:539:CZ:4876, V-A:TYR:539:CD1:4872, V-A:TYR:539:C:4866, V-A:ASP:366:CG:3212, V-A:TYR:531:CE2:4792, V-A:LEU:363:CD1:3188, V-A:PRO:540:N:4883, V-B:TYR:539:CD2:9845, V-A:TYR:539:CE1:4874, H-A:TYR:539:N:4869, V-A:PRO:540:CD:4886, V-A:TYR:539:CG:4871, V-A:ILE:538:CB:4861, V-B:GLU:543:CD:9879, H-A:TYR:484:OH:4347, V-A:LEU:475:CD2:4258, V-B:ALA:541:CB:9863, V-A:HIS:383:CE1:3393, V-A:SER:385:CA:3406, V-A:SER:385:CB:3408, V-A:GLU:543:CD:4907, H-B:GLU:543:OE2:9881, V-A:ILE:538:C:4857, V-A:ILE:538:CA:4859, V-A:TYR:539:CE2:4875, V-A:ILE:538:CG2:4862, V-B:GLU:543:CB:9877, V-A:HIS:456:CE1:4069, V-B:HIS:456:CE1:9040, H-B:TYR:539:O:9839, V-A:TYR:539:CD2:4873, V-A:PRO:482:CG:4326, V-A:PRO:482:CB:4325, V-A:GLU:543:CB:4905, V-A:GLU:543:C:4901"]

$$$$
RR11_Rahimova_2017
     RDKit          3D

 33 38  0  0  0  0  0  0  0  0999 V2000
  134.6330  130.6680   57.5800 N   0  0  0  0  0  0  0  0  0  0  0  0
  133.4850  131.0800   58.2550 C   0  0  0  0  0  0  0  0  0  0  0  0
  132.5610  131.9030   57.6130 C   0  0  0  0  0  0  0  0  0  0  0  0
  131.4140  132.3110   58.2870 C   0  0  0  0  0  0  0  0  0  0  0  0
  131.1790  131.9020   59.6070 C   0  0  0  0  0  0  0  0  0  0  0  0
  129.9390  132.3380   60.3300 C   0  0  0  0  0  0  0  0  0  0  0  0
  128.9300  131.5460   60.6180 N   0  0  0  0  0  0  0  0  0  0  0  0
  128.0290  132.3360   61.2830 C   0  0  0  0  0  0  0  0  0  0  0  0
  126.7800  131.9950   61.8220 C   0  0  0  0  0  0  0  0  0  0  0  0
  126.0450  132.9890   62.4780 C   0  0  0  0  0  0  0  0  0  0  0  0
  124.6830  132.6500   63.0690 C   0  0  0  0  0  0  0  0  0  0  0  0
  124.7290  131.4690   64.0280 C   0  0  0  0  0  0  0  0  0  0  0  0
  123.7680  130.4570   63.9220 C   0  0  0  0  0  0  0  0  0  0  0  0
  123.7740  129.3500   64.7730 C   0  0  0  0  0  0  0  0  0  0  0  0
  124.7810  129.2690   65.7440 C   0  0  0  0  0  0  0  0  0  0  0  0
  124.9980  128.3020   66.6900 N   0  0  0  0  0  0  0  0  0  0  0  0
  126.0640  128.6970   67.3530 C   0  0  0  0  0  0  0  0  0  0  0  0
  126.6720  127.9520   68.5070 C   0  0  0  0  0  0  0  0  0  0  0  0
  128.0620  127.9100   68.6720 C   0  0  0  0  0  0  0  0  0  0  0  0
  128.6260  127.2100   69.7360 C   0  0  0  0  0  0  0  0  0  0  0  0
  127.8020  126.5480   70.6430 C   0  0  0  0  0  0  0  0  0  0  0  0
  128.3670  125.8430   71.7060 N   0  0  0  0  0  0  0  0  0  0  0  0
  126.4190  126.5850   70.4940 C   0  0  0  0  0  0  0  0  0  0  0  0
  125.8560  127.2850   69.4300 C   0  0  0  0  0  0  0  0  0  0  0  0
  126.5590  129.8900   66.8690 N   0  0  0  0  0  0  0  0  0  0  0  0
  125.7540  130.2930   65.8310 C   0  0  0  0  0  0  0  0  0  0  0  0
  125.7560  131.4000   64.9790 C   0  0  0  0  0  0  0  0  0  0  0  0
  126.5360  134.2960   62.5690 C   0  0  0  0  0  0  0  0  0  0  0  0
  127.7730  134.6690   62.0380 C   0  0  0  0  0  0  0  0  0  0  0  0
  128.5040  133.6630   61.4000 C   0  0  0  0  0  0  0  0  0  0  0  0
  129.7280  133.6260   60.7760 N   0  0  0  0  0  0  0  0  0  0  0  0
  132.1170  131.0750   60.2400 C   0  0  0  0  0  0  0  0  0  0  0  0
  133.2660  130.6650   59.5670 C   0  0  0  0  0  0  0  0  0  0  0  0
  1  2  1  0
  2  3  2  0
  3  4  1  0
  4  5  2  0
  5  6  1  0
  6  7  2  0
  7  8  1  0
  8  9  2  0
  9 10  1  0
 10 11  1  0
 11 12  1  0
 12 13  2  0
 13 14  1  0
 14 15  2  0
 15 16  1  0
 16 17  2  0
 17 18  1  0
 18 19  2  0
 19 20  1  0
 20 21  2  0
 21 22  1  0
 21 23  1  0
 23 24  2  0
 17 25  1  0
 25 26  1  0
 26 27  2  0
 10 28  2  0
 28 29  1  0
 29 30  2  0
 30 31  1  0
  5 32  1  0
 32 33  2  0
 33  2  1  0
 31  6  1  0
 30  8  1  0
 27 12  1  0
 26 15  1  0
 24 18  1  0
M  END
>  <Binding energies>  (42) 
[-8.78]

>  <Ligand effiencies>  (42) 
[-0.2251282051282051]

>  <Interactions>  (42) 
["V-A:LEU:363:CA:3184, V-A:PRO:540:CB:4884, V-A:TYR:539:C:4866, V-A:ASP:366:CG:3212, V-A:ASN:362:C:3171, V-A:TYR:531:CE2:4792, V-A:LEU:363:CD1:3188, V-A:PRO:540:N:4883, V-A:PRO:540:CA:4882, V-B:GLY:453:CA:9014, V-A:ALA:541:CB:4891, V-B:LEU:475:CD1:9228, V-B:GLY:453:C:9012, V-B:ARG:545:CZ:9897, V-A:TYR:531:CZ:4793, H-A:TYR:531:OH:4794, V-B:GLU:543:CD:9879, H-B:ARG:545:NE:9895, V-A:PRO:540:C:4880, H-B:TYR:484:OH:9318, V-A:ASP:366:CB:3211, V-A:LEU:363:C:3182, V-A:LEU:363:CB:3186, H-A:TYR:539:O:4867, V-B:GLU:543:CB:9877, V-B:GLU:543:C:9873, V-A:HIS:456:CE1:4069, V-B:GLY:544:C:9883, V-B:HIS:456:CE1:9040, H-A:LEU:363:O:3183, H-A:ASN:362:O:3172, V-B:TYR:484:CZ:9317, V-B:ARG:545:CG:9893, H-A:HIS:456:NE2:4070, V-B:GLY:454:CA:9019, V-B:ARG:545:CA:9890, H-B:GLU:543:O:9874, H-A:PRO:540:O:4881"]

$$$$
RR16_Rahimova_2017
     RDKit          3D

 44 49  0  0  0  0  0  0  0  0999 V2000
  127.5280  122.8040   64.2700 O   0  0  0  0  0  0  0  0  0  0  0  0
  128.6950  122.9850   63.3990 S   0  0  0  0  0  0  0  0  0  0  0  0
  129.8200  122.0440   63.4440 O   0  0  0  0  0  0  0  0  0  0  0  0
  129.3270  124.6080   63.6880 N   0  0  0  0  0  0  0  0  0  0  0  0
  130.7010  124.9740   63.2740 C   0  0  0  0  0  0  0  0  0  0  0  0
  131.6630  124.7870   64.4760 C   0  0  0  0  0  0  0  0  0  0  0  0
  132.9520  123.9800   64.2310 C   0  0  0  0  0  0  0  0  0  0  0  0
  133.9280  124.6440   63.2450 C   0  0  0  0  0  0  0  0  0  0  0  0
  133.6620  124.3720   61.7520 C   0  0  0  0  0  0  0  0  0  0  0  0
  132.2630  124.7230   61.2090 C   0  0  0  0  0  0  0  0  0  0  0  0
  131.0590  124.1750   61.9990 C   0  0  0  0  0  0  0  0  0  0  0  0
  128.0860  123.0360   61.7180 C   0  0  0  0  0  0  0  0  0  0  0  0
  128.8610  122.5300   60.6720 C   0  0  0  0  0  0  0  0  0  0  0  0
  128.4290  122.6870   59.3580 C   0  0  0  0  0  0  0  0  0  0  0  0
  127.2270  123.3470   59.0960 C   0  0  0  0  0  0  0  0  0  0  0  0
  126.7400  123.6740   57.4030 S   0  0  0  0  0  0  0  0  0  0  0  0
  125.2740  123.6010   57.3460 O   0  0  0  0  0  0  0  0  0  0  0  0
  127.5590  122.8170   56.5360 O   0  0  0  0  0  0  0  0  0  0  0  0
  127.2240  125.3590   57.1300 N   0  0  0  0  0  0  0  0  0  0  0  0
  126.4880  126.3520   57.9540 C   0  0  0  0  0  0  0  0  0  0  0  0
  126.7430  127.7810   57.4340 C   0  0  0  0  0  0  0  0  0  0  0  0
  128.2570  128.0900   57.3240 C   0  0  0  0  0  0  0  0  0  0  0  0
  128.5330  129.4890   56.7650 C   0  0  0  0  0  0  0  0  0  0  0  0
  127.7140  130.0070   55.7520 C   0  0  0  0  0  0  0  0  0  0  0  0
  127.9240  131.2800   55.2190 C   0  0  0  0  0  0  0  0  0  0  0  0
  127.1110  131.7720   54.2310 O   0  0  0  0  0  0  0  0  0  0  0  0
  128.9860  132.0430   55.7270 C   0  0  0  0  0  0  0  0  0  0  0  0
  129.4130  133.3020   55.4180 N   0  0  0  0  0  0  0  0  0  0  0  0
  130.4840  133.5890   56.2360 N   0  0  0  0  0  0  0  0  0  0  0  0
  130.7380  132.5090   57.0000 N   0  0  0  0  0  0  0  0  0  0  0  0
  131.7720  132.5630   58.0250 C   0  0  0  0  0  0  0  0  0  0  0  0
  131.2460  132.2110   59.4090 C   0  0  0  0  0  0  0  0  0  0  0  0
  131.8630  131.2040   60.1600 C   0  0  0  0  0  0  0  0  0  0  0  0
  131.3970  130.8940   61.4380 C   0  0  0  0  0  0  0  0  0  0  0  0
  130.3130  131.5900   61.9730 C   0  0  0  0  0  0  0  0  0  0  0  0
  129.6940  132.5970   61.2310 C   0  0  0  0  0  0  0  0  0  0  0  0
  128.3590  133.4660   61.8940 Cl  0  0  0  0  0  0  0  0  0  0  0  0
  130.1580  132.9040   59.9500 C   0  0  0  0  0  0  0  0  0  0  0  0
  129.8130  131.5100   56.7440 C   0  0  0  0  0  0  0  0  0  0  0  0
  129.6060  130.2330   57.2760 C   0  0  0  0  0  0  0  0  0  0  0  0
  129.0310  126.9780   56.5690 C   0  0  0  0  0  0  0  0  0  0  0  0
  128.6940  125.5740   57.1090 C   0  0  0  0  0  0  0  0  0  0  0  0
  126.4340  123.8150   60.1460 C   0  0  0  0  0  0  0  0  0  0  0  0
  126.8660  123.6620   61.4590 C   0  0  0  0  0  0  0  0  0  0  0  0
  1  2  2  0
  2  3  2  0
  2  4  1  0
  4  5  1  0
  5  6  1  0
  6  7  1  0
  7  8  1  0
  8  9  1  0
  9 10  1  0
 10 11  1  0
  2 12  1  0
 12 13  2  0
 13 14  1  0
 14 15  2  0
 15 16  1  0
 16 17  2  0
 16 18  2  0
 16 19  1  0
 19 20  1  0
 20 21  1  0
 21 22  1  0
 22 23  1  0
 23 24  2  0
 24 25  1  0
 25 26  1  0
 25 27  2  0
 27 28  1  0
 28 29  2  0
 29 30  1  0
 30 31  1  0
 31 32  1  0
 32 33  2  0
 33 34  1  0
 34 35  2  0
 35 36  1  0
 36 37  1  0
 36 38  2  0
 30 39  1  0
 39 40  2  0
 22 41  1  0
 41 42  1  0
 15 43  1  0
 43 44  2  0
 11  5  1  0
 44 12  1  0
 42 19  1  0
 40 23  1  0
 39 27  1  0
 38 32  1  0
M  END
>  <Binding energies>  (43) 
[-10.01]

>  <Ligand effiencies>  (43) 
[-0.20854166666666665]

>  <Interactions>  (43) 
["V-A:TYR:539:CZ:4876, V-A:PRO:540:CB:4884, V-A:TYR:539:C:4866, V-A:ASP:366:CG:3212, H-B:TYR:531:OH:9766, V-A:PRO:540:N:4883, V-B:TYR:539:CD2:9845, V-B:MET:535:CE:9806, V-A:PRO:540:CA:4882, V-B:TYR:539:C:9838, V-A:TYR:539:CE1:4874, V-B:TYR:539:CE2:9847, V-A:ALA:541:CB:4891, H-B:TYR:539:N:9841, V-B:PRO:540:CA:9854, V-B:PRO:540:CB:9856, V-B:PRO:540:N:9855, H-A:TYR:539:N:4869, V-B:GLU:543:CD:9879, V-A:ILE:369:CD1:3238, V-B:ALA:541:CB:9863, V-A:GLY:454:CA:4048, V-A:GLY:453:C:4041, H-B:GLU:543:OE2:9881, H-B:GLU:543:OE1:9880, V-A:MET:535:CE:4834, H-A:TYR:539:OH:4877, H-B:ALA:541:N:9862, V-A:GLY:453:CA:4043, H-A:MET:535:SD:4833"]

$$$$
RR18_Rahimova_2017
     RDKit          3D

 36 41  0  0  0  0  0  0  0  0999 V2000
  129.8980  127.6360   60.0310 C   0  0  0  0  0  0  0  0  0  0  0  0
  129.7470  127.9360   61.5010 C   0  0  0  0  0  0  0  0  0  0  0  0
  129.8890  127.1880   62.6590 C   0  0  0  0  0  0  0  0  0  0  0  0
  129.6110  128.0420   63.7260 C   0  0  0  0  0  0  0  0  0  0  0  0
  129.3120  129.2810   63.1820 C   0  0  0  0  0  0  0  0  0  0  0  0
  128.9330  130.6340   63.7780 C   0  0  1  0  0  0  0  0  0  0  0  0
  128.8450  131.7370   62.6810 C   0  0  0  0  0  0  0  0  0  0  0  0
  130.0370  132.1430   61.9440 C   0  0  0  0  0  0  0  0  0  0  0  0
  130.8670  132.9180   62.4250 O   0  0  0  0  0  0  0  0  0  0  0  0
  130.1470  131.5840   60.7170 N   0  0  0  0  0  0  0  0  0  0  0  0
  131.1360  131.7500   59.7230 C   0  0  0  0  0  0  0  0  0  0  0  0
  130.8780  132.3080   58.4580 C   0  0  0  0  0  0  0  0  0  0  0  0
  131.8990  132.4380   57.5180 C   0  0  0  0  0  0  0  0  0  0  0  0
  133.1870  132.0100   57.8220 C   0  0  0  0  0  0  0  0  0  0  0  0
  133.4550  131.4440   59.0670 C   0  0  0  0  0  0  0  0  0  0  0  0
  132.4410  131.3080   60.0210 C   0  0  0  0  0  0  0  0  0  0  0  0
  132.7860  130.6780   61.3670 C   0  0  0  0  0  0  0  0  0  0  0  0
  127.6210  132.2330   62.3590 C   0  0  0  0  0  0  0  0  0  0  0  0
  126.4630  131.9250   63.0070 N   0  0  0  0  0  0  0  0  0  0  0  0
  126.5020  131.1790   64.0490 C   0  0  0  0  0  0  0  0  0  0  0  0
  125.1270  130.8230   65.0660 S   0  0  0  0  0  0  0  0  0  0  0  0
  126.1320  129.8310   66.1680 C   0  0  0  0  0  0  0  0  0  0  0  0
  125.7170  129.1660   67.3020 C   0  0  0  0  0  0  0  0  0  0  0  0
  124.3300  129.2940   67.7720 C   0  0  0  0  0  0  0  0  0  0  0  0
  123.3850  129.9170   67.2890 O   0  0  0  0  0  0  0  0  0  0  0  0
  124.2270  128.5950   68.9070 N   0  0  0  0  0  0  0  0  0  0  0  0
  125.3870  127.9700   69.2520 C   0  0  0  0  0  0  0  0  0  0  0  0
  125.6210  127.1560   70.3600 C   0  0  0  0  0  0  0  0  0  0  0  0
  126.8790  126.5810   70.5170 C   0  0  0  0  0  0  0  0  0  0  0  0
  127.8710  126.8210   69.5680 C   0  0  0  0  0  0  0  0  0  0  0  0
  127.6120  127.6420   68.4670 C   0  0  0  0  0  0  0  0  0  0  0  0
  126.3530  128.2510   68.3020 C   0  0  0  0  0  0  0  0  0  0  0  0
  127.5070  129.8500   65.6660 C   0  0  0  0  0  0  0  0  0  0  0  0
  128.4830  129.3240   66.1910 O   0  0  0  0  0  0  0  0  0  0  0  0
  127.6200  130.5620   64.5120 N   0  0  0  0  0  0  0  0  0  0  0  0
  129.3960  129.2070   61.8270 O   0  0  0  0  0  0  0  0  0  0  0  0
  1  2  1  0
  2  3  2  0
  3  4  1  0
  4  5  2  0
  6  5  1  6
  6  7  1  0
  7  8  1  0
  8  9  2  0
  8 10  1  0
 10 11  1  0
 11 12  2  0
 12 13  1  0
 13 14  2  0
 14 15  1  0
 15 16  2  0
 16 17  1  0
  7 18  2  0
 18 19  1  0
 19 20  2  0
 20 21  1  0
 21 22  1  0
 22 23  2  0
 23 24  1  0
 24 25  2  0
 24 26  1  0
 26 27  1  0
 27 28  2  0
 28 29  1  0
 29 30  2  0
 30 31  1  0
 31 32  2  0
 22 33  1  0
 33 34  2  0
 33 35  1  0
  5 36  1  0
 36  2  1  0
 35  6  1  0
 16 11  1  0
 35 20  1  0
 32 23  1  0
 32 27  1  0
M  END
>  <Binding energies>  (44) 
[-9.53]

>  <Ligand effiencies>  (44) 
[-0.2507894736842105]

>  <Interactions>  (44) 
["V-A:LEU:363:CA:3184, V-A:PRO:540:CB:4884, V-A:ASP:366:CG:3212, V-A:TYR:531:CE2:4792, V-A:LEU:363:CD1:3188, V-A:PRO:540:N:4883, V-A:PRO:540:CA:4882, H-B:GLY:454:N:9020, V-B:GLU:543:CD:9879, V-A:GLU:543:CD:4907, V-A:GLU:543:CG:4906, H-A:ALA:541:N:4890, H-B:TYR:484:OH:9318, V-B:GLU:543:CB:9877, V-B:GLU:543:C:9873, V-B:GLY:544:C:9883, V-B:HIS:456:CE1:9040, V-B:TYR:484:CZ:9317, V-B:ARG:545:CG:9893, H-B:ILE:455:N:9025, V-B:ARG:545:CD:9894, V-B:GLY:454:CA:9019, V-B:ARG:545:CB:9892, V-B:ARG:545:CA:9890, H-B:ILE:455:O:9023"]

$$$$
RR20_Rahimova_2017
     RDKit          3D

 38 43  0  0  0  0  0  0  0  0999 V2000
  133.0900  130.6770   61.3740 C   0  0  0  0  0  0  0  0  0  0  0  0
  132.7560  131.2320   60.0010 C   0  0  0  0  0  0  0  0  0  0  0  0
  131.7400  132.1780   59.8630 C   0  0  0  0  0  0  0  0  0  0  0  0
  131.4390  132.6960   58.6060 C   0  0  0  0  0  0  0  0  0  0  0  0
  132.1410  132.2610   57.4750 C   0  0  0  0  0  0  0  0  0  0  0  0
  131.8120  132.8510   56.1220 C   0  0  0  0  0  0  0  0  0  0  0  0
  132.7400  133.3300   55.4670 O   0  0  0  0  0  0  0  0  0  0  0  0
  130.5220  132.8200   55.6740 N   0  0  0  0  0  0  0  0  0  0  0  0
  130.1410  133.4050   54.3790 C   0  0  0  0  0  0  0  0  0  0  0  0
  128.6810  133.0460   54.1590 C   0  0  0  0  0  0  0  0  0  0  0  0
  128.4480  131.9640   55.1690 C   0  0  0  0  0  0  0  0  0  0  0  0
  127.3090  131.1860   55.3780 C   0  0  0  0  0  0  0  0  0  0  0  0
  127.2210  130.3320   56.4840 C   0  0  0  0  0  0  0  0  0  0  0  0
  125.9970  129.4870   56.7050 C   0  0  0  0  0  0  0  0  0  0  0  0
  126.1490  128.2870   57.2430 N   0  0  0  0  0  0  0  0  0  0  0  0
  125.0180  127.6500   57.4070 C   0  0  0  0  0  0  0  0  0  0  0  0
  124.8200  126.3870   57.9430 N   0  0  0  0  0  0  0  0  0  0  0  0
  123.7960  125.5400   57.6760 C   0  0  0  0  0  0  0  0  0  0  0  0
  122.8890  125.7850   56.8770 O   0  0  0  0  0  0  0  0  0  0  0  0
  123.7770  124.1710   58.3970 C   0  0  0  0  0  0  0  0  0  0  0  0
  125.1280  123.6480   58.6740 N   0  0  0  0  0  0  0  0  0  0  0  0
  126.0860  123.9730   57.6070 C   0  0  0  0  0  0  0  0  0  0  0  0
  127.4000  123.1840   57.8130 C   0  0  0  0  0  0  0  0  0  0  0  0
  127.9000  123.2240   59.2570 C   0  0  0  0  0  0  0  0  0  0  0  0
  129.1940  122.8030   59.5830 C   0  0  0  0  0  0  0  0  0  0  0  0
  129.6370  122.8020   60.9030 C   0  0  0  0  0  0  0  0  0  0  0  0
  128.7860  123.2280   61.9180 C   0  0  0  0  0  0  0  0  0  0  0  0
  127.4980  123.6580   61.6070 C   0  0  0  0  0  0  0  0  0  0  0  0
  127.0410  123.6630   60.2840 C   0  0  0  0  0  0  0  0  0  0  0  0
  125.6480  124.1890   59.9360 C   0  0  0  0  0  0  0  0  0  0  0  0
  123.6300  128.5160   56.8760 S   0  0  0  0  0  0  0  0  0  0  0  0
  124.6660  129.8360   56.3890 C   0  0  0  0  0  0  0  0  0  0  0  0
  124.0820  131.0650   55.7280 C   0  0  0  0  0  0  0  0  0  0  0  0
  128.2800  130.3180   57.4050 C   0  0  0  0  0  0  0  0  0  0  0  0
  129.4120  131.1080   57.2090 C   0  0  0  0  0  0  0  0  0  0  0  0
  129.5240  131.8940   56.0540 C   0  0  0  0  0  0  0  0  0  0  0  0
  133.1790  131.3330   57.6260 C   0  0  0  0  0  0  0  0  0  0  0  0
  133.4820  130.8160   58.8840 C   0  0  0  0  0  0  0  0  0  0  0  0
  1  2  1  0
  2  3  2  0
  3  4  1  0
  4  5  2  0
  5  6  1  0
  6  7  2  0
  6  8  1  0
  8  9  1  0
  9 10  1  0
 10 11  1  0
 11 12  2  0
 12 13  1  0
 13 14  1  0
 14 15  1  0
 15 16  2  0
 16 17  1  0
 17 18  1  0
 18 19  2  0
 18 20  1  0
 20 21  1  0
 21 22  1  0
 22 23  1  0
 23 24  1  0
 24 25  2  0
 25 26  1  0
 26 27  2  0
 27 28  1  0
 28 29  2  0
 29 30  1  0
 16 31  1  0
 31 32  1  0
 32 33  1  0
 13 34  2  0
 34 35  1  0
 35 36  2  0
  5 37  1  0
 37 38  2  0
 38  2  1  0
 36  8  1  0
 36 11  1  0
 32 14  2  0
 30 21  1  0
 29 24  1  0
M  END
>  <Binding energies>  (45) 
[-11.37]

>  <Ligand effiencies>  (45) 
[-0.2915384615384615]

>  <Interactions>  (45) 
["V-A:LEU:363:CA:3184, V-B:LEU:363:CD1:8159, V-B:TYR:531:CZ:9765, V-A:TYR:539:CZ:4876, V-B:LEU:363:CA:8155, V-A:PRO:540:CB:4884, V-A:TYR:539:C:4866, V-A:MET:535:CB:4831, V-B:TYR:531:CE2:9764, V-A:ASP:366:CG:3212, V-B:ASN:370:CB:8215, V-A:ASN:362:C:3171, V-A:ASN:362:CB:3175, V-A:MET:535:CG:4832, V-B:TYR:531:CE1:9763, H-B:TYR:531:OH:9766, V-A:TYR:531:CE2:4792, V-A:LEU:363:CD1:3188, V-A:PRO:540:N:4883, V-B:TYR:539:CD2:9845, V-B:MET:535:CE:9806, V-A:PRO:540:CA:4882, V-A:TYR:539:CE1:4874, V-B:ASP:366:CG:8183, V-B:TYR:539:CE2:9847, V-B:ASN:370:CA:8213, V-B:ASP:366:CB:8182, V-B:PRO:540:CA:9854, V-B:PRO:540:CB:9856, V-B:PRO:540:N:9855, V-A:TYR:531:CZ:4793, V-A:ILE:538:CB:4861, V-A:ASP:366:CB:3211, V-A:ILE:538:CA:4859, V-A:TYR:539:CE2:4875, V-A:ILE:538:CG2:4862, V-B:ASP:366:CA:8180, V-B:ASP:366:C:8178, V-B:TYR:531:CD1:9761, H-B:ASP:366:OD1:8184"]

$$$$
RR21_Rahimova_2017
     RDKit          3D

 40 45  0  0  0  0  0  0  0  0999 V2000
  133.5540  124.8570   63.0340 C   0  0  0  0  0  0  0  0  0  0  0  0
  133.8820  125.2990   64.3480 O   0  0  0  0  0  0  0  0  0  0  0  0
  132.8810  125.7900   65.1650 C   0  0  0  0  0  0  0  0  0  0  0  0
  131.5700  126.0580   64.7340 C   0  0  0  0  0  0  0  0  0  0  0  0
  130.6170  126.5510   65.6250 C   0  0  0  0  0  0  0  0  0  0  0  0
  130.9450  126.7850   66.9650 C   0  0  0  0  0  0  0  0  0  0  0  0
  129.9180  127.3100   67.9200 C   0  0  0  0  0  0  0  0  0  0  0  0
  129.8250  126.7960   69.1310 N   0  0  0  0  0  0  0  0  0  0  0  0
  128.8350  127.4530   69.7540 N   0  0  0  0  0  0  0  0  0  0  0  0
  128.4810  127.1590   71.0960 C   0  0  0  0  0  0  0  0  0  0  0  0
  127.4760  126.2230   71.3850 C   0  0  0  0  0  0  0  0  0  0  0  0
  127.1400  125.9400   72.7060 C   0  0  0  0  0  0  0  0  0  0  0  0
  127.8060  126.5910   73.7420 C   0  0  0  0  0  0  0  0  0  0  0  0
  128.8020  127.5240   73.4690 C   0  0  0  0  0  0  0  0  0  0  0  0
  129.1400  127.8100   72.1490 C   0  0  0  0  0  0  0  0  0  0  0  0
  128.3060  128.4100   68.9250 C   0  0  0  0  0  0  0  0  0  0  0  0
  128.9740  128.3420   67.7110 C   0  0  0  0  0  0  0  0  0  0  0  0
  128.7960  129.1850   66.5390 C   0  0  0  0  0  0  0  0  0  0  0  0
  127.6410  129.5340   65.9260 C   0  0  0  0  0  0  0  0  0  0  0  0
  125.9850  129.0580   66.3640 S   0  0  0  0  0  0  0  0  0  0  0  0
  125.3700  130.0280   65.0340 C   0  0  0  0  0  0  0  0  0  0  0  0
  124.1330  130.2120   64.6890 N   0  0  0  0  0  0  0  0  0  0  0  0
  123.7660  131.0370   63.5910 C   0  0  0  0  0  0  0  0  0  0  0  0
  122.6200  131.2790   63.2140 O   0  0  0  0  0  0  0  0  0  0  0  0
  124.9390  131.6470   62.8720 C   0  0  0  0  0  0  0  0  0  0  0  0
  124.6670  132.5420   61.6560 C   0  0  0  0  0  0  0  0  0  0  0  0
  125.4350  133.8630   61.6620 C   0  0  0  0  0  0  0  0  0  0  0  0
  126.3110  134.1580   62.7100 C   0  0  0  0  0  0  0  0  0  0  0  0
  127.0240  135.3540   62.7070 C   0  0  0  0  0  0  0  0  0  0  0  0
  126.8640  136.2580   61.6550 C   0  0  0  0  0  0  0  0  0  0  0  0
  127.6520  137.5550   61.6500 C   0  0  0  0  0  0  0  0  0  0  0  0
  125.9970  135.9600   60.6000 C   0  0  0  0  0  0  0  0  0  0  0  0
  125.2840  134.7640   60.6040 C   0  0  0  0  0  0  0  0  0  0  0  0
  126.1670  131.4500   63.2230 N   0  0  0  0  0  0  0  0  0  0  0  0
  126.3850  130.6230   64.3320 N   0  0  0  0  0  0  0  0  0  0  0  0
  127.6530  130.3980   64.7540 C   0  0  0  0  0  0  0  0  0  0  0  0
  128.6670  130.8660   64.2210 O   0  0  0  0  0  0  0  0  0  0  0  0
  132.2510  126.5250   67.3930 C   0  0  0  0  0  0  0  0  0  0  0  0
  133.2070  126.0330   66.5040 C   0  0  0  0  0  0  0  0  0  0  0  0
  134.4620  125.7900   66.9500 F   0  0  0  0  0  0  0  0  0  0  0  0
  1  2  1  0
  2  3  1  0
  3  4  2  0
  4  5  1  0
  5  6  2  0
  6  7  1  0
  7  8  2  0
  8  9  1  0
  9 10  1  0
 10 11  2  0
 11 12  1  0
 12 13  2  0
 13 14  1  0
 14 15  2  0
  9 16  1  0
 16 17  2  0
 17 18  1  0
 18 19  2  0
 19 20  1  0
 20 21  1  0
 21 22  2  0
 22 23  1  0
 23 24  2  0
 23 25  1  0
 25 26  1  0
 26 27  1  0
 27 28  2  0
 28 29  1  0
 29 30  2  0
 30 31  1  0
 30 32  1  0
 32 33  2  0
 25 34  2  0
 34 35  1  0
 35 36  1  0
 36 37  2  0
  6 38  1  0
 38 39  2  0
 39 40  1  0
 39  3  1  0
 17  7  1  0
 36 19  1  0
 15 10  1  0
 35 21  1  0
 33 27  1  0
M  END
>  <Binding energies>  (46) 
[-10.93]

>  <Ligand effiencies>  (46) 
[-0.27325]

>  <Interactions>  (46) 
["V-A:TYR:539:CD1:4872, V-A:TYR:539:C:4866, V-A:ASP:366:CG:3212, V-A:TYR:539:CE1:4874, V-A:ALA:541:CB:4891, V-B:LEU:475:CD1:9228, V-B:GLY:453:C:9012, H-B:GLY:454:N:9020, V-A:TYR:539:CG:4871, V-B:SER:385:CB:8379, V-B:GLU:543:CD:9879, V-A:ARG:545:CZ:4925, H-A:GLY:454:N:4049, H-A:ARG:545:NH1:4926, H-A:ARG:545:NH2:4927, V-A:ARG:545:CD:4922, V-A:ARG:545:CG:4921, V-A:GLY:453:C:4041, V-A:GLU:543:CD:4907, V-A:GLU:543:CG:4906, V-B:GLU:543:CB:9877, V-B:GLU:543:C:9873, V-B:GLY:544:CA:9885, V-A:HIS:456:CE1:4069, V-B:GLY:544:C:9883, V-B:HIS:456:CE1:9040, V-A:GLY:453:CA:4043, V-A:GLU:543:CB:4905, V-B:GLY:454:CA:9019, V-B:PRO:482:CG:9297, V-B:PRO:482:CB:9296, V-A:TYR:539:CB:4870, V-B:LYS:547:CE:9921"]

$$$$
RR23_Rahimova_2017
     RDKit          3D

 39 44  0  0  0  0  0  0  0  0999 V2000
  132.5370  117.5390   58.9860 C   0  0  0  0  0  0  0  0  0  0  0  0
  132.1530  118.6220   59.9790 C   0  0  0  0  0  0  0  0  0  0  0  0
  130.9480  118.5330   60.6770 C   0  0  0  0  0  0  0  0  0  0  0  0
  130.6010  119.5220   61.5940 C   0  0  0  0  0  0  0  0  0  0  0  0
  131.4500  120.6130   61.8120 C   0  0  0  0  0  0  0  0  0  0  0  0
  131.0650  121.6650   62.8270 C   0  0  0  0  0  0  0  0  0  0  0  0
  131.9200  122.0090   63.6460 O   0  0  0  0  0  0  0  0  0  0  0  0
  129.8090  122.2010   62.7930 N   0  0  0  0  0  0  0  0  0  0  0  0
  129.2220  122.8650   63.9680 C   0  0  0  0  0  0  0  0  0  0  0  0
  127.8980  123.4540   63.5110 C   0  0  0  0  0  0  0  0  0  0  0  0
  128.0090  123.4050   62.0170 C   0  0  0  0  0  0  0  0  0  0  0  0
  127.1270  123.8930   61.0530 C   0  0  0  0  0  0  0  0  0  0  0  0
  127.3300  123.6060   59.6950 C   0  0  0  0  0  0  0  0  0  0  0  0
  126.3820  124.1230   58.6020 C   0  0  2  0  0  0  0  0  0  0  0  0
  126.5790  125.5310   58.3310 N   0  0  0  0  0  0  0  0  0  0  0  0
  125.4960  126.1030   57.9860 C   0  0  0  0  0  0  0  0  0  0  0  0
  125.2990  127.4150   57.6840 N   0  0  0  0  0  0  0  0  0  0  0  0
  126.1670  128.4470   57.8110 C   0  0  0  0  0  0  0  0  0  0  0  0
  127.3340  128.3580   58.1980 O   0  0  0  0  0  0  0  0  0  0  0  0
  125.6100  129.8310   57.4360 C   0  0  0  0  0  0  0  0  0  0  0  0
  126.6870  130.6340   56.8140 N   0  0  0  0  0  0  0  0  0  0  0  0
  126.6220  130.7470   55.4310 N   0  0  0  0  0  0  0  0  0  0  0  0
  127.5040  131.4220   54.7660 N   0  0  0  0  0  0  0  0  0  0  0  0
  128.5490  132.0560   55.4430 C   0  0  0  0  0  0  0  0  0  0  0  0
  129.4850  132.7740   54.6950 C   0  0  0  0  0  0  0  0  0  0  0  0
  130.5400  133.4180   55.3430 C   0  0  0  0  0  0  0  0  0  0  0  0
  130.6610  133.3450   56.7330 C   0  0  0  0  0  0  0  0  0  0  0  0
  129.7260  132.6270   57.4820 C   0  0  0  0  0  0  0  0  0  0  0  0
  128.6670  131.9830   56.8320 C   0  0  0  0  0  0  0  0  0  0  0  0
  127.6470  131.1970   57.6230 C   0  0  0  0  0  0  0  0  0  0  0  0
  127.6820  131.0690   58.8510 O   0  0  0  0  0  0  0  0  0  0  0  0
  124.0330  125.0800   57.8940 S   0  0  0  0  0  0  0  0  0  0  0  0
  124.8880  123.8220   58.8590 C   0  0  2  0  0  0  0  0  0  0  0  0
  124.4080  123.9000   60.3240 C   0  0  0  0  0  0  0  0  0  0  0  0
  128.4020  122.7830   59.3320 C   0  0  0  0  0  0  0  0  0  0  0  0
  129.2740  122.2770   60.2970 C   0  0  0  0  0  0  0  0  0  0  0  0
  129.1110  122.6340   61.6420 C   0  0  0  0  0  0  0  0  0  0  0  0
  132.6710  120.6810   61.1280 C   0  0  0  0  0  0  0  0  0  0  0  0
  133.0180  119.6910   60.2120 C   0  0  0  0  0  0  0  0  0  0  0  0
  1  2  1  0
  2  3  2  0
  3  4  1  0
  4  5  2  0
  5  6  1  0
  6  7  2  0
  6  8  1  0
  8  9  1  0
  9 10  1  0
 10 11  1  0
 11 12  2  0
 12 13  1  0
 14 13  1  1
 14 15  1  0
 15 16  2  0
 16 17  1  0
 17 18  1  0
 18 19  2  0
 18 20  1  0
 20 21  1  0
 21 22  1  0
 22 23  2  0
 23 24  1  0
 24 25  2  0
 25 26  1  0
 26 27  2  0
 27 28  1  0
 28 29  2  0
 29 30  1  0
 30 31  2  0
 16 32  1  0
 32 33  1  0
 33 34  1  1
 13 35  2  0
 35 36  1  0
 36 37  2  0
  5 38  1  0
 38 39  2  0
 39  2  1  0
 37  8  1  0
 37 11  1  0
 33 14  1  0
 30 21  1  0
 29 24  1  0
M  END
>  <Binding energies>  (47) 
[-11.07]

>  <Ligand effiencies>  (47) 
[-0.27675]

>  <Interactions>  (47) 
["V-B:TYR:531:CZ:9765, V-A:TYR:539:CZ:4876, V-A:TYR:539:CD1:4872, V-A:TYR:539:C:4866, V-A:MET:535:CB:4831, V-A:MET:535:CG:4832, V-B:TYR:531:CE1:9763, H-B:TYR:531:OH:9766, V-A:PRO:540:N:4883, V-B:TYR:539:CD2:9845, V-B:TYR:539:C:9838, V-A:TYR:539:CE1:4874, V-B:ASP:366:CG:8183, V-B:TYR:539:CG:9843, V-B:TYR:539:CE2:9847, V-B:ASP:366:CB:8182, V-B:PRO:540:CA:9854, V-B:PRO:540:CB:9856, V-B:PRO:540:N:9855, V-A:ILE:538:CB:4861, V-B:GLU:543:CD:9879, V-B:GLU:543:CG:9878, V-A:LEU:475:CD2:4258, V-B:ALA:541:CB:9863, V-A:HIS:383:CE1:3393, V-A:ILE:369:CG2:3236, V-A:SER:385:CA:3406, V-B:TYR:539:CB:9842, H-A:TYR:539:OH:4877, V-A:ILE:538:CA:4859, V-A:ILE:538:CG2:4862, V-A:LEU:373:CD1:3279, V-A:LEU:373:CG:3278, V-A:LEU:373:CD2:3280"]

$$$$
RR26_Rahimova_2017
     RDKit          3D

 38 44  0  0  0  0  0  0  0  0999 V2000
  123.0200  135.0150   56.0200 C   0  0  0  0  0  0  0  0  0  0  0  0
  122.7370  136.4960   56.2400 C   0  0  0  0  0  0  0  0  0  0  0  0
  121.9590  137.1700   55.2920 C   0  0  0  0  0  0  0  0  0  0  0  0
  121.6350  138.5140   55.4620 C   0  0  0  0  0  0  0  0  0  0  0  0
  122.0820  139.1970   56.5890 C   0  0  0  0  0  0  0  0  0  0  0  0
  122.8570  138.5370   57.5410 C   0  0  0  0  0  0  0  0  0  0  0  0
  123.2010  137.1860   57.3820 C   0  0  0  0  0  0  0  0  0  0  0  0
  124.0520  136.5550   58.4460 C   0  0  0  0  0  0  0  0  0  0  0  0
  123.9780  135.2600   58.7400 N   0  0  0  0  0  0  0  0  0  0  0  0
  124.8730  135.1460   59.6840 C   0  0  0  0  0  0  0  0  0  0  0  0
  125.4740  133.8650   60.6710 S   0  0  0  0  0  0  0  0  0  0  0  0
  126.5980  135.0330   61.4620 C   0  0  0  0  0  0  0  0  0  0  0  0
  127.4900  134.7860   62.4470 C   0  0  0  0  0  0  0  0  0  0  0  0
  127.7680  133.5210   63.1070 C   0  0  0  0  0  0  0  0  0  0  0  0
  127.1680  132.9950   64.2410 C   0  0  0  0  0  0  0  0  0  0  0  0
  127.7180  131.7600   64.4760 N   0  0  0  0  0  0  0  0  0  0  0  0
  127.4130  130.8490   65.5190 C   0  0  0  0  0  0  0  0  0  0  0  0
  126.2980  130.0020   65.4300 C   0  0  0  0  0  0  0  0  0  0  0  0
  126.0090  129.1140   66.4630 C   0  0  0  0  0  0  0  0  0  0  0  0
  126.8330  129.0670   67.5840 C   0  0  0  0  0  0  0  0  0  0  0  0
  127.9450  129.9000   67.6830 C   0  0  0  0  0  0  0  0  0  0  0  0
  128.2360  130.7910   66.6540 C   0  0  0  0  0  0  0  0  0  0  0  0
  128.6190  131.4640   63.5270 N   0  0  0  0  0  0  0  0  0  0  0  0
  128.6640  132.5000   62.7130 C   0  0  0  0  0  0  0  0  0  0  0  0
  129.5940  132.4870   61.5390 C   0  0  0  0  0  0  0  0  0  0  0  0
  130.9170  132.0450   61.6870 C   0  0  0  0  0  0  0  0  0  0  0  0
  131.7930  132.0320   60.5990 C   0  0  0  0  0  0  0  0  0  0  0  0
  131.3490  132.4640   59.3510 C   0  0  0  0  0  0  0  0  0  0  0  0
  130.0230  132.8910   59.1870 C   0  0  0  0  0  0  0  0  0  0  0  0
  129.1520  132.9080   60.2760 C   0  0  0  0  0  0  0  0  0  0  0  0
  129.5520  133.3680   57.9800 O   0  0  0  0  0  0  0  0  0  0  0  0
  130.3460  132.9890   56.8510 C   0  0  0  0  0  0  0  0  0  0  0  0
  131.8520  133.1750   57.1580 C   0  0  0  0  0  0  0  0  0  0  0  0
  132.2330  132.3890   58.2930 O   0  0  0  0  0  0  0  0  0  0  0  0
  126.4580  136.3850   60.9290 C   0  0  0  0  0  0  0  0  0  0  0  0
  127.0620  137.4120   61.2450 O   0  0  0  0  0  0  0  0  0  0  0  0
  125.4650  136.3260   59.9390 N   0  0  0  0  0  0  0  0  0  0  0  0
  124.9410  137.2540   59.1340 N   0  0  0  0  0  0  0  0  0  0  0  0
  1  2  1  0
  2  3  2  0
  3  4  1  0
  4  5  2  0
  5  6  1  0
  6  7  2  0
  7  8  1  0
  8  9  1  0
  9 10  2  0
 10 11  1  0
 11 12  1  0
 12 13  2  0
 13 14  1  0
 14 15  2  0
 15 16  1  0
 16 17  1  0
 17 18  2  0
 18 19  1  0
 19 20  2  0
 20 21  1  0
 21 22  2  0
 16 23  1  0
 23 24  2  0
 24 25  1  0
 25 26  2  0
 26 27  1  0
 27 28  2  0
 28 29  1  0
 29 30  2  0
 29 31  1  0
 31 32  1  0
 32 33  1  0
 33 34  1  0
 12 35  1  0
 35 36  2  0
 35 37  1  0
 37 38  1  0
  7  2  1  0
 38  8  2  0
 37 10  1  0
 24 14  1  0
 30 25  1  0
 22 17  1  0
 34 28  1  0
M  END
>  <Binding energies>  (48) 
[-11.49]

>  <Ligand effiencies>  (48) 
[-0.30236842105263156]

>  <Interactions>  (48) 
["V-A:TYR:539:CZ:4876, V-A:PRO:540:CB:4884, V-A:TYR:539:CD1:4872, V-A:TYR:539:C:4866, V-B:ILE:369:C:8202, V-A:LEU:363:CD1:3188, V-A:PRO:540:N:4883, V-B:ILE:369:CG2:8207, V-A:PRO:540:CA:4882, V-A:TYR:539:CE1:4874, V-B:ASN:370:CA:8213, V-A:ALA:541:CB:4891, V-B:LEU:475:CD1:9228, H-B:HIS:383:NE2:8364, V-A:PRO:540:CD:4886, H-B:SER:385:OG:8380, V-B:HIS:383:CD2:8362, V-A:TYR:539:CG:4871, V-B:SER:385:CB:8379, V-A:GLU:543:CD:4907, V-A:GLU:543:CG:4906, V-A:TYR:539:CE2:4875, V-B:HIS:456:CE1:9040, V-B:TYR:484:CZ:9317, V-A:GLU:543:CB:4905, V-B:TYR:484:CE2:9316, V-A:TYR:539:CB:4870, V-B:LEU:373:CD1:8250, V-B:LEU:373:CD2:8251, V-B:LEU:373:CG:8249, V-B:HIS:383:CB:8359, V-B:ASN:372:CB:8237, V-B:HIS:383:CG:8360, V-B:VAL:384:C:8367"]

$$$$
RR2_Rahimova_2017
     RDKit          3D

 46 50  0  0  0  0  0  0  0  0999 V2000
  130.2000  127.3330   67.8940 C   0  0  0  0  0  0  0  0  0  0  0  0
  129.2800  128.3260   68.3310 O   0  0  0  0  0  0  0  0  0  0  0  0
  128.1850  128.6260   67.5410 C   0  0  0  0  0  0  0  0  0  0  0  0
  128.2650  129.1850   66.2580 C   0  0  0  0  0  0  0  0  0  0  0  0
  127.1050  129.4560   65.5370 C   0  0  0  0  0  0  0  0  0  0  0  0
  125.8430  129.1790   66.0800 C   0  0  0  0  0  0  0  0  0  0  0  0
  124.5950  129.4900   65.2760 C   0  0  0  0  0  0  0  0  0  0  0  0
  123.5110  129.6500   65.8470 O   0  0  0  0  0  0  0  0  0  0  0  0
  124.7600  129.5600   63.9350 N   0  0  0  0  0  0  0  0  0  0  0  0
  123.6310  129.7510   63.1440 N   0  0  0  0  0  0  0  0  0  0  0  0
  123.1290  130.9970   63.0390 C   0  0  0  0  0  0  0  0  0  0  0  0
  123.4800  131.9590   63.7290 O   0  0  0  0  0  0  0  0  0  0  0  0
  122.0620  131.1910   61.9540 C   0  0  0  0  0  0  0  0  0  0  0  0
  122.7050  131.2870   60.2430 S   0  0  0  0  0  0  0  0  0  0  0  0
  124.2690  130.4870   60.4380 C   0  0  0  0  0  0  0  0  0  0  0  0
  124.4120  129.1860   60.4180 N   0  0  0  0  0  0  0  0  0  0  0  0
  125.7480  128.9090   60.6720 N   0  0  0  0  0  0  0  0  0  0  0  0
  126.3690  130.0570   60.8070 C   0  0  0  0  0  0  0  0  0  0  0  0
  127.8350  130.1710   61.0740 C   0  0  0  0  0  0  0  0  0  0  0  0
  128.2810  130.7620   62.2590 C   0  0  0  0  0  0  0  0  0  0  0  0
  129.6440  130.8800   62.5130 C   0  0  0  0  0  0  0  0  0  0  0  0
  130.5760  130.3910   61.5900 C   0  0  0  0  0  0  0  0  0  0  0  0
  131.9610  130.4920   61.7890 N   0  0  0  0  0  0  0  0  0  0  0  0
  132.9980  131.7470   61.0730 S   0  0  0  0  0  0  0  0  0  0  0  0
  134.2440  131.0720   60.6930 O   0  0  0  0  0  0  0  0  0  0  0  0
  133.0130  132.8980   61.9840 O   0  0  0  0  0  0  0  0  0  0  0  0
  132.1800  132.2180   59.5510 C   0  0  0  0  0  0  0  0  0  0  0  0
  130.8700  132.7020   59.5670 C   0  0  0  0  0  0  0  0  0  0  0  0
  130.2470  133.0480   58.3710 C   0  0  0  0  0  0  0  0  0  0  0  0
  130.9350  132.9160   57.1620 C   0  0  0  0  0  0  0  0  0  0  0  0
  130.2490  133.2800   55.8580 C   0  0  0  0  0  0  0  0  0  0  0  0
  132.2430  132.4280   57.1490 C   0  0  0  0  0  0  0  0  0  0  0  0
  132.8670  132.0810   58.3440 C   0  0  0  0  0  0  0  0  0  0  0  0
  130.1290  129.7980   60.4090 C   0  0  0  0  0  0  0  0  0  0  0  0
  128.7670  129.6860   60.1510 C   0  0  0  0  0  0  0  0  0  0  0  0
  125.4800  131.1100   60.6720 N   0  0  0  0  0  0  0  0  0  0  0  0
  125.7350  132.4920   60.7910 C   0  0  0  0  0  0  0  0  0  0  0  0
  126.9970  132.9980   60.4770 C   0  0  0  0  0  0  0  0  0  0  0  0
  127.2390  134.3640   60.5920 C   0  0  0  0  0  0  0  0  0  0  0  0
  126.2330  135.2310   61.0200 C   0  0  0  0  0  0  0  0  0  0  0  0
  126.5690  136.5690   61.1040 O   0  0  0  0  0  0  0  0  0  0  0  0
  127.6430  136.9640   61.9520 C   0  0  0  0  0  0  0  0  0  0  0  0
  124.9660  134.7130   61.3340 C   0  0  0  0  0  0  0  0  0  0  0  0
  124.7170  133.3490   61.2190 C   0  0  0  0  0  0  0  0  0  0  0  0
  125.7720  128.6140   67.3620 C   0  0  0  0  0  0  0  0  0  0  0  0
  126.9330  128.3420   68.0810 C   0  0  0  0  0  0  0  0  0  0  0  0
  1  2  1  0
  2  3  1  0
  3  4  2  0
  4  5  1  0
  5  6  2  0
  6  7  1  0
  7  8  2  0
  7  9  1  0
  9 10  1  0
 10 11  1  0
 11 12  2  0
 11 13  1  0
 13 14  1  0
 14 15  1  0
 15 16  2  0
 16 17  1  0
 17 18  2  0
 18 19  1  0
 19 20  2  0
 20 21  1  0
 21 22  2  0
 22 23  1  0
 23 24  1  0
 24 25  2  0
 24 26  2  0
 24 27  1  0
 27 28  2  0
 28 29  1  0
 29 30  2  0
 30 31  1  0
 30 32  1  0
 32 33  2  0
 22 34  1  0
 34 35  2  0
 18 36  1  0
 36 37  1  0
 37 38  2  0
 38 39  1  0
 39 40  2  0
 40 41  1  0
 41 42  1  0
 40 43  1  0
 43 44  2  0
  6 45  1  0
 45 46  2  0
 46  3  1  0
 36 15  1  0
 44 37  1  0
 35 19  1  0
 33 27  1  0
M  END
>  <Binding energies>  (49) 
[-10.4]

>  <Ligand effiencies>  (49) 
[-0.2122448979591837]

>  <Interactions>  (49) 
["V-A:LEU:363:CA:3184, V-B:ILE:369:CB:8206, V-A:PRO:540:CB:4884, V-A:TYR:539:CD1:4872, V-A:TYR:539:C:4866, V-A:ASN:362:C:3171, V-A:ASN:362:CB:3175, V-A:TYR:531:CE2:4792, V-A:LEU:363:CD1:3188, V-A:PRO:540:N:4883, V-B:ILE:369:CG2:8207, V-A:PRO:540:CA:4882, V-A:TYR:539:CE1:4874, V-B:ASP:366:CG:8183, V-B:ASP:366:CB:8182, V-B:GLY:453:CA:9014, V-A:ALA:541:CB:4891, V-B:ILE:369:CG1:8208, V-B:GLY:453:C:9012, V-B:ARG:545:CZ:9897, H-B:GLY:454:N:9020, H-B:HIS:383:NE2:8364, H-B:SER:385:OG:8380, V-A:TYR:531:CZ:4793, V-B:SER:385:CB:8379, V-B:GLU:543:CD:9879, H-A:ASP:366:OD2:3214, H-B:ARG:545:NE:9895, H-A:GLU:543:OE2:4909, V-A:GLU:543:CD:4907, V-A:GLU:543:CG:4906, H-A:ALA:541:N:4890, V-A:ILE:538:CA:4859, V-A:HIS:456:CE1:4069, V-B:HIS:456:CE1:9040, V-B:ARG:545:CG:9893, H-B:ASP:366:OD1:8184, V-B:GLY:454:CA:9019, V-B:PRO:482:CG:9297, V-B:PRO:482:CB:9296, H-B:ASP:366:OD2:8185, V-B:SER:385:CA:8377, H-A:LEU:363:N:3185"]

$$$$
RR33_Rahimova_2017
     RDKit          3D

 18 19  0  0  0  0  0  0  0  0999 V2000
  132.4540  118.1300   60.8100 C   0  0  0  0  0  0  0  0  0  0  0  0
  133.0110  119.2410   59.9160 C   0  0  0  0  0  0  0  0  0  0  0  0
  134.0590  119.9080   60.6150 O   0  0  0  0  0  0  0  0  0  0  0  0
  133.7490  120.9440   61.4740 C   0  0  0  0  0  0  0  0  0  0  0  0
  133.7020  122.2210   60.9180 C   0  0  0  0  0  0  0  0  0  0  0  0
  133.4010  123.3280   61.7070 C   0  0  0  0  0  0  0  0  0  0  0  0
  133.1410  123.1710   63.0720 C   0  0  0  0  0  0  0  0  0  0  0  0
  132.8180  124.3600   63.9190 C   0  0  0  0  0  0  0  0  0  0  0  0
  133.3560  124.6950   65.0700 N   0  0  0  0  0  0  0  0  0  0  0  0
  132.7500  125.8160   65.4270 C   0  0  0  0  0  0  0  0  0  0  0  0
  133.1160  126.5230   66.7150 C   0  0  0  0  0  0  0  0  0  0  0  0
  134.0010  125.6960   67.5210 N   0  0  0  0  0  0  0  0  0  0  0  0
  135.3710  125.7980   67.0470 C   0  0  0  0  0  0  0  0  0  0  0  0
  131.8150  126.1690   64.4610 C   0  0  0  0  0  0  0  0  0  0  0  0
  130.8350  127.3020   64.2790 C   0  0  0  0  0  0  0  0  0  0  0  0
  131.8630  125.2270   63.4920 O   0  0  0  0  0  0  0  0  0  0  0  0
  133.1820  121.8920   63.6330 C   0  0  0  0  0  0  0  0  0  0  0  0
  133.4850  120.7840   62.8440 C   0  0  0  0  0  0  0  0  0  0  0  0
  1  2  1  0
  2  3  1  0
  3  4  1  0
  4  5  2  0
  5  6  1  0
  6  7  2  0
  7  8  1  0
  8  9  2  0
  9 10  1  0
 10 11  1  0
 11 12  1  0
 12 13  1  0
 10 14  2  0
 14 15  1  0
 14 16  1  0
  7 17  1  0
 17 18  2  0
 18  4  1  0
 16  8  1  0
M  END
>  <Binding energies>  (50) 
[-5.3]

>  <Ligand effiencies>  (50) 
[-0.2789473684210526]

>  <Interactions>  (50) 
["V-B:TYR:539:CD2:9845, V-B:TYR:539:CE2:9847, V-A:ARG:545:CZ:4925, H-A:GLY:454:N:4049, H-A:TYR:484:OH:4347, V-A:ILE:369:CD1:3238, V-A:ARG:545:CD:4922, V-A:LEU:475:CD2:4258, V-A:SER:385:C:3404, V-A:ILE:369:CG2:3236, V-A:SER:385:CA:3406, V-A:SER:385:CB:3408, V-A:ILE:455:C:4051, V-A:GLY:454:CA:4048, V-A:ARG:545:CG:4921, V-A:GLY:453:C:4041, V-A:GLU:543:CD:4907, V-A:GLY:453:CA:4043, V-A:ARG:545:CB:4920, H-A:HIS:456:NE2:4070, H-A:ILE:455:O:4052"]

$$$$
RR3_Rahimova_2017
     RDKit          3D

 38 44  0  0  0  0  0  0  0  0999 V2000
  131.5160  133.6400   55.7530 C   0  0  0  0  0  0  0  0  0  0  0  0
  130.1770  133.2640   55.7520 C   0  0  0  0  0  0  0  0  0  0  0  0
  129.6630  132.5390   56.8240 C   0  0  0  0  0  0  0  0  0  0  0  0
  130.4780  132.1830   57.9080 C   0  0  0  0  0  0  0  0  0  0  0  0
  129.9240  131.4040   59.0610 C   0  0  0  0  0  0  0  0  0  0  0  0
  130.4580  130.1570   59.4110 C   0  0  0  0  0  0  0  0  0  0  0  0
  129.9400  129.4320   60.4800 C   0  0  0  0  0  0  0  0  0  0  0  0
  128.8680  129.9350   61.2210 C   0  0  0  0  0  0  0  0  0  0  0  0
  128.3030  129.1590   62.3690 C   0  0  0  0  0  0  0  0  0  0  0  0
  128.3920  129.6380   63.6040 N   0  0  0  0  0  0  0  0  0  0  0  0
  127.7810  128.7800   64.3850 C   0  0  0  0  0  0  0  0  0  0  0  0
  127.6380  128.9120   65.8320 C   0  0  0  0  0  0  0  0  0  0  0  0
  126.6000  129.5510   66.4890 C   0  0  0  0  0  0  0  0  0  0  0  0
  126.7820  129.4760   67.8450 N   0  0  0  0  0  0  0  0  0  0  0  0
  127.9430  128.7900   68.1260 C   0  0  0  0  0  0  0  0  0  0  0  0
  128.5390  128.4660   69.3490 C   0  0  0  0  0  0  0  0  0  0  0  0
  129.7360  127.7510   69.3000 C   0  0  0  0  0  0  0  0  0  0  0  0
  130.3170  127.3750   68.0940 C   0  0  0  0  0  0  0  0  0  0  0  0
  129.7230  127.6980   66.8750 C   0  0  0  0  0  0  0  0  0  0  0  0
  128.5150  128.4180   66.8680 C   0  0  0  0  0  0  0  0  0  0  0  0
  127.2920  127.7260   63.6640 N   0  0  0  0  0  0  0  0  0  0  0  0
  127.6310  127.9240   62.3500 C   0  0  0  0  0  0  0  0  0  0  0  0
  127.3140  126.9390   61.2730 C   0  0  0  0  0  0  0  0  0  0  0  0
  127.2020  125.5820   61.5760 C   0  0  0  0  0  0  0  0  0  0  0  0
  126.9190  124.6600   60.5740 C   0  0  0  0  0  0  0  0  0  0  0  0
  126.7370  125.0730   59.2460 C   0  0  0  0  0  0  0  0  0  0  0  0
  126.4520  124.0760   58.1660 C   0  0  0  0  0  0  0  0  0  0  0  0
  125.1380  123.8460   57.7280 C   0  0  0  0  0  0  0  0  0  0  0  0
  124.8740  122.9210   56.7200 C   0  0  0  0  0  0  0  0  0  0  0  0
  125.9230  122.2170   56.1380 C   0  0  0  0  0  0  0  0  0  0  0  0
  127.2320  122.4300   56.5560 C   0  0  0  0  0  0  0  0  0  0  0  0
  127.4930  123.3540   57.5650 C   0  0  0  0  0  0  0  0  0  0  0  0
  126.8340  126.4410   58.9570 C   0  0  0  0  0  0  0  0  0  0  0  0
  127.1170  127.3660   59.9580 C   0  0  0  0  0  0  0  0  0  0  0  0
  128.3370  131.1830   60.8880 C   0  0  0  0  0  0  0  0  0  0  0  0
  128.8570  131.9060   59.8180 C   0  0  0  0  0  0  0  0  0  0  0  0
  131.8250  132.5720   57.8870 C   0  0  0  0  0  0  0  0  0  0  0  0
  132.3430  133.2970   56.8180 C   0  0  0  0  0  0  0  0  0  0  0  0
  1  2  2  0
  2  3  1  0
  3  4  2  0
  4  5  1  0
  5  6  2  0
  6  7  1  0
  7  8  2  0
  8  9  1  0
  9 10  1  0
 10 11  2  0
 11 12  1  0
 12 13  2  0
 13 14  1  0
 14 15  1  0
 15 16  2  0
 16 17  1  0
 17 18  2  0
 18 19  1  0
 19 20  2  0
 11 21  1  0
 21 22  1  0
 22 23  1  0
 23 24  2  0
 24 25  1  0
 25 26  2  0
 26 27  1  0
 27 28  2  0
 28 29  1  0
 29 30  2  0
 30 31  1  0
 31 32  2  0
 26 33  1  0
 33 34  2  0
  8 35  1  0
 35 36  2  0
  4 37  1  0
 37 38  2  0
 38  1  1  0
 36  5  1  0
 22  9  2  0
 34 23  1  0
 20 12  1  0
 32 27  1  0
 20 15  1  0
M  END
>  <Binding energies>  (51) 
[-10.62]

>  <Ligand effiencies>  (51) 
[-0.26549999999999996]

>  <Interactions>  (51) 
["V-B:LEU:363:CD1:8159, V-A:PRO:540:CB:4884, V-A:TYR:539:CD1:4872, V-B:TYR:531:CE2:9764, V-A:TYR:531:CE2:4792, V-A:LEU:363:CD1:3188, V-A:PRO:540:N:4883, V-B:MET:535:CE:9806, V-A:PRO:540:CA:4882, V-B:TYR:539:C:9838, V-B:TYR:539:CA:9840, V-A:TYR:539:CE1:4874, V-B:TYR:539:CD1:9844, V-B:TYR:539:CG:9843, V-B:ILE:538:CG2:9834, V-B:PRO:540:CB:9856, V-B:PRO:540:N:9855, V-A:PRO:540:CD:4886, V-B:PRO:540:CD:9858, V-A:ILE:538:CB:4861, V-B:GLU:543:CD:9879, V-B:ILE:538:CA:9831, V-A:GLU:543:CD:4907, H-B:GLU:543:OE2:9881, H-B:GLU:543:OE1:9880, H-B:TYR:484:OH:9318, V-A:ILE:538:CA:4859, V-A:ILE:538:CG2:4862, V-A:HIS:456:CE1:4069, V-B:HIS:456:CE1:9040, V-B:ILE:538:C:9829, V-B:TYR:484:CZ:9317, V-B:TYR:484:CE2:9316"]

$$$$
RR4_Rahimova_2017
     RDKit          3D

 40 44  0  0  0  0  0  0  0  0999 V2000
  127.8860  122.8900   63.5090 C   0  0  0  0  0  0  0  0  0  0  0  0
  127.0790  123.1860   62.3750 O   0  0  0  0  0  0  0  0  0  0  0  0
  126.8390  124.5060   62.0440 C   0  0  0  0  0  0  0  0  0  0  0  0
  126.2700  124.7440   60.7950 C   0  0  0  0  0  0  0  0  0  0  0  0
  125.9930  126.0420   60.3770 C   0  0  0  0  0  0  0  0  0  0  0  0
  126.2800  127.1440   61.1970 C   0  0  0  0  0  0  0  0  0  0  0  0
  125.9800  128.5430   60.7430 C   0  0  0  0  0  0  0  0  0  0  0  0
  126.9300  129.3570   60.1170 C   0  0  0  0  0  0  0  0  0  0  0  0
  126.6000  130.6550   59.7070 C   0  0  0  0  0  0  0  0  0  0  0  0
  127.6580  131.4550   59.0200 C   0  0  0  0  0  0  0  0  0  0  0  0
  127.7930  131.3910   57.6300 C   0  0  0  0  0  0  0  0  0  0  0  0
  128.7690  132.1420   56.9790 C   0  0  0  0  0  0  0  0  0  0  0  0
  129.6220  132.9740   57.7040 C   0  0  0  0  0  0  0  0  0  0  0  0
  130.5590  133.6820   56.9740 O   0  0  0  0  0  0  0  0  0  0  0  0
  130.8170  133.3060   55.6250 C   0  0  0  0  0  0  0  0  0  0  0  0
  129.4860  133.0450   59.0980 C   0  0  0  0  0  0  0  0  0  0  0  0
  128.5090  132.2940   59.7460 C   0  0  0  0  0  0  0  0  0  0  0  0
  125.2920  131.1330   59.9690 C   0  0  0  0  0  0  0  0  0  0  0  0
  124.8940  132.4840   59.5600 C   0  0  0  0  0  0  0  0  0  0  0  0
  124.5790  133.5500   59.2380 N   0  0  0  0  0  0  0  0  0  0  0  0
  124.3910  130.2680   60.6320 C   0  0  0  0  0  0  0  0  0  0  0  0
  122.7170  130.7040   61.0510 S   0  0  0  0  0  0  0  0  0  0  0  0
  122.7810  131.8870   62.4380 C   0  0  0  0  0  0  0  0  0  0  0  0
  123.9680  131.6880   63.3910 C   0  0  0  0  0  0  0  0  0  0  0  0
  124.7040  132.6340   63.6800 O   0  0  0  0  0  0  0  0  0  0  0  0
  124.1240  130.4230   63.8460 N   0  0  0  0  0  0  0  0  0  0  0  0
  125.0960  129.9270   64.7180 C   0  0  0  0  0  0  0  0  0  0  0  0
  126.7760  129.7730   64.2780 S   0  0  0  0  0  0  0  0  0  0  0  0
  127.1830  129.1250   65.8370 C   0  0  0  0  0  0  0  0  0  0  0  0
  126.0550  129.0290   66.6660 C   0  0  0  0  0  0  0  0  0  0  0  0
  124.8760  129.4980   66.0360 C   0  0  0  0  0  0  0  0  0  0  0  0
  123.5710  129.5230   66.6890 C   0  0  0  0  0  0  0  0  0  0  0  0
  122.5360  129.5430   67.2070 N   0  0  0  0  0  0  0  0  0  0  0  0
  126.1600  128.5210   68.1090 C   0  0  0  0  0  0  0  0  0  0  0  0
  127.6290  128.5430   68.5880 C   0  0  0  0  0  0  0  0  0  0  0  0
  128.5900  127.9530   67.5410 C   0  0  0  0  0  0  0  0  0  0  0  0
  128.6110  128.7840   66.2410 C   0  0  0  0  0  0  0  0  0  0  0  0
  124.7270  129.0060   60.9880 N   0  0  0  0  0  0  0  0  0  0  0  0
  126.8500  126.8930   62.4560 C   0  0  0  0  0  0  0  0  0  0  0  0
  127.1290  125.5960   62.8760 C   0  0  0  0  0  0  0  0  0  0  0  0
  1  2  1  0
  2  3  1  0
  3  4  2  0
  4  5  1  0
  5  6  2  0
  6  7  1  0
  7  8  2  0
  8  9  1  0
  9 10  1  0
 10 11  2  0
 11 12  1  0
 12 13  2  0
 13 14  1  0
 14 15  1  0
 13 16  1  0
 16 17  2  0
  9 18  2  0
 18 19  1  0
 19 20  3  0
 18 21  1  0
 21 22  1  0
 22 23  1  0
 23 24  1  0
 24 25  2  0
 24 26  1  0
 26 27  1  0
 27 28  1  0
 28 29  1  0
 29 30  2  0
 30 31  1  0
 31 32  1  0
 32 33  3  0
 30 34  1  0
 34 35  1  0
 35 36  1  0
 36 37  1  0
 21 38  2  0
  6 39  1  0
 39 40  2  0
 40  3  1  0
 38  7  1  0
 17 10  1  0
 31 27  2  0
 37 29  1  0
M  END
>  <Binding energies>  (52) 
[-9.73]

>  <Ligand effiencies>  (52) 
[-0.23731707317073172]

>  <Interactions>  (52) 
["V-A:TYR:539:CZ:4876, V-A:TYR:539:CD1:4872, V-A:TYR:539:C:4866, V-A:TYR:531:CE2:4792, V-A:PRO:540:N:4883, V-B:ILE:369:CG2:8207, V-A:PRO:540:CA:4882, V-A:TYR:539:CE1:4874, V-B:ASP:366:CG:8183, V-B:ASP:366:CB:8182, V-B:ILE:369:CG1:8208, V-B:GLY:453:C:9012, V-B:ARG:545:CZ:9897, H-B:GLY:454:N:9020, H-A:TYR:539:N:4869, V-A:ILE:538:CB:4861, V-B:GLU:543:CD:9879, V-B:ALA:541:C:9859, H-B:ARG:545:NE:9895, V-B:GLU:543:CG:9878, V-B:ALA:541:CB:9863, V-B:ALA:541:CA:9861, V-A:GLU:543:CD:4907, V-A:GLU:543:CG:4906, V-A:ILE:538:CA:4859, V-A:ILE:538:CG2:4862, H-B:ALA:541:N:9862, V-B:HIS:456:CE1:9040, V-B:ARG:545:CG:9893, H-B:ILE:455:N:9025, V-B:ARG:545:CD:9894, V-B:GLY:454:CA:9019, H-B:ASP:366:OD2:8185"]

$$$$
RR6_Rahimova_2017
     RDKit          3D

 38 41  0  0  0  0  0  0  0  0999 V2000
  129.7780  133.5200   55.3510 C   0  0  0  0  0  0  0  0  0  0  0  0
  130.5000  133.9780   56.4850 O   0  0  0  0  0  0  0  0  0  0  0  0
  131.6740  133.3980   56.8470 C   0  0  0  0  0  0  0  0  0  0  0  0
  132.7200  133.5210   56.2020 O   0  0  0  0  0  0  0  0  0  0  0  0
  131.5730  132.5930   58.1100 C   0  0  0  0  0  0  0  0  0  0  0  0
  132.6900  131.9660   58.6830 C   0  0  0  0  0  0  0  0  0  0  0  0
  132.5630  131.2190   59.8520 C   0  0  0  0  0  0  0  0  0  0  0  0
  131.3090  131.0830   60.4670 C   0  0  0  0  0  0  0  0  0  0  0  0
  131.0640  130.3310   61.6310 N   0  0  0  0  0  0  0  0  0  0  0  0
  130.1780  129.3310   61.8330 C   0  0  0  0  0  0  0  0  0  0  0  0
  129.4050  128.8800   60.9870 O   0  0  0  0  0  0  0  0  0  0  0  0
  130.1170  128.7790   63.2610 C   0  0  0  0  0  0  0  0  0  0  0  0
  129.6040  127.0310   63.3500 S   0  0  0  0  0  0  0  0  0  0  0  0
  128.2450  126.8360   62.2160 C   0  0  0  0  0  0  0  0  0  0  0  0
  127.2780  127.7770   62.3370 N   0  0  0  0  0  0  0  0  0  0  0  0
  126.2050  127.7510   61.5070 C   0  0  0  0  0  0  0  0  0  0  0  0
  125.2110  128.8630   61.6660 C   0  0  0  0  0  0  0  0  0  0  0  0
  124.7090  129.2090   62.9310 C   0  0  0  0  0  0  0  0  0  0  0  0
  123.7770  130.2320   63.0760 C   0  0  0  0  0  0  0  0  0  0  0  0
  123.3310  130.9350   61.9580 C   0  0  0  0  0  0  0  0  0  0  0  0
  122.3080  132.0440   62.1200 C   0  0  0  0  0  0  0  0  0  0  0  0
  123.8190  130.6100   60.6940 C   0  0  0  0  0  0  0  0  0  0  0  0
  124.7510  129.5860   60.5540 C   0  0  0  0  0  0  0  0  0  0  0  0
  126.0780  126.7540   60.5340 C   0  0  0  0  0  0  0  0  0  0  0  0
  127.0630  125.7660   60.3920 C   0  0  0  0  0  0  0  0  0  0  0  0
  126.8730  124.7430   59.3210 C   0  0  0  0  0  0  0  0  0  0  0  0
  125.6070  124.1990   59.0850 C   0  0  0  0  0  0  0  0  0  0  0  0
  125.4180  123.2560   58.0780 C   0  0  0  0  0  0  0  0  0  0  0  0
  126.4870  122.8440   57.2840 C   0  0  0  0  0  0  0  0  0  0  0  0
  126.2060  121.9080   56.3080 O   0  0  0  0  0  0  0  0  0  0  0  0
  125.9880  122.3440   54.9710 C   0  0  0  0  0  0  0  0  0  0  0  0
  127.7590  123.3920   57.5130 C   0  0  0  0  0  0  0  0  0  0  0  0
  127.9440  124.3340   58.5210 C   0  0  0  0  0  0  0  0  0  0  0  0
  128.1810  125.8000   61.2620 C   0  0  0  0  0  0  0  0  0  0  0  0
  129.2330  124.7810   61.1860 C   0  0  0  0  0  0  0  0  0  0  0  0
  130.0630  123.9780   61.1250 N   0  0  0  0  0  0  0  0  0  0  0  0
  130.2000  131.7190   59.9100 C   0  0  0  0  0  0  0  0  0  0  0  0
  130.3280  132.4630   58.7400 C   0  0  0  0  0  0  0  0  0  0  0  0
  1  2  1  0
  2  3  1  0
  3  4  2  0
  3  5  1  0
  5  6  2  0
  6  7  1  0
  7  8  2  0
  8  9  1  0
  9 10  1  0
 10 11  2  0
 10 12  1  0
 12 13  1  0
 13 14  1  0
 14 15  2  0
 15 16  1  0
 16 17  1  0
 17 18  2  0
 18 19  1  0
 19 20  2  0
 20 21  1  0
 20 22  1  0
 22 23  2  0
 16 24  2  0
 24 25  1  0
 25 26  1  0
 26 27  2  0
 27 28  1  0
 28 29  2  0
 29 30  1  0
 30 31  1  0
 29 32  1  0
 32 33  2  0
 25 34  2  0
 34 35  1  0
 35 36  3  0
  8 37  1  0
 37 38  2  0
 38  5  1  0
 34 14  1  0
 23 17  1  0
 33 26  1  0
M  END
>  <Binding energies>  (53) 
[-9.3]

>  <Ligand effiencies>  (53) 
[-0.23846153846153847]

>  <Interactions>  (53) 
["V-A:TYR:539:CZ:4876, V-B:ILE:369:CB:8206, V-A:PRO:540:CB:4884, V-A:TYR:539:CD1:4872, V-A:TYR:539:C:4866, V-B:TYR:531:CE2:9764, V-A:LEU:363:CD1:3188, V-A:PRO:540:N:4883, V-B:MET:535:CE:9806, V-B:ILE:369:CG2:8207, V-A:PRO:540:CA:4882, V-B:TYR:539:C:9838, V-A:TYR:539:CE1:4874, V-B:ASP:366:CG:8183, V-B:ASP:366:CB:8182, V-B:ILE:538:CG2:9834, V-B:MET:535:CG:9804, V-B:ILE:369:CG1:8208, H-B:TYR:539:N:9841, V-B:GLY:453:C:9012, V-B:PRO:540:CA:9854, V-B:PRO:540:CB:9856, V-B:ARG:545:CZ:9897, V-B:ILE:538:CD1:9836, V-B:PRO:540:N:9855, H-A:TYR:539:N:4869, V-A:PRO:540:CD:4886, V-B:PRO:540:CD:9858, V-A:ILE:538:CB:4861, V-B:ILE:538:CA:9831, H-A:GLU:543:OE2:4909, V-A:GLU:543:CD:4907, V-A:ILE:538:CA:4859, V-A:TYR:539:CE2:4875, V-B:ILE:538:C:9829, V-B:ILE:538:CB:9833, V-B:SER:385:C:8375"]

$$$$
RR7_Rahimova_2017
     RDKit          3D

 47 53  0  0  0  0  0  0  0  0999 V2000
  132.1490  133.5180   55.8750 C   0  0  0  0  0  0  0  0  0  0  0  0
  130.7470  133.7420   55.7650 O   0  0  0  0  0  0  0  0  0  0  0  0
  129.8910  133.0880   56.6310 C   0  0  0  0  0  0  0  0  0  0  0  0
  129.8590  133.5530   57.9440 C   0  0  0  0  0  0  0  0  0  0  0  0
  129.0240  132.9610   58.8860 C   0  0  0  0  0  0  0  0  0  0  0  0
  128.2070  131.8750   58.5380 C   0  0  0  0  0  0  0  0  0  0  0  0
  127.2370  131.2120   59.5650 C   0  0  0  0  0  0  0  0  0  0  0  0
  127.7260  129.8690   59.7790 O   0  0  0  0  0  0  0  0  0  0  0  0
  126.8040  128.7830   59.9120 C   0  0  0  0  0  0  0  0  0  0  0  0
  126.4870  128.2210   58.5160 C   0  0  1  0  0  0  0  0  0  0  0  0
  127.3470  127.1020   58.3160 O   0  0  0  0  0  0  0  0  0  0  0  0
  126.6280  125.9260   58.0780 C   0  0  1  0  0  0  0  0  0  0  0  0
  127.3380  124.7870   58.6270 N   0  0  0  0  0  0  0  0  0  0  0  0
  128.1420  123.8810   57.9580 C   0  0  0  0  0  0  0  0  0  0  0  0
  128.6270  122.9120   58.6940 N   0  0  0  0  0  0  0  0  0  0  0  0
  128.0880  123.1400   59.9310 C   0  0  0  0  0  0  0  0  0  0  0  0
  128.2060  122.4490   61.1530 C   0  0  0  0  0  0  0  0  0  0  0  0
  129.0240  121.3040   61.2050 N   0  0  0  0  0  0  0  0  0  0  0  0
  130.3740  121.2230   61.2540 C   0  0  0  0  0  0  0  0  0  0  0  0
  131.1300  122.1980   61.2410 O   0  0  0  0  0  0  0  0  0  0  0  0
  130.9460  119.8220   61.2950 C   0  0  0  0  0  0  0  0  0  0  0  0
  132.2850  119.6070   60.9340 C   0  0  0  0  0  0  0  0  0  0  0  0
  132.8310  118.3280   60.9700 C   0  0  0  0  0  0  0  0  0  0  0  0
  132.0460  117.2520   61.3720 C   0  0  0  0  0  0  0  0  0  0  0  0
  130.7160  117.4440   61.7380 C   0  0  0  0  0  0  0  0  0  0  0  0
  130.1680  118.7240   61.7020 C   0  0  0  0  0  0  0  0  0  0  0  0
  127.5240  122.9050   62.2470 N   0  0  0  0  0  0  0  0  0  0  0  0
  126.7560  124.0160   62.0970 C   0  0  0  0  0  0  0  0  0  0  0  0
  126.5740  124.7580   60.9710 N   0  0  0  0  0  0  0  0  0  0  0  0
  127.2600  124.2910   59.9190 C   0  0  0  0  0  0  0  0  0  0  0  0
  125.2470  126.1720   58.6740 C   0  0  0  0  0  0  0  0  0  0  0  0
  125.0720  127.6470   58.3530 C   0  0  2  0  0  0  0  0  0  0  0  0
  124.5530  127.8490   57.0500 O   0  0  0  0  0  0  0  0  0  0  0  0
  127.2580  131.9260   60.9430 C   0  0  0  0  0  0  0  0  0  0  0  0
  126.7790  133.2400   61.0680 C   0  0  0  0  0  0  0  0  0  0  0  0
  126.8060  133.8940   62.2950 C   0  0  0  0  0  0  0  0  0  0  0  0
  127.3150  133.2410   63.4130 C   0  0  0  0  0  0  0  0  0  0  0  0
  127.7960  131.9390   63.3130 C   0  0  0  0  0  0  0  0  0  0  0  0
  127.7690  131.2850   62.0840 C   0  0  0  0  0  0  0  0  0  0  0  0
  125.7400  131.1590   59.1460 C   0  0  0  0  0  0  0  0  0  0  0  0
  125.3780  131.2550   57.7930 C   0  0  0  0  0  0  0  0  0  0  0  0
  124.0410  131.2180   57.4090 C   0  0  0  0  0  0  0  0  0  0  0  0
  123.0490  131.0920   58.3770 C   0  0  0  0  0  0  0  0  0  0  0  0
  123.3850  131.0080   59.7250 C   0  0  0  0  0  0  0  0  0  0  0  0
  124.7220  131.0460   60.1070 C   0  0  0  0  0  0  0  0  0  0  0  0
  128.2330  131.4200   57.2120 C   0  0  0  0  0  0  0  0  0  0  0  0
  129.0670  132.0140   56.2690 C   0  0  0  0  0  0  0  0  0  0  0  0
  1  2  1  0
  2  3  1  0
  3  4  2  0
  4  5  1  0
  5  6  2  0
  6  7  1  0
  7  8  1  0
  8  9  1  0
 10  9  1  1
 10 11  1  0
 11 12  1  0
 12 13  1  1
 13 14  1  0
 14 15  2  0
 15 16  1  0
 16 17  2  0
 17 18  1  0
 18 19  1  0
 19 20  2  0
 19 21  1  0
 21 22  2  0
 22 23  1  0
 23 24  2  0
 24 25  1  0
 25 26  2  0
 17 27  1  0
 27 28  2  0
 28 29  1  0
 29 30  2  0
 12 31  1  0
 31 32  1  0
 32 33  1  6
  7 34  1  0
 34 35  2  0
 35 36  1  0
 36 37  2  0
 37 38  1  0
 38 39  2  0
  7 40  1  0
 40 41  2  0
 41 42  1  0
 42 43  2  0
 43 44  1  0
 44 45  2  0
  6 46  1  0
 46 47  2  0
 47  3  1  0
 32 10  1  0
 39 34  1  0
 45 40  1  0
 30 13  1  0
 30 16  1  0
 26 21  1  0
M  END
>  <Binding energies>  (54) 
[-10.96]

>  <Ligand effiencies>  (54) 
[-0.22367346938775512]

>  <Interactions>  (54) 
["V-B:ILE:369:CB:8206, V-A:TYR:539:CD1:4872, V-A:TYR:539:C:4866, H-B:TYR:531:OH:9766, V-A:TYR:531:CE2:4792, V-A:LEU:363:CD1:3188, V-A:PRO:540:N:4883, V-B:TYR:539:CD2:9845, V-B:MET:535:CE:9806, V-A:TYR:539:CA:4868, V-B:ILE:369:CG2:8207, V-A:PRO:540:CA:4882, V-B:TYR:539:C:9838, V-A:TYR:539:CE1:4874, V-B:ASP:366:CG:8183, V-B:TYR:539:CE2:9847, V-B:ASP:366:CB:8182, V-A:ALA:541:CB:4891, V-B:LEU:475:CD1:9228, V-B:PRO:540:CA:9854, H-A:TYR:539:N:4869, V-A:TYR:539:CG:4871, V-A:ILE:538:CB:4861, V-A:LEU:475:CD2:4258, V-B:ALA:541:CB:9863, V-A:HIS:383:CE1:3393, V-A:SER:385:CA:3406, V-A:SER:385:CB:3408, V-A:ILE:538:CA:4859, V-A:ILE:538:CG2:4862, V-B:ASP:366:CA:8180, V-B:ASP:366:C:8178, V-B:PRO:540:C:9852, H-B:ALA:541:N:9862, H-B:TYR:539:O:9839, V-A:PRO:482:CG:4326, V-A:THR:477:CG2:4272, V-A:PRO:482:CB:4325, H-B:PRO:540:O:9853"]

$$$$
RR8_A_Rahimova_2017
     RDKit          3D

 42 46  0  0  0  0  0  0  0  0999 V2000
  127.0030  123.1720   62.3830 O   0  0  0  0  0  0  0  0  0  0  0  0
  127.4370  123.8360   61.4350 C   0  0  0  0  0  0  0  0  0  0  0  0
  128.2520  124.9290   61.5660 O   0  0  0  0  0  0  0  0  0  0  0  0
  129.5200  124.7290   62.1260 C   0  0  1  0  0  0  0  0  0  0  0  0
  129.4630  124.6600   63.5210 O   0  0  0  0  0  0  0  0  0  0  0  0
  130.3630  123.6860   64.0410 C   0  0  2  0  0  0  0  0  0  0  0  0
  131.2910  124.3700   65.0610 C   0  0  0  0  0  0  0  0  0  0  0  0
  130.4970  124.9400   66.0920 O   0  0  0  0  0  0  0  0  0  0  0  0
  130.9960  126.1740   66.5900 C   0  0  0  0  0  0  0  0  0  0  0  0
  130.1480  126.6360   67.7670 C   0  0  0  0  0  0  0  0  0  0  0  0
  130.0690  127.9960   68.0770 C   0  0  0  0  0  0  0  0  0  0  0  0
  129.2890  128.4220   69.1500 C   0  0  0  0  0  0  0  0  0  0  0  0
  128.5860  127.4870   69.9060 C   0  0  0  0  0  0  0  0  0  0  0  0
  128.6540  126.1290   69.6000 C   0  0  0  0  0  0  0  0  0  0  0  0
  129.4330  125.7040   68.5270 C   0  0  0  0  0  0  0  0  0  0  0  0
  131.0550  123.1250   62.7920 C   0  0  1  0  0  0  0  0  0  0  0  0
  131.2820  121.7190   62.8600 O   0  0  0  0  0  0  0  0  0  0  0  0
  130.3660  120.9100   62.1320 C   0  0  0  0  0  0  0  0  0  0  0  0
  131.1200  119.8400   61.3550 C   0  0  0  0  0  0  0  0  0  0  0  0
  132.3690  120.1380   60.8000 C   0  0  0  0  0  0  0  0  0  0  0  0
  133.0610  119.1680   60.0800 C   0  0  0  0  0  0  0  0  0  0  0  0
  132.5010  117.9020   59.9130 C   0  0  0  0  0  0  0  0  0  0  0  0
  131.2550  117.5990   60.4560 C   0  0  0  0  0  0  0  0  0  0  0  0
  130.5620  118.5700   61.1750 C   0  0  0  0  0  0  0  0  0  0  0  0
  130.0390  123.3650   61.6910 C   0  0  2  0  0  0  0  0  0  0  0  0
  130.6730  123.3730   60.4150 O   0  0  0  0  0  0  0  0  0  0  0  0
  131.6480  124.3910   60.2170 C   0  0  0  0  0  0  0  0  0  0  0  0
  131.4560  125.0350   58.8530 C   0  0  0  0  0  0  0  0  0  0  0  0
  130.1790  125.1190   58.2870 C   0  0  0  0  0  0  0  0  0  0  0  0
  130.0070  125.7180   57.0420 C   0  0  0  0  0  0  0  0  0  0  0  0
  131.1100  126.2350   56.3670 C   0  0  0  0  0  0  0  0  0  0  0  0
  132.3840  126.1610   56.9250 C   0  0  0  0  0  0  0  0  0  0  0  0
  132.5570  125.5610   58.1710 C   0  0  0  0  0  0  0  0  0  0  0  0
  127.1280  123.5130   60.0020 C   0  0  0  0  0  0  0  0  0  0  0  0
  125.9370  123.9300   59.3870 C   0  0  0  0  0  0  0  0  0  0  0  0
  125.6800  123.6130   58.0560 C   0  0  0  0  0  0  0  0  0  0  0  0
  126.6020  122.8710   57.3070 C   0  0  0  0  0  0  0  0  0  0  0  0
  126.3260  122.5350   55.8890 N   0  0  0  0  0  0  0  0  0  0  0  0
  125.3800  123.0810   55.3280 O   0  0  0  0  0  0  0  0  0  0  0  0
  127.0550  121.7240   55.3240 O   0  0  0  0  0  0  0  0  0  0  0  0
  127.7880  122.4530   57.9220 C   0  0  0  0  0  0  0  0  0  0  0  0
  128.0480  122.7690   59.2520 C   0  0  0  0  0  0  0  0  0  0  0  0
  1  2  2  0
  2  3  1  0
  4  3  1  6
  4  5  1  0
  5  6  1  0
  6  7  1  1
  7  8  1  0
  8  9  1  0
  9 10  1  0
 10 11  2  0
 11 12  1  0
 12 13  2  0
 13 14  1  0
 14 15  2  0
  6 16  1  0
 16 17  1  1
 17 18  1  0
 18 19  1  0
 19 20  2  0
 20 21  1  0
 21 22  2  0
 22 23  1  0
 23 24  2  0
 16 25  1  0
 25 26  1  6
 26 27  1  0
 27 28  1  0
 28 29  2  0
 29 30  1  0
 30 31  2  0
 31 32  1  0
 32 33  2  0
  2 34  1  0
 34 35  2  0
 35 36  1  0
 36 37  2  0
 37 38  1  0
 38 39  2  0
 38 40  1  0
 37 41  1  0
 41 42  2  0
 25  4  1  0
 33 28  1  0
 42 34  1  0
 15 10  1  0
 24 19  1  0
M  CHG  2  38   1  40  -1
M  END
>  <Binding energies>  (55) 
[-11.95]

>  <Ligand effiencies>  (55) 
[-0.2845238095238095]

>  <Interactions>  (55) 
["V-B:TYR:539:CZ:9848, V-A:ASP:366:CG:3212, H-B:TYR:531:OH:9766, V-B:TYR:539:CD2:9845, V-B:MET:535:CE:9806, V-B:TYR:539:C:9838, V-B:TYR:539:CA:9840, V-B:TYR:539:CG:9843, V-B:TYR:539:CE2:9847, V-B:MET:535:CG:9804, H-B:TYR:539:N:9841, V-B:PRO:540:CA:9854, V-B:PRO:540:CB:9856, V-B:PRO:540:N:9855, V-B:GLU:543:CD:9879, H-A:TYR:484:OH:4347, V-B:GLU:543:CG:9878, V-A:LEU:475:CD2:4258, V-B:ALA:541:CB:9863, V-A:HIS:383:CE1:3393, V-A:ILE:369:CG2:3236, V-B:ILE:538:CA:9831, V-A:SER:385:CA:3406, V-B:TYR:539:CB:9842, V-A:TYR:484:CZ:4346, V-A:TYR:484:CE2:4345, V-A:GLU:543:CD:4907, V-A:ASP:366:CB:3211, V-A:ASP:366:CA:3209, V-A:ASP:366:C:3207, V-A:TYR:531:CE1:4791, H-B:ALA:541:N:9862, V-B:GLU:543:CB:9877, V-A:HIS:456:CE1:4069, V-B:HIS:456:CE1:9040, V-A:GLU:543:CB:4905"]

$$$$
RR8_B_Rahimova_2017
     RDKit          3D

 42 46  0  0  0  0  0  0  0  0999 V2000
  126.2240  123.1750   62.8660 O   0  0  0  0  0  0  0  0  0  0  0  0
  127.1900  123.2490   62.1010 C   0  0  0  0  0  0  0  0  0  0  0  0
  128.4820  123.4460   62.5050 O   0  0  0  0  0  0  0  0  0  0  0  0
  129.0650  122.4890   63.3540 C   0  0  2  0  0  0  0  0  0  0  0  0
  129.3260  123.0100   64.6270 O   0  0  0  0  0  0  0  0  0  0  0  0
  130.6440  123.5510   64.7090 C   0  0  2  0  0  0  0  0  0  0  0  0
  130.5650  125.0360   65.1080 C   0  0  0  0  0  0  0  0  0  0  0  0
  130.5580  125.1400   66.5260 O   0  0  0  0  0  0  0  0  0  0  0  0
  130.9940  126.3910   67.0360 C   0  0  0  0  0  0  0  0  0  0  0  0
  130.1180  126.7840   68.2160 C   0  0  0  0  0  0  0  0  0  0  0  0
  130.0990  128.1110   68.6540 C   0  0  0  0  0  0  0  0  0  0  0  0
  129.3180  128.4730   69.7490 C   0  0  0  0  0  0  0  0  0  0  0  0
  128.5570  127.5050   70.4010 C   0  0  0  0  0  0  0  0  0  0  0  0
  128.5650  126.1820   69.9660 C   0  0  0  0  0  0  0  0  0  0  0  0
  129.3490  125.8200   68.8730 C   0  0  0  0  0  0  0  0  0  0  0  0
  131.2570  123.2690   63.3330 C   0  0  1  0  0  0  0  0  0  0  0  0
  132.6490  122.9730   63.4720 O   0  0  0  0  0  0  0  0  0  0  0  0
  133.5690  123.8460   62.8120 C   0  0  0  0  0  0  0  0  0  0  0  0
  133.1140  124.2040   61.4000 C   0  0  0  0  0  0  0  0  0  0  0  0
  132.0090  125.0380   61.2110 C   0  0  0  0  0  0  0  0  0  0  0  0
  131.6150  125.3890   59.9220 C   0  0  0  0  0  0  0  0  0  0  0  0
  132.3260  124.9010   58.8270 C   0  0  0  0  0  0  0  0  0  0  0  0
  133.4250  124.0650   59.0080 C   0  0  0  0  0  0  0  0  0  0  0  0
  133.8210  123.7160   60.2980 C   0  0  0  0  0  0  0  0  0  0  0  0
  130.4380  122.0940   62.8110 C   0  0  2  0  0  0  0  0  0  0  0  0
  130.4990  122.0380   61.3880 O   0  0  0  0  0  0  0  0  0  0  0  0
  131.6580  121.4230   60.8470 C   0  0  0  0  0  0  0  0  0  0  0  0
  131.5000  119.9180   60.9750 C   0  0  0  0  0  0  0  0  0  0  0  0
  130.3140  119.3720   61.4720 C   0  0  0  0  0  0  0  0  0  0  0  0
  130.1880  117.9910   61.6040 C   0  0  0  0  0  0  0  0  0  0  0  0
  131.2470  117.1620   61.2400 C   0  0  0  0  0  0  0  0  0  0  0  0
  132.4330  117.7000   60.7420 C   0  0  0  0  0  0  0  0  0  0  0  0
  132.5590  119.0800   60.6100 C   0  0  0  0  0  0  0  0  0  0  0  0
  127.0630  123.1680   60.6070 C   0  0  0  0  0  0  0  0  0  0  0  0
  125.9240  123.6350   59.9350 C   0  0  0  0  0  0  0  0  0  0  0  0
  125.8300  123.5390   58.5510 C   0  0  0  0  0  0  0  0  0  0  0  0
  126.8660  122.9650   57.8040 C   0  0  0  0  0  0  0  0  0  0  0  0
  126.7520  122.8400   56.3300 N   0  0  0  0  0  0  0  0  0  0  0  0
  127.4900  122.0500   55.7480 O   0  0  0  0  0  0  0  0  0  0  0  0
  125.9190  123.5270   55.7440 O   0  0  0  0  0  0  0  0  0  0  0  0
  128.0060  122.5050   58.4740 C   0  0  0  0  0  0  0  0  0  0  0  0
  128.1050  122.6070   59.8580 C   0  0  0  0  0  0  0  0  0  0  0  0
  1  2  2  0
  2  3  1  0
  4  3  1  6
  4  5  1  0
  5  6  1  0
  6  7  1  6
  7  8  1  0
  8  9  1  0
  9 10  1  0
 10 11  2  0
 11 12  1  0
 12 13  2  0
 13 14  1  0
 14 15  2  0
  6 16  1  0
 16 17  1  1
 17 18  1  0
 18 19  1  0
 19 20  2  0
 20 21  1  0
 21 22  2  0
 22 23  1  0
 23 24  2  0
 16 25  1  0
 25 26  1  6
 26 27  1  0
 27 28  1  0
 28 29  2  0
 29 30  1  0
 30 31  2  0
 31 32  1  0
 32 33  2  0
  2 34  1  0
 34 35  2  0
 35 36  1  0
 36 37  2  0
 37 38  1  0
 38 39  2  0
 38 40  1  0
 37 41  1  0
 41 42  2  0
 25  4  1  0
 33 28  1  0
 42 34  1  0
 15 10  1  0
 24 19  1  0
M  CHG  2  38   1  40  -1
M  END
>  <Binding energies>  (56) 
[-11.96]

>  <Ligand effiencies>  (56) 
[-0.28476190476190477]

>  <Interactions>  (56) 
["V-B:TYR:539:CZ:9848, V-A:ASP:366:CG:3212, H-B:TYR:531:OH:9766, V-B:TYR:539:CD2:9845, V-B:MET:535:CE:9806, V-B:TYR:539:C:9838, V-B:TYR:539:CG:9843, V-B:TYR:539:CE2:9847, H-B:TYR:539:N:9841, V-B:PRO:540:CA:9854, V-B:PRO:540:CB:9856, V-B:PRO:540:N:9855, V-B:GLU:543:CD:9879, H-A:TYR:484:OH:4347, V-A:ILE:369:CD1:3238, V-A:LEU:475:CD2:4258, V-B:ALA:541:CB:9863, V-A:HIS:383:CE1:3393, V-A:ILE:369:CG2:3236, V-A:SER:385:CA:3406, V-A:SER:385:CB:3408, V-A:GLY:454:CA:4048, V-B:ALA:541:CA:9861, V-A:TYR:484:CE2:4345, V-A:ASP:366:CB:3211, V-A:ASP:366:CA:3209, V-A:ILE:369:CB:3235, V-A:ILE:369:CG1:3237, V-B:PRO:540:C:9852, H-B:ALA:541:N:9862, V-B:GLU:543:CB:9877, V-B:GLU:543:C:9873, V-A:HIS:456:CE1:4069, V-B:HIS:456:CE1:9040, V-A:PRO:482:CG:4326, V-A:PRO:482:CB:4325, V-A:GLU:543:CB:4905"]

$$$$
RR9_Rahimova_2017
     RDKit          3D

 36 40  0  0  0  0  0  0  0  0999 V2000
  127.7120  126.9000   70.2000 C   0  0  0  0  0  0  0  0  0  0  0  0
  126.2020  126.7810   69.9730 C   0  0  0  0  0  0  0  0  0  0  0  0
  125.6900  128.0620   69.6170 O   0  0  0  0  0  0  0  0  0  0  0  0
  125.5220  128.3780   68.2830 C   0  0  0  0  0  0  0  0  0  0  0  0
  124.2770  128.8860   67.9140 C   0  0  0  0  0  0  0  0  0  0  0  0
  124.0150  129.2300   66.5920 C   0  0  0  0  0  0  0  0  0  0  0  0
  124.9930  129.0770   65.5980 C   0  0  0  0  0  0  0  0  0  0  0  0
  124.7150  129.4420   64.1700 C   0  0  0  0  0  0  0  0  0  0  0  0
  125.4230  128.8560   63.1090 C   0  0  0  0  0  0  0  0  0  0  0  0
  125.1500  129.1930   61.7710 C   0  0  0  0  0  0  0  0  0  0  0  0
  125.8720  128.4570   60.6760 C   0  0  0  0  0  0  0  0  0  0  0  0
  126.6130  129.0630   59.9020 O   0  0  0  0  0  0  0  0  0  0  0  0
  125.6300  127.1330   60.6010 N   0  0  0  0  0  0  0  0  0  0  0  0
  126.1090  126.2300   59.5500 C   0  0  0  0  0  0  0  0  0  0  0  0
  125.2980  124.9160   59.4650 C   0  0  0  0  0  0  0  0  0  0  0  0
  125.6380  124.0340   58.2680 C   0  0  0  0  0  0  0  0  0  0  0  0
  126.9560  123.6180   58.0550 C   0  0  0  0  0  0  0  0  0  0  0  0
  127.2570  122.7840   56.9810 C   0  0  0  0  0  0  0  0  0  0  0  0
  126.2410  122.3730   56.1220 C   0  0  0  0  0  0  0  0  0  0  0  0
  124.9260  122.7870   56.3250 C   0  0  0  0  0  0  0  0  0  0  0  0
  124.6240  123.6200   57.4000 C   0  0  0  0  0  0  0  0  0  0  0  0
  124.1490  130.1740   61.5640 C   0  0  0  0  0  0  0  0  0  0  0  0
  123.5310  130.8800   60.4660 C   0  0  0  0  0  0  0  0  0  0  0  0
  123.8520  130.8360   59.0090 C   0  0  0  0  0  0  0  0  0  0  0  0
  123.8910  132.0160   58.2610 C   0  0  0  0  0  0  0  0  0  0  0  0
  124.1750  131.9720   56.8980 C   0  0  0  0  0  0  0  0  0  0  0  0
  124.4250  130.7460   56.2790 C   0  0  0  0  0  0  0  0  0  0  0  0
  124.7160  130.6940   54.7900 C   0  0  0  0  0  0  0  0  0  0  0  0
  124.3850  129.5650   57.0220 C   0  0  0  0  0  0  0  0  0  0  0  0
  124.1030  129.6120   58.3840 C   0  0  0  0  0  0  0  0  0  0  0  0
  122.5740  131.6670   60.9050 N   0  0  0  0  0  0  0  0  0  0  0  0
  122.5480  131.5790   62.2440 N   0  0  0  0  0  0  0  0  0  0  0  0
  123.4930  130.6930   62.7050 C   0  0  0  0  0  0  0  0  0  0  0  0
  123.7390  130.3720   63.9750 N   0  0  0  0  0  0  0  0  0  0  0  0
  126.2420  128.5640   65.9760 C   0  0  0  0  0  0  0  0  0  0  0  0
  126.5080  128.2190   67.3000 C   0  0  0  0  0  0  0  0  0  0  0  0
  1  2  1  0
  2  3  1  0
  3  4  1  0
  4  5  2  0
  5  6  1  0
  6  7  2  0
  7  8  1  0
  8  9  2  0
  9 10  1  0
 10 11  1  0
 11 12  2  0
 11 13  1  0
 13 14  1  0
 14 15  1  0
 15 16  1  0
 16 17  2  0
 17 18  1  0
 18 19  2  0
 19 20  1  0
 20 21  2  0
 10 22  2  0
 22 23  1  0
 23 24  1  0
 24 25  2  0
 25 26  1  0
 26 27  2  0
 27 28  1  0
 27 29  1  0
 29 30  2  0
 23 31  2  0
 31 32  1  0
 32 33  1  0
 33 34  2  0
  7 35  1  0
 35 36  2  0
 36  4  1  0
 34  8  1  0
 21 16  1  0
 33 22  1  0
 30 24  1  0
M  END
>  <Binding energies>  (57) 
[-10.24]

>  <Ligand effiencies>  (57) 
[-0.2694736842105263]

>  <Interactions>  (57) 
["V-B:LEU:363:CD1:8159, V-B:TYR:531:CZ:9765, V-A:TYR:539:CZ:4876, V-B:ILE:369:CB:8206, V-B:TYR:531:CE2:9764, V-B:ASN:370:CB:8215, V-B:TYR:531:CE1:9763, V-B:MET:535:CE:9806, V-B:ILE:369:CG2:8207, V-B:TYR:539:C:9838, V-A:TYR:539:CE1:4874, V-B:ASP:366:CG:8183, V-B:ASP:366:CB:8182, V-B:GLY:453:CA:9014, V-B:ILE:369:CG1:8208, V-B:GLY:453:C:9012, V-B:PRO:540:CB:9856, V-B:ARG:545:CZ:9897, V-B:PRO:540:N:9855, H-B:GLY:454:N:9020, V-B:PRO:540:CD:9858, V-B:GLU:543:CD:9879, V-B:ILE:538:CA:9831, V-B:ASP:366:CA:8180, V-B:ASP:366:C:8178, V-B:GLU:543:CB:9877, V-B:GLU:543:C:9873, V-B:GLY:544:C:9883, V-B:HIS:456:CE1:9040, V-B:ASN:370:CG:8216, V-B:TYR:531:CD1:9761, V-B:ARG:545:CG:9893, H-B:ASP:366:OD1:8184, V-B:ARG:545:CD:9894, H-B:ASP:366:OD2:8185, V-B:ARG:545:CB:9892, V-B:ARG:545:CA:9890, H-B:SER:385:O:8376, H-B:HIS:456:ND1:9037"]

$$$$
