1a_Grossjean_2025
     RDKit          3D

 26 27  0  0  0  0  0  0  0  0999 V2000
  124.4310  123.5570   57.8600 C   0  0  0  0  0  0  0  0  0  0  0  0
  124.8480  122.8110   56.5890 C   0  0  0  0  0  0  0  0  0  0  0  0
  126.1020  123.3060   56.1380 O   0  0  0  0  0  0  0  0  0  0  0  0
  127.2250  123.1580   56.8890 C   0  0  0  0  0  0  0  0  0  0  0  0
  127.6640  122.0610   57.2460 O   0  0  0  0  0  0  0  0  0  0  0  0
  127.8690  124.4640   57.2560 C   0  0  0  0  0  0  0  0  0  0  0  0
  129.2670  124.5470   57.3040 C   0  0  0  0  0  0  0  0  0  0  0  0
  129.8930  125.7420   57.6450 C   0  0  0  0  0  0  0  0  0  0  0  0
  129.1390  126.8760   57.9460 C   0  0  0  0  0  0  0  0  0  0  0  0
  129.8770  128.0290   58.2800 N   0  0  0  0  0  0  0  0  0  0  0  0
  131.1850  128.3060   58.0970 C   0  0  0  0  0  0  0  0  0  0  0  0
  132.0090  127.5550   57.5730 O   0  0  0  0  0  0  0  0  0  0  0  0
  131.6410  129.6780   58.5960 C   0  0  0  0  0  0  0  0  0  0  0  0
  130.2410  130.7960   58.9030 S   0  0  0  0  0  0  0  0  0  0  0  0
  129.3910  131.0240   57.3570 C   0  0  0  0  0  0  0  0  0  0  0  0
  128.4720  130.0610   57.0900 N   0  0  0  0  0  0  0  0  0  0  0  0
  127.7700  130.1350   55.9350 C   0  0  0  0  0  0  0  0  0  0  0  0
  126.7710  129.0170   55.6990 C   0  0  0  0  0  0  0  0  0  0  0  0
  127.9430  131.1640   55.0130 C   0  0  0  0  0  0  0  0  0  0  0  0
  128.8730  132.1730   55.2880 C   0  0  0  0  0  0  0  0  0  0  0  0
  129.0350  133.3000   54.2700 C   0  0  0  0  0  0  0  0  0  0  0  0
  129.6160  132.1200   56.4900 C   0  0  0  0  0  0  0  0  0  0  0  0
  130.5590  133.1910   56.8220 C   0  0  0  0  0  0  0  0  0  0  0  0
  131.3040  134.0370   57.0820 N   0  0  0  0  0  0  0  0  0  0  0  0
  127.7390  126.8050   57.8930 C   0  0  0  0  0  0  0  0  0  0  0  0
  127.1130  125.6090   57.5520 C   0  0  0  0  0  0  0  0  0  0  0  0
  1  2  1  0
  2  3  1  0
  3  4  1  0
  4  5  2  0
  4  6  1  0
  6  7  2  0
  7  8  1  0
  8  9  2  0
  9 10  1  0
 10 11  1  0
 11 12  2  0
 11 13  1  0
 13 14  1  0
 14 15  1  0
 15 16  2  0
 16 17  1  0
 17 18  1  0
 17 19  2  0
 19 20  1  0
 20 21  1  0
 20 22  2  0
 22 23  1  0
 23 24  3  0
  9 25  1  0
 25 26  2  0
 26  6  1  0
 22 15  1  0
M  END
>  <Binding energies>  (1) 
[-7.15]

>  <Ligand effiencies>  (1) 
[-0.26481481481481484]

>  <Interactions>  (1) 
["V-B:LEU:363:CD1:8159, V-B:TYR:531:CZ:9765, V-A:TYR:539:CZ:4876, V-A:TYR:539:C:4866, V-B:TYR:539:CZ:9848, V-A:MET:535:CB:4831, V-B:TYR:531:CE2:9764, V-A:MET:535:CG:4832, V-B:TYR:531:CE1:9763, H-B:TYR:531:OH:9766, V-A:PRO:540:N:4883, V-B:MET:535:CE:9806, V-A:TYR:539:CE1:4874, V-B:TYR:539:CE2:9847, H-B:TYR:539:N:9841, V-B:PRO:540:CB:9856, H-A:TYR:539:N:4869, V-B:PRO:540:CD:9858, H-A:TYR:531:OH:4794, V-A:ASP:366:CB:3211, V-A:MET:535:CE:4834, V-A:ILE:538:CA:4859, V-A:TYR:539:CE2:4875"]

$$$$
1aa_Ghoteimi_2023
     RDKit          3D

 40 43  0  0  0  0  0  0  0  0999 V2000
  130.3660  117.1360   60.6640 C   0  0  0  0  0  0  0  0  0  0  0  0
  131.5270  117.0910   61.6610 C   0  0  0  0  0  0  0  0  0  0  0  0
  132.7320  117.4610   61.0020 O   0  0  0  0  0  0  0  0  0  0  0  0
  132.8090  118.6020   60.2710 C   0  0  0  0  0  0  0  0  0  0  0  0
  133.1310  118.6260   59.0790 O   0  0  0  0  0  0  0  0  0  0  0  0
  132.4640  119.8350   61.0570 C   0  0  0  0  0  0  0  0  0  0  0  0
  133.4230  120.5240   61.8160 C   0  0  0  0  0  0  0  0  0  0  0  0
  133.0740  121.6650   62.5340 C   0  0  0  0  0  0  0  0  0  0  0  0
  131.7550  122.1400   62.5020 C   0  0  0  0  0  0  0  0  0  0  0  0
  131.2880  123.2780   63.1860 N   0  0  0  0  0  0  0  0  0  0  0  0
  131.9670  124.2460   63.8450 C   0  0  0  0  0  0  0  0  0  0  0  0
  133.1920  124.2940   63.9560 O   0  0  0  0  0  0  0  0  0  0  0  0
  131.1420  125.3650   64.4980 C   0  0  0  0  0  0  0  0  0  0  0  0
  129.8490  125.4580   63.8860 O   0  0  0  0  0  0  0  0  0  0  0  0
  129.7300  125.7870   62.5430 C   0  0  0  0  0  0  0  0  0  0  0  0
  130.3060  126.9440   62.1130 N   0  0  0  0  0  0  0  0  0  0  0  0
  130.2000  127.3080   60.8080 C   0  0  0  0  0  0  0  0  0  0  0  0
  130.8640  128.5960   60.4140 C   0  0  0  0  0  0  0  0  0  0  0  0
  131.2270  128.8430   59.0820 C   0  0  0  0  0  0  0  0  0  0  0  0
  131.8450  130.0350   58.7150 C   0  0  0  0  0  0  0  0  0  0  0  0
  132.1170  131.0170   59.6650 C   0  0  0  0  0  0  0  0  0  0  0  0
  132.7330  132.1660   59.2090 O   0  0  0  0  0  0  0  0  0  0  0  0
  132.7640  132.4290   57.8100 C   0  0  0  0  0  0  0  0  0  0  0  0
  131.7560  130.7870   60.9990 C   0  0  0  0  0  0  0  0  0  0  0  0
  131.1380  129.5940   61.3640 C   0  0  0  0  0  0  0  0  0  0  0  0
  129.5200  126.4940   59.8940 C   0  0  0  0  0  0  0  0  0  0  0  0
  128.9280  125.2930   60.3080 C   0  0  0  0  0  0  0  0  0  0  0  0
  128.2270  124.4650   59.2820 C   0  0  0  0  0  0  0  0  0  0  0  0
  128.8700  123.3640   58.7070 C   0  0  0  0  0  0  0  0  0  0  0  0
  128.2190  122.5810   57.7580 C   0  0  0  0  0  0  0  0  0  0  0  0
  126.9140  122.8770   57.3680 C   0  0  0  0  0  0  0  0  0  0  0  0
  126.3480  122.0460   56.4200 O   0  0  0  0  0  0  0  0  0  0  0  0
  125.1700  122.4660   55.7420 C   0  0  0  0  0  0  0  0  0  0  0  0
  126.2620  123.9760   57.9480 C   0  0  0  0  0  0  0  0  0  0  0  0
  126.9140  124.7580   58.8970 C   0  0  0  0  0  0  0  0  0  0  0  0
  129.0290  124.9360   61.6720 C   0  0  0  0  0  0  0  0  0  0  0  0
  128.4060  123.7230   62.2050 C   0  0  0  0  0  0  0  0  0  0  0  0
  127.9140  122.7650   62.6280 N   0  0  0  0  0  0  0  0  0  0  0  0
  130.7990  121.4560   61.7500 C   0  0  0  0  0  0  0  0  0  0  0  0
  131.1490  120.3160   61.0340 C   0  0  0  0  0  0  0  0  0  0  0  0
  1  2  1  0
  2  3  1  0
  3  4  1  0
  4  5  2  0
  4  6  1  0
  6  7  2  0
  7  8  1  0
  8  9  2  0
  9 10  1  0
 10 11  1  0
 11 12  2  0
 11 13  1  0
 13 14  1  0
 14 15  1  0
 15 16  2  0
 16 17  1  0
 17 18  1  0
 18 19  2  0
 19 20  1  0
 20 21  2  0
 21 22  1  0
 22 23  1  0
 21 24  1  0
 24 25  2  0
 17 26  2  0
 26 27  1  0
 27 28  1  0
 28 29  2  0
 29 30  1  0
 30 31  2  0
 31 32  1  0
 32 33  1  0
 31 34  1  0
 34 35  2  0
 27 36  2  0
 36 37  1  0
 37 38  3  0
  9 39  1  0
 39 40  2  0
 40  6  1  0
 36 15  1  0
 25 18  1  0
 35 28  1  0
M  END
>  <Binding energies>  (2) 
[-8.51]

>  <Ligand effiencies>  (2) 
[-0.2075609756097561]

>  <Interactions>  (2) 
["V-B:LEU:363:CD1:8159, V-A:PRO:540:CB:4884, V-B:TYR:539:CZ:9848, V-B:TYR:531:CE2:9764, V-A:ASP:366:CG:3212, V-A:TYR:531:CE2:4792, V-A:LEU:363:CD1:3188, V-B:TYR:539:CD2:9845, V-B:MET:535:CE:9806, V-B:TYR:539:CE1:9846, V-A:PRO:540:CA:4882, V-B:TYR:539:C:9838, V-B:TYR:539:CD1:9844, V-B:TYR:539:CG:9843, V-B:TYR:539:CE2:9847, V-B:ILE:538:CG2:9834, H-B:TYR:539:N:9841, V-B:PRO:540:CA:9854, V-B:ILE:538:CD1:9836, V-B:PRO:540:N:9855, V-B:PRO:540:CD:9858, H-A:GLY:454:N:4049, V-A:LEU:475:CD2:4258, V-A:SER:385:C:3404, V-A:HIS:383:CE1:3393, V-B:ILE:538:CA:9831, V-A:SER:385:CA:3406, V-B:TYR:539:CB:9842, H-A:HIS:383:ND1:3390, V-A:SER:385:CB:3408, V-A:ASP:366:CB:3211, V-B:VAL:344:CG1:7971, H-B:ALA:541:N:9862, V-A:PRO:482:CG:4326, V-A:THR:477:CG2:4272, V-A:PRO:482:CB:4325"]

$$$$
1b_Grossjean_2025
     RDKit          3D

 25 26  0  0  0  0  0  0  0  0999 V2000
  124.5980  123.9190   57.9880 C   0  0  0  0  0  0  0  0  0  0  0  0
  125.5450  123.9680   56.9280 O   0  0  0  0  0  0  0  0  0  0  0  0
  126.4930  123.0060   56.7950 C   0  0  0  0  0  0  0  0  0  0  0  0
  126.3820  122.0420   56.0300 O   0  0  0  0  0  0  0  0  0  0  0  0
  127.6970  123.2330   57.6640 C   0  0  0  0  0  0  0  0  0  0  0  0
  128.6580  124.2100   57.3610 C   0  0  0  0  0  0  0  0  0  0  0  0
  129.7620  124.3940   58.1870 C   0  0  0  0  0  0  0  0  0  0  0  0
  129.9310  123.6120   59.3300 C   0  0  0  0  0  0  0  0  0  0  0  0
  131.0840  123.8850   60.0890 N   0  0  0  0  0  0  0  0  0  0  0  0
  132.3390  124.1840   59.6890 C   0  0  0  0  0  0  0  0  0  0  0  0
  132.7140  124.2820   58.5210 O   0  0  0  0  0  0  0  0  0  0  0  0
  133.3460  124.4250   60.8160 C   0  0  0  0  0  0  0  0  0  0  0  0
  133.8450  122.8790   61.6320 S   0  0  0  0  0  0  0  0  0  0  0  0
  132.3960  121.8530   61.7560 C   0  0  0  0  0  0  0  0  0  0  0  0
  131.3830  122.4210   62.4570 N   0  0  0  0  0  0  0  0  0  0  0  0
  130.2310  121.7270   62.6120 C   0  0  0  0  0  0  0  0  0  0  0  0
  129.1370  122.4310   63.3940 C   0  0  0  0  0  0  0  0  0  0  0  0
  130.0480  120.4480   62.0910 C   0  0  0  0  0  0  0  0  0  0  0  0
  131.0940  119.8450   61.3860 C   0  0  0  0  0  0  0  0  0  0  0  0
  130.8760  118.4360   60.8380 C   0  0  0  0  0  0  0  0  0  0  0  0
  132.3070  120.5510   61.2110 C   0  0  0  0  0  0  0  0  0  0  0  0
  133.4320  119.9220   60.5140 C   0  0  0  0  0  0  0  0  0  0  0  0
  134.3190  119.4230   59.9640 N   0  0  0  0  0  0  0  0  0  0  0  0
  128.9740  122.6340   59.6400 C   0  0  0  0  0  0  0  0  0  0  0  0
  127.8700  122.4500   58.8130 C   0  0  0  0  0  0  0  0  0  0  0  0
  1  2  1  0
  2  3  1  0
  3  4  2  0
  3  5  1  0
  5  6  2  0
  6  7  1  0
  7  8  2  0
  8  9  1  0
  9 10  1  0
 10 11  2  0
 10 12  1  0
 12 13  1  0
 13 14  1  0
 14 15  2  0
 15 16  1  0
 16 17  1  0
 16 18  2  0
 18 19  1  0
 19 20  1  0
 19 21  2  0
 21 22  1  0
 22 23  3  0
  8 24  1  0
 24 25  2  0
 25  5  1  0
 21 14  1  0
M  END
>  <Binding energies>  (3) 
[-7.67]

>  <Ligand effiencies>  (3) 
[-0.295]

>  <Interactions>  (3) 
["V-B:LEU:363:CD1:8159, V-B:TYR:539:CZ:9848, V-A:ASP:366:CG:3212, H-B:TYR:531:OH:9766, V-B:TYR:539:CD2:9845, V-B:MET:535:CE:9806, V-B:TYR:539:C:9838, V-B:TYR:539:CE2:9847, H-B:TYR:539:N:9841, V-B:PRO:540:CA:9854, V-B:PRO:540:CB:9856, V-B:PRO:540:N:9855, V-A:ILE:369:CD1:3238, V-A:LEU:475:CD2:4258, V-B:ALA:541:CB:9863, V-A:ILE:369:CG2:3236, V-A:SER:385:CA:3406, V-B:TYR:539:CB:9842, V-B:ALA:541:CA:9861, V-A:ASP:366:CB:3211, H-B:TYR:539:OH:9849"]

$$$$
1c_Grossjean_2025
     RDKit          3D

 23 24  0  0  0  0  0  0  0  0999 V2000
  125.2070  122.2640   55.7560 C   0  0  0  0  0  0  0  0  0  0  0  0
  126.1940  123.2060   56.1630 O   0  0  0  0  0  0  0  0  0  0  0  0
  126.6520  123.1800   57.4660 C   0  0  0  0  0  0  0  0  0  0  0  0
  125.8020  123.7150   58.4350 C   0  0  0  0  0  0  0  0  0  0  0  0
  126.1740  123.7340   59.7760 C   0  0  0  0  0  0  0  0  0  0  0  0
  127.4130  123.2050   60.1680 C   0  0  0  0  0  0  0  0  0  0  0  0
  127.8920  123.1820   61.4920 N   0  0  0  0  0  0  0  0  0  0  0  0
  127.2030  123.1780   62.6530 C   0  0  0  0  0  0  0  0  0  0  0  0
  125.9760  123.1760   62.7550 O   0  0  0  0  0  0  0  0  0  0  0  0
  128.0570  123.1690   63.9220 C   0  0  0  0  0  0  0  0  0  0  0  0
  129.6140  124.0770   63.6970 S   0  0  0  0  0  0  0  0  0  0  0  0
  130.8340  122.9520   63.0520 C   0  0  0  0  0  0  0  0  0  0  0  0
  130.2980  121.8330   62.5000 N   0  0  0  0  0  0  0  0  0  0  0  0
  131.1290  120.9020   61.9760 C   0  0  0  0  0  0  0  0  0  0  0  0
  130.4560  119.6850   61.3690 C   0  0  0  0  0  0  0  0  0  0  0  0
  132.5150  121.0400   61.9880 C   0  0  0  0  0  0  0  0  0  0  0  0
  133.0800  122.1760   62.5760 C   0  0  0  0  0  0  0  0  0  0  0  0
  134.6020  122.2960   62.5930 C   0  0  0  0  0  0  0  0  0  0  0  0
  132.2310  123.1620   63.1320 C   0  0  0  0  0  0  0  0  0  0  0  0
  132.8060  124.3320   63.8000 C   0  0  0  0  0  0  0  0  0  0  0  0
  133.2600  125.2560   64.3270 N   0  0  0  0  0  0  0  0  0  0  0  0
  128.2710  122.6790   59.2000 C   0  0  0  0  0  0  0  0  0  0  0  0
  127.8960  122.6630   57.8600 C   0  0  0  0  0  0  0  0  0  0  0  0
  1  2  1  0
  2  3  1  0
  3  4  2  0
  4  5  1  0
  5  6  2  0
  6  7  1  0
  7  8  1  0
  8  9  2  0
  8 10  1  0
 10 11  1  0
 11 12  1  0
 12 13  2  0
 13 14  1  0
 14 15  1  0
 14 16  2  0
 16 17  1  0
 17 18  1  0
 17 19  2  0
 19 20  1  0
 20 21  3  0
  6 22  1  0
 22 23  2  0
 23  3  1  0
 19 12  1  0
M  END
>  <Binding energies>  (4) 
[-7.02]

>  <Ligand effiencies>  (4) 
[-0.2925]

>  <Interactions>  (4) 
["V-B:LEU:363:CD1:8159, V-B:TYR:539:CZ:9848, V-B:TYR:531:CE2:9764, H-B:TYR:531:OH:9766, V-B:TYR:539:CD2:9845, V-B:MET:535:CE:9806, V-B:TYR:539:C:9838, V-B:TYR:539:CG:9843, V-B:TYR:539:CE2:9847, V-B:ILE:538:CG2:9834, V-B:PRO:540:CA:9854, V-B:PRO:540:CB:9856, V-B:ILE:538:CD1:9836, V-B:PRO:540:N:9855, V-B:PRO:540:CD:9858, V-B:GLU:543:CD:9879, H-A:GLY:454:N:4049, V-B:ALA:541:C:9859, V-A:ILE:369:CD1:3238, H-A:ARG:545:NH2:4927, V-B:GLU:543:CG:9878, V-A:LEU:475:CD2:4258, V-B:ALA:541:CB:9863, V-A:SER:385:C:3404, V-B:ILE:538:CA:9831, V-A:GLY:454:CA:4048, V-A:GLY:453:C:4041, V-B:ALA:541:CA:9861, H-B:ALA:541:N:9862, V-B:ILE:538:CB:9833"]

$$$$
1d_Grossjean_2025
     RDKit          3D

 21 22  0  0  0  0  0  0  0  0999 V2000
  124.1190  123.1790   63.2250 C   0  0  0  0  0  0  0  0  0  0  0  0
  124.7590  123.3850   61.8660 C   0  0  0  0  0  0  0  0  0  0  0  0
  124.0010  123.7120   60.7440 C   0  0  0  0  0  0  0  0  0  0  0  0
  124.6460  123.9000   59.5180 C   0  0  0  0  0  0  0  0  0  0  0  0
  123.7950  124.2730   58.3050 C   0  0  0  0  0  0  0  0  0  0  0  0
  126.0500  123.7460   59.4440 C   0  0  0  0  0  0  0  0  0  0  0  0
  126.7530  123.9850   58.1820 C   0  0  0  0  0  0  0  0  0  0  0  0
  127.3050  124.1740   57.1830 N   0  0  0  0  0  0  0  0  0  0  0  0
  126.7370  123.3890   60.6290 C   0  0  0  0  0  0  0  0  0  0  0  0
  128.4980  123.1520   60.7190 S   0  0  0  0  0  0  0  0  0  0  0  0
  128.8930  122.6570   62.4230 C   0  0  0  0  0  0  0  0  0  0  0  0
  129.9660  121.5680   62.4730 C   0  0  0  0  0  0  0  0  0  0  0  0
  130.9030  121.6830   63.2630 O   0  0  0  0  0  0  0  0  0  0  0  0
  129.7720  120.5270   61.6340 N   0  0  0  0  0  0  0  0  0  0  0  0
  130.5640  119.3840   61.4170 C   0  0  0  0  0  0  0  0  0  0  0  0
  131.8720  119.6250   60.9890 C   0  0  0  0  0  0  0  0  0  0  0  0
  132.7410  118.5640   60.7510 C   0  0  0  0  0  0  0  0  0  0  0  0
  132.3040  117.2570   60.9480 C   0  0  0  0  0  0  0  0  0  0  0  0
  131.0060  117.0020   61.3830 C   0  0  0  0  0  0  0  0  0  0  0  0
  130.1340  118.0620   61.6200 C   0  0  0  0  0  0  0  0  0  0  0  0
  126.1030  123.2290   61.8190 N   0  0  0  0  0  0  0  0  0  0  0  0
  1  2  1  0
  2  3  2  0
  3  4  1  0
  4  5  1  0
  4  6  2  0
  6  7  1  0
  7  8  3  0
  6  9  1  0
  9 10  1  0
 10 11  1  0
 11 12  1  0
 12 13  2  0
 12 14  1  0
 14 15  1  0
 15 16  2  0
 16 17  1  0
 17 18  2  0
 18 19  1  0
 19 20  2  0
  9 21  2  0
 21  2  1  0
 20 15  1  0
M  END
>  <Binding energies>  (5) 
[-7.81]

>  <Ligand effiencies>  (5) 
[-0.355]

>  <Interactions>  (5) 
["V-B:LEU:363:CD1:8159, V-B:LEU:363:CA:8155, H-B:TYR:531:OH:9766, V-B:TYR:539:CD2:9845, V-B:TYR:539:C:9838, V-B:ASP:366:CG:8183, V-B:ASP:366:CB:8182, V-B:PRO:540:CA:9854, V-B:PRO:540:CB:9856, V-B:ARG:545:CZ:9897, V-B:ALA:541:C:9859, V-A:LEU:475:CD2:4258, V-B:ALA:541:CB:9863, V-A:HIS:383:CE1:3393, V-A:SER:385:CA:3406, V-A:SER:385:CB:3408, V-B:ASN:362:CB:8146, H-B:ALA:541:N:9862, V-B:ASN:362:CG:8147, H-B:TYR:539:O:9839, V-A:PRO:482:CG:4326, V-A:THR:477:CG2:4272, V-A:PRO:482:CB:4325"]

$$$$
1e_Grossjean_2025
     RDKit          3D

 22 23  0  0  0  0  0  0  0  0999 V2000
  131.8500  132.1740   61.8980 C   0  0  0  0  0  0  0  0  0  0  0  0
  132.2870  131.7900   60.4970 C   0  0  0  0  0  0  0  0  0  0  0  0
  133.5110  131.1590   60.2600 C   0  0  0  0  0  0  0  0  0  0  0  0
  133.8470  130.8370   58.9440 C   0  0  0  0  0  0  0  0  0  0  0  0
  132.9640  131.1520   57.9090 C   0  0  0  0  0  0  0  0  0  0  0  0
  131.7520  131.7810   58.2170 C   0  0  0  0  0  0  0  0  0  0  0  0
  130.9100  132.0840   57.1320 N   0  0  0  0  0  0  0  0  0  0  0  0
  130.8530  133.2200   56.4030 C   0  0  0  0  0  0  0  0  0  0  0  0
  131.5550  134.2150   56.5900 O   0  0  0  0  0  0  0  0  0  0  0  0
  129.8060  133.2430   55.2870 C   0  0  0  0  0  0  0  0  0  0  0  0
  129.0110  131.6230   55.0670 S   0  0  0  0  0  0  0  0  0  0  0  0
  127.7250  131.4480   56.2880 C   0  0  0  0  0  0  0  0  0  0  0  0
  128.1540  131.6660   57.5570 N   0  0  0  0  0  0  0  0  0  0  0  0
  127.2660  131.5590   58.5730 C   0  0  0  0  0  0  0  0  0  0  0  0
  127.8150  131.8230   59.9620 C   0  0  0  0  0  0  0  0  0  0  0  0
  125.9290  131.2210   58.3710 C   0  0  0  0  0  0  0  0  0  0  0  0
  125.4820  130.9700   57.0690 C   0  0  0  0  0  0  0  0  0  0  0  0
  124.0160  130.5840   56.8760 C   0  0  0  0  0  0  0  0  0  0  0  0
  126.3920  131.0730   55.9930 C   0  0  0  0  0  0  0  0  0  0  0  0
  125.9540  130.7570   54.6310 C   0  0  0  0  0  0  0  0  0  0  0  0
  125.6050  130.5060   53.5560 N   0  0  0  0  0  0  0  0  0  0  0  0
  131.4180  132.1020   59.5020 N   0  0  0  0  0  0  0  0  0  0  0  0
  1  2  1  0
  2  3  2  0
  3  4  1  0
  4  5  2  0
  5  6  1  0
  6  7  1  0
  7  8  1  0
  8  9  2  0
  8 10  1  0
 10 11  1  0
 11 12  1  0
 12 13  2  0
 13 14  1  0
 14 15  1  0
 14 16  2  0
 16 17  1  0
 17 18  1  0
 17 19  2  0
 19 20  1  0
 20 21  3  0
  6 22  2  0
 22  2  1  0
 19 12  1  0
M  END
>  <Binding energies>  (6) 
[-7.27]

>  <Ligand effiencies>  (6) 
[-0.3160869565217391]

>  <Interactions>  (6) 
["V-A:LEU:363:CA:3184, V-A:TYR:539:CZ:4876, V-A:PRO:540:CB:4884, V-A:TYR:539:CD1:4872, V-A:ASP:366:CG:3212, V-A:ASN:362:C:3171, V-B:TYR:531:CE1:9763, V-A:TYR:531:CE2:4792, V-A:PRO:540:CA:4882, V-A:TYR:539:CE1:4874, H-A:TYR:539:N:4869, V-A:TYR:531:CZ:4793, H-A:TYR:531:OH:4794, V-A:PRO:540:C:4880, V-A:ASP:366:CB:3211, V-A:LEU:363:C:3182, H-A:TYR:539:OH:4877, V-A:ILE:538:CA:4859, V-B:ASP:366:C:8178, H-B:LYS:534:NZ:9794"]

$$$$
1f_Grossjean_2025
     RDKit          3D

 21 22  0  0  0  0  0  0  0  0999 V2000
  127.4180  131.9640   60.0410 C   0  0  0  0  0  0  0  0  0  0  0  0
  126.9590  131.6470   58.6300 C   0  0  0  0  0  0  0  0  0  0  0  0
  125.6090  131.5480   58.3060 C   0  0  0  0  0  0  0  0  0  0  0  0
  125.2460  131.2410   56.9910 C   0  0  0  0  0  0  0  0  0  0  0  0
  123.7590  131.1200   56.6640 C   0  0  0  0  0  0  0  0  0  0  0  0
  126.2580  131.0470   56.0220 C   0  0  0  0  0  0  0  0  0  0  0  0
  125.8990  130.6700   54.6520 C   0  0  0  0  0  0  0  0  0  0  0  0
  125.6150  130.3730   53.5710 N   0  0  0  0  0  0  0  0  0  0  0  0
  127.6030  131.1950   56.4330 C   0  0  0  0  0  0  0  0  0  0  0  0
  129.0080  130.9890   55.3570 S   0  0  0  0  0  0  0  0  0  0  0  0
  130.0110  132.5130   55.4210 C   0  0  0  0  0  0  0  0  0  0  0  0
  130.5000  132.9070   56.8220 C   0  0  0  0  0  0  0  0  0  0  0  0
  130.3260  134.0500   57.2460 O   0  0  0  0  0  0  0  0  0  0  0  0
  131.1310  131.9210   57.4940 N   0  0  0  0  0  0  0  0  0  0  0  0
  131.6930  131.9290   58.7850 C   0  0  0  0  0  0  0  0  0  0  0  0
  132.9860  131.4850   59.1200 C   0  0  0  0  0  0  0  0  0  0  0  0
  133.4180  131.5550   60.4470 C   0  0  0  0  0  0  0  0  0  0  0  0
  132.5480  132.0700   61.4080 C   0  0  0  0  0  0  0  0  0  0  0  0
  131.3000  132.5090   61.1110 N   0  0  0  0  0  0  0  0  0  0  0  0
  130.8930  132.4350   59.8170 C   0  0  0  0  0  0  0  0  0  0  0  0
  127.9440  131.4690   57.7180 N   0  0  0  0  0  0  0  0  0  0  0  0
  1  2  1  0
  2  3  2  0
  3  4  1  0
  4  5  1  0
  4  6  2  0
  6  7  1  0
  7  8  3  0
  6  9  1  0
  9 10  1  0
 10 11  1  0
 11 12  1  0
 12 13  2  0
 12 14  1  0
 14 15  1  0
 15 16  2  0
 16 17  1  0
 17 18  2  0
 18 19  1  0
 19 20  2  0
  9 21  2  0
 21  2  1  0
 20 15  1  0
M  END
>  <Binding energies>  (7) 
[-7.21]

>  <Ligand effiencies>  (7) 
[-0.3277272727272727]

>  <Interactions>  (7) 
["V-A:LEU:363:CA:3184, V-A:TYR:539:CZ:4876, V-A:PRO:540:CB:4884, V-A:TYR:539:CD1:4872, V-B:ASN:370:CB:8215, V-A:ASN:362:C:3171, V-A:ASN:362:CB:3175, V-A:MET:535:CG:4832, V-B:TYR:531:CE1:9763, V-A:PRO:540:N:4883, V-A:PRO:540:CA:4882, V-A:TYR:539:CE1:4874, H-A:TYR:539:N:4869, H-A:TYR:531:OH:4794, H-A:ALA:541:N:4890, H-A:TYR:539:OH:4877, H-B:LYS:534:NZ:9794"]

$$$$
1g_Grossjean_2025
     RDKit          3D

 22 23  0  0  0  0  0  0  0  0999 V2000
  127.1810  131.4300   60.0850 C   0  0  0  0  0  0  0  0  0  0  0  0
  126.6910  131.2860   58.6570 C   0  0  0  0  0  0  0  0  0  0  0  0
  125.3320  131.3000   58.3460 C   0  0  0  0  0  0  0  0  0  0  0  0
  124.9380  131.1470   57.0130 C   0  0  0  0  0  0  0  0  0  0  0  0
  123.4420  131.1500   56.6990 C   0  0  0  0  0  0  0  0  0  0  0  0
  125.9250  130.9920   56.0140 C   0  0  0  0  0  0  0  0  0  0  0  0
  125.5350  130.7780   54.6170 C   0  0  0  0  0  0  0  0  0  0  0  0
  125.2240  130.6080   53.5160 N   0  0  0  0  0  0  0  0  0  0  0  0
  127.2810  131.0160   56.4160 C   0  0  0  0  0  0  0  0  0  0  0  0
  128.6490  130.8450   55.2920 S   0  0  0  0  0  0  0  0  0  0  0  0
  129.0130  132.4980   54.6290 C   0  0  0  0  0  0  0  0  0  0  0  0
  130.1150  133.2030   55.4210 C   0  0  0  0  0  0  0  0  0  0  0  0
  129.9630  134.3700   55.7850 O   0  0  0  0  0  0  0  0  0  0  0  0
  131.2200  132.4810   55.6750 N   0  0  0  0  0  0  0  0  0  0  0  0
  132.3680  132.9340   56.4620 C   0  0  0  0  0  0  0  0  0  0  0  0
  132.3970  132.4030   57.8920 C   0  0  0  0  0  0  0  0  0  0  0  0
  133.5300  131.7310   58.3630 C   0  0  0  0  0  0  0  0  0  0  0  0
  133.5580  131.2460   59.6680 C   0  0  0  0  0  0  0  0  0  0  0  0
  132.4560  131.4400   60.4990 C   0  0  0  0  0  0  0  0  0  0  0  0
  131.3270  132.1130   60.0370 C   0  0  0  0  0  0  0  0  0  0  0  0
  131.2970  132.5960   58.7320 C   0  0  0  0  0  0  0  0  0  0  0  0
  127.6530  131.1410   57.7160 N   0  0  0  0  0  0  0  0  0  0  0  0
  1  2  1  0
  2  3  2  0
  3  4  1  0
  4  5  1  0
  4  6  2  0
  6  7  1  0
  7  8  3  0
  6  9  1  0
  9 10  1  0
 10 11  1  0
 11 12  1  0
 12 13  2  0
 12 14  1  0
 14 15  1  0
 15 16  1  0
 16 17  2  0
 17 18  1  0
 18 19  2  0
 19 20  1  0
 20 21  2  0
  9 22  2  0
 22  2  1  0
 21 16  1  0
M  END
>  <Binding energies>  (8) 
[-7.59]

>  <Ligand effiencies>  (8) 
[-0.33]

>  <Interactions>  (8) 
["V-A:LEU:363:CA:3184, V-A:TYR:539:CZ:4876, V-A:PRO:540:CB:4884, V-A:TYR:539:C:4866, V-A:MET:535:CB:4831, V-B:ASN:370:CB:8215, V-A:ASN:362:C:3171, V-A:MET:535:CG:4832, V-B:TYR:531:CE1:9763, V-A:TYR:531:CE2:4792, V-A:LEU:363:CD1:3188, V-A:PRO:540:N:4883, V-A:PRO:540:CA:4882, V-A:TYR:539:CE1:4874, V-B:ASN:370:CA:8213, H-A:TYR:539:N:4869, V-A:TYR:531:CZ:4793, H-A:TYR:531:OH:4794, V-A:ILE:538:CB:4861, V-A:ASP:366:CB:3211, V-A:LEU:363:CB:3186, H-A:TYR:539:OH:4877, V-A:ILE:538:CA:4859, V-B:ASP:366:C:8178, H-B:LYS:534:NZ:9794"]

$$$$
1h_Grossjean_2025
     RDKit          3D

 28 29  0  0  0  0  0  0  0  0999 V2000
  132.8450  131.4690   58.8370 C   0  0  0  0  0  0  0  0  0  0  0  0
  131.5940  132.1460   58.7850 O   0  0  0  0  0  0  0  0  0  0  0  0
  130.6880  131.8210   57.7910 C   0  0  0  0  0  0  0  0  0  0  0  0
  130.0100  130.5930   57.7200 C   0  0  0  0  0  0  0  0  0  0  0  0
  129.1190  130.3290   56.6800 C   0  0  0  0  0  0  0  0  0  0  0  0
  128.3720  129.0000   56.6270 C   0  0  0  0  0  0  0  0  0  0  0  0
  129.0260  127.9190   57.3640 N   0  0  0  0  0  0  0  0  0  0  0  0
  130.0050  127.1310   56.8820 C   0  0  0  0  0  0  0  0  0  0  0  0
  130.4850  127.2500   55.7550 O   0  0  0  0  0  0  0  0  0  0  0  0
  130.5170  126.0340   57.8150 C   0  0  0  0  0  0  0  0  0  0  0  0
  129.5050  124.5260   57.7130 S   0  0  0  0  0  0  0  0  0  0  0  0
  127.8180  124.9640   58.1000 C   0  0  0  0  0  0  0  0  0  0  0  0
  127.6580  126.0690   58.8740 N   0  0  0  0  0  0  0  0  0  0  0  0
  126.4050  126.4600   59.2010 C   0  0  0  0  0  0  0  0  0  0  0  0
  126.3080  127.7050   60.0640 C   0  0  0  0  0  0  0  0  0  0  0  0
  125.2680  125.7740   58.7790 C   0  0  0  0  0  0  0  0  0  0  0  0
  125.4190  124.6340   57.9830 C   0  0  0  0  0  0  0  0  0  0  0  0
  124.1610  123.8980   57.5290 C   0  0  0  0  0  0  0  0  0  0  0  0
  126.7200  124.2080   57.6290 C   0  0  0  0  0  0  0  0  0  0  0  0
  126.9090  123.0150   56.7990 C   0  0  0  0  0  0  0  0  0  0  0  0
  127.0580  122.0720   56.1430 N   0  0  0  0  0  0  0  0  0  0  0  0
  128.8710  131.3100   55.7180 C   0  0  0  0  0  0  0  0  0  0  0  0
  129.5310  132.5480   55.7680 C   0  0  0  0  0  0  0  0  0  0  0  0
  129.3360  133.5640   54.8500 O   0  0  0  0  0  0  0  0  0  0  0  0
  128.6360  133.2890   53.6410 C   0  0  0  0  0  0  0  0  0  0  0  0
  130.4450  132.7870   56.8040 C   0  0  0  0  0  0  0  0  0  0  0  0
  131.0940  133.9960   56.8690 O   0  0  0  0  0  0  0  0  0  0  0  0
  132.3580  134.0100   56.2210 C   0  0  0  0  0  0  0  0  0  0  0  0
  1  2  1  0
  2  3  1  0
  3  4  2  0
  4  5  1  0
  5  6  1  0
  6  7  1  0
  7  8  1  0
  8  9  2  0
  8 10  1  0
 10 11  1  0
 11 12  1  0
 12 13  2  0
 13 14  1  0
 14 15  1  0
 14 16  2  0
 16 17  1  0
 17 18  1  0
 17 19  2  0
 19 20  1  0
 20 21  3  0
  5 22  2  0
 22 23  1  0
 23 24  1  0
 24 25  1  0
 23 26  2  0
 26 27  1  0
 27 28  1  0
 26  3  1  0
 19 12  1  0
M  END
>  <Binding energies>  (9) 
[-7.26]

>  <Ligand effiencies>  (9) 
[-0.2503448275862069]

>  <Interactions>  (9) 
["V-B:LEU:363:CD1:8159, V-B:TYR:531:CZ:9765, V-A:TYR:539:CZ:4876, V-A:PRO:540:CB:4884, V-A:MET:535:CB:4831, V-B:TYR:531:CE2:9764, V-A:MET:535:CG:4832, V-A:LEU:363:CD1:3188, V-A:PRO:540:N:4883, V-B:MET:535:CE:9806, V-A:TYR:539:CE1:4874, V-B:ASP:366:CG:8183, V-B:ASP:366:CB:8182, H-B:TYR:539:N:9841, V-B:PRO:540:CB:9856, H-A:TYR:539:N:4869, V-A:PRO:540:CD:4886, H-A:TYR:531:OH:4794, V-A:ILE:538:CB:4861, H-B:TYR:539:OH:9849, V-A:ILE:538:CA:4859, V-A:TYR:539:CE2:4875, V-A:ILE:538:CG2:4862, V-A:VAL:537:C:4849"]

$$$$
1i_Grossjean_2025
     RDKit          3D

 20 21  0  0  0  0  0  0  0  0999 V2000
  129.9070  116.8550   60.7180 C   0  0  0  0  0  0  0  0  0  0  0  0
  130.7370  118.1220   60.8130 C   0  0  0  0  0  0  0  0  0  0  0  0
  132.0450  118.1740   60.3380 C   0  0  0  0  0  0  0  0  0  0  0  0
  132.7590  119.3730   60.4430 C   0  0  0  0  0  0  0  0  0  0  0  0
  134.1870  119.4100   59.9000 C   0  0  0  0  0  0  0  0  0  0  0  0
  132.1390  120.4980   61.0330 C   0  0  0  0  0  0  0  0  0  0  0  0
  132.8500  121.7760   61.1070 C   0  0  0  0  0  0  0  0  0  0  0  0
  133.4140  122.7860   61.1640 N   0  0  0  0  0  0  0  0  0  0  0  0
  130.8150  120.3460   61.5100 C   0  0  0  0  0  0  0  0  0  0  0  0
  129.8850  121.6540   62.2790 S   0  0  0  0  0  0  0  0  0  0  0  0
  129.6400  122.9590   61.0370 C   0  0  0  0  0  0  0  0  0  0  0  0
  128.3560  122.7520   60.2310 C   0  0  0  0  0  0  0  0  0  0  0  0
  127.2960  122.5540   60.8250 O   0  0  0  0  0  0  0  0  0  0  0  0
  128.4960  122.8100   58.8880 N   0  0  0  0  0  0  0  0  0  0  0  0
  127.5030  122.6530   57.9320 C   0  0  0  0  0  0  0  0  0  0  0  0
  126.2140  123.1610   58.0840 C   0  0  0  0  0  0  0  0  0  0  0  0
  125.5480  122.7970   56.9360 C   0  0  0  0  0  0  0  0  0  0  0  0
  126.3920  122.1040   56.1350 O   0  0  0  0  0  0  0  0  0  0  0  0
  127.6280  122.0180   56.7780 N   0  0  0  0  0  0  0  0  0  0  0  0
  130.1240  119.1850   61.3850 N   0  0  0  0  0  0  0  0  0  0  0  0
  1  2  1  0
  2  3  2  0
  3  4  1  0
  4  5  1  0
  4  6  2  0
  6  7  1  0
  7  8  3  0
  6  9  1  0
  9 10  1  0
 10 11  1  0
 11 12  1  0
 12 13  2  0
 12 14  1  0
 14 15  1  0
 15 16  1  0
 16 17  2  0
 17 18  1  0
 18 19  1  0
  9 20  2  0
 20  2  1  0
 19 15  2  0
M  END
>  <Binding energies>  (10) 
[-7.83]

>  <Ligand effiencies>  (10) 
[-0.3728571428571429]

>  <Interactions>  (10) 
["V-B:LEU:363:CD1:8159, V-B:TYR:539:CD2:9845, V-B:TYR:539:C:9838, V-B:TYR:539:CE2:9847, H-B:TYR:539:N:9841, V-B:PRO:540:CA:9854, V-B:PRO:540:CB:9856, V-B:PRO:540:N:9855, V-B:PRO:540:CD:9858, V-A:LEU:475:CD2:4258, V-B:ALA:541:CB:9863, V-A:HIS:383:CE1:3393, V-A:ILE:369:CG2:3236, V-A:SER:385:CA:3406, V-B:TYR:539:CB:9842, V-B:VAL:344:CG1:7971, H-B:ALA:541:N:9862, V-A:PRO:482:CG:4326, V-A:PRO:482:CB:4325, V-A:VAL:384:C:3396"]

$$$$
1k_Grossjean_2025
     RDKit          3D

 25 25  0  0  0  0  0  0  0  0999 V2000
  133.4650  124.1300   59.3480 C   0  0  0  0  0  0  0  0  0  0  0  0
  133.1320  124.6790   58.0830 O   0  0  0  0  0  0  0  0  0  0  0  0
  132.3740  125.8780   58.1680 C   0  0  0  0  0  0  0  0  0  0  0  0
  132.3060  126.5400   56.7850 C   0  0  0  0  0  0  0  0  0  0  0  0
  130.9520  126.8320   56.4660 O   0  0  0  0  0  0  0  0  0  0  0  0
  130.2380  127.4580   57.5240 C   0  0  0  0  0  0  0  0  0  0  0  0
  129.0040  128.1700   56.9550 C   0  0  0  0  0  0  0  0  0  0  0  0
  129.1640  129.5770   57.0900 O   0  0  0  0  0  0  0  0  0  0  0  0
  127.9580  130.3080   56.9110 C   0  0  0  0  0  0  0  0  0  0  0  0
  128.1070  131.2630   55.7110 C   0  0  0  0  0  0  0  0  0  0  0  0
  129.4880  131.6610   55.4350 N   0  0  0  0  0  0  0  0  0  0  0  0
  129.8560  132.7570   54.7490 C   0  0  0  0  0  0  0  0  0  0  0  0
  129.0480  133.5590   54.2790 O   0  0  0  0  0  0  0  0  0  0  0  0
  131.3710  132.9540   54.5780 C   0  0  0  0  0  0  0  0  0  0  0  0
  132.2610  133.5580   56.0550 S   0  0  0  0  0  0  0  0  0  0  0  0
  131.6060  132.7480   57.5070 C   0  0  0  0  0  0  0  0  0  0  0  0
  130.4170  133.2210   57.9640 N   0  0  0  0  0  0  0  0  0  0  0  0
  129.8700  132.6590   59.0660 C   0  0  0  0  0  0  0  0  0  0  0  0
  128.5480  133.2470   59.5190 C   0  0  0  0  0  0  0  0  0  0  0  0
  130.4720  131.6050   59.7500 C   0  0  0  0  0  0  0  0  0  0  0  0
  131.6930  131.1040   59.2860 C   0  0  0  0  0  0  0  0  0  0  0  0
  132.3360  129.9490   60.0500 C   0  0  0  0  0  0  0  0  0  0  0  0
  132.2830  131.6800   58.1390 C   0  0  0  0  0  0  0  0  0  0  0  0
  133.5640  131.1770   57.6320 C   0  0  0  0  0  0  0  0  0  0  0  0
  134.5750  130.7800   57.2320 N   0  0  0  0  0  0  0  0  0  0  0  0
  1  2  1  0
  2  3  1  0
  3  4  1  0
  4  5  1  0
  5  6  1  0
  6  7  1  0
  7  8  1  0
  8  9  1  0
  9 10  1  0
 10 11  1  0
 11 12  1  0
 12 13  2  0
 12 14  1  0
 14 15  1  0
 15 16  1  0
 16 17  2  0
 17 18  1  0
 18 19  1  0
 18 20  2  0
 20 21  1  0
 21 22  1  0
 21 23  2  0
 23 24  1  0
 24 25  3  0
 23 16  1  0
M  END
>  <Binding energies>  (11) 
[-6.65]

>  <Ligand effiencies>  (11) 
[-0.2557692307692308]

>  <Interactions>  (11) 
["V-A:LEU:363:CA:3184, V-A:TYR:539:CZ:4876, V-A:PRO:540:CB:4884, V-A:TYR:539:CD1:4872, V-A:TYR:539:C:4866, V-A:MET:535:CB:4831, V-A:ASP:366:CG:3212, V-A:MET:535:CG:4832, V-A:TYR:531:CE2:4792, V-A:LEU:363:CD1:3188, V-A:PRO:540:N:4883, V-A:PRO:540:CA:4882, V-A:TYR:539:CE1:4874, V-B:TYR:539:CE2:9847, V-A:TYR:531:CZ:4793, H-A:TYR:531:OH:4794, V-A:ILE:538:CB:4861, V-A:ILE:369:CD1:3238, V-A:ILE:369:CG2:3236, V-A:ASP:366:CB:3211, V-A:MET:535:CE:4834, V-A:ASP:366:CA:3209, V-A:ASP:366:C:3207, H-B:TYR:539:OH:9849, V-A:TYR:531:CE1:4791, V-A:ILE:369:CB:3235, H-A:TYR:539:OH:4877, V-A:ILE:538:CA:4859, V-A:ILE:538:CG2:4862"]

$$$$
1l_Grossjean_2025
     RDKit          3D

 17 17  0  0  0  0  0  0  0  0999 V2000
  124.8800  122.4120   56.2120 C   0  0  0  0  0  0  0  0  0  0  0  0
  125.8260  123.2910   55.6190 O   0  0  0  0  0  0  0  0  0  0  0  0
  126.7540  123.7050   56.5740 N   0  0  0  0  0  0  0  0  0  0  0  0
  127.6490  122.8140   57.0440 C   0  0  0  0  0  0  0  0  0  0  0  0
  127.8550  121.7140   56.5250 O   0  0  0  0  0  0  0  0  0  0  0  0
  128.4290  123.2680   58.2860 C   0  0  0  0  0  0  0  0  0  0  0  0
  127.7250  124.7100   59.1560 S   0  0  0  0  0  0  0  0  0  0  0  0
  126.0090  124.3650   59.5040 C   0  0  0  0  0  0  0  0  0  0  0  0
  125.1300  124.6910   58.5210 N   0  0  0  0  0  0  0  0  0  0  0  0
  123.8110  124.4580   58.7190 C   0  0  0  0  0  0  0  0  0  0  0  0
  122.8930  124.8490   57.5770 C   0  0  0  0  0  0  0  0  0  0  0  0
  123.3160  123.8930   59.8920 C   0  0  0  0  0  0  0  0  0  0  0  0
  124.2110  123.5510   60.9110 C   0  0  0  0  0  0  0  0  0  0  0  0
  123.6460  122.9320   62.1890 C   0  0  0  0  0  0  0  0  0  0  0  0
  125.5910  123.7870   60.7250 C   0  0  0  0  0  0  0  0  0  0  0  0
  126.5520  123.4380   61.7770 C   0  0  0  0  0  0  0  0  0  0  0  0
  127.3090  123.1620   62.6070 N   0  0  0  0  0  0  0  0  0  0  0  0
  1  2  1  0
  2  3  1  0
  3  4  1  0
  4  5  2  0
  4  6  1  0
  6  7  1  0
  7  8  1  0
  8  9  2  0
  9 10  1  0
 10 11  1  0
 10 12  2  0
 12 13  1  0
 13 14  1  0
 13 15  2  0
 15 16  1  0
 16 17  3  0
 15  8  1  0
M  END
>  <Binding energies>  (12) 
[-6.33]

>  <Ligand effiencies>  (12) 
[-0.3516666666666667]

>  <Interactions>  (12) 
["V-B:LEU:363:CD1:8159, V-B:TYR:531:CZ:9765, V-B:LEU:363:CA:8155, V-B:TYR:539:CZ:9848, V-B:TYR:531:CE2:9764, H-B:TYR:531:OH:9766, V-B:TYR:539:CD2:9845, V-B:MET:535:CE:9806, V-B:TYR:539:CE1:9846, V-B:TYR:539:C:9838, V-B:TYR:539:CD1:9844, V-B:ASP:366:CG:8183, V-B:TYR:539:CG:9843, V-B:TYR:539:CE2:9847, V-B:ASP:366:CB:8182, V-B:ILE:538:CG2:9834, H-B:TYR:539:N:9841, V-B:PRO:540:CA:9854, V-B:PRO:540:CB:9856, V-B:ILE:538:CD1:9836, V-B:PRO:540:CD:9858, V-B:LEU:363:CB:8157, V-B:ASN:362:CB:8146, V-B:PRO:540:C:9852, H-B:ALA:541:N:9862, V-B:ASN:362:CG:8147, V-B:ASN:362:C:8142, V-B:LEU:363:C:8153, V-B:LEU:363:CG:8158"]

$$$$
1m_Grossjean_2025
     RDKit          3D

 20 20  0  0  0  0  0  0  0  0999 V2000
  128.7070  138.5390   60.9930 C   0  0  0  0  0  0  0  0  0  0  0  0
  127.6200  137.6300   60.8930 O   0  0  0  0  0  0  0  0  0  0  0  0
  126.7550  137.4800   61.9170 C   0  0  0  0  0  0  0  0  0  0  0  0
  126.2600  138.3980   62.5790 O   0  0  0  0  0  0  0  0  0  0  0  0
  126.4340  135.9930   62.1730 C   0  0  0  0  0  0  0  0  0  0  0  0
  127.2130  135.0860   61.3170 N   0  0  0  0  0  0  0  0  0  0  0  0
  126.9970  133.7650   61.1690 C   0  0  0  0  0  0  0  0  0  0  0  0
  126.1050  133.1600   61.7670 O   0  0  0  0  0  0  0  0  0  0  0  0
  127.9450  133.0430   60.2040 C   0  0  0  0  0  0  0  0  0  0  0  0
  129.7180  133.2190   60.6020 S   0  0  0  0  0  0  0  0  0  0  0  0
  130.6500  132.9080   59.1170 C   0  0  0  0  0  0  0  0  0  0  0  0
  130.0240  133.3260   57.9870 N   0  0  0  0  0  0  0  0  0  0  0  0
  130.6420  133.1470   56.7970 C   0  0  0  0  0  0  0  0  0  0  0  0
  129.8920  133.6560   55.5810 C   0  0  0  0  0  0  0  0  0  0  0  0
  131.8910  132.5400   56.6820 C   0  0  0  0  0  0  0  0  0  0  0  0
  132.5330  132.0810   57.8370 C   0  0  0  0  0  0  0  0  0  0  0  0
  133.8940  131.4050   57.6850 C   0  0  0  0  0  0  0  0  0  0  0  0
  131.9060  132.2570   59.0920 C   0  0  0  0  0  0  0  0  0  0  0  0
  132.5380  131.7400   60.3090 C   0  0  0  0  0  0  0  0  0  0  0  0
  133.0370  131.3330   61.2690 N   0  0  0  0  0  0  0  0  0  0  0  0
  1  2  1  0
  2  3  1  0
  3  4  2  0
  3  5  1  0
  5  6  1  0
  6  7  1  0
  7  8  2  0
  7  9  1  0
  9 10  1  0
 10 11  1  0
 11 12  2  0
 12 13  1  0
 13 14  1  0
 13 15  2  0
 15 16  1  0
 16 17  1  0
 16 18  2  0
 18 19  1  0
 19 20  3  0
 18 11  1  0
M  END
>  <Binding energies>  (13) 
[-6.43]

>  <Ligand effiencies>  (13) 
[-0.3061904761904762]

>  <Interactions>  (13) 
["V-A:LEU:363:CA:3184, V-A:TYR:539:CZ:4876, V-A:PRO:540:CB:4884, V-A:TYR:539:CD1:4872, V-A:TYR:539:C:4866, V-A:TYR:531:CE2:4792, V-A:LEU:363:CD1:3188, V-A:PRO:540:N:4883, V-A:TYR:539:CA:4868, V-A:PRO:540:CA:4882, V-A:TYR:539:CE1:4874, V-B:LEU:475:CD1:9228, H-B:HIS:383:NE2:8364, H-B:SER:385:OG:8380, V-A:TYR:531:CZ:4793, V-B:SER:385:CB:8379, V-A:ILE:538:CB:4861, H-A:ARG:545:NH2:4927, H-A:ALA:541:N:4890, V-A:LEU:363:C:3182, V-A:ILE:538:C:4857, V-A:LEU:363:CB:3186, V-A:ILE:538:CA:4859, H-A:TYR:539:O:4867, V-B:PRO:482:CG:9297, V-B:PRO:482:CB:9296, V-B:PRO:482:CD:9298, V-B:HIS:383:CE1:8363, V-A:TYR:539:CB:4870, V-A:VAL:344:CG1:3000"]

$$$$
1n_Grossjean_2025
     RDKit          3D

 27 28  0  0  0  0  0  0  0  0999 V2000
  128.8770  132.8410   54.6620 C   0  0  0  0  0  0  0  0  0  0  0  0
  130.1810  133.6410   54.7330 C   0  0  0  0  0  0  0  0  0  0  0  0
  130.4290  134.0200   56.0810 O   0  0  0  0  0  0  0  0  0  0  0  0
  131.5670  133.6410   56.7180 C   0  0  0  0  0  0  0  0  0  0  0  0
  132.5730  134.3520   56.7940 O   0  0  0  0  0  0  0  0  0  0  0  0
  131.4740  132.2750   57.3340 C   0  0  0  0  0  0  0  0  0  0  0  0
  132.6100  131.5850   57.7860 C   0  0  0  0  0  0  0  0  0  0  0  0
  132.4900  130.3190   58.3500 C   0  0  0  0  0  0  0  0  0  0  0  0
  131.2380  129.7120   58.4670 C   0  0  0  0  0  0  0  0  0  0  0  0
  131.2320  128.4290   59.0470 N   0  0  0  0  0  0  0  0  0  0  0  0
  130.8050  127.2530   58.5380 C   0  0  0  0  0  0  0  0  0  0  0  0
  130.3270  127.0930   57.4150 O   0  0  0  0  0  0  0  0  0  0  0  0
  130.9460  126.0390   59.4660 C   0  0  0  0  0  0  0  0  0  0  0  0
  130.8490  124.6920   58.7180 C   0  0  0  0  0  0  0  0  0  0  0  0
  129.7280  123.4830   59.4850 S   0  0  0  0  0  0  0  0  0  0  0  0
  128.0860  124.1680   59.4450 C   0  0  0  0  0  0  0  0  0  0  0  0
  127.8380  125.0420   60.4530 N   0  0  0  0  0  0  0  0  0  0  0  0
  126.6250  125.6390   60.5120 C   0  0  0  0  0  0  0  0  0  0  0  0
  126.4230  126.6110   61.6590 C   0  0  0  0  0  0  0  0  0  0  0  0
  125.6160  125.3880   59.5840 C   0  0  0  0  0  0  0  0  0  0  0  0
  125.8550  124.4720   58.5530 C   0  0  0  0  0  0  0  0  0  0  0  0
  124.7310  124.2020   57.5550 C   0  0  0  0  0  0  0  0  0  0  0  0
  127.1140  123.8330   58.4740 C   0  0  0  0  0  0  0  0  0  0  0  0
  127.3680  122.8340   57.4340 C   0  0  0  0  0  0  0  0  0  0  0  0
  127.5660  122.0440   56.6120 N   0  0  0  0  0  0  0  0  0  0  0  0
  130.0980  130.3990   58.0280 C   0  0  0  0  0  0  0  0  0  0  0  0
  130.2190  131.6680   57.4670 C   0  0  0  0  0  0  0  0  0  0  0  0
  1  2  1  0
  2  3  1  0
  3  4  1  0
  4  5  2  0
  4  6  1  0
  6  7  2  0
  7  8  1  0
  8  9  2  0
  9 10  1  0
 10 11  1  0
 11 12  2  0
 11 13  1  0
 13 14  1  0
 14 15  1  0
 15 16  1  0
 16 17  2  0
 17 18  1  0
 18 19  1  0
 18 20  2  0
 20 21  1  0
 21 22  1  0
 21 23  2  0
 23 24  1  0
 24 25  3  0
  9 26  1  0
 26 27  2  0
 27  6  1  0
 23 16  1  0
M  END
>  <Binding energies>  (14) 
[-7.84]

>  <Ligand effiencies>  (14) 
[-0.27999999999999997]

>  <Interactions>  (14) 
["V-B:LEU:363:CD1:8159, V-B:TYR:531:CZ:9765, V-A:TYR:539:CZ:4876, V-A:TYR:539:C:4866, V-B:TYR:539:CZ:9848, V-A:MET:535:CB:4831, V-B:TYR:531:CE2:9764, V-A:ASP:366:CG:3212, V-A:MET:535:CG:4832, V-A:TYR:531:CE2:4792, V-A:LEU:363:CD1:3188, V-A:PRO:540:N:4883, V-B:MET:535:CE:9806, V-A:PRO:540:CA:4882, V-B:TYR:539:C:9838, V-A:TYR:539:CE1:4874, V-B:ASP:366:CG:8183, V-B:TYR:539:CE2:9847, H-B:TYR:539:N:9841, V-B:PRO:540:N:9855, H-A:TYR:539:N:4869, V-A:PRO:540:CD:4886, V-A:TYR:531:CZ:4793, H-A:TYR:531:OH:4794, V-A:ILE:538:CB:4861, H-A:ASP:366:OD2:3214, V-A:ASP:366:CB:3211, V-A:ILE:538:C:4857, V-A:ILE:538:CA:4859, V-A:TYR:539:CE2:4875, V-A:ILE:538:CG2:4862"]

$$$$
1q_Grossjean_2025
     RDKit          3D

 21 21  0  0  0  0  0  0  0  0999 V2000
  129.3770  138.2230   61.3850 C   0  0  0  0  0  0  0  0  0  0  0  0
  128.0050  138.3440   61.0410 O   0  0  0  0  0  0  0  0  0  0  0  0
  127.2070  137.2490   60.9970 C   0  0  0  0  0  0  0  0  0  0  0  0
  126.2520  137.0880   60.2340 O   0  0  0  0  0  0  0  0  0  0  0  0
  127.5660  136.1680   62.0380 C   0  0  0  0  0  0  0  0  0  0  0  0
  127.6660  134.8200   61.4570 N   0  0  0  0  0  0  0  0  0  0  0  0
  127.4930  133.6600   62.1180 C   0  0  0  0  0  0  0  0  0  0  0  0
  127.2210  133.6040   63.3190 O   0  0  0  0  0  0  0  0  0  0  0  0
  127.6370  132.3810   61.2810 C   0  0  0  0  0  0  0  0  0  0  0  0
  128.9090  131.5650   61.5860 C   0  0  0  0  0  0  0  0  0  0  0  0
  130.4420  132.5350   61.4710 S   0  0  0  0  0  0  0  0  0  0  0  0
  131.0880  132.3790   59.8180 C   0  0  0  0  0  0  0  0  0  0  0  0
  130.3140  132.9790   58.8780 N   0  0  0  0  0  0  0  0  0  0  0  0
  130.7020  132.9250   57.5820 C   0  0  0  0  0  0  0  0  0  0  0  0
  129.7770  133.6030   56.5890 C   0  0  0  0  0  0  0  0  0  0  0  0
  131.8710  132.2890   57.1730 C   0  0  0  0  0  0  0  0  0  0  0  0
  132.6900  131.6900   58.1360 C   0  0  0  0  0  0  0  0  0  0  0  0
  133.9770  131.0140   57.6640 C   0  0  0  0  0  0  0  0  0  0  0  0
  132.3080  131.7340   59.4950 C   0  0  0  0  0  0  0  0  0  0  0  0
  133.1810  131.1620   60.5220 C   0  0  0  0  0  0  0  0  0  0  0  0
  133.8740  130.7090   61.3310 N   0  0  0  0  0  0  0  0  0  0  0  0
  1  2  1  0
  2  3  1  0
  3  4  2  0
  3  5  1  0
  5  6  1  0
  6  7  1  0
  7  8  2  0
  7  9  1  0
  9 10  1  0
 10 11  1  0
 11 12  1  0
 12 13  2  0
 13 14  1  0
 14 15  1  0
 14 16  2  0
 16 17  1  0
 17 18  1  0
 17 19  2  0
 19 20  1  0
 20 21  3  0
 19 12  1  0
M  END
>  <Binding energies>  (15) 
[-6.47]

>  <Ligand effiencies>  (15) 
[-0.29409090909090907]

>  <Interactions>  (15) 
["V-A:LEU:363:CA:3184, V-A:TYR:539:CZ:4876, V-A:PRO:540:CB:4884, V-A:TYR:539:CD1:4872, V-A:TYR:539:C:4866, V-A:ASN:362:C:3171, V-A:TYR:531:CE2:4792, V-A:LEU:363:CD1:3188, V-A:PRO:540:N:4883, V-A:TYR:539:CA:4868, V-A:PRO:540:CA:4882, V-A:TYR:539:CE1:4874, V-A:ALA:541:CB:4891, H-B:HIS:383:NE2:8364, H-B:SER:385:OG:8380, V-A:TYR:531:CZ:4793, V-A:TYR:539:CG:4871, H-A:ARG:545:NH2:4927, H-A:ALA:541:N:4890, V-A:PRO:540:C:4880, V-A:ASP:366:CB:3211, V-A:LEU:363:C:3182, H-A:TYR:539:O:4867, V-B:PRO:482:CG:9297, V-B:PRO:482:CB:9296, H-A:LEU:363:N:3185, V-B:PRO:482:CD:9298, V-A:TYR:539:CB:4870, V-A:VAL:344:CG1:3000"]

$$$$
2a_Grossjean_2025
     RDKit          3D

 29 30  0  0  0  0  0  0  0  0999 V2000
  127.6960  137.4040   61.6930 C   0  0  0  0  0  0  0  0  0  0  0  0
  127.1500  136.5230   62.8210 C   0  0  0  0  0  0  0  0  0  0  0  0
  125.9840  135.8470   62.3670 O   0  0  0  0  0  0  0  0  0  0  0  0
  125.9200  134.4900   62.3560 C   0  0  0  0  0  0  0  0  0  0  0  0
  124.9020  133.8540   62.6440 O   0  0  0  0  0  0  0  0  0  0  0  0
  127.2080  133.8420   61.9350 C   0  0  0  0  0  0  0  0  0  0  0  0
  127.5860  133.7490   60.5870 C   0  0  0  0  0  0  0  0  0  0  0  0
  128.7850  133.1400   60.2310 C   0  0  0  0  0  0  0  0  0  0  0  0
  129.6270  132.6060   61.2080 C   0  0  0  0  0  0  0  0  0  0  0  0
  130.8050  132.0030   60.7320 N   0  0  0  0  0  0  0  0  0  0  0  0
  132.0470  131.9870   61.2620 C   0  0  0  0  0  0  0  0  0  0  0  0
  132.3890  132.5530   62.3010 O   0  0  0  0  0  0  0  0  0  0  0  0
  133.0920  131.1910   60.4730 C   0  0  0  0  0  0  0  0  0  0  0  0
  133.2470  131.7270   58.7370 S   0  0  0  0  0  0  0  0  0  0  0  0
  131.6810  131.5180   57.8980 C   0  0  0  0  0  0  0  0  0  0  0  0
  130.9320  130.4610   58.3030 N   0  0  0  0  0  0  0  0  0  0  0  0
  129.7420  130.2350   57.7040 C   0  0  0  0  0  0  0  0  0  0  0  0
  128.9760  129.0190   58.1910 C   0  0  0  0  0  0  0  0  0  0  0  0
  129.2440  131.0500   56.6910 C   0  0  0  0  0  0  0  0  0  0  0  0
  129.9970  132.1540   56.2620 C   0  0  0  0  0  0  0  0  0  0  0  0
  129.4320  133.0470   55.1400 C   0  0  0  0  0  0  0  0  0  0  0  0
  130.2660  133.0580   54.1010 F   0  0  0  0  0  0  0  0  0  0  0  0
  128.2480  132.5810   54.7410 F   0  0  0  0  0  0  0  0  0  0  0  0
  129.2560  134.3120   55.5290 F   0  0  0  0  0  0  0  0  0  0  0  0
  131.2500  132.4000   56.8800 C   0  0  0  0  0  0  0  0  0  0  0  0
  132.0790  133.5380   56.4690 C   0  0  0  0  0  0  0  0  0  0  0  0
  132.7330  134.4360   56.1440 N   0  0  0  0  0  0  0  0  0  0  0  0
  129.2600  132.7030   62.5580 C   0  0  0  0  0  0  0  0  0  0  0  0
  128.0610  133.3160   62.9130 C   0  0  0  0  0  0  0  0  0  0  0  0
  1  2  1  0
  2  3  1  0
  3  4  1  0
  4  5  2  0
  4  6  1  0
  6  7  2  0
  7  8  1  0
  8  9  2  0
  9 10  1  0
 10 11  1  0
 11 12  2  0
 11 13  1  0
 13 14  1  0
 14 15  1  0
 15 16  2  0
 16 17  1  0
 17 18  1  0
 17 19  2  0
 19 20  1  0
 20 21  1  0
 21 22  1  0
 21 23  1  0
 21 24  1  0
 20 25  2  0
 25 26  1  0
 26 27  3  0
  9 28  1  0
 28 29  2  0
 29  6  1  0
 25 15  1  0
M  END
>  <Binding energies>  (16) 
[-6.93]

>  <Ligand effiencies>  (16) 
[-0.23099999999999998]

>  <Interactions>  (16) 
["V-A:TYR:539:CZ:4876, V-A:PRO:540:CB:4884, V-A:TYR:539:CD1:4872, V-A:TYR:539:C:4866, V-A:MET:535:CB:4831, V-A:ASN:362:C:3171, V-A:MET:535:CG:4832, V-A:TYR:531:CE2:4792, V-A:LEU:363:CD1:3188, V-A:PRO:540:N:4883, V-A:TYR:539:CA:4868, V-A:PRO:540:CA:4882, V-A:TYR:539:CE1:4874, V-A:ALA:541:CB:4891, V-B:LEU:475:CD1:9228, H-A:TYR:539:N:4869, V-A:PRO:540:CD:4886, H-B:SER:385:OG:8380, V-A:TYR:531:CZ:4793, H-A:TYR:531:OH:4794, V-A:TYR:539:CG:4871, V-B:SER:385:CB:8379, V-A:ILE:538:CB:4861, H-A:ALA:541:N:4890, V-A:ILE:538:C:4857, V-A:ILE:538:CA:4859, V-A:TYR:539:CE2:4875, V-A:ILE:538:CG2:4862, V-A:TYR:539:CD2:4873, V-B:PRO:482:CG:9297, V-B:PRO:482:CB:9296, V-A:TYR:539:CB:4870"]

$$$$
2b_Grossjean_2025
     RDKit          3D

 28 29  0  0  0  0  0  0  0  0999 V2000
  124.4520  123.9360   58.0180 C   0  0  0  0  0  0  0  0  0  0  0  0
  125.2660  123.9180   56.8540 O   0  0  0  0  0  0  0  0  0  0  0  0
  126.2450  122.9900   56.7000 C   0  0  0  0  0  0  0  0  0  0  0  0
  126.1420  122.0090   55.9560 O   0  0  0  0  0  0  0  0  0  0  0  0
  127.4650  123.2730   57.5280 C   0  0  0  0  0  0  0  0  0  0  0  0
  127.8550  122.4370   58.5850 C   0  0  0  0  0  0  0  0  0  0  0  0
  128.9910  122.7290   59.3340 C   0  0  0  0  0  0  0  0  0  0  0  0
  129.7630  123.8530   59.0410 C   0  0  0  0  0  0  0  0  0  0  0  0
  130.8870  124.0570   59.8650 N   0  0  0  0  0  0  0  0  0  0  0  0
  132.1760  124.2690   59.5260 C   0  0  0  0  0  0  0  0  0  0  0  0
  132.6160  124.2960   58.3760 O   0  0  0  0  0  0  0  0  0  0  0  0
  133.1360  124.4690   60.7040 C   0  0  0  0  0  0  0  0  0  0  0  0
  133.5460  122.9160   61.5660 S   0  0  0  0  0  0  0  0  0  0  0  0
  132.1090  121.8530   61.6250 C   0  0  0  0  0  0  0  0  0  0  0  0
  130.9760  122.4190   62.1120 N   0  0  0  0  0  0  0  0  0  0  0  0
  129.8530  121.6720   62.1900 C   0  0  0  0  0  0  0  0  0  0  0  0
  128.6340  122.3740   62.7570 C   0  0  0  0  0  0  0  0  0  0  0  0
  129.8060  120.3420   61.7810 C   0  0  0  0  0  0  0  0  0  0  0  0
  130.9630  119.7370   61.2670 C   0  0  0  0  0  0  0  0  0  0  0  0
  130.8930  118.2670   60.8150 C   0  0  0  0  0  0  0  0  0  0  0  0
  131.2210  118.1700   59.5260 F   0  0  0  0  0  0  0  0  0  0  0  0
  131.7390  117.5250   61.5330 F   0  0  0  0  0  0  0  0  0  0  0  0
  129.6760  117.7390   60.9600 F   0  0  0  0  0  0  0  0  0  0  0  0
  132.1510  120.5080   61.1860 C   0  0  0  0  0  0  0  0  0  0  0  0
  133.3910  119.9260   60.6630 C   0  0  0  0  0  0  0  0  0  0  0  0
  134.3690  119.4670   60.2490 N   0  0  0  0  0  0  0  0  0  0  0  0
  129.3760  124.6980   57.9910 C   0  0  0  0  0  0  0  0  0  0  0  0
  128.2390  124.4060   57.2430 C   0  0  0  0  0  0  0  0  0  0  0  0
  1  2  1  0
  2  3  1  0
  3  4  2  0
  3  5  1  0
  5  6  2  0
  6  7  1  0
  7  8  2  0
  8  9  1  0
  9 10  1  0
 10 11  2  0
 10 12  1  0
 12 13  1  0
 13 14  1  0
 14 15  2  0
 15 16  1  0
 16 17  1  0
 16 18  2  0
 18 19  1  0
 19 20  1  0
 20 21  1  0
 20 22  1  0
 20 23  1  0
 19 24  2  0
 24 25  1  0
 25 26  3  0
  8 27  1  0
 27 28  2  0
 28  5  1  0
 24 14  1  0
M  END
>  <Binding energies>  (17) 
[-7.71]

>  <Ligand effiencies>  (17) 
[-0.26586206896551723]

>  <Interactions>  (17) 
["V-B:LEU:363:CD1:8159, V-B:TYR:539:CZ:9848, V-A:ASP:366:CG:3212, H-B:TYR:531:OH:9766, V-B:TYR:539:CD2:9845, V-B:MET:535:CE:9806, V-B:TYR:539:C:9838, V-B:TYR:539:CG:9843, V-B:TYR:539:CE2:9847, H-B:TYR:539:N:9841, V-B:PRO:540:CA:9854, V-B:PRO:540:CB:9856, V-B:PRO:540:N:9855, V-A:ILE:369:CD1:3238, V-A:LEU:475:CD2:4258, V-B:ALA:541:CB:9863, V-A:HIS:383:CE1:3393, V-A:ILE:369:CG2:3236, V-A:SER:385:CA:3406, V-B:TYR:539:CB:9842, H-A:SER:385:N:3407, V-A:SER:385:CB:3408, V-B:ALA:541:CA:9861, V-A:ASP:366:CB:3211, H-B:TYR:539:OH:9849, V-A:PRO:482:CG:4326, V-A:PRO:482:CB:4325"]

$$$$
2c_Grossjean_2025
     RDKit          3D

 26 27  0  0  0  0  0  0  0  0999 V2000
  125.2660  122.0950   55.7700 C   0  0  0  0  0  0  0  0  0  0  0  0
  126.1780  123.1600   56.0190 O   0  0  0  0  0  0  0  0  0  0  0  0
  126.7600  123.2700   57.2670 C   0  0  0  0  0  0  0  0  0  0  0  0
  125.9180  123.6350   58.3170 C   0  0  0  0  0  0  0  0  0  0  0  0
  126.4130  123.7730   59.6110 C   0  0  0  0  0  0  0  0  0  0  0  0
  127.7740  123.5540   59.8670 C   0  0  0  0  0  0  0  0  0  0  0  0
  128.3620  123.6510   61.1410 N   0  0  0  0  0  0  0  0  0  0  0  0
  127.8570  123.2660   62.3330 C   0  0  0  0  0  0  0  0  0  0  0  0
  126.7290  122.7970   62.4980 O   0  0  0  0  0  0  0  0  0  0  0  0
  128.7890  123.4890   63.5330 C   0  0  0  0  0  0  0  0  0  0  0  0
  129.9950  122.1540   63.8500 S   0  0  0  0  0  0  0  0  0  0  0  0
  131.0690  121.9730   62.4320 C   0  0  0  0  0  0  0  0  0  0  0  0
  131.4020  120.6980   62.1050 N   0  0  0  0  0  0  0  0  0  0  0  0
  132.2180  120.4860   61.0500 C   0  0  0  0  0  0  0  0  0  0  0  0
  132.5570  119.0370   60.7600 C   0  0  0  0  0  0  0  0  0  0  0  0
  132.7280  121.5250   60.2740 C   0  0  0  0  0  0  0  0  0  0  0  0
  132.3920  122.8490   60.5880 C   0  0  0  0  0  0  0  0  0  0  0  0
  132.9620  123.9870   59.7190 C   0  0  0  0  0  0  0  0  0  0  0  0
  131.9910  124.8400   59.3890 F   0  0  0  0  0  0  0  0  0  0  0  0
  133.9070  124.6460   60.3910 F   0  0  0  0  0  0  0  0  0  0  0  0
  133.5100  123.5440   58.5850 F   0  0  0  0  0  0  0  0  0  0  0  0
  131.5400  123.0870   61.6970 C   0  0  0  0  0  0  0  0  0  0  0  0
  131.1570  124.4520   62.0730 C   0  0  0  0  0  0  0  0  0  0  0  0
  130.8550  125.5290   62.3680 N   0  0  0  0  0  0  0  0  0  0  0  0
  128.6190  123.1720   58.8220 C   0  0  0  0  0  0  0  0  0  0  0  0
  128.1190  123.0350   57.5300 C   0  0  0  0  0  0  0  0  0  0  0  0
  1  2  1  0
  2  3  1  0
  3  4  2  0
  4  5  1  0
  5  6  2  0
  6  7  1  0
  7  8  1  0
  8  9  2  0
  8 10  1  0
 10 11  1  0
 11 12  1  0
 12 13  2  0
 13 14  1  0
 14 15  1  0
 14 16  2  0
 16 17  1  0
 17 18  1  0
 18 19  1  0
 18 20  1  0
 18 21  1  0
 17 22  2  0
 22 23  1  0
 23 24  3  0
  6 25  1  0
 25 26  2  0
 26  3  1  0
 22 12  1  0
M  END
>  <Binding energies>  (18) 
[-6.51]

>  <Ligand effiencies>  (18) 
[-0.2411111111111111]

>  <Interactions>  (18) 
["V-B:LEU:363:CD1:8159, V-B:TYR:539:CZ:9848, V-B:TYR:531:CE2:9764, V-A:ASP:366:CG:3212, H-B:TYR:531:OH:9766, V-B:TYR:539:CD2:9845, V-B:MET:535:CE:9806, V-B:TYR:539:CE1:9846, V-B:TYR:539:CG:9843, V-B:TYR:539:CE2:9847, V-B:ILE:538:CG2:9834, V-B:PRO:540:CA:9854, V-B:PRO:540:CB:9856, V-B:ILE:538:CD1:9836, V-B:PRO:540:CD:9858, V-B:GLU:543:CD:9879, V-A:ILE:369:CD1:3238, V-A:LEU:475:CD2:4258, V-A:ILE:369:CG2:3236, V-B:ILE:538:CA:9831, V-A:SER:385:CA:3406, V-A:SER:385:CB:3408, V-A:ASP:366:CB:3211, V-A:ASP:366:CA:3209, V-A:ILE:369:CB:3235, H-B:ALA:541:N:9862, V-B:ILE:538:CB:9833"]

$$$$
2d_Ghoteimi_2023
     RDKit          3D

 38 42  0  0  0  0  0  0  0  0999 V2000
  134.9380  124.7620   76.5390 C   0  0  0  0  0  0  0  0  0  0  0  0
  133.6350  124.6060   77.0800 O   0  0  0  0  0  0  0  0  0  0  0  0
  132.5900  125.2800   76.5570 C   0  0  0  0  0  0  0  0  0  0  0  0
  131.4220  125.2080   76.9490 O   0  0  0  0  0  0  0  0  0  0  0  0
  133.0330  126.1770   75.3910 C   0  0  0  0  0  0  0  0  0  0  0  0
  131.7370  127.3880   74.9600 S   0  0  0  0  0  0  0  0  0  0  0  0
  130.5000  126.5600   73.9810 C   0  0  0  0  0  0  0  0  0  0  0  0
  130.2710  125.2840   74.3770 N   0  0  0  0  0  0  0  0  0  0  0  0
  129.3560  124.5310   73.7150 C   0  0  0  0  0  0  0  0  0  0  0  0
  129.1700  123.1280   74.1980 C   0  0  0  0  0  0  0  0  0  0  0  0
  130.2450  122.4110   74.7350 C   0  0  0  0  0  0  0  0  0  0  0  0
  130.0790  121.1040   75.1860 C   0  0  0  0  0  0  0  0  0  0  0  0
  128.8280  120.4710   75.1260 C   0  0  0  0  0  0  0  0  0  0  0  0
  128.6480  119.1520   75.5590 N   0  0  0  0  0  0  0  0  0  0  0  0
  128.8200  118.7740   76.9750 C   0  0  0  0  0  0  0  0  0  0  0  0
  128.9510  117.2520   77.1970 C   0  0  0  0  0  0  0  0  0  0  0  0
  127.8370  116.5830   76.6270 O   0  0  0  0  0  0  0  0  0  0  0  0
  127.7500  116.8120   75.2300 C   0  0  0  0  0  0  0  0  0  0  0  0
  127.5900  118.3210   74.9490 C   0  0  0  0  0  0  0  0  0  0  0  0
  127.7570  121.1890   74.5750 C   0  0  0  0  0  0  0  0  0  0  0  0
  127.9240  122.4940   74.1210 C   0  0  0  0  0  0  0  0  0  0  0  0
  128.6420  125.0500   72.6320 C   0  0  0  0  0  0  0  0  0  0  0  0
  128.8360  126.3750   72.2240 C   0  0  0  0  0  0  0  0  0  0  0  0
  128.0180  126.8710   71.0770 C   0  0  0  0  0  0  0  0  0  0  0  0
  126.6430  126.6320   71.0400 C   0  0  0  0  0  0  0  0  0  0  0  0
  125.8690  127.1000   69.9820 C   0  0  0  0  0  0  0  0  0  0  0  0
  126.4520  127.8210   68.9270 C   0  0  0  0  0  0  0  0  0  0  0  0
  125.6920  128.3110   67.8610 N   0  0  0  0  0  0  0  0  0  0  0  0
  126.3280  128.7810   66.6150 C   0  0  0  0  0  0  0  0  0  0  0  0
  125.3390  128.9410   65.4410 C   0  0  0  0  0  0  0  0  0  0  0  0
  124.2710  129.7960   65.8190 O   0  0  0  0  0  0  0  0  0  0  0  0
  123.5560  129.2810   66.9320 C   0  0  0  0  0  0  0  0  0  0  0  0
  124.5000  129.1330   68.1450 C   0  0  0  0  0  0  0  0  0  0  0  0
  127.8290  128.0720   68.9810 C   0  0  0  0  0  0  0  0  0  0  0  0
  128.6020  127.6040   70.0400 C   0  0  0  0  0  0  0  0  0  0  0  0
  129.7890  127.1630   72.9180 C   0  0  0  0  0  0  0  0  0  0  0  0
  130.0130  128.5610   72.5410 C   0  0  0  0  0  0  0  0  0  0  0  0
  130.1880  129.6660   72.2400 N   0  0  0  0  0  0  0  0  0  0  0  0
  1  2  1  0
  2  3  1  0
  3  4  2  0
  3  5  1  0
  5  6  1  0
  6  7  1  0
  7  8  2  0
  8  9  1  0
  9 10  1  0
 10 11  2  0
 11 12  1  0
 12 13  2  0
 13 14  1  0
 14 15  1  0
 15 16  1  0
 16 17  1  0
 17 18  1  0
 18 19  1  0
 13 20  1  0
 20 21  2  0
  9 22  2  0
 22 23  1  0
 23 24  1  0
 24 25  2  0
 25 26  1  0
 26 27  2  0
 27 28  1  0
 28 29  1  0
 29 30  1  0
 30 31  1  0
 31 32  1  0
 32 33  1  0
 27 34  1  0
 34 35  2  0
 23 36  2  0
 36 37  1  0
 37 38  3  0
 36  7  1  0
 21 10  1  0
 35 24  1  0
 19 14  1  0
 33 28  1  0
M  END
>  <Binding energies>  (19) 
[-9.04]

>  <Ligand effiencies>  (19) 
[-0.23789473684210524]

>  <Interactions>  (19) 
["V-B:ARG:545:CZ:9897, H-B:GLY:454:N:9020, V-B:GLU:543:CD:9879, H-B:TYR:484:OH:9318, V-B:GLU:543:CB:9877, V-A:VAL:458:CG2:4086, V-A:LYS:471:CD:4218, V-B:GLU:543:C:9873, V-B:GLY:544:CA:9885, V-A:HIS:456:CE1:4069, V-A:HIS:456:CG:4065, V-B:GLY:544:C:9883, V-B:HIS:456:CE1:9040, V-A:HIS:456:CB:4064, V-A:HIS:456:C:4060, V-B:TYR:484:CZ:9317, V-B:ARG:545:CG:9893, V-B:ARG:545:CD:9894, V-B:ARG:545:CB:9892, V-B:ARG:545:CA:9890, V-B:LYS:547:CE:9921, H-B:LYS:547:NZ:9922, H-A:LYS:471:NZ:4220, V-A:ASP:473:CG:4239, V-A:TYR:484:CB:4340"]

$$$$
2d_Grossjean_2025
     RDKit          3D

 24 25  0  0  0  0  0  0  0  0999 V2000
  127.4580  131.6600   60.1140 C   0  0  0  0  0  0  0  0  0  0  0  0
  126.9760  131.4150   58.6970 C   0  0  0  0  0  0  0  0  0  0  0  0
  125.6200  131.3120   58.3950 C   0  0  0  0  0  0  0  0  0  0  0  0
  125.2240  131.0900   57.0680 C   0  0  0  0  0  0  0  0  0  0  0  0
  123.7190  130.9890   56.7520 C   0  0  0  0  0  0  0  0  0  0  0  0
  123.4250  129.7640   56.3160 F   0  0  0  0  0  0  0  0  0  0  0  0
  123.0030  131.2400   57.8490 F   0  0  0  0  0  0  0  0  0  0  0  0
  123.3290  131.8540   55.8130 F   0  0  0  0  0  0  0  0  0  0  0  0
  126.2260  130.9700   56.0720 C   0  0  0  0  0  0  0  0  0  0  0  0
  125.8630  130.7840   54.6650 C   0  0  0  0  0  0  0  0  0  0  0  0
  125.5750  130.6390   53.5530 N   0  0  0  0  0  0  0  0  0  0  0  0
  127.5790  131.0630   56.4760 C   0  0  0  0  0  0  0  0  0  0  0  0
  128.9630  130.9040   55.3630 S   0  0  0  0  0  0  0  0  0  0  0  0
  129.8570  132.4920   55.3090 C   0  0  0  0  0  0  0  0  0  0  0  0
  130.5090  132.8580   56.6460 C   0  0  0  0  0  0  0  0  0  0  0  0
  130.5160  134.0360   57.0060 O   0  0  0  0  0  0  0  0  0  0  0  0
  131.0650  131.8320   57.3250 N   0  0  0  0  0  0  0  0  0  0  0  0
  131.7260  131.8430   58.5670 C   0  0  0  0  0  0  0  0  0  0  0  0
  130.9340  132.1330   59.6800 C   0  0  0  0  0  0  0  0  0  0  0  0
  131.4990  132.1730   60.9520 C   0  0  0  0  0  0  0  0  0  0  0  0
  132.8620  131.9310   61.1100 C   0  0  0  0  0  0  0  0  0  0  0  0
  133.6640  131.6540   60.0060 C   0  0  0  0  0  0  0  0  0  0  0  0
  133.1020  131.6120   58.7340 C   0  0  0  0  0  0  0  0  0  0  0  0
  127.9440  131.2990   57.7590 N   0  0  0  0  0  0  0  0  0  0  0  0
  1  2  1  0
  2  3  2  0
  3  4  1  0
  4  5  1  0
  5  6  1  0
  5  7  1  0
  5  8  1  0
  4  9  2  0
  9 10  1  0
 10 11  3  0
  9 12  1  0
 12 13  1  0
 13 14  1  0
 14 15  1  0
 15 16  2  0
 15 17  1  0
 17 18  1  0
 18 19  2  0
 19 20  1  0
 20 21  2  0
 21 22  1  0
 22 23  2  0
 12 24  2  0
 24  2  1  0
 23 18  1  0
M  END
>  <Binding energies>  (20) 
[-7.32]

>  <Ligand effiencies>  (20) 
[-0.2928]

>  <Interactions>  (20) 
["V-A:LEU:363:CA:3184, V-A:TYR:539:CZ:4876, V-B:ILE:369:CB:8206, V-A:PRO:540:CB:4884, V-B:ILE:369:C:8202, V-B:ASN:370:CB:8215, V-A:ASN:362:C:3171, V-A:ASN:362:CB:3175, V-A:MET:535:CG:4832, V-B:TYR:531:CE1:9763, V-B:ILE:369:CG2:8207, V-A:PRO:540:CA:4882, V-A:TYR:539:CE1:4874, V-B:ASN:370:CA:8213, V-B:ASP:366:CB:8182, H-A:TYR:539:N:4869, V-A:TYR:531:CZ:4793, H-A:TYR:531:OH:4794, H-A:TYR:539:OH:4877, V-B:ASP:366:CA:8180, V-B:ASP:366:C:8178, V-B:ASN:370:CG:8216, H-B:LYS:534:NZ:9794, V-B:TYR:531:CD1:9761"]

$$$$
2e_Grossjean_2025
     RDKit          3D

 25 26  0  0  0  0  0  0  0  0999 V2000
  131.3380  132.1410   61.7250 C   0  0  0  0  0  0  0  0  0  0  0  0
  132.0200  131.7480   60.4290 C   0  0  0  0  0  0  0  0  0  0  0  0
  133.2650  131.1140   60.4190 C   0  0  0  0  0  0  0  0  0  0  0  0
  133.8260  130.7710   59.1880 C   0  0  0  0  0  0  0  0  0  0  0  0
  133.1370  131.0680   58.0090 C   0  0  0  0  0  0  0  0  0  0  0  0
  131.8980  131.7140   58.0900 C   0  0  0  0  0  0  0  0  0  0  0  0
  131.2290  131.9490   56.8770 N   0  0  0  0  0  0  0  0  0  0  0  0
  130.4940  133.0280   56.5260 C   0  0  0  0  0  0  0  0  0  0  0  0
  130.3510  134.0400   57.2140 O   0  0  0  0  0  0  0  0  0  0  0  0
  129.7630  132.9280   55.1830 C   0  0  0  0  0  0  0  0  0  0  0  0
  128.8890  131.3410   54.9970 S   0  0  0  0  0  0  0  0  0  0  0  0
  127.6180  131.3500   56.2410 C   0  0  0  0  0  0  0  0  0  0  0  0
  128.0580  131.6120   57.4970 N   0  0  0  0  0  0  0  0  0  0  0  0
  127.1630  131.5940   58.5110 C   0  0  0  0  0  0  0  0  0  0  0  0
  127.7220  131.8970   59.8880 C   0  0  0  0  0  0  0  0  0  0  0  0
  125.8120  131.3100   58.3180 C   0  0  0  0  0  0  0  0  0  0  0  0
  125.3430  131.0270   57.0260 C   0  0  0  0  0  0  0  0  0  0  0  0
  123.8520  130.6940   56.8330 C   0  0  0  0  0  0  0  0  0  0  0  0
  123.2130  130.7560   58.0020 F   0  0  0  0  0  0  0  0  0  0  0  0
  123.2970  131.5660   55.9900 F   0  0  0  0  0  0  0  0  0  0  0  0
  123.6580  129.4720   56.3330 F   0  0  0  0  0  0  0  0  0  0  0  0
  126.2670  131.0480   55.9520 C   0  0  0  0  0  0  0  0  0  0  0  0
  125.8460  130.7310   54.5840 C   0  0  0  0  0  0  0  0  0  0  0  0
  125.5120  130.4810   53.5040 N   0  0  0  0  0  0  0  0  0  0  0  0
  131.3390  132.0440   59.2910 N   0  0  0  0  0  0  0  0  0  0  0  0
  1  2  1  0
  2  3  2  0
  3  4  1  0
  4  5  2  0
  5  6  1  0
  6  7  1  0
  7  8  1  0
  8  9  2  0
  8 10  1  0
 10 11  1  0
 11 12  1  0
 12 13  2  0
 13 14  1  0
 14 15  1  0
 14 16  2  0
 16 17  1  0
 17 18  1  0
 18 19  1  0
 18 20  1  0
 18 21  1  0
 17 22  2  0
 22 23  1  0
 23 24  3  0
  6 25  2  0
 25  2  1  0
 22 12  1  0
M  END
>  <Binding energies>  (21) 
[-7.5]

>  <Ligand effiencies>  (21) 
[-0.28846153846153844]

>  <Interactions>  (21) 
["V-A:LEU:363:CA:3184, V-B:TYR:531:CZ:9765, V-A:TYR:539:CZ:4876, V-B:ILE:369:CB:8206, V-A:PRO:540:CB:4884, V-A:TYR:539:CD1:4872, V-B:ILE:369:C:8202, V-A:ASP:366:CG:3212, V-B:ASN:370:CB:8215, V-A:ASN:362:C:3171, V-A:MET:535:CG:4832, V-B:TYR:531:CE1:9763, V-A:TYR:531:CE2:4792, V-B:ILE:369:CG2:8207, V-A:PRO:540:CA:4882, V-A:TYR:539:CE1:4874, V-B:ASN:370:CA:8213, V-B:ASP:366:CB:8182, H-A:TYR:539:N:4869, V-A:TYR:531:CZ:4793, H-A:TYR:531:OH:4794, V-A:ASP:366:CB:3211, H-A:TYR:539:OH:4877, V-B:ASP:366:CA:8180, V-B:ASP:366:C:8178, H-B:LYS:534:NZ:9794, V-B:TYR:531:CD1:9761"]

$$$$
2f_Grossjean_2025
     RDKit          3D

 24 25  0  0  0  0  0  0  0  0999 V2000
  133.3740  123.9320   60.3940 C   0  0  0  0  0  0  0  0  0  0  0  0
  132.6380  122.6450   60.7140 C   0  0  0  0  0  0  0  0  0  0  0  0
  133.1270  121.4050   60.3110 C   0  0  0  0  0  0  0  0  0  0  0  0
  132.4050  120.2430   60.6250 C   0  0  0  0  0  0  0  0  0  0  0  0
  132.9560  118.8820   60.1600 C   0  0  0  0  0  0  0  0  0  0  0  0
  134.1590  119.0400   59.6040 F   0  0  0  0  0  0  0  0  0  0  0  0
  133.0670  118.0560   61.2020 F   0  0  0  0  0  0  0  0  0  0  0  0
  132.1730  118.2870   59.2570 F   0  0  0  0  0  0  0  0  0  0  0  0
  131.1950  120.3730   61.3540 C   0  0  0  0  0  0  0  0  0  0  0  0
  130.3760  119.1960   61.6560 C   0  0  0  0  0  0  0  0  0  0  0  0
  129.7310  118.2660   61.8960 N   0  0  0  0  0  0  0  0  0  0  0  0
  130.7890  121.6720   61.7440 C   0  0  0  0  0  0  0  0  0  0  0  0
  129.3080  122.0190   62.6720 S   0  0  0  0  0  0  0  0  0  0  0  0
  128.5390  123.5180   61.9690 C   0  0  0  0  0  0  0  0  0  0  0  0
  127.4270  123.2600   60.9430 C   0  0  0  0  0  0  0  0  0  0  0  0
  126.2560  123.1350   61.3040 O   0  0  0  0  0  0  0  0  0  0  0  0
  127.8540  123.1680   59.6650 N   0  0  0  0  0  0  0  0  0  0  0  0
  127.1140  122.9500   58.4870 C   0  0  0  0  0  0  0  0  0  0  0  0
  125.7710  123.3190   58.2870 C   0  0  0  0  0  0  0  0  0  0  0  0
  125.1540  123.0480   57.0640 C   0  0  0  0  0  0  0  0  0  0  0  0
  125.8980  122.4160   56.0670 C   0  0  0  0  0  0  0  0  0  0  0  0
  127.1960  122.0560   56.2320 N   0  0  0  0  0  0  0  0  0  0  0  0
  127.7820  122.3280   57.4270 C   0  0  0  0  0  0  0  0  0  0  0  0
  131.4880  122.7840   61.4130 N   0  0  0  0  0  0  0  0  0  0  0  0
  1  2  1  0
  2  3  2  0
  3  4  1  0
  4  5  1  0
  5  6  1  0
  5  7  1  0
  5  8  1  0
  4  9  2  0
  9 10  1  0
 10 11  3  0
  9 12  1  0
 12 13  1  0
 13 14  1  0
 14 15  1  0
 15 16  2  0
 15 17  1  0
 17 18  1  0
 18 19  2  0
 19 20  1  0
 20 21  2  0
 21 22  1  0
 22 23  2  0
 12 24  2  0
 24  2  1  0
 23 18  1  0
M  END
>  <Binding energies>  (22) 
[-7.39]

>  <Ligand effiencies>  (22) 
[-0.2956]

>  <Interactions>  (22) 
["V-B:LEU:363:CD1:8159, V-B:TYR:539:CZ:9848, V-B:TYR:531:CE2:9764, V-A:ASP:366:CG:3212, V-B:TYR:539:CD2:9845, V-B:MET:535:CE:9806, V-B:TYR:539:CE1:9846, V-B:TYR:539:C:9838, V-B:TYR:539:CA:9840, V-B:TYR:539:CD1:9844, V-B:TYR:539:CG:9843, V-B:TYR:539:CE2:9847, H-B:TYR:539:N:9841, V-B:PRO:540:CA:9854, V-B:PRO:540:CB:9856, V-B:ILE:538:CD1:9836, V-B:PRO:540:N:9855, V-B:PRO:540:CD:9858, V-A:ILE:369:CD1:3238, V-A:LEU:475:CD2:4258, V-B:ALA:541:CB:9863, V-A:ILE:369:CG2:3236, V-B:ILE:538:CA:9831, V-A:SER:385:CA:3406, V-B:TYR:539:CB:9842, V-A:SER:385:CB:3408, H-B:ALA:541:N:9862, V-A:VAL:384:C:3396, V-A:LEU:373:CD2:3280"]

$$$$
2g_Grossjean_2025
     RDKit          3D

 25 26  0  0  0  0  0  0  0  0999 V2000
  127.4190  131.8960   60.0310 C   0  0  0  0  0  0  0  0  0  0  0  0
  126.9660  131.5940   58.6150 C   0  0  0  0  0  0  0  0  0  0  0  0
  125.6210  131.4040   58.3050 C   0  0  0  0  0  0  0  0  0  0  0  0
  125.2530  131.1200   56.9810 C   0  0  0  0  0  0  0  0  0  0  0  0
  123.7610  130.9040   56.6580 C   0  0  0  0  0  0  0  0  0  0  0  0
  123.0210  131.0760   57.7550 F   0  0  0  0  0  0  0  0  0  0  0  0
  123.3680  131.7780   55.7300 F   0  0  0  0  0  0  0  0  0  0  0  0
  123.5060  129.6790   56.1930 F   0  0  0  0  0  0  0  0  0  0  0  0
  126.2690  131.0440   55.9950 C   0  0  0  0  0  0  0  0  0  0  0  0
  125.9450  130.6940   54.6090 C   0  0  0  0  0  0  0  0  0  0  0  0
  125.6870  130.4180   53.5150 N   0  0  0  0  0  0  0  0  0  0  0  0
  127.6060  131.2820   56.3980 C   0  0  0  0  0  0  0  0  0  0  0  0
  128.9980  131.2510   55.2880 S   0  0  0  0  0  0  0  0  0  0  0  0
  129.6290  132.9580   55.1530 C   0  0  0  0  0  0  0  0  0  0  0  0
  130.8710  133.2520   56.0050 C   0  0  0  0  0  0  0  0  0  0  0  0
  131.2510  134.4070   56.2090 O   0  0  0  0  0  0  0  0  0  0  0  0
  131.5030  132.1720   56.4980 N   0  0  0  0  0  0  0  0  0  0  0  0
  132.6990  132.1990   57.3420 C   0  0  0  0  0  0  0  0  0  0  0  0
  132.4210  132.0280   58.8320 C   0  0  0  0  0  0  0  0  0  0  0  0
  133.4580  131.6600   59.6950 C   0  0  0  0  0  0  0  0  0  0  0  0
  133.2150  131.5410   61.0610 C   0  0  0  0  0  0  0  0  0  0  0  0
  131.9410  131.8000   61.5610 C   0  0  0  0  0  0  0  0  0  0  0  0
  130.9070  132.1810   60.7070 C   0  0  0  0  0  0  0  0  0  0  0  0
  131.1490  132.3000   59.3410 C   0  0  0  0  0  0  0  0  0  0  0  0
  127.9460  131.5330   57.6860 N   0  0  0  0  0  0  0  0  0  0  0  0
  1  2  1  0
  2  3  2  0
  3  4  1  0
  4  5  1  0
  5  6  1  0
  5  7  1  0
  5  8  1  0
  4  9  2  0
  9 10  1  0
 10 11  3  0
  9 12  1  0
 12 13  1  0
 13 14  1  0
 14 15  1  0
 15 16  2  0
 15 17  1  0
 17 18  1  0
 18 19  1  0
 19 20  2  0
 20 21  1  0
 21 22  2  0
 22 23  1  0
 23 24  2  0
 12 25  2  0
 25  2  1  0
 24 19  1  0
M  END
>  <Binding energies>  (23) 
[-7.66]

>  <Ligand effiencies>  (23) 
[-0.2946153846153846]

>  <Interactions>  (23) 
["V-A:LEU:363:CA:3184, V-A:TYR:539:CZ:4876, V-B:ILE:369:CB:8206, V-A:PRO:540:CB:4884, V-A:TYR:539:CD1:4872, V-B:ILE:369:C:8202, V-B:ASN:370:CB:8215, V-A:ASN:362:C:3171, V-A:ASN:362:CB:3175, V-B:TYR:531:CE1:9763, V-A:TYR:531:CE2:4792, V-A:LEU:363:CD1:3188, V-A:PRO:540:N:4883, V-B:ILE:369:CG2:8207, V-A:PRO:540:CA:4882, V-A:TYR:539:CE1:4874, V-B:ASN:370:CA:8213, V-B:ASP:366:CB:8182, H-A:TYR:539:N:4869, V-A:TYR:531:CZ:4793, H-A:TYR:531:OH:4794, V-A:ILE:538:CB:4861, H-A:TYR:539:OH:4877, V-A:ILE:538:CA:4859, V-B:ASP:366:CA:8180, V-B:ASP:366:C:8178, V-B:ASN:370:CG:8216, H-B:LYS:534:NZ:9794, V-B:TYR:531:CD1:9761"]

$$$$
2h_Grossjean_2025
     RDKit          3D

 31 32  0  0  0  0  0  0  0  0999 V2000
  132.3310  134.0570   56.4960 C   0  0  0  0  0  0  0  0  0  0  0  0
  130.9220  133.9940   56.6880 O   0  0  0  0  0  0  0  0  0  0  0  0
  130.2720  132.7810   56.5530 C   0  0  0  0  0  0  0  0  0  0  0  0
  129.5960  132.3800   55.3890 C   0  0  0  0  0  0  0  0  0  0  0  0
  128.9710  131.1370   55.3240 C   0  0  0  0  0  0  0  0  0  0  0  0
  129.0050  130.2680   56.4170 C   0  0  0  0  0  0  0  0  0  0  0  0
  128.3290  128.9020   56.3140 C   0  0  0  0  0  0  0  0  0  0  0  0
  128.9770  127.8650   57.1170 N   0  0  0  0  0  0  0  0  0  0  0  0
  129.8840  126.9870   56.6550 C   0  0  0  0  0  0  0  0  0  0  0  0
  130.2070  126.9120   55.4680 O   0  0  0  0  0  0  0  0  0  0  0  0
  130.5150  126.0680   57.7110 C   0  0  0  0  0  0  0  0  0  0  0  0
  129.5530  124.5680   58.1020 S   0  0  0  0  0  0  0  0  0  0  0  0
  127.8550  125.0750   58.2660 C   0  0  0  0  0  0  0  0  0  0  0  0
  127.7000  126.2720   58.8830 N   0  0  0  0  0  0  0  0  0  0  0  0
  126.4490  126.7440   59.0770 C   0  0  0  0  0  0  0  0  0  0  0  0
  126.3510  128.0850   59.7800 C   0  0  0  0  0  0  0  0  0  0  0  0
  125.3110  126.0530   58.6640 C   0  0  0  0  0  0  0  0  0  0  0  0
  125.4520  124.8220   58.0050 C   0  0  0  0  0  0  0  0  0  0  0  0
  124.1830  124.0770   57.5470 C   0  0  0  0  0  0  0  0  0  0  0  0
  123.8370  123.1670   58.4580 F   0  0  0  0  0  0  0  0  0  0  0  0
  123.1390  124.8920   57.3780 F   0  0  0  0  0  0  0  0  0  0  0  0
  124.4060  123.4640   56.3850 F   0  0  0  0  0  0  0  0  0  0  0  0
  126.7590  124.3170   57.7870 C   0  0  0  0  0  0  0  0  0  0  0  0
  126.9630  123.0660   57.0520 C   0  0  0  0  0  0  0  0  0  0  0  0
  127.1210  122.0790   56.4690 N   0  0  0  0  0  0  0  0  0  0  0  0
  129.6560  130.6660   57.5940 C   0  0  0  0  0  0  0  0  0  0  0  0
  129.6910  129.8170   58.6750 O   0  0  0  0  0  0  0  0  0  0  0  0
  130.9940  129.3660   59.0240 C   0  0  0  0  0  0  0  0  0  0  0  0
  130.3030  131.9120   57.6510 C   0  0  0  0  0  0  0  0  0  0  0  0
  130.9580  132.2960   58.7970 O   0  0  0  0  0  0  0  0  0  0  0  0
  130.0970  132.7380   59.8380 C   0  0  0  0  0  0  0  0  0  0  0  0
  1  2  1  0
  2  3  1  0
  3  4  2  0
  4  5  1  0
  5  6  2  0
  6  7  1  0
  7  8  1  0
  8  9  1  0
  9 10  2  0
  9 11  1  0
 11 12  1  0
 12 13  1  0
 13 14  2  0
 14 15  1  0
 15 16  1  0
 15 17  2  0
 17 18  1  0
 18 19  1  0
 19 20  1  0
 19 21  1  0
 19 22  1  0
 18 23  2  0
 23 24  1  0
 24 25  3  0
  6 26  1  0
 26 27  1  0
 27 28  1  0
 26 29  2  0
 29 30  1  0
 30 31  1  0
 29  3  1  0
 23 13  1  0
M  END
>  <Binding energies>  (24) 
[-6.56]

>  <Ligand effiencies>  (24) 
[-0.205]

>  <Interactions>  (24) 
["V-B:LEU:363:CD1:8159, V-B:TYR:531:CZ:9765, V-B:LEU:363:CA:8155, V-A:PRO:540:CB:4884, V-A:TYR:539:C:4866, V-B:TYR:531:CE2:9764, V-A:MET:535:CG:4832, V-A:LEU:363:CD1:3188, V-A:PRO:540:N:4883, V-B:MET:535:CE:9806, V-A:PRO:540:CA:4882, V-B:ASP:366:CG:8183, V-B:ASP:366:CB:8182, H-B:TYR:539:N:9841, V-B:PRO:540:CA:9854, V-B:PRO:540:CB:9856, H-A:TYR:539:N:4869, V-A:PRO:540:CD:4886, H-A:TYR:531:OH:4794, V-B:PRO:540:CG:9857, V-A:ILE:538:CB:4861, V-B:LEU:363:CB:8157, V-A:MET:535:CE:4834, H-B:TYR:539:OH:9849, V-A:ILE:538:CA:4859, V-A:ILE:538:CG2:4862, V-A:PRO:540:CG:4885, V-B:LEU:363:CG:8158"]

$$$$
2i_Grossjean_2025
     RDKit          3D

 23 24  0  0  0  0  0  0  0  0999 V2000
  133.1630  124.0930   60.2110 C   0  0  0  0  0  0  0  0  0  0  0  0
  132.4740  122.7740   60.5080 C   0  0  0  0  0  0  0  0  0  0  0  0
  133.1240  121.5550   60.3330 C   0  0  0  0  0  0  0  0  0  0  0  0
  132.4440  120.3630   60.6240 C   0  0  0  0  0  0  0  0  0  0  0  0
  133.1770  119.0230   60.4240 C   0  0  0  0  0  0  0  0  0  0  0  0
  132.6410  118.3590   59.3990 F   0  0  0  0  0  0  0  0  0  0  0  0
  134.4680  119.2410   60.1700 F   0  0  0  0  0  0  0  0  0  0  0  0
  133.1080  118.2310   61.4960 F   0  0  0  0  0  0  0  0  0  0  0  0
  131.1070  120.4430   61.0910 C   0  0  0  0  0  0  0  0  0  0  0  0
  130.3500  119.2280   61.4110 C   0  0  0  0  0  0  0  0  0  0  0  0
  129.7520  118.2700   61.6650 N   0  0  0  0  0  0  0  0  0  0  0  0
  130.5240  121.7220   61.2380 C   0  0  0  0  0  0  0  0  0  0  0  0
  128.8470  121.9450   61.8090 S   0  0  0  0  0  0  0  0  0  0  0  0
  128.1310  123.3620   60.9220 C   0  0  0  0  0  0  0  0  0  0  0  0
  128.0590  123.1250   59.4120 C   0  0  0  0  0  0  0  0  0  0  0  0
  129.0920  123.2000   58.7450 O   0  0  0  0  0  0  0  0  0  0  0  0
  126.8300  122.8710   58.9150 N   0  0  0  0  0  0  0  0  0  0  0  0
  126.5060  122.6420   57.5870 C   0  0  0  0  0  0  0  0  0  0  0  0
  125.3410  122.9600   56.8740 C   0  0  0  0  0  0  0  0  0  0  0  0
  125.5750  122.5010   55.5990 C   0  0  0  0  0  0  0  0  0  0  0  0
  126.8100  121.9470   55.5470 O   0  0  0  0  0  0  0  0  0  0  0  0
  127.3890  122.0490   56.8140 N   0  0  0  0  0  0  0  0  0  0  0  0
  131.2000  122.8640   60.9510 N   0  0  0  0  0  0  0  0  0  0  0  0
  1  2  1  0
  2  3  2  0
  3  4  1  0
  4  5  1  0
  5  6  1  0
  5  7  1  0
  5  8  1  0
  4  9  2  0
  9 10  1  0
 10 11  3  0
  9 12  1  0
 12 13  1  0
 13 14  1  0
 14 15  1  0
 15 16  2  0
 15 17  1  0
 17 18  1  0
 18 19  1  0
 19 20  2  0
 20 21  1  0
 21 22  1  0
 12 23  2  0
 23  2  1  0
 22 18  2  0
M  END
>  <Binding energies>  (25) 
[-7.15]

>  <Ligand effiencies>  (25) 
[-0.29791666666666666]

>  <Interactions>  (25) 
["V-B:LEU:363:CD1:8159, V-B:TYR:531:CE2:9764, V-A:ASP:366:CG:3212, V-B:TYR:539:CD2:9845, V-B:MET:535:CE:9806, V-B:TYR:539:C:9838, V-B:TYR:539:CG:9843, V-B:TYR:539:CE2:9847, V-B:ILE:538:CG2:9834, V-B:MET:535:CG:9804, H-B:TYR:539:N:9841, V-B:PRO:540:CA:9854, V-B:PRO:540:CB:9856, V-B:ILE:538:CD1:9836, V-B:PRO:540:N:9855, V-B:PRO:540:CD:9858, V-A:ILE:369:CD1:3238, V-A:LEU:475:CD2:4258, V-B:ALA:541:CB:9863, V-A:SER:385:C:3404, V-A:ILE:369:CG2:3236, V-B:ILE:538:CA:9831, V-A:SER:385:CA:3406, V-B:TYR:539:CB:9842, V-A:SER:385:CB:3408, H-B:ALA:541:N:9862, V-A:VAL:384:C:3396, V-A:LEU:373:CD2:3280"]

$$$$
2k_Grossjean_2025
     RDKit          3D

 28 28  0  0  0  0  0  0  0  0999 V2000
  132.1030  133.2550   56.8760 C   0  0  0  0  0  0  0  0  0  0  0  0
  130.9430  133.9590   56.4600 O   0  0  0  0  0  0  0  0  0  0  0  0
  129.7570  133.1740   56.5080 C   0  0  0  0  0  0  0  0  0  0  0  0
  129.2050  132.9830   55.0900 C   0  0  0  0  0  0  0  0  0  0  0  0
  128.6820  131.6690   54.9700 O   0  0  0  0  0  0  0  0  0  0  0  0
  128.2440  131.0990   56.1980 C   0  0  0  0  0  0  0  0  0  0  0  0
  127.1650  130.0530   55.8900 C   0  0  0  0  0  0  0  0  0  0  0  0
  127.8190  128.8600   55.4870 O   0  0  0  0  0  0  0  0  0  0  0  0
  128.7920  128.3670   56.3960 C   0  0  0  0  0  0  0  0  0  0  0  0
  128.0740  127.6590   57.5600 C   0  0  0  0  0  0  0  0  0  0  0  0
  126.6710  127.3530   57.2660 N   0  0  0  0  0  0  0  0  0  0  0  0
  125.6700  127.3230   58.1660 C   0  0  0  0  0  0  0  0  0  0  0  0
  125.8250  127.5850   59.3610 O   0  0  0  0  0  0  0  0  0  0  0  0
  124.2940  126.9160   57.6200 C   0  0  0  0  0  0  0  0  0  0  0  0
  123.8100  125.1820   57.9330 S   0  0  0  0  0  0  0  0  0  0  0  0
  125.2590  124.1370   57.8530 C   0  0  0  0  0  0  0  0  0  0  0  0
  125.4750  123.5200   56.6640 N   0  0  0  0  0  0  0  0  0  0  0  0
  126.5490  122.7100   56.5340 C   0  0  0  0  0  0  0  0  0  0  0  0
  126.7150  122.0490   55.1800 C   0  0  0  0  0  0  0  0  0  0  0  0
  127.4550  122.4920   57.5690 C   0  0  0  0  0  0  0  0  0  0  0  0
  127.2560  123.1270   58.8040 C   0  0  0  0  0  0  0  0  0  0  0  0
  128.2710  122.8790   59.9370 C   0  0  0  0  0  0  0  0  0  0  0  0
  128.8930  123.9930   60.3270 F   0  0  0  0  0  0  0  0  0  0  0  0
  127.6500  122.3720   61.0040 F   0  0  0  0  0  0  0  0  0  0  0  0
  129.2050  122.0180   59.5320 F   0  0  0  0  0  0  0  0  0  0  0  0
  126.1280  123.9730   58.9580 C   0  0  0  0  0  0  0  0  0  0  0  0
  125.8690  124.6580   60.2280 C   0  0  0  0  0  0  0  0  0  0  0  0
  125.6660  125.2000   61.2310 N   0  0  0  0  0  0  0  0  0  0  0  0
  1  2  1  0
  2  3  1  0
  3  4  1  0
  4  5  1  0
  5  6  1  0
  6  7  1  0
  7  8  1  0
  8  9  1  0
  9 10  1  0
 10 11  1  0
 11 12  1  0
 12 13  2  0
 12 14  1  0
 14 15  1  0
 15 16  1  0
 16 17  2  0
 17 18  1  0
 18 19  1  0
 18 20  2  0
 20 21  1  0
 21 22  1  0
 22 23  1  0
 22 24  1  0
 22 25  1  0
 21 26  2  0
 26 27  1  0
 27 28  3  0
 26 16  1  0
M  END
>  <Binding energies>  (26) 
[-5.47]

>  <Ligand effiencies>  (26) 
[-0.1886206896551724]

>  <Interactions>  (26) 
["V-B:TYR:531:CZ:9765, V-A:TYR:539:CZ:4876, V-A:PRO:540:CB:4884, V-A:TYR:539:CD1:4872, V-B:TYR:531:CE1:9763, H-B:TYR:531:OH:9766, V-A:TYR:531:CE2:4792, V-A:LEU:363:CD1:3188, V-A:PRO:540:N:4883, V-B:TYR:539:CD2:9845, V-B:MET:535:CE:9806, V-A:PRO:540:CA:4882, V-B:TYR:539:C:9838, V-B:TYR:539:CA:9840, V-A:TYR:539:CE1:4874, V-B:TYR:539:CD1:9844, V-B:ASP:366:CG:8183, V-B:TYR:539:CG:9843, V-B:TYR:539:CE2:9847, V-B:ASP:366:CB:8182, V-B:MET:535:CG:9804, V-B:PRO:540:CA:9854, V-B:PRO:540:CB:9856, V-B:ILE:538:CD1:9836, V-B:PRO:540:N:9855, H-A:TYR:539:N:4869, V-A:PRO:540:CD:4886, H-B:ARG:545:NH2:9899, V-B:ILE:538:CA:9831, V-A:MET:535:CE:4834, V-A:TYR:539:CE2:4875, V-B:PRO:540:C:9852, V-B:ILE:538:C:9829, V-B:ILE:538:CB:9833, V-B:VAL:537:C:9821"]

$$$$
3aa_Grossjean_2025
     RDKit          3D

 34 36  0  0  0  0  0  0  0  0999 V2000
  133.9740  125.8510   68.0800 C   0  0  0  0  0  0  0  0  0  0  0  0
  133.3660  126.1140   66.6990 C   0  0  0  0  0  0  0  0  0  0  0  0
  133.7980  125.1080   65.7910 O   0  0  0  0  0  0  0  0  0  0  0  0
  133.5260  125.2020   64.4640 C   0  0  0  0  0  0  0  0  0  0  0  0
  134.3910  125.3970   63.6050 O   0  0  0  0  0  0  0  0  0  0  0  0
  132.0650  125.0610   64.1460 C   0  0  0  0  0  0  0  0  0  0  0  0
  131.3010  126.1380   63.6710 C   0  0  0  0  0  0  0  0  0  0  0  0
  129.9490  125.9710   63.3810 C   0  0  0  0  0  0  0  0  0  0  0  0
  129.3360  124.7290   63.5520 C   0  0  0  0  0  0  0  0  0  0  0  0
  127.9670  124.6680   63.2260 N   0  0  0  0  0  0  0  0  0  0  0  0
  127.1430  123.5980   63.1640 C   0  0  0  0  0  0  0  0  0  0  0  0
  127.4730  122.4300   63.3720 O   0  0  0  0  0  0  0  0  0  0  0  0
  125.6930  123.9040   62.7910 C   0  0  0  0  0  0  0  0  0  0  0  0
  125.5810  124.8760   61.2580 S   0  0  0  0  0  0  0  0  0  0  0  0
  126.6190  124.0760   60.0560 C   0  0  0  0  0  0  0  0  0  0  0  0
  127.8990  123.9130   60.4660 N   0  0  0  0  0  0  0  0  0  0  0  0
  128.7990  123.3160   59.6420 C   0  0  0  0  0  0  0  0  0  0  0  0
  130.1920  123.1600   60.1740 C   0  0  0  0  0  0  0  0  0  0  0  0
  131.1740  124.1250   59.9000 C   0  0  0  0  0  0  0  0  0  0  0  0
  132.4700  123.9870   60.3910 C   0  0  0  0  0  0  0  0  0  0  0  0
  132.8010  122.8790   61.1650 C   0  0  0  0  0  0  0  0  0  0  0  0
  131.8450  121.9110   61.4530 C   0  0  0  0  0  0  0  0  0  0  0  0
  130.5500  122.0530   60.9620 C   0  0  0  0  0  0  0  0  0  0  0  0
  128.4210  122.8580   58.3760 C   0  0  0  0  0  0  0  0  0  0  0  0
  127.1050  123.0320   57.9220 C   0  0  0  0  0  0  0  0  0  0  0  0
  126.7300  122.5240   56.5170 C   0  0  0  0  0  0  0  0  0  0  0  0
  125.7310  121.6390   56.5350 F   0  0  0  0  0  0  0  0  0  0  0  0
  126.3460  123.5430   55.7470 F   0  0  0  0  0  0  0  0  0  0  0  0
  127.7830  121.9310   55.9530 F   0  0  0  0  0  0  0  0  0  0  0  0
  126.1740  123.6690   58.7780 C   0  0  0  0  0  0  0  0  0  0  0  0
  124.8010  123.9290   58.3350 C   0  0  0  0  0  0  0  0  0  0  0  0
  123.7170  124.1340   57.9850 N   0  0  0  0  0  0  0  0  0  0  0  0
  130.0910  123.6510   64.0390 C   0  0  0  0  0  0  0  0  0  0  0  0
  131.4410  123.8200   64.3310 C   0  0  0  0  0  0  0  0  0  0  0  0
  1  2  1  0
  2  3  1  0
  3  4  1  0
  4  5  2  0
  4  6  1  0
  6  7  2  0
  7  8  1  0
  8  9  2  0
  9 10  1  0
 10 11  1  0
 11 12  2  0
 11 13  1  0
 13 14  1  0
 14 15  1  0
 15 16  2  0
 16 17  1  0
 17 18  1  0
 18 19  2  0
 19 20  1  0
 20 21  2  0
 21 22  1  0
 22 23  2  0
 17 24  2  0
 24 25  1  0
 25 26  1  0
 26 27  1  0
 26 28  1  0
 26 29  1  0
 25 30  2  0
 30 31  1  0
 31 32  3  0
  9 33  1  0
 33 34  2  0
 34  6  1  0
 30 15  1  0
 23 18  1  0
M  END
>  <Binding energies>  (27) 
[-8.3]

>  <Ligand effiencies>  (27) 
[-0.23714285714285716]

>  <Interactions>  (27) 
["V-B:LEU:363:CD1:8159, V-B:TYR:531:CZ:9765, V-B:TYR:539:CZ:9848, V-B:TYR:531:CE2:9764, V-A:ASP:366:CG:3212, V-B:TYR:539:CD2:9845, V-B:MET:535:CE:9806, V-B:TYR:539:CE1:9846, V-B:TYR:539:C:9838, V-B:TYR:539:CA:9840, V-B:TYR:539:CD1:9844, V-B:TYR:539:CG:9843, V-B:TYR:539:CE2:9847, V-B:ILE:538:CG2:9834, V-B:MET:535:CG:9804, V-B:PRO:540:CA:9854, V-B:PRO:540:CB:9856, V-B:PRO:540:N:9855, V-B:PRO:540:CD:9858, V-B:PRO:540:CG:9857, V-B:GLU:543:CD:9879, V-A:ARG:545:CZ:4925, H-A:GLY:454:N:4049, H-B:ARG:545:NH2:9899, H-A:TYR:484:OH:4347, H-A:ARG:545:NH1:4926, V-A:ILE:369:CD1:3238, H-A:ARG:545:NH2:4927, V-A:ARG:545:CD:4922, V-B:GLU:543:CG:9878, V-B:ILE:538:CA:9831, V-A:ILE:455:C:4051, V-A:GLY:454:CA:4048, V-A:ARG:545:CG:4921, V-A:TYR:484:CZ:4346, H-B:GLU:543:OE2:9881, H-B:GLU:543:OE1:9880, H-B:ALA:541:N:9862, V-A:HIS:456:CD2:4067, V-A:HIS:456:CE1:4069, V-A:HIS:456:CG:4065, V-B:ILE:538:C:9829, V-A:ARG:545:CB:4920"]

$$$$
3ad_Grossjean_2025
     RDKit          3D

 29 31  0  0  0  0  0  0  0  0999 V2000
  125.6110  130.4240   53.7200 N   0  0  0  0  0  0  0  0  0  0  0  0
  125.9310  130.6940   54.7980 C   0  0  0  0  0  0  0  0  0  0  0  0
  126.3330  131.0370   56.1660 C   0  0  0  0  0  0  0  0  0  0  0  0
  125.3620  131.2390   57.1770 C   0  0  0  0  0  0  0  0  0  0  0  0
  123.8510  131.0720   56.9250 C   0  0  0  0  0  0  0  0  0  0  0  0
  123.3820  131.9210   56.0080 F   0  0  0  0  0  0  0  0  0  0  0  0
  123.5960  129.8350   56.4970 F   0  0  0  0  0  0  0  0  0  0  0  0
  123.1720  131.2880   58.0520 F   0  0  0  0  0  0  0  0  0  0  0  0
  125.7960  131.6120   58.4580 C   0  0  0  0  0  0  0  0  0  0  0  0
  127.1600  131.7800   58.7220 C   0  0  0  0  0  0  0  0  0  0  0  0
  127.6770  132.1910   60.0680 C   0  0  0  0  0  0  0  0  0  0  0  0
  127.6860  133.5420   60.4510 C   0  0  0  0  0  0  0  0  0  0  0  0
  128.1640  133.9300   61.7000 C   0  0  0  0  0  0  0  0  0  0  0  0
  128.6410  132.9690   62.5860 C   0  0  0  0  0  0  0  0  0  0  0  0
  128.6400  131.6240   62.2310 C   0  0  0  0  0  0  0  0  0  0  0  0
  128.1610  131.2400   60.9820 C   0  0  0  0  0  0  0  0  0  0  0  0
  128.0860  131.5910   57.7480 N   0  0  0  0  0  0  0  0  0  0  0  0
  127.6920  131.2110   56.5100 C   0  0  0  0  0  0  0  0  0  0  0  0
  129.0390  130.9980   55.3670 S   0  0  0  0  0  0  0  0  0  0  0  0
  129.9370  132.5770   55.2900 C   0  0  0  0  0  0  0  0  0  0  0  0
  130.6950  132.8750   56.5850 C   0  0  0  0  0  0  0  0  0  0  0  0
  130.8360  134.0450   56.9400 O   0  0  0  0  0  0  0  0  0  0  0  0
  131.1590  131.7930   57.2470 N   0  0  0  0  0  0  0  0  0  0  0  0
  131.8740  131.7150   58.4560 C   0  0  0  0  0  0  0  0  0  0  0  0
  131.1920  132.1610   59.5930 C   0  0  0  0  0  0  0  0  0  0  0  0
  131.8090  132.1300   60.8400 C   0  0  0  0  0  0  0  0  0  0  0  0
  133.1130  131.6580   60.9530 C   0  0  0  0  0  0  0  0  0  0  0  0
  133.8070  131.2170   59.8290 C   0  0  0  0  0  0  0  0  0  0  0  0
  133.1930  131.2460   58.5790 C   0  0  0  0  0  0  0  0  0  0  0  0
  1  2  3  0
  2  3  1  0
  3  4  2  0
  4  5  1  0
  5  6  1  0
  5  7  1  0
  5  8  1  0
  4  9  1  0
  9 10  2  0
 10 11  1  0
 11 12  2  0
 12 13  1  0
 13 14  2  0
 14 15  1  0
 15 16  2  0
 10 17  1  0
 17 18  2  0
 18 19  1  0
 19 20  1  0
 20 21  1  0
 21 22  2  0
 21 23  1  0
 23 24  1  0
 24 25  2  0
 25 26  1  0
 26 27  2  0
 27 28  1  0
 28 29  2  0
 18  3  1  0
 29 24  1  0
 16 11  1  0
M  END
>  <Binding energies>  (28) 
[-8.17]

>  <Ligand effiencies>  (28) 
[-0.2723333333333333]

>  <Interactions>  (28) 
["V-A:LEU:363:CA:3184, V-A:TYR:539:CZ:4876, V-B:ILE:369:CB:8206, V-A:PRO:540:CB:4884, V-A:TYR:539:CD1:4872, V-B:ILE:369:C:8202, V-B:ASN:370:CB:8215, V-A:ASN:362:C:3171, V-A:ASN:362:CB:3175, V-A:MET:535:CG:4832, V-B:TYR:531:CE1:9763, V-A:TYR:531:CE2:4792, V-B:ILE:369:CG2:8207, V-A:PRO:540:CA:4882, V-A:TYR:539:CE1:4874, V-B:ASN:370:CA:8213, V-B:ASP:366:CB:8182, V-A:ALA:541:CB:4891, H-A:TYR:539:N:4869, V-A:TYR:531:CZ:4793, H-A:TYR:531:OH:4794, V-A:ASP:366:CB:3211, H-A:TYR:539:OH:4877, V-B:ASP:366:CA:8180, V-B:ASP:366:C:8178, H-B:LYS:534:NZ:9794, V-B:TYR:531:CD1:9761"]

$$$$
3ai_Grossjean_2025
     RDKit          3D

 28 30  0  0  0  0  0  0  0  0999 V2000
  130.1200  125.9650   64.0610 N   0  0  0  0  0  0  0  0  0  0  0  0
  130.4230  124.9570   63.5810 C   0  0  0  0  0  0  0  0  0  0  0  0
  130.8090  123.6790   62.9740 C   0  0  0  0  0  0  0  0  0  0  0  0
  132.1740  123.3220   62.8430 C   0  0  0  0  0  0  0  0  0  0  0  0
  133.3190  124.2130   63.3610 C   0  0  0  0  0  0  0  0  0  0  0  0
  133.2140  125.4800   62.9540 F   0  0  0  0  0  0  0  0  0  0  0  0
  133.3240  124.2190   64.6950 F   0  0  0  0  0  0  0  0  0  0  0  0
  134.4920  123.7510   62.9260 F   0  0  0  0  0  0  0  0  0  0  0  0
  132.4920  122.1110   62.2120 C   0  0  0  0  0  0  0  0  0  0  0  0
  131.4790  121.2800   61.7230 C   0  0  0  0  0  0  0  0  0  0  0  0
  131.7620  119.9810   61.0300 C   0  0  0  0  0  0  0  0  0  0  0  0
  130.8800  118.8950   61.1570 C   0  0  0  0  0  0  0  0  0  0  0  0
  131.1340  117.6870   60.5130 C   0  0  0  0  0  0  0  0  0  0  0  0
  132.2760  117.5490   59.7300 C   0  0  0  0  0  0  0  0  0  0  0  0
  133.1640  118.6100   59.5870 C   0  0  0  0  0  0  0  0  0  0  0  0
  132.9070  119.8160   60.2320 C   0  0  0  0  0  0  0  0  0  0  0  0
  130.1730  121.6300   61.8430 N   0  0  0  0  0  0  0  0  0  0  0  0
  129.8390  122.7830   62.4700 C   0  0  0  0  0  0  0  0  0  0  0  0
  128.0820  123.0630   62.5520 S   0  0  0  0  0  0  0  0  0  0  0  0
  127.5840  123.9410   61.0320 C   0  0  0  0  0  0  0  0  0  0  0  0
  127.6340  123.0980   59.7490 C   0  0  0  0  0  0  0  0  0  0  0  0
  128.4950  122.2270   59.6010 O   0  0  0  0  0  0  0  0  0  0  0  0
  126.6790  123.3970   58.8400 N   0  0  0  0  0  0  0  0  0  0  0  0
  126.4790  122.7990   57.6030 C   0  0  0  0  0  0  0  0  0  0  0  0
  125.2650  122.8480   56.9200 C   0  0  0  0  0  0  0  0  0  0  0  0
  125.4780  122.1450   55.7570 C   0  0  0  0  0  0  0  0  0  0  0  0
  126.7560  121.6950   55.7390 O   0  0  0  0  0  0  0  0  0  0  0  0
  127.3800  122.1170   56.9150 N   0  0  0  0  0  0  0  0  0  0  0  0
  1  2  3  0
  2  3  1  0
  3  4  2  0
  4  5  1  0
  5  6  1  0
  5  7  1  0
  5  8  1  0
  4  9  1  0
  9 10  2  0
 10 11  1  0
 11 12  2  0
 12 13  1  0
 13 14  2  0
 14 15  1  0
 15 16  2  0
 10 17  1  0
 17 18  2  0
 18 19  1  0
 19 20  1  0
 20 21  1  0
 21 22  2  0
 21 23  1  0
 23 24  1  0
 24 25  1  0
 25 26  2  0
 26 27  1  0
 27 28  1  0
 18  3  1  0
 28 24  2  0
 16 11  1  0
M  END
>  <Binding energies>  (29) 
[-8.54]

>  <Ligand effiencies>  (29) 
[-0.2944827586206896]

>  <Interactions>  (29) 
["V-B:LEU:363:CD1:8159, V-B:TYR:531:CE2:9764, V-A:ASP:366:CG:3212, V-B:TYR:539:CD2:9845, V-B:TYR:539:C:9838, V-B:TYR:539:CE2:9847, V-B:ILE:538:CG2:9834, H-B:TYR:539:N:9841, V-B:PRO:540:CA:9854, V-B:PRO:540:CB:9856, V-B:ILE:538:CD1:9836, V-B:PRO:540:N:9855, V-B:PRO:540:CD:9858, V-A:ARG:545:CZ:4925, V-A:ILE:369:CD1:3238, V-A:LEU:475:CD2:4258, V-A:HIS:383:CE1:3393, V-A:ILE:369:CG2:3236, V-B:ILE:538:CA:9831, V-A:SER:385:CA:3406, V-B:TYR:539:CB:9842, V-A:GLY:454:CA:4048, V-A:GLY:453:C:4041, H-B:ALA:541:N:9862, V-A:GLY:453:CA:4043, V-A:VAL:384:C:3396, V-B:ILE:538:C:9829, V-B:ILE:538:CB:9833, V-A:LEU:373:CD2:3280"]

$$$$
3aj_Grossjean_2025
     RDKit          3D

 28 30  0  0  0  0  0  0  0  0999 V2000
  125.5590  130.5680   53.5400 N   0  0  0  0  0  0  0  0  0  0  0  0
  125.9330  130.7750   54.6150 C   0  0  0  0  0  0  0  0  0  0  0  0
  126.4050  131.0360   55.9790 C   0  0  0  0  0  0  0  0  0  0  0  0
  125.5020  131.0300   57.0700 C   0  0  0  0  0  0  0  0  0  0  0  0
  124.0030  130.7130   56.9080 C   0  0  0  0  0  0  0  0  0  0  0  0
  123.3900  131.5340   56.0520 F   0  0  0  0  0  0  0  0  0  0  0  0
  123.8460  129.4690   56.4560 F   0  0  0  0  0  0  0  0  0  0  0  0
  123.3830  130.8280   58.0830 F   0  0  0  0  0  0  0  0  0  0  0  0
  125.9960  131.3330   58.3490 C   0  0  0  0  0  0  0  0  0  0  0  0
  127.3490  131.6360   58.5320 C   0  0  0  0  0  0  0  0  0  0  0  0
  127.9260  131.9760   59.8720 C   0  0  0  0  0  0  0  0  0  0  0  0
  127.9950  133.3080   60.3050 C   0  0  0  0  0  0  0  0  0  0  0  0
  128.5260  133.6310   61.5520 C   0  0  0  0  0  0  0  0  0  0  0  0
  128.9970  132.6200   62.3840 C   0  0  0  0  0  0  0  0  0  0  0  0
  128.9380  131.2910   61.9780 C   0  0  0  0  0  0  0  0  0  0  0  0
  128.4050  130.9730   60.7320 C   0  0  0  0  0  0  0  0  0  0  0  0
  128.2080  131.6470   57.4810 N   0  0  0  0  0  0  0  0  0  0  0  0
  127.7610  131.3350   56.2410 C   0  0  0  0  0  0  0  0  0  0  0  0
  129.0330  131.3800   54.9960 S   0  0  0  0  0  0  0  0  0  0  0  0
  129.9910  132.9150   55.2290 C   0  0  0  0  0  0  0  0  0  0  0  0
  130.7660  133.0030   56.5520 C   0  0  0  0  0  0  0  0  0  0  0  0
  130.7750  134.0450   57.2110 O   0  0  0  0  0  0  0  0  0  0  0  0
  131.4080  131.8670   56.9050 N   0  0  0  0  0  0  0  0  0  0  0  0
  132.1720  131.6680   58.0480 C   0  0  0  0  0  0  0  0  0  0  0  0
  133.3960  131.1910   58.1280 N   0  0  0  0  0  0  0  0  0  0  0  0
  133.8170  131.1420   59.3760 C   0  0  0  0  0  0  0  0  0  0  0  0
  132.9220  131.5860   60.3450 C   0  0  0  0  0  0  0  0  0  0  0  0
  131.4520  132.0920   59.5680 S   0  0  0  0  0  0  0  0  0  0  0  0
  1  2  3  0
  2  3  1  0
  3  4  2  0
  4  5  1  0
  5  6  1  0
  5  7  1  0
  5  8  1  0
  4  9  1  0
  9 10  2  0
 10 11  1  0
 11 12  2  0
 12 13  1  0
 13 14  2  0
 14 15  1  0
 15 16  2  0
 10 17  1  0
 17 18  2  0
 18 19  1  0
 19 20  1  0
 20 21  1  0
 21 22  2  0
 21 23  1  0
 23 24  1  0
 24 25  2  0
 25 26  1  0
 26 27  2  0
 27 28  1  0
 18  3  1  0
 28 24  1  0
 16 11  1  0
M  END
>  <Binding energies>  (30) 
[-7.47]

>  <Ligand effiencies>  (30) 
[-0.2575862068965517]

>  <Interactions>  (30) 
["V-A:LEU:363:CA:3184, V-B:TYR:531:CZ:9765, V-A:TYR:539:CZ:4876, V-B:ILE:369:CB:8206, V-A:PRO:540:CB:4884, V-A:TYR:539:CD1:4872, V-B:ILE:369:C:8202, V-B:ASN:370:CB:8215, V-A:ASN:362:C:3171, V-A:MET:535:CG:4832, V-B:TYR:531:CE1:9763, V-A:TYR:531:CE2:4792, V-B:ILE:369:CG2:8207, V-A:PRO:540:CA:4882, V-A:TYR:539:CE1:4874, V-B:ASN:370:CA:8213, V-B:ASP:366:CB:8182, V-A:ALA:541:CB:4891, H-A:TYR:539:N:4869, V-A:TYR:531:CZ:4793, H-A:TYR:531:OH:4794, V-A:ASP:366:CB:3211, H-A:TYR:539:OH:4877, V-A:ILE:538:CA:4859, V-B:ASP:366:CA:8180, V-B:ASP:366:C:8178, H-B:LYS:534:NZ:9794, V-B:TYR:531:CD1:9761"]

$$$$
3ak_Grossjean_2025
     RDKit          3D

 33 34  0  0  0  0  0  0  0  0999 V2000
  130.0260  126.1720   56.8210 C   0  0  0  0  0  0  0  0  0  0  0  0
  131.1180  126.7460   56.1190 O   0  0  0  0  0  0  0  0  0  0  0  0
  132.3690  126.5540   56.7650 C   0  0  0  0  0  0  0  0  0  0  0  0
  132.1570  125.7000   58.0210 C   0  0  0  0  0  0  0  0  0  0  0  0
  133.1220  124.6540   58.0380 O   0  0  0  0  0  0  0  0  0  0  0  0
  133.5400  124.2240   59.3310 C   0  0  0  0  0  0  0  0  0  0  0  0
  132.3770  123.9860   60.3110 C   0  0  0  0  0  0  0  0  0  0  0  0
  132.5080  122.6930   60.8870 O   0  0  0  0  0  0  0  0  0  0  0  0
  133.8060  122.4190   61.3990 C   0  0  0  0  0  0  0  0  0  0  0  0
  133.9560  123.0140   62.8110 C   0  0  0  0  0  0  0  0  0  0  0  0
  132.6890  123.4550   63.3990 N   0  0  0  0  0  0  0  0  0  0  0  0
  132.5470  124.3900   64.3580 C   0  0  0  0  0  0  0  0  0  0  0  0
  133.5010  125.0000   64.8410 O   0  0  0  0  0  0  0  0  0  0  0  0
  131.1340  124.7110   64.8750 C   0  0  0  0  0  0  0  0  0  0  0  0
  129.9340  123.3280   64.8890 S   0  0  0  0  0  0  0  0  0  0  0  0
  129.7110  122.7460   63.2150 C   0  0  0  0  0  0  0  0  0  0  0  0
  130.2800  121.5490   62.9290 N   0  0  0  0  0  0  0  0  0  0  0  0
  130.1710  121.0260   61.6810 C   0  0  0  0  0  0  0  0  0  0  0  0
  130.8290  119.6980   61.4540 C   0  0  0  0  0  0  0  0  0  0  0  0
  130.1510  118.5030   61.7410 C   0  0  0  0  0  0  0  0  0  0  0  0
  130.7560  117.2660   61.5280 C   0  0  0  0  0  0  0  0  0  0  0  0
  132.0510  117.2090   61.0230 C   0  0  0  0  0  0  0  0  0  0  0  0
  132.7430  118.3780   60.7280 C   0  0  0  0  0  0  0  0  0  0  0  0
  132.1350  119.6120   60.9410 C   0  0  0  0  0  0  0  0  0  0  0  0
  129.4610  121.7000   60.6810 C   0  0  0  0  0  0  0  0  0  0  0  0
  128.8620  122.9390   60.9500 C   0  0  0  0  0  0  0  0  0  0  0  0
  128.0900  123.6520   59.8230 C   0  0  0  0  0  0  0  0  0  0  0  0
  128.1380  122.9250   58.7060 F   0  0  0  0  0  0  0  0  0  0  0  0
  126.8150  123.8180   60.1760 F   0  0  0  0  0  0  0  0  0  0  0  0
  128.5870  124.8580   59.5380 F   0  0  0  0  0  0  0  0  0  0  0  0
  128.9880  123.4830   62.2510 C   0  0  0  0  0  0  0  0  0  0  0  0
  128.3830  124.7750   62.5900 C   0  0  0  0  0  0  0  0  0  0  0  0
  127.9060  125.7960   62.8570 N   0  0  0  0  0  0  0  0  0  0  0  0
  1  2  1  0
  2  3  1  0
  3  4  1  0
  4  5  1  0
  5  6  1  0
  6  7  1  0
  7  8  1  0
  8  9  1  0
  9 10  1  0
 10 11  1  0
 11 12  1  0
 12 13  2  0
 12 14  1  0
 14 15  1  0
 15 16  1  0
 16 17  2  0
 17 18  1  0
 18 19  1  0
 19 20  2  0
 20 21  1  0
 21 22  2  0
 22 23  1  0
 23 24  2  0
 18 25  2  0
 25 26  1  0
 26 27  1  0
 27 28  1  0
 27 29  1  0
 27 30  1  0
 26 31  2  0
 31 32  1  0
 32 33  3  0
 31 16  1  0
 24 19  1  0
M  END
>  <Binding energies>  (31) 
[-7.41]

>  <Ligand effiencies>  (31) 
[-0.21794117647058825]

>  <Interactions>  (31) 
["V-A:ASP:366:CG:3212, V-B:TYR:539:CD2:9845, V-B:MET:535:CE:9806, V-B:TYR:539:C:9838, V-B:TYR:539:CE2:9847, V-B:PRO:540:CA:9854, V-B:PRO:540:CB:9856, V-B:PRO:540:N:9855, V-A:TYR:531:CZ:4793, H-A:TYR:531:OH:4794, V-B:GLU:543:CD:9879, H-A:GLY:454:N:4049, H-A:TYR:484:OH:4347, V-A:ILE:369:CD1:3238, V-A:LEU:475:CD2:4258, V-B:ALA:541:CB:9863, V-A:HIS:383:CE1:3393, V-A:ILE:369:CG2:3236, V-A:SER:385:CA:3406, V-A:SER:385:CB:3408, V-A:GLY:454:CA:4048, V-A:ASP:366:CB:3211, V-A:ASP:366:CA:3209, V-A:ASP:366:C:3207, H-B:TYR:539:OH:9849, V-A:TYR:531:CE1:4791, V-A:ILE:369:CB:3235, V-A:PRO:482:CG:4326, V-A:PRO:482:CB:4325"]

$$$$
3bk_Grossjean_2025
     RDKit          3D

 30 31  0  0  0  0  0  0  0  0999 V2000
  130.1070  126.1940   56.8800 C   0  0  0  0  0  0  0  0  0  0  0  0
  131.1750  126.7160   56.1040 O   0  0  0  0  0  0  0  0  0  0  0  0
  132.4560  126.2790   56.5390 C   0  0  0  0  0  0  0  0  0  0  0  0
  132.3680  125.7860   57.9900 C   0  0  0  0  0  0  0  0  0  0  0  0
  133.1370  124.6000   58.1320 O   0  0  0  0  0  0  0  0  0  0  0  0
  132.9810  123.9620   59.3930 C   0  0  0  0  0  0  0  0  0  0  0  0
  131.9470  124.7310   60.2250 C   0  0  0  0  0  0  0  0  0  0  0  0
  130.9300  123.8370   60.6570 O   0  0  0  0  0  0  0  0  0  0  0  0
  129.8080  123.7780   59.7850 C   0  0  0  0  0  0  0  0  0  0  0  0
  128.5870  123.2590   60.5580 C   0  0  0  0  0  0  0  0  0  0  0  0
  128.9160  122.8880   61.9350 N   0  0  0  0  0  0  0  0  0  0  0  0
  128.0490  122.8490   62.9610 C   0  0  0  0  0  0  0  0  0  0  0  0
  126.8490  123.1080   62.8530 O   0  0  0  0  0  0  0  0  0  0  0  0
  128.6160  122.4280   64.3180 C   0  0  0  0  0  0  0  0  0  0  0  0
  130.0260  123.4660   64.8190 S   0  0  0  0  0  0  0  0  0  0  0  0
  131.4310  123.0740   63.7910 C   0  0  0  0  0  0  0  0  0  0  0  0
  131.3340  121.9320   63.0640 N   0  0  0  0  0  0  0  0  0  0  0  0
  132.3570  121.5510   62.2540 C   0  0  0  0  0  0  0  0  0  0  0  0
  132.1590  120.2890   61.4700 C   0  0  0  0  0  0  0  0  0  0  0  0
  133.1540  119.8230   60.5960 C   0  0  0  0  0  0  0  0  0  0  0  0
  132.9720  118.6540   59.8620 C   0  0  0  0  0  0  0  0  0  0  0  0
  131.7900  117.9320   59.9930 C   0  0  0  0  0  0  0  0  0  0  0  0
  130.7900  118.3700   60.8550 C   0  0  0  0  0  0  0  0  0  0  0  0
  130.9760  119.5390   61.5890 C   0  0  0  0  0  0  0  0  0  0  0  0
  133.5170  122.3280   62.1520 C   0  0  0  0  0  0  0  0  0  0  0  0
  133.6360  123.5070   62.8950 C   0  0  0  0  0  0  0  0  0  0  0  0
  134.9190  124.3240   62.7550 C   0  0  0  0  0  0  0  0  0  0  0  0
  132.5750  123.9000   63.7380 C   0  0  0  0  0  0  0  0  0  0  0  0
  132.6690  125.1320   64.5270 C   0  0  0  0  0  0  0  0  0  0  0  0
  132.7440  126.1040   65.1500 N   0  0  0  0  0  0  0  0  0  0  0  0
  1  2  1  0
  2  3  1  0
  3  4  1  0
  4  5  1  0
  5  6  1  0
  6  7  1  0
  7  8  1  0
  8  9  1  0
  9 10  1  0
 10 11  1  0
 11 12  1  0
 12 13  2  0
 12 14  1  0
 14 15  1  0
 15 16  1  0
 16 17  2  0
 17 18  1  0
 18 19  1  0
 19 20  2  0
 20 21  1  0
 21 22  2  0
 22 23  1  0
 23 24  2  0
 18 25  2  0
 25 26  1  0
 26 27  1  0
 26 28  2  0
 28 29  1  0
 29 30  3  0
 28 16  1  0
 24 19  1  0
M  END
>  <Binding energies>  (32) 
[-7.62]

>  <Ligand effiencies>  (32) 
[-0.24580645161290324]

>  <Interactions>  (32) 
["V-B:TYR:539:CZ:9848, V-A:ASP:366:CG:3212, V-B:TYR:539:CD2:9845, V-B:MET:535:CE:9806, V-B:TYR:539:CE2:9847, V-A:TYR:531:CZ:4793, H-A:TYR:531:OH:4794, V-B:GLU:543:CD:9879, H-A:TYR:484:OH:4347, V-B:ALA:541:C:9859, V-A:ILE:369:CD1:3238, H-A:ARG:545:NH2:4927, V-B:GLU:543:CG:9878, V-A:LEU:475:CD2:4258, V-B:ALA:541:CB:9863, V-A:ILE:369:CG2:3236, V-A:SER:385:CA:3406, V-B:TYR:539:CB:9842, V-A:GLY:454:CA:4048, H-A:ARG:545:NE:4923, V-A:GLY:453:C:4041, V-B:ALA:541:CA:9861, V-A:ASP:366:CB:3211, V-A:ASP:366:CA:3209, V-A:ASP:366:C:3207, H-B:TYR:539:OH:9849, V-A:TYR:531:CE1:4791, V-A:ILE:369:CB:3235, H-B:ALA:541:N:9862, V-A:ASN:370:CB:3244, V-A:GLY:453:CA:4043"]

$$$$
3cb_Grossjean_2025
     RDKit          3D

 30 32  0  0  0  0  0  0  0  0999 V2000
  124.8730  123.3850   57.3400 C   0  0  0  0  0  0  0  0  0  0  0  0
  125.7690  123.1950   56.2550 O   0  0  0  0  0  0  0  0  0  0  0  0
  127.0080  122.6770   56.4540 C   0  0  0  0  0  0  0  0  0  0  0  0
  127.4600  121.7260   55.8080 O   0  0  0  0  0  0  0  0  0  0  0  0
  127.7760  123.3730   57.5410 C   0  0  0  0  0  0  0  0  0  0  0  0
  128.2480  122.6910   58.6720 C   0  0  0  0  0  0  0  0  0  0  0  0
  128.9590  123.3670   59.6600 C   0  0  0  0  0  0  0  0  0  0  0  0
  129.2090  124.7350   59.5440 C   0  0  0  0  0  0  0  0  0  0  0  0
  129.9390  125.3160   60.5990 N   0  0  0  0  0  0  0  0  0  0  0  0
  129.5120  126.0530   61.6470 C   0  0  0  0  0  0  0  0  0  0  0  0
  128.3360  126.3410   61.8750 O   0  0  0  0  0  0  0  0  0  0  0  0
  130.6290  126.5190   62.5950 C   0  0  0  0  0  0  0  0  0  0  0  0
  131.5080  125.1780   63.4660 S   0  0  0  0  0  0  0  0  0  0  0  0
  131.9790  123.9590   62.2560 C   0  0  0  0  0  0  0  0  0  0  0  0
  132.6660  124.4760   61.2080 N   0  0  0  0  0  0  0  0  0  0  0  0
  133.0750  123.6430   60.2270 C   0  0  0  0  0  0  0  0  0  0  0  0
  133.8490  124.2880   59.0930 C   0  0  0  0  0  0  0  0  0  0  0  0
  132.8150  122.2750   60.2470 C   0  0  0  0  0  0  0  0  0  0  0  0
  132.0920  121.7210   61.3110 C   0  0  0  0  0  0  0  0  0  0  0  0
  131.8330  120.2490   61.2840 C   0  0  0  0  0  0  0  0  0  0  0  0
  130.5250  119.7620   61.3960 C   0  0  0  0  0  0  0  0  0  0  0  0
  130.2720  118.3930   61.3600 C   0  0  0  0  0  0  0  0  0  0  0  0
  131.3310  117.5020   61.2080 C   0  0  0  0  0  0  0  0  0  0  0  0
  132.6360  117.9680   61.0870 C   0  0  0  0  0  0  0  0  0  0  0  0
  132.8860  119.3380   61.1210 C   0  0  0  0  0  0  0  0  0  0  0  0
  131.6440  122.5850   62.3440 C   0  0  0  0  0  0  0  0  0  0  0  0
  130.8050  122.0760   63.4330 C   0  0  0  0  0  0  0  0  0  0  0  0
  130.1430  121.6740   64.2930 N   0  0  0  0  0  0  0  0  0  0  0  0
  128.7440  125.4230   58.4130 C   0  0  0  0  0  0  0  0  0  0  0  0
  128.0330  124.7460   57.4250 C   0  0  0  0  0  0  0  0  0  0  0  0
  1  2  1  0
  2  3  1  0
  3  4  2  0
  3  5  1  0
  5  6  2  0
  6  7  1  0
  7  8  2  0
  8  9  1  0
  9 10  1  0
 10 11  2  0
 10 12  1  0
 12 13  1  0
 13 14  1  0
 14 15  2  0
 15 16  1  0
 16 17  1  0
 16 18  2  0
 18 19  1  0
 19 20  1  0
 20 21  2  0
 21 22  1  0
 22 23  2  0
 23 24  1  0
 24 25  2  0
 19 26  2  0
 26 27  1  0
 27 28  3  0
  8 29  1  0
 29 30  2  0
 30  5  1  0
 26 14  1  0
 25 20  1  0
M  END
>  <Binding energies>  (33) 
[-8.27]

>  <Ligand effiencies>  (33) 
[-0.2667741935483871]

>  <Interactions>  (33) 
["V-B:LEU:363:CD1:8159, V-B:TYR:531:CE2:9764, V-A:ASP:366:CG:3212, H-B:TYR:531:OH:9766, V-B:TYR:539:CD2:9845, V-B:MET:535:CE:9806, V-B:TYR:539:C:9838, V-B:TYR:539:CG:9843, V-B:TYR:539:CE2:9847, H-B:TYR:539:N:9841, V-B:PRO:540:CA:9854, V-B:PRO:540:CB:9856, V-B:PRO:540:N:9855, V-A:ILE:369:CD1:3238, H-A:ASP:366:OD2:3214, V-A:LEU:475:CD2:4258, V-B:ALA:541:CB:9863, V-A:HIS:383:CE1:3393, V-A:ILE:369:CG2:3236, V-A:SER:385:CA:3406, V-A:SER:385:CB:3408, V-A:ASP:366:CB:3211, V-A:ASP:366:CA:3209, V-A:ILE:369:CB:3235, V-A:ILE:369:CG1:3237, V-A:PRO:482:CG:4326, V-A:PRO:482:CB:4325"]

$$$$
3ch_Grossjean_2025
     RDKit          3D

 32 34  0  0  0  0  0  0  0  0999 V2000
  132.9370  127.6040   74.7750 C   0  0  0  0  0  0  0  0  0  0  0  0
  132.0090  128.6760   74.6380 O   0  0  0  0  0  0  0  0  0  0  0  0
  130.7110  128.4090   74.2430 C   0  0  0  0  0  0  0  0  0  0  0  0
  130.3220  128.1980   72.9110 C   0  0  0  0  0  0  0  0  0  0  0  0
  128.9860  127.9220   72.5860 C   0  0  0  0  0  0  0  0  0  0  0  0
  128.5040  127.6920   71.2840 N   0  0  0  0  0  0  0  0  0  0  0  0
  127.4900  126.9020   70.8670 C   0  0  0  0  0  0  0  0  0  0  0  0
  126.7670  126.2230   71.5950 O   0  0  0  0  0  0  0  0  0  0  0  0
  127.2220  126.9130   69.3620 C   0  0  0  0  0  0  0  0  0  0  0  0
  125.7630  127.9060   68.9310 S   0  0  0  0  0  0  0  0  0  0  0  0
  126.0730  128.5590   67.3040 C   0  0  0  0  0  0  0  0  0  0  0  0
  127.3220  128.3110   66.8410 N   0  0  0  0  0  0  0  0  0  0  0  0
  127.6610  128.7720   65.6160 C   0  0  0  0  0  0  0  0  0  0  0  0
  129.0750  128.4640   65.1620 C   0  0  0  0  0  0  0  0  0  0  0  0
  126.7790  129.4930   64.8150 C   0  0  0  0  0  0  0  0  0  0  0  0
  125.4790  129.7530   65.2730 C   0  0  0  0  0  0  0  0  0  0  0  0
  124.5700  130.5390   64.3830 C   0  0  0  0  0  0  0  0  0  0  0  0
  123.5470  129.8940   63.6780 C   0  0  0  0  0  0  0  0  0  0  0  0
  122.7020  130.6180   62.8410 C   0  0  0  0  0  0  0  0  0  0  0  0
  122.8800  131.9920   62.7030 C   0  0  0  0  0  0  0  0  0  0  0  0
  123.8970  132.6470   63.3920 C   0  0  0  0  0  0  0  0  0  0  0  0
  124.7410  131.9200   64.2270 C   0  0  0  0  0  0  0  0  0  0  0  0
  125.1030  129.2590   66.5480 C   0  0  0  0  0  0  0  0  0  0  0  0
  123.7300  129.4200   67.0370 C   0  0  0  0  0  0  0  0  0  0  0  0
  122.6480  129.5480   67.4250 N   0  0  0  0  0  0  0  0  0  0  0  0
  128.0340  127.8790   73.6060 C   0  0  0  0  0  0  0  0  0  0  0  0
  128.3970  128.0890   74.9450 C   0  0  0  0  0  0  0  0  0  0  0  0
  127.5050  128.0510   76.0030 O   0  0  0  0  0  0  0  0  0  0  0  0
  126.8170  129.2390   76.3820 C   0  0  0  0  0  0  0  0  0  0  0  0
  129.7380  128.3550   75.2500 C   0  0  0  0  0  0  0  0  0  0  0  0
  130.1100  128.5450   76.5600 O   0  0  0  0  0  0  0  0  0  0  0  0
  130.4460  127.3470   77.2470 C   0  0  0  0  0  0  0  0  0  0  0  0
  1  2  1  0
  2  3  1  0
  3  4  2  0
  4  5  1  0
  5  6  1  0
  6  7  1  0
  7  8  2  0
  7  9  1  0
  9 10  1  0
 10 11  1  0
 11 12  2  0
 12 13  1  0
 13 14  1  0
 13 15  2  0
 15 16  1  0
 16 17  1  0
 17 18  2  0
 18 19  1  0
 19 20  2  0
 20 21  1  0
 21 22  2  0
 16 23  2  0
 23 24  1  0
 24 25  3  0
  5 26  2  0
 26 27  1  0
 27 28  1  0
 28 29  1  0
 27 30  2  0
 30 31  1  0
 31 32  1  0
 30  3  1  0
 23 11  1  0
 22 17  1  0
M  END
>  <Binding energies>  (34) 
[-8.16]

>  <Ligand effiencies>  (34) 
[-0.24727272727272728]

>  <Interactions>  (34) 
["V-B:GLY:453:CA:9014, V-B:LEU:475:CD1:9228, V-B:GLY:453:C:9012, V-B:ARG:545:CZ:9897, H-B:GLY:454:N:9020, V-B:GLU:543:CD:9879, V-A:GLU:543:CD:4907, V-A:GLU:543:CG:4906, V-B:GLU:543:CB:9877, H-A:LYS:547:NZ:4950, V-A:HIS:456:CE1:4069, V-A:HIS:456:CG:4065, V-B:HIS:456:CE1:9040, V-A:HIS:456:CB:4064, V-B:ARG:545:CG:9893, H-B:ILE:455:N:9025, V-B:ARG:545:CD:9894, V-B:GLY:454:CA:9019, H-B:HIS:456:ND1:9037, H-B:LYS:547:NZ:9922, V-B:HIS:456:CD2:9038, H-B:HIS:456:NE2:9041, H-B:ARG:545:N:9891"]

$$$$
3ci_Grossjean_2025
     RDKit          3D

 25 27  0  0  0  0  0  0  0  0999 V2000
  128.9950  122.4900   66.1260 C   0  0  0  0  0  0  0  0  0  0  0  0
  129.0510  122.4250   64.6110 C   0  0  0  0  0  0  0  0  0  0  0  0
  130.1420  121.8750   63.9430 C   0  0  0  0  0  0  0  0  0  0  0  0
  130.1410  121.8230   62.5420 C   0  0  0  0  0  0  0  0  0  0  0  0
  131.3250  121.2110   61.8680 C   0  0  0  0  0  0  0  0  0  0  0  0
  131.2460  119.9310   61.3040 C   0  0  0  0  0  0  0  0  0  0  0  0
  132.3560  119.3610   60.6850 C   0  0  0  0  0  0  0  0  0  0  0  0
  133.5530  120.0680   60.6330 C   0  0  0  0  0  0  0  0  0  0  0  0
  133.6510  121.3380   61.1960 C   0  0  0  0  0  0  0  0  0  0  0  0
  132.5400  121.9050   61.8140 C   0  0  0  0  0  0  0  0  0  0  0  0
  129.0210  122.3490   61.8490 C   0  0  0  0  0  0  0  0  0  0  0  0
  128.9820  122.3610   60.3820 C   0  0  0  0  0  0  0  0  0  0  0  0
  128.9530  122.3690   59.2250 N   0  0  0  0  0  0  0  0  0  0  0  0
  127.9520  122.8850   62.6070 C   0  0  0  0  0  0  0  0  0  0  0  0
  126.4820  123.5540   61.8370 S   0  0  0  0  0  0  0  0  0  0  0  0
  126.9490  124.9050   60.7060 C   0  0  0  0  0  0  0  0  0  0  0  0
  126.5490  124.6450   59.2500 C   0  0  0  0  0  0  0  0  0  0  0  0
  126.2310  125.5960   58.5340 O   0  0  0  0  0  0  0  0  0  0  0  0
  126.5620  123.3510   58.8600 N   0  0  0  0  0  0  0  0  0  0  0  0
  126.2720  122.8500   57.5980 C   0  0  0  0  0  0  0  0  0  0  0  0
  125.0620  123.0850   56.9470 C   0  0  0  0  0  0  0  0  0  0  0  0
  125.1690  122.4250   55.7440 C   0  0  0  0  0  0  0  0  0  0  0  0
  126.3810  121.8240   55.6760 O   0  0  0  0  0  0  0  0  0  0  0  0
  127.0700  122.1000   56.8570 N   0  0  0  0  0  0  0  0  0  0  0  0
  127.9760  122.9260   63.9630 N   0  0  0  0  0  0  0  0  0  0  0  0
  1  2  1  0
  2  3  2  0
  3  4  1  0
  4  5  1  0
  5  6  2  0
  6  7  1  0
  7  8  2  0
  8  9  1  0
  9 10  2  0
  4 11  2  0
 11 12  1  0
 12 13  3  0
 11 14  1  0
 14 15  1  0
 15 16  1  0
 16 17  1  0
 17 18  2  0
 17 19  1  0
 19 20  1  0
 20 21  1  0
 21 22  2  0
 22 23  1  0
 23 24  1  0
 14 25  2  0
 25  2  1  0
 10  5  1  0
 24 20  2  0
M  END
>  <Binding energies>  (35) 
[-8.59]

>  <Ligand effiencies>  (35) 
[-0.3303846153846154]

>  <Interactions>  (35) 
["V-B:LEU:363:CD1:8159, V-B:TYR:531:CE2:9764, H-B:TYR:531:OH:9766, V-B:TYR:539:CD2:9845, V-B:TYR:539:C:9838, V-B:TYR:539:CE2:9847, V-B:ILE:538:CG2:9834, H-B:TYR:539:N:9841, V-B:PRO:540:CA:9854, V-B:PRO:540:CB:9856, V-B:ILE:538:CD1:9836, V-B:PRO:540:N:9855, V-B:PRO:540:CD:9858, V-B:GLU:543:CD:9879, V-A:ILE:369:CD1:3238, V-B:GLU:543:CG:9878, V-A:LEU:475:CD2:4258, V-B:ALA:541:CB:9863, V-A:ILE:369:CG2:3236, V-B:ILE:538:CA:9831, V-A:SER:385:CA:3406, V-B:ALA:541:CA:9861, V-A:TYR:484:CZ:4346, V-A:LEU:475:CD1:4257, V-A:TYR:484:CE2:4345, V-B:GLU:543:CA:9875, H-B:ALA:541:N:9862, V-B:GLU:543:CB:9877, H-B:TYR:539:O:9839"]

$$$$
3ck_Grossjean_2025
     RDKit          3D

 30 31  0  0  0  0  0  0  0  0999 V2000
  125.2580  122.4810   56.5030 C   0  0  0  0  0  0  0  0  0  0  0  0
  126.4740  122.0170   55.9370 O   0  0  0  0  0  0  0  0  0  0  0  0
  127.6270  122.4290   56.6590 C   0  0  0  0  0  0  0  0  0  0  0  0
  127.1990  123.1480   57.9440 C   0  0  0  0  0  0  0  0  0  0  0  0
  127.8910  122.5850   59.0510 O   0  0  0  0  0  0  0  0  0  0  0  0
  128.9860  123.3700   59.5060 C   0  0  0  0  0  0  0  0  0  0  0  0
  128.6790  123.8880   60.9170 C   0  0  0  0  0  0  0  0  0  0  0  0
  128.3440  122.7790   61.7380 O   0  0  0  0  0  0  0  0  0  0  0  0
  127.9550  123.1130   63.0610 C   0  0  0  0  0  0  0  0  0  0  0  0
  129.1460  122.9090   64.0160 C   0  0  0  0  0  0  0  0  0  0  0  0
  130.1080  124.0150   64.0050 N   0  0  0  0  0  0  0  0  0  0  0  0
  130.5510  124.6800   65.0880 C   0  0  0  0  0  0  0  0  0  0  0  0
  130.2050  124.4040   66.2380 O   0  0  0  0  0  0  0  0  0  0  0  0
  131.5380  125.8230   64.8030 C   0  0  0  0  0  0  0  0  0  0  0  0
  133.1090  125.3240   64.0180 S   0  0  0  0  0  0  0  0  0  0  0  0
  132.7540  124.3120   62.5890 C   0  0  0  0  0  0  0  0  0  0  0  0
  132.6930  124.9720   61.4050 N   0  0  0  0  0  0  0  0  0  0  0  0
  132.4240  124.2690   60.2820 C   0  0  0  0  0  0  0  0  0  0  0  0
  132.3690  125.0740   58.9980 C   0  0  0  0  0  0  0  0  0  0  0  0
  132.2050  122.8940   60.2920 C   0  0  0  0  0  0  0  0  0  0  0  0
  132.2570  122.1930   61.5050 C   0  0  0  0  0  0  0  0  0  0  0  0
  131.9930  120.7230   61.4700 C   0  0  0  0  0  0  0  0  0  0  0  0
  130.7070  120.2330   61.7290 C   0  0  0  0  0  0  0  0  0  0  0  0
  130.4560  118.8630   61.7090 C   0  0  0  0  0  0  0  0  0  0  0  0
  131.4930  117.9770   61.4350 C   0  0  0  0  0  0  0  0  0  0  0  0
  132.7800  118.4480   61.1840 C   0  0  0  0  0  0  0  0  0  0  0  0
  133.0280  119.8170   61.2050 C   0  0  0  0  0  0  0  0  0  0  0  0
  132.5510  122.9160   62.6890 C   0  0  0  0  0  0  0  0  0  0  0  0
  132.6590  122.2290   63.9810 C   0  0  0  0  0  0  0  0  0  0  0  0
  132.7450  121.6860   64.9990 N   0  0  0  0  0  0  0  0  0  0  0  0
  1  2  1  0
  2  3  1  0
  3  4  1  0
  4  5  1  0
  5  6  1  0
  6  7  1  0
  7  8  1  0
  8  9  1  0
  9 10  1  0
 10 11  1  0
 11 12  1  0
 12 13  2  0
 12 14  1  0
 14 15  1  0
 15 16  1  0
 16 17  2  0
 17 18  1  0
 18 19  1  0
 18 20  2  0
 20 21  1  0
 21 22  1  0
 22 23  2  0
 23 24  1  0
 24 25  2  0
 25 26  1  0
 26 27  2  0
 21 28  2  0
 28 29  1  0
 29 30  3  0
 28 16  1  0
 27 22  1  0
M  END
>  <Binding energies>  (36) 
[-7.27]

>  <Ligand effiencies>  (36) 
[-0.23451612903225805]

>  <Interactions>  (36) 
["V-B:LEU:363:CD1:8159, V-B:TYR:539:CZ:9848, V-B:TYR:531:CE2:9764, V-A:ASP:366:CG:3212, V-B:TYR:539:CD2:9845, V-B:MET:535:CE:9806, V-B:TYR:539:CE1:9846, V-B:TYR:539:C:9838, V-B:TYR:539:CA:9840, V-B:TYR:539:CD1:9844, V-B:TYR:539:CG:9843, V-B:TYR:539:CE2:9847, V-B:ILE:538:CG2:9834, H-B:TYR:539:N:9841, V-B:PRO:540:CA:9854, V-B:PRO:540:CB:9856, V-B:PRO:540:N:9855, V-B:PRO:540:CD:9858, V-B:GLU:543:CD:9879, H-A:GLY:454:N:4049, H-A:TYR:484:OH:4347, H-A:ARG:545:NH2:4927, V-A:LEU:475:CD2:4258, V-B:ALA:541:CB:9863, V-A:SER:385:CA:3406, V-A:SER:385:CB:3408, V-A:GLY:454:CA:4048, V-B:ALA:541:CA:9861, V-A:ASP:366:CB:3211, H-B:ALA:541:N:9862"]

$$$$
4aa_Grossjean_2025
     RDKit          3D

 26 28  0  0  0  0  0  0  0  0999 V2000
  124.2040  124.6310   57.6640 C   0  0  0  0  0  0  0  0  0  0  0  0
  124.5830  123.3280   56.9530 C   0  0  0  0  0  0  0  0  0  0  0  0
  125.7660  123.5320   56.1920 O   0  0  0  0  0  0  0  0  0  0  0  0
  126.8860  122.8000   56.4270 C   0  0  0  0  0  0  0  0  0  0  0  0
  127.2750  121.8930   55.6850 O   0  0  0  0  0  0  0  0  0  0  0  0
  127.6030  123.2020   57.6840 C   0  0  0  0  0  0  0  0  0  0  0  0
  128.7660  123.9770   57.5900 C   0  0  0  0  0  0  0  0  0  0  0  0
  129.4560  124.3610   58.7370 C   0  0  0  0  0  0  0  0  0  0  0  0
  128.9940  123.9860   59.9990 C   0  0  0  0  0  0  0  0  0  0  0  0
  129.7720  124.4210   61.0890 N   0  0  0  0  0  0  0  0  0  0  0  0
  130.4500  125.5800   61.2710 C   0  0  0  0  0  0  0  0  0  0  0  0
  130.5270  126.4760   60.4300 O   0  0  0  0  0  0  0  0  0  0  0  0
  131.1340  125.7080   62.5590 C   0  0  0  0  0  0  0  0  0  0  0  0
  132.8110  125.1820   62.7330 S   0  0  0  0  0  0  0  0  0  0  0  0
  132.8170  125.6070   64.4290 C   0  0  0  0  0  0  0  0  0  0  0  0
  133.8960  125.4350   65.1960 N   0  0  0  0  0  0  0  0  0  0  0  0
  133.7660  125.8020   66.4940 C   0  0  0  0  0  0  0  0  0  0  0  0
  135.0030  125.5930   67.3500 C   0  0  0  0  0  0  0  0  0  0  0  0
  132.5990  126.3340   67.0370 C   0  0  0  0  0  0  0  0  0  0  0  0
  131.4710  126.5140   66.2300 C   0  0  0  0  0  0  0  0  0  0  0  0
  130.2190  127.0990   66.8680 C   0  0  0  0  0  0  0  0  0  0  0  0
  131.5650  126.1380   64.8630 C   0  0  0  0  0  0  0  0  0  0  0  0
  130.6220  126.1800   63.7780 C   0  0  0  0  0  0  0  0  0  0  0  0
  129.3420  126.6470   63.9390 N   0  0  0  0  0  0  0  0  0  0  0  0
  127.8340  123.2050   60.1030 C   0  0  0  0  0  0  0  0  0  0  0  0
  127.1460  122.8190   58.9550 C   0  0  0  0  0  0  0  0  0  0  0  0
  1  2  1  0
  2  3  1  0
  3  4  1  0
  4  5  2  0
  4  6  1  0
  6  7  2  0
  7  8  1  0
  8  9  2  0
  9 10  1  0
 10 11  1  0
 11 12  2  0
 11 13  1  0
 13 14  1  0
 14 15  1  0
 15 16  2  0
 16 17  1  0
 17 18  1  0
 17 19  2  0
 19 20  1  0
 20 21  1  0
 20 22  2  0
 22 23  1  0
 23 24  1  0
  9 25  1  0
 25 26  2  0
 26  6  1  0
 23 13  2  0
 22 15  1  0
M  END
>  <Binding energies>  (37) 
[-8.22]

>  <Ligand effiencies>  (37) 
[-0.283448275862069]

>  <Interactions>  (37) 
["V-B:LEU:363:CD1:8159, V-B:TYR:531:CZ:9765, V-B:TYR:539:CZ:9848, V-B:TYR:531:CE2:9764, V-A:ASP:366:CG:3212, H-B:TYR:531:OH:9766, V-B:MET:535:CE:9806, V-B:TYR:539:C:9838, V-B:TYR:539:CE2:9847, V-B:ASP:366:CB:8182, H-B:TYR:539:N:9841, V-B:PRO:540:CA:9854, V-B:PRO:540:CB:9856, V-B:PRO:540:N:9855, V-B:GLU:543:CD:9879, V-A:ARG:545:CZ:4925, H-A:GLY:454:N:4049, H-A:TYR:484:OH:4347, H-A:ARG:545:NH1:4926, H-A:ARG:545:NH2:4927, V-A:ARG:545:CD:4922, V-A:ILE:455:C:4051, V-A:GLY:454:CA:4048, V-A:GLY:454:C:4046, H-A:ARG:545:NE:4923, V-A:ARG:545:CG:4921, V-A:GLY:453:C:4041, V-A:GLU:543:CD:4907, H-B:GLU:543:OE2:9881, H-B:GLU:543:OE1:9880, V-A:HIS:456:CE1:4069, V-A:GLY:453:CA:4043, V-A:ARG:545:CB:4920"]

$$$$
4ab_Grossjean_2025
     RDKit          3D

 25 27  0  0  0  0  0  0  0  0999 V2000
  124.6280  123.5420   57.1820 C   0  0  0  0  0  0  0  0  0  0  0  0
  125.6590  123.4970   56.2070 O   0  0  0  0  0  0  0  0  0  0  0  0
  126.7830  122.7640   56.4120 C   0  0  0  0  0  0  0  0  0  0  0  0
  127.1540  121.8610   55.6550 O   0  0  0  0  0  0  0  0  0  0  0  0
  127.5280  123.1550   57.6550 C   0  0  0  0  0  0  0  0  0  0  0  0
  128.7060  123.9050   57.5390 C   0  0  0  0  0  0  0  0  0  0  0  0
  129.4200  124.2820   58.6730 C   0  0  0  0  0  0  0  0  0  0  0  0
  128.9690  123.9250   59.9440 C   0  0  0  0  0  0  0  0  0  0  0  0
  129.7730  124.3520   61.0180 N   0  0  0  0  0  0  0  0  0  0  0  0
  130.7620  125.2770   61.0560 C   0  0  0  0  0  0  0  0  0  0  0  0
  131.1640  125.9020   60.0740 O   0  0  0  0  0  0  0  0  0  0  0  0
  131.3700  125.4880   62.3710 C   0  0  0  0  0  0  0  0  0  0  0  0
  133.0470  125.0190   62.6610 S   0  0  0  0  0  0  0  0  0  0  0  0
  132.9500  125.5280   64.3320 C   0  0  0  0  0  0  0  0  0  0  0  0
  133.9870  125.4240   65.1640 N   0  0  0  0  0  0  0  0  0  0  0  0
  133.7790  125.8520   66.4320 C   0  0  0  0  0  0  0  0  0  0  0  0
  134.9700  125.7190   67.3640 C   0  0  0  0  0  0  0  0  0  0  0  0
  132.5710  126.3800   66.8840 C   0  0  0  0  0  0  0  0  0  0  0  0
  131.4850  126.4880   66.0080 C   0  0  0  0  0  0  0  0  0  0  0  0
  130.1870  127.0700   66.5480 C   0  0  0  0  0  0  0  0  0  0  0  0
  131.6630  126.0450   64.6690 C   0  0  0  0  0  0  0  0  0  0  0  0
  130.7810  126.0050   63.5350 C   0  0  0  0  0  0  0  0  0  0  0  0
  129.4810  126.4410   63.6030 N   0  0  0  0  0  0  0  0  0  0  0  0
  127.7940  123.1690   60.0700 C   0  0  0  0  0  0  0  0  0  0  0  0
  127.0820  122.7910   58.9350 C   0  0  0  0  0  0  0  0  0  0  0  0
  1  2  1  0
  2  3  1  0
  3  4  2  0
  3  5  1  0
  5  6  2  0
  6  7  1  0
  7  8  2  0
  8  9  1  0
  9 10  1  0
 10 11  2  0
 10 12  1  0
 12 13  1  0
 13 14  1  0
 14 15  2  0
 15 16  1  0
 16 17  1  0
 16 18  2  0
 18 19  1  0
 19 20  1  0
 19 21  2  0
 21 22  1  0
 22 23  1  0
  8 24  1  0
 24 25  2  0
 25  5  1  0
 22 12  2  0
 21 14  1  0
M  END
>  <Binding energies>  (38) 
[-8.04]

>  <Ligand effiencies>  (38) 
[-0.2871428571428571]

>  <Interactions>  (38) 
["V-B:LEU:363:CD1:8159, V-B:TYR:531:CZ:9765, V-B:TYR:539:CZ:9848, V-B:TYR:531:CE2:9764, V-A:ASP:366:CG:3212, H-B:TYR:531:OH:9766, V-B:TYR:539:CD2:9845, V-B:MET:535:CE:9806, V-B:TYR:539:C:9838, V-B:TYR:539:CE2:9847, H-B:TYR:539:N:9841, V-B:PRO:540:CA:9854, V-B:PRO:540:CB:9856, V-B:PRO:540:N:9855, V-B:GLU:543:CD:9879, V-A:ARG:545:CZ:4925, H-A:GLY:454:N:4049, H-A:TYR:484:OH:4347, H-A:ARG:545:NH1:4926, H-A:ARG:545:NH2:4927, V-A:ARG:545:CD:4922, V-A:ILE:455:C:4051, H-A:ARG:545:NE:4923, V-A:ARG:545:CG:4921, V-A:GLY:453:C:4041, V-A:GLU:543:CD:4907, H-B:GLU:543:OE2:9881, H-B:GLU:543:OE1:9880, V-A:HIS:456:CE1:4069, V-A:GLY:453:CA:4043, V-A:ARG:545:CB:4920"]

$$$$
4ac_Grossjean_2025
     RDKit          3D

 23 25  0  0  0  0  0  0  0  0999 V2000
  133.6100  126.1360   66.7100 C   0  0  0  0  0  0  0  0  0  0  0  0
  133.8550  125.4190   65.5050 O   0  0  0  0  0  0  0  0  0  0  0  0
  132.8020  125.1570   64.6500 C   0  0  0  0  0  0  0  0  0  0  0  0
  133.1200  124.5290   63.4460 C   0  0  0  0  0  0  0  0  0  0  0  0
  132.1240  124.2240   62.5210 C   0  0  0  0  0  0  0  0  0  0  0  0
  130.7930  124.5370   62.7950 C   0  0  0  0  0  0  0  0  0  0  0  0
  129.8580  124.2040   61.7960 N   0  0  0  0  0  0  0  0  0  0  0  0
  128.5610  123.8370   61.9250 C   0  0  0  0  0  0  0  0  0  0  0  0
  127.9860  123.7030   63.0070 O   0  0  0  0  0  0  0  0  0  0  0  0
  127.8500  123.5910   60.6670 C   0  0  0  0  0  0  0  0  0  0  0  0
  128.6720  122.8090   59.3160 S   0  0  0  0  0  0  0  0  0  0  0  0
  127.2350  122.9070   58.3230 C   0  0  0  0  0  0  0  0  0  0  0  0
  127.2080  122.4430   57.0740 N   0  0  0  0  0  0  0  0  0  0  0  0
  126.0330  122.5800   56.4130 C   0  0  0  0  0  0  0  0  0  0  0  0
  126.0220  122.0450   54.9940 C   0  0  0  0  0  0  0  0  0  0  0  0
  124.8960  123.1680   56.9670 C   0  0  0  0  0  0  0  0  0  0  0  0
  124.9290  123.6550   58.2790 C   0  0  0  0  0  0  0  0  0  0  0  0
  123.6640  124.2880   58.8380 C   0  0  0  0  0  0  0  0  0  0  0  0
  126.1440  123.5260   59.0030 C   0  0  0  0  0  0  0  0  0  0  0  0
  126.5210  123.9050   60.3390 C   0  0  0  0  0  0  0  0  0  0  0  0
  125.6470  124.5180   61.2000 N   0  0  0  0  0  0  0  0  0  0  0  0
  130.4660  125.1810   63.9970 C   0  0  0  0  0  0  0  0  0  0  0  0
  131.4640  125.4840   64.9200 C   0  0  0  0  0  0  0  0  0  0  0  0
  1  2  1  0
  2  3  1  0
  3  4  2  0
  4  5  1  0
  5  6  2  0
  6  7  1  0
  7  8  1  0
  8  9  2  0
  8 10  1  0
 10 11  1  0
 11 12  1  0
 12 13  2  0
 13 14  1  0
 14 15  1  0
 14 16  2  0
 16 17  1  0
 17 18  1  0
 17 19  2  0
 19 20  1  0
 20 21  1  0
  6 22  1  0
 22 23  2  0
 23  3  1  0
 20 10  2  0
 19 12  1  0
M  END
>  <Binding energies>  (39) 
[-7.45]

>  <Ligand effiencies>  (39) 
[-0.2865384615384615]

>  <Interactions>  (39) 
["V-B:LEU:363:CD1:8159, V-B:LEU:363:CA:8155, V-B:TYR:531:CE2:9764, V-B:TYR:539:CD2:9845, V-B:MET:535:CE:9806, V-B:TYR:539:C:9838, V-B:ASP:366:CG:8183, V-B:TYR:539:CE2:9847, V-B:ASP:366:CB:8182, V-B:ILE:538:CG2:9834, V-B:MET:535:CG:9804, H-B:TYR:539:N:9841, V-B:PRO:540:CA:9854, V-B:PRO:540:CB:9856, V-B:ILE:538:CD1:9836, V-B:PRO:540:N:9855, V-B:PRO:540:CD:9858, V-A:ARG:545:CZ:4925, H-A:GLY:454:N:4049, H-A:TYR:484:OH:4347, V-A:ARG:545:CD:4922, V-B:ILE:538:CA:9831, H-A:ARG:545:NE:4923, V-A:ARG:545:CG:4921, H-B:GLU:543:OE1:9880, V-B:ILE:538:C:9829, V-B:ILE:538:CB:9833, H-B:ASP:366:OD1:8184, V-B:ILE:538:CG1:9835"]

$$$$
4ad_Grossjean_2025
     RDKit          3D

 21 23  0  0  0  0  0  0  0  0999 V2000
  126.3630  122.0540   54.6520 C   0  0  0  0  0  0  0  0  0  0  0  0
  126.1400  122.5620   56.0640 C   0  0  0  0  0  0  0  0  0  0  0  0
  124.9420  123.1750   56.4250 C   0  0  0  0  0  0  0  0  0  0  0  0
  124.7590  123.6380   57.7340 C   0  0  0  0  0  0  0  0  0  0  0  0
  123.4360  124.3030   58.0800 C   0  0  0  0  0  0  0  0  0  0  0  0
  125.8260  123.4580   58.6560 C   0  0  0  0  0  0  0  0  0  0  0  0
  125.9770  123.8020   60.0440 C   0  0  0  0  0  0  0  0  0  0  0  0
  124.9810  124.4250   60.7550 N   0  0  0  0  0  0  0  0  0  0  0  0
  127.2190  123.4440   60.5900 C   0  0  0  0  0  0  0  0  0  0  0  0
  127.7120  123.6560   61.9520 C   0  0  0  0  0  0  0  0  0  0  0  0
  127.1150  123.1760   62.9180 O   0  0  0  0  0  0  0  0  0  0  0  0
  128.8480  124.3900   62.0510 N   0  0  0  0  0  0  0  0  0  0  0  0
  129.5480  124.8060   63.2000 C   0  0  0  0  0  0  0  0  0  0  0  0
  129.7750  123.8220   64.1670 C   0  0  0  0  0  0  0  0  0  0  0  0
  130.4670  124.1320   65.3340 C   0  0  0  0  0  0  0  0  0  0  0  0
  130.9420  125.4260   65.5320 C   0  0  0  0  0  0  0  0  0  0  0  0
  130.7340  126.4120   64.5710 C   0  0  0  0  0  0  0  0  0  0  0  0
  130.0410  126.1050   63.4030 C   0  0  0  0  0  0  0  0  0  0  0  0
  128.2410  122.6580   59.3840 S   0  0  0  0  0  0  0  0  0  0  0  0
  127.0010  122.8160   58.1610 C   0  0  0  0  0  0  0  0  0  0  0  0
  127.1780  122.3740   56.9150 N   0  0  0  0  0  0  0  0  0  0  0  0
  1  2  1  0
  2  3  2  0
  3  4  1  0
  4  5  1  0
  4  6  2  0
  6  7  1  0
  7  8  1  0
  7  9  2  0
  9 10  1  0
 10 11  2  0
 10 12  1  0
 12 13  1  0
 13 14  2  0
 14 15  1  0
 15 16  2  0
 16 17  1  0
 17 18  2  0
  9 19  1  0
 19 20  1  0
 20 21  2  0
 21  2  1  0
 20  6  1  0
 18 13  1  0
M  END
>  <Binding energies>  (40) 
[-7.05]

>  <Ligand effiencies>  (40) 
[-0.29375]

>  <Interactions>  (40) 
["V-B:LEU:363:CD1:8159, V-B:TYR:531:CZ:9765, V-B:LEU:363:CA:8155, V-B:TYR:531:CE2:9764, V-B:TYR:539:CD2:9845, V-B:MET:535:CE:9806, V-B:TYR:539:C:9838, V-B:ASP:366:CG:8183, V-B:TYR:539:CE2:9847, V-B:ASP:366:CB:8182, V-B:ILE:538:CG2:9834, V-B:MET:535:CG:9804, H-B:TYR:539:N:9841, V-B:PRO:540:CA:9854, V-B:PRO:540:CB:9856, V-B:ILE:538:CD1:9836, V-B:PRO:540:N:9855, V-B:GLU:543:CD:9879, V-B:ILE:538:CA:9831, V-B:LEU:363:CB:8157, V-A:TYR:484:CZ:4346, V-A:TYR:484:CE2:4345, H-B:ALA:541:N:9862, V-B:ILE:538:C:9829, V-B:ILE:538:CB:9833, H-B:ASP:366:OD1:8184, V-B:ILE:538:CG1:9835, V-B:VAL:537:C:9821"]

$$$$
4ae_Grossjean_2025
     RDKit          3D

 22 24  0  0  0  0  0  0  0  0999 V2000
  121.5560  131.4240   62.4600 C   0  0  0  0  0  0  0  0  0  0  0  0
  122.8770  130.6820   62.4030 C   0  0  0  0  0  0  0  0  0  0  0  0
  123.5360  130.4540   61.1920 C   0  0  0  0  0  0  0  0  0  0  0  0
  124.7440  129.7570   61.2150 C   0  0  0  0  0  0  0  0  0  0  0  0
  125.2590  129.3090   62.4340 C   0  0  0  0  0  0  0  0  0  0  0  0
  124.5520  129.5780   63.6100 C   0  0  0  0  0  0  0  0  0  0  0  0
  125.1100  129.0840   64.8020 N   0  0  0  0  0  0  0  0  0  0  0  0
  124.8880  129.4940   66.0760 C   0  0  0  0  0  0  0  0  0  0  0  0
  124.1280  130.4150   66.3780 O   0  0  0  0  0  0  0  0  0  0  0  0
  125.6280  128.7640   67.1080 C   0  0  0  0  0  0  0  0  0  0  0  0
  124.8670  128.3900   68.6550 S   0  0  0  0  0  0  0  0  0  0  0  0
  126.3240  127.6230   69.2420 C   0  0  0  0  0  0  0  0  0  0  0  0
  126.3980  127.0910   70.4620 N   0  0  0  0  0  0  0  0  0  0  0  0
  127.5860  126.5320   70.7960 C   0  0  0  0  0  0  0  0  0  0  0  0
  127.6520  125.9390   72.1920 C   0  0  0  0  0  0  0  0  0  0  0  0
  128.6900  126.4890   69.9450 C   0  0  0  0  0  0  0  0  0  0  0  0
  128.6070  127.0480   68.6650 C   0  0  0  0  0  0  0  0  0  0  0  0
  129.8390  126.9800   67.7740 C   0  0  0  0  0  0  0  0  0  0  0  0
  127.3770  127.6460   68.2790 C   0  0  0  0  0  0  0  0  0  0  0  0
  126.9540  128.3000   67.0700 C   0  0  0  0  0  0  0  0  0  0  0  0
  127.7840  128.4510   65.9880 N   0  0  0  0  0  0  0  0  0  0  0  0
  123.3660  130.2540   63.5950 N   0  0  0  0  0  0  0  0  0  0  0  0
  1  2  1  0
  2  3  2  0
  3  4  1  0
  4  5  2  0
  5  6  1  0
  6  7  1  0
  7  8  1  0
  8  9  2  0
  8 10  1  0
 10 11  1  0
 11 12  1  0
 12 13  2  0
 13 14  1  0
 14 15  1  0
 14 16  2  0
 16 17  1  0
 17 18  1  0
 17 19  2  0
 19 20  1  0
 20 21  1  0
  6 22  2  0
 22  2  1  0
 20 10  2  0
 19 12  1  0
M  END
>  <Binding energies>  (41) 
[-7.27]

>  <Ligand effiencies>  (41) 
[-0.2908]

>  <Interactions>  (41) 
["V-B:ASP:366:CG:8183, V-B:ASP:366:CB:8182, V-B:GLY:453:CA:9014, V-B:ILE:369:CG1:8208, V-B:GLY:453:C:9012, V-B:ARG:545:CZ:9897, H-B:GLY:454:N:9020, V-B:GLU:543:CD:9879, H-B:GLU:543:OE2:9881, H-B:GLU:543:OE1:9880, H-B:TYR:484:OH:9318, V-B:GLU:543:CB:9877, V-B:GLU:543:C:9873, V-B:GLY:544:CA:9885, V-A:HIS:456:CE1:4069, V-B:GLY:544:C:9883, V-B:HIS:456:CE1:9040, V-B:ARG:545:CG:9893, V-B:ARG:545:CD:9894, V-B:ARG:545:CB:9892, V-B:ARG:545:CA:9890, H-B:HIS:456:ND1:9037, H-B:ARG:545:N:9891"]

$$$$
4af_Grossjean_2025
     RDKit          3D

 21 23  0  0  0  0  0  0  0  0999 V2000
  126.3700  122.0570   54.8620 C   0  0  0  0  0  0  0  0  0  0  0  0
  126.1470  122.5630   56.2760 C   0  0  0  0  0  0  0  0  0  0  0  0
  124.9510  123.1780   56.6370 C   0  0  0  0  0  0  0  0  0  0  0  0
  124.7690  123.6400   57.9470 C   0  0  0  0  0  0  0  0  0  0  0  0
  123.4470  124.3060   58.2930 C   0  0  0  0  0  0  0  0  0  0  0  0
  125.8340  123.4560   58.8690 C   0  0  0  0  0  0  0  0  0  0  0  0
  125.9850  123.8010   60.2570 C   0  0  0  0  0  0  0  0  0  0  0  0
  124.9940  124.4310   60.9670 N   0  0  0  0  0  0  0  0  0  0  0  0
  127.2250  123.4350   60.8040 C   0  0  0  0  0  0  0  0  0  0  0  0
  127.7230  123.6570   62.1630 C   0  0  0  0  0  0  0  0  0  0  0  0
  127.1430  123.1640   63.1320 O   0  0  0  0  0  0  0  0  0  0  0  0
  128.8450  124.4120   62.2530 N   0  0  0  0  0  0  0  0  0  0  0  0
  129.5430  124.8460   63.3960 C   0  0  0  0  0  0  0  0  0  0  0  0
  130.0330  126.1480   63.6070 C   0  0  0  0  0  0  0  0  0  0  0  0
  130.7270  126.4430   64.7820 C   0  0  0  0  0  0  0  0  0  0  0  0
  130.9180  125.4270   65.7190 C   0  0  0  0  0  0  0  0  0  0  0  0
  130.4630  124.1620   65.5360 N   0  0  0  0  0  0  0  0  0  0  0  0
  129.7910  123.8900   64.3890 C   0  0  0  0  0  0  0  0  0  0  0  0
  128.2460  122.6480   59.5980 S   0  0  0  0  0  0  0  0  0  0  0  0
  127.0070  122.8110   58.3740 C   0  0  0  0  0  0  0  0  0  0  0  0
  127.1840  122.3700   57.1280 N   0  0  0  0  0  0  0  0  0  0  0  0
  1  2  1  0
  2  3  2  0
  3  4  1  0
  4  5  1  0
  4  6  2  0
  6  7  1  0
  7  8  1  0
  7  9  2  0
  9 10  1  0
 10 11  2  0
 10 12  1  0
 12 13  1  0
 13 14  2  0
 14 15  1  0
 15 16  2  0
 16 17  1  0
 17 18  2  0
  9 19  1  0
 19 20  1  0
 20 21  2  0
 21  2  1  0
 20  6  1  0
 18 13  1  0
M  END
>  <Binding energies>  (42) 
[-7.25]

>  <Ligand effiencies>  (42) 
[-0.3020833333333333]

>  <Interactions>  (42) 
["V-B:LEU:363:CD1:8159, V-B:TYR:531:CZ:9765, V-B:LEU:363:CA:8155, V-B:TYR:531:CE2:9764, V-B:TYR:539:CD2:9845, V-B:MET:535:CE:9806, V-B:TYR:539:C:9838, V-B:ASP:366:CG:8183, V-B:TYR:539:CE2:9847, V-B:ASP:366:CB:8182, V-B:ILE:538:CG2:9834, V-B:MET:535:CG:9804, H-B:TYR:539:N:9841, V-B:PRO:540:CA:9854, V-B:PRO:540:CB:9856, V-B:ILE:538:CD1:9836, V-B:PRO:540:N:9855, V-B:PRO:540:CD:9858, V-B:GLU:543:CD:9879, H-A:TYR:484:OH:4347, V-B:ILE:538:CA:9831, V-B:LEU:363:CB:8157, H-B:ALA:541:N:9862, V-B:ILE:538:C:9829, V-B:ILE:538:CB:9833, H-B:ASP:366:OD1:8184, V-B:ILE:538:CG1:9835, V-B:VAL:537:C:9821"]

$$$$
4ag_Grossjean_2025
     RDKit          3D

 22 24  0  0  0  0  0  0  0  0999 V2000
  122.4720  125.0490   57.5850 C   0  0  0  0  0  0  0  0  0  0  0  0
  123.8170  124.4050   57.8690 C   0  0  0  0  0  0  0  0  0  0  0  0
  124.5240  123.7480   56.8640 C   0  0  0  0  0  0  0  0  0  0  0  0
  125.7620  123.1620   57.1470 C   0  0  0  0  0  0  0  0  0  0  0  0
  126.4960  122.4570   56.0160 C   0  0  0  0  0  0  0  0  0  0  0  0
  126.2550  123.2630   58.4760 C   0  0  0  0  0  0  0  0  0  0  0  0
  127.4600  122.7900   59.1010 C   0  0  0  0  0  0  0  0  0  0  0  0
  128.4180  122.0880   58.4120 N   0  0  0  0  0  0  0  0  0  0  0  0
  127.5570  123.1080   60.4630 C   0  0  0  0  0  0  0  0  0  0  0  0
  128.6410  122.7940   61.3950 C   0  0  0  0  0  0  0  0  0  0  0  0
  128.9750  123.5840   62.2810 O   0  0  0  0  0  0  0  0  0  0  0  0
  129.2570  121.6070   61.2120 N   0  0  0  0  0  0  0  0  0  0  0  0
  130.3420  121.0800   62.0370 C   0  0  0  0  0  0  0  0  0  0  0  0
  131.0630  119.8860   61.4230 C   0  0  0  0  0  0  0  0  0  0  0  0
  130.4490  118.6300   61.4170 C   0  0  0  0  0  0  0  0  0  0  0  0
  131.0940  117.5420   60.8340 C   0  0  0  0  0  0  0  0  0  0  0  0
  132.3470  117.7160   60.2490 C   0  0  0  0  0  0  0  0  0  0  0  0
  132.9580  118.9680   60.2380 C   0  0  0  0  0  0  0  0  0  0  0  0
  132.3130  120.0550   60.8200 C   0  0  0  0  0  0  0  0  0  0  0  0
  126.1510  124.0210   61.0090 S   0  0  0  0  0  0  0  0  0  0  0  0
  125.4370  123.9620   59.4130 C   0  0  0  0  0  0  0  0  0  0  0  0
  124.2560  124.5240   59.1460 N   0  0  0  0  0  0  0  0  0  0  0  0
  1  2  1  0
  2  3  2  0
  3  4  1  0
  4  5  1  0
  4  6  2  0
  6  7  1  0
  7  8  1  0
  7  9  2  0
  9 10  1  0
 10 11  2  0
 10 12  1  0
 12 13  1  0
 13 14  1  0
 14 15  2  0
 15 16  1  0
 16 17  2  0
 17 18  1  0
 18 19  2  0
  9 20  1  0
 20 21  1  0
 21 22  2  0
 22  2  1  0
 21  6  1  0
 19 14  1  0
M  END
>  <Binding energies>  (43) 
[-7.52]

>  <Ligand effiencies>  (43) 
[-0.30079999999999996]

>  <Interactions>  (43) 
["V-B:LEU:363:CD1:8159, V-B:TYR:531:CZ:9765, V-B:LEU:363:CA:8155, V-B:TYR:539:CZ:9848, V-B:TYR:531:CE2:9764, V-B:TYR:539:CD2:9845, V-B:MET:535:CE:9806, V-B:TYR:539:C:9838, V-B:TYR:539:CA:9840, V-B:TYR:539:CD1:9844, V-B:ASP:366:CG:8183, V-B:TYR:539:CG:9843, V-B:TYR:539:CE2:9847, V-B:ASP:366:CB:8182, V-B:PRO:540:CA:9854, V-B:PRO:540:CB:9856, V-B:PRO:540:N:9855, V-A:LEU:475:CD2:4258, V-B:ALA:541:CB:9863, V-A:HIS:383:CE1:3393, V-B:ILE:538:CA:9831, V-A:SER:385:CA:3406, V-B:TYR:539:CB:9842, V-B:LEU:363:CB:8157, H-B:TYR:539:O:9839, V-B:LEU:363:C:8153, V-B:LEU:363:CG:8158"]

$$$$
4ah_Grossjean_2025
     RDKit          3D

 28 30  0  0  0  0  0  0  0  0999 V2000
  130.5140  126.8680   66.7000 C   0  0  0  0  0  0  0  0  0  0  0  0
  131.5090  126.4970   65.7540 O   0  0  0  0  0  0  0  0  0  0  0  0
  131.4370  125.2560   65.1440 C   0  0  0  0  0  0  0  0  0  0  0  0
  130.2560  124.5060   65.0300 C   0  0  0  0  0  0  0  0  0  0  0  0
  130.2590  123.2600   64.4030 C   0  0  0  0  0  0  0  0  0  0  0  0
  128.9580  122.4810   64.2470 C   0  0  0  0  0  0  0  0  0  0  0  0
  128.4140  122.5150   62.8890 N   0  0  0  0  0  0  0  0  0  0  0  0
  127.6560  123.5060   62.3750 C   0  0  0  0  0  0  0  0  0  0  0  0
  127.3100  124.4870   63.0340 O   0  0  0  0  0  0  0  0  0  0  0  0
  127.2270  123.3310   60.9880 C   0  0  0  0  0  0  0  0  0  0  0  0
  128.2610  122.4760   59.8420 S   0  0  0  0  0  0  0  0  0  0  0  0
  127.1180  122.7430   58.5440 C   0  0  0  0  0  0  0  0  0  0  0  0
  127.3360  122.2940   57.3080 N   0  0  0  0  0  0  0  0  0  0  0  0
  126.3710  122.5660   56.3970 C   0  0  0  0  0  0  0  0  0  0  0  0
  126.6410  122.0480   54.9960 C   0  0  0  0  0  0  0  0  0  0  0  0
  125.2050  123.2690   56.6900 C   0  0  0  0  0  0  0  0  0  0  0  0
  124.9790  123.7420   57.9880 C   0  0  0  0  0  0  0  0  0  0  0  0
  123.6910  124.5040   58.2590 C   0  0  0  0  0  0  0  0  0  0  0  0
  125.9710  123.4770   58.9710 C   0  0  0  0  0  0  0  0  0  0  0  0
  126.0650  123.8100   60.3670 C   0  0  0  0  0  0  0  0  0  0  0  0
  125.0910  124.5240   61.0190 N   0  0  0  0  0  0  0  0  0  0  0  0
  131.4450  122.7660   63.8580 C   0  0  0  0  0  0  0  0  0  0  0  0
  132.6420  123.4910   63.9620 C   0  0  0  0  0  0  0  0  0  0  0  0
  133.8550  123.0560   63.4590 O   0  0  0  0  0  0  0  0  0  0  0  0
  133.8710  122.0630   62.4390 C   0  0  0  0  0  0  0  0  0  0  0  0
  132.6260  124.7330   64.6130 C   0  0  0  0  0  0  0  0  0  0  0  0
  133.7870  125.4620   64.7060 O   0  0  0  0  0  0  0  0  0  0  0  0
  134.1620  125.7860   66.0380 C   0  0  0  0  0  0  0  0  0  0  0  0
  1  2  1  0
  2  3  1  0
  3  4  2  0
  4  5  1  0
  5  6  1  0
  6  7  1  0
  7  8  1  0
  8  9  2  0
  8 10  1  0
 10 11  1  0
 11 12  1  0
 12 13  2  0
 13 14  1  0
 14 15  1  0
 14 16  2  0
 16 17  1  0
 17 18  1  0
 17 19  2  0
 19 20  1  0
 20 21  1  0
  5 22  2  0
 22 23  1  0
 23 24  1  0
 24 25  1  0
 23 26  2  0
 26 27  1  0
 27 28  1  0
 26  3  1  0
 20 10  2  0
 19 12  1  0
M  END
>  <Binding energies>  (44) 
[-7.38]

>  <Ligand effiencies>  (44) 
[-0.23806451612903226]

>  <Interactions>  (44) 
["V-B:LEU:363:CD1:8159, V-B:TYR:531:CZ:9765, V-B:LEU:363:CA:8155, V-B:TYR:531:CE2:9764, V-B:TYR:539:CD2:9845, V-B:MET:535:CE:9806, V-B:TYR:539:C:9838, V-B:ASP:366:CG:8183, V-B:TYR:539:CE2:9847, V-B:ASP:366:CB:8182, V-B:MET:535:CG:9804, H-B:TYR:539:N:9841, V-B:PRO:540:CA:9854, V-B:PRO:540:CB:9856, V-B:ILE:538:CD1:9836, V-B:PRO:540:N:9855, V-B:PRO:540:CD:9858, V-B:GLU:543:CD:9879, V-A:ARG:545:CZ:4925, H-A:GLY:454:N:4049, H-A:TYR:484:OH:4347, H-A:ARG:545:NH1:4926, V-A:ILE:369:CD1:3238, H-A:ARG:545:NH2:4927, V-A:ARG:545:CD:4922, V-B:GLU:543:CG:9878, V-A:LEU:475:CD2:4258, V-B:ALA:541:CB:9863, V-B:ILE:538:CA:9831, V-A:GLY:454:CA:4048, H-A:ARG:545:NE:4923, V-A:ARG:545:CG:4921, V-A:GLY:453:C:4041, V-B:ALA:541:CA:9861, V-A:GLU:543:CD:4907, H-B:GLU:543:OE1:9880, H-B:TYR:539:O:9839, V-A:GLY:453:CA:4043, V-B:ILE:538:C:9829, V-B:ILE:538:CB:9833, H-B:ASP:366:OD1:8184, V-B:VAL:537:C:9821"]

$$$$
4ai_Grossjean_2025
     RDKit          3D

 20 22  0  0  0  0  0  0  0  0999 V2000
  126.5510  122.0520   54.9370 C   0  0  0  0  0  0  0  0  0  0  0  0
  126.2900  122.5400   56.3510 C   0  0  0  0  0  0  0  0  0  0  0  0
  125.0920  123.1700   56.6820 C   0  0  0  0  0  0  0  0  0  0  0  0
  124.8700  123.6060   57.9930 C   0  0  0  0  0  0  0  0  0  0  0  0
  123.5460  124.2870   58.3060 C   0  0  0  0  0  0  0  0  0  0  0  0
  125.8970  123.3820   58.9500 C   0  0  0  0  0  0  0  0  0  0  0  0
  126.0020  123.6920   60.3500 C   0  0  0  0  0  0  0  0  0  0  0  0
  124.9990  124.3310   61.0360 N   0  0  0  0  0  0  0  0  0  0  0  0
  127.2070  123.2770   60.9380 C   0  0  0  0  0  0  0  0  0  0  0  0
  127.6470  123.4380   62.3250 C   0  0  0  0  0  0  0  0  0  0  0  0
  126.8890  123.1720   63.2600 O   0  0  0  0  0  0  0  0  0  0  0  0
  128.9220  123.8730   62.4840 N   0  0  0  0  0  0  0  0  0  0  0  0
  129.5940  124.1010   63.6770 C   0  0  0  0  0  0  0  0  0  0  0  0
  130.4240  125.2030   63.8860 C   0  0  0  0  0  0  0  0  0  0  0  0
  130.8930  125.0600   65.1720 C   0  0  0  0  0  0  0  0  0  0  0  0
  130.3710  123.9330   65.7110 O   0  0  0  0  0  0  0  0  0  0  0  0
  129.5480  123.3340   64.7550 N   0  0  0  0  0  0  0  0  0  0  0  0
  128.2620  122.5070   59.7510 S   0  0  0  0  0  0  0  0  0  0  0  0
  127.0760  122.7270   58.4830 C   0  0  0  0  0  0  0  0  0  0  0  0
  127.2920  122.3110   57.2350 N   0  0  0  0  0  0  0  0  0  0  0  0
  1  2  1  0
  2  3  2  0
  3  4  1  0
  4  5  1  0
  4  6  2  0
  6  7  1  0
  7  8  1  0
  7  9  2  0
  9 10  1  0
 10 11  2  0
 10 12  1  0
 12 13  1  0
 13 14  1  0
 14 15  2  0
 15 16  1  0
 16 17  1  0
  9 18  1  0
 18 19  1  0
 19 20  2  0
 20  2  1  0
 19  6  1  0
 17 13  2  0
M  END
>  <Binding energies>  (45) 
[-7.11]

>  <Ligand effiencies>  (45) 
[-0.3091304347826087]

>  <Interactions>  (45) 
["V-B:LEU:363:CD1:8159, V-B:TYR:531:CZ:9765, V-B:LEU:363:CA:8155, V-B:TYR:531:CE2:9764, V-B:TYR:539:CD2:9845, V-B:MET:535:CE:9806, V-B:TYR:539:C:9838, V-B:ASP:366:CG:8183, V-B:TYR:539:CE2:9847, V-B:ASP:366:CB:8182, V-B:ILE:538:CG2:9834, V-B:MET:535:CG:9804, H-B:TYR:539:N:9841, V-B:PRO:540:CA:9854, V-B:PRO:540:CB:9856, V-B:ILE:538:CD1:9836, V-B:PRO:540:N:9855, V-B:PRO:540:CD:9858, V-B:GLU:543:CD:9879, H-A:TYR:484:OH:4347, V-B:ILE:538:CA:9831, V-B:LEU:363:CB:8157, H-B:ALA:541:N:9862, V-B:ILE:538:C:9829, V-B:ILE:538:CB:9833, H-B:ASP:366:OD1:8184, V-B:VAL:537:C:9821"]

$$$$
4aj_Grossjean_2025
     RDKit          3D

 20 22  0  0  0  0  0  0  0  0999 V2000
  126.3690  122.0460   54.6320 C   0  0  0  0  0  0  0  0  0  0  0  0
  126.1180  122.5320   56.0480 C   0  0  0  0  0  0  0  0  0  0  0  0
  124.9410  123.2000   56.3790 C   0  0  0  0  0  0  0  0  0  0  0  0
  124.7320  123.6440   57.6890 C   0  0  0  0  0  0  0  0  0  0  0  0
  123.4310  124.3680   58.0000 C   0  0  0  0  0  0  0  0  0  0  0  0
  125.7510  123.3890   58.6460 C   0  0  0  0  0  0  0  0  0  0  0  0
  125.8650  123.6990   60.0460 C   0  0  0  0  0  0  0  0  0  0  0  0
  124.8830  124.3690   60.7310 N   0  0  0  0  0  0  0  0  0  0  0  0
  127.0580  123.2500   60.6330 C   0  0  0  0  0  0  0  0  0  0  0  0
  127.5040  123.4010   62.0200 C   0  0  0  0  0  0  0  0  0  0  0  0
  126.9470  124.1980   62.7770 O   0  0  0  0  0  0  0  0  0  0  0  0
  128.5380  122.6040   62.3890 N   0  0  0  0  0  0  0  0  0  0  0  0
  129.1380  122.5430   63.6390 C   0  0  0  0  0  0  0  0  0  0  0  0
  128.5500  122.5020   64.8160 N   0  0  0  0  0  0  0  0  0  0  0  0
  129.4310  122.4430   65.7950 C   0  0  0  0  0  0  0  0  0  0  0  0
  130.7720  122.4370   65.4190 C   0  0  0  0  0  0  0  0  0  0  0  0
  130.8710  122.5110   63.6840 S   0  0  0  0  0  0  0  0  0  0  0  0
  128.0850  122.4390   59.4500 S   0  0  0  0  0  0  0  0  0  0  0  0
  126.9080  122.6940   58.1820 C   0  0  0  0  0  0  0  0  0  0  0  0
  127.1100  122.2700   56.9340 N   0  0  0  0  0  0  0  0  0  0  0  0
  1  2  1  0
  2  3  2  0
  3  4  1  0
  4  5  1  0
  4  6  2  0
  6  7  1  0
  7  8  1  0
  7  9  2  0
  9 10  1  0
 10 11  2  0
 10 12  1  0
 12 13  1  0
 13 14  2  0
 14 15  1  0
 15 16  2  0
 16 17  1  0
  9 18  1  0
 18 19  1  0
 19 20  2  0
 20  2  1  0
 19  6  1  0
 17 13  1  0
M  END
>  <Binding energies>  (46) 
[-6.66]

>  <Ligand effiencies>  (46) 
[-0.28956521739130436]

>  <Interactions>  (46) 
["V-B:LEU:363:CD1:8159, V-B:TYR:531:CZ:9765, V-B:LEU:363:CA:8155, V-B:TYR:531:CE2:9764, V-B:TYR:539:CD2:9845, V-B:MET:535:CE:9806, V-B:TYR:539:C:9838, V-B:ASP:366:CG:8183, V-B:TYR:539:CE2:9847, V-B:ASP:366:CB:8182, V-B:ILE:538:CG2:9834, V-B:MET:535:CG:9804, H-B:TYR:539:N:9841, V-B:PRO:540:CA:9854, V-B:PRO:540:CB:9856, V-B:ILE:538:CD1:9836, V-B:PRO:540:N:9855, V-B:PRO:540:CD:9858, V-B:GLU:543:CD:9879, V-B:GLU:543:CG:9878, V-A:LEU:475:CD2:4258, V-B:ALA:541:CB:9863, V-B:ILE:538:CA:9831, V-B:LEU:363:CB:8157, V-B:ALA:541:CA:9861, V-A:TYR:484:CZ:4346, V-A:LEU:475:CD1:4257, V-A:TYR:484:CE2:4345, V-B:PRO:540:C:9852, H-B:TYR:539:O:9839, V-B:ILE:538:C:9829, V-B:ILE:538:CB:9833, H-B:ASP:366:OD1:8184, V-B:ILE:538:CG1:9835, V-B:VAL:537:C:9821"]

$$$$
4ak_Grossjean_2025
     RDKit          3D

 25 26  0  0  0  0  0  0  0  0999 V2000
  132.2510  125.7550   58.0850 C   0  0  0  0  0  0  0  0  0  0  0  0
  132.7300  124.4530   58.3830 O   0  0  0  0  0  0  0  0  0  0  0  0
  132.3040  123.9700   59.6510 C   0  0  0  0  0  0  0  0  0  0  0  0
  133.5030  123.3770   60.4020 C   0  0  0  0  0  0  0  0  0  0  0  0
  133.2180  123.3420   61.7940 O   0  0  0  0  0  0  0  0  0  0  0  0
  133.6660  124.4920   62.5000 C   0  0  0  0  0  0  0  0  0  0  0  0
  132.4590  125.3590   62.8750 C   0  0  0  0  0  0  0  0  0  0  0  0
  131.2670  124.6030   62.7080 O   0  0  0  0  0  0  0  0  0  0  0  0
  131.0260  123.6720   63.7550 C   0  0  0  0  0  0  0  0  0  0  0  0
  129.5180  123.3760   63.8360 C   0  0  0  0  0  0  0  0  0  0  0  0
  128.8600  123.3220   62.5310 N   0  0  0  0  0  0  0  0  0  0  0  0
  127.5300  123.2250   62.3310 C   0  0  0  0  0  0  0  0  0  0  0  0
  126.7220  123.1940   63.2610 O   0  0  0  0  0  0  0  0  0  0  0  0
  127.0920  123.1680   60.9370 C   0  0  0  0  0  0  0  0  0  0  0  0
  128.1270  122.4430   59.7080 S   0  0  0  0  0  0  0  0  0  0  0  0
  126.9400  122.7520   58.4600 C   0  0  0  0  0  0  0  0  0  0  0  0
  127.1490  122.4120   57.1880 N   0  0  0  0  0  0  0  0  0  0  0  0
  126.1510  122.7100   56.3210 C   0  0  0  0  0  0  0  0  0  0  0  0
  126.4070  122.3140   54.8780 C   0  0  0  0  0  0  0  0  0  0  0  0
  124.9620  123.3340   56.6930 C   0  0  0  0  0  0  0  0  0  0  0  0
  124.7450  123.6900   58.0290 C   0  0  0  0  0  0  0  0  0  0  0  0
  123.4340  124.3720   58.3860 C   0  0  0  0  0  0  0  0  0  0  0  0
  125.7710  123.3940   58.9680 C   0  0  0  0  0  0  0  0  0  0  0  0
  125.8810  123.6140   60.3850 C   0  0  0  0  0  0  0  0  0  0  0  0
  124.8840  124.2100   61.1140 N   0  0  0  0  0  0  0  0  0  0  0  0
  1  2  1  0
  2  3  1  0
  3  4  1  0
  4  5  1  0
  5  6  1  0
  6  7  1  0
  7  8  1  0
  8  9  1  0
  9 10  1  0
 10 11  1  0
 11 12  1  0
 12 13  2  0
 12 14  1  0
 14 15  1  0
 15 16  1  0
 16 17  2  0
 17 18  1  0
 18 19  1  0
 18 20  2  0
 20 21  1  0
 21 22  1  0
 21 23  2  0
 23 24  1  0
 24 25  1  0
 24 14  2  0
 23 16  1  0
M  END
>  <Binding energies>  (47) 
[-6.16]

>  <Ligand effiencies>  (47) 
[-0.22]

>  <Interactions>  (47) 
["V-B:LEU:363:CD1:8159, V-B:TYR:531:CZ:9765, V-B:LEU:363:CA:8155, V-B:TYR:539:CZ:9848, V-B:TYR:531:CE2:9764, V-A:ASP:366:CG:3212, V-B:TYR:539:CD2:9845, V-B:MET:535:CE:9806, V-B:TYR:539:C:9838, V-B:ASP:366:CG:8183, V-B:TYR:539:CE2:9847, V-B:ASP:366:CB:8182, V-B:MET:535:CG:9804, H-B:TYR:539:N:9841, V-B:PRO:540:CA:9854, V-B:PRO:540:CB:9856, V-B:ILE:538:CD1:9836, V-B:PRO:540:N:9855, V-B:PRO:540:CD:9858, V-A:ILE:369:CD1:3238, V-A:ILE:369:CG2:3236, V-B:ILE:538:CA:9831, V-B:LEU:363:CB:8157, V-A:ASP:366:CB:3211, H-B:TYR:539:OH:9849, V-A:ILE:369:CB:3235, V-B:PRO:540:C:9852, H-B:ALA:541:N:9862, V-B:ILE:538:C:9829, V-B:ILE:538:CB:9833, H-B:ASP:366:OD1:8184, V-B:VAL:537:C:9821"]

$$$$
4al_Grossjean_2025
     RDKit          3D

 16 17  0  0  0  0  0  0  0  0999 V2000
  129.6020  124.0320   63.4310 C   0  0  0  0  0  0  0  0  0  0  0  0
  129.0110  123.6550   62.1970 O   0  0  0  0  0  0  0  0  0  0  0  0
  127.6920  123.3380   62.1230 C   0  0  0  0  0  0  0  0  0  0  0  0
  126.9660  123.1750   63.1070 O   0  0  0  0  0  0  0  0  0  0  0  0
  127.2090  123.2070   60.7320 C   0  0  0  0  0  0  0  0  0  0  0  0
  128.2220  122.4250   59.5160 S   0  0  0  0  0  0  0  0  0  0  0  0
  127.0070  122.6740   58.2830 C   0  0  0  0  0  0  0  0  0  0  0  0
  127.1860  122.2690   57.0260 N   0  0  0  0  0  0  0  0  0  0  0  0
  126.1660  122.5230   56.1670 C   0  0  0  0  0  0  0  0  0  0  0  0
  126.3900  122.0540   54.7420 C   0  0  0  0  0  0  0  0  0  0  0  0
  124.9860  123.1650   56.5350 C   0  0  0  0  0  0  0  0  0  0  0  0
  124.8010  123.5880   57.8560 C   0  0  0  0  0  0  0  0  0  0  0  0
  123.4970  124.2840   58.2100 C   0  0  0  0  0  0  0  0  0  0  0  0
  125.8490  123.3390   58.7840 C   0  0  0  0  0  0  0  0  0  0  0  0
  125.9920  123.6310   60.1830 C   0  0  0  0  0  0  0  0  0  0  0  0
  125.0190  124.2680   60.9090 N   0  0  0  0  0  0  0  0  0  0  0  0
  1  2  1  0
  2  3  1  0
  3  4  2  0
  3  5  1  0
  5  6  1  0
  6  7  1  0
  7  8  2  0
  8  9  1  0
  9 10  1  0
  9 11  2  0
 11 12  1  0
 12 13  1  0
 12 14  2  0
 14 15  1  0
 15 16  1  0
 15  5  2  0
 14  7  1  0
M  END
>  <Binding energies>  (48) 
[-5.87]

>  <Ligand effiencies>  (48) 
[-0.32611111111111113]

>  <Interactions>  (48) 
["V-B:LEU:363:CD1:8159, V-B:TYR:531:CZ:9765, V-B:LEU:363:CA:8155, V-B:TYR:531:CE2:9764, V-B:TYR:539:CD2:9845, V-B:MET:535:CE:9806, V-B:TYR:539:C:9838, V-B:TYR:539:CE2:9847, V-B:ASP:366:CB:8182, V-B:ILE:538:CG2:9834, V-B:MET:535:CG:9804, H-B:TYR:539:N:9841, V-B:PRO:540:CA:9854, V-B:PRO:540:CB:9856, V-B:ILE:538:CD1:9836, V-B:PRO:540:N:9855, V-B:PRO:540:CD:9858, V-B:ILE:538:CA:9831, V-B:LEU:363:CB:8157, V-B:PRO:540:C:9852, H-B:ALA:541:N:9862, V-B:ILE:538:C:9829, V-B:ILE:538:CB:9833, H-B:ASP:366:OD1:8184, V-B:ILE:538:CG1:9835, V-B:VAL:537:C:9821"]

$$$$
4bc_Grossjean_2025
     RDKit          3D

 26 28  0  0  0  0  0  0  0  0999 V2000
  123.6050  129.5610   67.3410 C   0  0  0  0  0  0  0  0  0  0  0  0
  123.4320  129.5740   65.9280 O   0  0  0  0  0  0  0  0  0  0  0  0
  124.4830  129.9720   65.1240 C   0  0  0  0  0  0  0  0  0  0  0  0
  124.1670  130.3100   63.8090 C   0  0  0  0  0  0  0  0  0  0  0  0
  125.1610  130.7220   62.9240 C   0  0  0  0  0  0  0  0  0  0  0  0
  126.4870  130.8100   63.3490 C   0  0  0  0  0  0  0  0  0  0  0  0
  127.4230  131.2210   62.3820 N   0  0  0  0  0  0  0  0  0  0  0  0
  128.2290  132.3110   62.3780 C   0  0  0  0  0  0  0  0  0  0  0  0
  128.2290  133.1690   63.2620 O   0  0  0  0  0  0  0  0  0  0  0  0
  129.1260  132.4260   61.2240 C   0  0  0  0  0  0  0  0  0  0  0  0
  128.5650  133.1850   59.7360 S   0  0  0  0  0  0  0  0  0  0  0  0
  130.1110  132.9220   58.9640 C   0  0  0  0  0  0  0  0  0  0  0  0
  130.3380  133.3140   57.7110 N   0  0  0  0  0  0  0  0  0  0  0  0
  131.5720  133.0540   57.2220 C   0  0  0  0  0  0  0  0  0  0  0  0
  131.8120  133.5130   55.7950 C   0  0  0  0  0  0  0  0  0  0  0  0
  132.5750  132.4170   57.9490 C   0  0  0  0  0  0  0  0  0  0  0  0
  132.3410  132.0020   59.2690 C   0  0  0  0  0  0  0  0  0  0  0  0
  133.4750  131.3020   60.0270 C   0  0  0  0  0  0  0  0  0  0  0  0
  133.0470  130.2980   60.7950 F   0  0  0  0  0  0  0  0  0  0  0  0
  134.3520  130.7970   59.1600 F   0  0  0  0  0  0  0  0  0  0  0  0
  134.0940  132.1760   60.8210 F   0  0  0  0  0  0  0  0  0  0  0  0
  131.0500  132.2620   59.8160 C   0  0  0  0  0  0  0  0  0  0  0  0
  130.4560  131.9940   61.1040 C   0  0  0  0  0  0  0  0  0  0  0  0
  131.1390  131.3720   62.1180 N   0  0  0  0  0  0  0  0  0  0  0  0
  126.8150  130.4590   64.6680 C   0  0  0  0  0  0  0  0  0  0  0  0
  125.8200  130.0470   65.5480 C   0  0  0  0  0  0  0  0  0  0  0  0
  1  2  1  0
  2  3  1  0
  3  4  2  0
  4  5  1  0
  5  6  2  0
  6  7  1  0
  7  8  1  0
  8  9  2  0
  8 10  1  0
 10 11  1  0
 11 12  1  0
 12 13  2  0
 13 14  1  0
 14 15  1  0
 14 16  2  0
 16 17  1  0
 17 18  1  0
 18 19  1  0
 18 20  1  0
 18 21  1  0
 17 22  2  0
 22 23  1  0
 23 24  1  0
  6 25  1  0
 25 26  2  0
 26  3  1  0
 23 10  2  0
 22 12  1  0
M  END
>  <Binding energies>  (49) 
[-6.81]

>  <Ligand effiencies>  (49) 
[-0.23482758620689653]

>  <Interactions>  (49) 
["V-A:LEU:363:CA:3184, V-A:PRO:540:CB:4884, V-A:TYR:539:CD1:4872, V-A:TYR:539:C:4866, V-A:ASP:366:CG:3212, V-A:ASN:362:C:3171, V-A:ASN:362:CB:3175, V-A:ASN:362:CA:3173, V-A:TYR:531:CE2:4792, V-A:LEU:363:CD1:3188, V-A:PRO:540:N:4883, V-A:PRO:540:CA:4882, V-A:TYR:539:CE1:4874, V-B:ARG:545:CZ:9897, H-B:GLY:454:N:9020, H-A:TYR:539:N:4869, V-A:PRO:540:CD:4886, V-A:ILE:538:CB:4861, H-A:ASP:366:OD2:3214, H-B:ARG:545:NE:9895, H-A:GLU:543:OE2:4909, V-A:GLU:543:CD:4907, V-A:ASP:366:CB:3211, V-A:LEU:363:C:3182, V-A:LEU:363:CB:3186, V-A:ILE:538:CA:4859, V-A:ILE:538:CG2:4862, V-B:ARG:545:CG:9893, V-B:ARG:545:CD:9894"]

$$$$
4bf_Grossjean_2025
     RDKit          3D

 24 26  0  0  0  0  0  0  0  0999 V2000
  126.4440  122.0460   54.9110 C   0  0  0  0  0  0  0  0  0  0  0  0
  126.2720  122.5880   56.3200 C   0  0  0  0  0  0  0  0  0  0  0  0
  125.1550  123.3430   56.6660 C   0  0  0  0  0  0  0  0  0  0  0  0
  125.0100  123.8410   57.9700 C   0  0  0  0  0  0  0  0  0  0  0  0
  123.7650  124.6690   58.3040 C   0  0  0  0  0  0  0  0  0  0  0  0
  123.0630  124.1690   59.3250 F   0  0  0  0  0  0  0  0  0  0  0  0
  124.1230  125.9100   58.6370 F   0  0  0  0  0  0  0  0  0  0  0  0
  122.9540  124.7130   57.2470 F   0  0  0  0  0  0  0  0  0  0  0  0
  126.0470  123.5390   58.9030 C   0  0  0  0  0  0  0  0  0  0  0  0
  126.2430  123.8690   60.2930 C   0  0  0  0  0  0  0  0  0  0  0  0
  125.3420  124.6140   61.0100 N   0  0  0  0  0  0  0  0  0  0  0  0
  127.4310  123.3590   60.8430 C   0  0  0  0  0  0  0  0  0  0  0  0
  127.9550  123.5280   62.2020 C   0  0  0  0  0  0  0  0  0  0  0  0
  127.5190  122.8480   63.1310 O   0  0  0  0  0  0  0  0  0  0  0  0
  128.9360  124.4540   62.3340 N   0  0  0  0  0  0  0  0  0  0  0  0
  129.6090  124.8880   63.4930 C   0  0  0  0  0  0  0  0  0  0  0  0
  130.1290  126.1770   63.6980 C   0  0  0  0  0  0  0  0  0  0  0  0
  130.7910  126.4740   64.8920 C   0  0  0  0  0  0  0  0  0  0  0  0
  130.9190  125.4690   65.8510 C   0  0  0  0  0  0  0  0  0  0  0  0
  130.4330  124.2150   65.6750 N   0  0  0  0  0  0  0  0  0  0  0  0
  129.7920  123.9420   64.5090 C   0  0  0  0  0  0  0  0  0  0  0  0
  128.3490  122.4520   59.6430 S   0  0  0  0  0  0  0  0  0  0  0  0
  127.1390  122.7540   58.4190 C   0  0  0  0  0  0  0  0  0  0  0  0
  127.2710  122.2830   57.1800 N   0  0  0  0  0  0  0  0  0  0  0  0
  1  2  1  0
  2  3  2  0
  3  4  1  0
  4  5  1  0
  5  6  1  0
  5  7  1  0
  5  8  1  0
  4  9  2  0
  9 10  1  0
 10 11  1  0
 10 12  2  0
 12 13  1  0
 13 14  2  0
 13 15  1  0
 15 16  1  0
 16 17  2  0
 17 18  1  0
 18 19  2  0
 19 20  1  0
 20 21  2  0
 12 22  1  0
 22 23  1  0
 23 24  2  0
 24  2  1  0
 23  9  1  0
 21 16  1  0
M  END
>  <Binding energies>  (50) 
[-6.82]

>  <Ligand effiencies>  (50) 
[-0.2525925925925926]

>  <Interactions>  (50) 
["V-B:LEU:363:CD1:8159, V-B:TYR:531:CZ:9765, V-B:LEU:363:CA:8155, V-B:TYR:531:CE2:9764, V-B:TYR:539:CD2:9845, V-B:MET:535:CE:9806, V-B:TYR:539:C:9838, V-B:ASP:366:CG:8183, V-B:TYR:539:CE2:9847, V-B:ASP:366:CB:8182, V-B:ILE:538:CG2:9834, V-B:MET:535:CG:9804, H-B:TYR:539:N:9841, V-B:PRO:540:CA:9854, V-B:PRO:540:CB:9856, V-B:ILE:538:CD1:9836, V-B:PRO:540:N:9855, V-B:PRO:540:CD:9858, V-B:GLU:543:CD:9879, H-A:TYR:484:OH:4347, V-B:ILE:538:CA:9831, V-B:LEU:363:CB:8157, H-B:GLU:543:OE1:9880, H-B:ALA:541:N:9862, V-B:ILE:538:C:9829, V-B:ILE:538:CB:9833, H-B:ASP:366:OD1:8184, V-B:ASN:362:C:8142, V-B:TYR:531:CD2:9762, V-B:VAL:537:C:9821, V-B:LEU:363:CG:8158"]

$$$$
4bh_Grossjean_2025
     RDKit          3D

 31 33  0  0  0  0  0  0  0  0999 V2000
  134.1100  122.3290   62.4230 C   0  0  0  0  0  0  0  0  0  0  0  0
  134.0070  123.4520   63.2900 O   0  0  0  0  0  0  0  0  0  0  0  0
  132.7880  123.7540   63.8700 C   0  0  0  0  0  0  0  0  0  0  0  0
  131.6280  122.9820   63.7030 C   0  0  0  0  0  0  0  0  0  0  0  0
  130.4300  123.3480   64.3160 C   0  0  0  0  0  0  0  0  0  0  0  0
  129.1920  122.4720   64.1610 C   0  0  0  0  0  0  0  0  0  0  0  0
  128.6110  122.5140   62.8190 N   0  0  0  0  0  0  0  0  0  0  0  0
  127.7630  123.4590   62.3630 C   0  0  0  0  0  0  0  0  0  0  0  0
  127.3560  124.3820   63.0720 O   0  0  0  0  0  0  0  0  0  0  0  0
  127.3110  123.3050   60.9800 C   0  0  0  0  0  0  0  0  0  0  0  0
  128.2950  122.4120   59.8250 S   0  0  0  0  0  0  0  0  0  0  0  0
  127.1520  122.7290   58.5410 C   0  0  0  0  0  0  0  0  0  0  0  0
  127.3500  122.2690   57.3060 N   0  0  0  0  0  0  0  0  0  0  0  0
  126.3950  122.5770   56.3980 C   0  0  0  0  0  0  0  0  0  0  0  0
  126.6400  122.0450   54.9970 C   0  0  0  0  0  0  0  0  0  0  0  0
  125.2580  123.3250   56.6930 C   0  0  0  0  0  0  0  0  0  0  0  0
  125.0450  123.8130   57.9920 C   0  0  0  0  0  0  0  0  0  0  0  0
  123.7780  124.6290   58.2690 C   0  0  0  0  0  0  0  0  0  0  0  0
  122.9490  124.6810   57.2240 F   0  0  0  0  0  0  0  0  0  0  0  0
  123.1060  124.0870   59.2840 F   0  0  0  0  0  0  0  0  0  0  0  0
  124.1080  125.8830   58.5790 F   0  0  0  0  0  0  0  0  0  0  0  0
  126.0350  123.5090   58.9730 C   0  0  0  0  0  0  0  0  0  0  0  0
  126.1620  123.8340   60.3720 C   0  0  0  0  0  0  0  0  0  0  0  0
  125.2360  124.5870   61.0470 N   0  0  0  0  0  0  0  0  0  0  0  0
  130.3920  124.4820   65.1290 C   0  0  0  0  0  0  0  0  0  0  0  0
  131.5340  125.2780   65.3080 C   0  0  0  0  0  0  0  0  0  0  0  0
  131.5650  126.4210   66.0860 O   0  0  0  0  0  0  0  0  0  0  0  0
  130.3530  126.9190   66.6430 C   0  0  0  0  0  0  0  0  0  0  0  0
  132.7250  124.9060   64.6670 C   0  0  0  0  0  0  0  0  0  0  0  0
  133.8560  125.6670   64.8480 O   0  0  0  0  0  0  0  0  0  0  0  0
  134.2660  125.7790   66.2040 C   0  0  0  0  0  0  0  0  0  0  0  0
  1  2  1  0
  2  3  1  0
  3  4  2  0
  4  5  1  0
  5  6  1  0
  6  7  1  0
  7  8  1  0
  8  9  2  0
  8 10  1  0
 10 11  1  0
 11 12  1  0
 12 13  2  0
 13 14  1  0
 14 15  1  0
 14 16  2  0
 16 17  1  0
 17 18  1  0
 18 19  1  0
 18 20  1  0
 18 21  1  0
 17 22  2  0
 22 23  1  0
 23 24  1  0
  5 25  2  0
 25 26  1  0
 26 27  1  0
 27 28  1  0
 26 29  2  0
 29 30  1  0
 30 31  1  0
 29  3  1  0
 23 10  2  0
 22 12  1  0
M  END
>  <Binding energies>  (51) 
[-7.04]

>  <Ligand effiencies>  (51) 
[-0.20705882352941177]

>  <Interactions>  (51) 
["V-B:LEU:363:CD1:8159, V-B:TYR:531:CZ:9765, V-B:LEU:363:CA:8155, V-B:TYR:531:CE2:9764, V-B:TYR:539:CD2:9845, V-B:MET:535:CE:9806, V-B:TYR:539:C:9838, V-B:ASP:366:CG:8183, V-B:TYR:539:CE2:9847, V-B:ASP:366:CB:8182, V-B:MET:535:CG:9804, H-B:TYR:539:N:9841, V-B:PRO:540:CA:9854, V-B:PRO:540:CB:9856, V-B:ILE:538:CD1:9836, V-B:PRO:540:N:9855, V-B:PRO:540:CD:9858, V-B:GLU:543:CD:9879, V-A:ARG:545:CZ:4925, H-A:GLY:454:N:4049, H-A:TYR:484:OH:4347, H-A:ARG:545:NH1:4926, V-A:ILE:369:CD1:3238, H-A:ARG:545:NH2:4927, V-A:ARG:545:CD:4922, V-B:ALA:541:CB:9863, V-B:ILE:538:CA:9831, V-A:GLY:454:CA:4048, V-B:LEU:363:CB:8157, H-A:ARG:545:NE:4923, V-A:ARG:545:CG:4921, V-A:GLY:453:C:4041, V-B:ALA:541:CA:9861, V-A:GLU:543:CD:4907, H-B:GLU:543:OE1:9880, H-B:TYR:539:O:9839, V-A:GLY:453:CA:4043, V-B:ILE:538:C:9829, V-B:ILE:538:CB:9833, H-B:ASP:366:OD1:8184, V-B:ASN:362:C:8142, V-B:TYR:531:CD2:9762, V-B:VAL:537:C:9821, V-B:LEU:363:CG:8158"]

$$$$
4bi_Grossjean_2025
     RDKit          3D

 23 25  0  0  0  0  0  0  0  0999 V2000
  126.6970  122.0450   54.9990 C   0  0  0  0  0  0  0  0  0  0  0  0
  126.4520  122.5740   56.4010 C   0  0  0  0  0  0  0  0  0  0  0  0
  125.3080  123.3070   56.7020 C   0  0  0  0  0  0  0  0  0  0  0  0
  125.0920  123.7860   58.0050 C   0  0  0  0  0  0  0  0  0  0  0  0
  123.8140  124.5810   58.2900 C   0  0  0  0  0  0  0  0  0  0  0  0
  123.0090  124.6740   57.2290 F   0  0  0  0  0  0  0  0  0  0  0  0
  123.1220  123.9900   59.2640 F   0  0  0  0  0  0  0  0  0  0  0  0
  124.1270  125.8220   58.6630 F   0  0  0  0  0  0  0  0  0  0  0  0
  126.0900  123.4910   58.9810 C   0  0  0  0  0  0  0  0  0  0  0  0
  126.2160  123.8100   60.3820 C   0  0  0  0  0  0  0  0  0  0  0  0
  125.2770  124.5420   61.0630 N   0  0  0  0  0  0  0  0  0  0  0  0
  127.3770  123.2990   60.9860 C   0  0  0  0  0  0  0  0  0  0  0  0
  127.8240  123.4430   62.3740 C   0  0  0  0  0  0  0  0  0  0  0  0
  127.1420  123.0040   63.3030 O   0  0  0  0  0  0  0  0  0  0  0  0
  129.0200  124.0610   62.5400 N   0  0  0  0  0  0  0  0  0  0  0  0
  129.6810  124.3160   63.7340 C   0  0  0  0  0  0  0  0  0  0  0  0
  130.4480  125.4600   63.9510 C   0  0  0  0  0  0  0  0  0  0  0  0
  130.9240  125.3350   65.2360 C   0  0  0  0  0  0  0  0  0  0  0  0
  130.4680  124.1750   65.7660 O   0  0  0  0  0  0  0  0  0  0  0  0
  129.6810  123.5380   64.8030 N   0  0  0  0  0  0  0  0  0  0  0  0
  128.3680  122.4240   59.8200 S   0  0  0  0  0  0  0  0  0  0  0  0
  127.2160  122.7300   58.5420 C   0  0  0  0  0  0  0  0  0  0  0  0
  127.4150  122.2760   57.3040 N   0  0  0  0  0  0  0  0  0  0  0  0
  1  2  1  0
  2  3  2  0
  3  4  1  0
  4  5  1  0
  5  6  1  0
  5  7  1  0
  5  8  1  0
  4  9  2  0
  9 10  1  0
 10 11  1  0
 10 12  2  0
 12 13  1  0
 13 14  2  0
 13 15  1  0
 15 16  1  0
 16 17  1  0
 17 18  2  0
 18 19  1  0
 19 20  1  0
 12 21  1  0
 21 22  1  0
 22 23  2  0
 23  2  1  0
 22  9  1  0
 20 16  2  0
M  END
>  <Binding energies>  (52) 
[-6.76]

>  <Ligand effiencies>  (52) 
[-0.26]

>  <Interactions>  (52) 
["V-B:LEU:363:CD1:8159, V-B:TYR:531:CZ:9765, V-B:LEU:363:CA:8155, V-B:TYR:531:CE2:9764, V-B:TYR:539:CD2:9845, V-B:MET:535:CE:9806, V-B:TYR:539:C:9838, V-B:TYR:539:CD1:9844, V-B:ASP:366:CG:8183, V-B:TYR:539:CE2:9847, V-B:ASP:366:CB:8182, V-B:MET:535:CG:9804, H-B:TYR:539:N:9841, V-B:PRO:540:CA:9854, V-B:PRO:540:CB:9856, V-B:ILE:538:CD1:9836, V-B:PRO:540:N:9855, V-B:GLU:543:CD:9879, H-A:TYR:484:OH:4347, V-B:ILE:538:CA:9831, V-B:LEU:363:CB:8157, H-B:GLU:543:OE1:9880, H-B:ALA:541:N:9862, V-B:ILE:538:C:9829, V-B:ILE:538:CB:9833, H-B:ASP:366:OD1:8184, V-B:ASN:362:C:8142, V-B:TYR:531:CD2:9762, V-B:VAL:537:C:9821, V-B:LEU:363:CG:8158"]

$$$$
4bj_Grossjean_2025
     RDKit          3D

 23 25  0  0  0  0  0  0  0  0999 V2000
  126.2870  122.0620   54.6220 C   0  0  0  0  0  0  0  0  0  0  0  0
  126.1280  122.5860   56.0370 C   0  0  0  0  0  0  0  0  0  0  0  0
  125.0080  123.3280   56.4050 C   0  0  0  0  0  0  0  0  0  0  0  0
  124.8770  123.8120   57.7160 C   0  0  0  0  0  0  0  0  0  0  0  0
  123.6280  124.6270   58.0740 C   0  0  0  0  0  0  0  0  0  0  0  0
  122.7500  124.7030   57.0720 F   0  0  0  0  0  0  0  0  0  0  0  0
  123.0050  124.0660   59.1100 F   0  0  0  0  0  0  0  0  0  0  0  0
  123.9800  125.8720   58.3930 F   0  0  0  0  0  0  0  0  0  0  0  0
  125.9270  123.5080   58.6330 C   0  0  0  0  0  0  0  0  0  0  0  0
  126.1400  123.8280   60.0240 C   0  0  0  0  0  0  0  0  0  0  0  0
  125.2500  124.5700   60.7580 N   0  0  0  0  0  0  0  0  0  0  0  0
  127.3300  123.3070   60.5560 C   0  0  0  0  0  0  0  0  0  0  0  0
  127.8590  123.4460   61.9150 C   0  0  0  0  0  0  0  0  0  0  0  0
  127.3700  124.2600   62.7030 O   0  0  0  0  0  0  0  0  0  0  0  0
  128.8890  122.6210   62.2270 N   0  0  0  0  0  0  0  0  0  0  0  0
  129.5580  122.5440   63.4400 C   0  0  0  0  0  0  0  0  0  0  0  0
  129.0410  122.5460   64.6500 N   0  0  0  0  0  0  0  0  0  0  0  0
  129.9740  122.4530   65.5760 C   0  0  0  0  0  0  0  0  0  0  0  0
  131.2860  122.3740   65.1220 C   0  0  0  0  0  0  0  0  0  0  0  0
  131.2880  122.4280   63.3840 S   0  0  0  0  0  0  0  0  0  0  0  0
  128.2400  122.4190   59.3370 S   0  0  0  0  0  0  0  0  0  0  0  0
  127.0170  122.7340   58.1290 C   0  0  0  0  0  0  0  0  0  0  0  0
  127.1390  122.2790   56.8820 N   0  0  0  0  0  0  0  0  0  0  0  0
  1  2  1  0
  2  3  2  0
  3  4  1  0
  4  5  1  0
  5  6  1  0
  5  7  1  0
  5  8  1  0
  4  9  2  0
  9 10  1  0
 10 11  1  0
 10 12  2  0
 12 13  1  0
 13 14  2  0
 13 15  1  0
 15 16  1  0
 16 17  2  0
 17 18  1  0
 18 19  2  0
 19 20  1  0
 12 21  1  0
 21 22  1  0
 22 23  2  0
 23  2  1  0
 22  9  1  0
 20 16  1  0
M  END
>  <Binding energies>  (53) 
[-6.18]

>  <Ligand effiencies>  (53) 
[-0.23769230769230767]

>  <Interactions>  (53) 
["V-B:LEU:363:CD1:8159, V-B:TYR:531:CZ:9765, V-B:LEU:363:CA:8155, V-B:TYR:531:CE2:9764, V-B:TYR:539:CD2:9845, V-B:MET:535:CE:9806, V-B:TYR:539:C:9838, V-B:ASP:366:CG:8183, V-B:TYR:539:CE2:9847, V-B:ASP:366:CB:8182, V-B:ILE:538:CG2:9834, V-B:MET:535:CG:9804, H-B:TYR:539:N:9841, V-B:PRO:540:CA:9854, V-B:PRO:540:CB:9856, V-B:ILE:538:CD1:9836, V-B:PRO:540:N:9855, V-A:LEU:475:CD2:4258, V-B:ALA:541:CB:9863, V-B:ILE:538:CA:9831, V-B:LEU:363:CB:8157, V-A:TYR:484:CZ:4346, V-A:LEU:475:CD1:4257, V-A:TYR:484:CE2:4345, H-B:TYR:539:O:9839, V-B:ILE:538:C:9829, V-B:ILE:538:CB:9833, H-B:ASP:366:OD1:8184, V-A:LEU:475:CG:4256, V-B:ASN:362:C:8142, V-B:ILE:538:CG1:9835, V-B:LEU:363:C:8153, V-B:TYR:531:CD2:9762, V-B:VAL:537:C:9821, V-B:LEU:363:CG:8158"]

$$$$
4bk_Grossjean_2025
     RDKit          3D

 28 29  0  0  0  0  0  0  0  0999 V2000
  132.7230  126.0340   57.1890 C   0  0  0  0  0  0  0  0  0  0  0  0
  132.9050  124.9190   58.0470 O   0  0  0  0  0  0  0  0  0  0  0  0
  131.8030  124.6860   58.9150 C   0  0  0  0  0  0  0  0  0  0  0  0
  132.2890  123.9660   60.1790 C   0  0  0  0  0  0  0  0  0  0  0  0
  131.3620  122.9480   60.5290 O   0  0  0  0  0  0  0  0  0  0  0  0
  131.9540  121.6690   60.7100 C   0  0  0  0  0  0  0  0  0  0  0  0
  132.2530  121.4520   62.1990 C   0  0  0  0  0  0  0  0  0  0  0  0
  131.8450  122.5980   62.9320 O   0  0  0  0  0  0  0  0  0  0  0  0
  131.0020  122.3030   64.0400 C   0  0  0  0  0  0  0  0  0  0  0  0
  129.7220  123.1510   63.9470 C   0  0  0  0  0  0  0  0  0  0  0  0
  129.0920  123.1200   62.6260 N   0  0  0  0  0  0  0  0  0  0  0  0
  127.7730  123.2800   62.3880 C   0  0  0  0  0  0  0  0  0  0  0  0
  126.9600  123.4920   63.2900 O   0  0  0  0  0  0  0  0  0  0  0  0
  127.3570  123.1970   60.9870 C   0  0  0  0  0  0  0  0  0  0  0  0
  128.3500  122.3270   59.8210 S   0  0  0  0  0  0  0  0  0  0  0  0
  127.2150  122.6670   58.5360 C   0  0  0  0  0  0  0  0  0  0  0  0
  127.4240  122.2370   57.2920 N   0  0  0  0  0  0  0  0  0  0  0  0
  126.4740  122.5600   56.3840 C   0  0  0  0  0  0  0  0  0  0  0  0
  126.7310  122.0580   54.9750 C   0  0  0  0  0  0  0  0  0  0  0  0
  125.3320  123.2970   56.6880 C   0  0  0  0  0  0  0  0  0  0  0  0
  125.1070  123.7550   57.9950 C   0  0  0  0  0  0  0  0  0  0  0  0
  123.8380  124.5650   58.2800 C   0  0  0  0  0  0  0  0  0  0  0  0
  123.0360  124.6700   57.2180 F   0  0  0  0  0  0  0  0  0  0  0  0
  123.1380  123.9800   59.2520 F   0  0  0  0  0  0  0  0  0  0  0  0
  124.1660  125.8000   58.6550 F   0  0  0  0  0  0  0  0  0  0  0  0
  126.0890  123.4290   58.9780 C   0  0  0  0  0  0  0  0  0  0  0  0
  126.1980  123.7130   60.3870 C   0  0  0  0  0  0  0  0  0  0  0  0
  125.2520  124.4270   61.0760 N   0  0  0  0  0  0  0  0  0  0  0  0
  1  2  1  0
  2  3  1  0
  3  4  1  0
  4  5  1  0
  5  6  1  0
  6  7  1  0
  7  8  1  0
  8  9  1  0
  9 10  1  0
 10 11  1  0
 11 12  1  0
 12 13  2  0
 12 14  1  0
 14 15  1  0
 15 16  1  0
 16 17  2  0
 17 18  1  0
 18 19  1  0
 18 20  2  0
 20 21  1  0
 21 22  1  0
 22 23  1  0
 22 24  1  0
 22 25  1  0
 21 26  2  0
 26 27  1  0
 27 28  1  0
 27 14  2  0
 26 16  1  0
M  END
>  <Binding energies>  (54) 
[-5.5]

>  <Ligand effiencies>  (54) 
[-0.1774193548387097]

>  <Interactions>  (54) 
["V-B:LEU:363:CD1:8159, V-B:TYR:531:CZ:9765, V-B:LEU:363:CA:8155, V-B:TYR:539:CZ:9848, V-B:TYR:531:CE2:9764, V-B:TYR:539:CD2:9845, V-B:MET:535:CE:9806, V-B:TYR:539:C:9838, V-B:TYR:539:CD1:9844, V-B:ASP:366:CG:8183, V-B:TYR:539:CE2:9847, V-B:ASP:366:CB:8182, V-B:MET:535:CG:9804, H-B:TYR:539:N:9841, V-B:PRO:540:CA:9854, V-B:PRO:540:CB:9856, V-B:ILE:538:CD1:9836, V-B:PRO:540:N:9855, V-A:LEU:475:CD2:4258, V-B:ILE:538:CA:9831, V-B:LEU:363:CB:8157, H-B:GLU:543:OE1:9880, V-A:ASP:366:CB:3211, V-A:ASP:366:CA:3209, V-A:ASP:366:C:3207, H-B:TYR:539:OH:9849, V-A:TYR:531:CE1:4791, V-B:PRO:540:C:9852, H-B:ALA:541:N:9862, V-B:ILE:538:C:9829, V-B:ILE:538:CB:9833, H-B:ASP:366:OD1:8184, V-B:ASN:362:C:8142, V-B:TYR:531:CD2:9762, V-B:VAL:537:C:9821, V-B:LEU:363:CG:8158"]

$$$$
4cd_Grossjean_2025
     RDKit          3D

 29 32  0  0  0  0  0  0  0  0999 V2000
  132.7820  126.0200   62.8510 N   0  0  0  0  0  0  0  0  0  0  0  0
  132.2300  124.8730   63.3640 C   0  0  0  0  0  0  0  0  0  0  0  0
  131.7270  124.7800   64.6710 C   0  0  0  0  0  0  0  0  0  0  0  0
  131.6980  125.8100   65.7150 C   0  0  0  0  0  0  0  0  0  0  0  0
  132.7310  126.1450   66.2950 O   0  0  0  0  0  0  0  0  0  0  0  0
  130.4790  126.3470   65.9670 N   0  0  0  0  0  0  0  0  0  0  0  0
  130.1030  127.3050   66.9270 C   0  0  0  0  0  0  0  0  0  0  0  0
  129.0710  128.1710   66.5550 C   0  0  0  0  0  0  0  0  0  0  0  0
  128.6180  129.1450   67.4410 C   0  0  0  0  0  0  0  0  0  0  0  0
  129.1930  129.2490   68.7050 C   0  0  0  0  0  0  0  0  0  0  0  0
  130.2130  128.3840   69.0930 C   0  0  0  0  0  0  0  0  0  0  0  0
  130.6690  127.4080   68.2090 C   0  0  0  0  0  0  0  0  0  0  0  0
  131.0840  123.1710   64.9920 S   0  0  0  0  0  0  0  0  0  0  0  0
  131.5020  122.6340   63.3830 C   0  0  0  0  0  0  0  0  0  0  0  0
  131.2500  121.3910   62.9780 N   0  0  0  0  0  0  0  0  0  0  0  0
  131.6240  121.0620   61.7140 C   0  0  0  0  0  0  0  0  0  0  0  0
  131.3300  119.6530   61.2870 C   0  0  0  0  0  0  0  0  0  0  0  0
  130.1760  118.9910   61.7380 C   0  0  0  0  0  0  0  0  0  0  0  0
  129.8970  117.6850   61.3450 C   0  0  0  0  0  0  0  0  0  0  0  0
  130.7710  117.0200   60.4930 C   0  0  0  0  0  0  0  0  0  0  0  0
  131.9190  117.6530   60.0290 C   0  0  0  0  0  0  0  0  0  0  0  0
  132.1930  118.9590   60.4210 C   0  0  0  0  0  0  0  0  0  0  0  0
  132.2280  121.9870   60.8570 C   0  0  0  0  0  0  0  0  0  0  0  0
  132.4940  123.3020   61.2730 C   0  0  0  0  0  0  0  0  0  0  0  0
  133.1630  124.2630   60.2840 C   0  0  0  0  0  0  0  0  0  0  0  0
  133.3930  123.7100   59.0900 F   0  0  0  0  0  0  0  0  0  0  0  0
  132.3820  125.3250   60.0880 F   0  0  0  0  0  0  0  0  0  0  0  0
  134.3380  124.6640   60.7700 F   0  0  0  0  0  0  0  0  0  0  0  0
  132.1180  123.6540   62.6010 C   0  0  0  0  0  0  0  0  0  0  0  0
  1  2  1  0
  2  3  2  0
  3  4  1  0
  4  5  2  0
  4  6  1  0
  6  7  1  0
  7  8  2  0
  8  9  1  0
  9 10  2  0
 10 11  1  0
 11 12  2  0
  3 13  1  0
 13 14  1  0
 14 15  2  0
 15 16  1  0
 16 17  1  0
 17 18  2  0
 18 19  1  0
 19 20  2  0
 20 21  1  0
 21 22  2  0
 16 23  2  0
 23 24  1  0
 24 25  1  0
 25 26  1  0
 25 27  1  0
 25 28  1  0
 24 29  2  0
 29  2  1  0
 12  7  1  0
 29 14  1  0
 22 17  1  0
M  END
>  <Binding energies>  (55) 
[-7.93]

>  <Ligand effiencies>  (55) 
[-0.2478125]

>  <Interactions>  (55) 
["V-B:TYR:539:CZ:9848, V-A:ASP:366:CG:3212, V-B:TYR:539:CD2:9845, V-B:TYR:539:C:9838, V-B:TYR:539:CE2:9847, H-A:ASP:366:OD1:3213, V-B:GLU:543:CD:9879, V-A:ARG:545:CZ:4925, H-A:TYR:484:OH:4347, V-A:ILE:369:CD1:3238, H-A:ASP:366:OD2:3214, V-A:LEU:475:CD2:4258, V-B:ALA:541:CB:9863, V-A:HIS:383:CE1:3393, V-A:ILE:369:CG2:3236, V-B:TYR:539:CB:9842, H-A:ARG:545:NE:4923, V-A:TYR:484:CZ:4346, V-A:TYR:484:CE2:4345, V-A:GLU:543:CD:4907, H-B:GLU:543:OE2:9881, V-A:GLU:543:CG:4906, V-A:ASP:366:CB:3211, V-A:ASP:366:CA:3209, V-B:VAL:344:CG1:7971, V-A:ILE:369:CB:3235, V-A:ILE:369:CG1:3237, V-A:HIS:456:CE1:4069, V-B:HIS:456:CE1:9040, V-A:PRO:482:CG:4326, V-A:PRO:482:CB:4325, V-A:GLU:543:CB:4905"]

$$$$
4cg_Grossjean_2025
     RDKit          3D

 30 33  0  0  0  0  0  0  0  0999 V2000
  129.1870  125.5370   63.6220 N   0  0  0  0  0  0  0  0  0  0  0  0
  130.1790  124.5970   63.7260 C   0  0  0  0  0  0  0  0  0  0  0  0
  131.2560  124.7120   64.6160 C   0  0  0  0  0  0  0  0  0  0  0  0
  131.5180  125.7620   65.6000 C   0  0  0  0  0  0  0  0  0  0  0  0
  132.5500  126.4350   65.5620 O   0  0  0  0  0  0  0  0  0  0  0  0
  130.5860  125.9150   66.5640 N   0  0  0  0  0  0  0  0  0  0  0  0
  130.6280  126.9120   67.6330 C   0  0  0  0  0  0  0  0  0  0  0  0
  129.2770  127.5630   67.9080 C   0  0  0  0  0  0  0  0  0  0  0  0
  128.4080  126.9910   68.8420 C   0  0  0  0  0  0  0  0  0  0  0  0
  127.1870  127.5990   69.1190 C   0  0  0  0  0  0  0  0  0  0  0  0
  126.8430  128.7830   68.4700 C   0  0  0  0  0  0  0  0  0  0  0  0
  127.7120  129.3670   67.5510 C   0  0  0  0  0  0  0  0  0  0  0  0
  128.9340  128.7600   67.2740 C   0  0  0  0  0  0  0  0  0  0  0  0
  132.3330  123.3220   64.5060 S   0  0  0  0  0  0  0  0  0  0  0  0
  131.3460  122.6070   63.2520 C   0  0  0  0  0  0  0  0  0  0  0  0
  131.6650  121.4390   62.7010 N   0  0  0  0  0  0  0  0  0  0  0  0
  130.8360  120.9580   61.7370 C   0  0  0  0  0  0  0  0  0  0  0  0
  131.2240  119.6390   61.1330 C   0  0  0  0  0  0  0  0  0  0  0  0
  132.3800  119.5190   60.3440 C   0  0  0  0  0  0  0  0  0  0  0  0
  132.7430  118.2990   59.7810 C   0  0  0  0  0  0  0  0  0  0  0  0
  131.9510  117.1760   59.9980 C   0  0  0  0  0  0  0  0  0  0  0  0
  130.8000  117.2660   60.7720 C   0  0  0  0  0  0  0  0  0  0  0  0
  130.4410  118.4880   61.3330 C   0  0  0  0  0  0  0  0  0  0  0  0
  129.7020  121.6640   61.3200 C   0  0  0  0  0  0  0  0  0  0  0  0
  129.3570  122.8970   61.8950 C   0  0  0  0  0  0  0  0  0  0  0  0
  128.1010  123.6180   61.3900 C   0  0  0  0  0  0  0  0  0  0  0  0
  128.3530  124.8380   60.9140 F   0  0  0  0  0  0  0  0  0  0  0  0
  127.5410  122.9120   60.4070 F   0  0  0  0  0  0  0  0  0  0  0  0
  127.2270  123.7520   62.3870 F   0  0  0  0  0  0  0  0  0  0  0  0
  130.2110  123.4030   62.9170 C   0  0  0  0  0  0  0  0  0  0  0  0
  1  2  1  0
  2  3  2  0
  3  4  1  0
  4  5  2  0
  4  6  1  0
  6  7  1  0
  7  8  1  0
  8  9  2  0
  9 10  1  0
 10 11  2  0
 11 12  1  0
 12 13  2  0
  3 14  1  0
 14 15  1  0
 15 16  2  0
 16 17  1  0
 17 18  1  0
 18 19  2  0
 19 20  1  0
 20 21  2  0
 21 22  1  0
 22 23  2  0
 17 24  2  0
 24 25  1  0
 25 26  1  0
 26 27  1  0
 26 28  1  0
 26 29  1  0
 25 30  2  0
 30  2  1  0
 13  8  1  0
 30 15  1  0
 23 18  1  0
M  END
>  <Binding energies>  (56) 
[-8.07]

>  <Ligand effiencies>  (56) 
[-0.24454545454545457]

>  <Interactions>  (56) 
["V-B:TYR:539:CD2:9845, V-B:TYR:539:CE2:9847, V-B:PRO:540:CA:9854, V-B:PRO:540:CB:9856, V-B:PRO:540:N:9855, V-B:GLU:543:CD:9879, H-A:TYR:484:OH:4347, H-A:ARG:545:NH2:4927, V-A:LEU:475:CD2:4258, V-B:ALA:541:CB:9863, V-A:HIS:383:CE1:3393, V-A:GLY:454:CA:4048, H-A:ARG:545:NE:4923, V-A:GLU:543:CD:4907, H-B:GLU:543:OE2:9881, V-A:GLU:543:CG:4906, H-B:GLU:543:OE1:9880, V-B:PRO:540:C:9852, V-B:GLU:543:CB:9877, V-A:HIS:456:CE1:4069, V-B:HIS:456:CE1:9040, V-A:PRO:482:CG:4326, V-A:PRO:482:CB:4325, V-A:GLU:543:CB:4905"]

$$$$
4ch_Grossjean_2025
     RDKit          3D

 36 39  0  0  0  0  0  0  0  0999 V2000
  127.9030  130.6270   65.5020 C   0  0  0  0  0  0  0  0  0  0  0  0
  127.2360  130.1530   66.6670 O   0  0  0  0  0  0  0  0  0  0  0  0
  127.7570  129.0720   67.3540 C   0  0  0  0  0  0  0  0  0  0  0  0
  129.0180  128.5110   67.0940 C   0  0  0  0  0  0  0  0  0  0  0  0
  129.4820  127.4200   67.8290 C   0  0  0  0  0  0  0  0  0  0  0  0
  130.8410  126.8070   67.5130 C   0  0  0  0  0  0  0  0  0  0  0  0
  130.8250  125.8450   66.4100 N   0  0  0  0  0  0  0  0  0  0  0  0
  131.8070  125.6790   65.5000 C   0  0  0  0  0  0  0  0  0  0  0  0
  132.8560  126.3250   65.5320 O   0  0  0  0  0  0  0  0  0  0  0  0
  131.5720  124.6530   64.4840 C   0  0  0  0  0  0  0  0  0  0  0  0
  132.7800  123.4050   64.1940 S   0  0  0  0  0  0  0  0  0  0  0  0
  131.7800  122.6590   62.9720 C   0  0  0  0  0  0  0  0  0  0  0  0
  132.1810  121.5740   62.3130 N   0  0  0  0  0  0  0  0  0  0  0  0
  131.3320  121.0610   61.3840 C   0  0  0  0  0  0  0  0  0  0  0  0
  131.8170  119.8410   60.6550 C   0  0  0  0  0  0  0  0  0  0  0  0
  131.0830  118.6440   60.6890 C   0  0  0  0  0  0  0  0  0  0  0  0
  131.5270  117.5090   60.0160 C   0  0  0  0  0  0  0  0  0  0  0  0
  132.7160  117.5540   59.2970 C   0  0  0  0  0  0  0  0  0  0  0  0
  133.4650  118.7250   59.2490 C   0  0  0  0  0  0  0  0  0  0  0  0
  133.0180  119.8570   59.9260 C   0  0  0  0  0  0  0  0  0  0  0  0
  130.0950  121.6500   61.1090 C   0  0  0  0  0  0  0  0  0  0  0  0
  129.6620  122.7960   61.7970 C   0  0  0  0  0  0  0  0  0  0  0  0
  128.2940  123.3910   61.4460 C   0  0  0  0  0  0  0  0  0  0  0  0
  127.4360  123.3710   62.4690 F   0  0  0  0  0  0  0  0  0  0  0  0
  128.4360  124.6600   61.0690 F   0  0  0  0  0  0  0  0  0  0  0  0
  127.7420  122.6970   60.4500 F   0  0  0  0  0  0  0  0  0  0  0  0
  130.5380  123.3340   62.7820 C   0  0  0  0  0  0  0  0  0  0  0  0
  130.4430  124.4670   63.6710 C   0  0  0  0  0  0  0  0  0  0  0  0
  129.3480  125.2920   63.7090 N   0  0  0  0  0  0  0  0  0  0  0  0
  128.6750  126.8680   68.8250 C   0  0  0  0  0  0  0  0  0  0  0  0
  127.4090  127.4080   69.1060 C   0  0  0  0  0  0  0  0  0  0  0  0
  126.5590  126.9140   70.0790 O   0  0  0  0  0  0  0  0  0  0  0  0
  127.0940  126.5010   71.3320 C   0  0  0  0  0  0  0  0  0  0  0  0
  126.9650  128.5140   68.3680 C   0  0  0  0  0  0  0  0  0  0  0  0
  125.7230  129.0430   68.6220 O   0  0  0  0  0  0  0  0  0  0  0  0
  124.7760  128.8210   67.5860 C   0  0  0  0  0  0  0  0  0  0  0  0
  1  2  1  0
  2  3  1  0
  3  4  2  0
  4  5  1  0
  5  6  1  0
  6  7  1  0
  7  8  1  0
  8  9  2  0
  8 10  1  0
 10 11  1  0
 11 12  1  0
 12 13  2  0
 13 14  1  0
 14 15  1  0
 15 16  2  0
 16 17  1  0
 17 18  2  0
 18 19  1  0
 19 20  2  0
 14 21  2  0
 21 22  1  0
 22 23  1  0
 23 24  1  0
 23 25  1  0
 23 26  1  0
 22 27  2  0
 27 28  1  0
 28 29  1  0
  5 30  2  0
 30 31  1  0
 31 32  1  0
 32 33  1  0
 31 34  2  0
 34 35  1  0
 35 36  1  0
 34  3  1  0
 28 10  2  0
 27 12  1  0
 20 15  1  0
M  END
>  <Binding energies>  (57) 
[-7.84]

>  <Ligand effiencies>  (57) 
[-0.20102564102564102]

>  <Interactions>  (57) 
["V-B:TYR:539:CD2:9845, V-B:TYR:539:C:9838, V-B:TYR:539:CE2:9847, V-B:PRO:540:CA:9854, V-B:PRO:540:N:9855, V-B:GLU:543:CD:9879, H-A:TYR:484:OH:4347, H-A:ARG:545:NH2:4927, V-A:LEU:475:CD2:4258, V-A:HIS:383:CE1:3393, V-A:ILE:369:CG2:3236, V-A:SER:385:CA:3406, V-B:TYR:539:CB:9842, V-A:GLY:454:CA:4048, H-A:ARG:545:NE:4923, V-A:GLU:543:CD:4907, H-B:GLU:543:OE2:9881, V-A:GLU:543:CG:4906, H-B:GLU:543:OE1:9880, H-B:TYR:484:OH:9318, V-B:PRO:540:C:9852, V-B:GLU:543:CB:9877, V-B:GLU:543:C:9873, V-A:HIS:456:CE1:4069, V-B:GLY:544:C:9883, V-B:HIS:456:CE1:9040, V-A:LEU:373:CD1:3279, V-A:VAL:384:C:3396, V-A:LEU:373:CG:3278, V-A:LEU:373:CD2:3280, V-B:ARG:545:CG:9893, V-A:GLU:543:CB:4905, V-B:ARG:545:CD:9894, H-B:HIS:456:ND1:9037, H-B:ARG:545:N:9891"]

$$$$
4cj_Grossjean_2025
     RDKit          3D

 28 31  0  0  0  0  0  0  0  0999 V2000
  132.0700  125.4300   61.5500 N   0  0  0  0  0  0  0  0  0  0  0  0
  130.8800  124.7520   61.6240 C   0  0  0  0  0  0  0  0  0  0  0  0
  130.3410  124.2750   62.8300 C   0  0  0  0  0  0  0  0  0  0  0  0
  130.8850  124.3930   64.1850 C   0  0  0  0  0  0  0  0  0  0  0  0
  130.4010  123.7480   65.1180 O   0  0  0  0  0  0  0  0  0  0  0  0
  131.9260  125.2530   64.3210 N   0  0  0  0  0  0  0  0  0  0  0  0
  132.6170  125.5460   65.4880 C   0  0  0  0  0  0  0  0  0  0  0  0
  133.9040  125.3970   65.7230 N   0  0  0  0  0  0  0  0  0  0  0  0
  134.2210  125.7810   66.9440 C   0  0  0  0  0  0  0  0  0  0  0  0
  133.1760  126.2560   67.7310 C   0  0  0  0  0  0  0  0  0  0  0  0
  131.7010  126.1940   66.8110 S   0  0  0  0  0  0  0  0  0  0  0  0
  128.7990  123.4640   62.5620 S   0  0  0  0  0  0  0  0  0  0  0  0
  128.8890  123.7670   60.8420 C   0  0  0  0  0  0  0  0  0  0  0  0
  127.9280  123.3640   60.0160 N   0  0  0  0  0  0  0  0  0  0  0  0
  128.0800  123.6510   58.6970 C   0  0  0  0  0  0  0  0  0  0  0  0
  126.9710  123.1940   57.7930 C   0  0  0  0  0  0  0  0  0  0  0  0
  127.2520  122.4870   56.6130 C   0  0  0  0  0  0  0  0  0  0  0  0
  126.2280  122.0650   55.7680 C   0  0  0  0  0  0  0  0  0  0  0  0
  124.9050  122.3490   56.0910 C   0  0  0  0  0  0  0  0  0  0  0  0
  124.6000  123.0490   57.2530 C   0  0  0  0  0  0  0  0  0  0  0  0
  125.6260  123.4670   58.0960 C   0  0  0  0  0  0  0  0  0  0  0  0
  129.2100  124.3180   58.2130 C   0  0  0  0  0  0  0  0  0  0  0  0
  130.2320  124.7460   59.0760 C   0  0  0  0  0  0  0  0  0  0  0  0
  131.4400  125.4750   58.4780 C   0  0  0  0  0  0  0  0  0  0  0  0
  131.6100  126.7020   58.9750 F   0  0  0  0  0  0  0  0  0  0  0  0
  132.5520  124.7850   58.7310 F   0  0  0  0  0  0  0  0  0  0  0  0
  131.2880  125.5960   57.1590 F   0  0  0  0  0  0  0  0  0  0  0  0
  130.0720  124.4670   60.4630 C   0  0  0  0  0  0  0  0  0  0  0  0
  1  2  1  0
  2  3  2  0
  3  4  1  0
  4  5  2  0
  4  6  1  0
  6  7  1  0
  7  8  2  0
  8  9  1  0
  9 10  2  0
 10 11  1  0
  3 12  1  0
 12 13  1  0
 13 14  2  0
 14 15  1  0
 15 16  1  0
 16 17  2  0
 17 18  1  0
 18 19  2  0
 19 20  1  0
 20 21  2  0
 15 22  2  0
 22 23  1  0
 23 24  1  0
 24 25  1  0
 24 26  1  0
 24 27  1  0
 23 28  2  0
 28  2  1  0
 11  7  1  0
 28 13  1  0
 21 16  1  0
M  END
>  <Binding energies>  (58) 
[-7.63]

>  <Ligand effiencies>  (58) 
[-0.2461290322580645]

>  <Interactions>  (58) 
["V-B:LEU:363:CD1:8159, V-B:TYR:539:CZ:9848, V-B:TYR:531:CE2:9764, V-A:ASP:366:CG:3212, V-B:MET:535:CE:9806, V-B:TYR:539:C:9838, V-B:TYR:539:CD1:9844, V-B:TYR:539:CG:9843, V-B:TYR:539:CE2:9847, V-B:ILE:538:CG2:9834, V-B:PRO:540:CA:9854, V-B:PRO:540:CB:9856, V-B:ILE:538:CD1:9836, V-B:PRO:540:N:9855, V-B:PRO:540:CD:9858, V-B:PRO:540:CG:9857, H-A:ASP:366:OD1:3213, V-A:ARG:545:CZ:4925, H-A:GLY:454:N:4049, H-A:TYR:484:OH:4347, V-A:ARG:545:CD:4922, H-A:ASP:366:OD2:3214, V-B:ILE:538:CA:9831, H-A:ARG:545:NE:4923, V-A:ARG:545:CG:4921, V-A:TYR:484:CZ:4346, V-A:ASP:366:CB:3211, V-A:HIS:456:CE1:4069, V-B:ILE:538:C:9829"]

$$$$
4ck_Grossjean_2025
     RDKit          3D

 33 35  0  0  0  0  0  0  0  0999 V2000
  128.8370  125.0700   57.7520 C   0  0  0  0  0  0  0  0  0  0  0  0
  127.6300  124.3510   57.5450 O   0  0  0  0  0  0  0  0  0  0  0  0
  127.8360  122.9790   57.2360 C   0  0  0  0  0  0  0  0  0  0  0  0
  126.6050  122.4430   56.4940 C   0  0  0  0  0  0  0  0  0  0  0  0
  125.6500  123.4870   56.3650 O   0  0  0  0  0  0  0  0  0  0  0  0
  124.5320  123.3430   57.2310 C   0  0  0  0  0  0  0  0  0  0  0  0
  124.3540  124.6330   58.0420 C   0  0  0  0  0  0  0  0  0  0  0  0
  125.3600  125.5600   57.6530 O   0  0  0  0  0  0  0  0  0  0  0  0
  125.0670  126.9060   58.0030 C   0  0  0  0  0  0  0  0  0  0  0  0
  125.5450  127.1810   59.4370 C   0  0  0  0  0  0  0  0  0  0  0  0
  126.4000  126.1080   59.9470 N   0  0  0  0  0  0  0  0  0  0  0  0
  126.5820  125.7930   61.2460 C   0  0  0  0  0  0  0  0  0  0  0  0
  126.0050  126.3830   62.1610 O   0  0  0  0  0  0  0  0  0  0  0  0
  127.5080  124.6920   61.5130 C   0  0  0  0  0  0  0  0  0  0  0  0
  127.6110  123.3340   60.3960 S   0  0  0  0  0  0  0  0  0  0  0  0
  128.8720  122.5900   61.3490 C   0  0  0  0  0  0  0  0  0  0  0  0
  129.4210  121.4310   60.9920 N   0  0  0  0  0  0  0  0  0  0  0  0
  130.3950  120.9290   61.7970 C   0  0  0  0  0  0  0  0  0  0  0  0
  131.0060  119.6310   61.3570 C   0  0  0  0  0  0  0  0  0  0  0  0
  130.3490  118.4110   61.5880 C   0  0  0  0  0  0  0  0  0  0  0  0
  130.9120  117.2030   61.1840 C   0  0  0  0  0  0  0  0  0  0  0  0
  132.1450  117.1970   60.5410 C   0  0  0  0  0  0  0  0  0  0  0  0
  132.8150  118.3900   60.2950 C   0  0  0  0  0  0  0  0  0  0  0  0
  132.2480  119.5970   60.6990 C   0  0  0  0  0  0  0  0  0  0  0  0
  130.8170  121.5980   62.9500 C   0  0  0  0  0  0  0  0  0  0  0  0
  130.2440  122.8200   63.3370 C   0  0  0  0  0  0  0  0  0  0  0  0
  130.7530  123.4970   64.6150 C   0  0  0  0  0  0  0  0  0  0  0  0
  129.8300  123.5610   65.5760 F   0  0  0  0  0  0  0  0  0  0  0  0
  131.7910  122.8180   65.1030 F   0  0  0  0  0  0  0  0  0  0  0  0
  131.1330  124.7450   64.3430 F   0  0  0  0  0  0  0  0  0  0  0  0
  129.2210  123.3540   62.5020 C   0  0  0  0  0  0  0  0  0  0  0  0
  128.4270  124.5570   62.5650 C   0  0  0  0  0  0  0  0  0  0  0  0
  128.5600  125.4830   63.5680 N   0  0  0  0  0  0  0  0  0  0  0  0
  1  2  1  0
  2  3  1  0
  3  4  1  0
  4  5  1  0
  5  6  1  0
  6  7  1  0
  7  8  1  0
  8  9  1  0
  9 10  1  0
 10 11  1  0
 11 12  1  0
 12 13  2  0
 12 14  1  0
 14 15  1  0
 15 16  1  0
 16 17  2  0
 17 18  1  0
 18 19  1  0
 19 20  2  0
 20 21  1  0
 21 22  2  0
 22 23  1  0
 23 24  2  0
 18 25  2  0
 25 26  1  0
 26 27  1  0
 27 28  1  0
 27 29  1  0
 27 30  1  0
 26 31  2  0
 31 32  1  0
 32 33  1  0
 32 14  2  0
 31 16  1  0
 24 19  1  0
M  END
>  <Binding energies>  (59) 
[-5.91]

>  <Ligand effiencies>  (59) 
[-0.16416666666666668]

>  <Interactions>  (59) 
["V-B:LEU:363:CD1:8159, V-B:TYR:531:CZ:9765, V-B:TYR:539:CZ:9848, V-B:TYR:531:CE2:9764, H-B:TYR:531:OH:9766, V-B:TYR:539:CD2:9845, V-B:MET:535:CE:9806, V-B:TYR:539:CE1:9846, V-B:TYR:539:C:9838, V-B:ASP:366:CG:8183, V-B:TYR:539:CG:9843, V-B:TYR:539:CE2:9847, V-B:ASP:366:CB:8182, V-B:PRO:540:CA:9854, V-B:PRO:540:CB:9856, V-B:PRO:540:N:9855, V-B:PRO:540:CD:9858, V-B:GLU:543:CD:9879, H-B:ARG:545:NH2:9899, V-B:GLU:543:CG:9878, V-A:LEU:475:CD2:4258, V-B:ALA:541:CB:9863, V-A:HIS:383:CE1:3393, V-A:SER:385:CA:3406, V-A:SER:385:CB:3408, V-A:GLY:454:CA:4048, V-A:TYR:484:CZ:4346, V-A:TYR:484:CE2:4345, H-B:GLU:543:OE2:9881, H-B:GLU:543:OE1:9880, V-A:PRO:482:CG:4326, V-A:PRO:482:CB:4325"]

$$$$
4dd_Grossjean_2025
     RDKit          3D

 26 29  0  0  0  0  0  0  0  0999 V2000
  133.8350  124.2220   60.5080 C   0  0  0  0  0  0  0  0  0  0  0  0
  132.9850  123.2670   61.3340 C   0  0  0  0  0  0  0  0  0  0  0  0
  132.7370  121.9900   60.8180 C   0  0  0  0  0  0  0  0  0  0  0  0
  131.9630  121.0640   61.5290 C   0  0  0  0  0  0  0  0  0  0  0  0
  131.6760  119.6910   60.9980 C   0  0  0  0  0  0  0  0  0  0  0  0
  132.5590  119.0670   60.1020 C   0  0  0  0  0  0  0  0  0  0  0  0
  132.3000  117.7910   59.6080 C   0  0  0  0  0  0  0  0  0  0  0  0
  131.1480  117.1190   60.0030 C   0  0  0  0  0  0  0  0  0  0  0  0
  130.2570  117.7130   60.8900 C   0  0  0  0  0  0  0  0  0  0  0  0
  130.5210  118.9880   61.3840 C   0  0  0  0  0  0  0  0  0  0  0  0
  131.4130  121.3660   62.7370 N   0  0  0  0  0  0  0  0  0  0  0  0
  131.6540  122.5790   63.2320 C   0  0  0  0  0  0  0  0  0  0  0  0
  131.0240  123.0910   64.7810 S   0  0  0  0  0  0  0  0  0  0  0  0
  131.7870  124.6750   64.6210 C   0  0  0  0  0  0  0  0  0  0  0  0
  131.6510  125.6740   65.6830 C   0  0  0  0  0  0  0  0  0  0  0  0
  132.5130  126.5390   65.8450 O   0  0  0  0  0  0  0  0  0  0  0  0
  130.5310  125.5700   66.4380 N   0  0  0  0  0  0  0  0  0  0  0  0
  130.1280  126.3260   67.5540 C   0  0  0  0  0  0  0  0  0  0  0  0
  129.3710  125.6460   68.5120 C   0  0  0  0  0  0  0  0  0  0  0  0
  128.9370  126.3030   69.6600 C   0  0  0  0  0  0  0  0  0  0  0  0
  129.2670  127.6410   69.8560 C   0  0  0  0  0  0  0  0  0  0  0  0
  130.0320  128.3270   68.9160 C   0  0  0  0  0  0  0  0  0  0  0  0
  130.4670  127.6730   67.7660 C   0  0  0  0  0  0  0  0  0  0  0  0
  132.4870  124.7770   63.4090 C   0  0  0  0  0  0  0  0  0  0  0  0
  133.1730  125.9000   63.0160 N   0  0  0  0  0  0  0  0  0  0  0  0
  132.4290  123.5900   62.5980 C   0  0  0  0  0  0  0  0  0  0  0  0
  1  2  1  0
  2  3  2  0
  3  4  1  0
  4  5  1  0
  5  6  2  0
  6  7  1  0
  7  8  2  0
  8  9  1  0
  9 10  2  0
  4 11  2  0
 11 12  1  0
 12 13  1  0
 13 14  1  0
 14 15  1  0
 15 16  2  0
 15 17  1  0
 17 18  1  0
 18 19  2  0
 19 20  1  0
 20 21  2  0
 21 22  1  0
 22 23  2  0
 14 24  2  0
 24 25  1  0
 24 26  1  0
 26  2  1  0
 10  5  1  0
 26 12  2  0
 23 18  1  0
M  END
>  <Binding energies>  (60) 
[-8.83]

>  <Ligand effiencies>  (60) 
[-0.30448275862068963]

>  <Interactions>  (60) 
["V-A:ASP:366:CG:3212, V-B:TYR:539:CD2:9845, V-B:TYR:539:C:9838, V-B:TYR:539:CE2:9847, H-A:ASP:366:OD1:3213, V-B:GLU:543:CD:9879, V-A:ARG:545:CZ:4925, H-A:TYR:484:OH:4347, V-A:ILE:369:CD1:3238, H-A:ARG:545:NH2:4927, H-A:ASP:366:OD2:3214, V-B:GLU:543:CG:9878, V-A:LEU:475:CD2:4258, V-B:ALA:541:CB:9863, V-A:HIS:383:CE1:3393, V-A:ILE:369:CG2:3236, V-B:TYR:539:CB:9842, H-A:ARG:545:NE:4923, V-A:TYR:484:CZ:4346, V-A:TYR:484:CE2:4345, V-A:GLU:543:CD:4907, H-B:GLU:543:OE2:9881, V-A:ASP:366:CB:3211, V-A:ILE:369:CB:3235, V-B:GLU:543:CB:9877, V-A:HIS:456:CE1:4069, V-B:HIS:456:CE1:9040, V-A:PRO:482:CG:4326, V-A:PRO:482:CB:4325, V-A:GLU:543:CB:4905"]

$$$$
4dg_Grossjean_2025
     RDKit          3D

 27 30  0  0  0  0  0  0  0  0999 V2000
  128.1630  123.5810   61.4330 C   0  0  0  0  0  0  0  0  0  0  0  0
  129.4280  122.8640   61.8810 C   0  0  0  0  0  0  0  0  0  0  0  0
  129.7480  121.6460   61.2700 C   0  0  0  0  0  0  0  0  0  0  0  0
  130.8980  120.9370   61.6370 C   0  0  0  0  0  0  0  0  0  0  0  0
  131.2690  119.6280   60.9980 C   0  0  0  0  0  0  0  0  0  0  0  0
  132.4520  119.5000   60.2520 C   0  0  0  0  0  0  0  0  0  0  0  0
  132.7990  118.2910   59.6540 C   0  0  0  0  0  0  0  0  0  0  0  0
  131.9640  117.1880   59.7940 C   0  0  0  0  0  0  0  0  0  0  0  0
  130.7830  117.2870   60.5240 C   0  0  0  0  0  0  0  0  0  0  0  0
  130.4400  118.4980   61.1190 C   0  0  0  0  0  0  0  0  0  0  0  0
  131.7580  121.4040   62.5830 N   0  0  0  0  0  0  0  0  0  0  0  0
  131.4540  122.5630   63.1660 C   0  0  0  0  0  0  0  0  0  0  0  0
  132.4680  123.2720   64.4010 S   0  0  0  0  0  0  0  0  0  0  0  0
  131.3840  124.6530   64.5600 C   0  0  0  0  0  0  0  0  0  0  0  0
  131.6610  125.6950   65.5480 C   0  0  0  0  0  0  0  0  0  0  0  0
  132.7380  126.2930   65.5640 O   0  0  0  0  0  0  0  0  0  0  0  0
  130.6860  125.9250   66.4510 N   0  0  0  0  0  0  0  0  0  0  0  0
  130.7340  126.9310   67.5110 C   0  0  0  0  0  0  0  0  0  0  0  0
  129.3760  127.2100   68.1440 C   0  0  0  0  0  0  0  0  0  0  0  0
  128.5270  128.1650   67.5750 C   0  0  0  0  0  0  0  0  0  0  0  0
  127.2730  128.4000   68.1310 C   0  0  0  0  0  0  0  0  0  0  0  0
  126.8670  127.6730   69.2480 C   0  0  0  0  0  0  0  0  0  0  0  0
  127.7000  126.7080   69.8110 C   0  0  0  0  0  0  0  0  0  0  0  0
  128.9540  126.4720   69.2530 C   0  0  0  0  0  0  0  0  0  0  0  0
  130.2830  124.5390   63.6970 C   0  0  0  0  0  0  0  0  0  0  0  0
  129.2740  125.4650   63.6220 N   0  0  0  0  0  0  0  0  0  0  0  0
  130.3070  123.3570   62.8790 C   0  0  0  0  0  0  0  0  0  0  0  0
  1  2  1  0
  2  3  2  0
  3  4  1  0
  4  5  1  0
  5  6  2  0
  6  7  1  0
  7  8  2  0
  8  9  1  0
  9 10  2  0
  4 11  2  0
 11 12  1  0
 12 13  1  0
 13 14  1  0
 14 15  1  0
 15 16  2  0
 15 17  1  0
 17 18  1  0
 18 19  1  0
 19 20  2  0
 20 21  1  0
 21 22  2  0
 22 23  1  0
 23 24  2  0
 14 25  2  0
 25 26  1  0
 25 27  1  0
 27  2  1  0
 10  5  1  0
 27 12  2  0
 24 19  1  0
M  END
>  <Binding energies>  (61) 
[-8.47]

>  <Ligand effiencies>  (61) 
[-0.2823333333333334]

>  <Interactions>  (61) 
["V-B:TYR:539:CD2:9845, V-B:TYR:539:C:9838, V-B:TYR:539:CE2:9847, V-B:GLU:543:CD:9879, H-A:TYR:484:OH:4347, H-A:ARG:545:NH2:4927, V-A:LEU:475:CD2:4258, V-B:ALA:541:CB:9863, V-A:HIS:383:CE1:3393, V-B:TYR:539:CB:9842, V-A:GLY:454:CA:4048, H-A:ARG:545:NE:4923, H-B:GLU:543:OE2:9881, H-B:GLU:543:OE1:9880, V-B:GLU:543:CB:9877, V-A:HIS:456:CE1:4069, V-B:HIS:456:CE1:9040, V-A:HIS:383:CG:3389"]

$$$$
4dj_Grossjean_2025
     RDKit          3D

 25 28  0  0  0  0  0  0  0  0999 V2000
  133.8380  124.0520   60.3930 C   0  0  0  0  0  0  0  0  0  0  0  0
  132.9850  123.1390   61.2600 C   0  0  0  0  0  0  0  0  0  0  0  0
  132.6900  121.8580   60.7790 C   0  0  0  0  0  0  0  0  0  0  0  0
  131.9090  120.9700   61.5280 C   0  0  0  0  0  0  0  0  0  0  0  0
  131.5800  119.5880   61.0390 C   0  0  0  0  0  0  0  0  0  0  0  0
  132.4240  118.9250   60.1330 C   0  0  0  0  0  0  0  0  0  0  0  0
  132.1260  117.6440   59.6760 C   0  0  0  0  0  0  0  0  0  0  0  0
  130.9720  117.0060   60.1180 C   0  0  0  0  0  0  0  0  0  0  0  0
  130.1160  117.6400   61.0120 C   0  0  0  0  0  0  0  0  0  0  0  0
  130.4190  118.9200   61.4670 C   0  0  0  0  0  0  0  0  0  0  0  0
  131.4190  121.3020   62.7540 N   0  0  0  0  0  0  0  0  0  0  0  0
  131.6980  122.5210   63.2130 C   0  0  0  0  0  0  0  0  0  0  0  0
  131.1260  123.0800   64.7690 S   0  0  0  0  0  0  0  0  0  0  0  0
  131.9110  124.6460   64.5470 C   0  0  0  0  0  0  0  0  0  0  0  0
  131.8040  125.6800   65.5770 C   0  0  0  0  0  0  0  0  0  0  0  0
  132.8120  126.2410   66.0140 O   0  0  0  0  0  0  0  0  0  0  0  0
  130.5460  125.9510   66.0030 N   0  0  0  0  0  0  0  0  0  0  0  0
  130.1720  126.8780   66.9650 C   0  0  0  0  0  0  0  0  0  0  0  0
  130.4890  126.8900   68.2420 N   0  0  0  0  0  0  0  0  0  0  0  0
  129.9580  127.9240   68.8640 C   0  0  0  0  0  0  0  0  0  0  0  0
  129.1890  128.7830   68.0850 C   0  0  0  0  0  0  0  0  0  0  0  0
  129.1660  128.1940   66.4500 S   0  0  0  0  0  0  0  0  0  0  0  0
  132.5760  124.7070   63.3130 C   0  0  0  0  0  0  0  0  0  0  0  0
  133.2700  125.8070   62.8740 N   0  0  0  0  0  0  0  0  0  0  0  0
  132.4720  123.5040   62.5320 C   0  0  0  0  0  0  0  0  0  0  0  0
  1  2  1  0
  2  3  2  0
  3  4  1  0
  4  5  1  0
  5  6  2  0
  6  7  1  0
  7  8  2  0
  8  9  1  0
  9 10  2  0
  4 11  2  0
 11 12  1  0
 12 13  1  0
 13 14  1  0
 14 15  1  0
 15 16  2  0
 15 17  1  0
 17 18  1  0
 18 19  2  0
 19 20  1  0
 20 21  2  0
 21 22  1  0
 14 23  2  0
 23 24  1  0
 23 25  1  0
 25  2  1  0
 10  5  1  0
 25 12  2  0
 22 18  1  0
M  END
>  <Binding energies>  (62) 
[-8.21]

>  <Ligand effiencies>  (62) 
[-0.29321428571428576]

>  <Interactions>  (62) 
["V-A:ASP:366:CG:3212, V-B:TYR:539:CD2:9845, V-B:TYR:539:C:9838, V-B:TYR:539:CE2:9847, H-A:ASP:366:OD1:3213, V-B:GLU:543:CD:9879, V-A:ARG:545:CZ:4925, H-A:TYR:484:OH:4347, V-A:ILE:369:CD1:3238, H-A:ARG:545:NH2:4927, H-A:ASP:366:OD2:3214, V-A:LEU:475:CD2:4258, V-B:ALA:541:CB:9863, V-A:HIS:383:CE1:3393, V-A:ILE:369:CG2:3236, V-B:TYR:539:CB:9842, H-A:ARG:545:NE:4923, V-A:TYR:484:CZ:4346, V-A:GLU:543:CD:4907, H-B:GLU:543:OE2:9881, V-A:GLU:543:CG:4906, V-A:ASP:366:CB:3211, V-B:VAL:344:CG1:7971, V-A:ILE:369:CB:3235, V-A:ILE:369:CG1:3237, V-A:HIS:456:CE1:4069, V-A:PRO:482:CG:4326, V-A:PRO:482:CB:4325, V-A:GLU:543:CB:4905"]

$$$$
4ea_Grossjean_2025
     RDKit          3D

 31 34  0  0  0  0  0  0  0  0999 V2000
  124.0580  124.6380   57.8770 C   0  0  0  0  0  0  0  0  0  0  0  0
  124.5800  123.3310   57.2740 C   0  0  0  0  0  0  0  0  0  0  0  0
  125.7350  123.6010   56.4890 O   0  0  0  0  0  0  0  0  0  0  0  0
  126.8930  122.9190   56.6860 C   0  0  0  0  0  0  0  0  0  0  0  0
  127.3140  122.0570   55.9080 O   0  0  0  0  0  0  0  0  0  0  0  0
  127.6090  123.3180   57.9440 C   0  0  0  0  0  0  0  0  0  0  0  0
  128.8670  123.9270   57.8500 C   0  0  0  0  0  0  0  0  0  0  0  0
  129.5570  124.3090   58.9970 C   0  0  0  0  0  0  0  0  0  0  0  0
  129.0050  124.0890   60.2600 C   0  0  0  0  0  0  0  0  0  0  0  0
  129.7930  124.5160   61.3470 N   0  0  0  0  0  0  0  0  0  0  0  0
  130.4140  125.7000   61.5710 C   0  0  0  0  0  0  0  0  0  0  0  0
  130.3810  126.6570   60.7970 O   0  0  0  0  0  0  0  0  0  0  0  0
  131.1560  125.7870   62.8320 C   0  0  0  0  0  0  0  0  0  0  0  0
  132.8830  125.4280   62.8780 S   0  0  0  0  0  0  0  0  0  0  0  0
  132.9530  125.7470   64.5960 C   0  0  0  0  0  0  0  0  0  0  0  0
  134.0890  125.6390   65.2870 N   0  0  0  0  0  0  0  0  0  0  0  0
  134.0090  125.9140   66.6120 C   0  0  0  0  0  0  0  0  0  0  0  0
  135.3120  125.7860   67.3790 C   0  0  0  0  0  0  0  0  0  0  0  0
  132.8320  126.2910   67.2550 C   0  0  0  0  0  0  0  0  0  0  0  0
  131.6430  126.4030   66.5260 C   0  0  0  0  0  0  0  0  0  0  0  0
  130.4000  126.8040   67.2240 C   0  0  0  0  0  0  0  0  0  0  0  0
  129.7710  128.0110   66.9010 C   0  0  0  0  0  0  0  0  0  0  0  0
  128.6010  128.3880   67.5550 C   0  0  0  0  0  0  0  0  0  0  0  0
  128.0620  127.5580   68.5360 C   0  0  0  0  0  0  0  0  0  0  0  0
  128.6830  126.3570   68.8680 C   0  0  0  0  0  0  0  0  0  0  0  0
  129.8530  125.9810   68.2130 C   0  0  0  0  0  0  0  0  0  0  0  0
  131.6850  126.1220   65.1330 C   0  0  0  0  0  0  0  0  0  0  0  0
  130.6770  126.1370   64.1040 C   0  0  0  0  0  0  0  0  0  0  0  0
  129.3710  126.4670   64.3640 N   0  0  0  0  0  0  0  0  0  0  0  0
  127.7460  123.4790   60.3640 C   0  0  0  0  0  0  0  0  0  0  0  0
  127.0570  123.0990   59.2160 C   0  0  0  0  0  0  0  0  0  0  0  0
  1  2  1  0
  2  3  1  0
  3  4  1  0
  4  5  2  0
  4  6  1  0
  6  7  2  0
  7  8  1  0
  8  9  2  0
  9 10  1  0
 10 11  1  0
 11 12  2  0
 11 13  1  0
 13 14  1  0
 14 15  1  0
 15 16  2  0
 16 17  1  0
 17 18  1  0
 17 19  2  0
 19 20  1  0
 20 21  1  0
 21 22  2  0
 22 23  1  0
 23 24  2  0
 24 25  1  0
 25 26  2  0
 20 27  2  0
 27 28  1  0
 28 29  1  0
  9 30  1  0
 30 31  2  0
 31  6  1  0
 28 13  2  0
 27 15  1  0
 26 21  1  0
M  END
>  <Binding energies>  (63) 
[-9.15]

>  <Ligand effiencies>  (63) 
[-0.2691176470588235]

>  <Interactions>  (63) 
["V-B:LEU:363:CD1:8159, V-B:TYR:531:CZ:9765, V-B:TYR:539:CZ:9848, V-B:TYR:531:CE2:9764, V-A:ASP:366:CG:3212, H-B:TYR:531:OH:9766, V-B:TYR:539:CD2:9845, V-B:MET:535:CE:9806, V-B:TYR:539:C:9838, V-B:TYR:539:CE2:9847, V-B:ASP:366:CB:8182, H-B:TYR:539:N:9841, V-B:PRO:540:CA:9854, V-B:PRO:540:CB:9856, V-B:PRO:540:N:9855, V-B:GLU:543:CD:9879, V-A:ARG:545:CZ:4925, H-A:GLY:454:N:4049, H-A:TYR:484:OH:4347, H-A:ARG:545:NH1:4926, H-A:ARG:545:NH2:4927, V-A:ARG:545:CD:4922, V-B:GLU:543:CG:9878, V-A:ILE:455:C:4051, H-A:ARG:545:NE:4923, V-A:ARG:545:CG:4921, V-A:GLY:453:C:4041, V-A:TYR:484:CE2:4345, V-A:GLU:543:CD:4907, H-B:GLU:543:OE2:9881, V-A:GLU:543:CG:4906, H-B:GLU:543:OE1:9880, V-B:GLU:543:CB:9877, V-A:HIS:456:CE1:4069, V-A:GLY:453:CA:4043, V-A:ARG:545:CB:4920, V-A:GLU:543:CB:4905"]

$$$$
4eb_Grossjean_2025
     RDKit          3D

 30 33  0  0  0  0  0  0  0  0999 V2000
  124.2220  123.9370   57.2670 C   0  0  0  0  0  0  0  0  0  0  0  0
  125.4150  123.6990   56.5350 O   0  0  0  0  0  0  0  0  0  0  0  0
  126.3300  122.7920   56.9670 C   0  0  0  0  0  0  0  0  0  0  0  0
  126.5010  121.6920   56.4340 O   0  0  0  0  0  0  0  0  0  0  0  0
  127.1140  123.2620   58.1580 C   0  0  0  0  0  0  0  0  0  0  0  0
  128.5100  123.1410   58.1490 C   0  0  0  0  0  0  0  0  0  0  0  0
  129.2640  123.5670   59.2380 C   0  0  0  0  0  0  0  0  0  0  0  0
  128.6420  124.1230   60.3570 C   0  0  0  0  0  0  0  0  0  0  0  0
  129.5050  124.5180   61.3980 N   0  0  0  0  0  0  0  0  0  0  0  0
  130.4610  125.4780   61.4280 C   0  0  0  0  0  0  0  0  0  0  0  0
  130.7440  126.2060   60.4760 O   0  0  0  0  0  0  0  0  0  0  0  0
  131.1730  125.6120   62.7020 C   0  0  0  0  0  0  0  0  0  0  0  0
  132.8810  125.1850   62.8190 S   0  0  0  0  0  0  0  0  0  0  0  0
  132.9200  125.6060   64.5160 C   0  0  0  0  0  0  0  0  0  0  0  0
  134.0310  125.4940   65.2450 N   0  0  0  0  0  0  0  0  0  0  0  0
  133.9280  125.8520   66.5480 C   0  0  0  0  0  0  0  0  0  0  0  0
  135.2050  125.7170   67.3580 C   0  0  0  0  0  0  0  0  0  0  0  0
  132.7530  126.3150   67.1340 C   0  0  0  0  0  0  0  0  0  0  0  0
  131.5890  126.4310   66.3650 C   0  0  0  0  0  0  0  0  0  0  0  0
  130.3460  126.9250   67.0020 C   0  0  0  0  0  0  0  0  0  0  0  0
  129.8150  126.2630   68.1130 C   0  0  0  0  0  0  0  0  0  0  0  0
  128.6480  126.7280   68.7140 C   0  0  0  0  0  0  0  0  0  0  0  0
  128.0100  127.8550   68.2000 C   0  0  0  0  0  0  0  0  0  0  0  0
  128.5290  128.5200   67.0910 C   0  0  0  0  0  0  0  0  0  0  0  0
  129.6960  128.0540   66.4920 C   0  0  0  0  0  0  0  0  0  0  0  0
  131.6550  126.0650   64.9930 C   0  0  0  0  0  0  0  0  0  0  0  0
  130.6770  126.0580   63.9370 C   0  0  0  0  0  0  0  0  0  0  0  0
  129.3790  126.4560   64.1390 N   0  0  0  0  0  0  0  0  0  0  0  0
  127.2440  124.2480   60.3750 C   0  0  0  0  0  0  0  0  0  0  0  0
  126.4910  123.8210   59.2850 C   0  0  0  0  0  0  0  0  0  0  0  0
  1  2  1  0
  2  3  1  0
  3  4  2  0
  3  5  1  0
  5  6  2  0
  6  7  1  0
  7  8  2  0
  8  9  1  0
  9 10  1  0
 10 11  2  0
 10 12  1  0
 12 13  1  0
 13 14  1  0
 14 15  2  0
 15 16  1  0
 16 17  1  0
 16 18  2  0
 18 19  1  0
 19 20  1  0
 20 21  2  0
 21 22  1  0
 22 23  2  0
 23 24  1  0
 24 25  2  0
 19 26  2  0
 26 27  1  0
 27 28  1  0
  8 29  1  0
 29 30  2  0
 30  5  1  0
 27 12  2  0
 26 14  1  0
 25 20  1  0
M  END
>  <Binding energies>  (64) 
[-8.74]

>  <Ligand effiencies>  (64) 
[-0.26484848484848483]

>  <Interactions>  (64) 
["V-B:LEU:363:CD1:8159, V-B:TYR:531:CZ:9765, V-B:TYR:539:CZ:9848, V-B:TYR:531:CE2:9764, V-A:ASP:366:CG:3212, H-B:TYR:531:OH:9766, V-B:TYR:539:CD2:9845, V-B:MET:535:CE:9806, V-B:TYR:539:CG:9843, V-B:TYR:539:CE2:9847, H-B:TYR:539:N:9841, V-B:PRO:540:CA:9854, V-B:PRO:540:CB:9856, V-B:PRO:540:N:9855, V-B:PRO:540:CD:9858, V-B:GLU:543:CD:9879, V-A:ARG:545:CZ:4925, H-A:GLY:454:N:4049, H-A:TYR:484:OH:4347, H-A:ARG:545:NH1:4926, H-A:ARG:545:NH2:4927, V-A:ARG:545:CD:4922, V-A:ILE:455:C:4051, V-A:GLY:454:CA:4048, H-A:ARG:545:NE:4923, V-A:ARG:545:CG:4921, V-A:GLY:453:C:4041, V-A:GLU:543:CD:4907, H-B:GLU:543:OE2:9881, V-A:GLU:543:CG:4906, H-B:GLU:543:OE1:9880, V-B:GLU:543:CB:9877, V-A:HIS:456:CE1:4069, V-A:GLY:453:CA:4043, V-A:ARG:545:CB:4920"]

$$$$
8b_Ghoteimi_2023
     RDKit          3D

 34 38  0  0  0  0  0  0  0  0999 V2000
  121.5890  129.1930   67.5660 C   0  0  0  0  0  0  0  0  0  0  0  0
  122.9320  129.1770   68.0390 O   0  0  0  0  0  0  0  0  0  0  0  0
  123.9680  129.2310   67.1260 C   0  0  0  0  0  0  0  0  0  0  0  0
  125.2560  129.0840   67.6360 C   0  0  0  0  0  0  0  0  0  0  0  0
  126.3610  129.1250   66.7920 C   0  0  0  0  0  0  0  0  0  0  0  0
  126.2050  129.3160   65.4110 C   0  0  0  0  0  0  0  0  0  0  0  0
  127.3900  129.3640   64.4990 C   0  0  0  0  0  0  0  0  0  0  0  0
  128.3360  128.3340   64.4660 C   0  0  0  0  0  0  0  0  0  0  0  0
  129.4340  128.4030   63.6030 C   0  0  0  0  0  0  0  0  0  0  0  0
  130.4240  127.3000   63.6000 C   0  0  0  0  0  0  0  0  0  0  0  0
  131.1760  127.0280   64.7430 C   0  0  0  0  0  0  0  0  0  0  0  0
  132.0990  125.9850   64.7420 C   0  0  0  0  0  0  0  0  0  0  0  0
  132.2840  125.2030   63.6010 C   0  0  0  0  0  0  0  0  0  0  0  0
  133.2200  124.1900   63.6920 O   0  0  0  0  0  0  0  0  0  0  0  0
  133.9390  123.8030   62.5260 C   0  0  0  0  0  0  0  0  0  0  0  0
  131.5290  125.4820   62.4510 C   0  0  0  0  0  0  0  0  0  0  0  0
  130.6060  126.5250   62.4540 C   0  0  0  0  0  0  0  0  0  0  0  0
  129.5530  129.5400   62.7600 C   0  0  0  0  0  0  0  0  0  0  0  0
  130.5260  129.9260   61.7720 C   0  0  0  0  0  0  0  0  0  0  0  0
  131.6130  129.1470   61.4690 N   0  0  0  0  0  0  0  0  0  0  0  0
  130.2550  131.1590   61.1580 C   0  0  0  0  0  0  0  0  0  0  0  0
  131.0220  131.8470   60.1180 C   0  0  0  0  0  0  0  0  0  0  0  0
  132.2110  132.1250   60.2920 O   0  0  0  0  0  0  0  0  0  0  0  0
  130.3330  132.1440   58.9870 N   0  0  0  0  0  0  0  0  0  0  0  0
  130.8080  132.7840   57.8500 C   0  0  0  0  0  0  0  0  0  0  0  0
  132.1030  132.6080   57.3630 C   0  0  0  0  0  0  0  0  0  0  0  0
  132.1760  133.4070   56.2450 C   0  0  0  0  0  0  0  0  0  0  0  0
  130.9870  134.0290   56.0660 O   0  0  0  0  0  0  0  0  0  0  0  0
  130.1270  133.6250   57.0890 N   0  0  0  0  0  0  0  0  0  0  0  0
  128.7730  131.8750   61.7950 S   0  0  0  0  0  0  0  0  0  0  0  0
  128.5280  130.5230   62.8760 C   0  0  0  0  0  0  0  0  0  0  0  0
  127.4830  130.4600   63.6990 N   0  0  0  0  0  0  0  0  0  0  0  0
  124.9070  129.4610   64.9040 C   0  0  0  0  0  0  0  0  0  0  0  0
  123.7990  129.4210   65.7470 C   0  0  0  0  0  0  0  0  0  0  0  0
  1  2  1  0
  2  3  1  0
  3  4  2  0
  4  5  1  0
  5  6  2  0
  6  7  1  0
  7  8  2  0
  8  9  1  0
  9 10  1  0
 10 11  2  0
 11 12  1  0
 12 13  2  0
 13 14  1  0
 14 15  1  0
 13 16  1  0
 16 17  2  0
  9 18  2  0
 18 19  1  0
 19 20  1  0
 19 21  2  0
 21 22  1  0
 22 23  2  0
 22 24  1  0
 24 25  1  0
 25 26  1  0
 26 27  2  0
 27 28  1  0
 28 29  1  0
 21 30  1  0
 30 31  1  0
 31 32  2  0
  6 33  1  0
 33 34  2  0
 34  3  1  0
 32  7  1  0
 17 10  1  0
 31 18  1  0
 29 25  2  0
M  END
>  <Binding energies>  (65) 
[-8.25]

>  <Ligand effiencies>  (65) 
[-0.22297297297297297]

>  <Interactions>  (65) 
["V-A:PRO:540:CB:4884, V-A:TYR:539:C:4866, V-A:ASP:366:CG:3212, V-A:TYR:531:CE2:4792, V-A:LEU:363:CD1:3188, V-A:PRO:540:N:4883, V-A:PRO:540:CA:4882, V-B:GLY:453:CA:9014, V-B:GLY:453:C:9012, V-B:ARG:545:CZ:9897, H-A:TYR:539:N:4869, V-A:PRO:540:CD:4886, V-A:ILE:538:CB:4861, V-B:GLU:543:CD:9879, V-A:ARG:545:CZ:4925, H-A:GLY:454:N:4049, V-A:ILE:369:CD1:3238, H-A:ASP:366:OD2:3214, V-A:GLY:454:CA:4048, H-A:GLU:543:OE2:4909, V-A:GLU:543:CD:4907, V-B:HIS:456:CE1:9040, V-B:TYR:484:CZ:9317, V-B:ARG:545:CG:9893, H-B:ILE:455:N:9025, V-B:ARG:545:CD:9894, V-B:ARG:545:CB:9892, V-B:ILE:455:C:9022, V-B:VAL:452:C:9004, V-B:VAL:452:CG2:9010, V-B:ILE:455:CA:9024"]

$$$$
9d_Ghoteimi_2023
     RDKit          3D

 38 43  0  0  0  0  0  0  0  0999 V2000
  135.3200  125.1920   76.3910 C   0  0  0  0  0  0  0  0  0  0  0  0
  134.1330  125.8890   76.7420 O   0  0  0  0  0  0  0  0  0  0  0  0
  133.7490  126.9990   76.0590 C   0  0  0  0  0  0  0  0  0  0  0  0
  134.2910  128.1010   76.1760 O   0  0  0  0  0  0  0  0  0  0  0  0
  132.6030  126.7530   75.1570 C   0  0  0  0  0  0  0  0  0  0  0  0
  132.0050  128.0510   74.1240 S   0  0  0  0  0  0  0  0  0  0  0  0
  130.7900  126.9990   73.4380 C   0  0  0  0  0  0  0  0  0  0  0  0
  129.9600  127.4200   72.4850 N   0  0  0  0  0  0  0  0  0  0  0  0
  129.0630  126.5200   72.0040 C   0  0  0  0  0  0  0  0  0  0  0  0
  128.1590  127.0070   70.9180 C   0  0  0  0  0  0  0  0  0  0  0  0
  128.6360  127.8840   69.9380 C   0  0  0  0  0  0  0  0  0  0  0  0
  127.8020  128.3460   68.9240 C   0  0  0  0  0  0  0  0  0  0  0  0
  126.4610  127.9370   68.8450 C   0  0  0  0  0  0  0  0  0  0  0  0
  125.6060  128.4050   67.8410 N   0  0  0  0  0  0  0  0  0  0  0  0
  124.3900  129.1790   68.1670 C   0  0  0  0  0  0  0  0  0  0  0  0
  123.4000  129.3110   66.9920 C   0  0  0  0  0  0  0  0  0  0  0  0
  124.0600  129.8520   65.8600 O   0  0  0  0  0  0  0  0  0  0  0  0
  125.1270  129.0220   65.4340 C   0  0  0  0  0  0  0  0  0  0  0  0
  126.1720  128.8790   66.5610 C   0  0  0  0  0  0  0  0  0  0  0  0
  125.9840  127.0690   69.8390 C   0  0  0  0  0  0  0  0  0  0  0  0
  126.8180  126.6100   70.8550 C   0  0  0  0  0  0  0  0  0  0  0  0
  128.9770  125.2160   72.5000 C   0  0  0  0  0  0  0  0  0  0  0  0
  129.8340  124.7740   73.5140 C   0  0  0  0  0  0  0  0  0  0  0  0
  129.6820  123.3860   74.0250 C   0  0  0  0  0  0  0  0  0  0  0  0
  130.7570  122.4950   73.9980 C   0  0  0  0  0  0  0  0  0  0  0  0
  130.6150  121.2020   74.4940 C   0  0  0  0  0  0  0  0  0  0  0  0
  129.3970  120.7710   75.0450 C   0  0  0  0  0  0  0  0  0  0  0  0
  129.2260  119.4770   75.5410 N   0  0  0  0  0  0  0  0  0  0  0  0
  127.9640  118.7640   75.2650 C   0  0  0  0  0  0  0  0  0  0  0  0
  128.0550  117.2440   75.5180 C   0  0  0  0  0  0  0  0  0  0  0  0
  128.4970  116.9970   76.8450 O   0  0  0  0  0  0  0  0  0  0  0  0
  129.7780  117.5620   77.0840 C   0  0  0  0  0  0  0  0  0  0  0  0
  129.7260  119.0900   76.8730 C   0  0  0  0  0  0  0  0  0  0  0  0
  128.3240  121.6750   75.0650 C   0  0  0  0  0  0  0  0  0  0  0  0
  128.4670  122.9670   74.5670 C   0  0  0  0  0  0  0  0  0  0  0  0
  130.8090  125.6890   74.0020 C   0  0  0  0  0  0  0  0  0  0  0  0
  131.8700  125.5750   74.9690 C   0  0  0  0  0  0  0  0  0  0  0  0
  132.1520  124.4080   75.6300 N   0  0  0  0  0  0  0  0  0  0  0  0
  1  2  1  0
  2  3  1  0
  3  4  2  0
  3  5  1  0
  5  6  1  0
  6  7  1  0
  7  8  2  0
  8  9  1  0
  9 10  1  0
 10 11  2  0
 11 12  1  0
 12 13  2  0
 13 14  1  0
 14 15  1  0
 15 16  1  0
 16 17  1  0
 17 18  1  0
 18 19  1  0
 13 20  1  0
 20 21  2  0
  9 22  2  0
 22 23  1  0
 23 24  1  0
 24 25  2  0
 25 26  1  0
 26 27  2  0
 27 28  1  0
 28 29  1  0
 29 30  1  0
 30 31  1  0
 31 32  1  0
 32 33  1  0
 27 34  1  0
 34 35  2  0
 23 36  2  0
 36 37  1  0
 37 38  1  0
 37  5  2  0
 36  7  1  0
 21 10  1  0
 35 24  1  0
 19 14  1  0
 33 28  1  0
M  END
>  <Binding energies>  (66) 
[-9.12]

>  <Ligand effiencies>  (66) 
[-0.22799999999999998]

>  <Interactions>  (66) 
["V-B:ARG:545:CZ:9897, H-B:GLY:454:N:9020, V-B:GLU:543:CD:9879, H-B:TYR:484:OH:9318, V-B:GLU:543:CB:9877, V-A:VAL:458:CG2:4086, V-B:GLU:543:C:9873, V-A:GLY:544:C:4911, V-A:VAL:457:C:4072, V-A:HIS:456:CD2:4067, H-A:HIS:456:ND1:4066, V-A:HIS:456:CE1:4069, V-A:HIS:456:CG:4065, V-B:GLY:544:C:9883, V-B:HIS:456:CE1:9040, V-A:HIS:456:CB:4064, V-A:HIS:456:C:4060, V-B:TYR:484:CZ:9317, V-B:ARG:545:CG:9893, V-B:ARG:545:CD:9894, V-B:ARG:545:CB:9892, V-B:ARG:545:CA:9890, V-B:LYS:547:CE:9921, V-A:ASP:473:CG:4239, V-A:TYR:484:CB:4340, V-A:TYR:484:CG:4341, V-A:VAL:457:CA:4074, H-A:ASP:473:OD2:4241, V-A:PRO:486:CD:4365, V-A:ASP:485:CG:4355"]

$$$$
RR10_Rahimova_2017
     RDKit          3D

 34 38  0  0  0  0  0  0  0  0999 V2000
  127.2860  126.2670   71.3430 C   0  0  0  0  0  0  0  0  0  0  0  0
  128.5910  126.5360   70.5730 C   0  0  1  0  0  0  0  0  0  0  0  0
  128.6320  125.7800   69.2250 C   0  0  0  0  0  0  0  0  0  0  0  0
  129.9650  126.0370   68.4860 C   0  0  0  0  0  0  0  0  0  0  0  0
  130.2090  127.5460   68.2300 C   0  0  1  0  0  0  0  0  0  0  0  0
  129.2450  128.0710   67.2530 N   0  0  0  0  0  0  0  0  0  0  0  0
  128.6660  129.2840   67.3030 C   0  0  0  0  0  0  0  0  0  0  0  0
  128.9100  130.1090   68.1880 O   0  0  0  0  0  0  0  0  0  0  0  0
  127.6460  129.6130   66.1930 C   0  0  1  0  0  0  0  0  0  0  0  0
  126.2280  129.1880   66.6550 C   0  0  0  0  0  0  0  0  0  0  0  0
  125.1900  129.6000   65.5830 C   0  0  0  0  0  0  0  0  0  0  0  0
  125.3030  131.0920   65.1920 C   0  0  0  0  0  0  0  0  0  0  0  0
  126.7040  131.4340   64.8250 N   0  0  0  0  0  0  0  0  0  0  0  0
  126.8980  133.0280   64.0770 S   0  0  0  0  0  0  0  0  0  0  0  0
  127.4860  133.9320   65.0740 O   0  0  0  0  0  0  0  0  0  0  0  0
  125.6310  133.3760   63.4210 O   0  0  0  0  0  0  0  0  0  0  0  0
  128.1350  132.7960   62.8000 C   0  0  0  0  0  0  0  0  0  0  0  0
  129.3780  132.2550   63.1410 C   0  0  0  0  0  0  0  0  0  0  0  0
  130.3850  132.0510   62.1930 C   0  0  0  0  0  0  0  0  0  0  0  0
  130.0870  132.4150   60.8780 C   0  0  0  0  0  0  0  0  0  0  0  0
  130.7900  132.3780   59.6970 N   0  0  0  0  0  0  0  0  0  0  0  0
  129.9750  132.8770   58.7020 C   0  0  0  0  0  0  0  0  0  0  0  0
  130.3990  133.0040   57.2670 C   0  0  0  0  0  0  0  0  0  0  0  0
  131.7420  133.2410   56.9420 C   0  0  0  0  0  0  0  0  0  0  0  0
  132.1370  133.3550   55.6120 C   0  0  0  0  0  0  0  0  0  0  0  0
  131.1900  133.2340   54.5980 C   0  0  0  0  0  0  0  0  0  0  0  0
  129.8530  132.9970   54.9040 C   0  0  0  0  0  0  0  0  0  0  0  0
  129.4590  132.8830   56.2350 C   0  0  0  0  0  0  0  0  0  0  0  0
  128.7940  133.2270   59.1620 N   0  0  0  0  0  0  0  0  0  0  0  0
  128.8340  132.9560   60.5040 C   0  0  0  0  0  0  0  0  0  0  0  0
  127.8420  133.1470   61.4770 C   0  0  0  0  0  0  0  0  0  0  0  0
  127.6870  131.1330   65.8970 C   0  0  0  0  0  0  0  0  0  0  0  0
  130.1480  128.2950   69.5890 C   0  0  0  0  0  0  0  0  0  0  0  0
  128.8140  128.0470   70.3270 C   0  0  0  0  0  0  0  0  0  0  0  0
  2  1  1  6
  2  3  1  0
  3  4  1  0
  4  5  1  0
  5  6  1  6
  6  7  1  0
  7  8  2  0
  9  7  1  1
  9 10  1  0
 10 11  1  0
 11 12  1  0
 12 13  1  0
 13 14  1  0
 14 15  2  0
 14 16  2  0
 14 17  1  0
 17 18  2  0
 18 19  1  0
 19 20  2  0
 20 21  1  0
 21 22  1  0
 22 23  1  0
 23 24  2  0
 24 25  1  0
 25 26  2  0
 26 27  1  0
 27 28  2  0
 22 29  2  0
 29 30  1  0
 30 31  2  0
 13 32  1  0
  5 33  1  0
 33 34  1  0
 34  2  1  0
 32  9  1  0
 31 17  1  0
 30 20  1  0
 28 23  1  0
M  END
>  <Binding energies>  (67) 
[-10.16]

>  <Ligand effiencies>  (67) 
[-0.2822222222222222]

>  <Interactions>  (67) 
["V-A:TYR:539:CZ:4876, V-A:PRO:540:CB:4884, V-A:TYR:539:CD1:4872, V-A:TYR:539:C:4866, V-A:MET:535:CB:4831, V-A:MET:535:CG:4832, V-A:TYR:531:CE2:4792, V-A:LEU:363:CD1:3188, V-A:PRO:540:N:4883, V-A:PRO:540:CA:4882, V-A:TYR:539:CE1:4874, V-A:ALA:541:CB:4891, V-B:LEU:475:CD1:9228, V-A:PRO:540:CD:4886, V-A:ILE:538:CB:4861, V-B:GLU:543:CD:9879, V-B:GLU:543:CG:9878, V-A:TYR:484:CE2:4345, V-A:GLU:543:CD:4907, H-B:GLU:543:OE2:9881, V-A:GLU:543:CG:4906, H-B:TYR:484:OH:9318, V-A:ILE:538:CA:4859, V-A:ILE:538:CG2:4862, V-B:GLU:543:CA:9875, V-B:GLU:543:CB:9877, V-B:GLU:543:C:9873, V-B:GLY:544:CA:9885, V-A:HIS:456:CE1:4069, V-B:GLY:544:C:9883, V-B:HIS:456:CE1:9040, V-A:GLU:543:CB:4905, V-B:GLY:454:CA:9019"]

$$$$
RR12_Rahimova_2017
     RDKit          3D

 26 28  0  0  0  0  0  0  0  0999 V2000
  126.2750  122.4120   55.7000 C   0  0  0  0  0  0  0  0  0  0  0  0
  125.6950  122.4260   57.1200 C   0  0  0  0  0  0  0  0  0  0  0  0
  125.8780  123.7850   57.8210 C   0  0  0  0  0  0  0  0  0  0  0  0
  126.6930  123.6410   59.0250 N   0  0  0  0  0  0  0  0  0  0  0  0
  128.0750  123.5510   59.1030 C   0  0  0  0  0  0  0  0  0  0  0  0
  128.9930  123.5420   57.8930 C   0  0  0  0  0  0  0  0  0  0  0  0
  129.5300  124.9440   57.5530 C   0  0  0  0  0  0  0  0  0  0  0  0
  130.4000  125.5370   58.6780 C   0  0  0  0  0  0  0  0  0  0  0  0
  131.1090  124.5310   59.4690 N   0  0  0  0  0  0  0  0  0  0  0  0
  132.3850  124.1530   59.2720 C   0  0  0  0  0  0  0  0  0  0  0  0
  133.1000  124.6230   58.3840 O   0  0  0  0  0  0  0  0  0  0  0  0
  132.9170  123.0850   60.2360 C   0  0  0  0  0  0  0  0  0  0  0  0
  131.8250  122.4950   60.9430 O   0  0  0  0  0  0  0  0  0  0  0  0
  131.7130  121.1180   60.9900 C   0  0  0  0  0  0  0  0  0  0  0  0
  132.8460  120.3910   60.6160 C   0  0  0  0  0  0  0  0  0  0  0  0
  132.8300  118.9990   60.6340 C   0  0  0  0  0  0  0  0  0  0  0  0
  131.6760  118.3280   61.0290 C   0  0  0  0  0  0  0  0  0  0  0  0
  130.5370  119.0370   61.4020 C   0  0  0  0  0  0  0  0  0  0  0  0
  130.5530  120.4300   61.3830 C   0  0  0  0  0  0  0  0  0  0  0  0
  128.5200  123.4560   60.3310 N   0  0  0  0  0  0  0  0  0  0  0  0
  127.4020  123.5090   61.1150 C   0  0  0  0  0  0  0  0  0  0  0  0
  127.3020  123.4630   62.5140 C   0  0  0  0  0  0  0  0  0  0  0  0
  126.0310  123.5420   63.0850 C   0  0  0  0  0  0  0  0  0  0  0  0
  124.8880  123.6660   62.2940 C   0  0  0  0  0  0  0  0  0  0  0  0
  124.9540  123.7140   60.9010 C   0  0  0  0  0  0  0  0  0  0  0  0
  126.2300  123.6320   60.3280 C   0  0  0  0  0  0  0  0  0  0  0  0
  1  2  1  0
  2  3  1  0
  3  4  1  0
  4  5  1  0
  5  6  1  0
  6  7  1  0
  7  8  1  0
  8  9  1  0
  9 10  1  0
 10 11  2  0
 10 12  1  0
 12 13  1  0
 13 14  1  0
 14 15  2  0
 15 16  1  0
 16 17  2  0
 17 18  1  0
 18 19  2  0
  5 20  2  0
 20 21  1  0
 21 22  2  0
 22 23  1  0
 23 24  2  0
 24 25  1  0
 25 26  2  0
 26  4  1  0
 19 14  1  0
 26 21  1  0
M  END
>  <Binding energies>  (68) 
[-6.93]

>  <Ligand effiencies>  (68) 
[-0.25666666666666665]

>  <Interactions>  (68) 
["V-B:TYR:539:CZ:9848, V-B:TYR:539:CD2:9845, V-B:MET:535:CE:9806, V-B:TYR:539:CE1:9846, V-B:TYR:539:C:9838, V-B:TYR:539:CE2:9847, V-B:MET:535:CG:9804, V-B:PRO:540:CA:9854, V-B:PRO:540:CB:9856, V-B:ILE:538:CD1:9836, V-B:PRO:540:N:9855, V-B:PRO:540:CD:9858, V-B:PRO:540:CG:9857, V-B:GLU:543:CD:9879, V-B:ALA:541:C:9859, V-A:ILE:369:CD1:3238, V-B:GLU:543:CG:9878, V-A:LEU:475:CD2:4258, V-B:ALA:541:CB:9863, V-A:ILE:369:CG2:3236, V-B:ILE:538:CA:9831, V-A:SER:385:CA:3406, V-A:SER:385:CB:3408, H-B:TYR:539:OH:9849"]

$$$$
RR13_Rahimova_2017
     RDKit          3D

 48 54  0  0  0  0  0  0  0  0999 V2000
  130.7720  125.6170   57.9350 Cl  0  0  0  0  0  0  0  0  0  0  0  0
  129.9070  124.5100   58.9470 C   0  0  0  0  0  0  0  0  0  0  0  0
  130.4980  124.1360   60.1560 C   0  0  0  0  0  0  0  0  0  0  0  0
  129.8620  123.2330   61.0040 C   0  0  0  0  0  0  0  0  0  0  0  0
  128.6290  122.6950   60.6470 C   0  0  0  0  0  0  0  0  0  0  0  0
  128.0320  123.0640   59.4420 C   0  0  0  0  0  0  0  0  0  0  0  0
  128.6520  123.9830   58.5790 C   0  0  0  0  0  0  0  0  0  0  0  0
  127.9820  124.3560   57.2390 C   0  0  1  0  0  0  0  0  0  0  0  0
  126.8940  123.3380   56.8630 C   0  0  0  0  0  0  0  0  0  0  0  0
  127.0620  122.2200   56.1930 N   0  0  0  0  0  0  0  0  0  0  0  0
  125.7970  121.6520   56.0750 N   0  0  0  0  0  0  0  0  0  0  0  0
  124.8550  122.4640   56.6760 N   0  0  0  0  0  0  0  0  0  0  0  0
  125.5530  123.5100   57.1330 N   0  0  0  0  0  0  0  0  0  0  0  0
  124.8860  124.5750   57.8720 C   0  0  0  0  0  0  0  0  0  0  0  0
  123.8580  123.9820   58.8530 C   0  0  0  0  0  0  0  0  0  0  0  0
  124.3890  123.9280   60.2780 C   0  0  0  0  0  0  0  0  0  0  0  0
  123.6420  123.2990   61.2770 C   0  0  0  0  0  0  0  0  0  0  0  0
  124.1250  123.2570   62.5820 C   0  0  0  0  0  0  0  0  0  0  0  0
  125.3520  123.8440   62.8830 C   0  0  0  0  0  0  0  0  0  0  0  0
  126.1010  124.4730   61.8920 C   0  0  0  0  0  0  0  0  0  0  0  0
  125.6180  124.5160   60.5860 C   0  0  0  0  0  0  0  0  0  0  0  0
  127.4880  125.7530   57.1940 N   0  0  0  0  0  0  0  0  0  0  0  0
  128.2740  126.5490   56.2340 C   0  0  0  0  0  0  0  0  0  0  0  0
  127.6820  127.9700   56.0840 C   0  0  0  0  0  0  0  0  0  0  0  0
  127.7110  128.6830   57.3710 N   0  0  0  0  0  0  0  0  0  0  0  0
  127.2280  130.0790   57.2570 C   0  0  1  0  0  0  0  0  0  0  0  0
  128.3150  131.1380   56.9670 C   0  0  0  0  0  0  0  0  0  0  0  0
  128.9380  131.0890   55.7130 C   0  0  0  0  0  0  0  0  0  0  0  0
  129.9180  132.0160   55.3580 C   0  0  0  0  0  0  0  0  0  0  0  0
  130.2950  133.0060   56.2610 C   0  0  0  0  0  0  0  0  0  0  0  0
  129.7000  133.0620   57.5180 C   0  0  0  0  0  0  0  0  0  0  0  0
  128.7200  132.1360   57.8840 C   0  0  0  0  0  0  0  0  0  0  0  0
  128.0910  132.2470   59.4940 Cl  0  0  0  0  0  0  0  0  0  0  0  0
  126.0670  130.2350   56.2720 C   0  0  0  0  0  0  0  0  0  0  0  0
  126.1730  130.2340   54.9630 N   0  0  0  0  0  0  0  0  0  0  0  0
  124.8790  130.3840   54.4760 N   0  0  0  0  0  0  0  0  0  0  0  0
  123.9840  130.4590   55.5230 N   0  0  0  0  0  0  0  0  0  0  0  0
  124.7380  130.3430   56.6220 N   0  0  0  0  0  0  0  0  0  0  0  0
  124.1190  130.4020   57.9420 C   0  0  0  0  0  0  0  0  0  0  0  0
  124.4340  131.7450   58.6250 C   0  0  0  0  0  0  0  0  0  0  0  0
  123.8040  131.8500   60.0050 C   0  0  0  0  0  0  0  0  0  0  0  0
  124.2190  132.8510   60.8870 C   0  0  0  0  0  0  0  0  0  0  0  0
  123.6360  132.9510   62.1480 C   0  0  0  0  0  0  0  0  0  0  0  0
  122.6410  132.0490   62.5220 C   0  0  0  0  0  0  0  0  0  0  0  0
  122.2230  131.0490   61.6460 C   0  0  0  0  0  0  0  0  0  0  0  0
  122.8040  130.9490   60.3850 C   0  0  0  0  0  0  0  0  0  0  0  0
  126.9200  127.8870   58.3270 C   0  0  0  0  0  0  0  0  0  0  0  0
  127.5230  126.4710   58.4800 C   0  0  0  0  0  0  0  0  0  0  0  0
  1  2  1  0
  2  3  2  0
  3  4  1  0
  4  5  2  0
  5  6  1  0
  6  7  2  0
  7  8  1  0
  8  9  1  0
  9 10  2  0
 10 11  1  0
 11 12  2  0
 12 13  1  0
 13 14  1  0
 14 15  1  0
 15 16  1  0
 16 17  2  0
 17 18  1  0
 18 19  2  0
 19 20  1  0
 20 21  2  0
  8 22  1  1
 22 23  1  0
 23 24  1  0
 24 25  1  0
 26 25  1  6
 26 27  1  0
 27 28  2  0
 28 29  1  0
 29 30  2  0
 30 31  1  0
 31 32  2  0
 32 33  1  0
 26 34  1  0
 34 35  2  0
 35 36  1  0
 36 37  2  0
 37 38  1  0
 38 39  1  0
 39 40  1  0
 40 41  1  0
 41 42  2  0
 42 43  1  0
 43 44  2  0
 44 45  1  0
 45 46  2  0
 25 47  1  0
 47 48  1  0
  7  2  1  0
 13  9  1  0
 21 16  1  0
 48 22  1  0
 32 27  1  0
 38 34  1  0
 46 41  1  0
M  END
>  <Binding energies>  (69) 
[-14.11]

>  <Ligand effiencies>  (69) 
[-0.2939583333333333]

>  <Interactions>  (69) 
["V-B:LEU:363:CD1:8159, V-B:TYR:531:CZ:9765, V-B:ILE:369:CB:8206, V-B:LEU:363:CA:8155, V-A:TYR:539:CD1:4872, V-A:TYR:539:C:4866, V-B:TYR:539:CZ:9848, V-B:TYR:531:CE2:9764, V-A:MET:535:CG:4832, V-B:TYR:531:CE1:9763, H-B:TYR:531:OH:9766, V-A:TYR:531:CE2:4792, V-B:MET:535:CE:9806, V-B:ILE:369:CG2:8207, V-B:TYR:539:C:9838, V-A:TYR:539:CE1:4874, V-B:ASP:366:CG:8183, V-B:TYR:539:CE2:9847, V-B:ASP:366:CB:8182, V-B:ILE:369:CG1:8208, H-B:TYR:539:N:9841, V-B:GLY:453:C:9012, V-B:PRO:540:CA:9854, V-B:PRO:540:CB:9856, V-B:PRO:540:N:9855, V-A:TYR:531:CZ:4793, V-B:SER:385:CB:8379, V-B:GLU:543:CD:9879, V-B:ASN:362:CB:8146, V-A:MET:535:CE:4834, H-A:TYR:539:OH:4877, V-B:ASP:366:CA:8180, V-B:ASP:366:C:8178, V-B:ASN:362:CG:8147, V-B:GLY:454:CA:9019, V-B:ASN:362:C:8142"]

$$$$
RR14_Rahimova_2017
     RDKit          3D

 39 43  0  0  0  0  0  0  0  0999 V2000
  133.0060  126.1580   66.2870 C   0  0  0  0  0  0  0  0  0  0  0  0
  133.8880  125.5150   65.3740 O   0  0  0  0  0  0  0  0  0  0  0  0
  133.4130  125.1360   64.1330 C   0  0  0  0  0  0  0  0  0  0  0  0
  132.0460  125.3070   63.9110 C   0  0  0  0  0  0  0  0  0  0  0  0
  131.4730  124.9310   62.7000 C   0  0  0  0  0  0  0  0  0  0  0  0
  132.2660  124.3700   61.6970 C   0  0  0  0  0  0  0  0  0  0  0  0
  131.6300  123.8970   60.3950 C   0  0  0  0  0  0  0  0  0  0  0  0
  132.3540  124.3400   59.2030 N   0  0  0  0  0  0  0  0  0  0  0  0
  133.4060  123.6470   58.7540 N   0  0  0  0  0  0  0  0  0  0  0  0
  133.8500  124.3560   57.6550 N   0  0  0  0  0  0  0  0  0  0  0  0
  133.0560  125.4820   57.4600 N   0  0  0  0  0  0  0  0  0  0  0  0
  132.1580  125.4540   58.4160 C   0  0  0  0  0  0  0  0  0  0  0  0
  131.0750  126.5020   58.6320 C   0  0  0  0  0  0  0  0  0  0  0  0
  130.0600  126.4900   57.5660 N   0  0  0  0  0  0  0  0  0  0  0  0
  129.4790  125.1540   57.3760 C   0  0  0  0  0  0  0  0  0  0  0  0
  128.7120  124.6380   58.6130 C   0  0  0  0  0  0  0  0  0  0  0  0
  128.4430  123.1190   58.5850 C   0  0  0  0  0  0  0  0  0  0  0  0
  127.2160  122.7600   57.8660 N   0  0  0  0  0  0  0  0  0  0  0  0
  127.5210  122.4350   56.4670 C   0  0  0  0  0  0  0  0  0  0  0  0
  126.2440  122.1020   55.6670 C   0  0  0  0  0  0  0  0  0  0  0  0
  125.3050  123.1660   55.7810 O   0  0  0  0  0  0  0  0  0  0  0  0
  124.9230  123.4060   57.1310 C   0  0  0  0  0  0  0  0  0  0  0  0
  126.1610  123.7790   57.9750 C   0  0  0  0  0  0  0  0  0  0  0  0
  129.0060  127.4720   57.8600 C   0  0  0  0  0  0  0  0  0  0  0  0
  129.1730  128.8470   57.2180 C   0  0  0  0  0  0  0  0  0  0  0  0
  129.9440  129.8000   57.7970 C   0  0  0  0  0  0  0  0  0  0  0  0
  130.0910  131.1520   57.2180 C   0  0  0  0  0  0  0  0  0  0  0  0
  130.8960  132.1560   57.7800 C   0  0  0  0  0  0  0  0  0  0  0  0
  131.6950  131.9190   59.0550 C   0  0  0  0  0  0  0  0  0  0  0  0
  130.9680  133.4020   57.1500 C   0  0  0  0  0  0  0  0  0  0  0  0
  130.2520  133.6500   55.9800 C   0  0  0  0  0  0  0  0  0  0  0  0
  129.4490  132.6560   55.4120 C   0  0  0  0  0  0  0  0  0  0  0  0
  128.6810  132.9580   54.1310 C   0  0  0  0  0  0  0  0  0  0  0  0
  129.3700  131.4020   56.0360 C   0  0  0  0  0  0  0  0  0  0  0  0
  128.5710  130.3690   55.5000 N   0  0  0  0  0  0  0  0  0  0  0  0
  128.4070  129.1180   55.9970 C   0  0  0  0  0  0  0  0  0  0  0  0
  127.6620  128.3160   55.4330 O   0  0  0  0  0  0  0  0  0  0  0  0
  133.6390  124.2220   61.8980 C   0  0  0  0  0  0  0  0  0  0  0  0
  134.2110  124.5980   63.1100 C   0  0  0  0  0  0  0  0  0  0  0  0
  1  2  1  0
  2  3  1  0
  3  4  2  0
  4  5  1  0
  5  6  2  0
  6  7  1  0
  7  8  1  0
  8  9  1  0
  9 10  2  0
 10 11  1  0
 11 12  2  0
 12 13  1  0
 13 14  1  0
 14 15  1  0
 15 16  1  0
 16 17  1  0
 17 18  1  0
 18 19  1  0
 19 20  1  0
 20 21  1  0
 21 22  1  0
 22 23  1  0
 14 24  1  0
 24 25  1  0
 25 26  2  0
 26 27  1  0
 27 28  2  0
 28 29  1  0
 28 30  1  0
 30 31  2  0
 31 32  1  0
 32 33  1  0
 32 34  2  0
 34 35  1  0
 35 36  1  0
 36 37  2  0
  6 38  1  0
 38 39  2  0
 39  3  1  0
 12  8  1  0
 23 18  1  0
 36 25  1  0
 34 27  1  0
M  END
>  <Binding energies>  (70) 
[-11.8]

>  <Ligand effiencies>  (70) 
[-0.29500000000000004]

>  <Interactions>  (70) 
["V-B:LEU:363:CD1:8159, V-B:TYR:531:CZ:9765, V-A:TYR:539:CZ:4876, V-A:PRO:540:CB:4884, V-A:TYR:539:CD1:4872, V-A:TYR:539:C:4866, V-B:TYR:539:CZ:9848, V-A:MET:535:CB:4831, V-B:TYR:531:CE2:9764, V-A:ASP:366:CG:3212, V-A:MET:535:CG:4832, H-B:TYR:531:OH:9766, V-A:PRO:540:N:4883, V-B:TYR:539:CD2:9845, V-B:MET:535:CE:9806, V-B:TYR:539:CE1:9846, V-A:PRO:540:CA:4882, V-B:TYR:539:C:9838, V-B:TYR:539:CA:9840, V-A:TYR:539:CE1:4874, V-B:TYR:539:CD1:9844, V-B:TYR:539:CG:9843, V-B:TYR:539:CE2:9847, V-B:ILE:538:CG2:9834, V-B:MET:535:CG:9804, V-B:PRO:540:CB:9856, V-B:ILE:538:CD1:9836, V-B:PRO:540:N:9855, V-A:PRO:540:CD:4886, V-B:PRO:540:CD:9858, V-A:ILE:538:CB:4861, V-A:ARG:545:CZ:4925, H-A:GLY:454:N:4049, H-A:TYR:484:OH:4347, V-A:ILE:369:CD1:3238, H-A:ARG:545:NH2:4927, V-A:ARG:545:CD:4922, V-B:ILE:538:CA:9831, V-A:GLY:454:CA:4048, H-A:ARG:545:NE:4923, V-A:ARG:545:CG:4921, V-A:GLY:453:C:4041, V-A:ASP:366:CB:3211, V-A:MET:535:CE:4834, H-B:TYR:539:OH:9849, V-A:ILE:538:C:4857, V-A:ILE:538:CA:4859, V-A:TYR:539:CE2:4875, V-A:GLY:453:CA:4043, V-B:ILE:538:C:9829, H-A:MET:535:SD:4833, H-A:ASN:370:N:3243"]

$$$$
RR15_Rahimova_2017
     RDKit          3D

 45 49  0  0  0  0  0  0  0  0999 V2000
  130.6070  122.0950   65.3910 C   0  0  0  0  0  0  0  0  0  0  0  0
  131.8980  122.0870   64.7890 O   0  0  0  0  0  0  0  0  0  0  0  0
  132.0620  122.6160   63.5210 C   0  0  0  0  0  0  0  0  0  0  0  0
  131.4860  122.0620   62.3670 C   0  0  0  0  0  0  0  0  0  0  0  0
  131.6930  122.6440   61.1190 C   0  0  0  0  0  0  0  0  0  0  0  0
  132.4810  123.7920   60.9860 C   0  0  0  0  0  0  0  0  0  0  0  0
  132.7100  124.4170   59.6370 C   0  0  0  0  0  0  0  0  0  0  0  0
  133.5860  123.9420   58.7620 N   0  0  0  0  0  0  0  0  0  0  0  0
  133.5180  124.7730   57.6640 N   0  0  0  0  0  0  0  0  0  0  0  0
  132.5640  125.6460   57.9890 N   0  0  0  0  0  0  0  0  0  0  0  0
  132.2730  126.8190   57.1660 C   0  0  0  0  0  0  0  0  0  0  0  0
  130.7670  127.0820   56.9180 C   0  0  0  0  0  0  0  0  0  0  0  0
  130.3170  126.8720   55.7900 O   0  0  0  0  0  0  0  0  0  0  0  0
  129.9740  127.5050   57.9510 N   0  0  0  0  0  0  0  0  0  0  0  0
  129.5250  126.5740   59.0050 C   0  0  0  0  0  0  0  0  0  0  0  0
  128.2120  125.8380   58.6600 C   0  0  0  0  0  0  0  0  0  0  0  0
  128.2770  124.2980   58.7930 C   0  0  0  0  0  0  0  0  0  0  0  0
  127.1510  123.6030   58.1610 N   0  0  0  0  0  0  0  0  0  0  0  0
  125.9690  124.4560   57.9640 C   0  0  0  0  0  0  0  0  0  0  0  0
  124.8470  123.7020   57.2190 C   0  0  0  0  0  0  0  0  0  0  0  0
  125.3400  123.1740   55.9920 O   0  0  0  0  0  0  0  0  0  0  0  0
  126.4190  122.2670   56.1870 C   0  0  0  0  0  0  0  0  0  0  0  0
  127.5860  122.9830   56.9020 C   0  0  0  0  0  0  0  0  0  0  0  0
  129.6620  128.9440   58.2110 C   0  0  2  0  0  0  0  0  0  0  0  0
  129.0450  129.6920   56.9880 C   0  0  0  0  0  0  0  0  0  0  0  0
  127.9650  129.3450   56.5100 O   0  0  0  0  0  0  0  0  0  0  0  0
  129.7470  130.7460   56.5360 N   0  0  0  0  0  0  0  0  0  0  0  0
  129.3200  131.6530   55.4770 C   0  0  0  0  0  0  0  0  0  0  0  0
  129.9350  133.0530   55.6610 C   0  0  2  0  0  0  0  0  0  0  0  0
  131.2610  133.2950   54.9180 C   0  0  0  0  0  0  0  0  0  0  0  0
  132.3220  133.1540   55.9820 C   0  0  0  0  0  0  0  0  0  0  0  0
  131.5970  133.6950   57.2020 C   0  0  0  0  0  0  0  0  0  0  0  0
  130.2900  133.1530   57.0480 O   0  0  0  0  0  0  0  0  0  0  0  0
  130.8160  129.6220   58.9390 C   0  0  0  0  0  0  0  0  0  0  0  0
  130.5740  130.1480   60.2140 C   0  0  0  0  0  0  0  0  0  0  0  0
  131.5900  130.7790   60.9260 C   0  0  0  0  0  0  0  0  0  0  0  0
  132.8600  130.8870   60.3670 C   0  0  0  0  0  0  0  0  0  0  0  0
  133.8480  131.4990   61.0590 F   0  0  0  0  0  0  0  0  0  0  0  0
  133.1210  130.3690   59.1010 C   0  0  0  0  0  0  0  0  0  0  0  0
  132.1030  129.7390   58.3900 C   0  0  0  0  0  0  0  0  0  0  0  0
  132.0620  125.4880   59.2200 N   0  0  0  0  0  0  0  0  0  0  0  0
  133.0520  124.3450   62.1400 C   0  0  0  0  0  0  0  0  0  0  0  0
  132.8500  123.7710   63.4070 C   0  0  0  0  0  0  0  0  0  0  0  0
  133.3890  124.2810   64.5750 O   0  0  0  0  0  0  0  0  0  0  0  0
  132.9860  125.5670   65.0330 C   0  0  0  0  0  0  0  0  0  0  0  0
  1  2  1  0
  2  3  1  0
  3  4  2  0
  4  5  1  0
  5  6  2  0
  6  7  1  0
  7  8  1  0
  8  9  2  0
  9 10  1  0
 10 11  1  0
 11 12  1  0
 12 13  2  0
 12 14  1  0
 14 15  1  0
 15 16  1  0
 16 17  1  0
 17 18  1  0
 18 19  1  0
 19 20  1  0
 20 21  1  0
 21 22  1  0
 22 23  1  0
 24 14  1  6
 24 25  1  0
 25 26  2  0
 25 27  1  0
 27 28  1  0
 29 28  1  1
 29 30  1  0
 30 31  1  0
 31 32  1  0
 32 33  1  0
 24 34  1  0
 34 35  2  0
 35 36  1  0
 36 37  2  0
 37 38  1  0
 37 39  1  0
 39 40  2  0
 10 41  1  0
  6 42  1  0
 42 43  2  0
 43 44  1  0
 44 45  1  0
 43  3  1  0
 41  7  2  0
 23 18  1  0
 33 29  1  0
 40 34  1  0
M  END
>  <Binding energies>  (71) 
[-11.06]

>  <Ligand effiencies>  (71) 
[-0.24043478260869566]

>  <Interactions>  (71) 
["V-A:LEU:363:CA:3184, V-B:LEU:363:CD1:8159, V-B:TYR:531:CZ:9765, V-A:PRO:540:CB:4884, V-A:TYR:539:C:4866, V-B:TYR:531:CE2:9764, V-A:ASP:366:CG:3212, V-A:ASN:362:C:3171, V-A:ASN:362:CB:3175, V-A:MET:535:CG:4832, V-A:ASN:362:CA:3173, H-B:TYR:531:OH:9766, V-A:TYR:531:CE2:4792, V-A:LEU:363:CD1:3188, V-A:PRO:540:N:4883, V-B:MET:535:CE:9806, V-A:PRO:540:CA:4882, V-A:TYR:539:CE1:4874, V-B:TYR:539:CE2:9847, V-B:PRO:540:CB:9856, V-B:PRO:540:N:9855, H-A:TYR:539:N:4869, V-A:PRO:540:CD:4886, V-B:PRO:540:CD:9858, V-A:TYR:531:CZ:4793, H-A:TYR:531:OH:4794, V-A:ILE:538:CB:4861, V-A:ARG:545:CZ:4925, H-A:GLY:454:N:4049, H-A:TYR:484:OH:4347, V-A:LEU:475:CD2:4258, V-B:ALA:541:CB:9863, V-B:ILE:538:CA:9831, V-A:GLY:454:CA:4048, V-A:TYR:484:CZ:4346, V-A:LEU:475:CD1:4257, V-A:TYR:484:CE2:4345, V-A:ASP:366:CB:3211, V-A:ASP:366:CA:3209, V-A:ASP:366:C:3207, H-B:TYR:539:OH:9849, V-A:TYR:531:CE1:4791, V-A:ILE:538:CA:4859, V-A:ILE:538:CG2:4862, V-B:ILE:538:C:9829, V-A:LEU:475:CG:4256"]

$$$$
RR17_Rahimova_2017
     RDKit          3D

 38 41  0  0  0  0  0  0  0  0999 V2000
  132.6780  132.5940   57.4250 C   0  0  0  0  0  0  0  0  0  0  0  0
  132.3170  133.6270   56.3530 C   0  0  0  0  0  0  0  0  0  0  0  0
  130.9700  134.0470   56.5590 O   0  0  0  0  0  0  0  0  0  0  0  0
  129.9420  133.1440   56.3620 C   0  0  0  0  0  0  0  0  0  0  0  0
  129.4470  133.0360   55.0630 C   0  0  0  0  0  0  0  0  0  0  0  0
  128.4120  132.1560   54.7690 C   0  0  0  0  0  0  0  0  0  0  0  0
  127.8440  131.3600   55.7750 C   0  0  0  0  0  0  0  0  0  0  0  0
  126.7280  130.4180   55.4280 C   0  0  0  0  0  0  0  0  0  0  0  0
  125.8450  130.7100   54.6160 O   0  0  0  0  0  0  0  0  0  0  0  0
  126.7150  129.0510   56.1470 C   0  0  0  0  0  0  0  0  0  0  0  0
  128.1420  128.0090   55.6730 S   0  0  0  0  0  0  0  0  0  0  0  0
  128.9330  127.8400   57.2480 C   0  0  0  0  0  0  0  0  0  0  0  0
  129.6360  128.7710   57.8500 N   0  0  0  0  0  0  0  0  0  0  0  0
  130.0780  128.2540   59.0610 N   0  0  0  0  0  0  0  0  0  0  0  0
  129.6210  127.0300   59.1480 C   0  0  0  0  0  0  0  0  0  0  0  0
  129.8620  126.1010   60.3280 C   0  0  0  0  0  0  0  0  0  0  0  0
  131.2370  125.6160   60.4270 N   0  0  0  0  0  0  0  0  0  0  0  0
  131.5760  124.2630   60.6060 C   0  0  0  0  0  0  0  0  0  0  0  0
  132.9260  123.9220   60.5180 C   0  0  0  0  0  0  0  0  0  0  0  0
  133.3310  122.6010   60.6800 C   0  0  0  0  0  0  0  0  0  0  0  0
  132.3880  121.6020   60.9380 C   0  0  0  0  0  0  0  0  0  0  0  0
  132.8480  120.1540   61.1070 C   0  0  0  0  0  0  0  0  0  0  0  0
  133.3790  119.9300   62.3110 F   0  0  0  0  0  0  0  0  0  0  0  0
  131.8220  119.3180   60.9480 F   0  0  0  0  0  0  0  0  0  0  0  0
  133.7710  119.8790   60.1850 F   0  0  0  0  0  0  0  0  0  0  0  0
  131.0350  121.9420   61.0350 C   0  0  0  0  0  0  0  0  0  0  0  0
  130.6310  123.2640   60.8740 C   0  0  0  0  0  0  0  0  0  0  0  0
  128.8950  126.6990   58.0230 N   0  0  0  0  0  0  0  0  0  0  0  0
  128.2400  125.4890   57.7480 C   0  0  0  0  0  0  0  0  0  0  0  0
  126.8470  125.4620   57.6750 C   0  0  0  0  0  0  0  0  0  0  0  0
  126.1980  124.2600   57.4060 C   0  0  0  0  0  0  0  0  0  0  0  0
  126.9390  123.0840   57.2080 C   0  0  0  0  0  0  0  0  0  0  0  0
  126.3810  121.8490   56.9360 O   0  0  0  0  0  0  0  0  0  0  0  0
  125.2330  121.7750   56.0980 C   0  0  0  0  0  0  0  0  0  0  0  0
  128.3330  123.1300   57.2880 C   0  0  0  0  0  0  0  0  0  0  0  0
  128.9890  124.3280   57.5560 C   0  0  0  0  0  0  0  0  0  0  0  0
  128.3430  131.4690   57.0820 C   0  0  0  0  0  0  0  0  0  0  0  0
  129.3800  132.3500   57.3730 C   0  0  0  0  0  0  0  0  0  0  0  0
  1  2  1  0
  2  3  1  0
  3  4  1  0
  4  5  2  0
  5  6  1  0
  6  7  2  0
  7  8  1  0
  8  9  2  0
  8 10  1  0
 10 11  1  0
 11 12  1  0
 12 13  2  0
 13 14  1  0
 14 15  2  0
 15 16  1  0
 16 17  1  0
 17 18  1  0
 18 19  2  0
 19 20  1  0
 20 21  2  0
 21 22  1  0
 22 23  1  0
 22 24  1  0
 22 25  1  0
 21 26  1  0
 26 27  2  0
 15 28  1  0
 28 29  1  0
 29 30  2  0
 30 31  1  0
 31 32  2  0
 32 33  1  0
 33 34  1  0
 32 35  1  0
 35 36  2  0
  7 37  1  0
 37 38  2  0
 38  4  1  0
 28 12  1  0
 36 29  1  0
 27 18  1  0
M  END
>  <Binding energies>  (72) 
[-8.34]

>  <Ligand effiencies>  (72) 
[-0.21384615384615385]

>  <Interactions>  (72) 
["V-B:LEU:363:CD1:8159, V-A:TYR:539:CZ:4876, V-A:PRO:540:CB:4884, V-A:TYR:539:CD1:4872, V-B:TYR:539:CZ:9848, V-A:ASP:366:CG:3212, V-A:MET:535:CG:4832, V-B:TYR:531:CE1:9763, H-B:TYR:531:OH:9766, V-A:TYR:531:CE2:4792, V-A:LEU:363:CD1:3188, V-A:PRO:540:N:4883, V-B:TYR:539:CD2:9845, V-B:MET:535:CE:9806, V-B:TYR:539:CE1:9846, V-A:PRO:540:CA:4882, V-A:TYR:539:CE1:4874, V-B:TYR:539:CD1:9844, V-B:TYR:539:CG:9843, V-B:TYR:539:CE2:9847, V-B:ILE:538:CG2:9834, H-B:TYR:539:N:9841, V-B:PRO:540:CB:9856, V-B:ILE:538:CD1:9836, V-B:PRO:540:N:9855, H-A:TYR:539:N:4869, V-A:PRO:540:CD:4886, V-B:PRO:540:CD:9858, H-A:TYR:531:OH:4794, V-B:PRO:540:CG:9857, V-A:ILE:538:CB:4861, H-A:ASP:366:OD1:3213, V-A:ILE:369:CD1:3238, H-A:ASP:366:OD2:3214, V-A:LEU:475:CD2:4258, V-A:SER:385:C:3404, V-A:ILE:369:CG2:3236, V-B:ILE:538:CA:9831, V-A:SER:385:CA:3406, V-A:SER:385:CB:3408, H-A:TYR:539:OH:4877, V-A:ILE:538:CA:4859, V-B:ILE:538:C:9829, V-B:ILE:538:CB:9833"]

$$$$
RR19_Rahimova_2017
     RDKit          3D

 46 51  0  0  0  0  0  0  0  0999 V2000
  125.3310  132.4050   64.0260 O   0  0  0  0  0  0  0  0  0  0  0  0
  125.6290  131.6560   63.0910 C   0  0  0  0  0  0  0  0  0  0  0  0
  126.8210  131.6250   62.4430 N   0  0  0  0  0  0  0  0  0  0  0  0
  128.0470  132.1810   62.7130 C   0  0  0  0  0  0  0  0  0  0  0  0
  128.4940  132.9250   64.1670 S   0  0  0  0  0  0  0  0  0  0  0  0
  128.8500  132.0310   61.6090 N   0  0  0  0  0  0  0  0  0  0  0  0
  130.1680  132.2640   61.3870 C   0  0  0  0  0  0  0  0  0  0  0  0
  131.0210  132.5160   62.2420 O   0  0  0  0  0  0  0  0  0  0  0  0
  130.5710  132.2160   59.8920 C   0  0  2  0  0  0  0  0  0  0  0  0
  129.7970  133.2070   58.9750 C   0  0  0  0  0  0  0  0  0  0  0  0
  130.2270  133.2100   57.5170 C   0  0  0  0  0  0  0  0  0  0  0  0
  131.5830  133.3800   57.1620 C   0  0  0  0  0  0  0  0  0  0  0  0
  131.9670  133.3020   55.8300 C   0  0  0  0  0  0  0  0  0  0  0  0
  131.0250  133.0380   54.8430 C   0  0  0  0  0  0  0  0  0  0  0  0
  129.6930  132.8390   55.1800 C   0  0  0  0  0  0  0  0  0  0  0  0
  129.2880  132.9110   56.5060 C   0  0  0  0  0  0  0  0  0  0  0  0
  130.5180  130.8260   59.3620 N   0  0  0  0  0  0  0  0  0  0  0  0
  129.3290  130.1970   59.1370 C   0  0  0  0  0  0  0  0  0  0  0  0
  128.1990  130.6400   59.3510 O   0  0  0  0  0  0  0  0  0  0  0  0
  129.6820  128.8700   58.5770 C   0  0  0  0  0  0  0  0  0  0  0  0
  128.8770  127.8070   58.1670 C   0  0  0  0  0  0  0  0  0  0  0  0
  129.4920  126.6560   57.6620 C   0  0  0  0  0  0  0  0  0  0  0  0
  130.8890  126.5830   57.5720 C   0  0  0  0  0  0  0  0  0  0  0  0
  131.6790  127.6610   57.9880 C   0  0  0  0  0  0  0  0  0  0  0  0
  131.0460  128.7990   58.4900 C   0  0  0  0  0  0  0  0  0  0  0  0
  131.6020  130.0800   58.9920 C   0  0  0  0  0  0  0  0  0  0  0  0
  132.7900  130.4020   59.0500 O   0  0  0  0  0  0  0  0  0  0  0  0
  124.5800  130.6450   62.5550 C   0  0  2  0  0  0  0  0  0  0  0  0
  124.6650  129.2390   63.2160 C   0  0  0  0  0  0  0  0  0  0  0  0
  124.8510  129.2750   64.7220 C   0  0  0  0  0  0  0  0  0  0  0  0
  123.7510  129.5460   65.5640 C   0  0  0  0  0  0  0  0  0  0  0  0
  123.9010  129.4790   66.9440 C   0  0  0  0  0  0  0  0  0  0  0  0
  125.1220  129.1190   67.4990 C   0  0  0  0  0  0  0  0  0  0  0  0
  126.2020  128.8110   66.6810 C   0  0  0  0  0  0  0  0  0  0  0  0
  126.0730  128.8730   65.3000 C   0  0  0  0  0  0  0  0  0  0  0  0
  124.5560  130.5490   61.0680 N   0  0  0  0  0  0  0  0  0  0  0  0
  123.6590  131.2490   60.3180 C   0  0  0  0  0  0  0  0  0  0  0  0
  122.7750  132.0040   60.7250 O   0  0  0  0  0  0  0  0  0  0  0  0
  123.9740  130.9090   58.9080 C   0  0  0  0  0  0  0  0  0  0  0  0
  123.3820  131.3220   57.7140 C   0  0  0  0  0  0  0  0  0  0  0  0
  123.8970  130.8340   56.5070 C   0  0  0  0  0  0  0  0  0  0  0  0
  124.9850  129.9520   56.5090 C   0  0  0  0  0  0  0  0  0  0  0  0
  125.5660  129.5510   57.7180 C   0  0  0  0  0  0  0  0  0  0  0  0
  125.0370  130.0470   58.9100 C   0  0  0  0  0  0  0  0  0  0  0  0
  125.4310  129.8130   60.3200 C   0  0  0  0  0  0  0  0  0  0  0  0
  126.3520  129.1050   60.7300 O   0  0  0  0  0  0  0  0  0  0  0  0
  1  2  2  0
  2  3  1  0
  3  4  1  0
  4  5  2  0
  4  6  1  0
  6  7  1  0
  7  8  2  0
  7  9  1  0
  9 10  1  6
 10 11  1  0
 11 12  2  0
 12 13  1  0
 13 14  2  0
 14 15  1  0
 15 16  2  0
  9 17  1  0
 17 18  1  0
 18 19  2  0
 18 20  1  0
 20 21  2  0
 21 22  1  0
 22 23  2  0
 23 24  1  0
 24 25  2  0
 25 26  1  0
 26 27  2  0
  2 28  1  0
 28 29  1  1
 29 30  1  0
 30 31  2  0
 31 32  1  0
 32 33  2  0
 33 34  1  0
 34 35  2  0
 28 36  1  0
 36 37  1  0
 37 38  2  0
 37 39  1  0
 39 40  2  0
 40 41  1  0
 41 42  2  0
 42 43  1  0
 43 44  2  0
 44 45  1  0
 45 46  2  0
 16 11  1  0
 26 17  1  0
 35 30  1  0
 45 36  1  0
 25 20  1  0
 44 39  1  0
M  END
>  <Binding energies>  (73) 
[-10.63]

>  <Ligand effiencies>  (73) 
[-0.22145833333333334]

>  <Interactions>  (73) 
["V-A:TYR:539:CZ:4876, V-B:ILE:369:CB:8206, V-A:PRO:540:CB:4884, V-A:TYR:539:CD1:4872, V-A:TYR:539:C:4866, V-A:MET:535:CB:4831, V-A:ASP:366:CG:3212, V-B:ASN:370:CB:8215, V-A:MET:535:CG:4832, V-B:TYR:531:CE1:9763, V-A:TYR:531:CE2:4792, V-A:LEU:363:CD1:3188, V-A:PRO:540:N:4883, V-B:ILE:369:CG2:8207, V-A:PRO:540:CA:4882, V-A:TYR:539:CE1:4874, V-B:ASP:366:CG:8183, V-B:ASP:366:CB:8182, V-B:GLY:453:CA:9014, V-A:ALA:541:CB:4891, V-B:GLY:453:C:9012, V-B:ARG:545:CZ:9897, V-A:PRO:540:CD:4886, V-A:TYR:531:CZ:4793, H-A:TYR:531:OH:4794, V-A:ILE:538:CB:4861, V-B:GLU:543:CD:9879, V-A:GLU:543:CG:4906, H-A:ALA:541:N:4890, V-A:ASP:366:CB:3211, V-A:ILE:538:CA:4859, V-A:ILE:538:CG2:4862, V-B:ASP:366:CA:8180, V-B:ASP:366:C:8178, V-B:ARG:545:CG:9893, V-B:ARG:545:CD:9894, V-B:GLY:454:CA:9019"]

$$$$
RR1_Rahimova_2017
     RDKit          3D

 41 44  0  0  0  0  0  0  0  0999 V2000
  125.0190  122.3320   55.7460 C   0  0  0  0  0  0  0  0  0  0  0  0
  126.4010  122.2380   56.0730 O   0  0  0  0  0  0  0  0  0  0  0  0
  126.8240  122.6230   57.3310 C   0  0  0  0  0  0  0  0  0  0  0  0
  125.9870  123.1780   58.3110 C   0  0  0  0  0  0  0  0  0  0  0  0
  126.5040  123.5440   59.5510 C   0  0  0  0  0  0  0  0  0  0  0  0
  127.8580  123.3560   59.8340 C   0  0  0  0  0  0  0  0  0  0  0  0
  128.2950  123.7990   61.0970 N   0  0  0  0  0  0  0  0  0  0  0  0
  127.8110  123.5020   62.3220 C   0  0  0  0  0  0  0  0  0  0  0  0
  126.8130  122.8120   62.5340 O   0  0  0  0  0  0  0  0  0  0  0  0
  128.6070  124.1070   63.4890 C   0  0  0  0  0  0  0  0  0  0  0  0
  129.2110  122.9100   64.7300 S   0  0  0  0  0  0  0  0  0  0  0  0
  130.5460  122.2450   63.7920 C   0  0  0  0  0  0  0  0  0  0  0  0
  130.4170  121.3030   62.8920 N   0  0  0  0  0  0  0  0  0  0  0  0
  131.6530  121.1260   62.4370 C   0  0  0  0  0  0  0  0  0  0  0  0
  131.9780  120.1300   61.3600 C   0  0  0  0  0  0  0  0  0  0  0  0
  133.1670  120.2130   60.6180 C   0  0  0  0  0  0  0  0  0  0  0  0
  133.4400  119.2750   59.6210 C   0  0  0  0  0  0  0  0  0  0  0  0
  132.5100  118.2640   59.3870 C   0  0  0  0  0  0  0  0  0  0  0  0
  131.3510  118.1540   60.0850 N   0  0  0  0  0  0  0  0  0  0  0  0
  131.1050  119.0760   61.0500 C   0  0  0  0  0  0  0  0  0  0  0  0
  132.5760  121.8880   62.9940 N   0  0  0  0  0  0  0  0  0  0  0  0
  131.8660  122.6090   63.8680 N   0  0  0  0  0  0  0  0  0  0  0  0
  132.5180  123.6210   64.6980 C   0  0  0  0  0  0  0  0  0  0  0  0
  132.6860  124.9980   64.0330 C   0  0  0  0  0  0  0  0  0  0  0  0
  133.8050  125.5090   63.9100 O   0  0  0  0  0  0  0  0  0  0  0  0
  131.5410  125.5720   63.6160 N   0  0  0  0  0  0  0  0  0  0  0  0
  131.6270  126.7430   62.8760 N   0  0  0  0  0  0  0  0  0  0  0  0
  130.6110  127.0350   62.0360 C   0  0  0  0  0  0  0  0  0  0  0  0
  129.5650  126.3810   61.9610 O   0  0  0  0  0  0  0  0  0  0  0  0
  130.8050  128.2660   61.1740 C   0  0  0  0  0  0  0  0  0  0  0  0
  130.7340  128.1610   59.7810 C   0  0  0  0  0  0  0  0  0  0  0  0
  130.9210  129.2750   58.9700 C   0  0  0  0  0  0  0  0  0  0  0  0
  131.1930  130.5340   59.5310 C   0  0  0  0  0  0  0  0  0  0  0  0
  131.4030  131.6780   58.7820 O   0  0  0  0  0  0  0  0  0  0  0  0
  132.7180  131.9960   58.3400 C   0  0  0  0  0  0  0  0  0  0  0  0
  131.2760  130.6580   60.9240 C   0  0  0  0  0  0  0  0  0  0  0  0
  131.5670  131.9160   61.4260 O   0  0  0  0  0  0  0  0  0  0  0  0
  132.8040  132.1390   62.0920 C   0  0  0  0  0  0  0  0  0  0  0  0
  131.0780  129.5250   61.7330 C   0  0  0  0  0  0  0  0  0  0  0  0
  128.6980  122.8000   58.8570 C   0  0  0  0  0  0  0  0  0  0  0  0
  128.1760  122.4350   57.6190 C   0  0  0  0  0  0  0  0  0  0  0  0
  1  2  1  0
  2  3  1  0
  3  4  2  0
  4  5  1  0
  5  6  2  0
  6  7  1  0
  7  8  1  0
  8  9  2  0
  8 10  1  0
 10 11  1  0
 11 12  1  0
 12 13  2  0
 13 14  1  0
 14 15  1  0
 15 16  2  0
 16 17  1  0
 17 18  2  0
 18 19  1  0
 19 20  2  0
 14 21  2  0
 21 22  1  0
 22 23  1  0
 23 24  1  0
 24 25  2  0
 24 26  1  0
 26 27  1  0
 27 28  1  0
 28 29  2  0
 28 30  1  0
 30 31  2  0
 31 32  1  0
 32 33  2  0
 33 34  1  0
 34 35  1  0
 33 36  1  0
 36 37  1  0
 37 38  1  0
 36 39  2  0
  6 40  1  0
 40 41  2  0
 41  3  1  0
 22 12  1  0
 39 30  1  0
 20 15  1  0
M  END
>  <Binding energies>  (74) 
[-9.47]

>  <Ligand effiencies>  (74) 
[-0.21522727272727274]

>  <Interactions>  (74) 
["V-B:LEU:363:CD1:8159, V-A:PRO:540:CB:4884, V-B:TYR:539:CZ:9848, V-B:TYR:531:CE2:9764, V-A:ASP:366:CG:3212, V-A:ASN:362:CB:3175, V-A:LEU:363:CD1:3188, V-B:TYR:539:CD2:9845, V-B:MET:535:CE:9806, V-B:TYR:539:CE1:9846, V-A:PRO:540:CA:4882, V-B:TYR:539:C:9838, V-B:TYR:539:CA:9840, V-B:TYR:539:CD1:9844, V-B:TYR:539:CG:9843, V-B:TYR:539:CE2:9847, V-B:ILE:538:CG2:9834, H-B:TYR:539:N:9841, V-B:PRO:540:CA:9854, V-B:PRO:540:CB:9856, V-B:ILE:538:CD1:9836, V-B:PRO:540:N:9855, V-B:PRO:540:CD:9858, H-A:ASP:366:OD1:3213, V-B:GLU:543:CD:9879, H-A:GLY:454:N:4049, H-A:ARG:545:NH1:4926, H-A:ARG:545:NH2:4927, H-A:ASP:366:OD2:3214, V-B:GLU:543:CG:9878, V-A:LEU:475:CD2:4258, V-B:ALA:541:CB:9863, V-A:ILE:369:CG2:3236, V-B:ILE:538:CA:9831, V-A:SER:385:CA:3406, V-B:TYR:539:CB:9842, V-A:GLY:454:CA:4048, V-A:TYR:484:CZ:4346, H-A:ALA:541:N:4890, H-B:ALA:541:N:9862, V-B:ILE:538:CB:9833, V-A:LEU:373:CD2:3280"]

$$$$
RR22_Rahimova_2017
     RDKit          3D

 31 36  0  0  0  0  0  0  0  0999 V2000
  125.9800  123.1790   62.1150 O   0  0  0  0  0  0  0  0  0  0  0  0
  127.1070  123.5880   61.8490 C   0  0  0  0  0  0  0  0  0  0  0  0
  128.1690  123.7650   62.7200 N   0  0  0  0  0  0  0  0  0  0  0  0
  129.4440  124.1960   62.2350 C   0  0  1  0  0  0  0  0  0  0  0  0
  129.7550  125.3700   62.9910 O   0  0  0  0  0  0  0  0  0  0  0  0
  130.9150  125.3720   63.7660 C   0  0  0  0  0  0  0  0  0  0  0  0
  131.0010  126.3510   64.7560 C   0  0  0  0  0  0  0  0  0  0  0  0
  132.1480  126.4410   65.5450 C   0  0  0  0  0  0  0  0  0  0  0  0
  133.2090  125.5590   65.3370 C   0  0  0  0  0  0  0  0  0  0  0  0
  133.1240  124.5800   64.3460 C   0  0  0  0  0  0  0  0  0  0  0  0
  131.9700  124.4620   63.5650 C   0  0  0  0  0  0  0  0  0  0  0  0
  131.7960  123.4660   62.4400 C   0  0  1  0  0  0  0  0  0  0  0  0
  132.4410  122.0950   62.4590 C   0  0  0  0  0  0  0  0  0  0  0  0
  131.4110  121.3090   61.6440 C   0  0  0  0  0  0  0  0  0  0  0  0
  131.7130  120.0060   61.0190 C   0  0  0  0  0  0  0  0  0  0  0  0
  130.8640  118.9060   61.2180 C   0  0  0  0  0  0  0  0  0  0  0  0
  131.1530  117.6800   60.6260 C   0  0  0  0  0  0  0  0  0  0  0  0
  132.2890  117.5440   59.8330 C   0  0  0  0  0  0  0  0  0  0  0  0
  133.1410  118.6260   59.6260 C   0  0  0  0  0  0  0  0  0  0  0  0
  132.8530  119.8540   60.2160 C   0  0  0  0  0  0  0  0  0  0  0  0
  130.2860  121.9200   61.6100 N   0  0  0  0  0  0  0  0  0  0  0  0
  130.4150  123.0990   62.3630 N   0  0  0  0  0  0  0  0  0  0  0  0
  129.2360  124.6360   60.7930 C   0  0  0  0  0  0  0  0  0  0  0  0
  130.1200  125.4120   60.1240 C   0  0  0  0  0  0  0  0  0  0  0  0
  130.0530  125.8910   58.7300 C   0  0  0  0  0  0  0  0  0  0  0  0
  128.8450  126.1030   58.0490 C   0  0  0  0  0  0  0  0  0  0  0  0
  128.8590  126.5570   56.7290 C   0  0  0  0  0  0  0  0  0  0  0  0
  130.0910  126.7840   56.1170 C   0  0  0  0  0  0  0  0  0  0  0  0
  131.2740  126.5800   56.7480 N   0  0  0  0  0  0  0  0  0  0  0  0
  131.2400  126.1390   58.0320 C   0  0  0  0  0  0  0  0  0  0  0  0
  127.6670  124.0800   60.1910 S   0  0  0  0  0  0  0  0  0  0  0  0
  1  2  2  0
  2  3  1  0
  4  3  1  1
  4  5  1  0
  5  6  1  0
  6  7  2  0
  7  8  1  0
  8  9  2  0
  9 10  1  0
 10 11  2  0
 11 12  1  0
 12 13  1  1
 13 14  1  0
 14 15  1  0
 15 16  2  0
 16 17  1  0
 17 18  2  0
 18 19  1  0
 19 20  2  0
 14 21  2  0
 21 22  1  0
  4 23  1  0
 23 24  2  0
 24 25  1  0
 25 26  2  0
 26 27  1  0
 27 28  2  0
 28 29  1  0
 29 30  2  0
 23 31  1  0
 31  2  1  0
 22  4  1  0
 30 25  1  0
 11  6  1  0
 22 12  1  0
 20 15  1  0
M  END
>  <Binding energies>  (75) 
[-9.23]

>  <Ligand effiencies>  (75) 
[-0.2884375]

>  <Interactions>  (75) 
["V-B:TYR:539:CD2:9845, V-B:MET:535:CE:9806, V-B:TYR:539:CE2:9847, V-B:PRO:540:CA:9854, H-A:TYR:531:OH:4794, V-B:GLU:543:CD:9879, V-A:ARG:545:CZ:4925, V-A:LEU:475:CD2:4258, V-A:HIS:383:CE1:3393, V-A:ILE:369:CG2:3236, V-A:SER:385:CA:3406, V-B:TYR:539:CB:9842, V-A:GLY:454:CA:4048, V-A:GLU:543:CD:4907, H-B:GLU:543:OE2:9881, H-B:GLU:543:OE1:9880, V-A:MET:535:CE:4834, H-B:TYR:539:OH:9849, H-B:ALA:541:N:9862, H-B:ALA:541:O:9860, V-A:VAL:384:C:3396, V-A:LEU:373:CD2:3280"]

$$$$
RR24_Rahimova_2017
     RDKit          3D

 43 49  0  0  0  0  0  0  0  0999 V2000
  133.8050  130.5550   59.9650 C   0  0  0  0  0  0  0  0  0  0  0  0
  132.9060  131.7660   60.2500 C   0  0  2  0  0  0  0  0  0  0  0  0
  131.9800  131.5670   61.4860 C   0  0  0  0  0  0  0  0  0  0  0  0
  131.5610  132.5190   62.1520 O   0  0  0  0  0  0  0  0  0  0  0  0
  131.7270  130.2500   61.7420 O   0  0  0  0  0  0  0  0  0  0  0  0
  130.5130  129.7090   61.3840 C   0  0  0  0  0  0  0  0  0  0  0  0
  130.2170  129.5260   60.0310 C   0  0  0  0  0  0  0  0  0  0  0  0
  128.9970  128.9720   59.6580 C   0  0  0  0  0  0  0  0  0  0  0  0
  128.0700  128.5910   60.6330 C   0  0  0  0  0  0  0  0  0  0  0  0
  126.7190  127.9990   60.2140 C   0  0  1  0  0  0  0  0  0  0  0  0
  125.9270  128.9590   59.2960 C   0  0  0  0  0  0  0  0  0  0  0  0
  125.4020  128.5740   58.1180 C   0  0  0  0  0  0  0  0  0  0  0  0
  125.5350  127.2930   57.6410 N   0  0  0  0  0  0  0  0  0  0  0  0
  126.2180  126.3340   58.3510 C   0  0  0  0  0  0  0  0  0  0  0  0
  126.2500  125.1180   57.7470 N   0  0  0  0  0  0  0  0  0  0  0  0
  126.9460  124.0680   58.2610 C   0  0  0  0  0  0  0  0  0  0  0  0
  127.2070  123.1060   57.5370 O   0  0  0  0  0  0  0  0  0  0  0  0
  127.4350  124.2850   59.5400 N   0  0  0  0  0  0  0  0  0  0  0  0
  128.1200  123.1440   60.1810 C   0  0  0  0  0  0  0  0  0  0  0  0
  127.4570  125.4770   60.2440 C   0  0  0  0  0  0  0  0  0  0  0  0
  127.9590  125.6110   61.3650 O   0  0  0  0  0  0  0  0  0  0  0  0
  126.8020  126.5910   59.5510 C   0  0  0  0  0  0  0  0  0  0  0  0
  124.7140  129.6790   57.4730 C   0  0  0  0  0  0  0  0  0  0  0  0
  124.0260  129.7960   56.2640 C   0  0  0  0  0  0  0  0  0  0  0  0
  123.4620  131.0260   55.9170 C   0  0  0  0  0  0  0  0  0  0  0  0
  123.5850  132.1240   56.7730 C   0  0  0  0  0  0  0  0  0  0  0  0
  124.2750  132.0010   57.9820 C   0  0  0  0  0  0  0  0  0  0  0  0
  124.8390  130.7700   58.3230 C   0  0  0  0  0  0  0  0  0  0  0  0
  125.6060  130.3650   59.5200 C   0  0  0  0  0  0  0  0  0  0  0  0
  125.9280  131.0220   60.5080 O   0  0  0  0  0  0  0  0  0  0  0  0
  128.3770  128.7590   61.9870 C   0  0  0  0  0  0  0  0  0  0  0  0
  129.5980  129.3110   62.3620 C   0  0  0  0  0  0  0  0  0  0  0  0
  132.1500  132.2020   59.0380 N   0  0  0  0  0  0  0  0  0  0  0  0
  132.7250  132.2090   57.8030 C   0  0  0  0  0  0  0  0  0  0  0  0
  133.8800  131.8900   57.5140 O   0  0  0  0  0  0  0  0  0  0  0  0
  131.6670  132.6850   56.8770 C   0  0  0  0  0  0  0  0  0  0  0  0
  131.6870  132.8920   55.4980 C   0  0  0  0  0  0  0  0  0  0  0  0
  130.5210  133.3510   54.8740 C   0  0  0  0  0  0  0  0  0  0  0  0
  129.3650  133.5930   55.6260 C   0  0  0  0  0  0  0  0  0  0  0  0
  129.3650  133.3780   57.0090 C   0  0  0  0  0  0  0  0  0  0  0  0
  130.5380  132.9210   57.6130 C   0  0  0  0  0  0  0  0  0  0  0  0
  130.8420  132.6040   59.0310 C   0  0  0  0  0  0  0  0  0  0  0  0
  130.0770  132.6820   59.9930 O   0  0  0  0  0  0  0  0  0  0  0  0
  2  1  1  6
  2  3  1  0
  3  4  2  0
  3  5  1  0
  5  6  1  0
  6  7  2  0
  7  8  1  0
  8  9  2  0
 10  9  1  6
 10 11  1  0
 11 12  2  0
 12 13  1  0
 13 14  1  0
 14 15  1  0
 15 16  1  0
 16 17  2  0
 16 18  1  0
 18 19  1  0
 18 20  1  0
 20 21  2  0
 20 22  1  0
 12 23  1  0
 23 24  2  0
 24 25  1  0
 25 26  2  0
 26 27  1  0
 27 28  2  0
 28 29  1  0
 29 30  2  0
  9 31  1  0
 31 32  2  0
  2 33  1  0
 33 34  1  0
 34 35  2  0
 34 36  1  0
 36 37  2  0
 37 38  1  0
 38 39  2  0
 39 40  1  0
 40 41  2  0
 41 42  1  0
 42 43  2  0
 32  6  1  0
 42 33  1  0
 22 10  1  0
 28 23  1  0
 41 36  1  0
 29 11  1  0
 22 14  2  0
M  END
>  <Binding energies>  (76) 
[-10.47]

>  <Ligand effiencies>  (76) 
[-0.2326666666666667]

>  <Interactions>  (76) 
["V-A:LEU:363:CA:3184, V-B:TYR:531:CZ:9765, V-A:TYR:539:CZ:4876, V-B:ILE:369:CB:8206, V-A:PRO:540:CB:4884, V-A:TYR:539:CD1:4872, V-A:TYR:539:C:4866, V-B:ILE:369:C:8202, V-A:ASP:366:CG:3212, V-B:ASN:370:CB:8215, V-A:ASN:362:C:3171, V-A:MET:535:CG:4832, V-B:TYR:531:CE1:9763, H-B:TYR:531:OH:9766, V-A:TYR:531:CE2:4792, V-A:LEU:363:CD1:3188, V-A:PRO:540:N:4883, V-B:ILE:369:CG2:8207, V-A:PRO:540:CA:4882, V-A:TYR:539:CE1:4874, V-B:ASN:370:CA:8213, V-B:ASP:366:CB:8182, V-B:PRO:540:CA:9854, V-A:TYR:531:CZ:4793, H-A:TYR:531:OH:4794, V-A:TYR:539:CG:4871, V-A:ILE:538:CB:4861, H-A:ARG:545:NH2:4927, H-A:ALA:541:N:4890, V-A:ASP:366:CB:3211, V-A:ILE:538:CA:4859, V-A:TYR:539:CE2:4875, V-A:ILE:538:CG2:4862, V-B:ASP:366:C:8178, V-A:TYR:539:CD2:4873, V-B:TYR:531:CD1:9761"]

$$$$
RR25_Rahimova_2017
     RDKit          3D

 39 44  0  0  0  0  0  0  0  0999 V2000
  122.7670  129.5660   67.4780 O   0  0  0  0  0  0  0  0  0  0  0  0
  123.9030  129.1190   67.6380 C   0  0  0  0  0  0  0  0  0  0  0  0
  124.2480  128.7830   68.9240 O   0  0  0  0  0  0  0  0  0  0  0  0
  125.3860  128.0470   69.1970 C   0  0  0  0  0  0  0  0  0  0  0  0
  125.3810  127.2970   70.3730 C   0  0  0  0  0  0  0  0  0  0  0  0
  126.4990  126.5390   70.7140 C   0  0  0  0  0  0  0  0  0  0  0  0
  127.6350  126.5220   69.8920 C   0  0  0  0  0  0  0  0  0  0  0  0
  128.8210  125.7080   70.2550 N   0  0  0  0  0  0  0  0  0  0  0  0
  129.2120  125.7240   71.4190 O   0  0  0  0  0  0  0  0  0  0  0  0
  129.3690  125.0460   69.3780 O   0  0  0  0  0  0  0  0  0  0  0  0
  127.6250  127.2940   68.7190 C   0  0  0  0  0  0  0  0  0  0  0  0
  126.5150  128.0670   68.3660 C   0  0  0  0  0  0  0  0  0  0  0  0
  126.4510  128.9080   67.1040 C   0  0  0  0  0  0  0  0  0  0  0  0
  124.9980  128.9110   66.5500 C   0  0  2  0  0  0  0  0  0  0  0  0
  124.8720  129.8450   65.3110 C   0  0  0  0  0  0  0  0  0  0  0  0
  123.7430  130.2870   65.0780 O   0  0  0  0  0  0  0  0  0  0  0  0
  125.9620  130.2560   64.5960 N   0  0  0  0  0  0  0  0  0  0  0  0
  127.2550  129.5400   64.6240 C   0  0  0  0  0  0  0  0  0  0  0  0
  128.4010  130.5700   64.5600 C   0  0  0  0  0  0  0  0  0  0  0  0
  128.2640  131.4510   63.3960 N   0  0  0  0  0  0  0  0  0  0  0  0
  129.4220  132.3440   63.2580 C   0  0  0  0  0  0  0  0  0  0  0  0
  129.2690  133.3530   62.0880 C   0  0  0  0  0  0  0  0  0  0  0  0
  129.9600  132.9920   60.8160 N   0  0  0  0  0  0  0  0  0  0  0  0
  129.2450  133.2440   59.6650 C   0  0  0  0  0  0  0  0  0  0  0  0
  128.0960  133.7020   59.6690 O   0  0  0  0  0  0  0  0  0  0  0  0
  129.9860  132.9330   58.3790 C   0  0  0  0  0  0  0  0  0  0  0  0
  129.3620  133.1770   57.1490 C   0  0  0  0  0  0  0  0  0  0  0  0
  130.0170  132.9100   55.9480 C   0  0  0  0  0  0  0  0  0  0  0  0
  131.3130  132.3970   55.9370 C   0  0  0  0  0  0  0  0  0  0  0  0
  131.9840  132.1350   57.1560 C   0  0  0  0  0  0  0  0  0  0  0  0
  133.2990  131.6170   57.2180 C   0  0  0  0  0  0  0  0  0  0  0  0
  133.9020  131.3850   58.4530 C   0  0  0  0  0  0  0  0  0  0  0  0
  133.2280  131.6560   59.6410 C   0  0  0  0  0  0  0  0  0  0  0  0
  131.9250  132.1700   59.6290 C   0  0  0  0  0  0  0  0  0  0  0  0
  131.3040  132.4100   58.3760 C   0  0  0  0  0  0  0  0  0  0  0  0
  131.2270  132.4600   60.9440 C   0  0  0  0  0  0  0  0  0  0  0  0
  131.7690  132.2480   62.0340 O   0  0  0  0  0  0  0  0  0  0  0  0
  127.0100  132.2020   63.4860 C   0  0  0  0  0  0  0  0  0  0  0  0
  125.7820  131.2610   63.5230 C   0  0  0  0  0  0  0  0  0  0  0  0
  1  2  2  0
  2  3  1  0
  3  4  1  0
  4  5  2  0
  5  6  1  0
  6  7  2  0
  7  8  1  0
  8  9  2  0
  8 10  1  0
  7 11  1  0
 11 12  2  0
 12 13  1  0
 13 14  1  0
 14 15  1  6
 15 16  2  0
 15 17  1  0
 17 18  1  0
 18 19  1  0
 19 20  1  0
 20 21  1  0
 21 22  1  0
 22 23  1  0
 23 24  1  0
 24 25  2  0
 24 26  1  0
 26 27  2  0
 27 28  1  0
 28 29  2  0
 29 30  1  0
 30 31  2  0
 31 32  1  0
 32 33  2  0
 33 34  1  0
 34 35  2  0
 34 36  1  0
 36 37  2  0
 20 38  1  0
 38 39  1  0
 14  2  1  0
 39 17  1  0
 12  4  1  0
 36 23  1  0
 35 26  1  0
 35 30  1  0
M  CHG  2   8   1  10  -1
M  END
>  <Binding energies>  (77) 
[-11.85]

>  <Ligand effiencies>  (77) 
[-0.3038461538461538]

>  <Interactions>  (77) 
["V-A:LEU:363:CA:3184, V-A:TYR:539:CZ:4876, V-A:PRO:540:CB:4884, V-A:TYR:539:CD1:4872, V-A:TYR:539:C:4866, V-A:ASN:362:C:3171, V-A:TYR:531:CE2:4792, V-A:LEU:363:CD1:3188, V-A:PRO:540:N:4883, V-A:PRO:540:CA:4882, V-A:TYR:539:CE1:4874, V-A:ALA:541:CB:4891, V-B:ARG:545:CZ:9897, H-B:GLY:454:N:9020, V-A:TYR:531:CZ:4793, V-A:TYR:539:CG:4871, V-B:GLU:543:CD:9879, V-A:GLU:543:CD:4907, V-A:GLU:543:CG:4906, H-A:ALA:541:N:4890, V-A:PRO:540:C:4880, H-B:TYR:484:OH:9318, V-A:ASP:366:CB:3211, V-A:LEU:363:C:3182, V-A:LEU:363:CB:3186, V-B:GLU:543:CA:9875, V-B:GLU:543:CB:9877, V-B:GLU:543:C:9873, V-B:GLY:544:CA:9885, V-A:HIS:456:CE1:4069, V-B:GLY:544:C:9883, V-B:HIS:456:CE1:9040, V-A:ALA:541:CA:4889, V-B:ARG:545:CG:9893, H-B:ILE:455:N:9025, V-B:ARG:545:CD:9894, V-B:ARG:545:CB:9892, V-B:ARG:545:CA:9890, H-B:HIS:456:ND1:9037"]

$$$$
RR27_Rahimova_2017
     RDKit          3D

 39 44  0  0  0  0  0  0  0  0999 V2000
  130.8540  132.6890   61.3950 O   0  0  0  0  0  0  0  0  0  0  0  0
  130.5970  132.1280   60.3260 C   0  0  0  0  0  0  0  0  0  0  0  0
  129.6970  132.8730   59.2980 C   0  0  0  0  0  0  0  0  0  0  0  0
  128.2580  132.3270   59.2470 C   0  0  0  0  0  0  0  0  0  0  0  0
  127.8450  131.4180   58.2600 C   0  0  0  0  0  0  0  0  0  0  0  0
  126.5370  130.9430   58.2450 C   0  0  0  0  0  0  0  0  0  0  0  0
  125.6360  131.3730   59.2150 C   0  0  0  0  0  0  0  0  0  0  0  0
  126.0300  132.2760   60.1980 C   0  0  0  0  0  0  0  0  0  0  0  0
  127.3370  132.7510   60.2130 C   0  0  0  0  0  0  0  0  0  0  0  0
  130.3870  133.0130   57.9280 C   0  0  0  0  0  0  0  0  0  0  0  0
  131.7780  132.9070   57.7890 C   0  0  0  0  0  0  0  0  0  0  0  0
  132.3700  133.0500   56.5370 C   0  0  0  0  0  0  0  0  0  0  0  0
  131.5770  133.3030   55.4210 C   0  0  0  0  0  0  0  0  0  0  0  0
  130.1950  133.4210   55.5470 C   0  0  0  0  0  0  0  0  0  0  0  0
  129.6040  133.2800   56.7980 C   0  0  0  0  0  0  0  0  0  0  0  0
  131.1990  130.9570   59.9700 N   0  0  0  0  0  0  0  0  0  0  0  0
  130.7510  130.1240   58.8440 C   0  0  0  0  0  0  0  0  0  0  0  0
  129.6610  129.1780   59.3930 C   0  0  0  0  0  0  0  0  0  0  0  0
  130.1490  128.3430   60.6200 C   0  0  0  0  0  0  0  0  0  0  0  0
  129.0660  127.4660   61.2760 C   0  0  0  0  0  0  0  0  0  0  0  0
  128.3940  128.0160   62.3290 N   0  0  0  0  0  0  0  0  0  0  0  0
  127.4080  127.2930   62.9270 C   0  0  0  0  0  0  0  0  0  0  0  0
  126.6620  127.7380   63.9870 O   0  0  0  0  0  0  0  0  0  0  0  0
  127.1230  126.0030   62.4370 C   0  0  0  0  0  0  0  0  0  0  0  0
  126.2240  125.0400   62.7880 N   0  0  0  0  0  0  0  0  0  0  0  0
  126.4180  123.9670   61.9390 N   0  0  0  0  0  0  0  0  0  0  0  0
  127.4130  124.2680   61.0770 N   0  0  0  0  0  0  0  0  0  0  0  0
  127.8460  123.2950   60.0770 C   0  0  0  0  0  0  0  0  0  0  0  0
  126.9460  123.2350   58.8500 C   0  0  0  0  0  0  0  0  0  0  0  0
  127.3270  122.4840   57.7340 C   0  0  0  0  0  0  0  0  0  0  0  0
  126.4970  122.4200   56.6140 C   0  0  0  0  0  0  0  0  0  0  0  0
  125.2810  123.1030   56.6060 C   0  0  0  0  0  0  0  0  0  0  0  0
  124.8900  123.8460   57.7210 C   0  0  0  0  0  0  0  0  0  0  0  0
  123.3730  124.6700   57.7240 Cl  0  0  0  0  0  0  0  0  0  0  0  0
  125.7240  123.9170   58.8380 C   0  0  0  0  0  0  0  0  0  0  0  0
  127.8940  125.5370   61.3500 C   0  0  0  0  0  0  0  0  0  0  0  0
  128.8710  126.2230   60.7500 N   0  0  0  0  0  0  0  0  0  0  0  0
  130.9390  129.2170   61.6420 C   0  0  0  0  0  0  0  0  0  0  0  0
  131.9500  130.1790   60.9680 C   0  0  0  0  0  0  0  0  0  0  0  0
  1  2  2  0
  2  3  1  0
  3  4  1  0
  4  5  2  0
  5  6  1  0
  6  7  2  0
  7  8  1  0
  8  9  2  0
  3 10  1  0
 10 11  2  0
 11 12  1  0
 12 13  2  0
 13 14  1  0
 14 15  2  0
  2 16  1  0
 16 17  1  0
 17 18  1  0
 18 19  1  0
 19 20  1  0
 20 21  2  0
 21 22  1  0
 22 23  1  0
 22 24  2  0
 24 25  1  0
 25 26  2  0
 26 27  1  0
 27 28  1  0
 28 29  1  0
 29 30  2  0
 30 31  1  0
 31 32  2  0
 32 33  1  0
 33 34  1  0
 33 35  2  0
 27 36  1  0
 36 37  2  0
 19 38  1  0
 38 39  1  0
  9  4  1  0
 15 10  1  0
 39 16  1  0
 37 20  1  0
 36 24  1  0
 35 29  1  0
M  END
>  <Binding energies>  (78) 
[-10.62]

>  <Ligand effiencies>  (78) 
[-0.26549999999999996]

>  <Interactions>  (78) 
["V-B:LEU:363:CD1:8159, V-B:TYR:531:CZ:9765, V-A:TYR:539:CZ:4876, V-B:LEU:363:CA:8155, V-A:PRO:540:CB:4884, V-A:TYR:539:CD1:4872, V-A:TYR:539:C:4866, V-B:TYR:531:CE2:9764, V-A:ASP:366:CG:3212, V-A:TYR:531:CE2:4792, V-A:LEU:363:CD1:3188, V-A:PRO:540:N:4883, V-B:TYR:539:CD2:9845, V-B:MET:535:CE:9806, V-A:PRO:540:CA:4882, V-B:TYR:539:C:9838, V-B:TYR:539:CA:9840, V-A:TYR:539:CE1:4874, V-B:ASP:366:CB:8182, V-B:PRO:540:CA:9854, V-B:PRO:540:CB:9856, V-B:PRO:540:N:9855, V-A:PRO:540:CD:4886, V-B:PRO:540:CD:9858, V-A:TYR:539:CG:4871, V-A:ILE:538:CB:4861, V-B:GLU:543:CD:9879, H-B:ARG:545:NH2:9899, H-B:GLU:543:OE2:9881, H-A:ALA:541:N:4890, H-B:GLU:543:OE1:9880, V-A:ILE:538:CA:4859, V-A:ILE:538:CG2:4862"]

$$$$
RR28_Rahimova_2017
     RDKit          3D

 46 49  0  0  0  0  0  0  0  0999 V2000
  131.4930  133.1460   54.8870 C   0  0  0  0  0  0  0  0  0  0  0  0
  130.5230  133.0360   56.0580 C   0  0  0  0  0  0  0  0  0  0  0  0
  129.9600  134.0460   56.4760 O   0  0  0  0  0  0  0  0  0  0  0  0
  130.3420  131.8020   56.5700 N   0  0  0  0  0  0  0  0  0  0  0  0
  129.4770  131.3980   57.7010 C   0  0  0  0  0  0  0  0  0  0  0  0
  128.0300  131.2050   57.1620 C   0  0  0  0  0  0  0  0  0  0  0  0
  127.8270  131.0230   55.7860 C   0  0  0  0  0  0  0  0  0  0  0  0
  126.5470  130.8520   55.2680 C   0  0  0  0  0  0  0  0  0  0  0  0
  125.4380  130.8610   56.1150 C   0  0  0  0  0  0  0  0  0  0  0  0
  124.0400  130.6760   55.5280 C   0  0  0  0  0  0  0  0  0  0  0  0
  123.4250  129.5950   56.0130 F   0  0  0  0  0  0  0  0  0  0  0  0
  123.2800  131.7380   55.7980 F   0  0  0  0  0  0  0  0  0  0  0  0
  124.1350  130.5420   54.2040 F   0  0  0  0  0  0  0  0  0  0  0  0
  125.6260  131.0430   57.4880 C   0  0  0  0  0  0  0  0  0  0  0  0
  126.9080  131.2140   58.0050 C   0  0  0  0  0  0  0  0  0  0  0  0
  129.5810  132.4380   58.8730 C   0  0  0  0  0  0  0  0  0  0  0  0
  130.9850  132.4850   59.5290 C   0  0  0  0  0  0  0  0  0  0  0  0
  131.2580  131.1270   60.0260 N   0  0  0  0  0  0  0  0  0  0  0  0
  130.9620  130.7930   61.3120 C   0  0  0  0  0  0  0  0  0  0  0  0
  130.6210  131.6360   62.1440 O   0  0  0  0  0  0  0  0  0  0  0  0
  131.2190  129.3420   61.7850 C   0  0  0  0  0  0  0  0  0  0  0  0
  129.9590  128.5270   62.1890 C   0  0  0  0  0  0  0  0  0  0  0  0
  128.7150  128.7590   61.3000 C   0  0  0  0  0  0  0  0  0  0  0  0
  128.0410  129.7740   61.5030 O   0  0  0  0  0  0  0  0  0  0  0  0
  128.4730  127.9300   60.2460 N   0  0  0  0  0  0  0  0  0  0  0  0
  129.0230  126.5740   60.1420 C   0  0  0  0  0  0  0  0  0  0  0  0
  128.0570  125.6460   60.9110 C   0  0  0  0  0  0  0  0  0  0  0  0
  126.5690  125.6920   60.4150 C   0  0  0  0  0  0  0  0  0  0  0  0
  125.6950  125.0990   61.4490 N   0  0  0  0  0  0  0  0  0  0  0  0
  125.8350  123.9140   62.0770 C   0  0  0  0  0  0  0  0  0  0  0  0
  124.7560  123.5570   63.0940 C   0  0  0  0  0  0  0  0  0  0  0  0
  126.7620  123.1320   61.8740 O   0  0  0  0  0  0  0  0  0  0  0  0
  126.4720  124.7910   59.1420 C   0  0  0  0  0  0  0  0  0  0  0  0
  127.5870  124.1530   58.5740 C   0  0  0  0  0  0  0  0  0  0  0  0
  127.4580  123.3570   57.4390 C   0  0  0  0  0  0  0  0  0  0  0  0
  126.2080  123.1800   56.8400 C   0  0  0  0  0  0  0  0  0  0  0  0
  126.0490  122.3060   55.5970 C   0  0  0  0  0  0  0  0  0  0  0  0
  127.2300  121.8270   55.2040 F   0  0  0  0  0  0  0  0  0  0  0  0
  125.2470  121.2810   55.8830 F   0  0  0  0  0  0  0  0  0  0  0  0
  125.5180  122.9790   54.5740 F   0  0  0  0  0  0  0  0  0  0  0  0
  125.0920  123.8140   57.3880 C   0  0  0  0  0  0  0  0  0  0  0  0
  125.2250  124.6080   58.5220 C   0  0  0  0  0  0  0  0  0  0  0  0
  126.1640  127.1930   60.1460 C   0  0  0  0  0  0  0  0  0  0  0  0
  127.2400  128.0780   59.4610 C   0  0  0  0  0  0  0  0  0  0  0  0
  131.3770  130.1270   58.9540 C   0  0  0  0  0  0  0  0  0  0  0  0
  129.9910  130.0330   58.2650 C   0  0  0  0  0  0  0  0  0  0  0  0
  1  2  1  0
  2  3  2  0
  2  4  1  0
  4  5  1  0
  5  6  1  0
  6  7  2  0
  7  8  1  0
  8  9  2  0
  9 10  1  0
 10 11  1  0
 10 12  1  0
 10 13  1  0
  9 14  1  0
 14 15  2  0
  5 16  1  0
 16 17  1  0
 17 18  1  0
 18 19  1  0
 19 20  2  0
 19 21  1  0
 21 22  1  0
 22 23  1  0
 23 24  2  0
 23 25  1  0
 25 26  1  0
 26 27  1  0
 27 28  1  0
 28 29  1  0
 29 30  1  0
 30 31  1  0
 30 32  2  0
 28 33  1  0
 33 34  2  0
 34 35  1  0
 35 36  2  0
 36 37  1  0
 37 38  1  0
 37 39  1  0
 37 40  1  0
 36 41  1  0
 41 42  2  0
 28 43  1  0
 43 44  1  0
 18 45  1  0
 45 46  1  0
 46  5  1  0
 15  6  1  0
 44 25  1  0
 42 33  1  0
M  END
>  <Binding energies>  (79) 
[-10.91]

>  <Ligand effiencies>  (79) 
[-0.22729166666666667]

>  <Interactions>  (79) 
["V-B:LEU:363:CD1:8159, V-B:TYR:531:CZ:9765, V-A:TYR:539:CZ:4876, V-A:PRO:540:CB:4884, V-B:ILE:369:C:8202, V-B:TYR:531:CE2:9764, V-B:ASN:370:CB:8215, V-A:MET:535:CG:4832, V-B:TYR:531:CE1:9763, V-A:TYR:531:CE2:4792, V-A:PRO:540:N:4883, V-B:MET:535:CE:9806, V-B:TYR:539:CE1:9846, V-A:PRO:540:CA:4882, V-B:TYR:539:CA:9840, V-A:TYR:539:CE1:4874, V-B:TYR:539:CD1:9844, V-B:ASP:366:CG:8183, V-B:TYR:539:CG:9843, V-B:ASN:370:CA:8213, V-B:ILE:538:CG2:9834, V-B:MET:535:CG:9804, V-B:PRO:540:CB:9856, V-B:ARG:545:CZ:9897, V-B:ILE:538:CD1:9836, V-B:PRO:540:N:9855, H-A:TYR:539:N:4869, V-B:PRO:540:CD:9858, V-A:TYR:531:CZ:4793, H-A:TYR:531:OH:4794, V-B:PRO:540:CG:9857, V-A:ILE:538:CB:4861, V-B:GLU:543:CD:9879, V-B:ALA:541:C:9859, V-B:ILE:538:CA:9831, V-B:ASN:362:CB:8146, V-A:GLU:543:CD:4907, V-A:ILE:538:CA:4859, V-A:ILE:538:CG2:4862, V-B:ASP:366:C:8178, H-B:ALA:541:N:9862, V-B:ASN:370:CG:8216, V-B:ILE:538:C:9829, V-B:TYR:531:CD1:9761, V-B:ILE:538:CB:9833, H-B:ASP:366:OD1:8184, V-B:ILE:538:CG1:9835, V-B:VAL:537:C:9821, V-B:MET:535:CB:9803"]

$$$$
RR29_Rahimova_2017
     RDKit          3D

 18 19  0  0  0  0  0  0  0  0999 V2000
  128.1230  126.5270   71.3950 C   0  0  0  0  0  0  0  0  0  0  0  0
  128.4490  126.7180   69.9210 C   0  0  0  0  0  0  0  0  0  0  0  0
  127.6830  127.8980   69.2820 C   0  0  0  0  0  0  0  0  0  0  0  0
  126.1600  127.6480   69.2670 C   0  0  0  0  0  0  0  0  0  0  0  0
  125.4670  128.3790   68.1280 C   0  0  0  0  0  0  0  0  0  0  0  0
  124.2480  129.0470   68.3590 C   0  0  0  0  0  0  0  0  0  0  0  0
  123.5930  129.7280   67.3230 C   0  0  0  0  0  0  0  0  0  0  0  0
  124.1840  129.7060   66.0650 C   0  0  0  0  0  0  0  0  0  0  0  0
  125.3640  129.0580   65.8350 C   0  0  0  0  0  0  0  0  0  0  0  0
  126.0420  128.3840   66.8440 C   0  0  0  0  0  0  0  0  0  0  0  0
  125.7240  129.2290   64.5350 O   0  0  0  0  0  0  0  0  0  0  0  0
  124.6190  129.8260   63.9110 C   0  0  0  0  0  0  0  0  0  0  0  0
  123.7670  130.3040   64.9180 O   0  0  0  0  0  0  0  0  0  0  0  0
  129.2820  125.9170   69.3670 N   0  0  0  0  0  0  0  0  0  0  0  0
  129.5150  126.0340   68.0140 N   0  0  0  0  0  0  0  0  0  0  0  0
  130.3570  126.9290   67.4710 C   0  0  0  0  0  0  0  0  0  0  0  0
  131.0900  127.8030   68.1620 N   0  0  0  0  0  0  0  0  0  0  0  0
  130.4710  126.9450   66.1510 N   0  0  0  0  0  0  0  0  0  0  0  0
  1  2  1  0
  2  3  1  0
  3  4  1  0
  4  5  1  0
  5  6  2  0
  6  7  1  0
  7  8  2  0
  8  9  1  0
  9 10  2  0
  9 11  1  0
 11 12  1  0
 12 13  1  0
  2 14  2  0
 14 15  1  0
 15 16  1  0
 16 17  1  0
 16 18  2  0
 10  5  1  0
 13  8  1  0
M  CHG  1  18   1
M  END
>  <Binding energies>  (80) 
[-7.99]

>  <Ligand effiencies>  (80) 
[-0.3473913043478261]

>  <Interactions>  (80) 
["V-B:ARG:545:CZ:9897, H-B:GLY:454:N:9020, V-B:GLU:543:CD:9879, H-B:ARG:545:NH2:9899, V-B:GLU:543:CG:9878, H-A:GLU:543:OE2:4909, H-A:GLU:543:OE1:4908, V-A:TYR:484:CE2:4345, V-A:GLU:543:CD:4907, H-B:GLU:543:OE2:9881, V-B:GLU:543:CB:9877, V-A:HIS:456:CE1:4069, V-B:HIS:456:CE1:9040, V-B:ARG:545:CG:9893, H-A:HIS:456:NE2:4070, V-A:GLU:543:CB:4905, V-B:ARG:545:CD:9894, V-B:GLY:454:CA:9019, V-B:ARG:545:CB:9892"]

$$$$
RR30_Rahimova_2017
     RDKit          3D

 18 19  0  0  0  0  0  0  0  0999 V2000
  128.0040  134.0690   61.7370 C   0  0  0  0  0  0  0  0  0  0  0  0
  128.7600  132.9150   61.0620 C   0  0  0  0  0  0  0  0  0  0  0  0
  130.1510  132.7330   61.6280 C   0  0  0  0  0  0  0  0  0  0  0  0
  130.5240  132.7520   62.8830 N   0  0  0  0  0  0  0  0  0  0  0  0
  131.9010  132.5460   62.8760 N   0  0  0  0  0  0  0  0  0  0  0  0
  132.2430  132.4300   61.6180 C   0  0  0  0  0  0  0  0  0  0  0  0
  133.8560  132.1410   60.9640 S   0  0  0  0  0  0  0  0  0  0  0  0
  133.4680  130.8600   59.7300 C   0  0  0  0  0  0  0  0  0  0  0  0
  133.0120  131.4600   58.3970 C   0  0  0  0  0  0  0  0  0  0  0  0
  133.7900  131.4620   57.4410 O   0  0  0  0  0  0  0  0  0  0  0  0
  131.7670  131.9860   58.3820 N   0  0  0  0  0  0  0  0  0  0  0  0
  131.1390  132.5840   57.2990 C   0  0  0  0  0  0  0  0  0  0  0  0
  131.3360  133.7860   56.8060 N   0  0  0  0  0  0  0  0  0  0  0  0
  130.5220  134.0470   55.7110 N   0  0  0  0  0  0  0  0  0  0  0  0
  129.7310  133.0470   55.3990 C   0  0  0  0  0  0  0  0  0  0  0  0
  128.7510  133.0930   54.2490 C   0  0  0  0  0  0  0  0  0  0  0  0
  129.9310  131.6710   56.4490 S   0  0  0  0  0  0  0  0  0  0  0  0
  131.1860  132.5330   60.7730 O   0  0  0  0  0  0  0  0  0  0  0  0
  1  2  1  0
  2  3  1  0
  3  4  2  0
  4  5  1  0
  5  6  2  0
  6  7  1  0
  7  8  1  0
  8  9  1  0
  9 10  2  0
  9 11  1  0
 11 12  1  0
 12 13  2  0
 13 14  1  0
 14 15  2  0
 15 16  1  0
 15 17  1  0
  6 18  1  0
 18  3  1  0
 17 12  1  0
M  END
>  <Binding energies>  (81) 
[-7.38]

>  <Ligand effiencies>  (81) 
[-0.38842105263157894]

>  <Interactions>  (81) 
["V-A:LEU:363:CA:3184, V-A:TYR:539:CZ:4876, V-A:PRO:540:CB:4884, V-A:MET:535:CB:4831, V-A:ASP:366:CG:3212, V-A:ASN:362:C:3171, V-A:MET:535:CG:4832, V-A:PRO:540:CA:4882, V-A:TYR:539:CE1:4874, V-A:ALA:541:CB:4891, H-A:TYR:539:N:4869, H-A:TYR:531:OH:4794, H-A:ALA:541:N:4890, V-A:PRO:540:C:4880, V-A:ASP:366:CB:3211, V-A:ILE:538:CA:4859, V-A:TYR:539:CE2:4875, H-A:LEU:363:N:3185"]

$$$$
RR31_Rahimova_2017
     RDKit          3D

 18 19  0  0  0  0  0  0  0  0999 V2000
  132.1880  117.3210   59.1810 C   0  0  0  0  0  0  0  0  0  0  0  0
  132.3320  118.5740   60.0330 C   0  0  0  0  0  0  0  0  0  0  0  0
  133.4500  119.3910   59.8580 C   0  0  0  0  0  0  0  0  0  0  0  0
  133.6100  120.5470   60.6200 C   0  0  0  0  0  0  0  0  0  0  0  0
  132.6520  120.9260   61.5740 C   0  0  0  0  0  0  0  0  0  0  0  0
  132.8020  122.0760   62.3520 N   0  0  0  0  0  0  0  0  0  0  0  0
  132.9900  122.0110   63.8140 C   0  0  0  0  0  0  0  0  0  0  0  0
  132.7270  123.3500   64.5440 C   0  0  0  0  0  0  0  0  0  0  0  0
  133.5600  124.4210   63.9890 N   0  0  0  0  0  0  0  0  0  0  0  0
  133.3590  125.6960   64.6850 C   0  0  0  0  0  0  0  0  0  0  0  0
  132.0310  125.7530   65.4660 C   0  0  0  0  0  0  0  0  0  0  0  0
  130.8790  126.3160   64.6180 C   0  0  0  0  0  0  0  0  0  0  0  0
  130.1370  127.4050   65.4000 N   0  0  0  0  0  0  0  0  0  0  0  0
  133.2030  124.5670   62.5790 C   0  0  0  0  0  0  0  0  0  0  0  0
  133.4890  123.2620   61.8020 C   0  0  0  0  0  0  0  0  0  0  0  0
  131.5370  120.0910   61.7460 C   0  0  0  0  0  0  0  0  0  0  0  0
  131.3660  118.9270   60.9880 C   0  0  0  0  0  0  0  0  0  0  0  0
  130.1350  118.0610   61.2250 C   0  0  0  0  0  0  0  0  0  0  0  0
  1  2  1  0
  2  3  2  0
  3  4  1  0
  4  5  2  0
  5  6  1  0
  6  7  1  0
  7  8  1  0
  8  9  1  0
  9 10  1  0
 10 11  1  0
 11 12  1  0
 12 13  1  0
  9 14  1  0
 14 15  1  0
  5 16  1  0
 16 17  2  0
 17 18  1  0
 17  2  1  0
 15  6  1  0
M  CHG  1  13   1
M  END
>  <Binding energies>  (82) 
[-7.61]

>  <Ligand effiencies>  (82) 
[-0.3623809523809524]

>  <Interactions>  (82) 
["V-A:ASP:366:CG:3212, V-B:TYR:539:CD2:9845, V-B:TYR:539:C:9838, V-B:TYR:539:CG:9843, V-B:TYR:539:CE2:9847, V-A:ARG:545:CZ:4925, H-A:GLY:454:N:4049, V-A:ILE:369:CD1:3238, V-A:LEU:475:CD2:4258, V-B:ALA:541:CB:9863, V-A:HIS:383:CE1:3393, V-A:ILE:369:CG2:3236, V-A:SER:385:CA:3406, V-B:TYR:539:CB:9842, V-A:GLY:454:CA:4048, H-A:GLU:543:OE2:4909, H-A:GLU:543:OE1:4908, V-A:GLU:543:CD:4907, H-B:GLU:543:OE2:9881, V-A:LEU:373:CD1:3279, V-A:PRO:482:CG:4326, V-A:PRO:482:CB:4325, V-A:HIS:383:CG:3389"]

$$$$
RR32_Rahimova_2017
     RDKit          3D

 18 20  0  0  0  0  0  0  0  0999 V2000
  134.2480  119.0490   59.2080 C   0  0  0  0  0  0  0  0  0  0  0  0
  133.1540  119.4970   60.1730 C   0  0  0  0  0  0  0  0  0  0  0  0
  133.3230  120.7080   60.8450 C   0  0  0  0  0  0  0  0  0  0  0  0
  132.3450  121.1500   61.7310 C   0  0  0  0  0  0  0  0  0  0  0  0
  132.5160  122.3510   62.3960 N   0  0  0  0  0  0  0  0  0  0  0  0
  132.0560  122.4210   63.7950 C   0  0  0  0  0  0  0  0  0  0  0  0
  132.1230  123.8480   64.3900 C   0  0  0  0  0  0  0  0  0  0  0  0
  133.4910  124.3600   64.3220 N   0  0  0  0  0  0  0  0  0  0  0  0
  133.5600  125.6920   64.9120 C   0  0  0  0  0  0  0  0  0  0  0  0
  133.8860  124.4070   62.9160 C   0  0  0  0  0  0  0  0  0  0  0  0
  133.8420  122.9890   62.2980 C   0  0  0  0  0  0  0  0  0  0  0  0
  131.2110  120.4440   61.9810 N   0  0  0  0  0  0  0  0  0  0  0  0
  131.0190  119.2580   61.3430 C   0  0  0  0  0  0  0  0  0  0  0  0
  129.8300  118.5430   61.6250 C   0  0  0  0  0  0  0  0  0  0  0  0
  129.5810  117.3250   61.0020 C   0  0  0  0  0  0  0  0  0  0  0  0
  130.4930  116.7960   60.0980 C   0  0  0  0  0  0  0  0  0  0  0  0
  131.6720  117.4730   59.7990 C   0  0  0  0  0  0  0  0  0  0  0  0
  131.9700  118.7240   60.4130 C   0  0  0  0  0  0  0  0  0  0  0  0
  1  2  1  0
  2  3  2  0
  3  4  1  0
  4  5  1  0
  5  6  1  0
  6  7  1  0
  7  8  1  0
  8  9  1  0
  8 10  1  0
 10 11  1  0
  4 12  2  0
 12 13  1  0
 13 14  2  0
 14 15  1  0
 15 16  2  0
 16 17  1  0
 17 18  2  0
 18  2  1  0
 11  5  1  0
 18 13  1  0
M  END
>  <Binding energies>  (83) 
[-6.55]

>  <Ligand effiencies>  (83) 
[-0.3638888888888889]

>  <Interactions>  (83) 
["V-A:ASP:366:CG:3212, V-B:TYR:539:CD2:9845, V-B:TYR:539:C:9838, V-B:TYR:539:CE2:9847, V-A:ARG:545:CZ:4925, H-A:GLY:454:N:4049, H-A:TYR:484:OH:4347, V-A:ILE:369:CD1:3238, V-A:LEU:475:CD2:4258, V-B:ALA:541:CB:9863, V-A:HIS:383:CE1:3393, V-A:ILE:369:CG2:3236, V-A:SER:385:CA:3406, V-B:TYR:539:CB:9842, V-A:GLY:454:CA:4048, V-B:VAL:344:CG1:7971, V-A:PRO:482:CG:4326, V-A:PRO:482:CB:4325, V-A:VAL:384:C:3396, V-A:LEU:373:CG:3278, V-A:LEU:373:CD2:3280"]

$$$$
RR5_Rahimova_2017
     RDKit          3D

 45 50  0  0  0  0  0  0  0  0999 V2000
  129.1810  126.5290   60.0240 O   0  0  0  0  0  0  0  0  0  0  0  0
  129.4400  125.4740   59.4490 C   0  0  0  0  0  0  0  0  0  0  0  0
  130.9050  125.0100   59.3270 C   0  0  0  0  0  0  0  0  0  0  0  0
  131.9000  126.1460   58.8970 C   0  0  2  0  0  0  0  0  0  0  0  0
  131.2750  127.4580   58.6390 N   0  0  0  0  0  0  0  0  0  0  0  0
  130.4840  127.6800   57.5190 C   0  0  0  0  0  0  0  0  0  0  0  0
  130.1730  126.8490   56.6620 O   0  0  0  0  0  0  0  0  0  0  0  0
  130.1160  128.9730   57.5100 O   0  0  0  0  0  0  0  0  0  0  0  0
  129.3950  129.5480   58.5950 C   0  0  0  0  0  0  0  0  0  0  0  0
  129.8410  131.0070   58.8380 C   0  0  0  0  0  0  0  0  0  0  0  0
  131.2260  131.1270   59.4500 C   0  0  0  0  0  0  0  0  0  0  0  0
  131.7170  130.6010   60.6480 C   0  0  0  0  0  0  0  0  0  0  0  0
  133.0480  130.8190   61.0090 C   0  0  0  0  0  0  0  0  0  0  0  0
  133.8870  131.5620   60.1770 C   0  0  0  0  0  0  0  0  0  0  0  0
  133.3980  132.0910   58.9810 C   0  0  0  0  0  0  0  0  0  0  0  0
  132.0670  131.8720   58.6230 C   0  0  0  0  0  0  0  0  0  0  0  0
  131.2960  132.3090   57.4480 C   0  0  0  0  0  0  0  0  0  0  0  0
  131.6630  133.0810   56.3430 C   0  0  0  0  0  0  0  0  0  0  0  0
  130.7160  133.3740   55.3610 C   0  0  0  0  0  0  0  0  0  0  0  0
  129.4090  132.8960   55.4820 C   0  0  0  0  0  0  0  0  0  0  0  0
  129.0480  132.1220   56.5850 C   0  0  0  0  0  0  0  0  0  0  0  0
  129.9940  131.8230   57.5690 C   0  0  0  0  0  0  0  0  0  0  0  0
  132.7300  125.7120   57.6630 C   0  0  0  0  0  0  0  0  0  0  0  0
  132.7130  126.2720   56.5860 O   0  0  0  0  0  0  0  0  0  0  0  0
  133.4900  124.6230   57.9810 O   0  0  0  0  0  0  0  0  0  0  0  0
  128.5200  124.6370   58.9200 N   0  0  0  0  0  0  0  0  0  0  0  0
  127.0300  124.6810   58.8170 C   0  0  0  0  0  0  0  0  0  0  0  0
  126.7710  126.1880   58.4780 C   0  0  0  0  0  0  0  0  0  0  0  0
  127.1700  126.7430   57.2500 C   0  0  0  0  0  0  0  0  0  0  0  0
  126.9320  128.0830   56.9590 C   0  0  0  0  0  0  0  0  0  0  0  0
  126.3020  128.8950   57.8960 C   0  0  0  0  0  0  0  0  0  0  0  0
  125.8950  128.3730   59.1180 C   0  0  0  0  0  0  0  0  0  0  0  0
  126.1230  127.0300   59.4040 C   0  0  0  0  0  0  0  0  0  0  0  0
  126.6140  123.7220   57.6510 C   0  0  0  0  0  0  0  0  0  0  0  0
  127.5640  122.9830   56.9290 C   0  0  0  0  0  0  0  0  0  0  0  0
  127.1730  122.1500   55.8830 C   0  0  0  0  0  0  0  0  0  0  0  0
  125.8280  122.0490   55.5440 C   0  0  0  0  0  0  0  0  0  0  0  0
  124.8670  122.7690   56.2470 C   0  0  0  0  0  0  0  0  0  0  0  0
  125.2590  123.5930   57.2980 C   0  0  0  0  0  0  0  0  0  0  0  0
  126.4840  124.2720   60.2260 C   0  0  0  0  0  0  0  0  0  0  0  0
  127.3370  124.2080   61.3430 C   0  0  0  0  0  0  0  0  0  0  0  0
  126.8590  123.8370   62.5960 C   0  0  0  0  0  0  0  0  0  0  0  0
  125.5130  123.5280   62.7570 C   0  0  0  0  0  0  0  0  0  0  0  0
  124.6430  123.5950   61.6760 C   0  0  0  0  0  0  0  0  0  0  0  0
  125.1250  123.9670   60.4240 C   0  0  0  0  0  0  0  0  0  0  0  0
  1  2  2  0
  2  3  1  0
  4  3  1  6
  4  5  1  0
  5  6  1  0
  6  7  2  0
  6  8  1  0
  8  9  1  0
  9 10  1  0
 10 11  1  0
 11 12  2  0
 12 13  1  0
 13 14  2  0
 14 15  1  0
 15 16  2  0
 16 17  1  0
 17 18  2  0
 18 19  1  0
 19 20  2  0
 20 21  1  0
 21 22  2  0
  4 23  1  0
 23 24  2  0
 23 25  1  0
  2 26  1  0
 26 27  1  0
 27 28  1  0
 28 29  2  0
 29 30  1  0
 30 31  2  0
 31 32  1  0
 32 33  2  0
 27 34  1  0
 34 35  2  0
 35 36  1  0
 36 37  2  0
 37 38  1  0
 38 39  2  0
 27 40  1  0
 40 41  2  0
 41 42  1  0
 42 43  2  0
 43 44  1  0
 44 45  2  0
 22 10  1  0
 33 28  1  0
 39 34  1  0
 45 40  1  0
 16 11  1  0
 22 17  1  0
M  END
>  <Binding energies>  (84) 
[-11.84]

>  <Ligand effiencies>  (84) 
[-0.24666666666666667]

>  <Interactions>  (84) 
["V-A:LEU:363:CA:3184, V-B:LEU:363:CD1:8159, V-B:TYR:531:CZ:9765, V-A:TYR:539:CZ:4876, V-A:PRO:540:CB:4884, V-A:TYR:539:CD1:4872, V-B:TYR:531:CE2:9764, V-A:ASP:366:CG:3212, V-A:ASN:362:C:3171, V-A:ASN:362:CB:3175, V-A:TYR:531:CE2:4792, V-A:LEU:363:CD1:3188, V-B:MET:535:CE:9806, V-B:TYR:539:CE1:9846, V-A:PRO:540:CA:4882, V-B:TYR:539:CA:9840, V-A:TYR:539:CE1:4874, V-B:TYR:539:CD1:9844, V-B:ASP:366:CG:8183, V-B:TYR:539:CG:9843, V-B:TYR:539:CE2:9847, V-B:ILE:538:CG2:9834, V-B:MET:535:CG:9804, V-B:PRO:540:CA:9854, V-B:PRO:540:CB:9856, V-B:ILE:538:CD1:9836, V-B:PRO:540:CD:9858, H-A:TYR:531:OH:4794, V-A:ILE:538:CB:4861, V-B:GLU:543:CD:9879, V-B:ALA:541:C:9859, H-A:ASP:366:OD2:3214, V-B:ILE:538:CA:9831, V-A:ASP:366:CB:3211, V-A:ASP:366:CA:3209, V-A:ASP:366:C:3207, H-B:TYR:539:OH:9849, V-A:LEU:363:CB:3186, V-A:ILE:538:CA:4859, V-A:ILE:538:CG2:4862, V-B:ILE:538:C:9829, V-B:ILE:538:CB:9833, H-A:ASP:366:O:3208"]

$$$$
