1a_Grossjean_2025
     RDKit          3D

 26 27  0  0  0  0  0  0  0  0999 V2000
  126.3610  122.8810   54.9420 C   0  0  0  0  0  0  0  0  0  0  0  0
  125.8570  122.5900   56.3590 C   0  0  0  0  0  0  0  0  0  0  0  0
  126.9290  122.0990   57.1520 O   0  0  0  0  0  0  0  0  0  0  0  0
  127.5020  122.8710   58.1130 C   0  0  0  0  0  0  0  0  0  0  0  0
  128.1200  122.4090   59.0760 O   0  0  0  0  0  0  0  0  0  0  0  0
  127.2930  124.3420   57.8940 C   0  0  0  0  0  0  0  0  0  0  0  0
  126.2370  124.9870   58.5510 C   0  0  0  0  0  0  0  0  0  0  0  0
  126.0150  126.3480   58.3650 C   0  0  0  0  0  0  0  0  0  0  0  0
  126.8400  127.0920   57.5210 C   0  0  0  0  0  0  0  0  0  0  0  0
  126.5210  128.4590   57.4060 N   0  0  0  0  0  0  0  0  0  0  0  0
  126.3040  129.2100   56.3050 C   0  0  0  0  0  0  0  0  0  0  0  0
  126.3470  128.8060   55.1430 O   0  0  0  0  0  0  0  0  0  0  0  0
  125.9810  130.6820   56.5700 C   0  0  0  0  0  0  0  0  0  0  0  0
  127.2840  131.5090   57.5310 S   0  0  0  0  0  0  0  0  0  0  0  0
  128.6050  131.9060   56.4080 C   0  0  0  0  0  0  0  0  0  0  0  0
  128.1960  132.1130   55.1310 N   0  0  0  0  0  0  0  0  0  0  0  0
  129.1220  132.4170   54.1920 C   0  0  0  0  0  0  0  0  0  0  0  0
  128.5920  132.6220   52.7850 C   0  0  0  0  0  0  0  0  0  0  0  0
  130.4790  132.5360   54.4850 C   0  0  0  0  0  0  0  0  0  0  0  0
  130.9090  132.3450   55.8020 C   0  0  0  0  0  0  0  0  0  0  0  0
  132.3990  132.4960   56.1020 C   0  0  0  0  0  0  0  0  0  0  0  0
  129.9590  132.0300   56.8010 C   0  0  0  0  0  0  0  0  0  0  0  0
  130.3800  131.8740   58.1960 C   0  0  0  0  0  0  0  0  0  0  0  0
  130.7140  131.7510   59.2970 N   0  0  0  0  0  0  0  0  0  0  0  0
  127.9050  126.4560   56.8660 C   0  0  0  0  0  0  0  0  0  0  0  0
  128.1260  125.0940   57.0510 C   0  0  0  0  0  0  0  0  0  0  0  0
  1  2  1  0
  2  3  1  0
  3  4  1  0
  4  5  2  0
  4  6  1  0
  6  7  2  0
  7  8  1  0
  8  9  2  0
  9 10  1  0
 10 11  1  0
 11 12  2  0
 11 13  1  0
 13 14  1  0
 14 15  1  0
 15 16  2  0
 16 17  1  0
 17 18  1  0
 17 19  2  0
 19 20  1  0
 20 21  1  0
 20 22  2  0
 22 23  1  0
 23 24  3  0
  9 25  1  0
 25 26  2  0
 26  6  1  0
 22 15  1  0
M  END
>  <Binding energies>  (1) 
[-8.39]

>  <Ligand effiencies>  (1) 
[-0.31074074074074076]

>  <Interactions>  (1) 
["V-A:PRO:540:N:4884, V-B:TYR:539:C:9839, V-A:TYR:539:CE1:4875, V-B:ASP:366:CG:8185, V-A:TYR:539:CD1:4873, V-B:ILE:538:CA:9832, V-B:PRO:540:N:9856, V-B:PRO:540:CA:9855, V-A:ILE:538:CA:4860, V-B:TYR:539:CD2:9846, V-A:TYR:539:CZ:4877, V-A:PRO:540:CA:4883, V-A:ILE:538:CG2:4863, V-B:MET:535:CE:9807, H-B:LYS:534:NZ:9795, V-A:VAL:537:C:4850, V-A:TYR:539:C:4867, V-A:TYR:539:CD2:4874, V-B:PRO:540:CD:9859, V-B:ILE:538:CD1:9837, V-A:TYR:539:CE2:4876, V-A:ILE:538:CB:4862, V-B:TYR:531:CE1:9764, H-B:TYR:531:OH:9767, V-B:ASP:366:CB:8184, V-A:PRO:540:CG:4886, V-A:PRO:540:CB:4885, V-A:PRO:540:CD:4887, V-A:LEU:363:CD1:3189, H-B:TYR:539:N:9842"]

$$$$
1aa_Ghoteimi_2023
     RDKit          3D

 40 43  0  0  0  0  0  0  0  0999 V2000
  132.1150  132.9630   55.7120 C   0  0  0  0  0  0  0  0  0  0  0  0
  131.3880  132.2050   54.5980 C   0  0  0  0  0  0  0  0  0  0  0  0
  130.2870  132.9800   54.1380 O   0  0  0  0  0  0  0  0  0  0  0  0
  129.0820  132.4070   53.8890 C   0  0  0  0  0  0  0  0  0  0  0  0
  128.6460  132.2060   52.7510 O   0  0  0  0  0  0  0  0  0  0  0  0
  128.3290  132.0400   55.1360 C   0  0  0  0  0  0  0  0  0  0  0  0
  128.6570  132.5830   56.3880 C   0  0  0  0  0  0  0  0  0  0  0  0
  127.9400  132.2250   57.5270 C   0  0  0  0  0  0  0  0  0  0  0  0
  126.8770  131.3140   57.4330 C   0  0  0  0  0  0  0  0  0  0  0  0
  126.0860  130.8790   58.5120 N   0  0  0  0  0  0  0  0  0  0  0  0
  124.7430  130.8860   58.6730 C   0  0  0  0  0  0  0  0  0  0  0  0
  123.9360  131.3000   57.8400 O   0  0  0  0  0  0  0  0  0  0  0  0
  124.1890  130.3340   59.9970 C   0  0  0  0  0  0  0  0  0  0  0  0
  124.7300  131.0600   61.1080 O   0  0  0  0  0  0  0  0  0  0  0  0
  125.8880  130.6230   61.7360 C   0  0  0  0  0  0  0  0  0  0  0  0
  127.0750  130.8190   61.0990 N   0  0  0  0  0  0  0  0  0  0  0  0
  128.2300  130.3920   61.6750 C   0  0  0  0  0  0  0  0  0  0  0  0
  129.4960  130.6490   60.9090 C   0  0  0  0  0  0  0  0  0  0  0  0
  130.5740  131.3240   61.5020 C   0  0  0  0  0  0  0  0  0  0  0  0
  131.7480  131.5650   60.7940 C   0  0  0  0  0  0  0  0  0  0  0  0
  131.8830  131.1380   59.4750 C   0  0  0  0  0  0  0  0  0  0  0  0
  133.0830  131.4220   58.8520 O   0  0  0  0  0  0  0  0  0  0  0  0
  133.4420  130.7030   57.6770 C   0  0  0  0  0  0  0  0  0  0  0  0
  130.8180  130.4570   58.8710 C   0  0  0  0  0  0  0  0  0  0  0  0
  129.6450  130.2170   59.5810 C   0  0  0  0  0  0  0  0  0  0  0  0
  128.2140  129.7680   62.9280 C   0  0  0  0  0  0  0  0  0  0  0  0
  127.0060  129.5630   63.6100 C   0  0  0  0  0  0  0  0  0  0  0  0
  127.0570  128.9020   64.9470 C   0  0  0  0  0  0  0  0  0  0  0  0
  125.9390  128.2190   65.4370 C   0  0  0  0  0  0  0  0  0  0  0  0
  125.9820  127.5920   66.6790 C   0  0  0  0  0  0  0  0  0  0  0  0
  127.1410  127.6270   67.4530 C   0  0  0  0  0  0  0  0  0  0  0  0
  127.0920  126.9770   68.6710 O   0  0  0  0  0  0  0  0  0  0  0  0
  128.2910  126.4500   69.2260 C   0  0  0  0  0  0  0  0  0  0  0  0
  128.2680  128.3040   66.9610 C   0  0  0  0  0  0  0  0  0  0  0  0
  128.2230  128.9320   65.7200 C   0  0  0  0  0  0  0  0  0  0  0  0
  125.8100  129.9950   62.9910 C   0  0  0  0  0  0  0  0  0  0  0  0
  124.4990  129.7850   63.6060 C   0  0  0  0  0  0  0  0  0  0  0  0
  123.4610  129.6210   64.0910 N   0  0  0  0  0  0  0  0  0  0  0  0
  126.5510  130.7710   56.1890 C   0  0  0  0  0  0  0  0  0  0  0  0
  127.2680  131.1300   55.0520 C   0  0  0  0  0  0  0  0  0  0  0  0
  1  2  1  0
  2  3  1  0
  3  4  1  0
  4  5  2  0
  4  6  1  0
  6  7  2  0
  7  8  1  0
  8  9  2  0
  9 10  1  0
 10 11  1  0
 11 12  2  0
 11 13  1  0
 13 14  1  0
 14 15  1  0
 15 16  2  0
 16 17  1  0
 17 18  1  0
 18 19  2  0
 19 20  1  0
 20 21  2  0
 21 22  1  0
 22 23  1  0
 21 24  1  0
 24 25  2  0
 17 26  2  0
 26 27  1  0
 27 28  1  0
 28 29  2  0
 29 30  1  0
 30 31  2  0
 31 32  1  0
 32 33  1  0
 31 34  1  0
 34 35  2  0
 27 36  2  0
 36 37  1  0
 37 38  3  0
  9 39  1  0
 39 40  2  0
 40  6  1  0
 36 15  1  0
 25 18  1  0
 35 28  1  0
M  END
>  <Binding energies>  (2) 
[-8.63]

>  <Ligand effiencies>  (2) 
[-0.2104878048780488]

>  <Interactions>  (2) 
["V-A:PRO:540:N:4884, V-A:TYR:539:CE1:4875, H-A:TYR:539:N:4870, V-B:ASP:366:CG:8185, V-A:TYR:539:CD1:4873, V-A:ILE:538:CA:4860, V-A:TYR:539:CZ:4877, V-A:PRO:540:CA:4883, V-A:ILE:538:CG2:4863, H-B:LYS:534:NZ:9795, H-A:TYR:539:OH:4878, V-A:TYR:539:C:4867, V-A:TYR:539:CG:4872, V-A:TYR:539:CD2:4874, V-A:TYR:539:CE2:4876, V-A:ASP:366:CG:3213, V-A:GLU:543:CG:4907, V-B:ARG:545:CZ:9898, V-A:GLU:543:CD:4908, V-A:ILE:538:CB:4862, V-B:ASP:366:CB:8184, V-A:PRO:540:CG:4886, V-A:PRO:540:CB:4885, V-A:ASP:366:CB:3212, V-A:LEU:363:CA:3185, V-A:PRO:540:CD:4887, V-A:LEU:363:CD1:3189, V-B:ASP:366:CA:8182, V-A:TYR:531:CE2:4793, V-B:GLU:543:CD:9880, V-A:PRO:540:C:4881, H-B:GLY:454:N:9022, V-B:HIS:456:CE1:9042, V-B:ARG:545:CD:9895, V-B:ARG:545:CG:9894, V-B:GLU:543:C:9874, H-B:ARG:545:NH1:9899, H-B:ARG:545:NH2:9900, H-B:ARG:545:NE:9896, V-A:GLU:543:CB:4906, V-A:HIS:456:CE1:4070, V-B:GLU:543:CB:9878"]

$$$$
1b_Grossjean_2025
     RDKit          3D

 25 26  0  0  0  0  0  0  0  0999 V2000
  125.9090  122.5970   56.1960 C   0  0  0  0  0  0  0  0  0  0  0  0
  127.0050  122.1170   56.9640 O   0  0  0  0  0  0  0  0  0  0  0  0
  127.5110  122.8470   57.9910 C   0  0  0  0  0  0  0  0  0  0  0  0
  128.1150  122.3500   58.9460 O   0  0  0  0  0  0  0  0  0  0  0  0
  127.2690  124.3230   57.8450 C   0  0  0  0  0  0  0  0  0  0  0  0
  126.2250  124.9740   58.5210 C   0  0  0  0  0  0  0  0  0  0  0  0
  126.0280  126.3420   58.3640 C   0  0  0  0  0  0  0  0  0  0  0  0
  126.8640  127.0880   57.5330 C   0  0  0  0  0  0  0  0  0  0  0  0
  126.5700  128.4620   57.4480 N   0  0  0  0  0  0  0  0  0  0  0  0
  126.3450  129.2390   56.3670 C   0  0  0  0  0  0  0  0  0  0  0  0
  126.3530  128.8570   55.1970 O   0  0  0  0  0  0  0  0  0  0  0  0
  126.0490  130.7100   56.6670 C   0  0  0  0  0  0  0  0  0  0  0  0
  127.3800  131.4960   57.6250 S   0  0  0  0  0  0  0  0  0  0  0  0
  128.6700  131.9340   56.4800 C   0  0  0  0  0  0  0  0  0  0  0  0
  128.2360  132.1080   55.2070 N   0  0  0  0  0  0  0  0  0  0  0  0
  129.1350  132.4450   54.2540 C   0  0  0  0  0  0  0  0  0  0  0  0
  128.5750  132.6380   52.8560 C   0  0  0  0  0  0  0  0  0  0  0  0
  130.4920  132.6100   54.5240 C   0  0  0  0  0  0  0  0  0  0  0  0
  130.9530  132.4110   55.8300 C   0  0  0  0  0  0  0  0  0  0  0  0
  132.4470  132.5810   56.0990 C   0  0  0  0  0  0  0  0  0  0  0  0
  130.0320  132.0580   56.8420 C   0  0  0  0  0  0  0  0  0  0  0  0
  130.4990  131.8010   58.2070 C   0  0  0  0  0  0  0  0  0  0  0  0
  130.8700  131.5990   59.2840 N   0  0  0  0  0  0  0  0  0  0  0  0
  127.9100  126.4440   56.8540 C   0  0  0  0  0  0  0  0  0  0  0  0
  128.1070  125.0760   57.0120 C   0  0  0  0  0  0  0  0  0  0  0  0
  1  2  1  0
  2  3  1  0
  3  4  2  0
  3  5  1  0
  5  6  2  0
  6  7  1  0
  7  8  2  0
  8  9  1  0
  9 10  1  0
 10 11  2  0
 10 12  1  0
 12 13  1  0
 13 14  1  0
 14 15  2  0
 15 16  1  0
 16 17  1  0
 16 18  2  0
 18 19  1  0
 19 20  1  0
 19 21  2  0
 21 22  1  0
 22 23  3  0
  8 24  1  0
 24 25  2  0
 25  5  1  0
 21 14  1  0
M  END
>  <Binding energies>  (3) 
[-7.94]

>  <Ligand effiencies>  (3) 
[-0.3053846153846154]

>  <Interactions>  (3) 
["V-A:PRO:540:N:4884, V-B:TYR:539:C:9839, V-A:TYR:539:CE1:4875, V-B:ASP:366:CG:8185, V-A:TYR:539:CD1:4873, V-B:ILE:538:CA:9832, V-B:PRO:540:N:9856, V-B:PRO:540:CA:9855, V-A:ILE:538:CA:4860, V-B:TYR:539:CD2:9846, V-A:TYR:539:CZ:4877, V-A:PRO:540:CA:4883, V-A:ILE:538:CG2:4863, V-B:MET:535:CE:9807, H-B:LYS:534:NZ:9795, V-B:TYR:539:CE2:9848, V-A:VAL:537:C:4850, V-A:TYR:539:C:4867, V-A:TYR:539:CD2:4874, V-B:PRO:540:CD:9859, V-B:ILE:538:CD1:9837, V-A:TYR:539:CE2:4876, V-A:ILE:538:CB:4862, V-B:TYR:531:CE1:9764, H-B:TYR:531:OH:9767, V-B:ASP:366:CB:8184, V-A:PRO:540:CG:4886, V-A:PRO:540:CB:4885, V-A:PRO:540:CD:4887, V-A:LEU:363:CD1:3189, H-B:TYR:539:N:9842, V-A:ILE:538:C:4858"]

$$$$
1c_Grossjean_2025
     RDKit          3D

 23 24  0  0  0  0  0  0  0  0999 V2000
  132.7420  131.3200   61.9100 C   0  0  0  0  0  0  0  0  0  0  0  0
  131.4020  131.7190   61.6420 O   0  0  0  0  0  0  0  0  0  0  0  0
  130.9420  131.7010   60.3390 C   0  0  0  0  0  0  0  0  0  0  0  0
  129.6670  132.2230   60.1230 C   0  0  0  0  0  0  0  0  0  0  0  0
  129.1170  132.2500   58.8450 C   0  0  0  0  0  0  0  0  0  0  0  0
  129.8490  131.7550   57.7550 C   0  0  0  0  0  0  0  0  0  0  0  0
  129.3850  131.7240   56.4260 N   0  0  0  0  0  0  0  0  0  0  0  0
  129.8780  132.3420   55.3320 C   0  0  0  0  0  0  0  0  0  0  0  0
  130.8780  133.0600   55.3060 O   0  0  0  0  0  0  0  0  0  0  0  0
  129.1040  132.0970   54.0350 C   0  0  0  0  0  0  0  0  0  0  0  0
  128.9840  130.3270   53.6420 S   0  0  0  0  0  0  0  0  0  0  0  0
  128.0870  129.5200   54.9530 C   0  0  0  0  0  0  0  0  0  0  0  0
  126.9200  130.1360   55.2670 N   0  0  0  0  0  0  0  0  0  0  0  0
  126.1510  129.6130   56.2510 C   0  0  0  0  0  0  0  0  0  0  0  0
  124.8560  130.3500   56.5380 C   0  0  0  0  0  0  0  0  0  0  0  0
  126.5150  128.4720   56.9630 C   0  0  0  0  0  0  0  0  0  0  0  0
  127.7280  127.8430   56.6650 C   0  0  0  0  0  0  0  0  0  0  0  0
  128.1130  126.6040   57.4710 C   0  0  0  0  0  0  0  0  0  0  0  0
  128.5490  128.3730   55.6420 C   0  0  0  0  0  0  0  0  0  0  0  0
  129.8480  127.7600   55.3530 C   0  0  0  0  0  0  0  0  0  0  0  0
  130.8730  127.2750   55.1240 N   0  0  0  0  0  0  0  0  0  0  0  0
  131.1210  131.2210   57.9700 C   0  0  0  0  0  0  0  0  0  0  0  0
  131.6680  131.1950   59.2500 C   0  0  0  0  0  0  0  0  0  0  0  0
  1  2  1  0
  2  3  1  0
  3  4  2  0
  4  5  1  0
  5  6  2  0
  6  7  1  0
  7  8  1  0
  8  9  2  0
  8 10  1  0
 10 11  1  0
 11 12  1  0
 12 13  2  0
 13 14  1  0
 14 15  1  0
 14 16  2  0
 16 17  1  0
 17 18  1  0
 17 19  2  0
 19 20  1  0
 20 21  3  0
  6 22  1  0
 22 23  2  0
 23  3  1  0
 19 12  1  0
M  END
>  <Binding energies>  (4) 
[-7.08]

>  <Ligand effiencies>  (4) 
[-0.295]

>  <Interactions>  (4) 
["V-A:PRO:540:N:4884, V-A:TYR:539:CE1:4875, H-A:TYR:539:N:4870, V-A:MET:535:CE:4835, H-A:ALA:541:N:4891, V-A:TYR:539:CZ:4877, V-A:PRO:540:CA:4883, V-B:MET:535:CE:9807, H-B:LYS:534:NZ:9795, V-A:TYR:539:C:4867, V-A:TYR:539:CE2:4876, V-A:GLU:543:CG:4907, V-A:GLU:543:CD:4908, V-B:TYR:531:CE1:9764, V-A:PRO:540:CB:4885, H-A:TYR:531:OH:4795, V-A:ASN:362:CB:3176, V-A:PRO:540:C:4881"]

$$$$
1d_Grossjean_2025
     RDKit          3D

 21 22  0  0  0  0  0  0  0  0999 V2000
  125.0960  130.2870   56.1220 C   0  0  0  0  0  0  0  0  0  0  0  0
  126.4120  129.5460   55.9880 C   0  0  0  0  0  0  0  0  0  0  0  0
  126.7460  128.4920   56.8350 C   0  0  0  0  0  0  0  0  0  0  0  0
  127.9700  127.8380   56.6580 C   0  0  0  0  0  0  0  0  0  0  0  0
  128.3060  126.6750   57.5900 C   0  0  0  0  0  0  0  0  0  0  0  0
  128.8410  128.2670   55.6310 C   0  0  0  0  0  0  0  0  0  0  0  0
  130.1060  127.5670   55.3960 C   0  0  0  0  0  0  0  0  0  0  0  0
  131.1040  127.0120   55.2130 N   0  0  0  0  0  0  0  0  0  0  0  0
  128.4310  129.3620   54.8330 C   0  0  0  0  0  0  0  0  0  0  0  0
  129.4000  130.0330   53.5010 S   0  0  0  0  0  0  0  0  0  0  0  0
  129.6000  131.8130   53.8180 C   0  0  0  0  0  0  0  0  0  0  0  0
  130.1180  132.0920   55.2300 C   0  0  0  0  0  0  0  0  0  0  0  0
  129.6700  133.0530   55.8550 O   0  0  0  0  0  0  0  0  0  0  0  0
  131.0360  131.2150   55.6920 N   0  0  0  0  0  0  0  0  0  0  0  0
  131.7190  131.1900   56.9230 C   0  0  0  0  0  0  0  0  0  0  0  0
  130.9120  131.2180   58.0640 C   0  0  0  0  0  0  0  0  0  0  0  0
  131.4870  131.1910   59.3310 C   0  0  0  0  0  0  0  0  0  0  0  0
  132.8720  131.1280   59.4600 C   0  0  0  0  0  0  0  0  0  0  0  0
  133.6870  131.0910   58.3310 C   0  0  0  0  0  0  0  0  0  0  0  0
  133.1150  131.1190   57.0620 C   0  0  0  0  0  0  0  0  0  0  0  0
  127.2320  129.9760   55.0000 N   0  0  0  0  0  0  0  0  0  0  0  0
  1  2  1  0
  2  3  2  0
  3  4  1  0
  4  5  1  0
  4  6  2  0
  6  7  1  0
  7  8  3  0
  6  9  1  0
  9 10  1  0
 10 11  1  0
 11 12  1  0
 12 13  2  0
 12 14  1  0
 14 15  1  0
 15 16  2  0
 16 17  1  0
 17 18  2  0
 18 19  1  0
 19 20  2  0
  9 21  2  0
 21  2  1  0
 20 15  1  0
M  END
>  <Binding energies>  (5) 
[-7.08]

>  <Ligand effiencies>  (5) 
[-0.32181818181818184]

>  <Interactions>  (5) 
["V-A:TYR:539:CE1:4875, H-A:TYR:539:N:4870, V-A:MET:535:CE:4835, V-A:TYR:539:CZ:4877, V-A:PRO:540:CA:4883, V-A:ILE:538:CG2:4863, V-B:MET:535:CE:9807, H-B:LYS:534:NZ:9795, V-A:ASP:366:CG:3213, V-B:TYR:531:CE1:9764, V-A:PRO:540:CB:4885, V-A:ASP:366:CB:3212, V-A:LEU:363:CA:3185, H-A:TYR:531:OH:4795, V-A:LEU:363:CD1:3189, V-A:LEU:363:CB:3187"]

$$$$
1e_Grossjean_2025
     RDKit          3D

 22 23  0  0  0  0  0  0  0  0999 V2000
  126.6230  122.5130   55.0190 C   0  0  0  0  0  0  0  0  0  0  0  0
  126.1010  122.8880   56.3930 C   0  0  0  0  0  0  0  0  0  0  0  0
  124.7800  123.3030   56.5850 C   0  0  0  0  0  0  0  0  0  0  0  0
  124.3710  123.6350   57.8770 C   0  0  0  0  0  0  0  0  0  0  0  0
  125.2800  123.5470   58.9340 C   0  0  0  0  0  0  0  0  0  0  0  0
  126.5870  123.1180   58.6730 C   0  0  0  0  0  0  0  0  0  0  0  0
  127.4590  123.0610   59.7740 N   0  0  0  0  0  0  0  0  0  0  0  0
  127.1530  122.9350   61.0840 C   0  0  0  0  0  0  0  0  0  0  0  0
  126.0100  122.8580   61.5380 O   0  0  0  0  0  0  0  0  0  0  0  0
  128.3410  122.9190   62.0470 C   0  0  0  0  0  0  0  0  0  0  0  0
  129.7520  121.9910   61.3720 S   0  0  0  0  0  0  0  0  0  0  0  0
  130.7090  123.0800   60.3370 C   0  0  0  0  0  0  0  0  0  0  0  0
  129.9640  123.7370   59.4110 N   0  0  0  0  0  0  0  0  0  0  0  0
  130.5830  124.5930   58.5640 C   0  0  0  0  0  0  0  0  0  0  0  0
  129.6860  125.2960   57.5640 C   0  0  0  0  0  0  0  0  0  0  0  0
  131.9570  124.8190   58.5950 C   0  0  0  0  0  0  0  0  0  0  0  0
  132.7380  124.1290   59.5280 C   0  0  0  0  0  0  0  0  0  0  0  0
  134.2450  124.3800   59.5300 C   0  0  0  0  0  0  0  0  0  0  0  0
  132.1140  123.2280   60.4210 C   0  0  0  0  0  0  0  0  0  0  0  0
  132.9250  122.4540   61.3650 C   0  0  0  0  0  0  0  0  0  0  0  0
  133.5670  121.8440   62.1090 N   0  0  0  0  0  0  0  0  0  0  0  0
  126.9950  122.7960   57.4100 N   0  0  0  0  0  0  0  0  0  0  0  0
  1  2  1  0
  2  3  2  0
  3  4  1  0
  4  5  2  0
  5  6  1  0
  6  7  1  0
  7  8  1  0
  8  9  2  0
  8 10  1  0
 10 11  1  0
 11 12  1  0
 12 13  2  0
 13 14  1  0
 14 15  1  0
 14 16  2  0
 16 17  1  0
 17 18  1  0
 17 19  2  0
 19 20  1  0
 20 21  3  0
  6 22  2  0
 22  2  1  0
 19 12  1  0
M  END
>  <Binding energies>  (6) 
[-7.3]

>  <Ligand effiencies>  (6) 
[-0.3173913043478261]

>  <Interactions>  (6) 
["V-B:PRO:540:CB:9857, V-B:TYR:539:C:9839, V-B:ILE:538:C:9830, V-B:TYR:531:CE2:9765, V-B:TYR:539:CD1:9845, V-B:ILE:538:CA:9832, V-B:PRO:540:N:9856, V-B:PRO:540:CA:9855, V-B:TYR:539:CD2:9846, V-B:MET:535:CE:9807, V-B:TYR:539:CE2:9848, V-B:TYR:539:CE1:9847, V-B:TYR:531:CZ:9766, V-B:TYR:539:CZ:9849, V-B:LEU:363:CD1:8161, V-B:ILE:538:CD1:9837, V-A:ASP:366:CG:3213, V-A:ILE:369:CD1:3239, V-A:ILE:369:CG2:3237, V-A:LEU:475:CD2:4259, V-A:ASP:366:CB:3212, V-A:ASP:366:CA:3210, V-A:ILE:369:CB:3236, V-B:ALA:541:CB:9864, V-B:PRO:540:C:9853, V-B:GLU:543:CD:9880, H-A:TYR:484:OH:4348, H-B:ALA:541:N:9863, H-A:GLY:454:N:4050, V-A:ILE:369:CG1:3238"]

$$$$
1f_Grossjean_2025
     RDKit          3D

 21 22  0  0  0  0  0  0  0  0999 V2000
  129.6890  125.2830   57.4710 C   0  0  0  0  0  0  0  0  0  0  0  0
  130.5810  124.5950   58.4870 C   0  0  0  0  0  0  0  0  0  0  0  0
  131.9580  124.7990   58.5070 C   0  0  0  0  0  0  0  0  0  0  0  0
  132.7310  124.1270   59.4590 C   0  0  0  0  0  0  0  0  0  0  0  0
  134.2420  124.3530   59.4490 C   0  0  0  0  0  0  0  0  0  0  0  0
  132.0960  123.2650   60.3830 C   0  0  0  0  0  0  0  0  0  0  0  0
  132.8950  122.5100   61.3520 C   0  0  0  0  0  0  0  0  0  0  0  0
  133.5270  121.9150   62.1160 N   0  0  0  0  0  0  0  0  0  0  0  0
  130.6890  123.1400   60.3080 C   0  0  0  0  0  0  0  0  0  0  0  0
  129.7180  122.1040   61.3840 S   0  0  0  0  0  0  0  0  0  0  0  0
  128.2560  123.0510   61.9310 C   0  0  0  0  0  0  0  0  0  0  0  0
  127.0560  122.9970   60.9740 C   0  0  0  0  0  0  0  0  0  0  0  0
  125.9110  122.8780   61.4140 O   0  0  0  0  0  0  0  0  0  0  0  0
  127.3780  123.0640   59.6650 N   0  0  0  0  0  0  0  0  0  0  0  0
  126.5430  123.0500   58.5320 C   0  0  0  0  0  0  0  0  0  0  0  0
  125.2440  123.5890   58.4640 C   0  0  0  0  0  0  0  0  0  0  0  0
  124.5240  123.5090   57.2690 C   0  0  0  0  0  0  0  0  0  0  0  0
  125.1220  122.8940   56.1690 C   0  0  0  0  0  0  0  0  0  0  0  0
  126.3730  122.3710   56.2060 N   0  0  0  0  0  0  0  0  0  0  0  0
  127.0600  122.4570   57.3750 C   0  0  0  0  0  0  0  0  0  0  0  0
  129.9520  123.7770   59.3640 N   0  0  0  0  0  0  0  0  0  0  0  0
  1  2  1  0
  2  3  2  0
  3  4  1  0
  4  5  1  0
  4  6  2  0
  6  7  1  0
  7  8  3  0
  6  9  1  0
  9 10  1  0
 10 11  1  0
 11 12  1  0
 12 13  2  0
 12 14  1  0
 14 15  1  0
 15 16  2  0
 16 17  1  0
 17 18  2  0
 18 19  1  0
 19 20  2  0
  9 21  2  0
 21  2  1  0
 20 15  1  0
M  END
>  <Binding energies>  (7) 
[-7.14]

>  <Ligand effiencies>  (7) 
[-0.3245454545454545]

>  <Interactions>  (7) 
["V-B:PRO:540:CB:9857, V-B:TYR:539:C:9839, V-B:TYR:531:CE2:9765, V-B:PRO:540:N:9856, V-B:PRO:540:CA:9855, V-B:TYR:539:CD2:9846, V-B:TYR:539:CE2:9848, V-B:TYR:531:CZ:9766, V-B:TYR:539:CZ:9849, V-B:LEU:363:CD1:8161, V-B:PRO:540:CD:9859, V-B:ILE:538:CD1:9837, V-A:ASP:366:CG:3213, V-A:ILE:369:CD1:3239, V-A:ILE:369:CG2:3237, V-A:LEU:475:CD2:4259, V-B:TYR:539:CG:9844, V-A:ASP:366:CB:3212, V-A:ASP:366:CA:3210, V-A:ILE:369:CB:3236, V-B:PRO:540:C:9853, V-B:GLU:543:CD:9880, H-B:TYR:539:N:9842, H-A:TYR:484:OH:4348, H-B:TYR:539:O:9840, H-B:ALA:541:N:9863, H-A:GLY:454:N:4050, V-A:ILE:369:CG1:3238, V-B:TYR:539:CA:9841"]

$$$$
1g_Grossjean_2025
     RDKit          3D

 22 23  0  0  0  0  0  0  0  0999 V2000
  129.6580  125.0800   57.1580 C   0  0  0  0  0  0  0  0  0  0  0  0
  130.5250  124.8590   58.3820 C   0  0  0  0  0  0  0  0  0  0  0  0
  131.9110  124.7510   58.2850 C   0  0  0  0  0  0  0  0  0  0  0  0
  132.6580  124.5320   59.4470 C   0  0  0  0  0  0  0  0  0  0  0  0
  134.1750  124.4010   59.3140 C   0  0  0  0  0  0  0  0  0  0  0  0
  131.9930  124.4330   60.6900 C   0  0  0  0  0  0  0  0  0  0  0  0
  132.7490  124.1520   61.9120 C   0  0  0  0  0  0  0  0  0  0  0  0
  133.3490  123.9280   62.8760 N   0  0  0  0  0  0  0  0  0  0  0  0
  130.5860  124.5810   60.6970 C   0  0  0  0  0  0  0  0  0  0  0  0
  129.5910  124.4950   62.1700 S   0  0  0  0  0  0  0  0  0  0  0  0
  128.6940  122.9150   62.1250 C   0  0  0  0  0  0  0  0  0  0  0  0
  127.2870  123.0710   61.5480 C   0  0  0  0  0  0  0  0  0  0  0  0
  126.3020  122.8650   62.2590 O   0  0  0  0  0  0  0  0  0  0  0  0
  127.2100  123.4310   60.2550 N   0  0  0  0  0  0  0  0  0  0  0  0
  125.9730  123.6920   59.5190 C   0  0  0  0  0  0  0  0  0  0  0  0
  126.0130  123.2680   58.0530 C   0  0  0  0  0  0  0  0  0  0  0  0
  124.8270  123.1880   57.3170 C   0  0  0  0  0  0  0  0  0  0  0  0
  124.8630  122.8020   55.9800 C   0  0  0  0  0  0  0  0  0  0  0  0
  126.0850  122.5020   55.3820 C   0  0  0  0  0  0  0  0  0  0  0  0
  127.2710  122.5850   56.1080 C   0  0  0  0  0  0  0  0  0  0  0  0
  127.2360  122.9690   57.4460 C   0  0  0  0  0  0  0  0  0  0  0  0
  129.8670  124.7710   59.5620 N   0  0  0  0  0  0  0  0  0  0  0  0
  1  2  1  0
  2  3  2  0
  3  4  1  0
  4  5  1  0
  4  6  2  0
  6  7  1  0
  7  8  3  0
  6  9  1  0
  9 10  1  0
 10 11  1  0
 11 12  1  0
 12 13  2  0
 12 14  1  0
 14 15  1  0
 15 16  1  0
 16 17  2  0
 17 18  1  0
 18 19  2  0
 19 20  1  0
 20 21  2  0
  9 22  2  0
 22  2  1  0
 21 16  1  0
M  END
>  <Binding energies>  (8) 
[-7.27]

>  <Ligand effiencies>  (8) 
[-0.3160869565217391]

>  <Interactions>  (8) 
["V-B:PRO:540:CB:9857, V-B:TYR:539:C:9839, V-B:ILE:538:C:9830, V-B:TYR:531:CE2:9765, V-B:TYR:539:CD1:9845, V-B:ILE:538:CA:9832, V-B:PRO:540:N:9856, V-B:PRO:540:CA:9855, V-B:MET:535:CE:9807, V-B:TYR:539:CE2:9848, V-B:TYR:539:CE1:9847, V-B:TYR:531:CZ:9766, V-B:TYR:539:CZ:9849, V-B:LEU:363:CD1:8161, V-B:PRO:540:CD:9859, V-B:ILE:538:CD1:9837, V-B:ILE:538:CG2:9835, V-A:ASP:366:CG:3213, V-A:ILE:369:CD1:3239, V-A:ILE:369:CG2:3237, V-B:TYR:539:CG:9844, V-A:ASP:366:CB:3212, V-B:ILE:538:CB:9834, V-A:ASP:366:CA:3210, V-A:ILE:369:CB:3236, V-B:GLU:543:CD:9880, H-A:TYR:484:OH:4348, H-B:ALA:541:N:9863, H-A:GLY:454:N:4050"]

$$$$
1h_Grossjean_2025
     RDKit          3D

 28 29  0  0  0  0  0  0  0  0999 V2000
  126.6770  135.2420   60.6270 C   0  0  0  0  0  0  0  0  0  0  0  0
  126.8880  133.8830   60.9920 O   0  0  0  0  0  0  0  0  0  0  0  0
  125.8360  132.9890   60.9160 C   0  0  0  0  0  0  0  0  0  0  0  0
  125.1230  132.7150   59.7390 C   0  0  0  0  0  0  0  0  0  0  0  0
  124.0610  131.8100   59.7400 C   0  0  0  0  0  0  0  0  0  0  0  0
  123.3090  131.5040   58.4480 C   0  0  0  0  0  0  0  0  0  0  0  0
  124.1310  130.8750   57.4150 N   0  0  0  0  0  0  0  0  0  0  0  0
  124.9330  129.8110   57.6020 C   0  0  0  0  0  0  0  0  0  0  0  0
  125.0470  129.2210   58.6760 O   0  0  0  0  0  0  0  0  0  0  0  0
  125.7370  129.3430   56.3880 C   0  0  0  0  0  0  0  0  0  0  0  0
  126.2910  130.7360   55.3600 S   0  0  0  0  0  0  0  0  0  0  0  0
  127.7920  131.3880   56.0740 C   0  0  0  0  0  0  0  0  0  0  0  0
  127.8450  131.3960   57.4310 N   0  0  0  0  0  0  0  0  0  0  0  0
  128.9560  131.8740   58.0380 C   0  0  0  0  0  0  0  0  0  0  0  0
  128.9420  131.8460   59.5550 C   0  0  0  0  0  0  0  0  0  0  0  0
  130.0510  132.3610   57.3270 C   0  0  0  0  0  0  0  0  0  0  0  0
  130.0080  132.3600   55.9290 C   0  0  0  0  0  0  0  0  0  0  0  0
  131.2190  132.8960   55.1690 C   0  0  0  0  0  0  0  0  0  0  0  0
  128.8570  131.8650   55.2740 C   0  0  0  0  0  0  0  0  0  0  0  0
  128.7830  131.8550   53.8110 C   0  0  0  0  0  0  0  0  0  0  0  0
  128.7240  131.8470   52.6550 N   0  0  0  0  0  0  0  0  0  0  0  0
  123.7280  131.1400   60.9190 C   0  0  0  0  0  0  0  0  0  0  0  0
  124.4280  131.3900   62.1100 C   0  0  0  0  0  0  0  0  0  0  0  0
  124.1520  130.7670   63.3130 O   0  0  0  0  0  0  0  0  0  0  0  0
  124.9280  129.6420   63.7120 C   0  0  0  0  0  0  0  0  0  0  0  0
  125.4730  132.3250   62.0980 C   0  0  0  0  0  0  0  0  0  0  0  0
  126.1710  132.5750   63.2540 O   0  0  0  0  0  0  0  0  0  0  0  0
  127.5020  132.0780   63.2460 C   0  0  0  0  0  0  0  0  0  0  0  0
  1  2  1  0
  2  3  1  0
  3  4  2  0
  4  5  1  0
  5  6  1  0
  6  7  1  0
  7  8  1  0
  8  9  2  0
  8 10  1  0
 10 11  1  0
 11 12  1  0
 12 13  2  0
 13 14  1  0
 14 15  1  0
 14 16  2  0
 16 17  1  0
 17 18  1  0
 17 19  2  0
 19 20  1  0
 20 21  3  0
  5 22  2  0
 22 23  1  0
 23 24  1  0
 24 25  1  0
 23 26  2  0
 26 27  1  0
 27 28  1  0
 26  3  1  0
 19 12  1  0
M  END
>  <Binding energies>  (9) 
[-7.42]

>  <Ligand effiencies>  (9) 
[-0.2558620689655172]

>  <Interactions>  (9) 
["V-A:PRO:540:N:4884, V-A:TYR:539:CE1:4875, V-A:TYR:539:CD1:4873, V-B:LEU:475:CD2:9231, V-A:ILE:538:CA:4860, V-A:TYR:539:CZ:4877, V-A:PRO:540:CA:4883, V-A:ILE:538:CG2:4863, H-B:LYS:534:NZ:9795, H-A:TYR:539:OH:4878, V-B:TYR:531:CZ:9766, V-A:TYR:539:C:4867, V-A:TYR:539:CE2:4876, V-A:ALA:541:CB:4892, V-B:ILE:369:CD1:8211, V-B:ARG:545:CZ:9898, V-A:ILE:538:CB:4862, V-B:TYR:531:CE1:9764, V-B:ASP:366:CB:8184, V-B:ILE:369:CG2:8209, V-B:ILE:369:CB:8208, V-B:ASP:366:C:8180, V-A:PRO:540:CD:4887, V-B:ASP:366:CA:8182, H-B:GLY:454:N:9022, H-B:TYR:484:OH:9320, V-A:ILE:538:C:4858, H-B:ASP:366:O:8181"]

$$$$
1i_Grossjean_2025
     RDKit          3D

 20 21  0  0  0  0  0  0  0  0999 V2000
  127.2100  130.9550   56.1360 C   0  0  0  0  0  0  0  0  0  0  0  0
  128.1520  131.2020   57.2990 C   0  0  0  0  0  0  0  0  0  0  0  0
  127.7150  131.8040   58.4760 C   0  0  0  0  0  0  0  0  0  0  0  0
  128.6280  131.9980   59.5200 C   0  0  0  0  0  0  0  0  0  0  0  0
  128.1210  132.6450   60.8070 C   0  0  0  0  0  0  0  0  0  0  0  0
  129.9690  131.5840   59.3510 C   0  0  0  0  0  0  0  0  0  0  0  0
  130.9280  131.7310   60.4490 C   0  0  0  0  0  0  0  0  0  0  0  0
  131.6840  131.8470   61.3180 N   0  0  0  0  0  0  0  0  0  0  0  0
  130.3290  131.0040   58.1120 C   0  0  0  0  0  0  0  0  0  0  0  0
  131.9690  130.4280   57.7290 S   0  0  0  0  0  0  0  0  0  0  0  0
  132.6400  131.5070   56.4280 C   0  0  0  0  0  0  0  0  0  0  0  0
  131.5350  132.2110   55.6370 C   0  0  0  0  0  0  0  0  0  0  0  0
  131.2720  133.3890   55.8860 O   0  0  0  0  0  0  0  0  0  0  0  0
  130.9220  131.4590   54.6980 N   0  0  0  0  0  0  0  0  0  0  0  0
  129.8930  131.8460   53.8510 C   0  0  0  0  0  0  0  0  0  0  0  0
  129.1390  133.0010   54.0480 C   0  0  0  0  0  0  0  0  0  0  0  0
  128.2380  133.0220   53.0080 C   0  0  0  0  0  0  0  0  0  0  0  0
  128.4380  131.9350   52.2270 O   0  0  0  0  0  0  0  0  0  0  0  0
  129.4890  131.1960   52.7720 N   0  0  0  0  0  0  0  0  0  0  0  0
  129.4330  130.8020   57.1140 N   0  0  0  0  0  0  0  0  0  0  0  0
  1  2  1  0
  2  3  2  0
  3  4  1  0
  4  5  1  0
  4  6  2  0
  6  7  1  0
  7  8  3  0
  6  9  1  0
  9 10  1  0
 10 11  1  0
 11 12  1  0
 12 13  2  0
 12 14  1  0
 14 15  1  0
 15 16  1  0
 16 17  2  0
 17 18  1  0
 18 19  1  0
  9 20  2  0
 20  2  1  0
 19 15  2  0
M  END
>  <Binding energies>  (10) 
[-7.76]

>  <Ligand effiencies>  (10) 
[-0.36952380952380953]

>  <Interactions>  (10) 
["V-A:TYR:539:CE1:4875, H-A:TYR:539:N:4870, V-A:TYR:539:CD1:4873, H-A:ALA:541:N:4891, V-A:TYR:531:CZ:4794, V-A:ILE:538:CA:4860, V-A:TYR:539:CZ:4877, V-A:PRO:540:CA:4883, V-A:ILE:538:CG2:4863, H-B:LYS:534:NZ:9795, V-A:VAL:537:C:4850, V-A:TYR:539:CD2:4874, V-A:TYR:539:CE2:4876, V-A:ALA:541:CB:4892, V-A:ILE:538:CB:4862, V-A:PRO:540:CB:4885, H-A:TYR:531:OH:4795, V-A:LEU:363:CD1:3189, V-A:PRO:540:C:4881, V-A:ILE:538:C:4858"]

$$$$
1k_Grossjean_2025
     RDKit          3D

 25 25  0  0  0  0  0  0  0  0999 V2000
  123.7430  131.1460   58.3480 C   0  0  0  0  0  0  0  0  0  0  0  0
  123.8990  130.7320   57.0000 O   0  0  0  0  0  0  0  0  0  0  0  0
  124.7840  129.6310   56.8440 C   0  0  0  0  0  0  0  0  0  0  0  0
  125.6320  129.8310   55.5810 C   0  0  0  0  0  0  0  0  0  0  0  0
  126.4590  128.6920   55.3820 O   0  0  0  0  0  0  0  0  0  0  0  0
  127.3930  128.4720   56.4310 C   0  0  0  0  0  0  0  0  0  0  0  0
  128.6830  127.8820   55.8500 C   0  0  0  0  0  0  0  0  0  0  0  0
  129.5130  128.9330   55.3730 O   0  0  0  0  0  0  0  0  0  0  0  0
  128.9350  129.6810   54.3120 C   0  0  0  0  0  0  0  0  0  0  0  0
  129.7170  130.9940   54.1190 C   0  0  0  0  0  0  0  0  0  0  0  0
  130.8990  131.1140   54.9730 N   0  0  0  0  0  0  0  0  0  0  0  0
  131.4750  132.2720   55.3410 C   0  0  0  0  0  0  0  0  0  0  0  0
  131.0510  133.3750   54.9920 O   0  0  0  0  0  0  0  0  0  0  0  0
  132.7190  132.1380   56.2350 C   0  0  0  0  0  0  0  0  0  0  0  0
  132.5510  131.0070   57.6590 S   0  0  0  0  0  0  0  0  0  0  0  0
  131.0140  131.3510   58.5040 C   0  0  0  0  0  0  0  0  0  0  0  0
  129.9110  131.4360   57.7170 N   0  0  0  0  0  0  0  0  0  0  0  0
  128.7160  131.7040   58.2930 C   0  0  0  0  0  0  0  0  0  0  0  0
  127.5340  131.7920   57.3470 C   0  0  0  0  0  0  0  0  0  0  0  0
  128.5680  131.8890   59.6660 C   0  0  0  0  0  0  0  0  0  0  0  0
  129.6960  131.7960   60.4880 C   0  0  0  0  0  0  0  0  0  0  0  0
  129.5120  132.0020   61.9900 C   0  0  0  0  0  0  0  0  0  0  0  0
  130.9530  131.5210   59.9060 C   0  0  0  0  0  0  0  0  0  0  0  0
  132.1520  131.4220   60.7440 C   0  0  0  0  0  0  0  0  0  0  0  0
  133.0990  131.3450   61.4060 N   0  0  0  0  0  0  0  0  0  0  0  0
  1  2  1  0
  2  3  1  0
  3  4  1  0
  4  5  1  0
  5  6  1  0
  6  7  1  0
  7  8  1  0
  8  9  1  0
  9 10  1  0
 10 11  1  0
 11 12  1  0
 12 13  2  0
 12 14  1  0
 14 15  1  0
 15 16  1  0
 16 17  2  0
 17 18  1  0
 18 19  1  0
 18 20  2  0
 20 21  1  0
 21 22  1  0
 21 23  2  0
 23 24  1  0
 24 25  3  0
 23 16  1  0
M  END
>  <Binding energies>  (11) 
[-5.85]

>  <Ligand effiencies>  (11) 
[-0.22499999999999998]

>  <Interactions>  (11) 
["V-A:TYR:539:CE1:4875, H-A:TYR:539:N:4870, V-A:TYR:539:CD1:4873, V-A:MET:535:CE:4835, H-A:ALA:541:N:4891, V-A:TYR:531:CZ:4794, V-A:TYR:539:CZ:4877, V-A:PRO:540:CA:4883, V-A:ILE:538:CG2:4863, V-B:MET:535:CE:9807, H-B:LYS:534:NZ:9795, H-A:TYR:539:OH:4878, V-B:TYR:531:CZ:9766, V-A:ALA:541:CB:4892, V-A:GLU:543:CG:4907, V-A:ILE:538:CB:4862, V-B:TYR:531:CE1:9764, H-B:TYR:531:OH:9767, V-B:ASP:366:CB:8184, V-B:ILE:369:CG2:8209, V-A:PRO:540:CG:4886, V-A:PRO:540:CB:4885, V-B:ILE:369:CB:8208, V-A:ALA:541:CA:4890, V-B:ASP:366:C:8180, H-A:TYR:531:OH:4795, V-A:PRO:540:CD:4887, V-A:LEU:363:CD1:3189, V-B:ASP:366:CA:8182, H-A:ARG:545:NH2:4928"]

$$$$
1l_Grossjean_2025
     RDKit          3D

 17 17  0  0  0  0  0  0  0  0999 V2000
  129.7480  125.1590   63.1660 C   0  0  0  0  0  0  0  0  0  0  0  0
  129.2020  123.8920   63.5020 O   0  0  0  0  0  0  0  0  0  0  0  0
  128.6810  123.2810   62.3620 N   0  0  0  0  0  0  0  0  0  0  0  0
  129.2900  122.1840   61.8730 C   0  0  0  0  0  0  0  0  0  0  0  0
  130.1460  121.5440   62.4900 O   0  0  0  0  0  0  0  0  0  0  0  0
  128.8330  121.7560   60.4710 C   0  0  0  0  0  0  0  0  0  0  0  0
  129.0240  123.0270   59.1750 S   0  0  0  0  0  0  0  0  0  0  0  0
  127.5270  123.0590   58.2030 C   0  0  0  0  0  0  0  0  0  0  0  0
  127.6770  122.7930   56.8800 N   0  0  0  0  0  0  0  0  0  0  0  0
  126.5820  122.8020   56.0830 C   0  0  0  0  0  0  0  0  0  0  0  0
  126.8300  122.4960   54.6180 C   0  0  0  0  0  0  0  0  0  0  0  0
  125.3040  123.0720   56.5660 C   0  0  0  0  0  0  0  0  0  0  0  0
  125.1360  123.3450   57.9270 C   0  0  0  0  0  0  0  0  0  0  0  0
  123.7250  123.6380   58.4350 C   0  0  0  0  0  0  0  0  0  0  0  0
  126.2660  123.3420   58.7760 C   0  0  0  0  0  0  0  0  0  0  0  0
  126.1190  123.6260   60.2070 C   0  0  0  0  0  0  0  0  0  0  0  0
  126.0020  123.8500   61.3360 N   0  0  0  0  0  0  0  0  0  0  0  0
  1  2  1  0
  2  3  1  0
  3  4  1  0
  4  5  2  0
  4  6  1  0
  6  7  1  0
  7  8  1  0
  8  9  2  0
  9 10  1  0
 10 11  1  0
 10 12  2  0
 12 13  1  0
 13 14  1  0
 13 15  2  0
 15 16  1  0
 16 17  3  0
 15  8  1  0
M  END
>  <Binding energies>  (12) 
[-6.0]

>  <Ligand effiencies>  (12) 
[-0.3333333333333333]

>  <Interactions>  (12) 
["V-B:PRO:540:CB:9857, V-B:TYR:539:C:9839, V-B:ILE:538:C:9830, V-B:TYR:531:CE2:9765, V-B:ASP:366:CG:8185, V-B:TYR:539:CD1:9845, V-B:ILE:538:CA:9832, V-B:PRO:540:N:9856, V-B:PRO:540:CA:9855, V-B:VAL:537:C:9822, V-B:TYR:539:CD2:9846, V-B:MET:535:CE:9807, V-B:TYR:539:CE1:9847, V-B:TYR:531:CZ:9766, V-B:LEU:363:CD1:8161, V-B:ILE:538:CD1:9837, V-B:ALA:541:CB:9864, V-B:GLU:543:CD:9880, V-B:GLU:543:CG:9879, H-B:TYR:539:N:9842, H-A:TYR:484:OH:4348, H-B:GLU:543:OE1:9881, V-B:LEU:363:CA:8157, V-B:LEU:363:CB:8159, H-B:ARG:545:NH2:9900"]

$$$$
1m_Grossjean_2025
     RDKit          3D

 20 20  0  0  0  0  0  0  0  0999 V2000
  128.8030  129.7320   54.2920 C   0  0  0  0  0  0  0  0  0  0  0  0
  129.3340  130.4530   53.1890 O   0  0  0  0  0  0  0  0  0  0  0  0
  129.0990  131.7750   53.0590 C   0  0  0  0  0  0  0  0  0  0  0  0
  128.1910  132.2810   52.3920 O   0  0  0  0  0  0  0  0  0  0  0  0
  130.1140  132.6120   53.8650 C   0  0  0  0  0  0  0  0  0  0  0  0
  131.0000  131.7860   54.6980 N   0  0  0  0  0  0  0  0  0  0  0  0
  131.5620  132.1640   55.8620 C   0  0  0  0  0  0  0  0  0  0  0  0
  131.3990  133.2820   56.3550 O   0  0  0  0  0  0  0  0  0  0  0  0
  132.4400  131.1080   56.5470 C   0  0  0  0  0  0  0  0  0  0  0  0
  131.5490  130.0100   57.7020 S   0  0  0  0  0  0  0  0  0  0  0  0
  130.0470  130.8290   58.1930 C   0  0  0  0  0  0  0  0  0  0  0  0
  129.0480  130.7240   57.2800 N   0  0  0  0  0  0  0  0  0  0  0  0
  127.8560  131.3040   57.5500 C   0  0  0  0  0  0  0  0  0  0  0  0
  126.7820  131.1270   56.4920 C   0  0  0  0  0  0  0  0  0  0  0  0
  127.6140  132.0160   58.7220 C   0  0  0  0  0  0  0  0  0  0  0  0
  128.6440  132.1540   59.6580 C   0  0  0  0  0  0  0  0  0  0  0  0
  128.3610  132.9530   60.9290 C   0  0  0  0  0  0  0  0  0  0  0  0
  129.8990  131.5580   59.3980 C   0  0  0  0  0  0  0  0  0  0  0  0
  131.0070  131.7320   60.3410 C   0  0  0  0  0  0  0  0  0  0  0  0
  131.8810  131.8690   61.0860 N   0  0  0  0  0  0  0  0  0  0  0  0
  1  2  1  0
  2  3  1  0
  3  4  2  0
  3  5  1  0
  5  6  1  0
  6  7  1  0
  7  8  2  0
  7  9  1  0
  9 10  1  0
 10 11  1  0
 11 12  2  0
 12 13  1  0
 13 14  1  0
 13 15  2  0
 15 16  1  0
 16 17  1  0
 16 18  2  0
 18 19  1  0
 19 20  3  0
 18 11  1  0
M  END
>  <Binding energies>  (13) 
[-6.07]

>  <Ligand effiencies>  (13) 
[-0.28904761904761905]

>  <Interactions>  (13) 
["V-A:PRO:540:N:4884, V-A:TYR:539:CE1:4875, V-A:MET:535:CG:4833, H-A:TYR:539:N:4870, V-A:TYR:539:CD1:4873, V-A:MET:535:CE:4835, H-A:ALA:541:N:4891, V-A:TYR:531:CZ:4794, V-A:ILE:538:CA:4860, V-A:TYR:539:CZ:4877, V-A:PRO:540:CA:4883, V-A:ILE:538:CG2:4863, H-B:LYS:534:NZ:9795, V-A:TYR:539:CE2:4876, V-A:ALA:541:CB:4892, V-A:ILE:538:CB:4862, V-A:PRO:540:CB:4885, H-A:TYR:531:OH:4795, V-A:LEU:363:CD1:3189, V-A:PRO:540:C:4881, V-A:ILE:538:C:4858"]

$$$$
1n_Grossjean_2025
     RDKit          3D

 27 28  0  0  0  0  0  0  0  0999 V2000
  126.4150  122.8550   54.9080 C   0  0  0  0  0  0  0  0  0  0  0  0
  125.7900  122.6500   56.2920 C   0  0  0  0  0  0  0  0  0  0  0  0
  126.7430  122.0410   57.1550 O   0  0  0  0  0  0  0  0  0  0  0  0
  127.4120  122.7690   58.0860 C   0  0  0  0  0  0  0  0  0  0  0  0
  128.0310  122.2650   59.0270 O   0  0  0  0  0  0  0  0  0  0  0  0
  127.3360  124.2500   57.8470 C   0  0  0  0  0  0  0  0  0  0  0  0
  128.2470  124.9160   57.0130 C   0  0  0  0  0  0  0  0  0  0  0  0
  128.1490  126.2900   56.8160 C   0  0  0  0  0  0  0  0  0  0  0  0
  127.1500  127.0280   57.4510 C   0  0  0  0  0  0  0  0  0  0  0  0
  127.1470  128.4110   57.1850 N   0  0  0  0  0  0  0  0  0  0  0  0
  126.8080  129.0730   56.0580 C   0  0  0  0  0  0  0  0  0  0  0  0
  126.4140  128.5520   55.0150 O   0  0  0  0  0  0  0  0  0  0  0  0
  126.9330  130.6010   56.1240 C   0  0  0  0  0  0  0  0  0  0  0  0
  126.6150  131.1750   57.5210 C   0  0  0  0  0  0  0  0  0  0  0  0
  127.8940  132.2780   58.1920 S   0  0  0  0  0  0  0  0  0  0  0  0
  129.3260  132.1450   57.1440 C   0  0  0  0  0  0  0  0  0  0  0  0
  129.0630  132.3780   55.8330 N   0  0  0  0  0  0  0  0  0  0  0  0
  130.0820  132.3200   54.9440 C   0  0  0  0  0  0  0  0  0  0  0  0
  129.7150  132.6030   53.5010 C   0  0  0  0  0  0  0  0  0  0  0  0
  131.3910  132.0230   55.3190 C   0  0  0  0  0  0  0  0  0  0  0  0
  131.6690  131.7600   56.6650 C   0  0  0  0  0  0  0  0  0  0  0  0
  133.1080  131.4240   57.0510 C   0  0  0  0  0  0  0  0  0  0  0  0
  130.6190  131.8100   57.6110 C   0  0  0  0  0  0  0  0  0  0  0  0
  130.8770  131.4880   59.0150 C   0  0  0  0  0  0  0  0  0  0  0  0
  131.0840  131.2320   60.1250 N   0  0  0  0  0  0  0  0  0  0  0  0
  126.2290  126.3680   58.2780 C   0  0  0  0  0  0  0  0  0  0  0  0
  126.3260  124.9930   58.4720 C   0  0  0  0  0  0  0  0  0  0  0  0
  1  2  1  0
  2  3  1  0
  3  4  1  0
  4  5  2  0
  4  6  1  0
  6  7  2  0
  7  8  1  0
  8  9  2  0
  9 10  1  0
 10 11  1  0
 11 12  2  0
 11 13  1  0
 13 14  1  0
 14 15  1  0
 15 16  1  0
 16 17  2  0
 17 18  1  0
 18 19  1  0
 18 20  2  0
 20 21  1  0
 21 22  1  0
 21 23  2  0
 23 24  1  0
 24 25  3  0
  9 26  1  0
 26 27  2  0
 27  6  1  0
 23 16  1  0
M  END
>  <Binding energies>  (14) 
[-8.47]

>  <Ligand effiencies>  (14) 
[-0.30250000000000005]

>  <Interactions>  (14) 
["V-A:PRO:540:N:4884, V-B:TYR:539:C:9839, V-A:TYR:539:CE1:4875, H-A:TYR:539:N:4870, V-B:ASP:366:CG:8185, V-A:TYR:539:CD1:4873, V-B:ILE:538:CA:9832, V-B:PRO:540:N:9856, V-B:PRO:540:CA:9855, V-A:ILE:538:CA:4860, V-B:TYR:539:CD2:9846, V-A:TYR:539:CZ:4877, V-A:PRO:540:CA:4883, V-A:ILE:538:CG2:4863, V-B:MET:535:CE:9807, H-B:LYS:534:NZ:9795, V-A:TYR:539:C:4867, V-B:PRO:540:CD:9859, V-B:ILE:538:CD1:9837, V-A:ILE:538:CB:4862, V-B:TYR:531:CE1:9764, H-B:TYR:531:OH:9767, V-A:PRO:540:CB:4885, V-A:LEU:363:CD1:3189, H-B:TYR:539:N:9842"]

$$$$
1q_Grossjean_2025
     RDKit          3D

 21 21  0  0  0  0  0  0  0  0999 V2000
  129.2600  129.4070   54.3660 C   0  0  0  0  0  0  0  0  0  0  0  0
  128.7500  130.7310   54.4370 O   0  0  0  0  0  0  0  0  0  0  0  0
  129.0660  131.6420   53.4840 C   0  0  0  0  0  0  0  0  0  0  0  0
  128.2580  132.2570   52.7860 O   0  0  0  0  0  0  0  0  0  0  0  0
  130.5830  131.8530   53.2940 C   0  0  0  0  0  0  0  0  0  0  0  0
  131.3500  131.6580   54.5340 N   0  0  0  0  0  0  0  0  0  0  0  0
  131.2510  132.4070   55.6480 C   0  0  0  0  0  0  0  0  0  0  0  0
  130.4810  133.3640   55.7510 O   0  0  0  0  0  0  0  0  0  0  0  0
  132.1530  131.9920   56.8200 C   0  0  0  0  0  0  0  0  0  0  0  0
  132.4140  130.4750   56.9120 C   0  0  0  0  0  0  0  0  0  0  0  0
  131.3020  129.6150   58.0640 S   0  0  0  0  0  0  0  0  0  0  0  0
  129.9010  130.6660   58.3920 C   0  0  0  0  0  0  0  0  0  0  0  0
  128.9110  130.5470   57.4720 N   0  0  0  0  0  0  0  0  0  0  0  0
  127.7950  131.2980   57.6130 C   0  0  0  0  0  0  0  0  0  0  0  0
  126.7400  131.1220   56.5360 C   0  0  0  0  0  0  0  0  0  0  0  0
  127.6140  132.1830   58.6740 C   0  0  0  0  0  0  0  0  0  0  0  0
  128.6160  132.2950   59.6420 C   0  0  0  0  0  0  0  0  0  0  0  0
  128.3860  133.2600   60.8060 C   0  0  0  0  0  0  0  0  0  0  0  0
  129.7900  131.5190   59.5170 C   0  0  0  0  0  0  0  0  0  0  0  0
  130.8240  131.5820   60.5520 C   0  0  0  0  0  0  0  0  0  0  0  0
  131.6390  131.6340   61.3720 N   0  0  0  0  0  0  0  0  0  0  0  0
  1  2  1  0
  2  3  1  0
  3  4  2  0
  3  5  1  0
  5  6  1  0
  6  7  1  0
  7  8  2  0
  7  9  1  0
  9 10  1  0
 10 11  1  0
 11 12  1  0
 12 13  2  0
 13 14  1  0
 14 15  1  0
 14 16  2  0
 16 17  1  0
 17 18  1  0
 17 19  2  0
 19 20  1  0
 20 21  3  0
 19 12  1  0
M  END
>  <Binding energies>  (15) 
[-6.68]

>  <Ligand effiencies>  (15) 
[-0.30363636363636365]

>  <Interactions>  (15) 
["V-A:PRO:540:N:4884, V-A:TYR:539:CE1:4875, V-A:MET:535:CG:4833, H-A:TYR:539:N:4870, V-A:TYR:539:CD1:4873, V-A:MET:535:CE:4835, H-A:ALA:541:N:4891, V-A:TYR:531:CZ:4794, V-A:ILE:538:CA:4860, V-A:TYR:539:CZ:4877, V-A:PRO:540:CA:4883, V-A:ILE:538:CG2:4863, H-B:LYS:534:NZ:9795, V-A:TYR:539:CE2:4876, V-A:ALA:541:CB:4892, V-A:MET:535:CB:4832, V-A:ILE:538:CB:4862, V-A:PRO:540:CB:4885, H-A:TYR:531:OH:4795, V-A:PRO:540:CD:4887, V-A:LEU:363:CD1:3189, V-A:TYR:531:CE2:4793, V-A:PRO:540:C:4881"]

$$$$
2a_Grossjean_2025
     RDKit          3D

 29 30  0  0  0  0  0  0  0  0999 V2000
  126.7200  122.8180   54.7230 C   0  0  0  0  0  0  0  0  0  0  0  0
  125.8800  122.7220   56.0000 C   0  0  0  0  0  0  0  0  0  0  0  0
  126.6340  122.0620   57.0100 O   0  0  0  0  0  0  0  0  0  0  0  0
  127.4250  122.7620   57.8630 C   0  0  0  0  0  0  0  0  0  0  0  0
  128.2430  122.2330   58.6220 O   0  0  0  0  0  0  0  0  0  0  0  0
  127.2190  124.2470   57.7760 C   0  0  0  0  0  0  0  0  0  0  0  0
  126.1720  124.8920   58.4500 C   0  0  0  0  0  0  0  0  0  0  0  0
  126.0080  126.2700   58.3460 C   0  0  0  0  0  0  0  0  0  0  0  0
  126.8790  127.0300   57.5650 C   0  0  0  0  0  0  0  0  0  0  0  0
  126.6110  128.4110   57.5220 N   0  0  0  0  0  0  0  0  0  0  0  0
  126.2830  129.1990   56.4750 C   0  0  0  0  0  0  0  0  0  0  0  0
  126.1820  128.8290   55.3050 O   0  0  0  0  0  0  0  0  0  0  0  0
  126.0280  130.6720   56.8130 C   0  0  0  0  0  0  0  0  0  0  0  0
  127.4860  131.5150   57.5130 S   0  0  0  0  0  0  0  0  0  0  0  0
  128.6510  131.8910   56.2080 C   0  0  0  0  0  0  0  0  0  0  0  0
  128.1080  132.1470   54.9900 N   0  0  0  0  0  0  0  0  0  0  0  0
  128.9310  132.4260   53.9540 C   0  0  0  0  0  0  0  0  0  0  0  0
  128.2520  132.6740   52.6200 C   0  0  0  0  0  0  0  0  0  0  0  0
  130.3160  132.4710   54.0850 C   0  0  0  0  0  0  0  0  0  0  0  0
  130.8980  132.2180   55.3370 C   0  0  0  0  0  0  0  0  0  0  0  0
  132.4320  132.2730   55.4660 C   0  0  0  0  0  0  0  0  0  0  0  0
  132.9930  132.2910   54.2570 F   0  0  0  0  0  0  0  0  0  0  0  0
  132.7950  133.3720   56.1290 F   0  0  0  0  0  0  0  0  0  0  0  0
  132.9310  131.2240   56.1250 F   0  0  0  0  0  0  0  0  0  0  0  0
  130.0470  131.9210   56.4310 C   0  0  0  0  0  0  0  0  0  0  0  0
  130.6020  131.6450   57.7610 C   0  0  0  0  0  0  0  0  0  0  0  0
  131.0400  131.4280   58.8100 N   0  0  0  0  0  0  0  0  0  0  0  0
  127.9340  126.3940   56.8950 C   0  0  0  0  0  0  0  0  0  0  0  0
  128.0990  125.0160   57.0030 C   0  0  0  0  0  0  0  0  0  0  0  0
  1  2  1  0
  2  3  1  0
  3  4  1  0
  4  5  2  0
  4  6  1  0
  6  7  2  0
  7  8  1  0
  8  9  2  0
  9 10  1  0
 10 11  1  0
 11 12  2  0
 11 13  1  0
 13 14  1  0
 14 15  1  0
 15 16  2  0
 16 17  1  0
 17 18  1  0
 17 19  2  0
 19 20  1  0
 20 21  1  0
 21 22  1  0
 21 23  1  0
 21 24  1  0
 20 25  2  0
 25 26  1  0
 26 27  3  0
  9 28  1  0
 28 29  2  0
 29  6  1  0
 25 15  1  0
M  END
>  <Binding energies>  (16) 
[-8.01]

>  <Ligand effiencies>  (16) 
[-0.267]

>  <Interactions>  (16) 
["V-A:PRO:540:N:4884, V-B:TYR:539:C:9839, V-A:TYR:539:CE1:4875, V-B:ASP:366:CG:8185, V-B:ILE:538:CA:9832, V-B:PRO:540:N:9856, V-B:PRO:540:CA:9855, V-A:TYR:531:CZ:4794, V-A:ILE:538:CA:4860, V-B:TYR:539:CD2:9846, V-A:TYR:539:CZ:4877, V-A:PRO:540:CA:4883, V-A:ILE:538:CG2:4863, V-B:MET:535:CE:9807, H-B:LYS:534:NZ:9795, V-B:TYR:539:CE1:9847, V-A:VAL:537:C:4850, V-A:TYR:539:CD2:4874, V-B:ILE:538:CD1:9837, V-A:TYR:539:CE2:4876, V-A:ILE:538:CB:4862, V-B:TYR:531:CE1:9764, H-B:TYR:531:OH:9767, V-B:ASP:366:CB:8184, V-A:PRO:540:CG:4886, V-A:PRO:540:CB:4885, V-A:PRO:540:CD:4887, V-A:LEU:363:CD1:3189, V-A:TYR:531:CE2:4793, H-B:TYR:539:N:9842, V-A:TYR:531:CD2:4791"]

$$$$
2b_Grossjean_2025
     RDKit          3D

 28 29  0  0  0  0  0  0  0  0999 V2000
  126.1070  122.6830   55.7140 C   0  0  0  0  0  0  0  0  0  0  0  0
  127.1080  122.0850   56.5260 O   0  0  0  0  0  0  0  0  0  0  0  0
  127.6100  122.7340   57.6080 C   0  0  0  0  0  0  0  0  0  0  0  0
  128.2360  122.1680   58.5100 O   0  0  0  0  0  0  0  0  0  0  0  0
  127.3240  124.2070   57.6020 C   0  0  0  0  0  0  0  0  0  0  0  0
  128.0970  125.1100   56.8560 C   0  0  0  0  0  0  0  0  0  0  0  0
  127.8060  126.4710   56.8730 C   0  0  0  0  0  0  0  0  0  0  0  0
  126.7390  126.9570   57.6270 C   0  0  0  0  0  0  0  0  0  0  0  0
  126.5380  128.3500   57.5780 N   0  0  0  0  0  0  0  0  0  0  0  0
  126.3610  129.1580   56.5110 C   0  0  0  0  0  0  0  0  0  0  0  0
  126.3730  128.7970   55.3330 O   0  0  0  0  0  0  0  0  0  0  0  0
  126.1510  130.6390   56.8410 C   0  0  0  0  0  0  0  0  0  0  0  0
  127.6370  131.4370   57.5350 S   0  0  0  0  0  0  0  0  0  0  0  0
  128.7840  131.8370   56.2240 C   0  0  0  0  0  0  0  0  0  0  0  0
  128.2270  132.1010   55.0150 N   0  0  0  0  0  0  0  0  0  0  0  0
  129.0360  132.4060   53.9750 C   0  0  0  0  0  0  0  0  0  0  0  0
  128.3370  132.6740   52.6560 C   0  0  0  0  0  0  0  0  0  0  0  0
  130.4210  132.4710   54.0950 C   0  0  0  0  0  0  0  0  0  0  0  0
  131.0180  132.2100   55.3380 C   0  0  0  0  0  0  0  0  0  0  0  0
  132.5520  132.2910   55.4550 C   0  0  0  0  0  0  0  0  0  0  0  0
  133.0190  131.2080   56.0780 F   0  0  0  0  0  0  0  0  0  0  0  0
  133.1020  132.3620   54.2420 F   0  0  0  0  0  0  0  0  0  0  0  0
  132.9620  133.3580   56.1430 F   0  0  0  0  0  0  0  0  0  0  0  0
  130.1820  131.8820   56.4360 C   0  0  0  0  0  0  0  0  0  0  0  0
  130.7520  131.5930   57.7550 C   0  0  0  0  0  0  0  0  0  0  0  0
  131.2020  131.3660   58.7970 N   0  0  0  0  0  0  0  0  0  0  0  0
  125.9660  126.0630   58.3820 C   0  0  0  0  0  0  0  0  0  0  0  0
  126.2580  124.7020   58.3650 C   0  0  0  0  0  0  0  0  0  0  0  0
  1  2  1  0
  2  3  1  0
  3  4  2  0
  3  5  1  0
  5  6  2  0
  6  7  1  0
  7  8  2  0
  8  9  1  0
  9 10  1  0
 10 11  2  0
 10 12  1  0
 12 13  1  0
 13 14  1  0
 14 15  2  0
 15 16  1  0
 16 17  1  0
 16 18  2  0
 18 19  1  0
 19 20  1  0
 20 21  1  0
 20 22  1  0
 20 23  1  0
 19 24  2  0
 24 25  1  0
 25 26  3  0
  8 27  1  0
 27 28  2  0
 28  5  1  0
 24 14  1  0
M  END
>  <Binding energies>  (17) 
[-7.53]

>  <Ligand effiencies>  (17) 
[-0.2596551724137931]

>  <Interactions>  (17) 
["V-A:PRO:540:N:4884, V-B:TYR:539:C:9839, V-A:TYR:539:CE1:4875, V-B:ASP:366:CG:8185, V-B:ILE:538:CA:9832, V-B:PRO:540:N:9856, V-A:TYR:531:CZ:4794, V-A:ILE:538:CA:4860, V-B:TYR:539:CD2:9846, V-A:TYR:539:CZ:4877, V-A:PRO:540:CA:4883, V-A:ILE:538:CG2:4863, V-B:MET:535:CE:9807, H-B:LYS:534:NZ:9795, V-B:TYR:539:CE2:9848, V-A:VAL:537:C:4850, V-A:TYR:539:CD2:4874, V-B:ILE:538:CD1:9837, V-A:TYR:539:CE2:4876, V-B:TYR:539:CG:9844, V-A:ILE:538:CB:4862, V-B:TYR:531:CE1:9764, H-B:TYR:531:OH:9767, V-B:ASP:366:CB:8184, V-A:PRO:540:CG:4886, V-A:PRO:540:CB:4885, V-A:PRO:540:CD:4887, V-A:LEU:363:CD1:3189, V-A:TYR:531:CE2:4793, H-B:TYR:539:N:9842, V-A:ILE:538:CD1:4865, V-A:TYR:531:CD2:4791"]

$$$$
2c_Grossjean_2025
     RDKit          3D

 26 27  0  0  0  0  0  0  0  0999 V2000
  132.6060  131.5000   61.9750 C   0  0  0  0  0  0  0  0  0  0  0  0
  131.2610  131.8350   61.6500 O   0  0  0  0  0  0  0  0  0  0  0  0
  130.8540  131.7810   60.3310 C   0  0  0  0  0  0  0  0  0  0  0  0
  129.5700  132.2520   60.0560 C   0  0  0  0  0  0  0  0  0  0  0  0
  129.0700  132.2360   58.7560 C   0  0  0  0  0  0  0  0  0  0  0  0
  129.8570  131.7340   57.7100 C   0  0  0  0  0  0  0  0  0  0  0  0
  129.4460  131.6950   56.3650 N   0  0  0  0  0  0  0  0  0  0  0  0
  129.9790  132.3340   55.3020 C   0  0  0  0  0  0  0  0  0  0  0  0
  130.9200  133.1280   55.3610 O   0  0  0  0  0  0  0  0  0  0  0  0
  129.2960  132.0360   53.9580 C   0  0  0  0  0  0  0  0  0  0  0  0
  129.0140  130.2680   53.5950 S   0  0  0  0  0  0  0  0  0  0  0  0
  128.1040  129.5230   54.9420 C   0  0  0  0  0  0  0  0  0  0  0  0
  126.9210  130.1140   55.2510 N   0  0  0  0  0  0  0  0  0  0  0  0
  126.1830  129.6100   56.2640 C   0  0  0  0  0  0  0  0  0  0  0  0
  124.8850  130.3370   56.5580 C   0  0  0  0  0  0  0  0  0  0  0  0
  126.5830  128.4990   57.0040 C   0  0  0  0  0  0  0  0  0  0  0  0
  127.7960  127.8670   56.6980 C   0  0  0  0  0  0  0  0  0  0  0  0
  128.2230  126.6380   57.5230 C   0  0  0  0  0  0  0  0  0  0  0  0
  129.3670  126.8910   58.1600 F   0  0  0  0  0  0  0  0  0  0  0  0
  127.2840  126.3410   58.4220 F   0  0  0  0  0  0  0  0  0  0  0  0
  128.4150  125.5520   56.7690 F   0  0  0  0  0  0  0  0  0  0  0  0
  128.5830  128.3890   55.6400 C   0  0  0  0  0  0  0  0  0  0  0  0
  129.8630  127.7690   55.2770 C   0  0  0  0  0  0  0  0  0  0  0  0
  130.8720  127.2800   54.9920 N   0  0  0  0  0  0  0  0  0  0  0  0
  131.1480  131.2760   57.9770 C   0  0  0  0  0  0  0  0  0  0  0  0
  131.6440  131.2940   59.2770 C   0  0  0  0  0  0  0  0  0  0  0  0
  1  2  1  0
  2  3  1  0
  3  4  2  0
  4  5  1  0
  5  6  2  0
  6  7  1  0
  7  8  1  0
  8  9  2  0
  8 10  1  0
 10 11  1  0
 11 12  1  0
 12 13  2  0
 13 14  1  0
 14 15  1  0
 14 16  2  0
 16 17  1  0
 17 18  1  0
 18 19  1  0
 18 20  1  0
 18 21  1  0
 17 22  2  0
 22 23  1  0
 23 24  3  0
  6 25  1  0
 25 26  2  0
 26  3  1  0
 22 12  1  0
M  END
>  <Binding energies>  (18) 
[-6.55]

>  <Ligand effiencies>  (18) 
[-0.24259259259259258]

>  <Interactions>  (18) 
["V-A:PRO:540:N:4884, V-A:TYR:539:CE1:4875, H-A:TYR:539:N:4870, V-A:MET:535:CE:4835, H-A:ALA:541:N:4891, V-A:ILE:538:CA:4860, V-A:TYR:539:CZ:4877, V-A:PRO:540:CA:4883, V-B:MET:535:CE:9807, H-B:LYS:534:NZ:9795, V-A:TYR:539:C:4867, V-A:GLU:543:CG:4907, V-A:GLU:543:CD:4908, V-B:TYR:531:CE1:9764, V-A:PRO:540:CB:4885, H-A:TYR:531:OH:4795, V-A:ALA:541:C:4888, V-A:ASN:362:CB:3176, V-A:PRO:540:C:4881"]

$$$$
2d_Ghoteimi_2023
     RDKit          3D

 38 42  0  0  0  0  0  0  0  0999 V2000
  123.2490  130.3760   60.5350 C   0  0  0  0  0  0  0  0  0  0  0  0
  123.0100  131.3850   61.5040 O   0  0  0  0  0  0  0  0  0  0  0  0
  123.9870  131.7650   62.3540 C   0  0  0  0  0  0  0  0  0  0  0  0
  124.1720  131.3040   63.4840 O   0  0  0  0  0  0  0  0  0  0  0  0
  124.8690  132.8600   61.7360 C   0  0  0  0  0  0  0  0  0  0  0  0
  126.6390  132.4240   61.8490 S   0  0  0  0  0  0  0  0  0  0  0  0
  126.7710  130.6530   61.9830 C   0  0  0  0  0  0  0  0  0  0  0  0
  126.9850  130.2260   63.2520 N   0  0  0  0  0  0  0  0  0  0  0  0
  127.1140  128.8980   63.5000 C   0  0  0  0  0  0  0  0  0  0  0  0
  127.3650  128.5050   64.9200 C   0  0  0  0  0  0  0  0  0  0  0  0
  126.3090  128.1090   65.7470 C   0  0  0  0  0  0  0  0  0  0  0  0
  126.5350  127.7410   67.0710 C   0  0  0  0  0  0  0  0  0  0  0  0
  127.8300  127.7460   67.6120 C   0  0  0  0  0  0  0  0  0  0  0  0
  128.0730  127.3960   68.9460 N   0  0  0  0  0  0  0  0  0  0  0  0
  127.4130  126.2340   69.5720 C   0  0  0  0  0  0  0  0  0  0  0  0
  127.5060  126.2260   71.1120 C   0  0  0  0  0  0  0  0  0  0  0  0
  128.8630  126.3140   71.5160 O   0  0  0  0  0  0  0  0  0  0  0  0
  129.4690  127.5090   71.0510 C   0  0  0  0  0  0  0  0  0  0  0  0
  129.4290  127.5590   69.5090 C   0  0  0  0  0  0  0  0  0  0  0  0
  128.8840  128.1570   66.7840 C   0  0  0  0  0  0  0  0  0  0  0  0
  128.6570  128.5270   65.4620 C   0  0  0  0  0  0  0  0  0  0  0  0
  127.0250  127.9600   62.4690 C   0  0  0  0  0  0  0  0  0  0  0  0
  126.7710  128.3720   61.1550 C   0  0  0  0  0  0  0  0  0  0  0  0
  126.6620  127.3110   60.1080 C   0  0  0  0  0  0  0  0  0  0  0  0
  126.8140  127.6370   58.7600 C   0  0  0  0  0  0  0  0  0  0  0  0
  126.7260  126.6550   57.7780 C   0  0  0  0  0  0  0  0  0  0  0  0
  126.4790  125.3150   58.1180 C   0  0  0  0  0  0  0  0  0  0  0  0
  126.3990  124.3100   57.1500 N   0  0  0  0  0  0  0  0  0  0  0  0
  125.2670  123.3640   57.1150 C   0  0  0  0  0  0  0  0  0  0  0  0
  125.1640  122.5760   55.7920 C   0  0  0  0  0  0  0  0  0  0  0  0
  126.3900  121.9110   55.5260 O   0  0  0  0  0  0  0  0  0  0  0  0
  127.4690  122.8250   55.4120 C   0  0  0  0  0  0  0  0  0  0  0  0
  127.6320  123.6170   56.7280 C   0  0  0  0  0  0  0  0  0  0  0  0
  126.3450  124.9940   59.4760 C   0  0  0  0  0  0  0  0  0  0  0  0
  126.4350  125.9770   60.4580 C   0  0  0  0  0  0  0  0  0  0  0  0
  126.6340  129.7580   60.8960 C   0  0  0  0  0  0  0  0  0  0  0  0
  126.3490  130.2370   59.5400 C   0  0  0  0  0  0  0  0  0  0  0  0
  126.1240  130.6110   58.4680 N   0  0  0  0  0  0  0  0  0  0  0  0
  1  2  1  0
  2  3  1  0
  3  4  2  0
  3  5  1  0
  5  6  1  0
  6  7  1  0
  7  8  2  0
  8  9  1  0
  9 10  1  0
 10 11  2  0
 11 12  1  0
 12 13  2  0
 13 14  1  0
 14 15  1  0
 15 16  1  0
 16 17  1  0
 17 18  1  0
 18 19  1  0
 13 20  1  0
 20 21  2  0
  9 22  2  0
 22 23  1  0
 23 24  1  0
 24 25  2  0
 25 26  1  0
 26 27  2  0
 27 28  1  0
 28 29  1  0
 29 30  1  0
 30 31  1  0
 31 32  1  0
 32 33  1  0
 27 34  1  0
 34 35  2  0
 23 36  2  0
 36 37  1  0
 37 38  3  0
 36  7  1  0
 21 10  1  0
 35 24  1  0
 19 14  1  0
 33 28  1  0
M  END
>  <Binding energies>  (19) 
[-6.95]

>  <Ligand effiencies>  (19) 
[-0.18289473684210528]

>  <Interactions>  (19) 
["V-B:PRO:540:CB:9857, V-B:TYR:531:CE2:9765, V-B:ASP:366:CG:8185, V-B:TYR:539:CD1:9845, V-B:LEU:475:CD2:9231, V-B:ILE:538:CA:9832, V-B:MET:535:CE:9807, V-B:TYR:539:CE1:9847, V-B:TYR:539:CZ:9849, V-B:LEU:363:CD1:8161, V-B:PRO:540:CD:9859, V-B:ILE:538:CD1:9837, V-B:ILE:538:CG2:9835, V-A:GLU:543:CG:4907, V-B:TYR:539:CG:9844, V-B:ILE:369:CD1:8211, V-B:ARG:545:CZ:9898, V-A:GLU:543:CD:4908, V-B:GLY:454:CA:9021, V-B:ASP:366:CB:8184, V-B:ASP:366:CA:8182, V-B:GLU:543:CD:9880, H-B:TYR:539:N:9842, H-B:GLY:454:N:9022, V-B:HIS:456:CE1:9042, V-B:ARG:545:CG:9894, H-B:TYR:484:OH:9320, V-B:HIS:456:CD2:9040, H-B:LYS:547:NZ:9923, V-A:HIS:456:CD2:4068, V-B:GLU:543:C:9874, V-A:GLU:543:CB:4906, V-A:HIS:456:CE1:4070, V-B:GLU:543:CB:9878, V-B:GLY:544:C:9884"]

$$$$
2d_Grossjean_2025
     RDKit          3D

 24 25  0  0  0  0  0  0  0  0999 V2000
  125.1240  130.2970   56.1530 C   0  0  0  0  0  0  0  0  0  0  0  0
  126.4310  129.5420   56.0010 C   0  0  0  0  0  0  0  0  0  0  0  0
  126.7640  128.4830   56.8420 C   0  0  0  0  0  0  0  0  0  0  0  0
  127.9830  127.8140   56.6590 C   0  0  0  0  0  0  0  0  0  0  0  0
  128.3300  126.6380   57.5930 C   0  0  0  0  0  0  0  0  0  0  0  0
  129.4340  126.9160   58.2860 F   0  0  0  0  0  0  0  0  0  0  0  0
  127.3270  126.4210   58.4460 F   0  0  0  0  0  0  0  0  0  0  0  0
  128.5460  125.4990   56.9320 F   0  0  0  0  0  0  0  0  0  0  0  0
  128.8450  128.2470   55.6190 C   0  0  0  0  0  0  0  0  0  0  0  0
  130.1070  127.5510   55.3560 C   0  0  0  0  0  0  0  0  0  0  0  0
  131.1040  127.0000   55.1490 N   0  0  0  0  0  0  0  0  0  0  0  0
  128.4350  129.3470   54.8300 C   0  0  0  0  0  0  0  0  0  0  0  0
  129.4060  130.0400   53.5050 S   0  0  0  0  0  0  0  0  0  0  0  0
  129.6880  131.8080   53.8470 C   0  0  0  0  0  0  0  0  0  0  0  0
  130.1850  132.0710   55.2720 C   0  0  0  0  0  0  0  0  0  0  0  0
  129.7620  133.0540   55.8820 O   0  0  0  0  0  0  0  0  0  0  0  0
  131.0950  131.1930   55.7440 N   0  0  0  0  0  0  0  0  0  0  0  0
  131.7300  131.1600   56.9990 C   0  0  0  0  0  0  0  0  0  0  0  0
  130.8880  131.1900   58.1130 C   0  0  0  0  0  0  0  0  0  0  0  0
  131.4230  131.1670   59.3990 C   0  0  0  0  0  0  0  0  0  0  0  0
  132.8050  131.1240   59.5700 C   0  0  0  0  0  0  0  0  0  0  0  0
  133.6550  131.1080   58.4670 C   0  0  0  0  0  0  0  0  0  0  0  0
  133.1230  131.1290   57.1810 C   0  0  0  0  0  0  0  0  0  0  0  0
  127.2440  129.9690   55.0070 N   0  0  0  0  0  0  0  0  0  0  0  0
  1  2  1  0
  2  3  2  0
  3  4  1  0
  4  5  1  0
  5  6  1  0
  5  7  1  0
  5  8  1  0
  4  9  2  0
  9 10  1  0
 10 11  3  0
  9 12  1  0
 12 13  1  0
 13 14  1  0
 14 15  1  0
 15 16  2  0
 15 17  1  0
 17 18  1  0
 18 19  2  0
 19 20  1  0
 20 21  2  0
 21 22  1  0
 22 23  2  0
 12 24  2  0
 24  2  1  0
 23 18  1  0
M  END
>  <Binding energies>  (20) 
[-6.62]

>  <Ligand effiencies>  (20) 
[-0.2648]

>  <Interactions>  (20) 
["V-A:TYR:539:CE1:4875, H-A:TYR:539:N:4870, V-A:MET:535:CE:4835, V-A:TYR:539:CZ:4877, V-A:PRO:540:CA:4883, V-A:ILE:538:CG2:4863, V-B:MET:535:CE:9807, H-B:LYS:534:NZ:9795, V-A:ASP:366:CG:3213, V-B:TYR:531:CE1:9764, V-A:PRO:540:CB:4885, V-A:ASP:366:CB:3212, V-A:LEU:363:CA:3185, H-A:TYR:531:OH:4795, V-A:LEU:363:CD1:3189, V-A:LEU:363:CB:3187"]

$$$$
2e_Grossjean_2025
     RDKit          3D

 25 26  0  0  0  0  0  0  0  0999 V2000
  123.5450  129.6090   66.5800 C   0  0  0  0  0  0  0  0  0  0  0  0
  124.5270  129.4110   65.4410 C   0  0  0  0  0  0  0  0  0  0  0  0
  125.7020  128.6740   65.6080 C   0  0  0  0  0  0  0  0  0  0  0  0
  126.5530  128.5240   64.5120 C   0  0  0  0  0  0  0  0  0  0  0  0
  126.2130  129.1080   63.2890 C   0  0  0  0  0  0  0  0  0  0  0  0
  125.0250  129.8410   63.1940 C   0  0  0  0  0  0  0  0  0  0  0  0
  124.7110  130.3700   61.9300 N   0  0  0  0  0  0  0  0  0  0  0  0
  123.4890  130.5590   61.3860 C   0  0  0  0  0  0  0  0  0  0  0  0
  122.4190  130.3560   61.9640 O   0  0  0  0  0  0  0  0  0  0  0  0
  123.4730  131.0200   59.9250 C   0  0  0  0  0  0  0  0  0  0  0  0
  124.5600  130.0020   58.8760 S   0  0  0  0  0  0  0  0  0  0  0  0
  126.0480  130.9550   58.6690 C   0  0  0  0  0  0  0  0  0  0  0  0
  126.4160  131.6730   59.7600 N   0  0  0  0  0  0  0  0  0  0  0  0
  127.5120  132.4600   59.6740 C   0  0  0  0  0  0  0  0  0  0  0  0
  127.8670  133.2340   60.9290 C   0  0  0  0  0  0  0  0  0  0  0  0
  128.2720  132.5680   58.5110 C   0  0  0  0  0  0  0  0  0  0  0  0
  127.9000  131.8400   57.3710 C   0  0  0  0  0  0  0  0  0  0  0  0
  128.7370  131.9860   56.0870 C   0  0  0  0  0  0  0  0  0  0  0  0
  129.6300  132.9660   56.2320 F   0  0  0  0  0  0  0  0  0  0  0  0
  129.3820  130.8480   55.8320 F   0  0  0  0  0  0  0  0  0  0  0  0
  127.9940  132.2760   55.0170 F   0  0  0  0  0  0  0  0  0  0  0  0
  126.7570  131.0050   57.4470 C   0  0  0  0  0  0  0  0  0  0  0  0
  126.2980  130.2410   56.2820 C   0  0  0  0  0  0  0  0  0  0  0  0
  125.9360  129.6390   55.3630 N   0  0  0  0  0  0  0  0  0  0  0  0
  124.1840  129.9860   64.2590 N   0  0  0  0  0  0  0  0  0  0  0  0
  1  2  1  0
  2  3  2  0
  3  4  1  0
  4  5  2  0
  5  6  1  0
  6  7  1  0
  7  8  1  0
  8  9  2  0
  8 10  1  0
 10 11  1  0
 11 12  1  0
 12 13  2  0
 13 14  1  0
 14 15  1  0
 14 16  2  0
 16 17  1  0
 17 18  1  0
 18 19  1  0
 18 20  1  0
 18 21  1  0
 17 22  2  0
 22 23  1  0
 23 24  3  0
  6 25  2  0
 25  2  1  0
 22 12  1  0
M  END
>  <Binding energies>  (21) 
[-6.93]

>  <Ligand effiencies>  (21) 
[-0.2665384615384615]

>  <Interactions>  (21) 
["V-A:PRO:540:N:4884, V-A:TYR:539:CE1:4875, V-B:ASP:366:CG:8185, V-A:TYR:539:CD1:4873, V-A:TYR:539:CZ:4877, H-B:LYS:534:NZ:9795, H-A:TYR:539:OH:4878, V-A:TYR:539:C:4867, V-A:TYR:539:CG:4872, V-A:TYR:539:CD2:4874, V-A:TYR:539:CE2:4876, V-A:ALA:541:CB:4892, V-B:ILE:369:CD1:8211, V-B:ARG:545:CZ:9898, V-B:GLY:454:CA:9021, V-B:ASP:366:CB:8184, V-B:ILE:369:CB:8208, V-B:ASP:366:CA:8182, V-B:GLU:543:CD:9880, V-B:GLY:453:CA:9016, H-B:GLY:454:N:9022, V-B:ARG:545:CD:9895, V-B:GLY:453:C:9014, V-B:ARG:545:CG:9894, H-B:TYR:484:OH:9320, V-B:TYR:484:CE1:9317, V-A:TYR:539:CA:4869"]

$$$$
2f_Grossjean_2025
     RDKit          3D

 24 25  0  0  0  0  0  0  0  0999 V2000
  128.6340  132.6190   59.3390 C   0  0  0  0  0  0  0  0  0  0  0  0
  127.2370  132.1690   59.7230 C   0  0  0  0  0  0  0  0  0  0  0  0
  126.7800  132.2470   61.0360 C   0  0  0  0  0  0  0  0  0  0  0  0
  125.4820  131.8100   61.3430 C   0  0  0  0  0  0  0  0  0  0  0  0
  125.0000  131.8930   62.8040 C   0  0  0  0  0  0  0  0  0  0  0  0
  124.8260  130.6670   63.3000 F   0  0  0  0  0  0  0  0  0  0  0  0
  125.9030  132.5350   63.5450 F   0  0  0  0  0  0  0  0  0  0  0  0
  123.8410  132.5430   62.9300 F   0  0  0  0  0  0  0  0  0  0  0  0
  124.6710  131.3060   60.2940 C   0  0  0  0  0  0  0  0  0  0  0  0
  123.3300  130.7850   60.5730 C   0  0  0  0  0  0  0  0  0  0  0  0
  122.2710  130.3750   60.7940 N   0  0  0  0  0  0  0  0  0  0  0  0
  125.2100  131.2890   58.9850 C   0  0  0  0  0  0  0  0  0  0  0  0
  124.3310  130.7030   57.5500 S   0  0  0  0  0  0  0  0  0  0  0  0
  125.1990  129.2270   56.9190 C   0  0  0  0  0  0  0  0  0  0  0  0
  126.3320  129.5140   55.9220 C   0  0  0  0  0  0  0  0  0  0  0  0
  126.5630  128.7390   54.9930 O   0  0  0  0  0  0  0  0  0  0  0  0
  127.0270  130.6440   56.1760 N   0  0  0  0  0  0  0  0  0  0  0  0
  128.1070  131.2070   55.4690 C   0  0  0  0  0  0  0  0  0  0  0  0
  128.6150  130.7380   54.2440 C   0  0  0  0  0  0  0  0  0  0  0  0
  129.6910  131.3950   53.6450 C   0  0  0  0  0  0  0  0  0  0  0  0
  130.2320  132.5100   54.2850 C   0  0  0  0  0  0  0  0  0  0  0  0
  129.7560  132.9880   55.4620 N   0  0  0  0  0  0  0  0  0  0  0  0
  128.7080  132.3390   56.0320 C   0  0  0  0  0  0  0  0  0  0  0  0
  126.4740  131.6940   58.7120 N   0  0  0  0  0  0  0  0  0  0  0  0
  1  2  1  0
  2  3  2  0
  3  4  1  0
  4  5  1  0
  5  6  1  0
  5  7  1  0
  5  8  1  0
  4  9  2  0
  9 10  1  0
 10 11  3  0
  9 12  1  0
 12 13  1  0
 13 14  1  0
 14 15  1  0
 15 16  2  0
 15 17  1  0
 17 18  1  0
 18 19  2  0
 19 20  1  0
 20 21  2  0
 21 22  1  0
 22 23  2  0
 12 24  2  0
 24  2  1  0
 23 18  1  0
M  END
>  <Binding energies>  (22) 
[-6.6]

>  <Ligand effiencies>  (22) 
[-0.264]

>  <Interactions>  (22) 
["V-A:TYR:539:CE1:4875, V-A:MET:535:CG:4833, H-A:TYR:539:N:4870, V-B:ASP:366:CG:8185, V-A:TYR:539:CD1:4873, V-B:LEU:475:CD2:9231, V-A:ILE:538:CA:4860, V-A:TYR:539:CZ:4877, V-A:PRO:540:CA:4883, V-A:ILE:538:CG2:4863, H-B:LYS:534:NZ:9795, H-A:TYR:539:OH:4878, V-B:TYR:531:CZ:9766, V-A:TYR:539:C:4867, V-A:TYR:539:CG:4872, V-A:TYR:539:CD2:4874, V-A:TYR:539:CE2:4876, V-B:ILE:369:CD1:8211, V-A:ILE:538:CB:4862, V-B:TYR:531:CE1:9764, V-B:TYR:484:CZ:9319, V-B:GLY:454:CA:9021, H-B:TYR:531:OH:9767, V-B:ASP:366:CB:8184, V-B:ASP:366:CA:8182, V-B:GLY:453:C:9014, H-B:ASP:366:N:8183"]

$$$$
2g_Grossjean_2025
     RDKit          3D

 25 26  0  0  0  0  0  0  0  0999 V2000
  130.8700  119.0780   60.3190 C   0  0  0  0  0  0  0  0  0  0  0  0
  130.8910  120.5350   60.7410 C   0  0  0  0  0  0  0  0  0  0  0  0
  131.8510  121.4210   60.2580 C   0  0  0  0  0  0  0  0  0  0  0  0
  131.8320  122.7580   60.6850 C   0  0  0  0  0  0  0  0  0  0  0  0
  132.9080  123.7210   60.1470 C   0  0  0  0  0  0  0  0  0  0  0  0
  132.3590  124.8920   59.8200 F   0  0  0  0  0  0  0  0  0  0  0  0
  133.8390  123.9260   61.0810 F   0  0  0  0  0  0  0  0  0  0  0  0
  133.5240  123.2520   59.0600 F   0  0  0  0  0  0  0  0  0  0  0  0
  130.8230  123.1660   61.5950 C   0  0  0  0  0  0  0  0  0  0  0  0
  130.7930  124.5350   62.1160 C   0  0  0  0  0  0  0  0  0  0  0  0
  130.7700  125.6170   62.5260 N   0  0  0  0  0  0  0  0  0  0  0  0
  129.8710  122.2030   62.0080 C   0  0  0  0  0  0  0  0  0  0  0  0
  128.5270  122.5500   63.1220 S   0  0  0  0  0  0  0  0  0  0  0  0
  127.0420  122.8650   62.1080 C   0  0  0  0  0  0  0  0  0  0  0  0
  127.3310  123.3640   60.6860 C   0  0  0  0  0  0  0  0  0  0  0  0
  127.0020  124.4950   60.3230 O   0  0  0  0  0  0  0  0  0  0  0  0
  127.9540  122.4850   59.8800 N   0  0  0  0  0  0  0  0  0  0  0  0
  128.3400  122.7320   58.4900 C   0  0  0  0  0  0  0  0  0  0  0  0
  127.1750  122.7460   57.5060 C   0  0  0  0  0  0  0  0  0  0  0  0
  127.4120  122.5420   56.1440 C   0  0  0  0  0  0  0  0  0  0  0  0
  126.3450  122.5160   55.2480 C   0  0  0  0  0  0  0  0  0  0  0  0
  125.0460  122.6850   55.7190 C   0  0  0  0  0  0  0  0  0  0  0  0
  124.8010  122.8760   57.0780 C   0  0  0  0  0  0  0  0  0  0  0  0
  125.8670  122.9010   57.9730 C   0  0  0  0  0  0  0  0  0  0  0  0
  129.9180  120.9100   61.6030 N   0  0  0  0  0  0  0  0  0  0  0  0
  1  2  1  0
  2  3  2  0
  3  4  1  0
  4  5  1  0
  5  6  1  0
  5  7  1  0
  5  8  1  0
  4  9  2  0
  9 10  1  0
 10 11  3  0
  9 12  1  0
 12 13  1  0
 13 14  1  0
 14 15  1  0
 15 16  2  0
 15 17  1  0
 17 18  1  0
 18 19  1  0
 19 20  2  0
 20 21  1  0
 21 22  2  0
 22 23  1  0
 23 24  2  0
 12 25  2  0
 25  2  1  0
 24 19  1  0
M  END
>  <Binding energies>  (23) 
[-6.8]

>  <Ligand effiencies>  (23) 
[-0.26153846153846155]

>  <Interactions>  (23) 
["V-B:PRO:540:CB:9857, V-B:TYR:539:C:9839, V-B:ILE:538:C:9830, V-B:TYR:531:CE2:9765, V-B:TYR:539:CD1:9845, V-B:ILE:538:CA:9832, V-B:PRO:540:N:9856, V-B:PRO:540:CA:9855, V-B:TYR:539:CD2:9846, V-B:MET:535:CE:9807, V-B:TYR:539:CE2:9848, V-B:TYR:539:CE1:9847, V-B:TYR:531:CZ:9766, V-B:TYR:539:CZ:9849, V-B:PRO:540:CG:9858, V-B:LEU:363:CD1:8161, V-B:PRO:540:CD:9859, V-B:ILE:538:CD1:9837, V-B:ILE:538:CG2:9835, V-A:ASP:366:CG:3213, V-A:ILE:369:CD1:3239, V-A:ILE:369:CG2:3237, V-A:LEU:475:CD2:4259, V-B:TYR:539:CG:9844, V-A:ILE:369:CB:3236, V-A:TYR:484:CE1:4345, V-B:ALA:541:CB:9864, V-B:PRO:540:C:9853, V-B:GLU:543:CD:9880, V-B:GLU:543:CG:9879, V-B:TYR:539:CB:9843, H-A:TYR:484:OH:4348, H-B:TYR:539:O:9840"]

$$$$
2h_Grossjean_2025
     RDKit          3D

 31 32  0  0  0  0  0  0  0  0999 V2000
  131.9550  132.6060   55.3350 C   0  0  0  0  0  0  0  0  0  0  0  0
  130.6020  132.8950   54.9990 O   0  0  0  0  0  0  0  0  0  0  0  0
  129.5860  132.4310   55.8150 C   0  0  0  0  0  0  0  0  0  0  0  0
  129.5490  132.6240   57.2060 C   0  0  0  0  0  0  0  0  0  0  0  0
  128.4870  132.1340   57.9620 C   0  0  0  0  0  0  0  0  0  0  0  0
  127.4400  131.4420   57.3490 C   0  0  0  0  0  0  0  0  0  0  0  0
  126.2760  130.9310   58.1970 C   0  0  0  0  0  0  0  0  0  0  0  0
  125.6890  131.9540   59.0630 N   0  0  0  0  0  0  0  0  0  0  0  0
  124.3730  132.1040   59.2950 C   0  0  0  0  0  0  0  0  0  0  0  0
  123.5070  131.4360   58.7270 O   0  0  0  0  0  0  0  0  0  0  0  0
  124.0010  133.1710   60.3340 C   0  0  0  0  0  0  0  0  0  0  0  0
  123.9980  132.5930   62.0640 S   0  0  0  0  0  0  0  0  0  0  0  0
  125.5830  131.8400   62.3570 C   0  0  0  0  0  0  0  0  0  0  0  0
  126.6090  132.4660   61.7300 N   0  0  0  0  0  0  0  0  0  0  0  0
  127.8560  131.9650   61.8700 C   0  0  0  0  0  0  0  0  0  0  0  0
  128.9530  132.7120   61.1350 C   0  0  0  0  0  0  0  0  0  0  0  0
  128.1320  130.8350   62.6370 C   0  0  0  0  0  0  0  0  0  0  0  0
  127.0860  130.1850   63.3100 C   0  0  0  0  0  0  0  0  0  0  0  0
  127.4110  128.9420   64.1600 C   0  0  0  0  0  0  0  0  0  0  0  0
  127.4710  129.2760   65.4500 F   0  0  0  0  0  0  0  0  0  0  0  0
  126.4940  127.9790   64.0390 F   0  0  0  0  0  0  0  0  0  0  0  0
  128.5840  128.4280   63.7910 F   0  0  0  0  0  0  0  0  0  0  0  0
  125.7720  130.7030   63.1790 C   0  0  0  0  0  0  0  0  0  0  0  0
  124.6550  130.0970   63.9090 C   0  0  0  0  0  0  0  0  0  0  0  0
  123.7750  129.6190   64.4880 N   0  0  0  0  0  0  0  0  0  0  0  0
  127.4770  131.2210   55.9640 C   0  0  0  0  0  0  0  0  0  0  0  0
  126.4520  130.5370   55.3540 O   0  0  0  0  0  0  0  0  0  0  0  0
  126.5460  129.1220   55.4590 C   0  0  0  0  0  0  0  0  0  0  0  0
  128.5390  131.7330   55.2000 C   0  0  0  0  0  0  0  0  0  0  0  0
  128.5680  131.5340   53.8400 O   0  0  0  0  0  0  0  0  0  0  0  0
  128.5930  132.7330   53.0790 C   0  0  0  0  0  0  0  0  0  0  0  0
  1  2  1  0
  2  3  1  0
  3  4  2  0
  4  5  1  0
  5  6  2  0
  6  7  1  0
  7  8  1  0
  8  9  1  0
  9 10  2  0
  9 11  1  0
 11 12  1  0
 12 13  1  0
 13 14  2  0
 14 15  1  0
 15 16  1  0
 15 17  2  0
 17 18  1  0
 18 19  1  0
 19 20  1  0
 19 21  1  0
 19 22  1  0
 18 23  2  0
 23 24  1  0
 24 25  3  0
  6 26  1  0
 26 27  1  0
 27 28  1  0
 26 29  2  0
 29 30  1  0
 30 31  1  0
 29  3  1  0
 23 13  1  0
M  END
>  <Binding energies>  (24) 
[-6.85]

>  <Ligand effiencies>  (24) 
[-0.2140625]

>  <Interactions>  (24) 
["V-A:PRO:540:N:4884, V-A:TYR:539:CE1:4875, H-A:TYR:539:N:4870, V-A:TYR:539:CD1:4873, V-B:LEU:475:CD2:9231, V-A:ILE:538:CA:4860, V-A:TYR:539:CZ:4877, V-A:PRO:540:CA:4883, V-A:ILE:538:CG2:4863, H-B:LYS:534:NZ:9795, H-A:TYR:539:OH:4878, V-B:TYR:531:CZ:9766, V-A:TYR:539:C:4867, V-A:TYR:539:CD2:4874, V-A:TYR:539:CE2:4876, V-A:ALA:541:CB:4892, V-A:GLU:543:CG:4907, V-B:ILE:369:CD1:8211, V-B:ARG:545:CZ:9898, V-A:GLU:543:CD:4908, V-A:ILE:538:CB:4862, V-B:TYR:531:CE1:9764, V-B:TYR:484:CZ:9319, V-B:ILE:369:CG2:8209, V-B:ILE:369:CB:8208, V-A:ALA:541:CA:4890, V-A:PRO:540:CD:4887, V-A:LEU:363:CD1:3189, V-B:GLU:543:CD:9880, V-A:PRO:540:C:4881, H-B:GLY:454:N:9022, H-B:TYR:484:OH:9320, V-A:TYR:539:CA:4869, H-B:ARG:545:NH1:9899, H-B:ARG:545:NH2:9900, H-B:ARG:545:NE:9896"]

$$$$
2i_Grossjean_2025
     RDKit          3D

 23 24  0  0  0  0  0  0  0  0999 V2000
  127.2750  131.0320   55.9400 C   0  0  0  0  0  0  0  0  0  0  0  0
  128.2030  131.2440   57.1220 C   0  0  0  0  0  0  0  0  0  0  0  0
  127.7580  131.8320   58.3030 C   0  0  0  0  0  0  0  0  0  0  0  0
  128.6540  132.0040   59.3680 C   0  0  0  0  0  0  0  0  0  0  0  0
  128.1450  132.6570   60.6670 C   0  0  0  0  0  0  0  0  0  0  0  0
  128.8580  133.7510   60.9380 F   0  0  0  0  0  0  0  0  0  0  0  0
  126.8620  132.9980   60.5370 F   0  0  0  0  0  0  0  0  0  0  0  0
  128.2370  131.8460   61.7240 F   0  0  0  0  0  0  0  0  0  0  0  0
  129.9930  131.5690   59.2030 C   0  0  0  0  0  0  0  0  0  0  0  0
  130.9720  131.7220   60.2850 C   0  0  0  0  0  0  0  0  0  0  0  0
  131.7440  131.8430   61.1380 N   0  0  0  0  0  0  0  0  0  0  0  0
  130.3610  130.9840   57.9690 C   0  0  0  0  0  0  0  0  0  0  0  0
  132.0190  130.4070   57.6450 S   0  0  0  0  0  0  0  0  0  0  0  0
  132.7350  131.4510   56.3390 C   0  0  0  0  0  0  0  0  0  0  0  0
  131.6640  132.2030   55.5460 C   0  0  0  0  0  0  0  0  0  0  0  0
  131.4960  133.4060   55.7590 O   0  0  0  0  0  0  0  0  0  0  0  0
  130.9510  131.4630   54.6710 N   0  0  0  0  0  0  0  0  0  0  0  0
  129.9240  131.9070   53.8550 C   0  0  0  0  0  0  0  0  0  0  0  0
  129.0860  133.0240   53.9860 C   0  0  0  0  0  0  0  0  0  0  0  0
  128.2580  132.9700   52.8890 C   0  0  0  0  0  0  0  0  0  0  0  0
  128.5840  131.8900   52.1390 O   0  0  0  0  0  0  0  0  0  0  0  0
  129.6450  131.2300   52.7630 N   0  0  0  0  0  0  0  0  0  0  0  0
  129.4770  130.8260   56.9510 N   0  0  0  0  0  0  0  0  0  0  0  0
  1  2  1  0
  2  3  2  0
  3  4  1  0
  4  5  1  0
  5  6  1  0
  5  7  1  0
  5  8  1  0
  4  9  2  0
  9 10  1  0
 10 11  3  0
  9 12  1  0
 12 13  1  0
 13 14  1  0
 14 15  1  0
 15 16  2  0
 15 17  1  0
 17 18  1  0
 18 19  1  0
 19 20  2  0
 20 21  1  0
 21 22  1  0
 12 23  2  0
 23  2  1  0
 22 18  2  0
M  END
>  <Binding energies>  (25) 
[-7.4]

>  <Ligand effiencies>  (25) 
[-0.30833333333333335]

>  <Interactions>  (25) 
["V-A:TYR:539:CE1:4875, H-A:TYR:539:N:4870, V-A:TYR:539:CD1:4873, H-A:ALA:541:N:4891, V-A:TYR:531:CZ:4794, V-A:ILE:538:CA:4860, V-A:TYR:539:CZ:4877, V-A:PRO:540:CA:4883, V-A:ILE:538:CG2:4863, H-B:LYS:534:NZ:9795, V-A:VAL:537:C:4850, V-A:TYR:539:C:4867, V-A:TYR:539:CG:4872, V-A:TYR:539:CD2:4874, V-A:TYR:539:CE2:4876, V-A:ALA:541:CB:4892, V-A:ILE:538:CB:4862, V-A:PRO:540:CB:4885, V-A:ALA:541:CA:4890, H-A:TYR:531:OH:4795, V-A:LEU:363:CD1:3189, V-A:TYR:531:CE2:4793, V-A:PRO:540:C:4881, V-A:ILE:538:C:4858"]

$$$$
2k_Grossjean_2025
     RDKit          3D

 28 28  0  0  0  0  0  0  0  0999 V2000
  132.0500  131.1980   61.0090 C   0  0  0  0  0  0  0  0  0  0  0  0
  130.9050  131.9470   60.6310 O   0  0  0  0  0  0  0  0  0  0  0  0
  130.0380  131.2500   59.7460 C   0  0  0  0  0  0  0  0  0  0  0  0
  129.1090  132.2450   59.0390 C   0  0  0  0  0  0  0  0  0  0  0  0
  129.4270  132.2730   57.6560 O   0  0  0  0  0  0  0  0  0  0  0  0
  130.7470  131.8380   57.3510 C   0  0  0  0  0  0  0  0  0  0  0  0
  131.2470  132.6230   56.1310 C   0  0  0  0  0  0  0  0  0  0  0  0
  130.1160  132.9920   55.3580 O   0  0  0  0  0  0  0  0  0  0  0  0
  130.0910  132.4700   54.0380 C   0  0  0  0  0  0  0  0  0  0  0  0
  129.1090  131.2850   53.9870 C   0  0  0  0  0  0  0  0  0  0  0  0
  128.2200  131.2290   55.1500 N   0  0  0  0  0  0  0  0  0  0  0  0
  127.2860  130.2850   55.3780 C   0  0  0  0  0  0  0  0  0  0  0  0
  127.0940  129.3270   54.6270 O   0  0  0  0  0  0  0  0  0  0  0  0
  126.4370  130.4800   56.6420 C   0  0  0  0  0  0  0  0  0  0  0  0
  125.6810  128.9610   57.3190 S   0  0  0  0  0  0  0  0  0  0  0  0
  125.5630  129.0980   59.0980 C   0  0  0  0  0  0  0  0  0  0  0  0
  126.4110  128.3100   59.8060 N   0  0  0  0  0  0  0  0  0  0  0  0
  126.3740  128.3580   61.1560 C   0  0  0  0  0  0  0  0  0  0  0  0
  127.3430  127.4400   61.8750 C   0  0  0  0  0  0  0  0  0  0  0  0
  125.5070  129.1950   61.8540 C   0  0  0  0  0  0  0  0  0  0  0  0
  124.6270  130.0240   61.1420 C   0  0  0  0  0  0  0  0  0  0  0  0
  123.6780  130.9480   61.9300 C   0  0  0  0  0  0  0  0  0  0  0  0
  124.0120  131.0540   63.2180 F   0  0  0  0  0  0  0  0  0  0  0  0
  123.6980  132.1750   61.4090 F   0  0  0  0  0  0  0  0  0  0  0  0
  122.4320  130.4750   61.8760 F   0  0  0  0  0  0  0  0  0  0  0  0
  124.6500  129.9780   59.7250 C   0  0  0  0  0  0  0  0  0  0  0  0
  123.7500  130.8200   58.9310 C   0  0  0  0  0  0  0  0  0  0  0  0
  123.0390  131.4860   58.3040 N   0  0  0  0  0  0  0  0  0  0  0  0
  1  2  1  0
  2  3  1  0
  3  4  1  0
  4  5  1  0
  5  6  1  0
  6  7  1  0
  7  8  1  0
  8  9  1  0
  9 10  1  0
 10 11  1  0
 11 12  1  0
 12 13  2  0
 12 14  1  0
 14 15  1  0
 15 16  1  0
 16 17  2  0
 17 18  1  0
 18 19  1  0
 18 20  2  0
 20 21  1  0
 21 22  1  0
 22 23  1  0
 22 24  1  0
 22 25  1  0
 21 26  2  0
 26 27  1  0
 27 28  3  0
 26 16  1  0
M  END
>  <Binding energies>  (26) 
[-5.66]

>  <Ligand effiencies>  (26) 
[-0.19517241379310346]

>  <Interactions>  (26) 
["V-A:PRO:540:N:4884, V-A:TYR:539:CE1:4875, H-A:TYR:539:N:4870, V-B:ASP:366:CG:8185, H-A:ALA:541:N:4891, V-A:ILE:538:CA:4860, V-A:TYR:539:CZ:4877, V-A:PRO:540:CA:4883, V-A:ILE:538:CG2:4863, H-B:LYS:534:NZ:9795, H-A:TYR:539:OH:4878, V-A:TYR:539:C:4867, V-A:TYR:539:CE2:4876, V-B:ILE:369:CD1:8211, V-A:ILE:538:CB:4862, V-B:GLY:454:CA:9021, H-B:TYR:531:OH:9767, V-B:ASP:366:CB:8184, V-A:PRO:540:CB:4885, V-B:ASP:366:C:8180, V-A:PRO:540:CD:4887, V-B:ASP:366:CA:8182, V-B:GLY:453:CA:9016, V-B:GLY:453:C:9014"]

$$$$
3aa_Grossjean_2025
     RDKit          3D

 34 36  0  0  0  0  0  0  0  0999 V2000
  128.6410  132.4910   52.8890 C   0  0  0  0  0  0  0  0  0  0  0  0
  130.0660  132.2340   53.3880 C   0  0  0  0  0  0  0  0  0  0  0  0
  130.3060  133.0080   54.5570 O   0  0  0  0  0  0  0  0  0  0  0  0
  129.8040  132.6300   55.7600 C   0  0  0  0  0  0  0  0  0  0  0  0
  129.0380  133.3300   56.4290 O   0  0  0  0  0  0  0  0  0  0  0  0
  130.2870  131.2790   56.2070 C   0  0  0  0  0  0  0  0  0  0  0  0
  129.5030  130.1240   56.0620 C   0  0  0  0  0  0  0  0  0  0  0  0
  129.9830  128.8870   56.4820 C   0  0  0  0  0  0  0  0  0  0  0  0
  131.2540  128.7760   57.0480 C   0  0  0  0  0  0  0  0  0  0  0  0
  131.6450  127.4780   57.4360 N   0  0  0  0  0  0  0  0  0  0  0  0
  131.9680  126.4120   56.6710 C   0  0  0  0  0  0  0  0  0  0  0  0
  131.9550  126.3860   55.4400 O   0  0  0  0  0  0  0  0  0  0  0  0
  132.3670  125.1500   57.4360 C   0  0  0  0  0  0  0  0  0  0  0  0
  131.8840  125.2400   59.1870 S   0  0  0  0  0  0  0  0  0  0  0  0
  130.7040  123.9390   59.4690 C   0  0  0  0  0  0  0  0  0  0  0  0
  129.6590  123.9570   58.6070 N   0  0  0  0  0  0  0  0  0  0  0  0
  128.6830  123.0190   58.7130 C   0  0  0  0  0  0  0  0  0  0  0  0
  127.5680  123.0970   57.7130 C   0  0  0  0  0  0  0  0  0  0  0  0
  126.2500  123.3400   58.1300 C   0  0  0  0  0  0  0  0  0  0  0  0
  125.2090  123.4150   57.2070 C   0  0  0  0  0  0  0  0  0  0  0  0
  125.4750  123.2480   55.8530 C   0  0  0  0  0  0  0  0  0  0  0  0
  126.7730  123.0080   55.4140 C   0  0  0  0  0  0  0  0  0  0  0  0
  127.8110  122.9360   56.3380 C   0  0  0  0  0  0  0  0  0  0  0  0
  128.7430  122.0270   59.6960 C   0  0  0  0  0  0  0  0  0  0  0  0
  129.8070  121.9980   60.6120 C   0  0  0  0  0  0  0  0  0  0  0  0
  129.8320  120.8960   61.6870 C   0  0  0  0  0  0  0  0  0  0  0  0
  130.0900  121.3700   62.9080 F   0  0  0  0  0  0  0  0  0  0  0  0
  128.6510  120.2790   61.7410 F   0  0  0  0  0  0  0  0  0  0  0  0
  130.7750  119.9990   61.3970 F   0  0  0  0  0  0  0  0  0  0  0  0
  130.8140  122.9890   60.5080 C   0  0  0  0  0  0  0  0  0  0  0  0
  131.9170  123.0430   61.4720 C   0  0  0  0  0  0  0  0  0  0  0  0
  132.7880  123.0860   62.2330 N   0  0  0  0  0  0  0  0  0  0  0  0
  132.0380  129.9280   57.2080 C   0  0  0  0  0  0  0  0  0  0  0  0
  131.5560  131.1640   56.7900 C   0  0  0  0  0  0  0  0  0  0  0  0
  1  2  1  0
  2  3  1  0
  3  4  1  0
  4  5  2  0
  4  6  1  0
  6  7  2  0
  7  8  1  0
  8  9  2  0
  9 10  1  0
 10 11  1  0
 11 12  2  0
 11 13  1  0
 13 14  1  0
 14 15  1  0
 15 16  2  0
 16 17  1  0
 17 18  1  0
 18 19  2  0
 19 20  1  0
 20 21  2  0
 21 22  1  0
 22 23  2  0
 17 24  2  0
 24 25  1  0
 25 26  1  0
 26 27  1  0
 26 28  1  0
 26 29  1  0
 25 30  2  0
 30 31  1  0
 31 32  3  0
  9 33  1  0
 33 34  2  0
 34  6  1  0
 30 15  1  0
 23 18  1  0
M  END
>  <Binding energies>  (27) 
[-9.13]

>  <Ligand effiencies>  (27) 
[-0.2608571428571429]

>  <Interactions>  (27) 
["V-B:PRO:540:CB:9857, V-A:PRO:540:N:4884, V-B:TYR:539:C:9839, V-A:MET:535:CG:4833, H-A:TYR:539:N:4870, V-B:TYR:531:CE2:9765, V-B:TYR:539:CD1:9845, V-B:ILE:538:CA:9832, V-B:PRO:540:N:9856, V-B:PRO:540:CA:9855, V-A:ILE:538:CA:4860, V-B:TYR:539:CD2:9846, V-A:ILE:538:CG2:4863, V-B:MET:535:CE:9807, V-B:TYR:539:CE2:9848, V-B:TYR:539:CE1:9847, V-B:TYR:531:CZ:9766, V-B:TYR:539:CZ:9849, V-A:TYR:539:C:4867, V-A:TYR:539:CD2:4874, V-B:ILE:538:CD1:9837, V-A:TYR:539:CE2:4876, V-A:ASP:366:CG:3213, V-A:LEU:475:CD2:4259, V-B:TYR:539:CG:9844, V-A:ILE:538:CB:4862, V-A:ASP:366:CB:3212, H-A:TYR:531:OH:4795, V-A:TYR:484:CE1:4345, V-B:ALA:541:CB:9864, V-B:ALA:541:CA:9862, V-A:TYR:484:CZ:4347, V-B:PRO:540:C:9853, H-A:TYR:484:OH:4348, V-A:LEU:475:CG:4257, V-A:LEU:475:CD1:4258, V-A:TYR:539:CA:4869, H-A:GLY:454:N:4050, H-B:TYR:539:OH:9850, H-A:ASP:366:OD1:3214"]

$$$$
3ad_Grossjean_2025
     RDKit          3D

 29 31  0  0  0  0  0  0  0  0999 V2000
  133.0970  124.7670   60.5700 N   0  0  0  0  0  0  0  0  0  0  0  0
  132.1360  124.5130   59.9790 C   0  0  0  0  0  0  0  0  0  0  0  0
  130.9180  124.1940   59.2260 C   0  0  0  0  0  0  0  0  0  0  0  0
  130.6090  124.8790   58.0260 C   0  0  0  0  0  0  0  0  0  0  0  0
  131.5330  125.9500   57.4170 C   0  0  0  0  0  0  0  0  0  0  0  0
  131.6630  127.0270   58.1950 F   0  0  0  0  0  0  0  0  0  0  0  0
  132.7530  125.4430   57.2250 F   0  0  0  0  0  0  0  0  0  0  0  0
  131.0480  126.3620   56.2440 F   0  0  0  0  0  0  0  0  0  0  0  0
  129.4080  124.5700   57.3690 C   0  0  0  0  0  0  0  0  0  0  0  0
  128.5400  123.6080   57.8960 C   0  0  0  0  0  0  0  0  0  0  0  0
  127.2380  123.2500   57.2430 C   0  0  0  0  0  0  0  0  0  0  0  0
  126.0380  123.2840   57.9700 C   0  0  0  0  0  0  0  0  0  0  0  0
  124.8260  122.9540   57.3710 C   0  0  0  0  0  0  0  0  0  0  0  0
  124.7980  122.5840   56.0290 C   0  0  0  0  0  0  0  0  0  0  0  0
  125.9730  122.5450   55.2860 C   0  0  0  0  0  0  0  0  0  0  0  0
  127.1830  122.8760   55.8900 C   0  0  0  0  0  0  0  0  0  0  0  0
  128.8380  122.9590   59.0500 N   0  0  0  0  0  0  0  0  0  0  0  0
  130.0010  123.2260   59.6910 C   0  0  0  0  0  0  0  0  0  0  0  0
  130.2310  122.2750   61.1770 S   0  0  0  0  0  0  0  0  0  0  0  0
  131.9570  121.7040   61.1910 C   0  0  0  0  0  0  0  0  0  0  0  0
  132.1430  120.4060   60.4030 C   0  0  0  0  0  0  0  0  0  0  0  0
  133.2080  120.2080   59.8190 O   0  0  0  0  0  0  0  0  0  0  0  0
  131.0880  119.5630   60.4180 N   0  0  0  0  0  0  0  0  0  0  0  0
  130.9350  118.3000   59.8170 C   0  0  0  0  0  0  0  0  0  0  0  0
  131.8330  118.0070   58.7860 C   0  0  0  0  0  0  0  0  0  0  0  0
  131.7670  116.7860   58.1210 C   0  0  0  0  0  0  0  0  0  0  0  0
  130.7980  115.8550   58.4840 C   0  0  0  0  0  0  0  0  0  0  0  0
  129.8930  116.1360   59.5040 C   0  0  0  0  0  0  0  0  0  0  0  0
  129.9550  117.3560   60.1710 C   0  0  0  0  0  0  0  0  0  0  0  0
  1  2  3  0
  2  3  1  0
  3  4  2  0
  4  5  1  0
  5  6  1  0
  5  7  1  0
  5  8  1  0
  4  9  1  0
  9 10  2  0
 10 11  1  0
 11 12  2  0
 12 13  1  0
 13 14  2  0
 14 15  1  0
 15 16  2  0
 10 17  1  0
 17 18  2  0
 18 19  1  0
 19 20  1  0
 20 21  1  0
 21 22  2  0
 21 23  1  0
 23 24  1  0
 24 25  2  0
 25 26  1  0
 26 27  2  0
 27 28  1  0
 28 29  2  0
 18  3  1  0
 29 24  1  0
 16 11  1  0
M  END
>  <Binding energies>  (28) 
[-8.79]

>  <Ligand effiencies>  (28) 
[-0.293]

>  <Interactions>  (28) 
["V-B:PRO:540:CB:9857, V-B:TYR:539:C:9839, V-B:ILE:538:C:9830, V-B:TYR:531:CE2:9765, V-B:TYR:539:CD1:9845, V-B:ILE:538:CA:9832, V-B:PRO:540:N:9856, V-B:PRO:540:CA:9855, V-B:TYR:539:CD2:9846, V-B:MET:535:CE:9807, V-B:TYR:539:CE2:9848, V-B:TYR:539:CE1:9847, V-B:TYR:539:CZ:9849, V-B:PRO:540:CG:9858, V-B:LEU:363:CD1:8161, V-B:PRO:540:CD:9859, V-B:ILE:538:CD1:9837, V-B:ILE:538:CG2:9835, V-A:ASP:366:CG:3213, V-A:LEU:475:CD2:4259, V-B:TYR:539:CG:9844, V-A:ASP:366:CB:3212, V-B:ILE:538:CB:9834, V-A:ASP:366:CA:3210, V-A:SER:385:CB:3409, V-B:TYR:539:CB:9843, V-A:HIS:383:CE1:3394, V-A:PRO:482:CG:4327, V-A:LEU:373:CD1:3280, V-A:LEU:373:CD2:3281, V-A:PRO:482:CB:4326, H-B:TYR:539:O:9840, V-B:VAL:344:CG1:7973, V-A:ASP:366:C:3208, V-B:ILE:343:CG2:7964, V-B:VAL:344:CG2:7974"]

$$$$
3ai_Grossjean_2025
     RDKit          3D

 28 30  0  0  0  0  0  0  0  0999 V2000
  132.2980  131.8290   61.0710 N   0  0  0  0  0  0  0  0  0  0  0  0
  131.3170  131.6600   60.4800 C   0  0  0  0  0  0  0  0  0  0  0  0
  130.0740  131.4490   59.7320 C   0  0  0  0  0  0  0  0  0  0  0  0
  128.8380  131.9290   60.2310 C   0  0  0  0  0  0  0  0  0  0  0  0
  128.7260  132.7280   61.5430 C   0  0  0  0  0  0  0  0  0  0  0  0
  127.5100  132.6570   62.0900 F   0  0  0  0  0  0  0  0  0  0  0  0
  129.5970  132.2600   62.4380 F   0  0  0  0  0  0  0  0  0  0  0  0
  128.9860  134.0170   61.3200 F   0  0  0  0  0  0  0  0  0  0  0  0
  127.6700  131.6590   59.5020 C   0  0  0  0  0  0  0  0  0  0  0  0
  127.7330  130.9290   58.3110 C   0  0  0  0  0  0  0  0  0  0  0  0
  126.5170  130.6020   57.4970 C   0  0  0  0  0  0  0  0  0  0  0  0
  125.2410  130.6020   58.0840 C   0  0  0  0  0  0  0  0  0  0  0  0
  124.1070  130.3040   57.3340 C   0  0  0  0  0  0  0  0  0  0  0  0
  124.2340  130.0030   55.9820 C   0  0  0  0  0  0  0  0  0  0  0  0
  125.4860  129.9990   55.3760 C   0  0  0  0  0  0  0  0  0  0  0  0
  126.6170  130.2970   56.1290 C   0  0  0  0  0  0  0  0  0  0  0  0
  128.9190  130.4640   57.8400 N   0  0  0  0  0  0  0  0  0  0  0  0
  130.0630  130.7320   58.5140 C   0  0  0  0  0  0  0  0  0  0  0  0
  131.5180  130.0620   57.7360 S   0  0  0  0  0  0  0  0  0  0  0  0
  132.2070  131.3470   56.6380 C   0  0  0  0  0  0  0  0  0  0  0  0
  131.1720  132.0980   55.7880 C   0  0  0  0  0  0  0  0  0  0  0  0
  130.8970  133.2760   56.0250 O   0  0  0  0  0  0  0  0  0  0  0  0
  130.6160  131.3640   54.7980 N   0  0  0  0  0  0  0  0  0  0  0  0
  129.6630  131.7790   53.8760 C   0  0  0  0  0  0  0  0  0  0  0  0
  128.9930  132.9980   53.9690 C   0  0  0  0  0  0  0  0  0  0  0  0
  128.1480  133.0260   52.8850 C   0  0  0  0  0  0  0  0  0  0  0  0
  128.3000  131.8840   52.1740 O   0  0  0  0  0  0  0  0  0  0  0  0
  129.2640  131.1010   52.8130 N   0  0  0  0  0  0  0  0  0  0  0  0
  1  2  3  0
  2  3  1  0
  3  4  2  0
  4  5  1  0
  5  6  1  0
  5  7  1  0
  5  8  1  0
  4  9  1  0
  9 10  2  0
 10 11  1  0
 11 12  2  0
 12 13  1  0
 13 14  2  0
 14 15  1  0
 15 16  2  0
 10 17  1  0
 17 18  2  0
 18 19  1  0
 19 20  1  0
 20 21  1  0
 21 22  2  0
 21 23  1  0
 23 24  1  0
 24 25  1  0
 25 26  2  0
 26 27  1  0
 27 28  1  0
 18  3  1  0
 28 24  2  0
 16 11  1  0
M  END
>  <Binding energies>  (29) 
[-8.44]

>  <Ligand effiencies>  (29) 
[-0.29103448275862065]

>  <Interactions>  (29) 
["V-A:TYR:539:CE1:4875, H-A:TYR:539:N:4870, V-B:LEU:475:CD2:9231, H-A:ALA:541:N:4891, V-A:ILE:538:CA:4860, V-A:TYR:539:CZ:4877, V-A:PRO:540:CA:4883, V-A:ILE:538:CG2:4863, H-B:LYS:534:NZ:9795, V-B:TYR:531:CZ:9766, V-A:VAL:537:C:4850, V-A:TYR:539:C:4867, V-A:TYR:539:CG:4872, V-A:TYR:539:CD2:4874, V-A:TYR:539:CE2:4876, V-A:ALA:541:CB:4892, V-A:GLU:543:CG:4907, V-A:ILE:538:CB:4862, V-B:TYR:531:CE1:9764, V-B:ASP:366:CB:8184, V-A:PRO:540:CB:4885, V-A:ALA:541:CA:4890, V-B:ASP:366:C:8180, H-A:TYR:531:OH:4795, V-A:LEU:363:CD1:3189, V-B:ASP:366:CA:8182, V-A:PRO:540:C:4881, V-B:TYR:531:CD1:9762, V-B:ASN:370:CB:8217, V-A:ILE:538:C:4858"]

$$$$
3aj_Grossjean_2025
     RDKit          3D

 28 30  0  0  0  0  0  0  0  0999 V2000
  124.2010  131.8850   61.4480 N   0  0  0  0  0  0  0  0  0  0  0  0
  125.2020  131.8670   60.8690 C   0  0  0  0  0  0  0  0  0  0  0  0
  126.4730  131.8440   60.1370 C   0  0  0  0  0  0  0  0  0  0  0  0
  127.6890  132.1580   60.7910 C   0  0  0  0  0  0  0  0  0  0  0  0
  127.7650  132.4950   62.2920 C   0  0  0  0  0  0  0  0  0  0  0  0
  126.9030  131.7850   63.0250 F   0  0  0  0  0  0  0  0  0  0  0  0
  128.9900  132.2450   62.7550 F   0  0  0  0  0  0  0  0  0  0  0  0
  127.4840  133.7840   62.4860 F   0  0  0  0  0  0  0  0  0  0  0  0
  128.8720  132.1680   60.0350 C   0  0  0  0  0  0  0  0  0  0  0  0
  128.8400  131.8780   58.6670 C   0  0  0  0  0  0  0  0  0  0  0  0
  130.0710  131.8850   57.8120 C   0  0  0  0  0  0  0  0  0  0  0  0
  131.2000  131.1360   58.1780 C   0  0  0  0  0  0  0  0  0  0  0  0
  132.3470  131.1350   57.3860 C   0  0  0  0  0  0  0  0  0  0  0  0
  132.3770  131.8850   56.2150 C   0  0  0  0  0  0  0  0  0  0  0  0
  131.2700  132.6340   55.8300 C   0  0  0  0  0  0  0  0  0  0  0  0
  130.1260  132.6320   56.6240 C   0  0  0  0  0  0  0  0  0  0  0  0
  127.6700  131.5850   58.0440 N   0  0  0  0  0  0  0  0  0  0  0  0
  126.5190  131.5450   58.7560 C   0  0  0  0  0  0  0  0  0  0  0  0
  125.0930  131.1220   57.7780 S   0  0  0  0  0  0  0  0  0  0  0  0
  125.4420  129.5400   56.9370 C   0  0  0  0  0  0  0  0  0  0  0  0
  126.4110  129.6350   55.7500 C   0  0  0  0  0  0  0  0  0  0  0  0
  126.5730  128.6780   54.9890 O   0  0  0  0  0  0  0  0  0  0  0  0
  127.0410  130.8250   55.6300 N   0  0  0  0  0  0  0  0  0  0  0  0
  127.9570  131.1830   54.6500 C   0  0  0  0  0  0  0  0  0  0  0  0
  127.9100  132.2180   53.8390 N   0  0  0  0  0  0  0  0  0  0  0  0
  128.9540  132.2520   53.0340 C   0  0  0  0  0  0  0  0  0  0  0  0
  129.8810  131.2240   53.1850 C   0  0  0  0  0  0  0  0  0  0  0  0
  129.3440  130.1600   54.4500 S   0  0  0  0  0  0  0  0  0  0  0  0
  1  2  3  0
  2  3  1  0
  3  4  2  0
  4  5  1  0
  5  6  1  0
  5  7  1  0
  5  8  1  0
  4  9  1  0
  9 10  2  0
 10 11  1  0
 11 12  2  0
 12 13  1  0
 13 14  2  0
 14 15  1  0
 15 16  2  0
 10 17  1  0
 17 18  2  0
 18 19  1  0
 19 20  1  0
 20 21  1  0
 21 22  2  0
 21 23  1  0
 23 24  1  0
 24 25  2  0
 25 26  1  0
 26 27  2  0
 27 28  1  0
 18  3  1  0
 28 24  1  0
 16 11  1  0
M  END
>  <Binding energies>  (30) 
[-7.56]

>  <Ligand effiencies>  (30) 
[-0.26068965517241377]

>  <Interactions>  (30) 
["V-A:PRO:540:N:4884, V-A:TYR:539:CE1:4875, V-A:MET:535:CG:4833, V-A:TYR:539:CD1:4873, V-B:LEU:475:CD2:9231, V-A:MET:535:CE:4835, V-A:ILE:538:CA:4860, V-A:TYR:539:CZ:4877, V-A:PRO:540:CA:4883, V-A:ILE:538:CG2:4863, H-B:LYS:534:NZ:9795, H-A:TYR:539:OH:4878, V-A:TYR:539:C:4867, V-A:TYR:539:CE2:4876, V-A:ALA:541:CB:4892, V-A:GLU:543:CG:4907, V-A:MET:535:CB:4832, V-A:ILE:538:CB:4862, V-B:TYR:531:CE1:9764, H-B:TYR:531:OH:9767, V-A:PRO:540:CB:4885, V-A:ALA:541:CA:4890, V-A:PRO:540:CD:4887, V-A:LEU:363:CD1:3189, V-A:TYR:539:CA:4869"]

$$$$
3ak_Grossjean_2025
     RDKit          3D

 33 34  0  0  0  0  0  0  0  0999 V2000
  128.9930  130.2880   53.8400 C   0  0  0  0  0  0  0  0  0  0  0  0
  128.6320  131.4880   53.1750 O   0  0  0  0  0  0  0  0  0  0  0  0
  129.2760  132.6410   53.7000 C   0  0  0  0  0  0  0  0  0  0  0  0
  129.9720  132.2690   55.0150 C   0  0  0  0  0  0  0  0  0  0  0  0
  130.8260  133.3390   55.4050 O   0  0  0  0  0  0  0  0  0  0  0  0
  132.1800  132.9790   55.6700 C   0  0  0  0  0  0  0  0  0  0  0  0
  132.3550  131.5230   56.1370 C   0  0  0  0  0  0  0  0  0  0  0  0
  133.4150  131.4590   57.0820 O   0  0  0  0  0  0  0  0  0  0  0  0
  133.0810  130.7640   58.2760 C   0  0  0  0  0  0  0  0  0  0  0  0
  131.6820  130.1340   58.1510 C   0  0  0  0  0  0  0  0  0  0  0  0
  131.7070  128.6760   58.0170 N   0  0  0  0  0  0  0  0  0  0  0  0
  131.1210  127.9630   57.0360 C   0  0  0  0  0  0  0  0  0  0  0  0
  130.4990  128.4880   56.1110 O   0  0  0  0  0  0  0  0  0  0  0  0
  131.2310  126.4300   57.0680 C   0  0  0  0  0  0  0  0  0  0  0  0
  131.7320  125.6790   58.6610 S   0  0  0  0  0  0  0  0  0  0  0  0
  130.5460  124.4160   59.0970 C   0  0  0  0  0  0  0  0  0  0  0  0
  129.5290  124.2380   58.2190 N   0  0  0  0  0  0  0  0  0  0  0  0
  128.5740  123.3060   58.4660 C   0  0  0  0  0  0  0  0  0  0  0  0
  127.4870  123.1750   57.4410 C   0  0  0  0  0  0  0  0  0  0  0  0
  126.1360  123.2310   57.8160 C   0  0  0  0  0  0  0  0  0  0  0  0
  125.1230  123.1140   56.8680 C   0  0  0  0  0  0  0  0  0  0  0  0
  125.4490  122.9410   55.5270 C   0  0  0  0  0  0  0  0  0  0  0  0
  126.7790  122.8860   55.1280 C   0  0  0  0  0  0  0  0  0  0  0  0
  127.7900  123.0030   56.0780 C   0  0  0  0  0  0  0  0  0  0  0  0
  128.6310  122.5090   59.6140 C   0  0  0  0  0  0  0  0  0  0  0  0
  129.6730  122.6710   60.5390 C   0  0  0  0  0  0  0  0  0  0  0  0
  129.7000  121.7760   61.7930 C   0  0  0  0  0  0  0  0  0  0  0  0
  129.2200  122.4440   62.8410 F   0  0  0  0  0  0  0  0  0  0  0  0
  128.9550  120.6880   61.5940 F   0  0  0  0  0  0  0  0  0  0  0  0
  130.9310  121.3640   62.1090 F   0  0  0  0  0  0  0  0  0  0  0  0
  130.6600  123.6520   60.2790 C   0  0  0  0  0  0  0  0  0  0  0  0
  131.7720  123.8670   61.2110 C   0  0  0  0  0  0  0  0  0  0  0  0
  132.6500  124.0370   61.9470 N   0  0  0  0  0  0  0  0  0  0  0  0
  1  2  1  0
  2  3  1  0
  3  4  1  0
  4  5  1  0
  5  6  1  0
  6  7  1  0
  7  8  1  0
  8  9  1  0
  9 10  1  0
 10 11  1  0
 11 12  1  0
 12 13  2  0
 12 14  1  0
 14 15  1  0
 15 16  1  0
 16 17  2  0
 17 18  1  0
 18 19  1  0
 19 20  2  0
 20 21  1  0
 21 22  2  0
 22 23  1  0
 23 24  2  0
 18 25  2  0
 25 26  1  0
 26 27  1  0
 27 28  1  0
 27 29  1  0
 27 30  1  0
 26 31  2  0
 31 32  1  0
 32 33  3  0
 31 16  1  0
 24 19  1  0
M  END
>  <Binding energies>  (31) 
[-8.09]

>  <Ligand effiencies>  (31) 
[-0.23794117647058824]

>  <Interactions>  (31) 
["V-B:PRO:540:CB:9857, V-A:PRO:540:N:4884, V-B:TYR:539:C:9839, H-A:TYR:539:N:4870, V-B:TYR:531:CE2:9765, V-B:TYR:539:CD1:9845, V-B:ILE:538:CA:9832, V-B:PRO:540:N:9856, V-B:PRO:540:CA:9855, V-A:MET:535:CE:4835, V-A:TYR:531:CZ:4794, V-A:ILE:538:CA:4860, V-B:TYR:539:CD2:9846, V-A:PRO:540:CA:4883, V-A:ILE:538:CG2:4863, V-B:MET:535:CE:9807, H-B:LYS:534:NZ:9795, V-B:TYR:539:CE2:9848, V-B:TYR:539:CE1:9847, V-B:TYR:531:CZ:9766, V-B:TYR:539:CZ:9849, V-B:LEU:363:CD1:8161, V-A:TYR:539:CD2:4874, V-B:PRO:540:CD:9859, V-B:ILE:538:CD1:9837, V-A:TYR:539:CE2:4876, V-A:ASP:366:CG:3213, V-A:LEU:475:CD2:4259, V-B:TYR:539:CG:9844, V-A:ILE:538:CB:4862, V-A:PRO:540:CG:4886, V-A:PRO:540:CB:4885, V-A:ASP:366:CB:3212, H-A:TYR:531:OH:4795, V-A:PRO:540:CD:4887, V-A:LEU:363:CD1:3189, V-A:TYR:531:CE2:4793, V-A:TYR:484:CE1:4345, V-B:ALA:541:CB:9864, V-B:ALA:541:CA:9862, V-A:TYR:484:CZ:4347, V-B:PRO:540:C:9853, V-B:GLU:543:CG:9879, H-A:TYR:484:OH:4348, H-A:ASP:366:OD1:3214"]

$$$$
3bk_Grossjean_2025
     RDKit          3D

 30 31  0  0  0  0  0  0  0  0999 V2000
  124.8560  122.6010   56.4940 C   0  0  0  0  0  0  0  0  0  0  0  0
  125.9930  122.0030   55.8890 O   0  0  0  0  0  0  0  0  0  0  0  0
  127.0970  122.8880   55.7590 C   0  0  0  0  0  0  0  0  0  0  0  0
  127.3750  123.5660   57.1080 C   0  0  0  0  0  0  0  0  0  0  0  0
  128.0520  124.7950   56.8860 O   0  0  0  0  0  0  0  0  0  0  0  0
  127.3430  125.9350   57.3560 C   0  0  0  0  0  0  0  0  0  0  0  0
  127.8920  127.1910   56.6690 C   0  0  0  0  0  0  0  0  0  0  0  0
  126.8180  127.9200   56.0900 O   0  0  0  0  0  0  0  0  0  0  0  0
  127.2280  128.8880   55.1330 C   0  0  0  0  0  0  0  0  0  0  0  0
  126.7210  130.2740   55.5580 C   0  0  0  0  0  0  0  0  0  0  0  0
  127.8010  131.2560   55.6630 N   0  0  0  0  0  0  0  0  0  0  0  0
  128.3050  131.9740   54.6450 C   0  0  0  0  0  0  0  0  0  0  0  0
  127.8920  131.9000   53.4860 O   0  0  0  0  0  0  0  0  0  0  0  0
  129.4340  132.9480   54.9900 C   0  0  0  0  0  0  0  0  0  0  0  0
  130.8300  132.1100   55.8050 S   0  0  0  0  0  0  0  0  0  0  0  0
  130.4790  131.9610   57.5490 C   0  0  0  0  0  0  0  0  0  0  0  0
  129.2280  132.3190   57.9360 N   0  0  0  0  0  0  0  0  0  0  0  0
  128.8730  132.2410   59.2450 C   0  0  0  0  0  0  0  0  0  0  0  0
  127.4660  132.6350   59.5830 C   0  0  0  0  0  0  0  0  0  0  0  0
  126.3820  131.8360   59.1850 C   0  0  0  0  0  0  0  0  0  0  0  0
  125.0730  132.2000   59.4910 C   0  0  0  0  0  0  0  0  0  0  0  0
  124.8300  133.3710   60.2020 C   0  0  0  0  0  0  0  0  0  0  0  0
  125.8870  134.1780   60.6110 C   0  0  0  0  0  0  0  0  0  0  0  0
  127.1940  133.8100   60.3040 C   0  0  0  0  0  0  0  0  0  0  0  0
  129.7810  131.7890   60.2100 C   0  0  0  0  0  0  0  0  0  0  0  0
  131.0750  131.4180   59.8290 C   0  0  0  0  0  0  0  0  0  0  0  0
  132.0350  130.9300   60.9140 C   0  0  0  0  0  0  0  0  0  0  0  0
  131.4450  131.5010   58.4710 C   0  0  0  0  0  0  0  0  0  0  0  0
  132.7930  131.1170   58.0420 C   0  0  0  0  0  0  0  0  0  0  0  0
  133.8580  130.8130   57.7050 N   0  0  0  0  0  0  0  0  0  0  0  0
  1  2  1  0
  2  3  1  0
  3  4  1  0
  4  5  1  0
  5  6  1  0
  6  7  1  0
  7  8  1  0
  8  9  1  0
  9 10  1  0
 10 11  1  0
 11 12  1  0
 12 13  2  0
 12 14  1  0
 14 15  1  0
 15 16  1  0
 16 17  2  0
 17 18  1  0
 18 19  1  0
 19 20  2  0
 20 21  1  0
 21 22  2  0
 22 23  1  0
 23 24  2  0
 18 25  2  0
 25 26  1  0
 26 27  1  0
 26 28  2  0
 28 29  1  0
 29 30  3  0
 28 16  1  0
 24 19  1  0
M  END
>  <Binding energies>  (32) 
[-7.72]

>  <Ligand effiencies>  (32) 
[-0.24903225806451612]

>  <Interactions>  (32) 
["V-B:PRO:540:CB:9857, V-A:PRO:540:N:4884, V-A:TYR:539:CE1:4875, V-B:TYR:531:CE2:9765, V-B:TYR:539:CD1:9845, V-A:TYR:539:CD1:4873, V-B:LEU:475:CD2:9231, V-B:PRO:540:N:9856, V-A:ILE:538:CA:4860, V-A:TYR:539:CZ:4877, V-A:PRO:540:CA:4883, V-B:MET:535:CE:9807, H-B:LYS:534:NZ:9795, V-B:TYR:539:CE1:9847, V-A:TYR:539:C:4867, V-A:TYR:539:CG:4872, V-B:LEU:363:CD1:8161, V-A:TYR:539:CD2:4874, V-B:PRO:540:CD:9859, V-B:ILE:538:CD1:9837, V-A:TYR:539:CE2:4876, V-B:ILE:538:CG2:9835, V-A:ILE:538:CB:4862, V-B:TYR:531:CE1:9764, H-B:TYR:531:OH:9767, V-B:ILE:369:CG2:8209, V-A:PRO:540:CB:4885, H-B:TYR:539:N:9842, V-A:ILE:538:C:4858, V-A:TYR:539:CA:4869"]

$$$$
3cb_Grossjean_2025
     RDKit          3D

 30 32  0  0  0  0  0  0  0  0999 V2000
  128.6900  132.5740   57.3550 C   0  0  0  0  0  0  0  0  0  0  0  0
  129.2570  133.0050   56.1270 O   0  0  0  0  0  0  0  0  0  0  0  0
  130.5030  132.6130   55.7550 C   0  0  0  0  0  0  0  0  0  0  0  0
  131.2610  133.3120   55.0760 O   0  0  0  0  0  0  0  0  0  0  0  0
  130.8670  131.2440   56.2530 C   0  0  0  0  0  0  0  0  0  0  0  0
  130.1210  130.1050   55.9110 C   0  0  0  0  0  0  0  0  0  0  0  0
  130.4880  128.8500   56.3870 C   0  0  0  0  0  0  0  0  0  0  0  0
  131.6020  128.7040   57.2160 C   0  0  0  0  0  0  0  0  0  0  0  0
  131.8830  127.3890   57.6360 N   0  0  0  0  0  0  0  0  0  0  0  0
  132.2290  126.3010   56.9130 C   0  0  0  0  0  0  0  0  0  0  0  0
  132.3800  126.2870   55.6900 O   0  0  0  0  0  0  0  0  0  0  0  0
  132.4490  125.0280   57.7430 C   0  0  0  0  0  0  0  0  0  0  0  0
  131.7550  125.0790   59.4310 S   0  0  0  0  0  0  0  0  0  0  0  0
  130.3590  123.9740   59.4790 C   0  0  0  0  0  0  0  0  0  0  0  0
  130.4250  123.0650   60.4820 N   0  0  0  0  0  0  0  0  0  0  0  0
  129.4180  122.1740   60.6160 C   0  0  0  0  0  0  0  0  0  0  0  0
  129.5530  121.1950   61.7680 C   0  0  0  0  0  0  0  0  0  0  0  0
  128.3200  122.1490   59.7620 C   0  0  0  0  0  0  0  0  0  0  0  0
  128.2380  123.0680   58.7080 C   0  0  0  0  0  0  0  0  0  0  0  0
  127.0420  122.9960   57.8140 C   0  0  0  0  0  0  0  0  0  0  0  0
  127.1810  122.5800   56.4840 C   0  0  0  0  0  0  0  0  0  0  0  0
  126.0710  122.4990   55.6470 C   0  0  0  0  0  0  0  0  0  0  0  0
  124.8120  122.8330   56.1390 C   0  0  0  0  0  0  0  0  0  0  0  0
  124.6540  123.2420   57.4600 C   0  0  0  0  0  0  0  0  0  0  0  0
  125.7660  123.3190   58.2960 C   0  0  0  0  0  0  0  0  0  0  0  0
  129.2940  124.0020   58.5450 C   0  0  0  0  0  0  0  0  0  0  0  0
  129.3060  124.9250   57.4060 C   0  0  0  0  0  0  0  0  0  0  0  0
  129.3170  125.6530   56.5070 N   0  0  0  0  0  0  0  0  0  0  0  0
  132.3560  129.8360   57.5580 C   0  0  0  0  0  0  0  0  0  0  0  0
  131.9880  131.0920   57.0810 C   0  0  0  0  0  0  0  0  0  0  0  0
  1  2  1  0
  2  3  1  0
  3  4  2  0
  3  5  1  0
  5  6  2  0
  6  7  1  0
  7  8  2  0
  8  9  1  0
  9 10  1  0
 10 11  2  0
 10 12  1  0
 12 13  1  0
 13 14  1  0
 14 15  2  0
 15 16  1  0
 16 17  1  0
 16 18  2  0
 18 19  1  0
 19 20  1  0
 20 21  2  0
 21 22  1  0
 22 23  2  0
 23 24  1  0
 24 25  2  0
 19 26  2  0
 26 27  1  0
 27 28  3  0
  8 29  1  0
 29 30  2  0
 30  5  1  0
 26 14  1  0
 25 20  1  0
M  END
>  <Binding energies>  (33) 
[-9.65]

>  <Ligand effiencies>  (33) 
[-0.31129032258064515]

>  <Interactions>  (33) 
["V-B:PRO:540:CB:9857, V-A:PRO:540:N:4884, V-B:TYR:539:C:9839, V-A:TYR:539:CE1:4875, V-B:ILE:538:C:9830, H-A:TYR:539:N:4870, V-B:TYR:531:CE2:9765, V-B:TYR:539:CD1:9845, V-A:TYR:539:CD1:4873, V-B:ILE:538:CA:9832, V-B:PRO:540:N:9856, V-B:PRO:540:CA:9855, V-B:TYR:539:CD2:9846, V-B:TYR:539:CE2:9848, V-B:TYR:539:CE1:9847, V-B:TYR:531:CZ:9766, V-B:TYR:539:CZ:9849, V-A:TYR:539:C:4867, V-A:TYR:539:CG:4872, V-B:LEU:363:CD1:8161, V-B:PRO:540:CD:9859, V-B:ILE:538:CD1:9837, V-B:ILE:538:CG2:9835, V-A:ASP:366:CG:3213, V-A:LEU:475:CD2:4259, V-B:TYR:539:CG:9844, V-A:PRO:540:CB:4885, V-A:ASP:366:CB:3212, H-A:TYR:531:OH:4795, V-B:ALA:541:CB:9864, H-B:TYR:539:OH:9850, H-A:ASP:366:OD1:3214"]

$$$$
3ch_Grossjean_2025
     RDKit          3D

 32 34  0  0  0  0  0  0  0  0999 V2000
  125.9960  130.3370   55.4770 C   0  0  0  0  0  0  0  0  0  0  0  0
  127.1440  130.5110   54.6540 O   0  0  0  0  0  0  0  0  0  0  0  0
  128.4030  130.4950   55.2260 C   0  0  0  0  0  0  0  0  0  0  0  0
  128.9690  129.3700   55.8470 C   0  0  0  0  0  0  0  0  0  0  0  0
  130.2580  129.4250   56.3990 C   0  0  0  0  0  0  0  0  0  0  0  0
  130.9090  128.3510   57.0340 N   0  0  0  0  0  0  0  0  0  0  0  0
  131.2870  127.1530   56.5350 C   0  0  0  0  0  0  0  0  0  0  0  0
  131.1280  126.7820   55.3720 O   0  0  0  0  0  0  0  0  0  0  0  0
  132.0040  126.2270   57.5150 C   0  0  0  0  0  0  0  0  0  0  0  0
  131.1940  126.1880   59.1420 S   0  0  0  0  0  0  0  0  0  0  0  0
  130.1320  124.7610   59.1310 C   0  0  0  0  0  0  0  0  0  0  0  0
  130.5110  123.7870   59.9960 N   0  0  0  0  0  0  0  0  0  0  0  0
  129.7720  122.6560   60.0580 C   0  0  0  0  0  0  0  0  0  0  0  0
  130.2550  121.6070   61.0410 C   0  0  0  0  0  0  0  0  0  0  0  0
  128.6420  122.4520   59.2710 C   0  0  0  0  0  0  0  0  0  0  0  0
  128.2300  123.4500   58.3760 C   0  0  0  0  0  0  0  0  0  0  0  0
  127.0170  123.1840   57.5440 C   0  0  0  0  0  0  0  0  0  0  0  0
  127.1550  122.7780   56.2110 C   0  0  0  0  0  0  0  0  0  0  0  0
  126.0290  122.5350   55.4270 C   0  0  0  0  0  0  0  0  0  0  0  0
  124.7600  122.7030   55.9740 C   0  0  0  0  0  0  0  0  0  0  0  0
  124.6060  123.1130   57.2950 C   0  0  0  0  0  0  0  0  0  0  0  0
  125.7340  123.3550   58.0760 C   0  0  0  0  0  0  0  0  0  0  0  0
  128.9830  124.6510   58.3130 C   0  0  0  0  0  0  0  0  0  0  0  0
  128.5450  125.7640   57.4660 C   0  0  0  0  0  0  0  0  0  0  0  0
  128.2010  126.6430   56.7970 N   0  0  0  0  0  0  0  0  0  0  0  0
  130.9700  130.6240   56.3420 C   0  0  0  0  0  0  0  0  0  0  0  0
  130.4250  131.7630   55.7300 C   0  0  0  0  0  0  0  0  0  0  0  0
  131.0820  132.9780   55.6340 O   0  0  0  0  0  0  0  0  0  0  0  0
  132.4810  132.9990   55.3730 C   0  0  0  0  0  0  0  0  0  0  0  0
  129.1400  131.6860   55.1780 C   0  0  0  0  0  0  0  0  0  0  0  0
  128.6020  132.7890   54.5590 O   0  0  0  0  0  0  0  0  0  0  0  0
  128.7160  132.7730   53.1430 C   0  0  0  0  0  0  0  0  0  0  0  0
  1  2  1  0
  2  3  1  0
  3  4  2  0
  4  5  1  0
  5  6  1  0
  6  7  1  0
  7  8  2  0
  7  9  1  0
  9 10  1  0
 10 11  1  0
 11 12  2  0
 12 13  1  0
 13 14  1  0
 13 15  2  0
 15 16  1  0
 16 17  1  0
 17 18  2  0
 18 19  1  0
 19 20  2  0
 20 21  1  0
 21 22  2  0
 16 23  2  0
 23 24  1  0
 24 25  3  0
  5 26  2  0
 26 27  1  0
 27 28  1  0
 28 29  1  0
 27 30  2  0
 30 31  1  0
 31 32  1  0
 30  3  1  0
 23 11  1  0
 22 17  1  0
M  END
>  <Binding energies>  (34) 
[-8.97]

>  <Ligand effiencies>  (34) 
[-0.27181818181818185]

>  <Interactions>  (34) 
["V-B:PRO:540:CB:9857, V-A:PRO:540:N:4884, V-B:TYR:539:C:9839, V-B:ILE:538:C:9830, H-A:TYR:539:N:4870, V-B:TYR:531:CE2:9765, V-B:TYR:539:CD1:9845, V-B:ILE:538:CA:9832, V-B:PRO:540:N:9856, V-B:PRO:540:CA:9855, V-A:ILE:538:CA:4860, V-B:TYR:539:CD2:9846, V-A:TYR:539:CZ:4877, V-A:ILE:538:CG2:4863, V-B:MET:535:CE:9807, H-B:LYS:534:NZ:9795, V-B:TYR:539:CE2:9848, V-B:TYR:539:CE1:9847, V-B:TYR:531:CZ:9766, V-A:VAL:537:C:4850, V-B:PRO:540:CG:9858, V-B:LEU:363:CD1:8161, V-A:TYR:539:CD2:4874, V-B:PRO:540:CD:9859, V-B:ILE:538:CD1:9837, V-A:TYR:539:CE2:4876, V-B:ILE:538:CG2:9835, V-A:ASP:366:CG:3213, V-A:ILE:538:CB:4862, V-B:TYR:531:CE1:9764, H-B:TYR:531:OH:9767, V-A:PRO:540:CG:4886, V-A:PRO:540:CB:4885, V-A:ASP:366:CB:3212, H-A:TYR:531:OH:4795, V-A:PRO:540:CD:4887, V-A:LEU:363:CD1:3189, H-B:TYR:539:OH:9850, H-A:ASP:366:OD1:3214"]

$$$$
3ci_Grossjean_2025
     RDKit          3D

 25 27  0  0  0  0  0  0  0  0999 V2000
  128.4680  132.6340   60.2010 C   0  0  0  0  0  0  0  0  0  0  0  0
  128.0810  131.8420   58.9670 C   0  0  0  0  0  0  0  0  0  0  0  0
  128.6520  132.0990   57.7240 C   0  0  0  0  0  0  0  0  0  0  0  0
  128.2730  131.3280   56.6150 C   0  0  0  0  0  0  0  0  0  0  0  0
  128.9240  131.6290   55.3050 C   0  0  0  0  0  0  0  0  0  0  0  0
  130.2730  131.3230   55.0870 C   0  0  0  0  0  0  0  0  0  0  0  0
  130.8770  131.6140   53.8670 C   0  0  0  0  0  0  0  0  0  0  0  0
  130.1330  132.2190   52.8580 C   0  0  0  0  0  0  0  0  0  0  0  0
  128.7930  132.5380   53.0600 C   0  0  0  0  0  0  0  0  0  0  0  0
  128.1930  132.2460   54.2820 C   0  0  0  0  0  0  0  0  0  0  0  0
  127.3020  130.3110   56.8010 C   0  0  0  0  0  0  0  0  0  0  0  0
  126.8350  129.5020   55.6700 C   0  0  0  0  0  0  0  0  0  0  0  0
  126.4690  128.8640   54.7760 N   0  0  0  0  0  0  0  0  0  0  0  0
  126.7760  130.1140   58.1010 C   0  0  0  0  0  0  0  0  0  0  0  0
  125.5640  128.8470   58.4530 S   0  0  0  0  0  0  0  0  0  0  0  0
  126.4030  127.3690   59.1130 C   0  0  0  0  0  0  0  0  0  0  0  0
  126.5170  126.2290   58.0940 C   0  0  0  0  0  0  0  0  0  0  0  0
  127.2390  126.3740   57.1060 O   0  0  0  0  0  0  0  0  0  0  0  0
  125.7810  125.1270   58.3630 N   0  0  0  0  0  0  0  0  0  0  0  0
  125.7260  123.9530   57.6240 C   0  0  0  0  0  0  0  0  0  0  0  0
  124.5320  123.3970   57.1690 C   0  0  0  0  0  0  0  0  0  0  0  0
  124.9030  122.2560   56.4940 C   0  0  0  0  0  0  0  0  0  0  0  0
  126.2510  122.1330   56.5400 O   0  0  0  0  0  0  0  0  0  0  0  0
  126.7610  123.2140   57.2610 N   0  0  0  0  0  0  0  0  0  0  0  0
  127.1580  130.8740   59.1580 N   0  0  0  0  0  0  0  0  0  0  0  0
  1  2  1  0
  2  3  2  0
  3  4  1  0
  4  5  1  0
  5  6  2  0
  6  7  1  0
  7  8  2  0
  8  9  1  0
  9 10  2  0
  4 11  2  0
 11 12  1  0
 12 13  3  0
 11 14  1  0
 14 15  1  0
 15 16  1  0
 16 17  1  0
 17 18  2  0
 17 19  1  0
 19 20  1  0
 20 21  1  0
 21 22  2  0
 22 23  1  0
 23 24  1  0
 14 25  2  0
 25  2  1  0
 10  5  1  0
 24 20  2  0
M  END
>  <Binding energies>  (35) 
[-8.68]

>  <Ligand effiencies>  (35) 
[-0.33384615384615385]

>  <Interactions>  (35) 
["V-B:PRO:540:CB:9857, V-A:MET:535:CG:4833, V-B:TYR:531:CE2:9765, V-B:ASP:366:CG:8185, V-A:TYR:539:CD1:4873, V-B:PRO:540:N:9856, V-A:TYR:531:CZ:4794, V-A:ILE:538:CA:4860, V-A:TYR:539:CZ:4877, V-A:ILE:538:CG2:4863, H-B:LYS:534:NZ:9795, V-B:TYR:531:CZ:9766, V-A:TYR:539:C:4867, V-B:PRO:540:CG:9858, V-B:LEU:363:CD1:8161, V-A:TYR:539:CD2:4874, V-B:PRO:540:CD:9859, V-B:ILE:538:CD1:9837, V-A:TYR:539:CE2:4876, V-B:ILE:538:CG2:9835, V-A:MET:535:CB:4832, V-A:ILE:538:CB:4862, V-B:TYR:531:CE1:9764, H-B:TYR:531:OH:9767, V-A:TYR:531:CE2:4793, H-B:TYR:539:N:9842, H-B:ASP:366:OD2:8187"]

$$$$
3ck_Grossjean_2025
     RDKit          3D

 30 31  0  0  0  0  0  0  0  0999 V2000
  132.4020  130.0090   57.9750 C   0  0  0  0  0  0  0  0  0  0  0  0
  131.4580  130.4510   57.0130 O   0  0  0  0  0  0  0  0  0  0  0  0
  131.0090  131.7820   57.2300 C   0  0  0  0  0  0  0  0  0  0  0  0
  131.0800  132.5680   55.9150 C   0  0  0  0  0  0  0  0  0  0  0  0
  129.7850  133.0560   55.5880 O   0  0  0  0  0  0  0  0  0  0  0  0
  129.3900  132.7930   54.2480 C   0  0  0  0  0  0  0  0  0  0  0  0
  128.2380  131.7800   54.2550 C   0  0  0  0  0  0  0  0  0  0  0  0
  128.7830  130.4820   54.0710 O   0  0  0  0  0  0  0  0  0  0  0  0
  129.0480  129.7710   55.2710 C   0  0  0  0  0  0  0  0  0  0  0  0
  129.8770  128.5120   54.9520 C   0  0  0  0  0  0  0  0  0  0  0  0
  130.6150  127.9850   56.1040 N   0  0  0  0  0  0  0  0  0  0  0  0
  131.3980  126.8910   56.0990 C   0  0  0  0  0  0  0  0  0  0  0  0
  131.6040  126.2120   55.0910 O   0  0  0  0  0  0  0  0  0  0  0  0
  132.0400  126.5310   57.4490 C   0  0  0  0  0  0  0  0  0  0  0  0
  130.9150  126.5710   58.8860 S   0  0  0  0  0  0  0  0  0  0  0  0
  129.9860  125.0450   58.9450 C   0  0  0  0  0  0  0  0  0  0  0  0
  130.4640  124.1010   59.7940 N   0  0  0  0  0  0  0  0  0  0  0  0
  129.8130  122.9200   59.8870 C   0  0  0  0  0  0  0  0  0  0  0  0
  130.4070  121.9140   60.8540 C   0  0  0  0  0  0  0  0  0  0  0  0
  128.6710  122.6330   59.1430 C   0  0  0  0  0  0  0  0  0  0  0  0
  128.1630  123.5900   58.2550 C   0  0  0  0  0  0  0  0  0  0  0  0
  126.9500  123.2300   57.4620 C   0  0  0  0  0  0  0  0  0  0  0  0
  125.6830  123.2750   58.0550 C   0  0  0  0  0  0  0  0  0  0  0  0
  124.5480  122.9310   57.3230 C   0  0  0  0  0  0  0  0  0  0  0  0
  124.6790  122.5330   55.9960 C   0  0  0  0  0  0  0  0  0  0  0  0
  125.9340  122.4740   55.3950 C   0  0  0  0  0  0  0  0  0  0  0  0
  127.0650  122.8190   56.1280 C   0  0  0  0  0  0  0  0  0  0  0  0
  128.8300  124.8390   58.1580 C   0  0  0  0  0  0  0  0  0  0  0  0
  128.3190  125.8950   57.2760 C   0  0  0  0  0  0  0  0  0  0  0  0
  127.9160  126.7280   56.5800 N   0  0  0  0  0  0  0  0  0  0  0  0
  1  2  1  0
  2  3  1  0
  3  4  1  0
  4  5  1  0
  5  6  1  0
  6  7  1  0
  7  8  1  0
  8  9  1  0
  9 10  1  0
 10 11  1  0
 11 12  1  0
 12 13  2  0
 12 14  1  0
 14 15  1  0
 15 16  1  0
 16 17  2  0
 17 18  1  0
 18 19  1  0
 18 20  2  0
 20 21  1  0
 21 22  1  0
 22 23  2  0
 23 24  1  0
 24 25  2  0
 25 26  1  0
 26 27  2  0
 21 28  2  0
 28 29  1  0
 29 30  3  0
 28 16  1  0
 27 22  1  0
M  END
>  <Binding energies>  (36) 
[-6.97]

>  <Ligand effiencies>  (36) 
[-0.22483870967741934]

>  <Interactions>  (36) 
["V-B:PRO:540:CB:9857, V-A:PRO:540:N:4884, V-B:TYR:539:C:9839, V-B:ILE:538:C:9830, H-A:TYR:539:N:4870, V-B:TYR:531:CE2:9765, V-B:TYR:539:CD1:9845, V-B:ILE:538:CA:9832, V-B:PRO:540:N:9856, V-B:PRO:540:CA:9855, V-A:MET:535:CE:4835, V-A:ILE:538:CA:4860, V-B:TYR:539:CD2:9846, V-A:TYR:539:CZ:4877, V-A:PRO:540:CA:4883, V-A:ILE:538:CG2:4863, V-B:MET:535:CE:9807, H-B:LYS:534:NZ:9795, V-B:TYR:539:CE2:9848, V-B:TYR:539:CE1:9847, V-A:TYR:539:C:4867, V-B:PRO:540:CG:9858, V-B:LEU:363:CD1:8161, V-A:TYR:539:CD2:4874, V-B:PRO:540:CD:9859, V-B:ILE:538:CD1:9837, V-A:TYR:539:CE2:4876, V-B:ILE:538:CG2:9835, V-A:ASP:366:CG:3213, V-A:ILE:538:CB:4862, H-B:TYR:531:OH:9767, V-A:PRO:540:CB:4885, V-A:ASP:366:CB:3212, H-A:TYR:531:OH:4795, V-A:PRO:540:CD:4887, V-B:ILE:538:CB:9834, V-A:ILE:538:C:4858, H-B:TYR:539:OH:9850"]

$$$$
4aa_Grossjean_2025
     RDKit          3D

 26 28  0  0  0  0  0  0  0  0999 V2000
  131.9960  132.8150   55.7480 C   0  0  0  0  0  0  0  0  0  0  0  0
  131.2270  132.2020   54.5730 C   0  0  0  0  0  0  0  0  0  0  0  0
  130.0870  133.0020   54.2860 O   0  0  0  0  0  0  0  0  0  0  0  0
  128.8600  132.4430   54.1310 C   0  0  0  0  0  0  0  0  0  0  0  0
  128.2940  132.3330   53.0380 O   0  0  0  0  0  0  0  0  0  0  0  0
  128.2540  131.9750   55.4230 C   0  0  0  0  0  0  0  0  0  0  0  0
  128.6580  132.5730   56.6240 C   0  0  0  0  0  0  0  0  0  0  0  0
  128.1190  132.1580   57.8390 C   0  0  0  0  0  0  0  0  0  0  0  0
  127.1590  131.1460   57.8770 C   0  0  0  0  0  0  0  0  0  0  0  0
  126.6870  130.7990   59.1580 N   0  0  0  0  0  0  0  0  0  0  0  0
  125.4360  130.4830   59.5720 C   0  0  0  0  0  0  0  0  0  0  0  0
  124.4430  130.4940   58.8440 O   0  0  0  0  0  0  0  0  0  0  0  0
  125.3160  130.1390   60.9900 C   0  0  0  0  0  0  0  0  0  0  0  0
  123.7930  130.4040   61.8440 S   0  0  0  0  0  0  0  0  0  0  0  0
  124.4810  129.8240   63.3450 C   0  0  0  0  0  0  0  0  0  0  0  0
  123.7690  129.7690   64.4720 N   0  0  0  0  0  0  0  0  0  0  0  0
  124.4220  129.3050   65.5650 C   0  0  0  0  0  0  0  0  0  0  0  0
  123.5970  129.2550   66.8380 C   0  0  0  0  0  0  0  0  0  0  0  0
  125.7540  128.8950   65.5570 C   0  0  0  0  0  0  0  0  0  0  0  0
  126.4970  128.9530   64.3720 C   0  0  0  0  0  0  0  0  0  0  0  0
  127.9470  128.4950   64.4130 C   0  0  0  0  0  0  0  0  0  0  0  0
  125.8480  129.4390   63.2050 C   0  0  0  0  0  0  0  0  0  0  0  0
  126.3000  129.6330   61.8530 C   0  0  0  0  0  0  0  0  0  0  0  0
  127.5820  129.3390   61.4620 N   0  0  0  0  0  0  0  0  0  0  0  0
  126.7520  130.5380   56.6810 C   0  0  0  0  0  0  0  0  0  0  0  0
  127.2950  130.9510   55.4670 C   0  0  0  0  0  0  0  0  0  0  0  0
  1  2  1  0
  2  3  1  0
  3  4  1  0
  4  5  2  0
  4  6  1  0
  6  7  2  0
  7  8  1  0
  8  9  2  0
  9 10  1  0
 10 11  1  0
 11 12  2  0
 11 13  1  0
 13 14  1  0
 14 15  1  0
 15 16  2  0
 16 17  1  0
 17 18  1  0
 17 19  2  0
 19 20  1  0
 20 21  1  0
 20 22  2  0
 22 23  1  0
 23 24  1  0
  9 25  1  0
 25 26  2  0
 26  6  1  0
 23 13  2  0
 22 15  1  0
M  END
>  <Binding energies>  (37) 
[-7.94]

>  <Ligand effiencies>  (37) 
[-0.2737931034482759]

>  <Interactions>  (37) 
["V-A:PRO:540:N:4884, V-A:TYR:539:CE1:4875, H-A:TYR:539:N:4870, V-B:ASP:366:CG:8185, V-A:TYR:539:CD1:4873, V-A:ILE:538:CA:4860, V-A:TYR:539:CZ:4877, V-A:PRO:540:CA:4883, V-A:ILE:538:CG2:4863, H-B:LYS:534:NZ:9795, V-A:TYR:539:C:4867, V-A:TYR:539:CG:4872, V-A:TYR:539:CD2:4874, V-A:TYR:539:CE2:4876, V-A:GLU:543:CG:4907, V-B:ARG:545:CZ:9898, V-A:GLU:543:CD:4908, V-A:ILE:538:CB:4862, V-A:PRO:540:CG:4886, V-A:PRO:540:CB:4885, V-A:PRO:540:CD:4887, V-A:LEU:363:CD1:3189, V-B:GLU:543:CD:9880, H-A:GLU:543:OE1:4909, V-B:GLY:453:CA:9016, H-B:GLY:454:N:9022, V-B:HIS:456:CE1:9042, V-B:ARG:545:CD:9895, V-B:ARG:545:CG:9894, H-B:TYR:484:OH:9320, V-B:ARG:545:CB:9893, H-B:ARG:545:NH1:9899"]

$$$$
4ab_Grossjean_2025
     RDKit          3D

 25 27  0  0  0  0  0  0  0  0999 V2000
  131.2110  132.2580   54.8010 C   0  0  0  0  0  0  0  0  0  0  0  0
  130.0300  133.0120   54.5650 O   0  0  0  0  0  0  0  0  0  0  0  0
  128.8300  132.3990   54.4010 C   0  0  0  0  0  0  0  0  0  0  0  0
  128.2810  132.2600   53.3040 O   0  0  0  0  0  0  0  0  0  0  0  0
  128.2330  131.9140   55.6900 C   0  0  0  0  0  0  0  0  0  0  0  0
  128.6420  132.4980   56.8960 C   0  0  0  0  0  0  0  0  0  0  0  0
  128.1070  132.0680   58.1080 C   0  0  0  0  0  0  0  0  0  0  0  0
  127.1500  131.0540   58.1390 C   0  0  0  0  0  0  0  0  0  0  0  0
  126.6840  130.6940   59.4180 N   0  0  0  0  0  0  0  0  0  0  0  0
  125.5110  130.1270   59.7930 C   0  0  0  0  0  0  0  0  0  0  0  0
  124.5930  129.8580   59.0180 O   0  0  0  0  0  0  0  0  0  0  0  0
  125.3760  129.8620   61.2260 C   0  0  0  0  0  0  0  0  0  0  0  0
  123.8300  130.1200   62.0380 S   0  0  0  0  0  0  0  0  0  0  0  0
  124.5070  129.6530   63.5810 C   0  0  0  0  0  0  0  0  0  0  0  0
  123.7780  129.6390   64.6970 N   0  0  0  0  0  0  0  0  0  0  0  0
  124.4250  129.2600   65.8260 C   0  0  0  0  0  0  0  0  0  0  0  0
  123.5780  129.2560   67.0860 C   0  0  0  0  0  0  0  0  0  0  0  0
  125.7680  128.8950   65.8650 C   0  0  0  0  0  0  0  0  0  0  0  0
  126.5310  128.9110   64.6910 C   0  0  0  0  0  0  0  0  0  0  0  0
  127.9950  128.5050   64.7840 C   0  0  0  0  0  0  0  0  0  0  0  0
  125.8890  129.3070   63.4870 C   0  0  0  0  0  0  0  0  0  0  0  0
  126.3600  129.4410   62.1350 C   0  0  0  0  0  0  0  0  0  0  0  0
  127.6590  129.1730   61.7830 N   0  0  0  0  0  0  0  0  0  0  0  0
  126.7380  130.4600   56.9370 C   0  0  0  0  0  0  0  0  0  0  0  0
  127.2750  130.8890   55.7260 C   0  0  0  0  0  0  0  0  0  0  0  0
  1  2  1  0
  2  3  1  0
  3  4  2  0
  3  5  1  0
  5  6  2  0
  6  7  1  0
  7  8  2  0
  8  9  1  0
  9 10  1  0
 10 11  2  0
 10 12  1  0
 12 13  1  0
 13 14  1  0
 14 15  2  0
 15 16  1  0
 16 17  1  0
 16 18  2  0
 18 19  1  0
 19 20  1  0
 19 21  2  0
 21 22  1  0
 22 23  1  0
  8 24  1  0
 24 25  2  0
 25  5  1  0
 22 12  2  0
 21 14  1  0
M  END
>  <Binding energies>  (38) 
[-7.58]

>  <Ligand effiencies>  (38) 
[-0.27071428571428574]

>  <Interactions>  (38) 
["V-A:TYR:539:CE1:4875, H-A:TYR:539:N:4870, V-B:ASP:366:CG:8185, V-A:TYR:539:CD1:4873, V-A:ILE:538:CA:4860, V-A:TYR:539:CZ:4877, V-A:ILE:538:CG2:4863, H-B:LYS:534:NZ:9795, V-A:TYR:539:C:4867, V-A:TYR:539:CG:4872, V-A:TYR:539:CD2:4874, V-A:TYR:539:CE2:4876, V-A:GLU:543:CG:4907, V-B:ARG:545:CZ:9898, V-A:GLU:543:CD:4908, V-A:ILE:538:CB:4862, V-B:TYR:484:CZ:9319, V-B:GLU:543:CD:9880, H-A:GLU:543:OE1:4909, H-B:GLY:454:N:9022, V-B:HIS:456:CE1:9042, V-B:ARG:545:CD:9895, V-B:ARG:545:CG:9894, H-B:TYR:484:OH:9320, V-B:ARG:545:CB:9893, V-B:ILE:455:C:9024, H-B:ARG:545:NH1:9899, H-B:ARG:545:NH2:9900, H-B:ARG:545:NE:9896"]

$$$$
4ac_Grossjean_2025
     RDKit          3D

 23 25  0  0  0  0  0  0  0  0999 V2000
  124.0940  129.6300   66.8580 C   0  0  0  0  0  0  0  0  0  0  0  0
  123.8300  129.3740   65.4830 O   0  0  0  0  0  0  0  0  0  0  0  0
  124.8110  129.6380   64.5470 C   0  0  0  0  0  0  0  0  0  0  0  0
  124.4190  130.3670   63.4240 C   0  0  0  0  0  0  0  0  0  0  0  0
  125.3390  130.6820   62.4270 C   0  0  0  0  0  0  0  0  0  0  0  0
  126.6690  130.2780   62.5460 C   0  0  0  0  0  0  0  0  0  0  0  0
  127.5230  130.6300   61.4840 N   0  0  0  0  0  0  0  0  0  0  0  0
  128.6750  131.3430   61.5110 C   0  0  0  0  0  0  0  0  0  0  0  0
  129.1510  131.8450   62.5310 O   0  0  0  0  0  0  0  0  0  0  0  0
  129.3460  131.5000   60.2180 C   0  0  0  0  0  0  0  0  0  0  0  0
  128.4680  132.1450   58.8300 S   0  0  0  0  0  0  0  0  0  0  0  0
  129.8810  132.0000   57.8090 C   0  0  0  0  0  0  0  0  0  0  0  0
  129.8640  132.3590   56.5250 N   0  0  0  0  0  0  0  0  0  0  0  0
  131.0250  132.1960   55.8460 C   0  0  0  0  0  0  0  0  0  0  0  0
  130.9850  132.6100   54.3870 C   0  0  0  0  0  0  0  0  0  0  0  0
  132.1910  131.6860   56.4150 C   0  0  0  0  0  0  0  0  0  0  0  0
  132.2060  131.3100   57.7630 C   0  0  0  0  0  0  0  0  0  0  0  0
  133.5010  130.7590   58.3380 C   0  0  0  0  0  0  0  0  0  0  0  0
  131.0060  131.4690   58.5080 C   0  0  0  0  0  0  0  0  0  0  0  0
  130.6740  131.1940   59.8800 C   0  0  0  0  0  0  0  0  0  0  0  0
  131.5870  130.6780   60.7650 N   0  0  0  0  0  0  0  0  0  0  0  0
  127.0680  129.5330   63.6660 C   0  0  0  0  0  0  0  0  0  0  0  0
  126.1450  129.2190   64.6600 C   0  0  0  0  0  0  0  0  0  0  0  0
  1  2  1  0
  2  3  1  0
  3  4  2  0
  4  5  1  0
  5  6  2  0
  6  7  1  0
  7  8  1  0
  8  9  2  0
  8 10  1  0
 10 11  1  0
 11 12  1  0
 12 13  2  0
 13 14  1  0
 14 15  1  0
 14 16  2  0
 16 17  1  0
 17 18  1  0
 17 19  2  0
 19 20  1  0
 20 21  1  0
  6 22  1  0
 22 23  2  0
 23  3  1  0
 20 10  2  0
 19 12  1  0
M  END
>  <Binding energies>  (39) 
[-7.17]

>  <Ligand effiencies>  (39) 
[-0.27576923076923077]

>  <Interactions>  (39) 
["V-A:PRO:540:N:4884, V-A:TYR:539:CD1:4873, V-A:ILE:538:CA:4860, V-A:PRO:540:CA:4883, V-A:ILE:538:CG2:4863, V-A:TYR:539:C:4867, V-A:ASP:366:CG:3213, V-B:ARG:545:CZ:9898, V-A:ILE:538:CB:4862, V-B:TYR:484:CZ:9319, V-A:PRO:540:CB:4885, V-A:ASP:366:CB:3212, V-A:LEU:363:CA:3185, V-A:LEU:363:CD1:3189, H-A:GLU:543:OE1:4909, H-B:GLY:454:N:9022, V-B:HIS:456:CE1:9042, V-B:ARG:545:CD:9895, V-B:ARG:545:CG:9894, H-B:TYR:484:OH:9320, V-B:TYR:484:CE1:9317, H-B:ARG:545:NH1:9899, H-B:ARG:545:NE:9896, H-A:ASP:366:OD1:3214"]

$$$$
4ad_Grossjean_2025
     RDKit          3D

 21 23  0  0  0  0  0  0  0  0999 V2000
  130.4970  132.6260   54.5960 C   0  0  0  0  0  0  0  0  0  0  0  0
  130.7070  132.1850   56.0330 C   0  0  0  0  0  0  0  0  0  0  0  0
  131.9390  131.6920   56.4590 C   0  0  0  0  0  0  0  0  0  0  0  0
  132.1090  131.2890   57.7900 C   0  0  0  0  0  0  0  0  0  0  0  0
  133.4700  130.7560   58.2080 C   0  0  0  0  0  0  0  0  0  0  0  0
  130.9940  131.4020   58.6640 C   0  0  0  0  0  0  0  0  0  0  0  0
  130.8190  131.0900   60.0570 C   0  0  0  0  0  0  0  0  0  0  0  0
  131.8350  130.5810   60.8260 N   0  0  0  0  0  0  0  0  0  0  0  0
  129.5280  131.3540   60.5430 C   0  0  0  0  0  0  0  0  0  0  0  0
  129.0020  131.1420   61.8930 C   0  0  0  0  0  0  0  0  0  0  0  0
  129.4760  131.7500   62.8540 O   0  0  0  0  0  0  0  0  0  0  0  0
  127.9770  130.2590   61.9840 N   0  0  0  0  0  0  0  0  0  0  0  0
  127.2850  129.8050   63.1240 C   0  0  0  0  0  0  0  0  0  0  0  0
  125.8910  129.7800   63.0220 C   0  0  0  0  0  0  0  0  0  0  0  0
  125.1170  129.3380   64.0920 C   0  0  0  0  0  0  0  0  0  0  0  0
  125.7380  128.9120   65.2630 C   0  0  0  0  0  0  0  0  0  0  0  0
  127.1270  128.9180   65.3720 C   0  0  0  0  0  0  0  0  0  0  0  0
  127.9030  129.3610   64.3040 C   0  0  0  0  0  0  0  0  0  0  0  0
  128.4910  132.0070   59.2740 S   0  0  0  0  0  0  0  0  0  0  0  0
  129.7880  131.9210   58.1040 C   0  0  0  0  0  0  0  0  0  0  0  0
  129.6240  132.3070   56.8370 N   0  0  0  0  0  0  0  0  0  0  0  0
  1  2  1  0
  2  3  2  0
  3  4  1  0
  4  5  1  0
  4  6  2  0
  6  7  1  0
  7  8  1  0
  7  9  2  0
  9 10  1  0
 10 11  2  0
 10 12  1  0
 12 13  1  0
 13 14  2  0
 14 15  1  0
 15 16  2  0
 16 17  1  0
 17 18  2  0
  9 19  1  0
 19 20  1  0
 20 21  2  0
 21  2  1  0
 20  6  1  0
 18 13  1  0
M  END
>  <Binding energies>  (40) 
[-6.9]

>  <Ligand effiencies>  (40) 
[-0.28750000000000003]

>  <Interactions>  (40) 
["V-A:PRO:540:N:4884, V-A:ILE:538:CA:4860, V-A:PRO:540:CA:4883, V-A:ILE:538:CG2:4863, V-A:TYR:539:C:4867, V-A:ASP:366:CG:3213, V-A:GLU:543:CG:4907, V-B:ARG:545:CZ:9898, V-A:GLU:543:CD:4908, V-A:ILE:538:CB:4862, V-A:PRO:540:CB:4885, V-A:ASP:366:CB:3212, V-A:LEU:363:CA:3185, V-A:LEU:363:CD1:3189, H-A:GLU:543:OE1:4909, V-A:ILE:538:C:4858, H-A:ASP:366:OD1:3214"]

$$$$
4ae_Grossjean_2025
     RDKit          3D

 22 24  0  0  0  0  0  0  0  0999 V2000
  128.2440  128.8660   66.6950 C   0  0  0  0  0  0  0  0  0  0  0  0
  127.4330  129.1340   65.4430 C   0  0  0  0  0  0  0  0  0  0  0  0
  126.0510  128.9310   65.4100 C   0  0  0  0  0  0  0  0  0  0  0  0
  125.3700  129.1920   64.2200 C   0  0  0  0  0  0  0  0  0  0  0  0
  126.0800  129.6410   63.1040 C   0  0  0  0  0  0  0  0  0  0  0  0
  127.4620  129.8310   63.2080 C   0  0  0  0  0  0  0  0  0  0  0  0
  128.1230  130.2650   62.0460 N   0  0  0  0  0  0  0  0  0  0  0  0
  129.0810  131.2170   61.9210 C   0  0  0  0  0  0  0  0  0  0  0  0
  129.5220  131.8740   62.8650 O   0  0  0  0  0  0  0  0  0  0  0  0
  129.5760  131.4340   60.5600 C   0  0  0  0  0  0  0  0  0  0  0  0
  128.5170  132.1160   59.3250 S   0  0  0  0  0  0  0  0  0  0  0  0
  129.7740  132.0010   58.1150 C   0  0  0  0  0  0  0  0  0  0  0  0
  129.5780  132.3900   56.8550 N   0  0  0  0  0  0  0  0  0  0  0  0
  130.6310  132.2420   56.0150 C   0  0  0  0  0  0  0  0  0  0  0  0
  130.3840  132.6850   54.5840 C   0  0  0  0  0  0  0  0  0  0  0  0
  131.8650  131.7220   56.4030 C   0  0  0  0  0  0  0  0  0  0  0  0
  132.0670  131.3160   57.7270 C   0  0  0  0  0  0  0  0  0  0  0  0
  133.4290  130.7510   58.1020 C   0  0  0  0  0  0  0  0  0  0  0  0
  130.9840  131.4540   58.6370 C   0  0  0  0  0  0  0  0  0  0  0  0
  130.8450  131.1400   60.0340 C   0  0  0  0  0  0  0  0  0  0  0  0
  131.8700  130.6030   60.7700 N   0  0  0  0  0  0  0  0  0  0  0  0
  128.1350  129.5720   64.3670 N   0  0  0  0  0  0  0  0  0  0  0  0
  1  2  1  0
  2  3  2  0
  3  4  1  0
  4  5  2  0
  5  6  1  0
  6  7  1  0
  7  8  1  0
  8  9  2  0
  8 10  1  0
 10 11  1  0
 11 12  1  0
 12 13  2  0
 13 14  1  0
 14 15  1  0
 14 16  2  0
 16 17  1  0
 17 18  1  0
 17 19  2  0
 19 20  1  0
 20 21  1  0
  6 22  2  0
 22  2  1  0
 20 10  2  0
 19 12  1  0
M  END
>  <Binding energies>  (41) 
[-7.12]

>  <Ligand effiencies>  (41) 
[-0.2848]

>  <Interactions>  (41) 
["V-A:PRO:540:N:4884, H-A:ALA:541:N:4891, V-A:ILE:538:CA:4860, V-A:PRO:540:CA:4883, V-A:ILE:538:CG2:4863, V-A:TYR:539:C:4867, V-A:ASP:366:CG:3213, V-A:GLU:543:CG:4907, V-B:ARG:545:CZ:9898, V-A:GLU:543:CD:4908, V-A:ILE:538:CB:4862, V-A:PRO:540:CB:4885, V-A:ASP:366:CB:3212, V-A:LEU:363:CA:3185, V-A:LEU:363:CD1:3189, H-A:GLU:543:OE1:4909, V-B:HIS:456:CE1:9042, H-B:TYR:484:OH:9320, V-A:ILE:538:C:4858, V-A:GLU:543:CB:4906, H-A:ASP:366:OD1:3214"]

$$$$
4af_Grossjean_2025
     RDKit          3D

 21 23  0  0  0  0  0  0  0  0999 V2000
  130.2430  132.6350   54.6490 C   0  0  0  0  0  0  0  0  0  0  0  0
  130.4480  132.1730   56.0800 C   0  0  0  0  0  0  0  0  0  0  0  0
  131.6860  131.7000   56.5110 C   0  0  0  0  0  0  0  0  0  0  0  0
  131.8520  131.2770   57.8350 C   0  0  0  0  0  0  0  0  0  0  0  0
  133.2200  130.7670   58.2580 C   0  0  0  0  0  0  0  0  0  0  0  0
  130.7260  131.3490   58.7000 C   0  0  0  0  0  0  0  0  0  0  0  0
  130.5430  131.0040   60.0850 C   0  0  0  0  0  0  0  0  0  0  0  0
  131.5610  130.4980   60.8530 N   0  0  0  0  0  0  0  0  0  0  0  0
  129.2440  131.2350   60.5630 C   0  0  0  0  0  0  0  0  0  0  0  0
  128.7050  130.9720   61.8990 C   0  0  0  0  0  0  0  0  0  0  0  0
  129.3440  131.2830   62.9050 O   0  0  0  0  0  0  0  0  0  0  0  0
  127.4800  130.3930   61.9270 N   0  0  0  0  0  0  0  0  0  0  0  0
  126.7130  129.9720   63.0290 C   0  0  0  0  0  0  0  0  0  0  0  0
  127.1820  129.1850   64.0960 C   0  0  0  0  0  0  0  0  0  0  0  0
  126.3090  128.8210   65.1220 C   0  0  0  0  0  0  0  0  0  0  0  0
  124.9830  129.2500   65.0560 C   0  0  0  0  0  0  0  0  0  0  0  0
  124.5040  130.0030   64.0340 N   0  0  0  0  0  0  0  0  0  0  0  0
  125.3640  130.3480   63.0440 C   0  0  0  0  0  0  0  0  0  0  0  0
  128.2050  131.8880   59.2950 S   0  0  0  0  0  0  0  0  0  0  0  0
  129.5150  131.8520   58.1370 C   0  0  0  0  0  0  0  0  0  0  0  0
  129.3540  132.2570   56.8760 N   0  0  0  0  0  0  0  0  0  0  0  0
  1  2  1  0
  2  3  2  0
  3  4  1  0
  4  5  1  0
  4  6  2  0
  6  7  1  0
  7  8  1  0
  7  9  2  0
  9 10  1  0
 10 11  2  0
 10 12  1  0
 12 13  1  0
 13 14  2  0
 14 15  1  0
 15 16  2  0
 16 17  1  0
 17 18  2  0
  9 19  1  0
 19 20  1  0
 20 21  2  0
 21  2  1  0
 20  6  1  0
 18 13  1  0
M  END
>  <Binding energies>  (42) 
[-6.88]

>  <Ligand effiencies>  (42) 
[-0.2866666666666667]

>  <Interactions>  (42) 
["V-A:PRO:540:N:4884, V-A:ILE:538:CA:4860, V-A:PRO:540:CA:4883, V-A:ILE:538:CG2:4863, V-A:TYR:539:C:4867, V-A:ASP:366:CG:3213, V-B:ARG:545:CZ:9898, V-A:GLU:543:CD:4908, V-A:ILE:538:CB:4862, V-A:PRO:540:CB:4885, V-A:ASP:366:CB:3212, V-A:LEU:363:CA:3185, H-A:GLU:543:OE1:4909, H-B:GLY:454:N:9022, V-B:ARG:545:CD:9895, H-B:TYR:484:OH:9320, V-A:ILE:538:C:4858, H-A:ASP:366:OD1:3214"]

$$$$
4ag_Grossjean_2025
     RDKit          3D

 22 24  0  0  0  0  0  0  0  0999 V2000
  129.9910  132.6120   53.7790 C   0  0  0  0  0  0  0  0  0  0  0  0
  130.4600  132.2460   55.1750 C   0  0  0  0  0  0  0  0  0  0  0  0
  131.7060  131.6570   55.3810 C   0  0  0  0  0  0  0  0  0  0  0  0
  132.1200  131.3280   56.6770 C   0  0  0  0  0  0  0  0  0  0  0  0
  133.4890  130.6870   56.8510 C   0  0  0  0  0  0  0  0  0  0  0  0
  131.2320  131.6140   57.7490 C   0  0  0  0  0  0  0  0  0  0  0  0
  131.3320  131.4140   59.1690 C   0  0  0  0  0  0  0  0  0  0  0  0
  132.4370  130.8490   59.7550 N   0  0  0  0  0  0  0  0  0  0  0  0
  130.2050  131.8430   59.8840 C   0  0  0  0  0  0  0  0  0  0  0  0
  129.9740  131.8010   61.3280 C   0  0  0  0  0  0  0  0  0  0  0  0
  130.9100  131.8560   62.1300 O   0  0  0  0  0  0  0  0  0  0  0  0
  128.6890  131.6800   61.7220 N   0  0  0  0  0  0  0  0  0  0  0  0
  128.2270  131.6450   63.1080 C   0  0  0  0  0  0  0  0  0  0  0  0
  126.8970  130.9250   63.3000 C   0  0  0  0  0  0  0  0  0  0  0  0
  126.8560  129.7100   63.9890 C   0  0  0  0  0  0  0  0  0  0  0  0
  125.6390  129.0620   64.1860 C   0  0  0  0  0  0  0  0  0  0  0  0
  124.4650  129.6380   63.7040 C   0  0  0  0  0  0  0  0  0  0  0  0
  124.4960  130.8570   63.0310 C   0  0  0  0  0  0  0  0  0  0  0  0
  125.7130  131.5050   62.8340 C   0  0  0  0  0  0  0  0  0  0  0  0
  128.9840  132.5230   58.8080 S   0  0  0  0  0  0  0  0  0  0  0  0
  129.9860  132.2190   57.4060 C   0  0  0  0  0  0  0  0  0  0  0  0
  129.5890  132.5350   56.1720 N   0  0  0  0  0  0  0  0  0  0  0  0
  1  2  1  0
  2  3  2  0
  3  4  1  0
  4  5  1  0
  4  6  2  0
  6  7  1  0
  7  8  1  0
  7  9  2  0
  9 10  1  0
 10 11  2  0
 10 12  1  0
 12 13  1  0
 13 14  1  0
 14 15  2  0
 15 16  1  0
 16 17  2  0
 17 18  1  0
 18 19  2  0
  9 20  1  0
 20 21  1  0
 21 22  2  0
 22  2  1  0
 21  6  1  0
 19 14  1  0
M  END
>  <Binding energies>  (43) 
[-7.24]

>  <Ligand effiencies>  (43) 
[-0.2896]

>  <Interactions>  (43) 
["V-A:PRO:540:N:4884, H-A:TYR:539:N:4870, H-A:ALA:541:N:4891, V-A:TYR:531:CZ:4794, V-A:ILE:538:CA:4860, V-A:PRO:540:CA:4883, V-A:ILE:538:CG2:4863, V-A:TYR:539:C:4867, V-A:ASP:366:CG:3213, V-A:ALA:541:CB:4892, V-A:GLU:543:CG:4907, V-B:ARG:545:CZ:9898, V-A:ILE:538:CB:4862, V-B:GLY:454:CA:9021, V-A:PRO:540:CB:4885, V-A:ASP:366:CB:3212, V-A:LEU:363:CA:3185, V-A:LEU:363:CD1:3189, V-A:TYR:531:CE2:4793, V-A:PRO:540:C:4881, H-A:GLU:543:OE1:4909, V-A:ILE:538:C:4858, H-A:ASP:366:OD1:3214"]

$$$$
4ah_Grossjean_2025
     RDKit          3D

 28 30  0  0  0  0  0  0  0  0999 V2000
  129.7240  132.1780   59.2600 C   0  0  0  0  0  0  0  0  0  0  0  0
  129.8250  132.4760   57.8720 O   0  0  0  0  0  0  0  0  0  0  0  0
  128.8590  131.9990   57.0030 C   0  0  0  0  0  0  0  0  0  0  0  0
  127.7320  131.2670   57.4100 C   0  0  0  0  0  0  0  0  0  0  0  0
  126.7980  130.8160   56.4760 C   0  0  0  0  0  0  0  0  0  0  0  0
  125.5560  130.0630   56.9410 C   0  0  0  0  0  0  0  0  0  0  0  0
  125.4830  129.8940   58.3920 N   0  0  0  0  0  0  0  0  0  0  0  0
  124.4180  130.2020   59.1630 C   0  0  0  0  0  0  0  0  0  0  0  0
  123.3900  130.7040   58.7050 O   0  0  0  0  0  0  0  0  0  0  0  0
  124.5670  129.9430   60.5940 C   0  0  0  0  0  0  0  0  0  0  0  0
  123.3010  130.4360   61.7200 S   0  0  0  0  0  0  0  0  0  0  0  0
  124.2240  129.8460   63.0850 C   0  0  0  0  0  0  0  0  0  0  0  0
  123.7670  129.9290   64.3350 N   0  0  0  0  0  0  0  0  0  0  0  0
  124.5790  129.4330   65.2990 C   0  0  0  0  0  0  0  0  0  0  0  0
  124.0420  129.5400   66.7150 C   0  0  0  0  0  0  0  0  0  0  0  0
  125.8240  128.8620   65.0460 C   0  0  0  0  0  0  0  0  0  0  0  0
  126.3030  128.7780   63.7340 C   0  0  0  0  0  0  0  0  0  0  0  0
  127.6680  128.1470   63.5080 C   0  0  0  0  0  0  0  0  0  0  0  0
  125.4790  129.2900   62.6940 C   0  0  0  0  0  0  0  0  0  0  0  0
  125.6550  129.3690   61.2690 C   0  0  0  0  0  0  0  0  0  0  0  0
  126.7850  128.9110   60.6410 N   0  0  0  0  0  0  0  0  0  0  0  0
  126.9730  131.1200   55.1260 C   0  0  0  0  0  0  0  0  0  0  0  0
  128.0930  131.8440   54.6890 C   0  0  0  0  0  0  0  0  0  0  0  0
  128.3370  132.1670   53.3670 O   0  0  0  0  0  0  0  0  0  0  0  0
  129.5690  131.7760   52.7690 C   0  0  0  0  0  0  0  0  0  0  0  0
  129.0320  132.2730   55.6390 C   0  0  0  0  0  0  0  0  0  0  0  0
  130.1240  132.9990   55.2280 O   0  0  0  0  0  0  0  0  0  0  0  0
  131.3680  132.3500   55.4530 C   0  0  0  0  0  0  0  0  0  0  0  0
  1  2  1  0
  2  3  1  0
  3  4  2  0
  4  5  1  0
  5  6  1  0
  6  7  1  0
  7  8  1  0
  8  9  2  0
  8 10  1  0
 10 11  1  0
 11 12  1  0
 12 13  2  0
 13 14  1  0
 14 15  1  0
 14 16  2  0
 16 17  1  0
 17 18  1  0
 17 19  2  0
 19 20  1  0
 20 21  1  0
  5 22  2  0
 22 23  1  0
 23 24  1  0
 24 25  1  0
 23 26  2  0
 26 27  1  0
 27 28  1  0
 26  3  1  0
 20 10  2  0
 19 12  1  0
M  END
>  <Binding energies>  (44) 
[-7.85]

>  <Ligand effiencies>  (44) 
[-0.2532258064516129]

>  <Interactions>  (44) 
["V-A:PRO:540:N:4884, V-A:TYR:539:CE1:4875, V-A:MET:535:CG:4833, H-A:TYR:539:N:4870, V-B:ASP:366:CG:8185, V-A:TYR:539:CD1:4873, V-A:TYR:539:CZ:4877, V-A:PRO:540:CA:4883, V-A:ILE:538:CG2:4863, H-B:LYS:534:NZ:9795, V-A:TYR:539:C:4867, V-A:TYR:539:CG:4872, V-A:TYR:539:CD2:4874, V-A:TYR:539:CE2:4876, V-B:ILE:369:CD1:8211, V-B:ARG:545:CZ:9898, V-A:MET:535:CB:4832, V-A:GLU:543:CD:4908, V-A:ILE:538:CB:4862, V-B:TYR:484:CZ:9319, V-B:ASP:366:CB:8184, V-B:ASP:366:CA:8182, V-B:GLU:543:CD:9880, H-B:GLY:454:N:9022, V-B:HIS:456:CE1:9042, V-B:ARG:545:CD:9895, V-B:ARG:545:CG:9894, H-B:TYR:484:OH:9320, V-B:TYR:484:CE1:9317, H-B:ARG:545:NH1:9899"]

$$$$
4ai_Grossjean_2025
     RDKit          3D

 20 22  0  0  0  0  0  0  0  0999 V2000
  123.3790  131.3160   76.3960 C   0  0  0  0  0  0  0  0  0  0  0  0
  124.7790  131.8580   76.1730 C   0  0  0  0  0  0  0  0  0  0  0  0
  125.5960  132.1980   77.2500 C   0  0  0  0  0  0  0  0  0  0  0  0
  126.8860  132.6910   77.0220 C   0  0  0  0  0  0  0  0  0  0  0  0
  127.7400  133.0460   78.2300 C   0  0  0  0  0  0  0  0  0  0  0  0
  127.3150  132.8260   75.6740 C   0  0  0  0  0  0  0  0  0  0  0  0
  128.5460  133.2880   75.0900 C   0  0  0  0  0  0  0  0  0  0  0  0
  129.6020  133.7190   75.8540 N   0  0  0  0  0  0  0  0  0  0  0  0
  128.5630  133.2470   73.6870 C   0  0  0  0  0  0  0  0  0  0  0  0
  129.6380  133.6480   72.7770 C   0  0  0  0  0  0  0  0  0  0  0  0
  130.3680  132.8040   72.2550 O   0  0  0  0  0  0  0  0  0  0  0  0
  129.7440  134.9830   72.5550 N   0  0  0  0  0  0  0  0  0  0  0  0
  130.6580  135.6330   71.7370 C   0  0  0  0  0  0  0  0  0  0  0  0
  131.5390  136.6090   72.2020 C   0  0  0  0  0  0  0  0  0  0  0  0
  132.2600  136.9980   71.0970 C   0  0  0  0  0  0  0  0  0  0  0  0
  131.8370  136.2920   70.0220 O   0  0  0  0  0  0  0  0  0  0  0  0
  130.8230  135.4290   70.4390 N   0  0  0  0  0  0  0  0  0  0  0  0
  127.0280  132.6540   73.0490 S   0  0  0  0  0  0  0  0  0  0  0  0
  126.3840  132.4440   74.6620 C   0  0  0  0  0  0  0  0  0  0  0  0
  125.1540  131.9750   74.8760 N   0  0  0  0  0  0  0  0  0  0  0  0
  1  2  1  0
  2  3  2  0
  3  4  1  0
  4  5  1  0
  4  6  2  0
  6  7  1  0
  7  8  1  0
  7  9  2  0
  9 10  1  0
 10 11  2  0
 10 12  1  0
 12 13  1  0
 13 14  1  0
 14 15  2  0
 15 16  1  0
 16 17  1  0
  9 18  1  0
 18 19  1  0
 19 20  2  0
 20  2  1  0
 19  6  1  0
 17 13  2  0
M  END
>  <Binding energies>  (45) 
[-6.66]

>  <Ligand effiencies>  (45) 
[-0.28956521739130436]

>  <Interactions>  (45) 
["V-B:LEU:472:CA:9200, V-B:LYS:471:CB:9189, V-B:VAL:457:C:9045, V-B:HIS:456:CB:9037, V-B:HIS:456:C:9033, H-A:LYS:547:NZ:4951, V-B:LYS:471:CA:9187, V-B:ASP:473:CB:9211, V-B:VAL:457:CA:9047, V-B:TYR:484:CB:9313, V-B:LYS:471:C:9185, V-B:VAL:458:CG2:9059, V-B:HIS:456:CD2:9040, V-B:HIS:456:CG:9038, V-B:SER:483:CB:9305, V-A:VAL:542:CG1:4899, V-B:ASP:473:CG:9212, V-A:LYS:547:CE:4950, H-B:TYR:484:N:9312, V-B:TYR:484:CG:9314, V-B:LYS:471:CD:9191, H-A:GLY:544:N:4915, V-B:TYR:484:C:9309, H-B:TYR:484:O:9310, V-B:TYR:484:CA:9311"]

$$$$
4aj_Grossjean_2025
     RDKit          3D

 20 22  0  0  0  0  0  0  0  0999 V2000
  129.6300  126.5780   63.1590 C   0  0  0  0  0  0  0  0  0  0  0  0
  130.5190  125.4610   62.6440 C   0  0  0  0  0  0  0  0  0  0  0  0
  131.9050  125.6020   62.6190 C   0  0  0  0  0  0  0  0  0  0  0  0
  132.7060  124.5610   62.1340 C   0  0  0  0  0  0  0  0  0  0  0  0
  134.2130  124.7640   62.1270 C   0  0  0  0  0  0  0  0  0  0  0  0
  132.0580  123.3810   61.6810 C   0  0  0  0  0  0  0  0  0  0  0  0
  132.5590  122.1490   61.1340 C   0  0  0  0  0  0  0  0  0  0  0  0
  133.8980  121.9210   60.9500 N   0  0  0  0  0  0  0  0  0  0  0  0
  131.5580  121.2180   60.8170 C   0  0  0  0  0  0  0  0  0  0  0  0
  131.7070  119.8810   60.2390 C   0  0  0  0  0  0  0  0  0  0  0  0
  132.7970  119.5010   59.8040 O   0  0  0  0  0  0  0  0  0  0  0  0
  130.5860  119.1190   60.2370 N   0  0  0  0  0  0  0  0  0  0  0  0
  130.4610  117.8200   59.7620 C   0  0  0  0  0  0  0  0  0  0  0  0
  129.5660  116.9180   60.1030 N   0  0  0  0  0  0  0  0  0  0  0  0
  129.7430  115.7880   59.4460 C   0  0  0  0  0  0  0  0  0  0  0  0
  130.8050  115.7580   58.5460 C   0  0  0  0  0  0  0  0  0  0  0  0
  131.6080  117.3000   58.5700 S   0  0  0  0  0  0  0  0  0  0  0  0
  129.9540  121.8580   61.1780 S   0  0  0  0  0  0  0  0  0  0  0  0
  130.6320  123.3610   61.7620 C   0  0  0  0  0  0  0  0  0  0  0  0
  129.8660  124.3510   62.2220 N   0  0  0  0  0  0  0  0  0  0  0  0
  1  2  1  0
  2  3  2  0
  3  4  1  0
  4  5  1  0
  4  6  2  0
  6  7  1  0
  7  8  1  0
  7  9  2  0
  9 10  1  0
 10 11  2  0
 10 12  1  0
 12 13  1  0
 13 14  2  0
 14 15  1  0
 15 16  2  0
 16 17  1  0
  9 18  1  0
 18 19  1  0
 19 20  2  0
 20  2  1  0
 19  6  1  0
 17 13  1  0
M  END
>  <Binding energies>  (46) 
[-6.52]

>  <Ligand effiencies>  (46) 
[-0.2834782608695652]

>  <Interactions>  (46) 
["V-B:TYR:539:C:9839, V-B:TYR:539:CD2:9846, V-B:TYR:539:CE2:9848, V-A:ASP:366:CG:3213, V-A:ILE:369:CD1:3239, V-A:ARG:545:CZ:4926, V-A:ILE:369:CG2:3237, V-A:LEU:475:CD2:4259, V-B:TYR:539:CG:9844, V-A:GLU:543:CD:4908, V-B:GLU:543:CD:9880, V-A:SER:385:CB:3409, V-B:TYR:539:CB:9843, H-A:TYR:484:OH:4348, V-A:HIS:383:CE1:3394, V-A:PRO:482:CG:4327, V-A:LEU:373:CD1:3280, V-A:PRO:482:CB:4326, H-B:TYR:539:O:9840, V-B:VAL:344:CG1:7973, H-A:SER:385:O:3406, V-A:GLY:453:C:4042, V-B:ILE:343:CG2:7964, V-A:GLY:453:CA:4044, V-B:VAL:344:CG2:7974, V-B:VAL:344:CB:7972"]

$$$$
4ak_Grossjean_2025
     RDKit          3D

 25 26  0  0  0  0  0  0  0  0999 V2000
  127.5080  138.2420   59.6010 C   0  0  0  0  0  0  0  0  0  0  0  0
  126.4660  137.8910   60.4990 O   0  0  0  0  0  0  0  0  0  0  0  0
  126.0580  136.5330   60.3890 C   0  0  0  0  0  0  0  0  0  0  0  0
  127.1450  135.6240   60.9760 C   0  0  0  0  0  0  0  0  0  0  0  0
  126.8610  134.2720   60.6390 O   0  0  0  0  0  0  0  0  0  0  0  0
  125.5010  134.0390   60.2990 C   0  0  0  0  0  0  0  0  0  0  0  0
  124.8430  133.1910   61.3940 C   0  0  0  0  0  0  0  0  0  0  0  0
  125.7390  132.1630   61.7930 O   0  0  0  0  0  0  0  0  0  0  0  0
  126.2970  132.3570   63.0860 C   0  0  0  0  0  0  0  0  0  0  0  0
  127.8280  132.2130   63.0060 C   0  0  0  0  0  0  0  0  0  0  0  0
  128.3410  132.1590   61.6370 N   0  0  0  0  0  0  0  0  0  0  0  0
  129.6320  131.9740   61.2940 C   0  0  0  0  0  0  0  0  0  0  0  0
  130.5200  131.8080   62.1320 O   0  0  0  0  0  0  0  0  0  0  0  0
  129.9230  131.9730   59.8620 C   0  0  0  0  0  0  0  0  0  0  0  0
  128.7530  132.6240   58.7150 S   0  0  0  0  0  0  0  0  0  0  0  0
  129.8100  132.2740   57.3670 C   0  0  0  0  0  0  0  0  0  0  0  0
  129.4650  132.5520   56.1090 N   0  0  0  0  0  0  0  0  0  0  0  0
  130.3740  132.2280   55.1570 C   0  0  0  0  0  0  0  0  0  0  0  0
  129.9640  132.5530   53.7320 C   0  0  0  0  0  0  0  0  0  0  0  0
  131.6080  131.6410   55.4310 C   0  0  0  0  0  0  0  0  0  0  0  0
  131.9670  131.3510   56.7530 C   0  0  0  0  0  0  0  0  0  0  0  0
  133.3220  130.7060   57.0020 C   0  0  0  0  0  0  0  0  0  0  0  0
  131.0390  131.6750   57.7780 C   0  0  0  0  0  0  0  0  0  0  0  0
  131.0790  131.5200   59.2070 C   0  0  0  0  0  0  0  0  0  0  0  0
  132.1580  130.9740   59.8560 N   0  0  0  0  0  0  0  0  0  0  0  0
  1  2  1  0
  2  3  1  0
  3  4  1  0
  4  5  1  0
  5  6  1  0
  6  7  1  0
  7  8  1  0
  8  9  1  0
  9 10  1  0
 10 11  1  0
 11 12  1  0
 12 13  2  0
 12 14  1  0
 14 15  1  0
 15 16  1  0
 16 17  2  0
 17 18  1  0
 18 19  1  0
 18 20  2  0
 20 21  1  0
 21 22  1  0
 21 23  2  0
 23 24  1  0
 24 25  1  0
 24 14  2  0
 23 16  1  0
M  END
>  <Binding energies>  (47) 
[-6.2]

>  <Ligand effiencies>  (47) 
[-0.22142857142857145]

>  <Interactions>  (47) 
["V-A:PRO:540:N:4884, V-A:TYR:539:CE1:4875, H-A:TYR:539:N:4870, V-A:TYR:539:CD1:4873, V-B:LEU:475:CD2:9231, H-A:ALA:541:N:4891, V-A:TYR:531:CZ:4794, V-A:ILE:538:CA:4860, V-A:PRO:540:CA:4883, V-A:ILE:538:CG2:4863, V-A:TYR:539:C:4867, V-A:ALA:541:CB:4892, V-A:ILE:538:CB:4862, V-A:PRO:540:CB:4885, V-A:ASP:366:CB:3212, V-A:LEU:363:CA:3185, V-A:LEU:363:CD1:3189, V-A:TYR:531:CE2:4793, V-B:PRO:482:CG:9299, V-A:PRO:540:C:4881, H-A:GLU:543:OE1:4909, H-B:SER:385:OG:8382, V-A:TYR:539:CB:4871, V-B:HIS:383:CD2:8364, V-A:VAL:344:CG1:3001, H-A:ASP:366:OD1:3214, H-B:HIS:383:NE2:8366"]

$$$$
4al_Grossjean_2025
     RDKit          3D

 16 17  0  0  0  0  0  0  0  0999 V2000
  129.4120  124.5950   62.8580 C   0  0  0  0  0  0  0  0  0  0  0  0
  129.1390  123.2960   62.3540 O   0  0  0  0  0  0  0  0  0  0  0  0
  127.8620  122.8750   62.1650 C   0  0  0  0  0  0  0  0  0  0  0  0
  127.1150  122.5060   63.0750 O   0  0  0  0  0  0  0  0  0  0  0  0
  127.4510  122.9030   60.7440 C   0  0  0  0  0  0  0  0  0  0  0  0
  128.5880  122.4100   59.4870 S   0  0  0  0  0  0  0  0  0  0  0  0
  127.4040  122.7180   58.2380 C   0  0  0  0  0  0  0  0  0  0  0  0
  127.6740  122.5210   56.9470 N   0  0  0  0  0  0  0  0  0  0  0  0
  126.6700  122.7990   56.0790 C   0  0  0  0  0  0  0  0  0  0  0  0
  126.9980  122.5680   54.6150 C   0  0  0  0  0  0  0  0  0  0  0  0
  125.4150  123.2630   56.4690 C   0  0  0  0  0  0  0  0  0  0  0  0
  125.1350  123.4680   57.8240 C   0  0  0  0  0  0  0  0  0  0  0  0
  123.7520  123.9760   58.2000 C   0  0  0  0  0  0  0  0  0  0  0  0
  126.1640  123.1880   58.7630 C   0  0  0  0  0  0  0  0  0  0  0  0
  126.2200  123.2840   60.1950 C   0  0  0  0  0  0  0  0  0  0  0  0
  125.1580  123.7110   60.9490 N   0  0  0  0  0  0  0  0  0  0  0  0
  1  2  1  0
  2  3  1  0
  3  4  2  0
  3  5  1  0
  5  6  1  0
  6  7  1  0
  7  8  2  0
  8  9  1  0
  9 10  1  0
  9 11  2  0
 11 12  1  0
 12 13  1  0
 12 14  2  0
 14 15  1  0
 15 16  1  0
 15  5  2  0
 14  7  1  0
M  END
>  <Binding energies>  (48) 
[-6.13]

>  <Ligand effiencies>  (48) 
[-0.34055555555555556]

>  <Interactions>  (48) 
["V-B:PRO:540:CB:9857, V-B:TYR:539:C:9839, V-B:ILE:538:C:9830, V-B:TYR:531:CE2:9765, V-B:ASP:366:CG:8185, V-B:TYR:539:CD1:9845, V-B:ILE:538:CA:9832, V-B:PRO:540:N:9856, V-B:PRO:540:CA:9855, V-B:VAL:537:C:9822, V-B:TYR:539:CD2:9846, V-B:MET:535:CE:9807, V-B:TYR:539:CE2:9848, V-B:TYR:539:CE1:9847, V-B:TYR:531:CZ:9766, V-B:LEU:363:CD1:8161, V-B:ILE:538:CD1:9837, V-B:ASP:366:CB:8184, V-B:ALA:541:CB:9864, V-B:GLU:543:CD:9880, V-B:GLU:543:CG:9879, H-B:TYR:539:N:9842, H-B:ASP:366:OD2:8187, H-A:TYR:484:OH:4348, H-B:GLU:543:OE1:9881, V-B:LEU:363:CA:8157, V-B:LEU:363:CB:8159, H-B:ALA:541:N:9863"]

$$$$
4bc_Grossjean_2025
     RDKit          3D

 26 28  0  0  0  0  0  0  0  0999 V2000
  124.0220  129.6240   66.9620 C   0  0  0  0  0  0  0  0  0  0  0  0
  124.9010  128.6760   66.3660 O   0  0  0  0  0  0  0  0  0  0  0  0
  125.6960  129.0670   65.3060 C   0  0  0  0  0  0  0  0  0  0  0  0
  125.0400  129.6240   64.2090 C   0  0  0  0  0  0  0  0  0  0  0  0
  125.7580  130.0470   63.0930 C   0  0  0  0  0  0  0  0  0  0  0  0
  127.1480  129.9260   63.0650 C   0  0  0  0  0  0  0  0  0  0  0  0
  127.7860  130.3660   61.8910 N   0  0  0  0  0  0  0  0  0  0  0  0
  128.8480  131.1980   61.7520 C   0  0  0  0  0  0  0  0  0  0  0  0
  129.4180  131.7470   62.6950 O   0  0  0  0  0  0  0  0  0  0  0  0
  129.2940  131.4240   60.3740 C   0  0  0  0  0  0  0  0  0  0  0  0
  128.2550  132.2750   59.2340 S   0  0  0  0  0  0  0  0  0  0  0  0
  129.4420  132.1150   57.9610 C   0  0  0  0  0  0  0  0  0  0  0  0
  129.2240  132.6060   56.7410 N   0  0  0  0  0  0  0  0  0  0  0  0
  130.2160  132.4190   55.8400 C   0  0  0  0  0  0  0  0  0  0  0  0
  129.9510  132.9900   54.4590 C   0  0  0  0  0  0  0  0  0  0  0  0
  131.4090  131.7590   56.1270 C   0  0  0  0  0  0  0  0  0  0  0  0
  131.6430  131.2400   57.4100 C   0  0  0  0  0  0  0  0  0  0  0  0
  132.9700  130.5200   57.6760 C   0  0  0  0  0  0  0  0  0  0  0  0
  133.7970  130.5460   56.6290 F   0  0  0  0  0  0  0  0  0  0  0  0
  133.6000  131.1000   58.6970 F   0  0  0  0  0  0  0  0  0  0  0  0
  132.7380  129.2410   57.9700 F   0  0  0  0  0  0  0  0  0  0  0  0
  130.6180  131.4220   58.3850 C   0  0  0  0  0  0  0  0  0  0  0  0
  130.5030  131.0420   59.7720 C   0  0  0  0  0  0  0  0  0  0  0  0
  131.4930  130.3660   60.4380 N   0  0  0  0  0  0  0  0  0  0  0  0
  127.8140  129.3550   64.1600 C   0  0  0  0  0  0  0  0  0  0  0  0
  127.0930  128.9320   65.2730 C   0  0  0  0  0  0  0  0  0  0  0  0
  1  2  1  0
  2  3  1  0
  3  4  2  0
  4  5  1  0
  5  6  2  0
  6  7  1  0
  7  8  1  0
  8  9  2  0
  8 10  1  0
 10 11  1  0
 11 12  1  0
 12 13  2  0
 13 14  1  0
 14 15  1  0
 14 16  2  0
 16 17  1  0
 17 18  1  0
 18 19  1  0
 18 20  1  0
 18 21  1  0
 17 22  2  0
 22 23  1  0
 23 24  1  0
  6 25  1  0
 25 26  2  0
 26  3  1  0
 23 10  2  0
 22 12  1  0
M  END
>  <Binding energies>  (49) 
[-6.54]

>  <Ligand effiencies>  (49) 
[-0.22551724137931034]

>  <Interactions>  (49) 
["V-A:PRO:540:N:4884, H-A:TYR:539:N:4870, V-A:TYR:539:CD1:4873, V-A:TYR:531:CZ:4794, V-A:ILE:538:CA:4860, V-A:PRO:540:CA:4883, V-A:ILE:538:CG2:4863, V-A:TYR:539:C:4867, V-A:TYR:539:CD2:4874, V-A:ASP:366:CG:3213, V-A:GLU:543:CG:4907, V-B:ARG:545:CZ:9898, V-A:GLU:543:CD:4908, V-A:ILE:538:CB:4862, V-B:TYR:484:CZ:9319, V-A:PRO:540:CB:4885, V-A:ASP:366:CB:3212, V-A:LEU:363:CA:3185, V-A:LEU:363:CD1:3189, V-A:TYR:531:CE2:4793, H-A:GLU:543:OE1:4909, V-B:HIS:456:CE1:9042, V-B:ARG:545:CD:9895, V-B:ARG:545:CG:9894, H-B:TYR:484:OH:9320, V-A:ILE:538:C:4858, V-B:TYR:484:CE1:9317, H-B:ARG:545:NE:9896, H-A:ASP:366:OD1:3214"]

$$$$
4bf_Grossjean_2025
     RDKit          3D

 24 26  0  0  0  0  0  0  0  0999 V2000
  129.5950  132.9290   54.6790 C   0  0  0  0  0  0  0  0  0  0  0  0
  129.8980  132.3940   56.0670 C   0  0  0  0  0  0  0  0  0  0  0  0
  131.1390  131.8400   56.3680 C   0  0  0  0  0  0  0  0  0  0  0  0
  131.4040  131.3460   57.6540 C   0  0  0  0  0  0  0  0  0  0  0  0
  132.7840  130.7430   57.9380 C   0  0  0  0  0  0  0  0  0  0  0  0
  133.3050  131.1540   59.0970 F   0  0  0  0  0  0  0  0  0  0  0  0
  132.6960  129.4140   57.9890 F   0  0  0  0  0  0  0  0  0  0  0  0
  133.6360  131.0920   56.9730 F   0  0  0  0  0  0  0  0  0  0  0  0
  130.3560  131.4380   58.6180 C   0  0  0  0  0  0  0  0  0  0  0  0
  130.2580  131.0470   60.0020 C   0  0  0  0  0  0  0  0  0  0  0  0
  131.2960  130.4570   60.6790 N   0  0  0  0  0  0  0  0  0  0  0  0
  129.0150  131.3260   60.5920 C   0  0  0  0  0  0  0  0  0  0  0  0
  128.5650  131.0360   61.9570 C   0  0  0  0  0  0  0  0  0  0  0  0
  129.2710  131.3230   62.9250 O   0  0  0  0  0  0  0  0  0  0  0  0
  127.3420  130.4580   62.0550 N   0  0  0  0  0  0  0  0  0  0  0  0
  126.6500  130.0140   63.1980 C   0  0  0  0  0  0  0  0  0  0  0  0
  127.1940  129.2210   64.2230 C   0  0  0  0  0  0  0  0  0  0  0  0
  126.3900  128.8340   65.2980 C   0  0  0  0  0  0  0  0  0  0  0  0
  125.0580  129.2490   65.3190 C   0  0  0  0  0  0  0  0  0  0  0  0
  124.5080  130.0090   64.3400 N   0  0  0  0  0  0  0  0  0  0  0  0
  125.3010  130.3760   63.3010 C   0  0  0  0  0  0  0  0  0  0  0  0
  127.9190  132.0840   59.4390 S   0  0  0  0  0  0  0  0  0  0  0  0
  129.1300  132.0280   58.1800 C   0  0  0  0  0  0  0  0  0  0  0  0
  128.8840  132.4970   56.9580 N   0  0  0  0  0  0  0  0  0  0  0  0
  1  2  1  0
  2  3  2  0
  3  4  1  0
  4  5  1  0
  5  6  1  0
  5  7  1  0
  5  8  1  0
  4  9  2  0
  9 10  1  0
 10 11  1  0
 10 12  2  0
 12 13  1  0
 13 14  2  0
 13 15  1  0
 15 16  1  0
 16 17  2  0
 17 18  1  0
 18 19  2  0
 19 20  1  0
 20 21  2  0
 12 22  1  0
 22 23  1  0
 23 24  2  0
 24  2  1  0
 23  9  1  0
 21 16  1  0
M  END
>  <Binding energies>  (50) 
[-6.44]

>  <Ligand effiencies>  (50) 
[-0.23851851851851855]

>  <Interactions>  (50) 
["V-A:PRO:540:N:4884, V-A:ILE:538:CA:4860, V-A:PRO:540:CA:4883, V-A:ILE:538:CG2:4863, V-A:TYR:539:C:4867, V-A:TYR:539:CD2:4874, V-A:TYR:539:CE2:4876, V-A:ASP:366:CG:3213, V-B:ARG:545:CZ:9898, V-A:ILE:538:CB:4862, V-A:PRO:540:CB:4885, V-A:ASP:366:CB:3212, V-A:LEU:363:CA:3185, V-A:LEU:363:CD1:3189, H-A:GLU:543:OE1:4909, H-B:GLY:454:N:9022, V-B:ARG:545:CD:9895, H-B:TYR:484:OH:9320, V-A:ILE:538:C:4858, V-A:LEU:363:CB:3187, V-A:LEU:363:CG:3188, H-A:ASP:366:OD1:3214"]

$$$$
4bh_Grossjean_2025
     RDKit          3D

 31 33  0  0  0  0  0  0  0  0999 V2000
  126.5780  127.3620   67.3800 C   0  0  0  0  0  0  0  0  0  0  0  0
  125.4750  128.0130   66.7600 O   0  0  0  0  0  0  0  0  0  0  0  0
  125.6540  128.6380   65.5390 C   0  0  0  0  0  0  0  0  0  0  0  0
  126.8730  128.6640   64.8440 C   0  0  0  0  0  0  0  0  0  0  0  0
  126.9830  129.3170   63.6150 C   0  0  0  0  0  0  0  0  0  0  0  0
  128.3030  129.2960   62.8530 C   0  0  0  0  0  0  0  0  0  0  0  0
  128.7970  127.9470   62.5790 N   0  0  0  0  0  0  0  0  0  0  0  0
  128.1070  126.9740   61.9480 C   0  0  0  0  0  0  0  0  0  0  0  0
  126.9440  127.1260   61.5690 O   0  0  0  0  0  0  0  0  0  0  0  0
  128.8040  125.6990   61.7770 C   0  0  0  0  0  0  0  0  0  0  0  0
  127.8840  124.2200   61.5150 S   0  0  0  0  0  0  0  0  0  0  0  0
  129.3490  123.2670   61.4690 C   0  0  0  0  0  0  0  0  0  0  0  0
  129.3150  121.9490   61.2780 N   0  0  0  0  0  0  0  0  0  0  0  0
  130.5130  121.3200   61.2590 C   0  0  0  0  0  0  0  0  0  0  0  0
  130.4510  119.8190   61.0410 C   0  0  0  0  0  0  0  0  0  0  0  0
  131.7330  121.9710   61.4230 C   0  0  0  0  0  0  0  0  0  0  0  0
  131.7750  123.3600   61.6270 C   0  0  0  0  0  0  0  0  0  0  0  0
  133.1410  124.0330   61.8000 C   0  0  0  0  0  0  0  0  0  0  0  0
  134.1580  123.1700   61.7660 F   0  0  0  0  0  0  0  0  0  0  0  0
  133.3350  124.9170   60.8210 F   0  0  0  0  0  0  0  0  0  0  0  0
  133.1880  124.6610   62.9750 F   0  0  0  0  0  0  0  0  0  0  0  0
  130.5290  124.0530   61.6550 C   0  0  0  0  0  0  0  0  0  0  0  0
  130.1820  125.4400   61.8420 C   0  0  0  0  0  0  0  0  0  0  0  0
  131.1190  126.4180   62.0560 N   0  0  0  0  0  0  0  0  0  0  0  0
  125.8570  129.9270   63.0580 C   0  0  0  0  0  0  0  0  0  0  0  0
  124.6280  129.9230   63.7340 C   0  0  0  0  0  0  0  0  0  0  0  0
  123.4770  130.5180   63.2490 O   0  0  0  0  0  0  0  0  0  0  0  0
  123.1480  130.3790   61.8710 C   0  0  0  0  0  0  0  0  0  0  0  0
  124.5410  129.2790   64.9780 C   0  0  0  0  0  0  0  0  0  0  0  0
  123.3380  129.2520   65.6430 O   0  0  0  0  0  0  0  0  0  0  0  0
  123.3840  129.8220   66.9430 C   0  0  0  0  0  0  0  0  0  0  0  0
  1  2  1  0
  2  3  1  0
  3  4  2  0
  4  5  1  0
  5  6  1  0
  6  7  1  0
  7  8  1  0
  8  9  2  0
  8 10  1  0
 10 11  1  0
 11 12  1  0
 12 13  2  0
 13 14  1  0
 14 15  1  0
 14 16  2  0
 16 17  1  0
 17 18  1  0
 18 19  1  0
 18 20  1  0
 18 21  1  0
 17 22  2  0
 22 23  1  0
 23 24  1  0
  5 25  2  0
 25 26  1  0
 26 27  1  0
 27 28  1  0
 26 29  2  0
 29 30  1  0
 30 31  1  0
 29  3  1  0
 23 10  2  0
 22 12  1  0
M  END
>  <Binding energies>  (51) 
[-6.3]

>  <Ligand effiencies>  (51) 
[-0.18529411764705883]

>  <Interactions>  (51) 
["V-B:ASP:366:CG:8185, V-B:TYR:539:CD2:9846, V-A:ASP:366:CG:3213, V-A:GLY:454:CA:4049, V-A:ILE:369:CD1:3239, V-A:ARG:545:CZ:4926, V-A:LEU:475:CD2:4259, V-B:ILE:369:CD1:8211, V-B:ARG:545:CZ:9898, V-A:GLU:543:CD:4908, V-B:GLY:454:CA:9021, V-B:GLU:543:CD:9880, H-A:GLU:543:OE1:4909, V-B:GLY:453:CA:9016, H-B:GLY:454:N:9022, V-B:HIS:456:CE1:9042, V-B:ARG:545:CD:9895, V-B:GLY:453:C:9014, V-B:ARG:545:CG:9894, V-B:TYR:484:CE1:9317, V-B:GLY:454:C:9019, V-B:ILE:455:C:9024, H-B:ARG:545:NH1:9899, H-B:ARG:545:NH2:9900, H-B:ARG:545:NE:9896, H-A:GLU:543:OE2:4910, V-A:GLY:453:C:4042, H-A:ASP:366:OD2:3215, H-A:ASP:366:OD1:3214, V-B:GLU:543:CB:9878"]

$$$$
4bi_Grossjean_2025
     RDKit          3D

 23 25  0  0  0  0  0  0  0  0999 V2000
  123.3960  131.3220   76.3780 C   0  0  0  0  0  0  0  0  0  0  0  0
  124.7980  131.8630   76.1660 C   0  0  0  0  0  0  0  0  0  0  0  0
  125.6040  132.2100   77.2470 C   0  0  0  0  0  0  0  0  0  0  0  0
  126.9020  132.7050   77.0370 C   0  0  0  0  0  0  0  0  0  0  0  0
  127.7540  133.0650   78.2580 C   0  0  0  0  0  0  0  0  0  0  0  0
  128.2980  134.2820   78.1750 F   0  0  0  0  0  0  0  0  0  0  0  0
  127.0020  133.0400   79.3580 F   0  0  0  0  0  0  0  0  0  0  0  0
  128.7520  132.1900   78.3860 F   0  0  0  0  0  0  0  0  0  0  0  0
  127.3380  132.8360   75.6850 C   0  0  0  0  0  0  0  0  0  0  0  0
  128.5690  133.2980   75.0920 C   0  0  0  0  0  0  0  0  0  0  0  0
  129.6300  133.7440   75.8380 N   0  0  0  0  0  0  0  0  0  0  0  0
  128.5860  133.2460   73.6880 C   0  0  0  0  0  0  0  0  0  0  0  0
  129.6570  133.6470   72.7710 C   0  0  0  0  0  0  0  0  0  0  0  0
  130.3900  132.8020   72.2530 O   0  0  0  0  0  0  0  0  0  0  0  0
  129.7540  134.9790   72.5370 N   0  0  0  0  0  0  0  0  0  0  0  0
  130.6610  135.6280   71.7090 C   0  0  0  0  0  0  0  0  0  0  0  0
  131.5640  136.5840   72.1700 C   0  0  0  0  0  0  0  0  0  0  0  0
  132.2710  136.9770   71.0560 C   0  0  0  0  0  0  0  0  0  0  0  0
  131.8170  136.2910   69.9800 O   0  0  0  0  0  0  0  0  0  0  0  0
  130.7960  135.4400   70.4070 N   0  0  0  0  0  0  0  0  0  0  0  0
  127.0560  132.6410   73.0550 S   0  0  0  0  0  0  0  0  0  0  0  0
  126.4130  132.4450   74.6690 C   0  0  0  0  0  0  0  0  0  0  0  0
  125.1840  131.9730   74.8740 N   0  0  0  0  0  0  0  0  0  0  0  0
  1  2  1  0
  2  3  2  0
  3  4  1  0
  4  5  1  0
  5  6  1  0
  5  7  1  0
  5  8  1  0
  4  9  2  0
  9 10  1  0
 10 11  1  0
 10 12  2  0
 12 13  1  0
 13 14  2  0
 13 15  1  0
 15 16  1  0
 16 17  1  0
 17 18  2  0
 18 19  1  0
 19 20  1  0
 12 21  1  0
 21 22  1  0
 22 23  2  0
 23  2  1  0
 22  9  1  0
 20 16  2  0
M  END
>  <Binding energies>  (52) 
[-6.43]

>  <Ligand effiencies>  (52) 
[-0.24730769230769228]

>  <Interactions>  (52) 
["V-B:LEU:472:CA:9200, V-B:LYS:471:CB:9189, V-B:VAL:457:C:9045, V-B:HIS:456:CB:9037, V-B:HIS:456:C:9033, H-A:LYS:547:NZ:4951, V-B:LYS:471:CA:9187, V-B:ASP:473:CB:9211, V-B:VAL:457:CA:9047, V-B:TYR:484:CB:9313, V-B:LYS:471:C:9185, V-B:VAL:458:CG2:9059, V-B:HIS:456:CD2:9040, V-B:HIS:456:CG:9038, V-B:SER:483:CB:9305, V-A:VAL:542:CG1:4899, V-B:ASP:473:CG:9212, V-A:LYS:547:CE:4950, H-B:TYR:484:N:9312, V-B:LYS:471:CE:9192, V-B:TYR:484:CG:9314, V-B:LYS:471:CD:9191, H-A:GLY:544:N:4915, V-B:TYR:484:C:9309, V-B:LYS:471:CG:9190, H-B:TYR:484:O:9310, V-B:TYR:484:CA:9311"]

$$$$
4bj_Grossjean_2025
     RDKit          3D

 23 25  0  0  0  0  0  0  0  0999 V2000
  123.3890  131.2860   76.5680 C   0  0  0  0  0  0  0  0  0  0  0  0
  124.7770  131.8570   76.3390 C   0  0  0  0  0  0  0  0  0  0  0  0
  125.5790  132.2420   77.4100 C   0  0  0  0  0  0  0  0  0  0  0  0
  126.8590  132.7740   77.1850 C   0  0  0  0  0  0  0  0  0  0  0  0
  127.7040  133.1860   78.3950 C   0  0  0  0  0  0  0  0  0  0  0  0
  128.2830  134.3790   78.2450 F   0  0  0  0  0  0  0  0  0  0  0  0
  126.9350  133.2490   79.4820 F   0  0  0  0  0  0  0  0  0  0  0  0
  128.6740  132.2930   78.5910 F   0  0  0  0  0  0  0  0  0  0  0  0
  127.2860  132.8930   75.8290 C   0  0  0  0  0  0  0  0  0  0  0  0
  128.4980  133.3850   75.2210 C   0  0  0  0  0  0  0  0  0  0  0  0
  129.5490  133.8740   75.9540 N   0  0  0  0  0  0  0  0  0  0  0  0
  128.5080  133.3110   73.8190 C   0  0  0  0  0  0  0  0  0  0  0  0
  129.5620  133.7260   72.8900 C   0  0  0  0  0  0  0  0  0  0  0  0
  130.2000  132.8910   72.2450 O   0  0  0  0  0  0  0  0  0  0  0  0
  129.7580  135.0640   72.7930 N   0  0  0  0  0  0  0  0  0  0  0  0
  130.6790  135.7150   71.9840 C   0  0  0  0  0  0  0  0  0  0  0  0
  130.8820  135.5500   70.6950 N   0  0  0  0  0  0  0  0  0  0  0  0
  131.8360  136.3420   70.2480 C   0  0  0  0  0  0  0  0  0  0  0  0
  132.4330  137.1760   71.1870 C   0  0  0  0  0  0  0  0  0  0  0  0
  131.6990  136.8990   72.7380 S   0  0  0  0  0  0  0  0  0  0  0  0
  126.9960  132.6470   73.2040 S   0  0  0  0  0  0  0  0  0  0  0  0
  126.3680  132.4580   74.8240 C   0  0  0  0  0  0  0  0  0  0  0  0
  125.1530  131.9560   75.0430 N   0  0  0  0  0  0  0  0  0  0  0  0
  1  2  1  0
  2  3  2  0
  3  4  1  0
  4  5  1  0
  5  6  1  0
  5  7  1  0
  5  8  1  0
  4  9  2  0
  9 10  1  0
 10 11  1  0
 10 12  2  0
 12 13  1  0
 13 14  2  0
 13 15  1  0
 15 16  1  0
 16 17  2  0
 17 18  1  0
 18 19  2  0
 19 20  1  0
 12 21  1  0
 21 22  1  0
 22 23  2  0
 23  2  1  0
 22  9  1  0
 20 16  1  0
M  END
>  <Binding energies>  (53) 
[-6.05]

>  <Ligand effiencies>  (53) 
[-0.2326923076923077]

>  <Interactions>  (53) 
["V-B:LEU:472:CA:9200, V-B:LYS:471:CB:9189, V-B:SER:483:CA:9303, V-B:VAL:457:C:9045, V-A:VAL:542:CB:4898, V-B:HIS:456:CB:9037, V-B:HIS:456:C:9033, H-A:LYS:547:NZ:4951, V-B:LYS:471:CA:9187, V-A:VAL:542:C:4894, V-B:ASP:473:CB:9211, V-B:VAL:457:CA:9047, V-B:TYR:484:CB:9313, V-B:LYS:471:C:9185, V-B:VAL:458:CG2:9059, V-B:HIS:456:CD2:9040, V-B:HIS:456:CG:9038, V-B:SER:483:CB:9305, V-A:VAL:542:CG1:4899, V-B:ASP:473:CG:9212, V-A:LYS:547:CE:4950, H-B:TYR:484:N:9312, V-B:LYS:471:CE:9192, V-B:LYS:471:CD:9191, H-A:GLY:544:N:4915, V-B:TYR:484:C:9309, V-B:LYS:471:CG:9190, H-B:TYR:484:O:9310, V-B:TYR:484:CA:9311"]

$$$$
4bk_Grossjean_2025
     RDKit          3D

 28 29  0  0  0  0  0  0  0  0999 V2000
  125.5880  129.7250   55.7540 C   0  0  0  0  0  0  0  0  0  0  0  0
  126.3850  128.8220   55.0040 O   0  0  0  0  0  0  0  0  0  0  0  0
  127.7690  128.8910   55.3210 C   0  0  0  0  0  0  0  0  0  0  0  0
  128.2160  130.3580   55.3450 C   0  0  0  0  0  0  0  0  0  0  0  0
  128.5900  130.7590   54.0340 O   0  0  0  0  0  0  0  0  0  0  0  0
  129.9660  131.0920   53.9060 C   0  0  0  0  0  0  0  0  0  0  0  0
  130.1170  132.6170   53.8340 C   0  0  0  0  0  0  0  0  0  0  0  0
  130.7220  133.0860   55.0300 O   0  0  0  0  0  0  0  0  0  0  0  0
  132.0730  132.6690   55.1940 C   0  0  0  0  0  0  0  0  0  0  0  0
  132.1960  131.8340   56.4800 C   0  0  0  0  0  0  0  0  0  0  0  0
  131.0540  131.9750   57.3840 N   0  0  0  0  0  0  0  0  0  0  0  0
  130.9960  131.5020   58.6460 C   0  0  0  0  0  0  0  0  0  0  0  0
  131.9390  130.9070   59.1720 O   0  0  0  0  0  0  0  0  0  0  0  0
  129.7460  131.7430   59.3680 C   0  0  0  0  0  0  0  0  0  0  0  0
  128.4200  132.5940   58.5790 S   0  0  0  0  0  0  0  0  0  0  0  0
  127.4140  132.4340   59.9980 C   0  0  0  0  0  0  0  0  0  0  0  0
  126.1760  132.9230   60.0320 N   0  0  0  0  0  0  0  0  0  0  0  0
  125.4930  132.7360   61.1860 C   0  0  0  0  0  0  0  0  0  0  0  0
  124.0840  133.3000   61.2010 C   0  0  0  0  0  0  0  0  0  0  0  0
  126.0160  132.0770   62.2960 C   0  0  0  0  0  0  0  0  0  0  0  0
  127.3200  131.5610   62.2680 C   0  0  0  0  0  0  0  0  0  0  0  0
  127.8530  130.8470   63.5150 C   0  0  0  0  0  0  0  0  0  0  0  0
  128.6620  129.8260   63.2270 F   0  0  0  0  0  0  0  0  0  0  0  0
  128.5430  131.7060   64.2650 F   0  0  0  0  0  0  0  0  0  0  0  0
  126.8360  130.3610   64.2250 F   0  0  0  0  0  0  0  0  0  0  0  0
  128.0670  131.7400   61.0650 C   0  0  0  0  0  0  0  0  0  0  0  0
  129.3990  131.3540   60.6700 C   0  0  0  0  0  0  0  0  0  0  0  0
  130.2500  130.6700   61.5000 N   0  0  0  0  0  0  0  0  0  0  0  0
  1  2  1  0
  2  3  1  0
  3  4  1  0
  4  5  1  0
  5  6  1  0
  6  7  1  0
  7  8  1  0
  8  9  1  0
  9 10  1  0
 10 11  1  0
 11 12  1  0
 12 13  2  0
 12 14  1  0
 14 15  1  0
 15 16  1  0
 16 17  2  0
 17 18  1  0
 18 19  1  0
 18 20  2  0
 20 21  1  0
 21 22  1  0
 22 23  1  0
 22 24  1  0
 22 25  1  0
 21 26  2  0
 26 27  1  0
 27 28  1  0
 27 14  2  0
 26 16  1  0
M  END
>  <Binding energies>  (54) 
[-5.63]

>  <Ligand effiencies>  (54) 
[-0.18161290322580645]

>  <Interactions>  (54) 
["V-A:PRO:540:N:4884, V-A:TYR:539:CE1:4875, V-A:MET:535:CG:4833, H-A:TYR:539:N:4870, V-A:TYR:539:CD1:4873, V-B:LEU:475:CD2:9231, H-A:TYR:539:O:4868, V-A:MET:535:CE:4835, V-A:ILE:538:CA:4860, V-A:PRO:540:CA:4883, V-A:ILE:538:CG2:4863, V-B:MET:535:CE:9807, H-B:LYS:534:NZ:9795, V-B:TYR:531:CZ:9766, V-A:TYR:539:C:4867, V-A:ALA:541:CB:4892, V-A:GLU:543:CG:4907, V-B:ILE:369:CD1:8211, V-A:GLU:543:CD:4908, V-A:ILE:538:CB:4862, V-B:TYR:531:CE1:9764, V-B:TYR:484:CZ:9319, V-B:TYR:484:CE2:9318, H-B:TYR:531:OH:9767, V-B:ILE:369:CG2:8209, V-A:PRO:540:CB:4885, V-A:PRO:540:CD:4887, V-A:LEU:363:CD1:3189, H-A:GLU:543:OE1:4909, V-A:ILE:538:C:4858, V-A:GLU:543:CB:4906, H-A:ASP:366:OD1:3214"]

$$$$
4cd_Grossjean_2025
     RDKit          3D

 29 32  0  0  0  0  0  0  0  0999 V2000
  131.6490  126.4340   62.0480 N   0  0  0  0  0  0  0  0  0  0  0  0
  130.6860  125.4780   61.8510 C   0  0  0  0  0  0  0  0  0  0  0  0
  129.3090  125.7530   61.8890 C   0  0  0  0  0  0  0  0  0  0  0  0
  128.6400  127.0310   62.1490 C   0  0  0  0  0  0  0  0  0  0  0  0
  129.2500  128.0940   62.0330 O   0  0  0  0  0  0  0  0  0  0  0  0
  127.3350  126.9410   62.5060 N   0  0  0  0  0  0  0  0  0  0  0  0
  126.4330  127.9590   62.8690 C   0  0  0  0  0  0  0  0  0  0  0  0
  126.3620  128.2570   64.2320 C   0  0  0  0  0  0  0  0  0  0  0  0
  125.5090  129.2570   64.6890 C   0  0  0  0  0  0  0  0  0  0  0  0
  124.7290  129.9670   63.7800 C   0  0  0  0  0  0  0  0  0  0  0  0
  124.7990  129.6890   62.4180 C   0  0  0  0  0  0  0  0  0  0  0  0
  125.6520  128.6890   61.9570 C   0  0  0  0  0  0  0  0  0  0  0  0
  128.3610  124.2980   61.5840 S   0  0  0  0  0  0  0  0  0  0  0  0
  129.8100  123.3350   61.4190 C   0  0  0  0  0  0  0  0  0  0  0  0
  129.7500  122.0300   61.1630 N   0  0  0  0  0  0  0  0  0  0  0  0
  130.9300  121.3620   61.0650 C   0  0  0  0  0  0  0  0  0  0  0  0
  130.8310  119.8920   60.7790 C   0  0  0  0  0  0  0  0  0  0  0  0
  129.8380  119.1070   61.3870 C   0  0  0  0  0  0  0  0  0  0  0  0
  129.7400  117.7430   61.1260 C   0  0  0  0  0  0  0  0  0  0  0  0
  130.6380  117.1420   60.2490 C   0  0  0  0  0  0  0  0  0  0  0  0
  131.6280  117.8970   59.6310 C   0  0  0  0  0  0  0  0  0  0  0  0
  131.7210  119.2600   59.8930 C   0  0  0  0  0  0  0  0  0  0  0  0
  132.1600  122.0100   61.2040 C   0  0  0  0  0  0  0  0  0  0  0  0
  132.2340  123.3880   61.4700 C   0  0  0  0  0  0  0  0  0  0  0  0
  133.6160  124.0340   61.6140 C   0  0  0  0  0  0  0  0  0  0  0  0
  133.7120  124.8360   62.6780 F   0  0  0  0  0  0  0  0  0  0  0  0
  134.5460  123.0880   61.7430 F   0  0  0  0  0  0  0  0  0  0  0  0
  133.8840  124.7710   60.5360 F   0  0  0  0  0  0  0  0  0  0  0  0
  131.0040  124.0960   61.5870 C   0  0  0  0  0  0  0  0  0  0  0  0
  1  2  1  0
  2  3  2  0
  3  4  1  0
  4  5  2  0
  4  6  1  0
  6  7  1  0
  7  8  2  0
  8  9  1  0
  9 10  2  0
 10 11  1  0
 11 12  2  0
  3 13  1  0
 13 14  1  0
 14 15  2  0
 15 16  1  0
 16 17  1  0
 17 18  2  0
 18 19  1  0
 19 20  2  0
 20 21  1  0
 21 22  2  0
 16 23  2  0
 23 24  1  0
 24 25  1  0
 25 26  1  0
 25 27  1  0
 25 28  1  0
 24 29  2  0
 29  2  1  0
 12  7  1  0
 29 14  1  0
 22 17  1  0
M  END
>  <Binding energies>  (55) 
[-7.2]

>  <Ligand effiencies>  (55) 
[-0.225]

>  <Interactions>  (55) 
["V-B:TYR:539:C:9839, V-B:ASP:366:CG:8185, V-B:TYR:539:CD2:9846, V-B:TYR:539:CE2:9848, V-A:ASP:366:CG:3213, V-A:GLY:454:CA:4049, V-A:ILE:369:CD1:3239, V-A:ARG:545:CZ:4926, V-A:LEU:475:CD2:4259, V-B:TYR:539:CG:9844, V-B:ARG:545:CZ:9898, V-A:GLU:543:CD:4908, V-A:ASP:366:CB:3212, V-A:ASP:366:CA:3210, V-B:ALA:541:CB:9864, V-B:GLU:543:CD:9880, H-A:GLU:543:OE1:4909, V-A:SER:385:CB:3409, V-B:TYR:539:CB:9843, V-A:PRO:482:CG:4327, V-A:PRO:482:CB:4326, V-A:LEU:475:CD1:4258, H-B:GLU:543:OE1:9881, H-B:GLU:543:OE2:9882, H-A:GLU:543:OE2:4910, V-A:GLY:453:C:4042, H-A:ASP:366:OD2:3215, H-A:ASP:366:OD1:3214, V-A:GLY:453:CA:4044"]

$$$$
4cg_Grossjean_2025
     RDKit          3D

 30 33  0  0  0  0  0  0  0  0999 V2000
  131.0170  126.9850   62.3730 N   0  0  0  0  0  0  0  0  0  0  0  0
  130.1400  125.9850   62.0360 C   0  0  0  0  0  0  0  0  0  0  0  0
  128.7680  126.2010   61.8420 C   0  0  0  0  0  0  0  0  0  0  0  0
  128.0250  127.4590   61.9010 C   0  0  0  0  0  0  0  0  0  0  0  0
  128.4490  128.4820   61.3590 O   0  0  0  0  0  0  0  0  0  0  0  0
  126.8800  127.4360   62.6150 N   0  0  0  0  0  0  0  0  0  0  0  0
  125.9680  128.5650   62.7910 C   0  0  0  0  0  0  0  0  0  0  0  0
  125.5370  128.7770   64.2380 C   0  0  0  0  0  0  0  0  0  0  0  0
  124.3440  129.4500   64.5150 C   0  0  0  0  0  0  0  0  0  0  0  0
  123.9310  129.6180   65.8350 C   0  0  0  0  0  0  0  0  0  0  0  0
  124.7080  129.1040   66.8710 C   0  0  0  0  0  0  0  0  0  0  0  0
  125.8900  128.4180   66.6000 C   0  0  0  0  0  0  0  0  0  0  0  0
  126.3020  128.2480   65.2810 C   0  0  0  0  0  0  0  0  0  0  0  0
  127.9410  124.7100   61.3990 S   0  0  0  0  0  0  0  0  0  0  0  0
  129.4320  123.8040   61.4990 C   0  0  0  0  0  0  0  0  0  0  0  0
  129.4680  122.4970   61.2550 N   0  0  0  0  0  0  0  0  0  0  0  0
  130.6730  121.8780   61.3520 C   0  0  0  0  0  0  0  0  0  0  0  0
  130.6800  120.4020   61.0720 C   0  0  0  0  0  0  0  0  0  0  0  0
  131.6430  119.8340   60.2220 C   0  0  0  0  0  0  0  0  0  0  0  0
  131.6530  118.4680   59.9580 C   0  0  0  0  0  0  0  0  0  0  0  0
  130.6940  117.6450   60.5410 C   0  0  0  0  0  0  0  0  0  0  0  0
  129.7270  118.1810   61.3840 C   0  0  0  0  0  0  0  0  0  0  0  0
  129.7210  119.5480   61.6450 C   0  0  0  0  0  0  0  0  0  0  0  0
  131.8330  122.5730   61.7130 C   0  0  0  0  0  0  0  0  0  0  0  0
  131.8070  123.9520   61.9740 C   0  0  0  0  0  0  0  0  0  0  0  0
  133.1140  124.6510   62.3660 C   0  0  0  0  0  0  0  0  0  0  0  0
  134.2000  123.9400   62.0560 F   0  0  0  0  0  0  0  0  0  0  0  0
  133.2070  125.8200   61.7320 F   0  0  0  0  0  0  0  0  0  0  0  0
  133.1360  124.8610   63.6810 F   0  0  0  0  0  0  0  0  0  0  0  0
  130.5500  124.6130   61.8600 C   0  0  0  0  0  0  0  0  0  0  0  0
  1  2  1  0
  2  3  2  0
  3  4  1  0
  4  5  2  0
  4  6  1  0
  6  7  1  0
  7  8  1  0
  8  9  2  0
  9 10  1  0
 10 11  2  0
 11 12  1  0
 12 13  2  0
  3 14  1  0
 14 15  1  0
 15 16  2  0
 16 17  1  0
 17 18  1  0
 18 19  2  0
 19 20  1  0
 20 21  2  0
 21 22  1  0
 22 23  2  0
 17 24  2  0
 24 25  1  0
 25 26  1  0
 26 27  1  0
 26 28  1  0
 26 29  1  0
 25 30  2  0
 30  2  1  0
 13  8  1  0
 30 15  1  0
 23 18  1  0
M  END
>  <Binding energies>  (56) 
[-7.76]

>  <Ligand effiencies>  (56) 
[-0.23515151515151514]

>  <Interactions>  (56) 
["V-B:TYR:539:CD2:9846, V-B:TYR:539:CE2:9848, V-A:ASP:366:CG:3213, V-A:GLY:454:CA:4049, V-A:ILE:369:CD1:3239, V-A:ARG:545:CZ:4926, V-A:LEU:475:CD2:4259, V-B:ARG:545:CZ:9898, V-A:GLU:543:CD:4908, V-B:TYR:484:CZ:9319, V-B:GLY:454:CA:9021, V-B:ALA:541:CB:9864, V-A:TYR:484:CZ:4347, V-B:GLU:543:CD:9880, H-A:GLU:543:OE1:4909, V-B:GLY:453:CA:9016, V-B:HIS:456:CE1:9042, V-B:ARG:545:CD:9895, V-B:GLY:453:C:9014, V-B:ARG:545:CG:9894, V-A:SER:385:CB:3409, V-A:PRO:482:CG:4327, V-A:LEU:475:CG:4257, V-A:PRO:482:CB:4326, V-A:LEU:475:CD1:4258, V-B:TYR:484:CE1:9317, H-B:GLU:543:OE1:9881, H-B:GLU:543:OE2:9882, H-A:GLU:543:OE2:4910, V-A:GLY:453:C:4042, H-A:ASP:366:OD1:3214, V-A:GLY:453:CA:4044"]

$$$$
4ch_Grossjean_2025
     RDKit          3D

 36 39  0  0  0  0  0  0  0  0999 V2000
  126.3840  127.2150   67.4000 C   0  0  0  0  0  0  0  0  0  0  0  0
  125.4630  128.1900   66.9230 O   0  0  0  0  0  0  0  0  0  0  0  0
  125.6160  128.7000   65.6460 C   0  0  0  0  0  0  0  0  0  0  0  0
  126.8300  128.6920   64.9390 C   0  0  0  0  0  0  0  0  0  0  0  0
  126.9110  129.2230   63.6510 C   0  0  0  0  0  0  0  0  0  0  0  0
  128.2430  129.2320   62.9100 C   0  0  0  0  0  0  0  0  0  0  0  0
  128.7790  127.9010   62.6230 N   0  0  0  0  0  0  0  0  0  0  0  0
  128.0730  126.8590   62.1360 C   0  0  0  0  0  0  0  0  0  0  0  0
  126.8760  126.9440   61.8530 O   0  0  0  0  0  0  0  0  0  0  0  0
  128.8210  125.6190   61.9250 C   0  0  0  0  0  0  0  0  0  0  0  0
  127.9660  124.1210   61.5730 S   0  0  0  0  0  0  0  0  0  0  0  0
  129.4700  123.2410   61.4460 C   0  0  0  0  0  0  0  0  0  0  0  0
  129.4920  121.9380   61.1790 N   0  0  0  0  0  0  0  0  0  0  0  0
  130.7090  121.3410   61.0940 C   0  0  0  0  0  0  0  0  0  0  0  0
  130.6990  119.8680   60.7970 C   0  0  0  0  0  0  0  0  0  0  0  0
  131.6260  119.3090   59.9020 C   0  0  0  0  0  0  0  0  0  0  0  0
  131.6220  117.9450   59.6220 C   0  0  0  0  0  0  0  0  0  0  0  0
  130.6870  117.1180   60.2340 C   0  0  0  0  0  0  0  0  0  0  0  0
  129.7550  117.6460   61.1220 C   0  0  0  0  0  0  0  0  0  0  0  0
  129.7610  119.0110   61.3970 C   0  0  0  0  0  0  0  0  0  0  0  0
  131.8970  122.0510   61.2950 C   0  0  0  0  0  0  0  0  0  0  0  0
  131.8860  123.4270   61.5800 C   0  0  0  0  0  0  0  0  0  0  0  0
  133.2230  124.1440   61.7890 C   0  0  0  0  0  0  0  0  0  0  0  0
  133.3120  124.7520   62.9750 F   0  0  0  0  0  0  0  0  0  0  0  0
  134.2230  123.2670   61.7150 F   0  0  0  0  0  0  0  0  0  0  0  0
  133.3870  125.0770   60.8510 F   0  0  0  0  0  0  0  0  0  0  0  0
  130.6150  124.0650   61.6580 C   0  0  0  0  0  0  0  0  0  0  0  0
  130.2120  125.4260   61.9180 C   0  0  0  0  0  0  0  0  0  0  0  0
  131.1100  126.4370   62.1490 N   0  0  0  0  0  0  0  0  0  0  0  0
  125.7750  129.7830   63.0650 C   0  0  0  0  0  0  0  0  0  0  0  0
  124.5490  129.8050   63.7490 C   0  0  0  0  0  0  0  0  0  0  0  0
  123.3850  130.3420   63.2290 O   0  0  0  0  0  0  0  0  0  0  0  0
  123.2100  130.3970   61.8170 C   0  0  0  0  0  0  0  0  0  0  0  0
  124.4820  129.2540   65.0370 C   0  0  0  0  0  0  0  0  0  0  0  0
  123.2920  129.2830   65.7230 O   0  0  0  0  0  0  0  0  0  0  0  0
  123.3680  129.9290   66.9860 C   0  0  0  0  0  0  0  0  0  0  0  0
  1  2  1  0
  2  3  1  0
  3  4  2  0
  4  5  1  0
  5  6  1  0
  6  7  1  0
  7  8  1  0
  8  9  2  0
  8 10  1  0
 10 11  1  0
 11 12  1  0
 12 13  2  0
 13 14  1  0
 14 15  1  0
 15 16  2  0
 16 17  1  0
 17 18  2  0
 18 19  1  0
 19 20  2  0
 14 21  2  0
 21 22  1  0
 22 23  1  0
 23 24  1  0
 23 25  1  0
 23 26  1  0
 22 27  2  0
 27 28  1  0
 28 29  1  0
  5 30  2  0
 30 31  1  0
 31 32  1  0
 32 33  1  0
 31 34  2  0
 34 35  1  0
 35 36  1  0
 34  3  1  0
 28 10  2  0
 27 12  1  0
 20 15  1  0
M  END
>  <Binding energies>  (57) 
[-8.37]

>  <Ligand effiencies>  (57) 
[-0.2146153846153846]

>  <Interactions>  (57) 
["V-B:TYR:539:C:9839, V-B:ASP:366:CG:8185, V-B:TYR:539:CD2:9846, V-B:TYR:539:CE2:9848, V-A:ASP:366:CG:3213, V-A:GLY:454:CA:4049, V-A:ILE:369:CD1:3239, V-A:ARG:545:CZ:4926, V-A:LEU:475:CD2:4259, V-B:TYR:539:CG:9844, V-B:ILE:369:CD1:8211, V-B:ARG:545:CZ:9898, V-A:GLU:543:CD:4908, V-B:TYR:484:CZ:9319, V-B:GLY:454:CA:9021, V-A:ASP:366:CB:3212, V-B:ALA:541:CB:9864, V-B:GLU:543:CD:9880, H-A:GLU:543:OE1:4909, V-B:GLY:453:CA:9016, H-B:GLY:454:N:9022, V-B:HIS:456:CE1:9042, V-B:ARG:545:CD:9895, V-B:GLY:453:C:9014, V-B:ARG:545:CG:9894, H-B:HIS:456:ND1:9039, V-A:SER:385:CB:3409, V-B:TYR:539:CB:9843, V-A:PRO:482:CG:4327, V-A:PRO:482:CB:4326, V-A:LEU:475:CD1:4258, V-B:TYR:484:CE1:9317, V-B:GLY:454:C:9019, V-B:ILE:455:C:9024, H-B:ARG:545:NH1:9899, H-B:ARG:545:NH2:9900, H-B:ARG:545:NE:9896, H-A:GLU:543:OE2:4910, V-A:GLY:453:C:4042, H-A:ASP:366:OD2:3215, H-A:ASP:366:OD1:3214, V-B:GLU:543:CB:9878"]

$$$$
4cj_Grossjean_2025
     RDKit          3D

 28 31  0  0  0  0  0  0  0  0999 V2000
  129.8510  131.1840   62.2930 N   0  0  0  0  0  0  0  0  0  0  0  0
  128.9920  131.3400   61.2350 C   0  0  0  0  0  0  0  0  0  0  0  0
  127.5970  131.4050   61.3790 C   0  0  0  0  0  0  0  0  0  0  0  0
  126.8010  131.3350   62.6080 C   0  0  0  0  0  0  0  0  0  0  0  0
  126.4510  132.3630   63.1920 O   0  0  0  0  0  0  0  0  0  0  0  0
  126.5030  130.0840   63.0380 N   0  0  0  0  0  0  0  0  0  0  0  0
  125.7680  129.7430   64.1650 C   0  0  0  0  0  0  0  0  0  0  0  0
  124.5000  129.9990   64.4100 N   0  0  0  0  0  0  0  0  0  0  0  0
  124.1280  129.5250   65.5820 C   0  0  0  0  0  0  0  0  0  0  0  0
  125.1070  128.8630   66.3180 C   0  0  0  0  0  0  0  0  0  0  0  0
  126.5930  128.8680   65.4150 S   0  0  0  0  0  0  0  0  0  0  0  0
  126.8040  131.6200   59.8200 S   0  0  0  0  0  0  0  0  0  0  0  0
  128.3420  131.6180   58.9890 C   0  0  0  0  0  0  0  0  0  0  0  0
  128.4170  131.7620   57.6680 N   0  0  0  0  0  0  0  0  0  0  0  0
  129.6550  131.7560   57.1110 C   0  0  0  0  0  0  0  0  0  0  0  0
  129.7050  131.9330   55.6210 C   0  0  0  0  0  0  0  0  0  0  0  0
  128.6080  132.4640   54.9230 C   0  0  0  0  0  0  0  0  0  0  0  0
  128.6460  132.6250   53.5400 C   0  0  0  0  0  0  0  0  0  0  0  0
  129.7850  132.2540   52.8330 C   0  0  0  0  0  0  0  0  0  0  0  0
  130.8830  131.7230   53.4990 C   0  0  0  0  0  0  0  0  0  0  0  0
  130.8420  131.5650   54.8810 C   0  0  0  0  0  0  0  0  0  0  0  0
  130.8100  131.5820   57.8810 C   0  0  0  0  0  0  0  0  0  0  0  0
  130.7430  131.4270   59.2740 C   0  0  0  0  0  0  0  0  0  0  0  0
  132.0480  131.2440   60.0570 C   0  0  0  0  0  0  0  0  0  0  0  0
  132.2910  132.2400   60.9110 F   0  0  0  0  0  0  0  0  0  0  0  0
  131.9940  130.1150   60.7640 F   0  0  0  0  0  0  0  0  0  0  0  0
  133.0770  131.1840   59.2110 F   0  0  0  0  0  0  0  0  0  0  0  0
  129.4500  131.4510   59.8710 C   0  0  0  0  0  0  0  0  0  0  0  0
  1  2  1  0
  2  3  2  0
  3  4  1  0
  4  5  2  0
  4  6  1  0
  6  7  1  0
  7  8  2  0
  8  9  1  0
  9 10  2  0
 10 11  1  0
  3 12  1  0
 12 13  1  0
 13 14  2  0
 14 15  1  0
 15 16  1  0
 16 17  2  0
 17 18  1  0
 18 19  2  0
 19 20  1  0
 20 21  2  0
 15 22  2  0
 22 23  1  0
 23 24  1  0
 24 25  1  0
 24 26  1  0
 24 27  1  0
 23 28  2  0
 28  2  1  0
 11  7  1  0
 28 13  1  0
 21 16  1  0
M  END
>  <Binding energies>  (58) 
[-7.39]

>  <Ligand effiencies>  (58) 
[-0.23838709677419354]

>  <Interactions>  (58) 
["V-A:PRO:540:N:4884, V-A:MET:535:CG:4833, V-A:TYR:531:CZ:4794, V-A:ILE:538:CA:4860, V-A:TYR:539:CZ:4877, V-A:PRO:540:CA:4883, V-A:ILE:538:CG2:4863, V-A:TYR:539:CG:4872, V-A:TYR:539:CD2:4874, V-A:TYR:539:CE2:4876, V-A:ASP:366:CG:3213, V-A:ALA:541:CB:4892, V-A:GLU:543:CG:4907, V-B:ARG:545:CZ:9898, V-A:MET:535:CB:4832, V-A:GLU:543:CD:4908, V-A:ILE:538:CB:4862, V-A:PRO:540:CB:4885, V-A:ALA:541:CA:4890, V-A:ALA:541:C:4888, V-A:TYR:531:CE2:4793, V-A:PRO:540:C:4881, H-A:GLU:543:OE1:4909, V-B:GLY:453:CA:9016, H-B:GLY:454:N:9022, V-B:HIS:456:CE1:9042, V-B:ARG:545:CD:9895, V-B:GLY:453:C:9014, V-B:ARG:545:CG:9894, H-B:TYR:484:OH:9320"]

$$$$
4ck_Grossjean_2025
     RDKit          3D

 33 35  0  0  0  0  0  0  0  0999 V2000
  132.3420  131.1120   61.3370 C   0  0  0  0  0  0  0  0  0  0  0  0
  131.2470  131.8970   60.8920 O   0  0  0  0  0  0  0  0  0  0  0  0
  130.3530  131.1910   60.0430 C   0  0  0  0  0  0  0  0  0  0  0  0
  129.7300  132.1730   59.0440 C   0  0  0  0  0  0  0  0  0  0  0  0
  130.0150  131.7340   57.7230 O   0  0  0  0  0  0  0  0  0  0  0  0
  131.3770  131.9030   57.3500 C   0  0  0  0  0  0  0  0  0  0  0  0
  131.4430  132.6720   56.0250 C   0  0  0  0  0  0  0  0  0  0  0  0
  130.1190  132.9180   55.5720 O   0  0  0  0  0  0  0  0  0  0  0  0
  129.9010  132.5630   54.2120 C   0  0  0  0  0  0  0  0  0  0  0  0
  128.8450  131.4500   54.1340 C   0  0  0  0  0  0  0  0  0  0  0  0
  128.2630  131.1510   55.4420 N   0  0  0  0  0  0  0  0  0  0  0  0
  127.4210  130.1330   55.7180 C   0  0  0  0  0  0  0  0  0  0  0  0
  127.0720  129.3100   54.8700 O   0  0  0  0  0  0  0  0  0  0  0  0
  126.9500  130.0510   57.1010 C   0  0  0  0  0  0  0  0  0  0  0  0
  128.0020  129.4040   58.3570 S   0  0  0  0  0  0  0  0  0  0  0  0
  126.7930  129.7010   59.5830 C   0  0  0  0  0  0  0  0  0  0  0  0
  127.0090  129.3990   60.8610 N   0  0  0  0  0  0  0  0  0  0  0  0
  126.0100  129.6650   61.7420 C   0  0  0  0  0  0  0  0  0  0  0  0
  126.2930  129.3290   63.1780 C   0  0  0  0  0  0  0  0  0  0  0  0
  127.6130  129.2110   63.6420 C   0  0  0  0  0  0  0  0  0  0  0  0
  127.8820  128.8970   64.9720 C   0  0  0  0  0  0  0  0  0  0  0  0
  126.8310  128.6970   65.8600 C   0  0  0  0  0  0  0  0  0  0  0  0
  125.5140  128.8130   65.4280 C   0  0  0  0  0  0  0  0  0  0  0  0
  125.2490  129.1280   64.0980 C   0  0  0  0  0  0  0  0  0  0  0  0
  124.8010  130.2410   61.3370 C   0  0  0  0  0  0  0  0  0  0  0  0
  124.5620  130.5630   59.9910 C   0  0  0  0  0  0  0  0  0  0  0  0
  123.2130  131.1890   59.6160 C   0  0  0  0  0  0  0  0  0  0  0  0
  123.2110  132.5200   59.7020 F   0  0  0  0  0  0  0  0  0  0  0  0
  122.9020  130.8690   58.3600 F   0  0  0  0  0  0  0  0  0  0  0  0
  122.2630  130.7340   60.4340 F   0  0  0  0  0  0  0  0  0  0  0  0
  125.6020  130.2860   59.0590 C   0  0  0  0  0  0  0  0  0  0  0  0
  125.7250  130.4810   57.6340 C   0  0  0  0  0  0  0  0  0  0  0  0
  124.7290  131.0360   56.8720 N   0  0  0  0  0  0  0  0  0  0  0  0
  1  2  1  0
  2  3  1  0
  3  4  1  0
  4  5  1  0
  5  6  1  0
  6  7  1  0
  7  8  1  0
  8  9  1  0
  9 10  1  0
 10 11  1  0
 11 12  1  0
 12 13  2  0
 12 14  1  0
 14 15  1  0
 15 16  1  0
 16 17  2  0
 17 18  1  0
 18 19  1  0
 19 20  2  0
 20 21  1  0
 21 22  2  0
 22 23  1  0
 23 24  2  0
 18 25  2  0
 25 26  1  0
 26 27  1  0
 27 28  1  0
 27 29  1  0
 27 30  1  0
 26 31  2  0
 31 32  1  0
 32 33  1  0
 32 14  2  0
 31 16  1  0
 24 19  1  0
M  END
>  <Binding energies>  (59) 
[-6.7]

>  <Ligand effiencies>  (59) 
[-0.18611111111111112]

>  <Interactions>  (59) 
["V-A:PRO:540:N:4884, V-A:TYR:539:CE1:4875, H-A:TYR:539:N:4870, V-B:ASP:366:CG:8185, H-A:ALA:541:N:4891, V-A:ILE:538:CA:4860, V-A:TYR:539:CZ:4877, V-A:PRO:540:CA:4883, V-A:ILE:538:CG2:4863, H-B:LYS:534:NZ:9795, H-A:TYR:539:OH:4878, V-A:TYR:539:C:4867, V-A:GLU:543:CG:4907, V-B:ILE:369:CD1:8211, V-B:ARG:545:CZ:9898, V-A:GLU:543:CD:4908, V-A:ILE:538:CB:4862, V-B:ASP:366:CB:8184, V-B:ILE:369:CG2:8209, V-A:PRO:540:CB:4885, V-B:ILE:369:CB:8208, V-B:ASP:366:C:8180, V-A:PRO:540:CD:4887, V-A:ASN:362:CB:3176, V-B:ASP:366:CA:8182, V-B:GLU:543:CD:9880, V-B:HIS:456:CE1:9042, V-B:ARG:545:CD:9895, V-A:ILE:538:C:4858, H-B:ASP:366:O:8181, V-B:CYS:365:C:8176, V-B:ILE:369:CG1:8210"]

$$$$
4dd_Grossjean_2025
     RDKit          3D

 26 29  0  0  0  0  0  0  0  0999 V2000
  133.1320  131.1170   58.8370 C   0  0  0  0  0  0  0  0  0  0  0  0
  131.6910  131.3150   58.3910 C   0  0  0  0  0  0  0  0  0  0  0  0
  131.4420  131.5000   57.0260 C   0  0  0  0  0  0  0  0  0  0  0  0
  130.1370  131.6870   56.5520 C   0  0  0  0  0  0  0  0  0  0  0  0
  129.8410  131.8930   55.0960 C   0  0  0  0  0  0  0  0  0  0  0  0
  128.6130  132.4320   54.6800 C   0  0  0  0  0  0  0  0  0  0  0  0
  128.3320  132.6280   53.3310 C   0  0  0  0  0  0  0  0  0  0  0  0
  129.2800  132.2860   52.3730 C   0  0  0  0  0  0  0  0  0  0  0  0
  130.5060  131.7520   52.7550 C   0  0  0  0  0  0  0  0  0  0  0  0
  130.7830  131.5590   54.1070 C   0  0  0  0  0  0  0  0  0  0  0  0
  129.0650  131.7100   57.3890 N   0  0  0  0  0  0  0  0  0  0  0  0
  129.3000  131.5280   58.6880 C   0  0  0  0  0  0  0  0  0  0  0  0
  128.0130  131.5160   59.8720 S   0  0  0  0  0  0  0  0  0  0  0  0
  129.1580  131.2330   61.1840 C   0  0  0  0  0  0  0  0  0  0  0  0
  128.6860  131.0940   62.5630 C   0  0  0  0  0  0  0  0  0  0  0  0
  129.1090  131.8390   63.4490 O   0  0  0  0  0  0  0  0  0  0  0  0
  127.7710  130.1160   62.7680 N   0  0  0  0  0  0  0  0  0  0  0  0
  127.1650  129.6910   63.9650 C   0  0  0  0  0  0  0  0  0  0  0  0
  125.7680  129.6440   63.9590 C   0  0  0  0  0  0  0  0  0  0  0  0
  125.0750  129.2230   65.0910 C   0  0  0  0  0  0  0  0  0  0  0  0
  125.7800  128.8410   66.2290 C   0  0  0  0  0  0  0  0  0  0  0  0
  127.1720  128.8710   66.2440 C   0  0  0  0  0  0  0  0  0  0  0  0
  127.8680  129.2910   65.1140 C   0  0  0  0  0  0  0  0  0  0  0  0
  130.4740  131.1610   60.7000 C   0  0  0  0  0  0  0  0  0  0  0  0
  131.5710  130.9530   61.4980 N   0  0  0  0  0  0  0  0  0  0  0  0
  130.5810  131.3240   59.2740 C   0  0  0  0  0  0  0  0  0  0  0  0
  1  2  1  0
  2  3  2  0
  3  4  1  0
  4  5  1  0
  5  6  2  0
  6  7  1  0
  7  8  2  0
  8  9  1  0
  9 10  2  0
  4 11  2  0
 11 12  1  0
 12 13  1  0
 13 14  1  0
 14 15  1  0
 15 16  2  0
 15 17  1  0
 17 18  1  0
 18 19  2  0
 19 20  1  0
 20 21  2  0
 21 22  1  0
 22 23  2  0
 14 24  2  0
 24 25  1  0
 24 26  1  0
 26  2  1  0
 10  5  1  0
 26 12  2  0
 23 18  1  0
M  END
>  <Binding energies>  (60) 
[-7.96]

>  <Ligand effiencies>  (60) 
[-0.27448275862068966]

>  <Interactions>  (60) 
["V-A:MET:535:CG:4833, V-A:MET:535:CE:4835, V-A:TYR:531:CZ:4794, V-A:ILE:538:CA:4860, V-A:TYR:539:CZ:4877, V-A:PRO:540:CA:4883, V-A:ILE:538:CG2:4863, V-A:VAL:537:C:4850, V-A:TYR:539:CG:4872, V-A:TYR:539:CD2:4874, V-A:TYR:539:CE2:4876, V-A:ASP:366:CG:3213, V-A:GLU:543:CG:4907, V-B:ARG:545:CZ:9898, V-A:MET:535:CB:4832, V-A:GLU:543:CD:4908, V-A:ILE:538:CB:4862, V-B:TYR:484:CZ:9319, V-A:PRO:540:CB:4885, V-A:LEU:363:CA:3185, V-A:TYR:531:CE2:4793, H-A:GLU:543:OE1:4909, V-B:HIS:456:CE1:9042, V-B:ARG:545:CD:9895, V-B:ARG:545:CG:9894, V-A:GLU:543:CB:4906, H-A:ASP:366:OD1:3214, H-A:ALA:541:O:4889"]

$$$$
4dg_Grossjean_2025
     RDKit          3D

 27 30  0  0  0  0  0  0  0  0999 V2000
  125.9960  129.2720   63.8860 C   0  0  0  0  0  0  0  0  0  0  0  0
  126.0970  129.7980   62.4620 C   0  0  0  0  0  0  0  0  0  0  0  0
  125.9480  131.1740   62.2540 C   0  0  0  0  0  0  0  0  0  0  0  0
  126.0300  131.7210   60.9680 C   0  0  0  0  0  0  0  0  0  0  0  0
  125.8760  133.1940   60.7140 C   0  0  0  0  0  0  0  0  0  0  0  0
  126.9590  134.0720   60.8820 C   0  0  0  0  0  0  0  0  0  0  0  0
  126.8200  135.4390   60.6520 C   0  0  0  0  0  0  0  0  0  0  0  0
  125.5920  135.9490   60.2490 C   0  0  0  0  0  0  0  0  0  0  0  0
  124.5000  135.1030   60.0780 C   0  0  0  0  0  0  0  0  0  0  0  0
  124.6430  133.7380   60.3100 C   0  0  0  0  0  0  0  0  0  0  0  0
  126.2750  130.9490   59.8740 N   0  0  0  0  0  0  0  0  0  0  0  0
  126.4170  129.6390   60.0700 C   0  0  0  0  0  0  0  0  0  0  0  0
  126.7270  128.5340   58.7520 S   0  0  0  0  0  0  0  0  0  0  0  0
  126.7650  127.1590   59.8550 C   0  0  0  0  0  0  0  0  0  0  0  0
  126.9620  125.8060   59.3370 C   0  0  0  0  0  0  0  0  0  0  0  0
  127.8770  125.5450   58.5530 O   0  0  0  0  0  0  0  0  0  0  0  0
  126.0610  124.8850   59.7390 N   0  0  0  0  0  0  0  0  0  0  0  0
  126.0740  123.4700   59.3670 C   0  0  0  0  0  0  0  0  0  0  0  0
  126.0680  123.2410   57.8600 C   0  0  0  0  0  0  0  0  0  0  0  0
  127.2770  123.0790   57.1770 C   0  0  0  0  0  0  0  0  0  0  0  0
  127.2740  122.8380   55.8060 C   0  0  0  0  0  0  0  0  0  0  0  0
  126.0630  122.7470   55.1240 C   0  0  0  0  0  0  0  0  0  0  0  0
  124.8540  122.8910   55.8010 C   0  0  0  0  0  0  0  0  0  0  0  0
  124.8560  123.1310   57.1720 C   0  0  0  0  0  0  0  0  0  0  0  0
  126.5290  127.5610   61.1780 C   0  0  0  0  0  0  0  0  0  0  0  0
  126.4880  126.6960   62.2430 N   0  0  0  0  0  0  0  0  0  0  0  0
  126.3390  128.9790   61.3290 C   0  0  0  0  0  0  0  0  0  0  0  0
  1  2  1  0
  2  3  2  0
  3  4  1  0
  4  5  1  0
  5  6  2  0
  6  7  1  0
  7  8  2  0
  8  9  1  0
  9 10  2  0
  4 11  2  0
 11 12  1  0
 12 13  1  0
 13 14  1  0
 14 15  1  0
 15 16  2  0
 15 17  1  0
 17 18  1  0
 18 19  1  0
 19 20  2  0
 20 21  1  0
 21 22  2  0
 22 23  1  0
 23 24  2  0
 14 25  2  0
 25 26  1  0
 25 27  1  0
 27  2  1  0
 10  5  1  0
 27 12  2  0
 24 19  1  0
M  END
>  <Binding energies>  (61) 
[-8.17]

>  <Ligand effiencies>  (61) 
[-0.2723333333333333]

>  <Interactions>  (61) 
["V-B:PRO:540:CB:9857, V-A:TYR:539:CE1:4875, V-B:TYR:531:CE2:9765, V-B:ASP:366:CG:8185, V-B:TYR:539:CD1:9845, V-A:TYR:539:CD1:4873, V-B:LEU:475:CD2:9231, V-B:ILE:538:CA:9832, V-B:PRO:540:N:9856, V-B:PRO:540:CA:9855, V-B:MET:535:CE:9807, V-B:TYR:539:CE1:9847, V-B:TYR:531:CZ:9766, V-B:TYR:539:CZ:9849, V-B:LEU:363:CD1:8161, V-B:PRO:540:CD:9859, V-B:ILE:538:CD1:9837, V-B:ILE:538:CG2:9835, V-B:ARG:545:CZ:9898, V-B:ILE:369:CG2:8209, V-B:GLU:543:CD:9880, V-B:SER:385:CB:8381, H-B:ASP:366:OD2:8187, H-B:GLU:543:OE1:9881, H-B:GLU:543:OE2:9882, V-B:SER:385:CA:8379"]

$$$$
4dj_Grossjean_2025
     RDKit          3D

 25 28  0  0  0  0  0  0  0  0999 V2000
  132.0310  131.4930   60.0300 C   0  0  0  0  0  0  0  0  0  0  0  0
  130.7280  131.5970   59.2520 C   0  0  0  0  0  0  0  0  0  0  0  0
  130.7990  131.7240   57.8600 C   0  0  0  0  0  0  0  0  0  0  0  0
  129.6370  131.8270   57.0860 C   0  0  0  0  0  0  0  0  0  0  0  0
  129.6820  131.9590   55.5900 C   0  0  0  0  0  0  0  0  0  0  0  0
  130.7890  131.4960   54.8600 C   0  0  0  0  0  0  0  0  0  0  0  0
  130.8380  131.6160   53.4730 C   0  0  0  0  0  0  0  0  0  0  0  0
  129.7770  132.2060   52.7940 C   0  0  0  0  0  0  0  0  0  0  0  0
  128.6710  132.6770   53.4920 C   0  0  0  0  0  0  0  0  0  0  0  0
  128.6260  132.5540   54.8780 C   0  0  0  0  0  0  0  0  0  0  0  0
  128.3960  131.7900   57.6450 N   0  0  0  0  0  0  0  0  0  0  0  0
  128.3270  131.6700   58.9700 C   0  0  0  0  0  0  0  0  0  0  0  0
  126.7980  131.6180   59.8180 S   0  0  0  0  0  0  0  0  0  0  0  0
  127.6130  131.4580   61.3750 C   0  0  0  0  0  0  0  0  0  0  0  0
  126.8360  131.3670   62.6110 C   0  0  0  0  0  0  0  0  0  0  0  0
  126.5360  132.3830   63.2440 O   0  0  0  0  0  0  0  0  0  0  0  0
  126.4940  130.1120   62.9940 N   0  0  0  0  0  0  0  0  0  0  0  0
  125.7660  129.7520   64.1200 C   0  0  0  0  0  0  0  0  0  0  0  0
  124.5000  130.0040   64.3780 N   0  0  0  0  0  0  0  0  0  0  0  0
  124.1370  129.5100   65.5460 C   0  0  0  0  0  0  0  0  0  0  0  0
  125.1200  128.8370   66.2630 C   0  0  0  0  0  0  0  0  0  0  0  0
  126.6000  128.8580   65.3500 S   0  0  0  0  0  0  0  0  0  0  0  0
  129.0080  131.4520   61.2160 C   0  0  0  0  0  0  0  0  0  0  0  0
  129.8940  131.3430   62.2590 N   0  0  0  0  0  0  0  0  0  0  0  0
  129.4410  131.5690   59.8500 C   0  0  0  0  0  0  0  0  0  0  0  0
  1  2  1  0
  2  3  2  0
  3  4  1  0
  4  5  1  0
  5  6  2  0
  6  7  1  0
  7  8  2  0
  8  9  1  0
  9 10  2  0
  4 11  2  0
 11 12  1  0
 12 13  1  0
 13 14  1  0
 14 15  1  0
 15 16  2  0
 15 17  1  0
 17 18  1  0
 18 19  2  0
 19 20  1  0
 20 21  2  0
 21 22  1  0
 14 23  2  0
 23 24  1  0
 23 25  1  0
 25  2  1  0
 10  5  1  0
 25 12  2  0
 22 18  1  0
M  END
>  <Binding energies>  (62) 
[-7.8]

>  <Ligand effiencies>  (62) 
[-0.2785714285714286]

>  <Interactions>  (62) 
["V-A:PRO:540:N:4884, V-A:MET:535:CG:4833, V-A:TYR:531:CZ:4794, V-A:ILE:538:CA:4860, V-A:TYR:539:CZ:4877, V-A:PRO:540:CA:4883, V-A:ILE:538:CG2:4863, V-A:TYR:539:CG:4872, V-A:TYR:539:CD2:4874, V-A:TYR:539:CE2:4876, V-A:ALA:541:CB:4892, V-A:GLU:543:CG:4907, V-B:ARG:545:CZ:9898, V-A:MET:535:CB:4832, V-A:GLU:543:CD:4908, V-A:ILE:538:CB:4862, V-A:PRO:540:CB:4885, V-A:TYR:531:CE2:4793, V-A:PRO:540:C:4881, H-A:GLU:543:OE1:4909, V-B:GLY:453:CA:9016, H-B:GLY:454:N:9022, V-B:HIS:456:CE1:9042, V-B:ARG:545:CD:9895, V-B:GLY:453:C:9014, V-B:ARG:545:CG:9894, H-B:TYR:484:OH:9320"]

$$$$
4ea_Grossjean_2025
     RDKit          3D

 31 34  0  0  0  0  0  0  0  0999 V2000
  127.4790  137.8700   59.7980 C   0  0  0  0  0  0  0  0  0  0  0  0
  126.8310  137.4440   61.1180 C   0  0  0  0  0  0  0  0  0  0  0  0
  126.7390  136.0260   61.1620 O   0  0  0  0  0  0  0  0  0  0  0  0
  125.7510  135.3660   60.5040 C   0  0  0  0  0  0  0  0  0  0  0  0
  124.8330  135.9370   59.9070 O   0  0  0  0  0  0  0  0  0  0  0  0
  125.8860  133.8730   60.5760 C   0  0  0  0  0  0  0  0  0  0  0  0
  126.9240  133.2460   59.8730 C   0  0  0  0  0  0  0  0  0  0  0  0
  127.0760  131.8630   59.9190 C   0  0  0  0  0  0  0  0  0  0  0  0
  126.1970  131.0790   60.6660 C   0  0  0  0  0  0  0  0  0  0  0  0
  126.4480  129.6930   60.6390 N   0  0  0  0  0  0  0  0  0  0  0  0
  125.9880  128.7330   59.7990 C   0  0  0  0  0  0  0  0  0  0  0  0
  125.2200  128.9440   58.8600 O   0  0  0  0  0  0  0  0  0  0  0  0
  126.4690  127.3770   60.0770 C   0  0  0  0  0  0  0  0  0  0  0  0
  127.2530  127.0060   61.6150 S   0  0  0  0  0  0  0  0  0  0  0  0
  127.4850  125.3370   61.1490 C   0  0  0  0  0  0  0  0  0  0  0  0
  128.0770  124.4550   61.9560 N   0  0  0  0  0  0  0  0  0  0  0  0
  128.1960  123.1930   61.4760 C   0  0  0  0  0  0  0  0  0  0  0  0
  128.8720  122.2070   62.4100 C   0  0  0  0  0  0  0  0  0  0  0  0
  127.7400  122.7960   60.2200 C   0  0  0  0  0  0  0  0  0  0  0  0
  127.1190  123.7230   59.3770 C   0  0  0  0  0  0  0  0  0  0  0  0
  126.6410  123.2860   58.0460 C   0  0  0  0  0  0  0  0  0  0  0  0
  125.2700  123.1600   57.7990 C   0  0  0  0  0  0  0  0  0  0  0  0
  124.8190  122.7510   56.5470 C   0  0  0  0  0  0  0  0  0  0  0  0
  125.7400  122.4640   55.5420 C   0  0  0  0  0  0  0  0  0  0  0  0
  127.1070  122.5820   55.7790 C   0  0  0  0  0  0  0  0  0  0  0  0
  127.5570  122.9910   57.0320 C   0  0  0  0  0  0  0  0  0  0  0  0
  126.9760  125.0590   59.8440 C   0  0  0  0  0  0  0  0  0  0  0  0
  126.4020  126.2410   59.2560 C   0  0  0  0  0  0  0  0  0  0  0  0
  125.8440  126.2370   58.0030 N   0  0  0  0  0  0  0  0  0  0  0  0
  125.1550  131.6980   61.3730 C   0  0  0  0  0  0  0  0  0  0  0  0
  125.0040  133.0800   61.3260 C   0  0  0  0  0  0  0  0  0  0  0  0
  1  2  1  0
  2  3  1  0
  3  4  1  0
  4  5  2  0
  4  6  1  0
  6  7  2  0
  7  8  1  0
  8  9  2  0
  9 10  1  0
 10 11  1  0
 11 12  2  0
 11 13  1  0
 13 14  1  0
 14 15  1  0
 15 16  2  0
 16 17  1  0
 17 18  1  0
 17 19  2  0
 19 20  1  0
 20 21  1  0
 21 22  2  0
 22 23  1  0
 23 24  2  0
 24 25  1  0
 25 26  2  0
 20 27  2  0
 27 28  1  0
 28 29  1  0
  9 30  1  0
 30 31  2  0
 31  6  1  0
 28 13  2  0
 27 15  1  0
 26 21  1  0
M  END
>  <Binding energies>  (63) 
[-7.87]

>  <Ligand effiencies>  (63) 
[-0.23147058823529412]

>  <Interactions>  (63) 
["V-B:PRO:540:CB:9857, V-B:TYR:539:C:9839, V-A:TYR:539:CE1:4875, V-B:ILE:538:C:9830, V-B:TYR:531:CE2:9765, V-B:ASP:366:CG:8185, V-B:TYR:539:CD1:9845, V-A:TYR:539:CD1:4873, V-B:LEU:475:CD2:9231, V-B:ILE:538:CA:9832, V-B:PRO:540:N:9856, V-B:PRO:540:CA:9855, V-B:TYR:539:CD2:9846, V-B:MET:535:CE:9807, V-B:TYR:539:CE2:9848, V-B:TYR:539:CE1:9847, V-B:TYR:531:CZ:9766, V-B:TYR:539:CZ:9849, V-A:TYR:539:C:4867, V-B:LEU:363:CD1:8161, V-B:PRO:540:CD:9859, V-B:ILE:538:CD1:9837, V-B:ILE:538:CG2:9835, V-B:TYR:539:CG:9844, H-B:TYR:531:OH:9767, V-B:ASP:366:CB:8184, V-B:ILE:538:CB:9834, V-A:TYR:484:CE1:4345, V-B:ALA:541:CB:9864, V-B:PRO:482:CG:9299, V-B:PRO:482:CB:9298, H-B:ASP:366:OD2:8187, H-B:SER:385:OG:8382, V-A:TYR:539:CB:4871, V-A:VAL:344:CG1:3001"]

$$$$
4eb_Grossjean_2025
     RDKit          3D

 30 33  0  0  0  0  0  0  0  0999 V2000
  127.1210  137.2350   60.2490 C   0  0  0  0  0  0  0  0  0  0  0  0
  126.3870  136.2510   60.9630 O   0  0  0  0  0  0  0  0  0  0  0  0
  125.4840  135.4570   60.3300 C   0  0  0  0  0  0  0  0  0  0  0  0
  124.4720  135.8890   59.7730 O   0  0  0  0  0  0  0  0  0  0  0  0
  125.8420  133.9990   60.3770 C   0  0  0  0  0  0  0  0  0  0  0  0
  124.8300  133.0410   60.2270 C   0  0  0  0  0  0  0  0  0  0  0  0
  125.1300  131.6830   60.2650 C   0  0  0  0  0  0  0  0  0  0  0  0
  126.4440  131.2530   60.4530 C   0  0  0  0  0  0  0  0  0  0  0  0
  126.6290  129.8560   60.4750 N   0  0  0  0  0  0  0  0  0  0  0  0
  126.0990  128.8890   59.6870 C   0  0  0  0  0  0  0  0  0  0  0  0
  125.3150  129.1000   58.7610 O   0  0  0  0  0  0  0  0  0  0  0  0
  126.5230  127.5230   60.0050 C   0  0  0  0  0  0  0  0  0  0  0  0
  127.3470  127.1760   61.5270 S   0  0  0  0  0  0  0  0  0  0  0  0
  127.4780  125.4780   61.1240 C   0  0  0  0  0  0  0  0  0  0  0  0
  128.0570  124.6020   61.9460 N   0  0  0  0  0  0  0  0  0  0  0  0
  128.0940  123.3170   61.5170 C   0  0  0  0  0  0  0  0  0  0  0  0
  128.7580  122.3370   62.4680 C   0  0  0  0  0  0  0  0  0  0  0  0
  127.5720  122.8920   60.2980 C   0  0  0  0  0  0  0  0  0  0  0  0
  126.9650  123.8150   59.4390 C   0  0  0  0  0  0  0  0  0  0  0  0
  126.4130  123.3480   58.1460 C   0  0  0  0  0  0  0  0  0  0  0  0
  125.0300  123.2690   57.9600 C   0  0  0  0  0  0  0  0  0  0  0  0
  124.5110  122.8310   56.7440 C   0  0  0  0  0  0  0  0  0  0  0  0
  125.3770  122.4700   55.7150 C   0  0  0  0  0  0  0  0  0  0  0  0
  126.7570  122.5420   55.8920 C   0  0  0  0  0  0  0  0  0  0  0  0
  127.2740  122.9800   57.1080 C   0  0  0  0  0  0  0  0  0  0  0  0
  126.9060  125.1740   59.8530 C   0  0  0  0  0  0  0  0  0  0  0  0
  126.3690  126.3580   59.2370 C   0  0  0  0  0  0  0  0  0  0  0  0
  125.7620  126.3320   58.0060 N   0  0  0  0  0  0  0  0  0  0  0  0
  127.4640  132.2040   60.6040 C   0  0  0  0  0  0  0  0  0  0  0  0
  127.1630  133.5630   60.5660 C   0  0  0  0  0  0  0  0  0  0  0  0
  1  2  1  0
  2  3  1  0
  3  4  2  0
  3  5  1  0
  5  6  2  0
  6  7  1  0
  7  8  2  0
  8  9  1  0
  9 10  1  0
 10 11  2  0
 10 12  1  0
 12 13  1  0
 13 14  1  0
 14 15  2  0
 15 16  1  0
 16 17  1  0
 16 18  2  0
 18 19  1  0
 19 20  1  0
 20 21  2  0
 21 22  1  0
 22 23  2  0
 23 24  1  0
 24 25  2  0
 19 26  2  0
 26 27  1  0
 27 28  1  0
  8 29  1  0
 29 30  2  0
 30  5  1  0
 27 12  2  0
 26 14  1  0
 25 20  1  0
M  END
>  <Binding energies>  (64) 
[-7.57]

>  <Ligand effiencies>  (64) 
[-0.2293939393939394]

>  <Interactions>  (64) 
["V-B:PRO:540:CB:9857, V-B:TYR:539:C:9839, V-A:TYR:539:CE1:4875, V-B:ILE:538:C:9830, V-B:TYR:531:CE2:9765, V-B:ASP:366:CG:8185, V-B:TYR:539:CD1:9845, V-A:TYR:539:CD1:4873, V-B:LEU:475:CD2:9231, V-B:ILE:538:CA:9832, V-B:PRO:540:N:9856, V-B:PRO:540:CA:9855, V-B:TYR:531:CZ:9766, V-A:TYR:539:C:4867, V-B:PRO:540:CG:9858, V-B:LEU:363:CD1:8161, V-B:PRO:540:CD:9859, V-B:ILE:538:CD1:9837, V-B:ILE:538:CG2:9835, H-B:TYR:531:OH:9767, V-B:ASP:366:CB:8184, V-B:ILE:369:CG2:8209, V-B:ILE:538:CB:9834, V-A:TYR:484:CE1:4345, V-B:ALA:541:CB:9864, V-B:PRO:482:CG:9299, V-B:PRO:482:CB:9298, H-B:ASP:366:OD2:8187, H-B:SER:385:OG:8382, V-A:TYR:539:CB:4871"]

$$$$
8b_Ghoteimi_2023
     RDKit          3D

 34 38  0  0  0  0  0  0  0  0999 V2000
  133.6900  125.1870   66.2240 C   0  0  0  0  0  0  0  0  0  0  0  0
  133.9630  124.7470   64.8970 O   0  0  0  0  0  0  0  0  0  0  0  0
  133.1250  125.1420   63.8720 C   0  0  0  0  0  0  0  0  0  0  0  0
  133.5450  124.8470   62.5760 C   0  0  0  0  0  0  0  0  0  0  0  0
  132.7660  125.2070   61.4810 C   0  0  0  0  0  0  0  0  0  0  0  0
  131.5440  125.8730   61.6530 C   0  0  0  0  0  0  0  0  0  0  0  0
  130.7040  126.2650   60.4790 C   0  0  0  0  0  0  0  0  0  0  0  0
  129.9010  125.3370   59.8060 C   0  0  0  0  0  0  0  0  0  0  0  0
  129.1250  125.7290   58.7110 C   0  0  0  0  0  0  0  0  0  0  0  0
  128.2940  124.7200   58.0140 C   0  0  0  0  0  0  0  0  0  0  0  0
  127.1420  124.2170   58.6210 C   0  0  0  0  0  0  0  0  0  0  0  0
  126.3570  123.2760   57.9600 C   0  0  0  0  0  0  0  0  0  0  0  0
  126.7110  122.8240   56.6880 C   0  0  0  0  0  0  0  0  0  0  0  0
  125.8720  121.8920   56.1090 O   0  0  0  0  0  0  0  0  0  0  0  0
  124.4690  122.1370   56.0880 C   0  0  0  0  0  0  0  0  0  0  0  0
  127.8710  123.3290   56.0820 C   0  0  0  0  0  0  0  0  0  0  0  0
  128.6550  124.2710   56.7430 C   0  0  0  0  0  0  0  0  0  0  0  0
  129.1700  127.0920   58.3120 C   0  0  0  0  0  0  0  0  0  0  0  0
  128.5130  127.8240   57.2610 C   0  0  0  0  0  0  0  0  0  0  0  0
  127.6390  127.2290   56.3880 N   0  0  0  0  0  0  0  0  0  0  0  0
  128.8490  129.1860   57.2220 C   0  0  0  0  0  0  0  0  0  0  0  0
  128.3690  130.2160   56.2980 C   0  0  0  0  0  0  0  0  0  0  0  0
  127.3340  130.8440   56.5360 O   0  0  0  0  0  0  0  0  0  0  0  0
  129.1360  130.4110   55.1950 N   0  0  0  0  0  0  0  0  0  0  0  0
  128.9210  131.3180   54.1660 C   0  0  0  0  0  0  0  0  0  0  0  0
  128.9170  132.6990   54.3560 C   0  0  0  0  0  0  0  0  0  0  0  0
  128.6690  133.2310   53.1120 C   0  0  0  0  0  0  0  0  0  0  0  0
  128.5340  132.2240   52.2170 O   0  0  0  0  0  0  0  0  0  0  0  0
  128.6970  131.0150   52.8970 N   0  0  0  0  0  0  0  0  0  0  0  0
  129.9960  129.5970   58.4980 S   0  0  0  0  0  0  0  0  0  0  0  0
  130.0180  127.9460   59.0740 C   0  0  0  0  0  0  0  0  0  0  0  0
  130.7610  127.5740   60.1160 N   0  0  0  0  0  0  0  0  0  0  0  0
  131.1260  126.1640   62.9590 C   0  0  0  0  0  0  0  0  0  0  0  0
  131.9030  125.8060   64.0570 C   0  0  0  0  0  0  0  0  0  0  0  0
  1  2  1  0
  2  3  1  0
  3  4  2  0
  4  5  1  0
  5  6  2  0
  6  7  1  0
  7  8  2  0
  8  9  1  0
  9 10  1  0
 10 11  2  0
 11 12  1  0
 12 13  2  0
 13 14  1  0
 14 15  1  0
 13 16  1  0
 16 17  2  0
  9 18  2  0
 18 19  1  0
 19 20  1  0
 19 21  2  0
 21 22  1  0
 22 23  2  0
 22 24  1  0
 24 25  1  0
 25 26  1  0
 26 27  2  0
 27 28  1  0
 28 29  1  0
 21 30  1  0
 30 31  1  0
 31 32  2  0
  6 33  1  0
 33 34  2  0
 34  3  1  0
 32  7  1  0
 17 10  1  0
 31 18  1  0
 29 25  2  0
M  END
>  <Binding energies>  (65) 
[-8.38]

>  <Ligand effiencies>  (65) 
[-0.2264864864864865]

>  <Interactions>  (65) 
["V-B:PRO:540:CB:9857, V-B:TYR:531:CE2:9765, V-B:TYR:539:CD1:9845, V-B:ILE:538:CA:9832, V-B:PRO:540:N:9856, V-B:PRO:540:CA:9855, V-A:ILE:538:CA:4860, V-A:ILE:538:CG2:4863, V-B:MET:535:CE:9807, H-B:LYS:534:NZ:9795, V-B:TYR:539:CE2:9848, V-B:TYR:539:CE1:9847, V-A:VAL:537:C:4850, V-B:TYR:539:CZ:9849, V-A:TYR:539:CG:4872, V-B:PRO:540:CG:9858, V-B:LEU:363:CD1:8161, V-A:TYR:539:CD2:4874, V-B:PRO:540:CD:9859, V-B:ILE:538:CD1:9837, V-A:TYR:539:CE2:4876, V-B:ILE:538:CG2:9835, V-A:ASP:366:CG:3213, V-A:ARG:545:CZ:4926, V-A:GLU:543:CD:4908, V-A:ILE:538:CB:4862, H-B:TYR:531:OH:9767, H-A:TYR:531:OH:4795, H-B:MET:535:SD:9806, V-B:ILE:538:CB:9834, V-A:TYR:484:CZ:4347, H-B:TYR:539:N:9842, V-A:ILE:538:C:4858, H-A:TYR:484:OH:4348, H-A:ARG:545:NE:4924, V-A:TYR:484:CE2:4346, V-A:ARG:545:CD:4923, H-A:GLY:454:N:4050, V-A:HIS:456:CE1:4070, V-A:ARG:545:CG:4922, V-A:ILE:455:C:4052"]

$$$$
9d_Ghoteimi_2023
     RDKit          3D

 38 43  0  0  0  0  0  0  0  0999 V2000
  127.0590  132.4080   63.0810 C   0  0  0  0  0  0  0  0  0  0  0  0
  125.7900  131.8930   62.7050 O   0  0  0  0  0  0  0  0  0  0  0  0
  125.3940  130.6570   63.1070 C   0  0  0  0  0  0  0  0  0  0  0  0
  124.5180  130.4550   63.9530 O   0  0  0  0  0  0  0  0  0  0  0  0
  126.1260  129.5670   62.4260 C   0  0  0  0  0  0  0  0  0  0  0  0
  126.3770  128.0290   63.2510 S   0  0  0  0  0  0  0  0  0  0  0  0
  127.2110  127.3740   61.8620 C   0  0  0  0  0  0  0  0  0  0  0  0
  127.6640  126.1210   61.8460 N   0  0  0  0  0  0  0  0  0  0  0  0
  128.2840  125.7030   60.7120 C   0  0  0  0  0  0  0  0  0  0  0  0
  128.7600  124.2860   60.7080 C   0  0  0  0  0  0  0  0  0  0  0  0
  130.0540  123.9730   60.2770 C   0  0  0  0  0  0  0  0  0  0  0  0
  130.5070  122.6570   60.2670 C   0  0  0  0  0  0  0  0  0  0  0  0
  129.6850  121.6040   60.7000 C   0  0  0  0  0  0  0  0  0  0  0  0
  130.1200  120.2740   60.6790 N   0  0  0  0  0  0  0  0  0  0  0  0
  131.4920  119.9210   60.2610 C   0  0  0  0  0  0  0  0  0  0  0  0
  131.6870  118.4190   59.9670 C   0  0  0  0  0  0  0  0  0  0  0  0
  131.2820  117.6480   61.0860 O   0  0  0  0  0  0  0  0  0  0  0  0
  129.9120  117.8540   61.3900 C   0  0  0  0  0  0  0  0  0  0  0  0
  129.6590  119.3390   61.7270 C   0  0  0  0  0  0  0  0  0  0  0  0
  128.3840  121.9210   61.1170 C   0  0  0  0  0  0  0  0  0  0  0  0
  127.9310  123.2380   61.1230 C   0  0  0  0  0  0  0  0  0  0  0  0
  128.4770  126.5450   59.6140 C   0  0  0  0  0  0  0  0  0  0  0  0
  128.0210  127.8680   59.6330 C   0  0  0  0  0  0  0  0  0  0  0  0
  128.2780  128.7290   58.4490 C   0  0  0  0  0  0  0  0  0  0  0  0
  129.4370  129.5050   58.3690 C   0  0  0  0  0  0  0  0  0  0  0  0
  129.6820  130.2960   57.2490 C   0  0  0  0  0  0  0  0  0  0  0  0
  128.7810  130.3190   56.1720 C   0  0  0  0  0  0  0  0  0  0  0  0
  129.0000  131.1100   55.0430 N   0  0  0  0  0  0  0  0  0  0  0  0
  127.8630  131.8360   54.4440 C   0  0  0  0  0  0  0  0  0  0  0  0
  128.2970  132.9540   53.4720 C   0  0  0  0  0  0  0  0  0  0  0  0
  129.1450  132.4210   52.4660 O   0  0  0  0  0  0  0  0  0  0  0  0
  130.3160  131.8390   53.0200 C   0  0  0  0  0  0  0  0  0  0  0  0
  129.9300  130.6910   53.9770 C   0  0  0  0  0  0  0  0  0  0  0  0
  127.6210  129.5370   56.2640 C   0  0  0  0  0  0  0  0  0  0  0  0
  127.3760  128.7480   57.3840 C   0  0  0  0  0  0  0  0  0  0  0  0
  127.3320  128.3140   60.7950 C   0  0  0  0  0  0  0  0  0  0  0  0
  126.6840  129.5520   61.1420 C   0  0  0  0  0  0  0  0  0  0  0  0
  126.6010  130.6160   60.2800 N   0  0  0  0  0  0  0  0  0  0  0  0
  1  2  1  0
  2  3  1  0
  3  4  2  0
  3  5  1  0
  5  6  1  0
  6  7  1  0
  7  8  2  0
  8  9  1  0
  9 10  1  0
 10 11  2  0
 11 12  1  0
 12 13  2  0
 13 14  1  0
 14 15  1  0
 15 16  1  0
 16 17  1  0
 17 18  1  0
 18 19  1  0
 13 20  1  0
 20 21  2  0
  9 22  2  0
 22 23  1  0
 23 24  1  0
 24 25  2  0
 25 26  1  0
 26 27  2  0
 27 28  1  0
 28 29  1  0
 29 30  1  0
 30 31  1  0
 31 32  1  0
 32 33  1  0
 27 34  1  0
 34 35  2  0
 23 36  2  0
 36 37  1  0
 37 38  1  0
 37  5  2  0
 36  7  1  0
 21 10  1  0
 35 24  1  0
 19 14  1  0
 33 28  1  0
M  END
>  <Binding energies>  (66) 
[-6.32]

>  <Ligand effiencies>  (66) 
[-0.158]

>  <Interactions>  (66) 
["V-B:TYR:539:C:9839, V-A:MET:535:CG:4833, V-B:LEU:475:CD2:9231, V-B:PRO:540:CA:9855, V-A:MET:535:CE:4835, V-A:ILE:538:CA:4860, V-B:TYR:539:CD2:9846, V-A:TYR:539:CZ:4877, V-A:ILE:538:CG2:4863, H-B:LYS:534:NZ:9795, V-B:TYR:539:CE2:9848, V-A:TYR:539:CD2:4874, V-A:TYR:539:CE2:4876, V-A:ALA:541:CB:4892, V-A:LEU:475:CD2:4259, V-B:ARG:545:CZ:9898, V-A:MET:535:CB:4832, V-A:ILE:538:CB:4862, V-B:ALA:541:CB:9864, V-B:PRO:540:C:9853, V-B:GLU:543:CD:9880, H-B:GLY:454:N:9022, H-B:TYR:484:OH:9320, V-A:SER:385:CB:3409, V-A:PRO:482:CG:4327, V-A:LEU:475:CG:4257, V-A:PRO:482:CB:4326, V-A:LEU:475:CD1:4258, H-A:SER:385:OG:3410"]

$$$$
RR10_Rahimova_2017
     RDKit          3D

 34 38  0  0  0  0  0  0  0  0999 V2000
  133.5220  124.3780   57.7050 C   0  0  0  0  0  0  0  0  0  0  0  0
  133.4170  124.1090   59.2160 C   0  0  1  0  0  0  0  0  0  0  0  0
  132.5040  125.1370   59.9230 C   0  0  0  0  0  0  0  0  0  0  0  0
  132.4410  124.8690   61.4430 C   0  0  0  0  0  0  0  0  0  0  0  0
  131.9370  123.4380   61.7640 C   0  0  1  0  0  0  0  0  0  0  0  0
  130.5230  123.2900   61.3970 N   0  0  0  0  0  0  0  0  0  0  0  0
  129.7330  122.2540   61.7360 C   0  0  0  0  0  0  0  0  0  0  0  0
  130.1240  121.3090   62.4260 O   0  0  0  0  0  0  0  0  0  0  0  0
  128.2850  122.2820   61.2050 C   0  0  1  0  0  0  0  0  0  0  0  0
  127.3880  123.0650   62.1990 C   0  0  0  0  0  0  0  0  0  0  0  0
  125.9550  123.1750   61.6250 C   0  0  0  0  0  0  0  0  0  0  0  0
  125.9350  123.7360   60.1840 C   0  0  0  0  0  0  0  0  0  0  0  0
  126.8670  122.9730   59.3110 N   0  0  0  0  0  0  0  0  0  0  0  0
  126.7090  123.3270   57.5820 S   0  0  0  0  0  0  0  0  0  0  0  0
  125.4020  123.9600   57.3640 O   0  0  0  0  0  0  0  0  0  0  0  0
  127.0770  122.1160   56.8380 O   0  0  0  0  0  0  0  0  0  0  0  0
  127.9490  124.5780   57.2480 C   0  0  0  0  0  0  0  0  0  0  0  0
  129.3030  124.2550   57.3880 C   0  0  0  0  0  0  0  0  0  0  0  0
  130.3180  125.1850   57.1450 C   0  0  0  0  0  0  0  0  0  0  0  0
  129.9130  126.4620   56.7490 C   0  0  0  0  0  0  0  0  0  0  0  0
  130.5840  127.6180   56.4320 N   0  0  0  0  0  0  0  0  0  0  0  0
  129.6480  128.5800   56.1120 C   0  0  0  0  0  0  0  0  0  0  0  0
  130.0010  129.9850   55.7190 C   0  0  0  0  0  0  0  0  0  0  0  0
  130.9270  130.7210   56.4710 C   0  0  0  0  0  0  0  0  0  0  0  0
  131.2580  132.0230   56.1050 C   0  0  0  0  0  0  0  0  0  0  0  0
  130.6630  132.5980   54.9840 C   0  0  0  0  0  0  0  0  0  0  0  0
  129.7420  131.8800   54.2260 C   0  0  0  0  0  0  0  0  0  0  0  0
  129.4120  130.5780   54.5930 C   0  0  0  0  0  0  0  0  0  0  0  0
  128.4200  128.1170   56.1950 N   0  0  0  0  0  0  0  0  0  0  0  0
  128.5500  126.8120   56.5900 C   0  0  0  0  0  0  0  0  0  0  0  0
  127.5540  125.8570   56.8390 C   0  0  0  0  0  0  0  0  0  0  0  0
  128.2650  122.9550   59.8110 C   0  0  0  0  0  0  0  0  0  0  0  0
  132.8520  122.4170   61.0340 C   0  0  0  0  0  0  0  0  0  0  0  0
  132.9110  122.6770   59.5120 C   0  0  0  0  0  0  0  0  0  0  0  0
  2  1  1  6
  2  3  1  0
  3  4  1  0
  4  5  1  0
  5  6  1  6
  6  7  1  0
  7  8  2  0
  9  7  1  1
  9 10  1  0
 10 11  1  0
 11 12  1  0
 12 13  1  0
 13 14  1  0
 14 15  2  0
 14 16  2  0
 14 17  1  0
 17 18  2  0
 18 19  1  0
 19 20  2  0
 20 21  1  0
 21 22  1  0
 22 23  1  0
 23 24  2  0
 24 25  1  0
 25 26  2  0
 26 27  1  0
 27 28  2  0
 22 29  2  0
 29 30  1  0
 30 31  2  0
 13 32  1  0
  5 33  1  0
 33 34  1  0
 34  2  1  0
 32  9  1  0
 31 17  1  0
 30 20  1  0
 28 23  1  0
M  END
>  <Binding energies>  (67) 
[-10.72]

>  <Ligand effiencies>  (67) 
[-0.2977777777777778]

>  <Interactions>  (67) 
["V-B:PRO:540:CB:9857, V-A:PRO:540:N:4884, V-B:PRO:540:N:9856, V-B:PRO:540:CA:9855, V-A:ILE:538:CA:4860, V-B:TYR:539:CD2:9846, V-A:ILE:538:CG2:4863, V-B:MET:535:CE:9807, V-B:TYR:539:CE2:9848, V-B:TYR:539:CZ:9849, V-A:ASP:366:CG:3213, V-A:ILE:369:CD1:3239, V-A:ILE:369:CG2:3237, V-A:LEU:475:CD2:4259, V-A:ILE:538:CB:4862, H-B:TYR:531:OH:9767, V-A:ASP:366:CB:3212, H-A:TYR:531:OH:4795, V-A:ASP:366:CA:3210, V-A:ILE:369:CB:3236, V-B:ALA:541:CB:9864, V-B:PRO:540:C:9853, V-B:GLU:543:CD:9880, V-B:GLU:543:CG:9879, H-B:TYR:539:N:9842, H-A:TYR:484:OH:4348, V-A:ASP:366:C:3208"]

$$$$
RR12_Rahimova_2017
     RDKit          3D

 26 28  0  0  0  0  0  0  0  0999 V2000
  133.7400  130.7750   58.0030 C   0  0  0  0  0  0  0  0  0  0  0  0
  132.4680  130.6390   57.1550 C   0  0  0  0  0  0  0  0  0  0  0  0
  131.9830  131.9890   56.5960 C   0  0  0  0  0  0  0  0  0  0  0  0
  130.5960  132.2400   56.9800 N   0  0  0  0  0  0  0  0  0  0  0  0
  129.5340  132.5580   56.1470 C   0  0  0  0  0  0  0  0  0  0  0  0
  129.6630  132.7480   54.6460 C   0  0  0  0  0  0  0  0  0  0  0  0
  128.6720  131.8720   53.8570 C   0  0  0  0  0  0  0  0  0  0  0  0
  128.3770  130.5300   54.5540 C   0  0  0  0  0  0  0  0  0  0  0  0
  127.1890  130.5560   55.4060 N   0  0  0  0  0  0  0  0  0  0  0  0
  126.2920  129.5590   55.5090 C   0  0  0  0  0  0  0  0  0  0  0  0
  126.3810  128.5020   54.8790 O   0  0  0  0  0  0  0  0  0  0  0  0
  125.1280  129.8100   56.4760 C   0  0  0  0  0  0  0  0  0  0  0  0
  125.4820  130.8520   57.3870 O   0  0  0  0  0  0  0  0  0  0  0  0
  124.9620  130.8370   58.6670 C   0  0  0  0  0  0  0  0  0  0  0  0
  123.9780  131.7890   58.9480 C   0  0  0  0  0  0  0  0  0  0  0  0
  123.3930  131.8490   60.2100 C   0  0  0  0  0  0  0  0  0  0  0  0
  123.7910  130.9530   61.1980 C   0  0  0  0  0  0  0  0  0  0  0  0
  124.7720  129.9990   60.9360 C   0  0  0  0  0  0  0  0  0  0  0  0
  125.3580  129.9400   59.6730 C   0  0  0  0  0  0  0  0  0  0  0  0
  128.3990  132.6990   56.7850 N   0  0  0  0  0  0  0  0  0  0  0  0
  128.6960  132.4420   58.0940 C   0  0  0  0  0  0  0  0  0  0  0  0
  127.8440  132.4400   59.2090 C   0  0  0  0  0  0  0  0  0  0  0  0
  128.3940  132.1360   60.4550 C   0  0  0  0  0  0  0  0  0  0  0  0
  129.7500  131.8400   60.5960 C   0  0  0  0  0  0  0  0  0  0  0  0
  130.6230  131.8360   59.5070 C   0  0  0  0  0  0  0  0  0  0  0  0
  130.0720  132.1420   58.2560 C   0  0  0  0  0  0  0  0  0  0  0  0
  1  2  1  0
  2  3  1  0
  3  4  1  0
  4  5  1  0
  5  6  1  0
  6  7  1  0
  7  8  1  0
  8  9  1  0
  9 10  1  0
 10 11  2  0
 10 12  1  0
 12 13  1  0
 13 14  1  0
 14 15  2  0
 15 16  1  0
 16 17  2  0
 17 18  1  0
 18 19  2  0
  5 20  2  0
 20 21  1  0
 21 22  2  0
 22 23  1  0
 23 24  2  0
 24 25  1  0
 25 26  2  0
 26  4  1  0
 19 14  1  0
 26 21  1  0
M  END
>  <Binding energies>  (68) 
[-6.83]

>  <Ligand effiencies>  (68) 
[-0.25296296296296295]

>  <Interactions>  (68) 
["V-A:PRO:540:N:4884, V-A:TYR:539:CE1:4875, V-B:ASP:366:CG:8185, V-A:TYR:539:CD1:4873, V-A:ILE:538:CA:4860, V-A:TYR:539:CZ:4877, V-A:PRO:540:CA:4883, V-A:ILE:538:CG2:4863, H-B:LYS:534:NZ:9795, H-A:TYR:539:OH:4878, V-A:TYR:539:C:4867, V-A:TYR:539:CG:4872, V-A:TYR:539:CD2:4874, V-A:TYR:539:CE2:4876, V-A:ASP:366:CG:3213, V-B:ILE:369:CD1:8211, V-A:ILE:538:CB:4862, V-B:TYR:531:CE1:9764, H-B:TYR:531:OH:9767, V-B:ILE:369:CG2:8209, V-A:PRO:540:CB:4885, V-B:ILE:369:CB:8208, V-A:ASP:366:CB:3212, V-A:LEU:363:CA:3185, V-A:PRO:540:CD:4887, V-A:LEU:363:CD1:3189, V-A:PRO:540:C:4881, V-A:ILE:538:C:4858, V-A:TYR:539:CA:4869, V-A:LEU:363:CB:3187, V-B:ILE:369:CG1:8210"]

$$$$
RR13_Rahimova_2017
     RDKit          3D

 48 54  0  0  0  0  0  0  0  0999 V2000
  128.1900  132.0890   56.8980 Cl  0  0  0  0  0  0  0  0  0  0  0  0
  129.8520  131.6050   56.8980 C   0  0  0  0  0  0  0  0  0  0  0  0
  130.8070  132.5570   56.5350 C   0  0  0  0  0  0  0  0  0  0  0  0
  132.1580  132.2240   56.4950 C   0  0  0  0  0  0  0  0  0  0  0  0
  132.5650  130.9320   56.8160 C   0  0  0  0  0  0  0  0  0  0  0  0
  131.6180  129.9760   57.1800 C   0  0  0  0  0  0  0  0  0  0  0  0
  130.2520  130.2960   57.2380 C   0  0  0  0  0  0  0  0  0  0  0  0
  129.2200  129.2120   57.6200 C   0  0  1  0  0  0  0  0  0  0  0  0
  128.2580  128.9320   56.4560 C   0  0  0  0  0  0  0  0  0  0  0  0
  128.3770  129.3580   55.2180 N   0  0  0  0  0  0  0  0  0  0  0  0
  127.2620  128.8760   54.5390 N   0  0  0  0  0  0  0  0  0  0  0  0
  126.4530  128.1640   55.4020 N   0  0  0  0  0  0  0  0  0  0  0  0
  127.0760  128.2330   56.5840 N   0  0  0  0  0  0  0  0  0  0  0  0
  126.5260  127.5510   57.7490 C   0  0  0  0  0  0  0  0  0  0  0  0
  126.3200  128.5490   58.9040 C   0  0  0  0  0  0  0  0  0  0  0  0
  125.2700  129.5990   58.5760 C   0  0  0  0  0  0  0  0  0  0  0  0
  124.7090  129.6490   57.2970 C   0  0  0  0  0  0  0  0  0  0  0  0
  123.7540  130.6160   56.9950 C   0  0  0  0  0  0  0  0  0  0  0  0
  123.3630  131.5290   57.9720 C   0  0  0  0  0  0  0  0  0  0  0  0
  123.9200  131.4850   59.2480 C   0  0  0  0  0  0  0  0  0  0  0  0
  124.8760  130.5190   59.5520 C   0  0  0  0  0  0  0  0  0  0  0  0
  129.8360  127.9740   58.1550 N   0  0  0  0  0  0  0  0  0  0  0  0
  129.5530  126.8310   57.2670 C   0  0  0  0  0  0  0  0  0  0  0  0
  130.3020  125.5650   57.7460 C   0  0  0  0  0  0  0  0  0  0  0  0
  129.8660  125.1860   59.1010 N   0  0  0  0  0  0  0  0  0  0  0  0
  130.4980  123.9300   59.5680 C   0  0  1  0  0  0  0  0  0  0  0  0
  131.8320  124.0990   60.3280 C   0  0  0  0  0  0  0  0  0  0  0  0
  131.7750  124.1110   61.7280 C   0  0  0  0  0  0  0  0  0  0  0  0
  132.9320  124.2410   62.4960 C   0  0  0  0  0  0  0  0  0  0  0  0
  134.1690  124.3690   61.8700 C   0  0  0  0  0  0  0  0  0  0  0  0
  134.2460  124.3760   60.4810 C   0  0  0  0  0  0  0  0  0  0  0  0
  133.0920  124.2500   59.7020 C   0  0  0  0  0  0  0  0  0  0  0  0
  133.2860  124.3390   57.9840 Cl  0  0  0  0  0  0  0  0  0  0  0  0
  129.5460  123.0400   60.3700 C   0  0  0  0  0  0  0  0  0  0  0  0
  129.8850  121.9470   61.0130 N   0  0  0  0  0  0  0  0  0  0  0  0
  128.7190  121.4760   61.6090 N   0  0  0  0  0  0  0  0  0  0  0  0
  127.6680  122.3230   61.3240 N   0  0  0  0  0  0  0  0  0  0  0  0
  128.2060  123.2930   60.5750 N   0  0  0  0  0  0  0  0  0  0  0  0
  127.3670  124.3720   60.0640 C   0  0  0  0  0  0  0  0  0  0  0  0
  126.0940  123.8000   59.4140 C   0  0  0  0  0  0  0  0  0  0  0  0
  126.3250  123.3830   57.9690 C   0  0  0  0  0  0  0  0  0  0  0  0
  127.5990  123.4950   57.4060 C   0  0  0  0  0  0  0  0  0  0  0  0
  127.8120  123.1060   56.0860 C   0  0  0  0  0  0  0  0  0  0  0  0
  126.7490  122.6090   55.3330 C   0  0  0  0  0  0  0  0  0  0  0  0
  125.4770  122.4950   55.8900 C   0  0  0  0  0  0  0  0  0  0  0  0
  125.2630  122.8820   57.2100 C   0  0  0  0  0  0  0  0  0  0  0  0
  130.1560  126.3290   59.9850 C   0  0  0  0  0  0  0  0  0  0  0  0
  129.3960  127.5880   59.5070 C   0  0  0  0  0  0  0  0  0  0  0  0
  1  2  1  0
  2  3  2  0
  3  4  1  0
  4  5  2  0
  5  6  1  0
  6  7  2  0
  7  8  1  0
  8  9  1  0
  9 10  2  0
 10 11  1  0
 11 12  2  0
 12 13  1  0
 13 14  1  0
 14 15  1  0
 15 16  1  0
 16 17  2  0
 17 18  1  0
 18 19  2  0
 19 20  1  0
 20 21  2  0
  8 22  1  6
 22 23  1  0
 23 24  1  0
 24 25  1  0
 26 25  1  1
 26 27  1  0
 27 28  2  0
 28 29  1  0
 29 30  2  0
 30 31  1  0
 31 32  2  0
 32 33  1  0
 26 34  1  0
 34 35  2  0
 35 36  1  0
 36 37  2  0
 37 38  1  0
 38 39  1  0
 39 40  1  0
 40 41  1  0
 41 42  2  0
 42 43  1  0
 43 44  2  0
 44 45  1  0
 45 46  2  0
 25 47  1  0
 47 48  1  0
  7  2  1  0
 13  9  1  0
 21 16  1  0
 48 22  1  0
 32 27  1  0
 38 34  1  0
 46 41  1  0
M  END
>  <Binding energies>  (69) 
[-13.29]

>  <Ligand effiencies>  (69) 
[-0.276875]

>  <Interactions>  (69) 
["V-B:PRO:540:CB:9857, V-A:PRO:540:N:4884, V-A:TYR:539:CE1:4875, V-B:ILE:538:C:9830, V-B:ASP:366:CG:8185, V-B:TYR:539:CD1:9845, V-A:TYR:539:CD1:4873, V-B:ILE:538:CA:9832, V-B:PRO:540:N:9856, V-B:PRO:540:CA:9855, V-A:TYR:539:CZ:4877, V-A:PRO:540:CA:4883, V-B:MET:535:CE:9807, H-B:LYS:534:NZ:9795, V-B:TYR:539:CE2:9848, V-B:TYR:539:CE1:9847, V-B:TYR:539:CZ:9849, V-A:TYR:539:C:4867, V-A:TYR:539:CG:4872, V-B:PRO:540:CD:9859, V-B:ILE:538:CD1:9837, V-B:ILE:538:CG2:9835, V-A:ASP:366:CG:3213, V-A:ILE:369:CD1:3239, V-A:ILE:369:CG2:3237, V-B:TYR:539:CG:9844, V-B:ILE:369:CD1:8211, V-B:TYR:531:CE1:9764, H-B:TYR:531:OH:9767, V-B:ASP:366:CB:8184, V-B:ILE:369:CG2:8209, V-A:PRO:540:CG:4886, V-A:PRO:540:CB:4885, V-B:ILE:369:CB:8208, V-A:ASP:366:CB:3212, V-B:ASP:366:C:8180, V-A:PRO:540:CD:4887, V-A:LEU:363:CD1:3189, V-B:ASP:366:CA:8182, V-A:ASP:366:CA:3210, V-A:ILE:369:CB:3236, H-B:ALA:541:N:9863, V-A:ASP:366:C:3208, V-A:GLY:453:C:4042, V-A:GLY:453:CA:4044"]

$$$$
RR14_Rahimova_2017
     RDKit          3D

 39 43  0  0  0  0  0  0  0  0999 V2000
  133.0620  131.1520   61.4140 C   0  0  0  0  0  0  0  0  0  0  0  0
  131.7600  131.6430   61.7140 O   0  0  0  0  0  0  0  0  0  0  0  0
  130.8200  131.7180   60.7050 C   0  0  0  0  0  0  0  0  0  0  0  0
  131.2250  131.2820   59.4430 C   0  0  0  0  0  0  0  0  0  0  0  0
  130.3550  131.3420   58.3590 C   0  0  0  0  0  0  0  0  0  0  0  0
  129.0630  131.8470   58.5290 C   0  0  0  0  0  0  0  0  0  0  0  0
  128.1290  131.9750   57.3310 C   0  0  0  0  0  0  0  0  0  0  0  0
  128.8360  132.0890   56.0560 N   0  0  0  0  0  0  0  0  0  0  0  0
  129.5410  133.1890   55.7690 N   0  0  0  0  0  0  0  0  0  0  0  0
  130.0360  132.9680   54.4990 N   0  0  0  0  0  0  0  0  0  0  0  0
  129.6120  131.7290   54.0300 N   0  0  0  0  0  0  0  0  0  0  0  0
  128.8790  131.2160   54.9900 C   0  0  0  0  0  0  0  0  0  0  0  0
  128.1710  129.8700   54.9290 C   0  0  0  0  0  0  0  0  0  0  0  0
  128.6570  128.9320   55.9550 N   0  0  0  0  0  0  0  0  0  0  0  0
  127.8070  127.7390   56.0540 C   0  0  0  0  0  0  0  0  0  0  0  0
  127.3630  127.4210   57.4980 C   0  0  0  0  0  0  0  0  0  0  0  0
  127.7100  125.9870   57.9520 C   0  0  0  0  0  0  0  0  0  0  0  0
  127.1270  124.9500   57.0960 N   0  0  0  0  0  0  0  0  0  0  0  0
  126.0480  124.2490   57.8060 C   0  0  0  0  0  0  0  0  0  0  0  0
  125.4460  123.1150   56.9510 C   0  0  0  0  0  0  0  0  0  0  0  0
  126.4740  122.2280   56.5200 O   0  0  0  0  0  0  0  0  0  0  0  0
  127.4610  122.8880   55.7350 C   0  0  0  0  0  0  0  0  0  0  0  0
  128.1250  124.0150   56.5550 C   0  0  0  0  0  0  0  0  0  0  0  0
  130.0480  128.5510   55.6730 C   0  0  0  0  0  0  0  0  0  0  0  0
  130.6810  127.5570   56.6450 C   0  0  0  0  0  0  0  0  0  0  0  0
  130.5770  127.7270   57.9850 C   0  0  0  0  0  0  0  0  0  0  0  0
  131.2140  126.8030   58.9470 C   0  0  0  0  0  0  0  0  0  0  0  0
  131.1100  126.9380   60.3410 C   0  0  0  0  0  0  0  0  0  0  0  0
  130.3150  128.0710   60.9770 C   0  0  0  0  0  0  0  0  0  0  0  0
  131.7490  126.0060   61.1640 C   0  0  0  0  0  0  0  0  0  0  0  0
  132.4820  124.9560   60.6130 C   0  0  0  0  0  0  0  0  0  0  0  0
  132.5890  124.8120   59.2270 C   0  0  0  0  0  0  0  0  0  0  0  0
  133.3940  123.6520   58.6560 C   0  0  0  0  0  0  0  0  0  0  0  0
  131.9510  125.7420   58.3920 C   0  0  0  0  0  0  0  0  0  0  0  0
  132.0340  125.6380   56.9870 N   0  0  0  0  0  0  0  0  0  0  0  0
  131.4670  126.4610   56.0690 C   0  0  0  0  0  0  0  0  0  0  0  0
  131.6350  126.2620   54.8660 O   0  0  0  0  0  0  0  0  0  0  0  0
  128.6380  132.2570   59.7940 C   0  0  0  0  0  0  0  0  0  0  0  0
  129.5110  132.1980   60.8760 C   0  0  0  0  0  0  0  0  0  0  0  0
  1  2  1  0
  2  3  1  0
  3  4  2  0
  4  5  1  0
  5  6  2  0
  6  7  1  0
  7  8  1  0
  8  9  1  0
  9 10  2  0
 10 11  1  0
 11 12  2  0
 12 13  1  0
 13 14  1  0
 14 15  1  0
 15 16  1  0
 16 17  1  0
 17 18  1  0
 18 19  1  0
 19 20  1  0
 20 21  1  0
 21 22  1  0
 22 23  1  0
 14 24  1  0
 24 25  1  0
 25 26  2  0
 26 27  1  0
 27 28  2  0
 28 29  1  0
 28 30  1  0
 30 31  2  0
 31 32  1  0
 32 33  1  0
 32 34  2  0
 34 35  1  0
 35 36  1  0
 36 37  2  0
  6 38  1  0
 38 39  2  0
 39  3  1  0
 12  8  1  0
 23 18  1  0
 36 25  1  0
 34 27  1  0
M  END
>  <Binding energies>  (70) 
[-11.0]

>  <Ligand effiencies>  (70) 
[-0.275]

>  <Interactions>  (70) 
["V-B:PRO:540:CB:9857, V-A:TYR:539:CE1:4875, H-A:TYR:539:N:4870, V-B:TYR:539:CD1:9845, V-A:TYR:539:CD1:4873, V-B:PRO:540:N:9856, H-A:ALA:541:N:4891, V-A:TYR:539:CZ:4877, V-A:PRO:540:CA:4883, V-B:MET:535:CE:9807, V-B:TYR:539:CE2:9848, V-B:TYR:539:CE1:9847, V-B:TYR:539:CZ:9849, V-A:TYR:539:CD2:4874, V-B:PRO:540:CD:9859, V-A:ASP:366:CG:3213, V-A:ALA:541:CB:4892, V-A:ILE:369:CG2:3237, V-B:TYR:539:CG:9844, V-A:GLU:543:CD:4908, H-B:TYR:531:OH:9767, V-A:PRO:540:CB:4885, V-A:ASP:366:CB:3212, H-A:TYR:531:OH:4795, V-A:ASN:362:CB:3176, V-A:ILE:369:CB:3236, H-B:TYR:539:N:9842, V-A:PRO:540:C:4881, H-B:TYR:539:OH:9850, H-A:ASP:366:O:3209"]

$$$$
RR15_Rahimova_2017
     RDKit          3D

 45 49  0  0  0  0  0  0  0  0999 V2000
  124.0850  129.6280   66.8110 C   0  0  0  0  0  0  0  0  0  0  0  0
  124.6940  128.6720   65.9500 O   0  0  0  0  0  0  0  0  0  0  0  0
  125.6180  129.0920   65.0090 C   0  0  0  0  0  0  0  0  0  0  0  0
  127.0030  128.9080   65.1440 C   0  0  0  0  0  0  0  0  0  0  0  0
  127.8800  129.3580   64.1600 C   0  0  0  0  0  0  0  0  0  0  0  0
  127.4020  130.0050   63.0160 C   0  0  0  0  0  0  0  0  0  0  0  0
  128.3490  130.4960   61.9570 C   0  0  0  0  0  0  0  0  0  0  0  0
  129.2900  131.4000   62.1940 N   0  0  0  0  0  0  0  0  0  0  0  0
  129.9410  131.5980   60.9940 N   0  0  0  0  0  0  0  0  0  0  0  0
  129.3350  130.7480   60.1640 N   0  0  0  0  0  0  0  0  0  0  0  0
  129.6070  130.7420   58.7280 C   0  0  0  0  0  0  0  0  0  0  0  0
  129.2660  129.4130   58.0080 C   0  0  0  0  0  0  0  0  0  0  0  0
  130.1740  128.8190   57.4200 O   0  0  0  0  0  0  0  0  0  0  0  0
  127.9920  128.9180   58.0660 N   0  0  0  0  0  0  0  0  0  0  0  0
  127.6330  127.8280   58.9940 C   0  0  0  0  0  0  0  0  0  0  0  0
  126.7400  126.7410   58.3550 C   0  0  0  0  0  0  0  0  0  0  0  0
  127.4280  125.3690   58.1590 C   0  0  0  0  0  0  0  0  0  0  0  0
  126.7870  124.5280   57.1430 N   0  0  0  0  0  0  0  0  0  0  0  0
  127.7220  123.6280   56.4510 C   0  0  0  0  0  0  0  0  0  0  0  0
  126.9850  122.7060   55.4550 C   0  0  0  0  0  0  0  0  0  0  0  0
  125.9460  121.9960   56.1200 O   0  0  0  0  0  0  0  0  0  0  0  0
  124.9820  122.8660   56.7040 C   0  0  0  0  0  0  0  0  0  0  0  0
  125.6640  123.7900   57.7370 C   0  0  0  0  0  0  0  0  0  0  0  0
  126.8330  129.5470   57.3610 C   0  0  2  0  0  0  0  0  0  0  0  0
  127.1500  130.0120   55.9050 C   0  0  0  0  0  0  0  0  0  0  0  0
  126.7780  129.3550   54.9330 O   0  0  0  0  0  0  0  0  0  0  0  0
  127.8080  131.1790   55.7970 N   0  0  0  0  0  0  0  0  0  0  0  0
  128.1210  131.8590   54.5450 C   0  0  0  0  0  0  0  0  0  0  0  0
  129.4630  132.6080   54.6390 C   0  0  2  0  0  0  0  0  0  0  0  0
  130.7150  131.7560   54.3620 C   0  0  0  0  0  0  0  0  0  0  0  0
  131.2750  131.4510   55.7310 C   0  0  0  0  0  0  0  0  0  0  0  0
  130.9160  132.7170   56.4900 C   0  0  0  0  0  0  0  0  0  0  0  0
  129.6060  133.0020   56.0100 O   0  0  0  0  0  0  0  0  0  0  0  0
  126.1210  130.5380   58.2740 C   0  0  0  0  0  0  0  0  0  0  0  0
  124.8120  130.2430   58.6750 C   0  0  0  0  0  0  0  0  0  0  0  0
  124.1130  131.1110   59.5080 C   0  0  0  0  0  0  0  0  0  0  0  0
  124.7190  132.2840   59.9490 C   0  0  0  0  0  0  0  0  0  0  0  0
  124.0410  133.1270   60.7590 F   0  0  0  0  0  0  0  0  0  0  0  0
  126.0210  132.5930   59.5630 C   0  0  0  0  0  0  0  0  0  0  0  0
  126.7190  131.7250   58.7290 C   0  0  0  0  0  0  0  0  0  0  0  0
  128.3160  130.0720   60.7070 N   0  0  0  0  0  0  0  0  0  0  0  0
  126.0180  130.1850   62.8830 C   0  0  0  0  0  0  0  0  0  0  0  0
  125.1210  129.7340   63.8660 C   0  0  0  0  0  0  0  0  0  0  0  0
  123.7480  129.8850   63.7780 O   0  0  0  0  0  0  0  0  0  0  0  0
  123.1410  130.0710   62.5040 C   0  0  0  0  0  0  0  0  0  0  0  0
  1  2  1  0
  2  3  1  0
  3  4  2  0
  4  5  1  0
  5  6  2  0
  6  7  1  0
  7  8  1  0
  8  9  2  0
  9 10  1  0
 10 11  1  0
 11 12  1  0
 12 13  2  0
 12 14  1  0
 14 15  1  0
 15 16  1  0
 16 17  1  0
 17 18  1  0
 18 19  1  0
 19 20  1  0
 20 21  1  0
 21 22  1  0
 22 23  1  0
 24 14  1  1
 24 25  1  0
 25 26  2  0
 25 27  1  0
 27 28  1  0
 29 28  1  1
 29 30  1  0
 30 31  1  0
 31 32  1  0
 32 33  1  0
 24 34  1  0
 34 35  2  0
 35 36  1  0
 36 37  2  0
 37 38  1  0
 37 39  1  0
 39 40  2  0
 10 41  1  0
  6 42  1  0
 42 43  2  0
 43 44  1  0
 44 45  1  0
 43  3  1  0
 41  7  2  0
 23 18  1  0
 33 29  1  0
 40 34  1  0
M  END
>  <Binding energies>  (71) 
[-10.39]

>  <Ligand effiencies>  (71) 
[-0.22586956521739132]

>  <Interactions>  (71) 
["V-B:PRO:540:CB:9857, V-A:PRO:540:N:4884, V-A:TYR:539:CE1:4875, H-A:TYR:539:N:4870, V-B:TYR:531:CE2:9765, V-B:ASP:366:CG:8185, V-B:TYR:539:CD1:9845, V-A:TYR:539:CD1:4873, V-B:ILE:538:CA:9832, V-B:PRO:540:N:9856, H-A:ALA:541:N:4891, V-A:ILE:538:CA:4860, V-A:TYR:539:CZ:4877, V-A:PRO:540:CA:4883, V-A:ILE:538:CG2:4863, V-B:MET:535:CE:9807, H-B:LYS:534:NZ:9795, V-B:TYR:539:CE1:9847, V-B:TYR:539:CZ:9849, V-A:TYR:539:C:4867, V-B:LEU:363:CD1:8161, V-A:TYR:539:CD2:4874, V-B:PRO:540:CD:9859, V-A:TYR:539:CE2:4876, V-A:GLU:543:CG:4907, V-B:ILE:369:CD1:8211, V-B:ARG:545:CZ:9898, V-A:GLU:543:CD:4908, V-A:ILE:538:CB:4862, V-B:TYR:484:CZ:9319, H-B:TYR:531:OH:9767, V-B:ASP:366:CB:8184, V-B:ILE:369:CG2:8209, V-A:PRO:540:CB:4885, V-A:PRO:540:CD:4887, V-B:ASP:366:CA:8182, H-B:TYR:539:N:9842, V-B:GLY:453:CA:9016, H-B:GLY:454:N:9022, V-B:HIS:456:CE1:9042, V-B:ARG:545:CD:9895, V-B:GLY:453:C:9014, V-B:ARG:545:CG:9894, H-B:TYR:484:OH:9320, V-B:TYR:484:CE1:9317, H-B:ARG:545:NH1:9899, H-B:ARG:545:NH2:9900, H-B:ARG:545:NE:9896"]

$$$$
RR17_Rahimova_2017
     RDKit          3D

 38 41  0  0  0  0  0  0  0  0999 V2000
  132.6960  131.8580   56.3130 C   0  0  0  0  0  0  0  0  0  0  0  0
  132.2320  132.9910   55.3920 C   0  0  0  0  0  0  0  0  0  0  0  0
  130.9050  133.3620   55.7550 O   0  0  0  0  0  0  0  0  0  0  0  0
  129.8880  132.4320   55.6460 C   0  0  0  0  0  0  0  0  0  0  0  0
  128.9380  132.4270   56.6670 C   0  0  0  0  0  0  0  0  0  0  0  0
  127.8780  131.5260   56.6440 C   0  0  0  0  0  0  0  0  0  0  0  0
  127.7460  130.6060   55.5940 C   0  0  0  0  0  0  0  0  0  0  0  0
  126.5910  129.6470   55.5950 C   0  0  0  0  0  0  0  0  0  0  0  0
  126.3660  128.8810   54.6530 O   0  0  0  0  0  0  0  0  0  0  0  0
  125.6670  129.6630   56.8340 C   0  0  0  0  0  0  0  0  0  0  0  0
  126.4820  128.9560   58.3100 S   0  0  0  0  0  0  0  0  0  0  0  0
  127.7590  128.0090   57.5300 C   0  0  0  0  0  0  0  0  0  0  0  0
  127.5660  127.0480   56.6580 N   0  0  0  0  0  0  0  0  0  0  0  0
  128.8120  126.5620   56.2780 N   0  0  0  0  0  0  0  0  0  0  0  0
  129.7110  127.2520   56.9340 C   0  0  0  0  0  0  0  0  0  0  0  0
  131.2140  127.0540   56.8060 C   0  0  0  0  0  0  0  0  0  0  0  0
  131.6710  125.7290   57.2190 N   0  0  0  0  0  0  0  0  0  0  0  0
  132.1290  125.4300   58.5150 C   0  0  0  0  0  0  0  0  0  0  0  0
  131.4800  126.0480   59.5840 C   0  0  0  0  0  0  0  0  0  0  0  0
  131.8860  125.8010   60.8920 C   0  0  0  0  0  0  0  0  0  0  0  0
  132.9460  124.9270   61.1470 C   0  0  0  0  0  0  0  0  0  0  0  0
  133.3830  124.6710   62.5890 C   0  0  0  0  0  0  0  0  0  0  0  0
  134.6150  125.1250   62.8320 F   0  0  0  0  0  0  0  0  0  0  0  0
  132.5490  125.2690   63.4410 F   0  0  0  0  0  0  0  0  0  0  0  0
  133.3670  123.3590   62.8240 F   0  0  0  0  0  0  0  0  0  0  0  0
  133.5930  124.3000   60.0770 C   0  0  0  0  0  0  0  0  0  0  0  0
  133.1860  124.5470   58.7700 C   0  0  0  0  0  0  0  0  0  0  0  0
  129.1090  128.1810   57.7570 N   0  0  0  0  0  0  0  0  0  0  0  0
  129.7310  129.1100   58.6050 C   0  0  0  0  0  0  0  0  0  0  0  0
  130.7560  129.9150   58.1090 C   0  0  0  0  0  0  0  0  0  0  0  0
  131.3760  130.8340   58.9510 C   0  0  0  0  0  0  0  0  0  0  0  0
  130.9720  130.9500   60.2920 C   0  0  0  0  0  0  0  0  0  0  0  0
  131.5280  131.8310   61.1980 O   0  0  0  0  0  0  0  0  0  0  0  0
  132.7580  131.4930   61.8310 C   0  0  0  0  0  0  0  0  0  0  0  0
  129.9460  130.1330   60.7710 C   0  0  0  0  0  0  0  0  0  0  0  0
  129.3210  129.2130   59.9340 C   0  0  0  0  0  0  0  0  0  0  0  0
  128.7020  130.6130   54.5670 C   0  0  0  0  0  0  0  0  0  0  0  0
  129.7610  131.5160   54.5920 C   0  0  0  0  0  0  0  0  0  0  0  0
  1  2  1  0
  2  3  1  0
  3  4  1  0
  4  5  2  0
  5  6  1  0
  6  7  2  0
  7  8  1  0
  8  9  2  0
  8 10  1  0
 10 11  1  0
 11 12  1  0
 12 13  2  0
 13 14  1  0
 14 15  2  0
 15 16  1  0
 16 17  1  0
 17 18  1  0
 18 19  2  0
 19 20  1  0
 20 21  2  0
 21 22  1  0
 22 23  1  0
 22 24  1  0
 22 25  1  0
 21 26  1  0
 26 27  2  0
 15 28  1  0
 28 29  1  0
 29 30  2  0
 30 31  1  0
 31 32  2  0
 32 33  1  0
 33 34  1  0
 32 35  1  0
 35 36  2  0
  7 37  1  0
 37 38  2  0
 38  4  1  0
 28 12  1  0
 36 29  1  0
 27 18  1  0
M  END
>  <Binding energies>  (72) 
[-9.06]

>  <Ligand effiencies>  (72) 
[-0.23230769230769233]

>  <Interactions>  (72) 
["V-A:PRO:540:N:4884, V-A:TYR:539:CE1:4875, H-A:TYR:539:N:4870, V-A:TYR:539:CD1:4873, H-A:ALA:541:N:4891, V-A:ILE:538:CA:4860, V-A:TYR:539:CZ:4877, V-A:PRO:540:CA:4883, V-A:ILE:538:CG2:4863, H-B:LYS:534:NZ:9795, V-B:TYR:539:CE2:9848, V-B:TYR:539:CZ:9849, V-A:TYR:539:C:4867, V-A:TYR:539:CG:4872, V-A:ASP:366:CG:3213, V-A:GLY:454:CA:4049, V-A:ILE:369:CD1:3239, V-A:ARG:545:CZ:4926, V-A:GLU:543:CG:4907, V-A:ILE:369:CG2:3237, V-A:GLU:543:CD:4908, V-A:ILE:538:CB:4862, V-B:TYR:531:CE1:9764, H-B:TYR:531:OH:9767, V-A:PRO:540:CG:4886, V-A:PRO:540:CB:4885, V-A:ASP:366:CB:3212, V-A:ALA:541:C:4888, V-A:PRO:540:CD:4887, V-A:ASN:362:CB:3176, V-A:LEU:363:CD1:3189, V-A:ASP:366:CA:3210, V-A:TYR:484:CZ:4347, H-B:TYR:539:OH:9850, V-A:GLY:453:C:4042, V-A:GLY:453:CA:4044"]

$$$$
RR19_Rahimova_2017
     RDKit          3D

 46 51  0  0  0  0  0  0  0  0999 V2000
  131.0350  128.0910   57.4020 O   0  0  0  0  0  0  0  0  0  0  0  0
  129.8640  127.7040   57.4530 C   0  0  0  0  0  0  0  0  0  0  0  0
  129.3150  126.9520   58.4410 N   0  0  0  0  0  0  0  0  0  0  0  0
  129.7470  126.5950   59.6940 C   0  0  0  0  0  0  0  0  0  0  0  0
  131.0910  127.2410   60.4950 S   0  0  0  0  0  0  0  0  0  0  0  0
  128.9070  125.6290   60.1890 N   0  0  0  0  0  0  0  0  0  0  0  0
  128.7900  125.0410   61.4070 C   0  0  0  0  0  0  0  0  0  0  0  0
  129.3430  125.4010   62.4490 O   0  0  0  0  0  0  0  0  0  0  0  0
  127.8770  123.7890   61.4160 C   0  0  2  0  0  0  0  0  0  0  0  0
  128.5090  122.5240   62.0640 C   0  0  0  0  0  0  0  0  0  0  0  0
  129.8500  122.1020   61.4860 C   0  0  0  0  0  0  0  0  0  0  0  0
  130.9520  122.9840   61.4920 C   0  0  0  0  0  0  0  0  0  0  0  0
  132.1890  122.5540   61.0320 C   0  0  0  0  0  0  0  0  0  0  0  0
  132.3540  121.2500   60.5800 C   0  0  0  0  0  0  0  0  0  0  0  0
  131.2860  120.3610   60.5960 C   0  0  0  0  0  0  0  0  0  0  0  0
  130.0410  120.7710   61.0550 C   0  0  0  0  0  0  0  0  0  0  0  0
  127.3450  123.4990   60.0560 N   0  0  0  0  0  0  0  0  0  0  0  0
  126.0050  123.5000   59.8030 C   0  0  0  0  0  0  0  0  0  0  0  0
  125.0930  123.6970   60.6090 O   0  0  0  0  0  0  0  0  0  0  0  0
  125.8750  123.2180   58.3520 C   0  0  0  0  0  0  0  0  0  0  0  0
  124.7450  123.0950   57.5420 C   0  0  0  0  0  0  0  0  0  0  0  0
  124.9230  122.8290   56.1800 C   0  0  0  0  0  0  0  0  0  0  0  0
  126.2140  122.6920   55.6500 C   0  0  0  0  0  0  0  0  0  0  0  0
  127.3340  122.8200   56.4800 C   0  0  0  0  0  0  0  0  0  0  0  0
  127.1340  123.0840   57.8350 C   0  0  0  0  0  0  0  0  0  0  0  0
  128.1050  123.2770   58.9410 C   0  0  0  0  0  0  0  0  0  0  0  0
  129.3340  123.2520   58.8640 O   0  0  0  0  0  0  0  0  0  0  0  0
  128.8870  128.0690   56.3040 C   0  0  2  0  0  0  0  0  0  0  0  0
  129.5800  128.7100   55.0670 C   0  0  0  0  0  0  0  0  0  0  0  0
  129.4600  130.2220   55.0080 C   0  0  0  0  0  0  0  0  0  0  0  0
  128.7460  130.8360   53.9560 C   0  0  0  0  0  0  0  0  0  0  0  0
  128.5510  132.2110   53.9600 C   0  0  0  0  0  0  0  0  0  0  0  0
  129.0310  132.9840   55.0090 C   0  0  0  0  0  0  0  0  0  0  0  0
  129.7010  132.3890   56.0700 C   0  0  0  0  0  0  0  0  0  0  0  0
  129.9080  131.0160   56.0860 C   0  0  0  0  0  0  0  0  0  0  0  0
  127.7190  128.8770   56.7550 N   0  0  0  0  0  0  0  0  0  0  0  0
  126.5910  128.9920   55.9990 C   0  0  0  0  0  0  0  0  0  0  0  0
  126.3820  128.4960   54.8910 O   0  0  0  0  0  0  0  0  0  0  0  0
  125.6690  129.8420   56.7940 C   0  0  0  0  0  0  0  0  0  0  0  0
  124.3790  130.2970   56.5180 C   0  0  0  0  0  0  0  0  0  0  0  0
  123.7330  131.0960   57.4680 C   0  0  0  0  0  0  0  0  0  0  0  0
  124.3770  131.4250   58.6690 C   0  0  0  0  0  0  0  0  0  0  0  0
  125.6700  130.9570   58.9270 C   0  0  0  0  0  0  0  0  0  0  0  0
  126.2970  130.1630   57.9660 C   0  0  0  0  0  0  0  0  0  0  0  0
  127.6370  129.5280   57.9540 C   0  0  0  0  0  0  0  0  0  0  0  0
  128.4940  129.5770   58.8370 O   0  0  0  0  0  0  0  0  0  0  0  0
  1  2  2  0
  2  3  1  0
  3  4  1  0
  4  5  2  0
  4  6  1  0
  6  7  1  0
  7  8  2  0
  7  9  1  0
  9 10  1  6
 10 11  1  0
 11 12  2  0
 12 13  1  0
 13 14  2  0
 14 15  1  0
 15 16  2  0
  9 17  1  0
 17 18  1  0
 18 19  2  0
 18 20  1  0
 20 21  2  0
 21 22  1  0
 22 23  2  0
 23 24  1  0
 24 25  2  0
 25 26  1  0
 26 27  2  0
  2 28  1  0
 28 29  1  6
 29 30  1  0
 30 31  2  0
 31 32  1  0
 32 33  2  0
 33 34  1  0
 34 35  2  0
 28 36  1  0
 36 37  1  0
 37 38  2  0
 37 39  1  0
 39 40  2  0
 40 41  1  0
 41 42  2  0
 42 43  1  0
 43 44  2  0
 44 45  1  0
 45 46  2  0
 16 11  1  0
 26 17  1  0
 35 30  1  0
 45 36  1  0
 25 20  1  0
 44 39  1  0
M  END
>  <Binding energies>  (73) 
[-12.23]

>  <Ligand effiencies>  (73) 
[-0.2547916666666667]

>  <Interactions>  (73) 
["V-B:PRO:540:CB:9857, V-B:TYR:539:C:9839, V-A:TYR:539:CE1:4875, V-B:TYR:531:CE2:9765, V-B:TYR:539:CD1:9845, V-B:ILE:538:CA:9832, V-B:PRO:540:N:9856, V-B:PRO:540:CA:9855, V-A:MET:535:CE:4835, V-A:ILE:538:CA:4860, V-B:TYR:539:CD2:9846, V-A:TYR:539:CZ:4877, V-B:MET:535:CE:9807, H-B:LYS:534:NZ:9795, V-B:TYR:539:CE2:9848, V-B:TYR:539:CE1:9847, V-B:TYR:531:CZ:9766, V-B:TYR:539:CZ:9849, V-A:TYR:539:C:4867, V-A:TYR:539:CG:4872, V-B:PRO:540:CG:9858, V-B:LEU:363:CD1:8161, V-A:TYR:539:CD2:4874, V-B:PRO:540:CD:9859, V-B:ILE:538:CD1:9837, V-A:TYR:539:CE2:4876, V-B:ILE:538:CG2:9835, V-A:ASP:366:CG:3213, V-A:ILE:369:CG2:3237, V-A:LEU:475:CD2:4259, V-B:TYR:539:CG:9844, V-B:TYR:531:CE1:9764, H-B:TYR:531:OH:9767, V-B:ILE:369:CG2:8209, V-B:ASP:366:C:8180, H-A:TYR:531:OH:4795, V-B:ASP:366:CA:8182, V-B:ALA:541:CB:9864, V-B:GLU:543:CD:9880, V-A:ILE:538:C:4858, V-A:TYR:539:CA:4869"]

$$$$
RR1_Rahimova_2017
     RDKit          3D

 41 44  0  0  0  0  0  0  0  0999 V2000
  124.8340  122.7800   55.8360 C   0  0  0  0  0  0  0  0  0  0  0  0
  126.1450  122.3350   56.1650 O   0  0  0  0  0  0  0  0  0  0  0  0
  126.7470  122.8040   57.3170 C   0  0  0  0  0  0  0  0  0  0  0  0
  126.0510  123.1850   58.4750 C   0  0  0  0  0  0  0  0  0  0  0  0
  126.7440  123.6530   59.5870 C   0  0  0  0  0  0  0  0  0  0  0  0
  128.1360  123.7430   59.5670 C   0  0  0  0  0  0  0  0  0  0  0  0
  128.7420  124.2710   60.7230 N   0  0  0  0  0  0  0  0  0  0  0  0
  129.0050  125.5570   61.0390 C   0  0  0  0  0  0  0  0  0  0  0  0
  128.8070  126.5170   60.2940 O   0  0  0  0  0  0  0  0  0  0  0  0
  129.5980  125.7620   62.4420 C   0  0  0  0  0  0  0  0  0  0  0  0
  131.3930  125.4520   62.5870 S   0  0  0  0  0  0  0  0  0  0  0  0
  131.4610  123.9800   61.6230 C   0  0  0  0  0  0  0  0  0  0  0  0
  130.9820  122.8240   62.0090 N   0  0  0  0  0  0  0  0  0  0  0  0
  131.2360  122.0160   60.9850 C   0  0  0  0  0  0  0  0  0  0  0  0
  130.8390  120.5680   60.9850 C   0  0  0  0  0  0  0  0  0  0  0  0
  129.7420  120.1070   61.7320 C   0  0  0  0  0  0  0  0  0  0  0  0
  129.3980  118.7540   61.7150 C   0  0  0  0  0  0  0  0  0  0  0  0
  130.1670  117.8830   60.9450 C   0  0  0  0  0  0  0  0  0  0  0  0
  131.2330  118.2930   60.2120 N   0  0  0  0  0  0  0  0  0  0  0  0
  131.5490  119.6130   60.2410 C   0  0  0  0  0  0  0  0  0  0  0  0
  131.8580  122.5760   59.9630 N   0  0  0  0  0  0  0  0  0  0  0  0
  132.0050  123.8400   60.3730 N   0  0  0  0  0  0  0  0  0  0  0  0
  132.6430  124.8320   59.5070 C   0  0  0  0  0  0  0  0  0  0  0  0
  131.7420  126.0090   59.0940 C   0  0  0  0  0  0  0  0  0  0  0  0
  131.5480  126.9570   59.8630 O   0  0  0  0  0  0  0  0  0  0  0  0
  131.2030  125.9090   57.8640 N   0  0  0  0  0  0  0  0  0  0  0  0
  130.5010  126.9980   57.3670 N   0  0  0  0  0  0  0  0  0  0  0  0
  130.7720  127.4010   56.1060 C   0  0  0  0  0  0  0  0  0  0  0  0
  131.5280  126.8000   55.3350 O   0  0  0  0  0  0  0  0  0  0  0  0
  130.0580  128.6570   55.6520 C   0  0  0  0  0  0  0  0  0  0  0  0
  128.9420  128.5620   54.8140 C   0  0  0  0  0  0  0  0  0  0  0  0
  128.2790  129.7030   54.3750 C   0  0  0  0  0  0  0  0  0  0  0  0
  128.7190  130.9810   54.7560 C   0  0  0  0  0  0  0  0  0  0  0  0
  128.1140  132.1550   54.3450 O   0  0  0  0  0  0  0  0  0  0  0  0
  128.6340  132.8550   53.2200 C   0  0  0  0  0  0  0  0  0  0  0  0
  129.8400  131.0980   55.5890 C   0  0  0  0  0  0  0  0  0  0  0  0
  130.2450  132.3810   55.9190 O   0  0  0  0  0  0  0  0  0  0  0  0
  131.6080  132.7540   55.7480 C   0  0  0  0  0  0  0  0  0  0  0  0
  130.4970  129.9360   56.0310 C   0  0  0  0  0  0  0  0  0  0  0  0
  128.8360  123.3610   58.4110 C   0  0  0  0  0  0  0  0  0  0  0  0
  128.1390  122.8930   57.3010 C   0  0  0  0  0  0  0  0  0  0  0  0
  1  2  1  0
  2  3  1  0
  3  4  2  0
  4  5  1  0
  5  6  2  0
  6  7  1  0
  7  8  1  0
  8  9  2  0
  8 10  1  0
 10 11  1  0
 11 12  1  0
 12 13  2  0
 13 14  1  0
 14 15  1  0
 15 16  2  0
 16 17  1  0
 17 18  2  0
 18 19  1  0
 19 20  2  0
 14 21  2  0
 21 22  1  0
 22 23  1  0
 23 24  1  0
 24 25  2  0
 24 26  1  0
 26 27  1  0
 27 28  1  0
 28 29  2  0
 28 30  1  0
 30 31  2  0
 31 32  1  0
 32 33  2  0
 33 34  1  0
 34 35  1  0
 33 36  1  0
 36 37  1  0
 37 38  1  0
 36 39  2  0
  6 40  1  0
 40 41  2  0
 41  3  1  0
 22 12  1  0
 39 30  1  0
 20 15  1  0
M  END
>  <Binding energies>  (74) 
[-8.73]

>  <Ligand effiencies>  (74) 
[-0.19840909090909092]

>  <Interactions>  (74) 
["V-B:PRO:540:CB:9857, V-A:PRO:540:N:4884, V-B:TYR:539:C:9839, H-A:TYR:539:N:4870, V-B:TYR:531:CE2:9765, V-B:TYR:539:CD1:9845, V-B:PRO:540:N:9856, V-B:PRO:540:CA:9855, V-A:MET:535:CE:4835, V-A:ILE:538:CA:4860, V-B:TYR:539:CD2:9846, V-A:PRO:540:CA:4883, V-A:ILE:538:CG2:4863, V-B:MET:535:CE:9807, H-B:LYS:534:NZ:9795, V-B:TYR:539:CE2:9848, V-B:TYR:539:CE1:9847, V-B:TYR:531:CZ:9766, V-A:VAL:537:C:4850, V-B:TYR:539:CZ:9849, V-B:LEU:363:CD1:8161, V-A:TYR:539:CD2:4874, V-B:ILE:538:CD1:9837, V-A:TYR:539:CE2:4876, V-B:ILE:538:CG2:9835, V-A:ASP:366:CG:3213, V-A:LEU:475:CD2:4259, V-B:TYR:539:CG:9844, V-A:ILE:538:CB:4862, V-A:PRO:540:CB:4885, V-A:ASP:366:CB:3212, H-A:TYR:531:OH:4795, V-A:PRO:540:CD:4887, V-B:ALA:541:CB:9864, V-B:ALA:541:CA:9862, V-B:PRO:540:C:9853, V-B:GLU:543:CD:9880, H-B:TYR:539:N:9842, V-A:SER:385:CB:3409, H-A:TYR:484:OH:4348, V-B:LYS:534:CE:9794, V-A:PRO:482:CG:4327, V-A:PRO:482:CB:4326, V-A:LEU:475:CD1:4258, H-A:ARG:545:NH2:4928, H-B:TYR:539:OH:9850"]

$$$$
RR22_Rahimova_2017
     RDKit          3D

 31 36  0  0  0  0  0  0  0  0999 V2000
  123.7060  130.3740   55.0210 O   0  0  0  0  0  0  0  0  0  0  0  0
  124.5510  130.3430   55.9120 C   0  0  0  0  0  0  0  0  0  0  0  0
  124.3510  130.0880   57.2580 N   0  0  0  0  0  0  0  0  0  0  0  0
  125.4600  130.0280   58.1610 C   0  0  1  0  0  0  0  0  0  0  0  0
  125.1610  130.9810   59.1850 O   0  0  0  0  0  0  0  0  0  0  0  0
  125.0610  130.5300   60.5010 C   0  0  0  0  0  0  0  0  0  0  0  0
  124.4190  131.3790   61.4030 C   0  0  0  0  0  0  0  0  0  0  0  0
  124.3160  131.0150   62.7450 C   0  0  0  0  0  0  0  0  0  0  0  0
  124.8610  129.8080   63.1850 C   0  0  0  0  0  0  0  0  0  0  0  0
  125.5040  128.9590   62.2830 C   0  0  0  0  0  0  0  0  0  0  0  0
  125.5930  129.3000   60.9300 C   0  0  0  0  0  0  0  0  0  0  0  0
  126.3050  128.4710   59.8840 C   0  0  1  0  0  0  0  0  0  0  0  0
  126.3710  126.9590   59.9490 C   0  0  0  0  0  0  0  0  0  0  0  0
  126.4360  126.6350   58.4540 C   0  0  0  0  0  0  0  0  0  0  0  0
  126.8980  125.3310   57.9390 C   0  0  0  0  0  0  0  0  0  0  0  0
  126.1170  124.1790   58.1120 C   0  0  0  0  0  0  0  0  0  0  0  0
  126.5570  122.9510   57.6230 C   0  0  0  0  0  0  0  0  0  0  0  0
  127.7780  122.8680   56.9600 C   0  0  0  0  0  0  0  0  0  0  0  0
  128.5650  124.0030   56.7800 C   0  0  0  0  0  0  0  0  0  0  0  0
  128.1260  125.2310   57.2660 C   0  0  0  0  0  0  0  0  0  0  0  0
  126.0210  127.6200   57.7490 N   0  0  0  0  0  0  0  0  0  0  0  0
  125.6370  128.6460   58.6290 N   0  0  0  0  0  0  0  0  0  0  0  0
  126.6690  130.5540   57.4010 C   0  0  0  0  0  0  0  0  0  0  0  0
  127.8040  130.9650   58.0140 C   0  0  0  0  0  0  0  0  0  0  0  0
  129.0470  131.4740   57.4030 C   0  0  0  0  0  0  0  0  0  0  0  0
  130.3230  131.0210   57.7680 C   0  0  0  0  0  0  0  0  0  0  0  0
  131.4550  131.5490   57.1460 C   0  0  0  0  0  0  0  0  0  0  0  0
  131.2810  132.5300   56.1700 C   0  0  0  0  0  0  0  0  0  0  0  0
  130.0600  132.9930   55.8030 N   0  0  0  0  0  0  0  0  0  0  0  0
  128.9710  132.4660   56.4190 C   0  0  0  0  0  0  0  0  0  0  0  0
  126.3290  130.6380   55.6660 S   0  0  0  0  0  0  0  0  0  0  0  0
  1  2  2  0
  2  3  1  0
  4  3  1  6
  4  5  1  0
  5  6  1  0
  6  7  2  0
  7  8  1  0
  8  9  2  0
  9 10  1  0
 10 11  2  0
 11 12  1  0
 12 13  1  1
 13 14  1  0
 14 15  1  0
 15 16  2  0
 16 17  1  0
 17 18  2  0
 18 19  1  0
 19 20  2  0
 14 21  2  0
 21 22  1  0
  4 23  1  0
 23 24  2  0
 24 25  1  0
 25 26  2  0
 26 27  1  0
 27 28  2  0
 28 29  1  0
 29 30  2  0
 23 31  1  0
 31  2  1  0
 22  4  1  0
 30 25  1  0
 11  6  1  0
 22 12  1  0
 20 15  1  0
M  END
>  <Binding energies>  (75) 
[-9.34]

>  <Ligand effiencies>  (75) 
[-0.291875]

>  <Interactions>  (75) 
["V-B:PRO:540:CB:9857, V-A:PRO:540:N:4884, V-B:TYR:539:C:9839, V-A:TYR:539:CE1:4875, H-A:TYR:539:N:4870, V-B:ASP:366:CG:8185, V-B:TYR:539:CD1:9845, V-A:TYR:539:CD1:4873, V-B:PRO:540:N:9856, V-B:PRO:540:CA:9855, V-B:TYR:539:CD2:9846, V-A:TYR:539:CZ:4877, V-A:PRO:540:CA:4883, V-B:MET:535:CE:9807, H-B:LYS:534:NZ:9795, H-A:TYR:539:OH:4878, V-B:TYR:539:CE2:9848, V-B:TYR:539:CE1:9847, V-B:TYR:539:CZ:9849, V-A:TYR:539:C:4867, V-A:TYR:539:CG:4872, V-A:TYR:539:CD2:4874, V-B:TYR:539:CG:9844, V-B:ARG:545:CZ:9898, V-B:TYR:531:CE1:9764, V-B:GLY:454:CA:9021, H-B:TYR:531:OH:9767, V-B:ASP:366:CB:8184, V-A:PRO:540:CB:4885, V-B:ASP:366:C:8180, V-A:PRO:540:CD:4887, V-B:ASP:366:CA:8182, V-B:ASN:370:CB:8217, H-B:ASP:366:O:8181"]

$$$$
RR24_Rahimova_2017
     RDKit          3D

 43 49  0  0  0  0  0  0  0  0999 V2000
  130.8020  131.4600   53.3540 C   0  0  0  0  0  0  0  0  0  0  0  0
  129.9900  131.3830   54.6550 C   0  0  2  0  0  0  0  0  0  0  0  0
  130.1630  132.6370   55.5610 C   0  0  0  0  0  0  0  0  0  0  0  0
  131.2650  133.1610   55.7550 O   0  0  0  0  0  0  0  0  0  0  0  0
  128.9840  133.0490   56.1140 O   0  0  0  0  0  0  0  0  0  0  0  0
  128.1700  132.1320   56.7400 C   0  0  0  0  0  0  0  0  0  0  0  0
  128.0880  132.1290   58.1340 C   0  0  0  0  0  0  0  0  0  0  0  0
  127.2610  131.2120   58.7770 C   0  0  0  0  0  0  0  0  0  0  0  0
  126.5070  130.3020   58.0310 C   0  0  0  0  0  0  0  0  0  0  0  0
  125.6130  129.2820   58.7460 C   0  0  1  0  0  0  0  0  0  0  0  0
  126.2360  127.8670   58.7470 C   0  0  0  0  0  0  0  0  0  0  0  0
  126.3710  127.1310   59.8660 C   0  0  0  0  0  0  0  0  0  0  0  0
  125.9640  127.5870   61.0950 N   0  0  0  0  0  0  0  0  0  0  0  0
  125.3940  128.8300   61.2440 C   0  0  0  0  0  0  0  0  0  0  0  0
  125.0390  129.1250   62.5210 N   0  0  0  0  0  0  0  0  0  0  0  0
  124.5330  130.3390   62.8730 C   0  0  0  0  0  0  0  0  0  0  0  0
  124.5280  130.6670   64.0610 O   0  0  0  0  0  0  0  0  0  0  0  0
  124.2230  131.1560   61.7980 N   0  0  0  0  0  0  0  0  0  0  0  0
  123.5870  132.4500   62.1210 C   0  0  0  0  0  0  0  0  0  0  0  0
  124.5390  130.9550   60.4650 C   0  0  0  0  0  0  0  0  0  0  0  0
  124.2760  131.7550   59.5620 O   0  0  0  0  0  0  0  0  0  0  0  0
  125.2060  129.6760   60.1980 C   0  0  0  0  0  0  0  0  0  0  0  0
  126.9870  125.8490   59.5700 C   0  0  0  0  0  0  0  0  0  0  0  0
  127.3390  124.7570   60.3650 C   0  0  0  0  0  0  0  0  0  0  0  0
  127.9320  123.6420   59.7670 C   0  0  0  0  0  0  0  0  0  0  0  0
  128.1660  123.6230   58.3890 C   0  0  0  0  0  0  0  0  0  0  0  0
  127.8110  124.7190   57.5980 C   0  0  0  0  0  0  0  0  0  0  0  0
  127.2210  125.8310   58.2020 C   0  0  0  0  0  0  0  0  0  0  0  0
  126.7510  127.1040   57.6150 C   0  0  0  0  0  0  0  0  0  0  0  0
  126.7670  127.4850   56.4460 O   0  0  0  0  0  0  0  0  0  0  0  0
  126.5770  130.3200   56.6340 C   0  0  0  0  0  0  0  0  0  0  0  0
  127.4030  131.2370   55.9900 C   0  0  0  0  0  0  0  0  0  0  0  0
  130.2360  130.1100   55.3940 N   0  0  0  0  0  0  0  0  0  0  0  0
  131.0130  130.0730   56.5140 C   0  0  0  0  0  0  0  0  0  0  0  0
  131.5990  131.0170   57.0480 O   0  0  0  0  0  0  0  0  0  0  0  0
  131.0040  128.6560   56.9550 C   0  0  0  0  0  0  0  0  0  0  0  0
  131.6260  128.0330   58.0380 C   0  0  0  0  0  0  0  0  0  0  0  0
  131.4380  126.6580   58.2160 C   0  0  0  0  0  0  0  0  0  0  0  0
  130.6400  125.9320   57.3230 C   0  0  0  0  0  0  0  0  0  0  0  0
  130.0240  126.5760   56.2430 C   0  0  0  0  0  0  0  0  0  0  0  0
  130.2250  127.9470   56.0810 C   0  0  0  0  0  0  0  0  0  0  0  0
  129.7130  128.8910   55.0570 C   0  0  0  0  0  0  0  0  0  0  0  0
  128.9720  128.6320   54.1090 O   0  0  0  0  0  0  0  0  0  0  0  0
  2  1  1  6
  2  3  1  0
  3  4  2  0
  3  5  1  0
  5  6  1  0
  6  7  2  0
  7  8  1  0
  8  9  2  0
 10  9  1  1
 10 11  1  0
 11 12  2  0
 12 13  1  0
 13 14  1  0
 14 15  1  0
 15 16  1  0
 16 17  2  0
 16 18  1  0
 18 19  1  0
 18 20  1  0
 20 21  2  0
 20 22  1  0
 12 23  1  0
 23 24  2  0
 24 25  1  0
 25 26  2  0
 26 27  1  0
 27 28  2  0
 28 29  1  0
 29 30  2  0
  9 31  1  0
 31 32  2  0
  2 33  1  0
 33 34  1  0
 34 35  2  0
 34 36  1  0
 36 37  2  0
 37 38  1  0
 38 39  2  0
 39 40  1  0
 40 41  2  0
 41 42  1  0
 42 43  2  0
 32  6  1  0
 42 33  1  0
 22 10  1  0
 28 23  1  0
 41 36  1  0
 29 11  1  0
 22 14  2  0
M  END
>  <Binding energies>  (76) 
[-10.16]

>  <Ligand effiencies>  (76) 
[-0.22577777777777777]

>  <Interactions>  (76) 
["V-A:PRO:540:N:4884, V-A:TYR:539:CE1:4875, V-A:MET:535:CG:4833, H-A:TYR:539:N:4870, V-B:ASP:366:CG:8185, V-A:TYR:539:CD1:4873, V-A:MET:535:CE:4835, V-A:TYR:531:CZ:4794, V-A:TYR:539:CZ:4877, V-A:ILE:538:CG2:4863, V-B:MET:535:CE:9807, V-B:TYR:539:CE2:9848, V-A:TYR:539:C:4867, V-A:TYR:539:CG:4872, V-A:TYR:539:CD2:4874, V-A:TYR:539:CE2:4876, V-A:ASP:366:CG:3213, V-B:ILE:369:CD1:8211, V-B:ARG:545:CZ:9898, V-A:MET:535:CB:4832, V-A:ILE:538:CB:4862, V-B:GLY:454:CA:9021, H-B:TYR:531:OH:9767, V-B:ASP:366:CB:8184, V-A:ASP:366:CB:3212, H-A:TYR:531:OH:4795, V-A:TYR:531:CE2:4793, H-B:GLY:454:N:9022, H-B:TYR:484:OH:9320, H-B:ASP:366:OD2:8187, H-B:GLU:543:OE1:9881, H-B:ASP:366:OD1:8186"]

$$$$
RR25_Rahimova_2017
     RDKit          3D

 39 44  0  0  0  0  0  0  0  0999 V2000
  132.9660  123.4060   61.0540 O   0  0  0  0  0  0  0  0  0  0  0  0
  131.7550  123.4740   60.8410 C   0  0  0  0  0  0  0  0  0  0  0  0
  130.9580  122.6590   61.6060 O   0  0  0  0  0  0  0  0  0  0  0  0
  129.5850  122.8190   61.6410 C   0  0  0  0  0  0  0  0  0  0  0  0
  128.9300  122.3760   62.7890 C   0  0  0  0  0  0  0  0  0  0  0  0
  127.5460  122.4990   62.8880 C   0  0  0  0  0  0  0  0  0  0  0  0
  126.7980  123.0610   61.8430 C   0  0  0  0  0  0  0  0  0  0  0  0
  125.3250  123.1980   61.9540 N   0  0  0  0  0  0  0  0  0  0  0  0
  124.7790  122.8540   63.0000 O   0  0  0  0  0  0  0  0  0  0  0  0
  124.7030  123.6500   60.9970 O   0  0  0  0  0  0  0  0  0  0  0  0
  127.4750  123.4900   60.6900 C   0  0  0  0  0  0  0  0  0  0  0  0
  128.8620  123.3670   60.5710 C   0  0  0  0  0  0  0  0  0  0  0  0
  129.6400  123.8250   59.3510 C   0  0  0  0  0  0  0  0  0  0  0  0
  131.0310  124.3650   59.7900 C   0  0  2  0  0  0  0  0  0  0  0  0
  131.8960  124.7530   58.5560 C   0  0  0  0  0  0  0  0  0  0  0  0
  132.8550  124.0150   58.3130 O   0  0  0  0  0  0  0  0  0  0  0  0
  131.5470  125.7720   57.7140 N   0  0  0  0  0  0  0  0  0  0  0  0
  130.6240  126.8560   58.1090 C   0  0  0  0  0  0  0  0  0  0  0  0
  129.7550  127.2430   56.8940 C   0  0  0  0  0  0  0  0  0  0  0  0
  130.5810  127.5940   55.7350 N   0  0  0  0  0  0  0  0  0  0  0  0
  129.7630  128.0900   54.6210 C   0  0  0  0  0  0  0  0  0  0  0  0
  129.5730  129.6300   54.6510 C   0  0  0  0  0  0  0  0  0  0  0  0
  128.6120  130.1530   55.6650 N   0  0  0  0  0  0  0  0  0  0  0  0
  127.3160  129.7010   55.5360 C   0  0  0  0  0  0  0  0  0  0  0  0
  126.9490  128.9460   54.6280 O   0  0  0  0  0  0  0  0  0  0  0  0
  126.3660  130.1900   56.6130 C   0  0  0  0  0  0  0  0  0  0  0  0
  125.0290  129.7710   56.5930 C   0  0  0  0  0  0  0  0  0  0  0  0
  124.1320  130.1940   57.5710 C   0  0  0  0  0  0  0  0  0  0  0  0
  124.5390  131.0430   58.5990 C   0  0  0  0  0  0  0  0  0  0  0  0
  125.8800  131.4920   58.6600 C   0  0  0  0  0  0  0  0  0  0  0  0
  126.3610  132.3520   59.6750 C   0  0  0  0  0  0  0  0  0  0  0  0
  127.6960  132.7540   59.6780 C   0  0  0  0  0  0  0  0  0  0  0  0
  128.5750  132.3210   58.6880 C   0  0  0  0  0  0  0  0  0  0  0  0
  128.1440  131.4690   57.6630 C   0  0  0  0  0  0  0  0  0  0  0  0
  126.7870  131.0550   57.6550 C   0  0  0  0  0  0  0  0  0  0  0  0
  129.1340  131.0130   56.6090 C   0  0  0  0  0  0  0  0  0  0  0  0
  130.3150  131.3780   56.6170 O   0  0  0  0  0  0  0  0  0  0  0  0
  131.3950  126.4440   55.3390 C   0  0  0  0  0  0  0  0  0  0  0  0
  132.3360  125.9890   56.4800 C   0  0  0  0  0  0  0  0  0  0  0  0
  1  2  2  0
  2  3  1  0
  3  4  1  0
  4  5  2  0
  5  6  1  0
  6  7  2  0
  7  8  1  0
  8  9  2  0
  8 10  1  0
  7 11  1  0
 11 12  2  0
 12 13  1  0
 13 14  1  0
 14 15  1  6
 15 16  2  0
 15 17  1  0
 17 18  1  0
 18 19  1  0
 19 20  1  0
 20 21  1  0
 21 22  1  0
 22 23  1  0
 23 24  1  0
 24 25  2  0
 24 26  1  0
 26 27  2  0
 27 28  1  0
 28 29  2  0
 29 30  1  0
 30 31  2  0
 31 32  1  0
 32 33  2  0
 33 34  1  0
 34 35  2  0
 34 36  1  0
 36 37  2  0
 20 38  1  0
 38 39  1  0
 14  2  1  0
 39 17  1  0
 12  4  1  0
 36 23  1  0
 35 26  1  0
 35 30  1  0
M  CHG  2   8   1  10  -1
M  END
>  <Binding energies>  (77) 
[-10.74]

>  <Ligand effiencies>  (77) 
[-0.2753846153846154]

>  <Interactions>  (77) 
["V-B:PRO:540:CB:9857, V-A:TYR:539:CE1:4875, V-A:TYR:539:CD1:4873, V-B:PRO:540:CA:9855, V-A:MET:535:CE:4835, V-A:TYR:531:CZ:4794, V-B:TYR:539:CD2:9846, V-A:TYR:539:CZ:4877, V-B:MET:535:CE:9807, H-B:LYS:534:NZ:9795, V-B:TYR:539:CE2:9848, V-B:TYR:539:CZ:9849, V-A:TYR:539:C:4867, V-B:TYR:531:CE1:9764, V-B:ASP:366:CB:8184, V-A:ASP:366:CB:3212, V-B:ASP:366:C:8180, H-A:TYR:531:OH:4795, V-B:ASP:366:CA:8182, V-A:TYR:484:CE1:4345, V-B:ALA:541:CB:9864, V-B:ALA:541:CA:9862, V-A:TYR:484:CZ:4347, V-B:PRO:540:C:9853, V-B:GLU:543:CD:9880, V-B:GLU:543:CG:9879, H-A:TYR:484:OH:4348, H-B:ALA:541:N:9863, H-B:ARG:545:NH2:9900, H-B:ASN:362:ND2:8151, H-B:TYR:539:OH:9850, V-A:TYR:531:CE1:4792"]

$$$$
RR27_Rahimova_2017
     RDKit          3D

 39 44  0  0  0  0  0  0  0  0999 V2000
  129.3140  132.6520   57.9680 O   0  0  0  0  0  0  0  0  0  0  0  0
  129.3310  131.4190   57.9140 C   0  0  0  0  0  0  0  0  0  0  0  0
  128.5840  130.7220   56.7390 C   0  0  0  0  0  0  0  0  0  0  0  0
  128.9920  131.2630   55.3570 C   0  0  0  0  0  0  0  0  0  0  0  0
  128.2340  132.2390   54.6900 C   0  0  0  0  0  0  0  0  0  0  0  0
  128.6330  132.7080   53.4420 C   0  0  0  0  0  0  0  0  0  0  0  0
  129.7900  132.2050   52.8540 C   0  0  0  0  0  0  0  0  0  0  0  0
  130.5500  131.2360   53.5020 C   0  0  0  0  0  0  0  0  0  0  0  0
  130.1520  130.7660   54.7500 C   0  0  0  0  0  0  0  0  0  0  0  0
  127.0650  130.6550   56.9880 C   0  0  0  0  0  0  0  0  0  0  0  0
  126.4910  131.1230   58.1780 C   0  0  0  0  0  0  0  0  0  0  0  0
  125.1150  131.0360   58.3750 C   0  0  0  0  0  0  0  0  0  0  0  0
  124.3100  130.4780   57.3870 C   0  0  0  0  0  0  0  0  0  0  0  0
  124.8670  129.9990   56.2040 C   0  0  0  0  0  0  0  0  0  0  0  0
  126.2420  130.0840   56.0090 C   0  0  0  0  0  0  0  0  0  0  0  0
  130.1020  130.6760   58.7580 N   0  0  0  0  0  0  0  0  0  0  0  0
  129.9700  129.2190   58.9070 C   0  0  0  0  0  0  0  0  0  0  0  0
  128.8900  128.9760   59.9840 C   0  0  0  0  0  0  0  0  0  0  0  0
  129.2040  129.7060   61.3290 C   0  0  0  0  0  0  0  0  0  0  0  0
  128.1030  129.5880   62.3990 C   0  0  0  0  0  0  0  0  0  0  0  0
  128.4750  129.0430   63.5950 N   0  0  0  0  0  0  0  0  0  0  0  0
  127.5460  128.9410   64.5850 C   0  0  0  0  0  0  0  0  0  0  0  0
  127.7990  128.4170   65.8260 O   0  0  0  0  0  0  0  0  0  0  0  0
  126.2380  129.4000   64.3350 C   0  0  0  0  0  0  0  0  0  0  0  0
  125.1000  129.4510   65.0840 N   0  0  0  0  0  0  0  0  0  0  0  0
  124.1120  130.0070   64.2940 N   0  0  0  0  0  0  0  0  0  0  0  0
  124.6360  130.3000   63.0840 N   0  0  0  0  0  0  0  0  0  0  0  0
  123.8000  130.8800   62.0350 C   0  0  0  0  0  0  0  0  0  0  0  0
  124.3070  132.2200   61.5200 C   0  0  0  0  0  0  0  0  0  0  0  0
  123.4020  133.2010   61.1010 C   0  0  0  0  0  0  0  0  0  0  0  0
  123.8670  134.4330   60.6390 C   0  0  0  0  0  0  0  0  0  0  0  0
  125.2360  134.6930   60.5970 C   0  0  0  0  0  0  0  0  0  0  0  0
  126.1440  133.7210   61.0230 C   0  0  0  0  0  0  0  0  0  0  0  0
  127.8390  134.0500   60.9970 Cl  0  0  0  0  0  0  0  0  0  0  0  0
  125.6800  132.4870   61.4770 C   0  0  0  0  0  0  0  0  0  0  0  0
  125.9710  129.9330   63.0560 C   0  0  0  0  0  0  0  0  0  0  0  0
  126.8600  130.0380   62.0650 N   0  0  0  0  0  0  0  0  0  0  0  0
  129.6860  131.1710   61.0960 C   0  0  0  0  0  0  0  0  0  0  0  0
  130.7130  131.2990   59.9430 C   0  0  0  0  0  0  0  0  0  0  0  0
  1  2  2  0
  2  3  1  0
  3  4  1  0
  4  5  2  0
  5  6  1  0
  6  7  2  0
  7  8  1  0
  8  9  2  0
  3 10  1  0
 10 11  2  0
 11 12  1  0
 12 13  2  0
 13 14  1  0
 14 15  2  0
  2 16  1  0
 16 17  1  0
 17 18  1  0
 18 19  1  0
 19 20  1  0
 20 21  2  0
 21 22  1  0
 22 23  1  0
 22 24  2  0
 24 25  1  0
 25 26  2  0
 26 27  1  0
 27 28  1  0
 28 29  1  0
 29 30  2  0
 30 31  1  0
 31 32  2  0
 32 33  1  0
 33 34  1  0
 33 35  2  0
 27 36  1  0
 36 37  2  0
 19 38  1  0
 38 39  1  0
  9  4  1  0
 15 10  1  0
 39 16  1  0
 37 20  1  0
 36 24  1  0
 35 29  1  0
M  END
>  <Binding energies>  (78) 
[-10.69]

>  <Ligand effiencies>  (78) 
[-0.26725]

>  <Interactions>  (78) 
["V-A:TYR:539:CE1:4875, V-A:MET:535:CG:4833, V-A:TYR:539:CD1:4873, V-B:LEU:475:CD2:9231, V-A:MET:535:CE:4835, V-A:TYR:531:CZ:4794, V-A:ILE:538:CA:4860, V-A:TYR:539:CZ:4877, V-A:PRO:540:CA:4883, V-A:ILE:538:CG2:4863, V-A:TYR:539:CG:4872, V-A:TYR:539:CD2:4874, V-A:TYR:539:CE2:4876, V-A:ALA:541:CB:4892, V-B:ILE:369:CD1:8211, V-A:MET:535:CB:4832, V-A:GLU:543:CD:4908, V-A:ILE:538:CB:4862, V-B:TYR:531:CE1:9764, V-B:ASP:366:CB:8184, V-B:ILE:369:CG2:8209, V-B:ILE:369:CB:8208, V-B:ASP:366:C:8180, V-B:ASP:366:CA:8182, V-A:TYR:531:CE2:4793, V-B:SER:385:C:8377, H-B:GLY:454:N:9022, H-B:TYR:484:OH:9320, H-B:GLU:543:OE1:9881, H-B:GLU:543:OE2:9882, H-B:ARG:545:NE:9896, V-B:SER:385:CA:8379, V-B:ILE:369:CG1:8210"]

$$$$
RR28_Rahimova_2017
     RDKit          3D

 46 49  0  0  0  0  0  0  0  0999 V2000
  132.8000  131.5990   61.7390 C   0  0  0  0  0  0  0  0  0  0  0  0
  132.3150  131.0320   60.4090 C   0  0  0  0  0  0  0  0  0  0  0  0
  132.8700  131.3710   59.3660 O   0  0  0  0  0  0  0  0  0  0  0  0
  131.2790  130.1710   60.4690 N   0  0  0  0  0  0  0  0  0  0  0  0
  130.5990  129.4770   59.3520 C   0  0  0  0  0  0  0  0  0  0  0  0
  131.1730  128.0350   59.2540 C   0  0  0  0  0  0  0  0  0  0  0  0
  131.2820  127.2570   60.4170 C   0  0  0  0  0  0  0  0  0  0  0  0
  131.7950  125.9650   60.3670 C   0  0  0  0  0  0  0  0  0  0  0  0
  132.2130  125.4190   59.1520 C   0  0  0  0  0  0  0  0  0  0  0  0
  132.7780  124.0000   59.1180 C   0  0  0  0  0  0  0  0  0  0  0  0
  131.8950  123.0930   59.5430 F   0  0  0  0  0  0  0  0  0  0  0  0
  133.1370  123.6740   57.8770 F   0  0  0  0  0  0  0  0  0  0  0  0
  133.8520  123.9370   59.9060 F   0  0  0  0  0  0  0  0  0  0  0  0
  132.1110  126.1840   57.9870 C   0  0  0  0  0  0  0  0  0  0  0  0
  131.5980  127.4770   58.0380 C   0  0  0  0  0  0  0  0  0  0  0  0
  130.7380  130.3050   58.0240 C   0  0  0  0  0  0  0  0  0  0  0  0
  129.9980  131.6660   58.0690 C   0  0  0  0  0  0  0  0  0  0  0  0
  128.5830  131.3620   58.3360 N   0  0  0  0  0  0  0  0  0  0  0  0
  127.7040  131.2220   57.3070 C   0  0  0  0  0  0  0  0  0  0  0  0
  128.0070  131.5030   56.1450 O   0  0  0  0  0  0  0  0  0  0  0  0
  126.2340  130.8550   57.6230 C   0  0  0  0  0  0  0  0  0  0  0  0
  125.7510  129.4740   57.1020 C   0  0  0  0  0  0  0  0  0  0  0  0
  126.8760  128.5140   56.6490 C   0  0  0  0  0  0  0  0  0  0  0  0
  127.3060  128.6280   55.4980 O   0  0  0  0  0  0  0  0  0  0  0  0
  127.4520  127.6730   57.5550 N   0  0  0  0  0  0  0  0  0  0  0  0
  126.8030  127.2690   58.8080 C   0  0  0  0  0  0  0  0  0  0  0  0
  125.9050  126.0600   58.4690 C   0  0  0  0  0  0  0  0  0  0  0  0
  126.6530  124.8520   57.8050 C   0  0  0  0  0  0  0  0  0  0  0  0
  125.6620  123.9550   57.1750 N   0  0  0  0  0  0  0  0  0  0  0  0
  125.8550  122.7110   56.6910 C   0  0  0  0  0  0  0  0  0  0  0  0
  124.6370  122.0290   56.0750 C   0  0  0  0  0  0  0  0  0  0  0  0
  126.9340  122.1200   56.7190 O   0  0  0  0  0  0  0  0  0  0  0  0
  127.3550  124.0500   58.9480 C   0  0  0  0  0  0  0  0  0  0  0  0
  126.7840  123.8790   60.2200 C   0  0  0  0  0  0  0  0  0  0  0  0
  127.4420  123.1570   61.2120 C   0  0  0  0  0  0  0  0  0  0  0  0
  128.6920  122.5880   60.9570 C   0  0  0  0  0  0  0  0  0  0  0  0
  129.4260  121.7890   62.0340 C   0  0  0  0  0  0  0  0  0  0  0  0
  128.9630  122.0980   63.2460 F   0  0  0  0  0  0  0  0  0  0  0  0
  129.2300  120.4880   61.8210 F   0  0  0  0  0  0  0  0  0  0  0  0
  130.7400  122.0210   62.0250 F   0  0  0  0  0  0  0  0  0  0  0  0
  129.2780  122.7570   59.7020 C   0  0  0  0  0  0  0  0  0  0  0  0
  128.6170  123.4790   58.7130 C   0  0  0  0  0  0  0  0  0  0  0  0
  127.6610  125.4040   56.7240 C   0  0  0  0  0  0  0  0  0  0  0  0
  128.4460  126.6860   57.1150 C   0  0  0  0  0  0  0  0  0  0  0  0
  128.3550  130.7670   59.6610 C   0  0  0  0  0  0  0  0  0  0  0  0
  129.0700  129.3910   59.6700 C   0  0  0  0  0  0  0  0  0  0  0  0
  1  2  1  0
  2  3  2  0
  2  4  1  0
  4  5  1  0
  5  6  1  0
  6  7  2  0
  7  8  1  0
  8  9  2  0
  9 10  1  0
 10 11  1  0
 10 12  1  0
 10 13  1  0
  9 14  1  0
 14 15  2  0
  5 16  1  0
 16 17  1  0
 17 18  1  0
 18 19  1  0
 19 20  2  0
 19 21  1  0
 21 22  1  0
 22 23  1  0
 23 24  2  0
 23 25  1  0
 25 26  1  0
 26 27  1  0
 27 28  1  0
 28 29  1  0
 29 30  1  0
 30 31  1  0
 30 32  2  0
 28 33  1  0
 33 34  2  0
 34 35  1  0
 35 36  2  0
 36 37  1  0
 37 38  1  0
 37 39  1  0
 37 40  1  0
 36 41  1  0
 41 42  2  0
 28 43  1  0
 43 44  1  0
 18 45  1  0
 45 46  1  0
 46  5  1  0
 15  6  1  0
 44 25  1  0
 42 33  1  0
M  END
>  <Binding energies>  (79) 
[-10.06]

>  <Ligand effiencies>  (79) 
[-0.20958333333333334]

>  <Interactions>  (79) 
["V-B:PRO:540:CB:9857, V-A:TYR:539:CE1:4875, V-B:ASP:366:CG:8185, V-B:ILE:538:CA:9832, V-B:PRO:540:N:9856, V-B:PRO:540:CA:9855, V-B:TYR:539:CD2:9846, V-A:TYR:539:CZ:4877, V-A:PRO:540:CA:4883, V-B:MET:535:CE:9807, V-B:TYR:539:CE2:9848, V-B:TYR:531:CZ:9766, V-B:TYR:539:CZ:9849, V-B:PRO:540:CG:9858, V-B:LEU:363:CD1:8161, V-B:PRO:540:CD:9859, V-B:ILE:538:CD1:9837, V-B:ILE:538:CG2:9835, V-A:ASP:366:CG:3213, V-A:ILE:369:CD1:3239, V-A:ILE:369:CG2:3237, V-A:LEU:475:CD2:4259, V-B:TYR:531:CE1:9764, H-B:TYR:531:OH:9767, V-B:ASP:366:CB:8184, V-A:PRO:540:CB:4885, V-A:ASP:366:CB:3212, V-A:ALA:541:C:4888, V-A:ASN:362:CB:3176, V-B:ILE:538:CB:9834, V-A:ASP:366:CA:3210, V-A:ILE:369:CB:3236, V-A:TYR:484:CE1:4345, V-B:ALA:541:CB:9864, V-B:ALA:541:CA:9862, V-A:TYR:484:CZ:4347, V-B:PRO:540:C:9853, V-B:GLU:543:CD:9880, V-B:GLU:543:CG:9879, H-B:TYR:539:N:9842, H-A:GLU:543:OE1:4909, H-B:ASP:366:OD2:8187, H-A:ASP:366:OD1:3214"]

$$$$
RR29_Rahimova_2017
     RDKit          3D

 18 19  0  0  0  0  0  0  0  0999 V2000
  129.1970  121.3750   61.8630 C   0  0  0  0  0  0  0  0  0  0  0  0
  128.6600  122.7510   62.2270 C   0  0  0  0  0  0  0  0  0  0  0  0
  127.1330  122.8750   62.0280 C   0  0  0  0  0  0  0  0  0  0  0  0
  126.7760  124.0030   61.0380 C   0  0  0  0  0  0  0  0  0  0  0  0
  126.7320  123.5140   59.5980 C   0  0  0  0  0  0  0  0  0  0  0  0
  127.8900  122.9780   59.0010 C   0  0  0  0  0  0  0  0  0  0  0  0
  127.8710  122.5210   57.6760 C   0  0  0  0  0  0  0  0  0  0  0  0
  126.6750  122.6280   56.9760 C   0  0  0  0  0  0  0  0  0  0  0  0
  125.5490  123.1490   57.5500 C   0  0  0  0  0  0  0  0  0  0  0  0
  125.5360  123.6010   58.8650 C   0  0  0  0  0  0  0  0  0  0  0  0
  124.5260  123.1020   56.6550 O   0  0  0  0  0  0  0  0  0  0  0  0
  125.1080  122.7310   55.4340 C   0  0  0  0  0  0  0  0  0  0  0  0
  126.3930  122.2370   55.7050 O   0  0  0  0  0  0  0  0  0  0  0  0
  129.4840  123.6430   62.6370 N   0  0  0  0  0  0  0  0  0  0  0  0
  129.0150  124.9140   62.8860 N   0  0  0  0  0  0  0  0  0  0  0  0
  129.7600  125.9020   63.4080 C   0  0  0  0  0  0  0  0  0  0  0  0
  131.0480  125.7940   63.7350 N   0  0  0  0  0  0  0  0  0  0  0  0
  129.1750  127.0730   63.6130 N   0  0  0  0  0  0  0  0  0  0  0  0
  1  2  1  0
  2  3  1  0
  3  4  1  0
  4  5  1  0
  5  6  2  0
  6  7  1  0
  7  8  2  0
  8  9  1  0
  9 10  2  0
  9 11  1  0
 11 12  1  0
 12 13  1  0
  2 14  2  0
 14 15  1  0
 15 16  1  0
 16 17  1  0
 16 18  2  0
 10  5  1  0
 13  8  1  0
M  CHG  1  18   1
M  END
>  <Binding energies>  (80) 
[-8.35]

>  <Ligand effiencies>  (80) 
[-0.3630434782608695]

>  <Interactions>  (80) 
["V-B:PRO:540:CB:9857, V-B:TYR:539:C:9839, V-B:TYR:531:CE2:9765, V-B:TYR:539:CD1:9845, V-B:ILE:538:CA:9832, V-B:PRO:540:N:9856, V-B:PRO:540:CA:9855, V-B:TYR:539:CD2:9846, V-B:TYR:539:CE2:9848, V-B:TYR:531:CZ:9766, V-B:TYR:539:CZ:9849, V-B:LEU:363:CD1:8161, V-B:PRO:540:CD:9859, V-B:ILE:538:CD1:9837, V-B:ILE:538:CG2:9835, V-B:TYR:539:CG:9844, V-A:GLU:543:CD:4908, H-B:TYR:531:OH:9767, V-B:ILE:538:CB:9834, V-B:ALA:541:CB:9864, V-B:PRO:540:C:9853, V-B:GLU:543:CD:9880, V-B:GLU:543:CG:9879, H-B:TYR:539:N:9842, H-A:GLU:543:OE1:4909, H-A:TYR:484:OH:4348, H-B:GLU:543:OE1:9881, H-B:GLU:543:OE2:9882, H-A:GLU:543:OE2:4910, V-B:TYR:539:CA:9841"]

$$$$
RR30_Rahimova_2017
     RDKit          3D

 18 19  0  0  0  0  0  0  0  0999 V2000
  132.0750  130.8590   57.6920 C   0  0  0  0  0  0  0  0  0  0  0  0
  132.6500  131.1180   59.0920 C   0  0  0  0  0  0  0  0  0  0  0  0
  131.5910  131.5770   60.0700 C   0  0  0  0  0  0  0  0  0  0  0  0
  131.6050  131.4930   61.3780 N   0  0  0  0  0  0  0  0  0  0  0  0
  130.4010  132.0440   61.8090 N   0  0  0  0  0  0  0  0  0  0  0  0
  129.7600  132.4050   60.7260 C   0  0  0  0  0  0  0  0  0  0  0  0
  128.1780  133.1790   60.6200 S   0  0  0  0  0  0  0  0  0  0  0  0
  127.2510  131.8770   59.7470 C   0  0  0  0  0  0  0  0  0  0  0  0
  127.7110  131.7120   58.2960 C   0  0  0  0  0  0  0  0  0  0  0  0
  127.2580  130.7850   57.6220 O   0  0  0  0  0  0  0  0  0  0  0  0
  128.6310  132.6030   57.8640 N   0  0  0  0  0  0  0  0  0  0  0  0
  129.1980  132.6530   56.5980 C   0  0  0  0  0  0  0  0  0  0  0  0
  130.3820  133.1070   56.2550 N   0  0  0  0  0  0  0  0  0  0  0  0
  130.6130  133.0000   54.8890 N   0  0  0  0  0  0  0  0  0  0  0  0
  129.6060  132.4720   54.2310 C   0  0  0  0  0  0  0  0  0  0  0  0
  129.6180  132.2550   52.7350 C   0  0  0  0  0  0  0  0  0  0  0  0
  128.2670  132.0520   55.2630 S   0  0  0  0  0  0  0  0  0  0  0  0
  130.4560  132.1430   59.5900 O   0  0  0  0  0  0  0  0  0  0  0  0
  1  2  1  0
  2  3  1  0
  3  4  2  0
  4  5  1  0
  5  6  2  0
  6  7  1  0
  7  8  1  0
  8  9  1  0
  9 10  2  0
  9 11  1  0
 11 12  1  0
 12 13  2  0
 13 14  1  0
 14 15  2  0
 15 16  1  0
 15 17  1  0
  6 18  1  0
 18  3  1  0
 17 12  1  0
M  END
>  <Binding energies>  (81) 
[-6.97]

>  <Ligand effiencies>  (81) 
[-0.36684210526315786]

>  <Interactions>  (81) 
["V-A:PRO:540:N:4884, V-A:TYR:539:CE1:4875, V-A:MET:535:CG:4833, H-A:TYR:539:N:4870, V-A:TYR:539:CD1:4873, H-A:TYR:539:O:4868, H-A:ALA:541:N:4891, V-A:ILE:538:CA:4860, V-A:TYR:539:CZ:4877, V-A:PRO:540:CA:4883, V-A:ILE:538:CG2:4863, V-A:TYR:539:C:4867, V-A:TYR:539:CG:4872, V-A:TYR:539:CD2:4874, V-A:TYR:539:CE2:4876, V-A:ASP:366:CG:3213, V-A:ALA:541:CB:4892, V-A:MET:535:CB:4832, V-A:ILE:538:CB:4862, V-A:PRO:540:CB:4885, V-A:ALA:541:CA:4890, V-A:PRO:540:C:4881, V-A:TYR:539:CA:4869"]

$$$$
RR31_Rahimova_2017
     RDKit          3D

 18 19  0  0  0  0  0  0  0  0999 V2000
  124.5110  122.7340   55.7490 C   0  0  0  0  0  0  0  0  0  0  0  0
  125.6830  122.9320   56.7010 C   0  0  0  0  0  0  0  0  0  0  0  0
  125.4290  123.2220   58.0420 C   0  0  0  0  0  0  0  0  0  0  0  0
  126.4790  123.4050   58.9390 C   0  0  0  0  0  0  0  0  0  0  0  0
  127.8160  123.2940   58.5250 C   0  0  0  0  0  0  0  0  0  0  0  0
  128.8800  123.4840   59.4100 N   0  0  0  0  0  0  0  0  0  0  0  0
  129.3150  122.4310   60.3470 C   0  0  0  0  0  0  0  0  0  0  0  0
  130.2040  122.9440   61.5040 C   0  0  0  0  0  0  0  0  0  0  0  0
  131.3760  123.6560   60.9880 N   0  0  0  0  0  0  0  0  0  0  0  0
  132.2580  124.1240   62.0620 C   0  0  0  0  0  0  0  0  0  0  0  0
  131.9120  125.5460   62.5490 C   0  0  0  0  0  0  0  0  0  0  0  0
  130.5080  125.6230   63.1720 C   0  0  0  0  0  0  0  0  0  0  0  0
  130.6180  125.8150   64.6880 N   0  0  0  0  0  0  0  0  0  0  0  0
  130.8890  124.7990   60.2160 C   0  0  0  0  0  0  0  0  0  0  0  0
  130.0280  124.3280   59.0220 C   0  0  0  0  0  0  0  0  0  0  0  0
  128.0580  123.0100   57.1720 C   0  0  0  0  0  0  0  0  0  0  0  0
  127.0110  122.8260   56.2600 C   0  0  0  0  0  0  0  0  0  0  0  0
  127.3410  122.5230   54.8040 C   0  0  0  0  0  0  0  0  0  0  0  0
  1  2  1  0
  2  3  2  0
  3  4  1  0
  4  5  2  0
  5  6  1  0
  6  7  1  0
  7  8  1  0
  8  9  1  0
  9 10  1  0
 10 11  1  0
 11 12  1  0
 12 13  1  0
  9 14  1  0
 14 15  1  0
  5 16  1  0
 16 17  2  0
 17 18  1  0
 17  2  1  0
 15  6  1  0
M  CHG  1  13   1
M  END
>  <Binding energies>  (82) 
[-7.72]

>  <Ligand effiencies>  (82) 
[-0.3676190476190476]

>  <Interactions>  (82) 
["V-B:PRO:540:CB:9857, V-B:ILE:538:C:9830, V-B:TYR:531:CE2:9765, V-B:TYR:539:CD1:9845, V-B:ILE:538:CA:9832, V-B:PRO:540:N:9856, V-B:PRO:540:CA:9855, V-B:VAL:537:C:9822, V-B:TYR:539:CD2:9846, V-B:MET:535:CE:9807, V-B:TYR:539:CE2:9848, V-B:TYR:539:CE1:9847, V-B:TYR:531:CZ:9766, V-B:TYR:539:CZ:9849, V-B:LEU:363:CD1:8161, V-B:PRO:540:CD:9859, V-B:ILE:538:CD1:9837, V-B:ILE:538:CG2:9835, V-A:ARG:545:CZ:4926, V-B:TYR:539:CG:9844, V-A:GLU:543:CD:4908, V-A:TYR:484:CZ:4347, V-B:GLU:543:CD:9880, H-A:GLU:543:OE1:4909, H-A:TYR:484:OH:4348, H-B:GLU:543:OE1:9881, H-B:GLU:543:OE2:9882, H-A:GLU:543:OE2:4910"]

$$$$
RR32_Rahimova_2017
     RDKit          3D

 18 20  0  0  0  0  0  0  0  0999 V2000
  125.3620  123.8170   60.9820 C   0  0  0  0  0  0  0  0  0  0  0  0
  126.3870  123.4250   59.9220 C   0  0  0  0  0  0  0  0  0  0  0  0
  127.7100  123.2340   60.3210 C   0  0  0  0  0  0  0  0  0  0  0  0
  128.6710  122.8730   59.3820 C   0  0  0  0  0  0  0  0  0  0  0  0
  129.9830  122.6850   59.7820 N   0  0  0  0  0  0  0  0  0  0  0  0
  130.7370  123.8780   60.2090 C   0  0  0  0  0  0  0  0  0  0  0  0
  132.2370  123.5940   60.4610 C   0  0  0  0  0  0  0  0  0  0  0  0
  132.3900  122.5560   61.4800 N   0  0  0  0  0  0  0  0  0  0  0  0
  133.8040  122.3110   61.7420 C   0  0  0  0  0  0  0  0  0  0  0  0
  131.7480  121.3400   60.9860 C   0  0  0  0  0  0  0  0  0  0  0  0
  130.2420  121.5910   60.7370 C   0  0  0  0  0  0  0  0  0  0  0  0
  128.3800  122.6970   58.0670 N   0  0  0  0  0  0  0  0  0  0  0  0
  127.0990  122.8790   57.6460 C   0  0  0  0  0  0  0  0  0  0  0  0
  126.8240  122.6900   56.2700 C   0  0  0  0  0  0  0  0  0  0  0  0
  125.5340  122.8620   55.7830 C   0  0  0  0  0  0  0  0  0  0  0  0
  124.4990  123.2200   56.6390 C   0  0  0  0  0  0  0  0  0  0  0  0
  124.7350  123.4130   57.9970 C   0  0  0  0  0  0  0  0  0  0  0  0
  126.0420  123.2480   58.5410 C   0  0  0  0  0  0  0  0  0  0  0  0
  1  2  1  0
  2  3  2  0
  3  4  1  0
  4  5  1  0
  5  6  1  0
  6  7  1  0
  7  8  1  0
  8  9  1  0
  8 10  1  0
 10 11  1  0
  4 12  2  0
 12 13  1  0
 13 14  2  0
 14 15  1  0
 15 16  2  0
 16 17  1  0
 17 18  2  0
 18  2  1  0
 11  5  1  0
 18 13  1  0
M  END
>  <Binding energies>  (83) 
[-6.65]

>  <Ligand effiencies>  (83) 
[-0.36944444444444446]

>  <Interactions>  (83) 
["V-B:PRO:540:CB:9857, V-B:TYR:539:C:9839, V-B:TYR:531:CE2:9765, V-B:TYR:539:CD1:9845, V-B:ILE:538:CA:9832, V-B:PRO:540:N:9856, V-B:PRO:540:CA:9855, V-B:TYR:539:CD2:9846, V-B:TYR:539:CE2:9848, V-B:TYR:531:CZ:9766, V-B:LEU:363:CD1:8161, V-B:ILE:538:CD1:9837, V-A:GLY:454:CA:4049, V-A:ILE:369:CD1:3239, V-A:LEU:475:CD2:4259, H-A:TYR:484:OH:4348"]

$$$$
RR5_Rahimova_2017
     RDKit          3D

 45 50  0  0  0  0  0  0  0  0999 V2000
  127.0200  126.9370   56.9920 O   0  0  0  0  0  0  0  0  0  0  0  0
  126.8140  126.7270   58.1860 C   0  0  0  0  0  0  0  0  0  0  0  0
  125.9630  127.7200   59.0000 C   0  0  0  0  0  0  0  0  0  0  0  0
  125.1680  128.7500   58.1210 C   0  0  2  0  0  0  0  0  0  0  0  0
  125.9180  129.3000   56.9740 N   0  0  0  0  0  0  0  0  0  0  0  0
  125.2820  129.9980   55.9560 C   0  0  0  0  0  0  0  0  0  0  0  0
  124.0820  130.2810   55.8950 O   0  0  0  0  0  0  0  0  0  0  0  0
  126.1950  130.3100   55.0210 O   0  0  0  0  0  0  0  0  0  0  0  0
  127.5920  130.2070   55.2830 C   0  0  0  0  0  0  0  0  0  0  0  0
  128.1780  131.5790   55.6850 C   0  0  0  0  0  0  0  0  0  0  0  0
  128.2010  131.8160   57.1840 C   0  0  0  0  0  0  0  0  0  0  0  0
  127.1460  131.8100   58.1020 C   0  0  0  0  0  0  0  0  0  0  0  0
  127.4010  132.0340   59.4560 C   0  0  0  0  0  0  0  0  0  0  0  0
  128.7060  132.2640   59.8940 C   0  0  0  0  0  0  0  0  0  0  0  0
  129.7610  132.2730   58.9800 C   0  0  0  0  0  0  0  0  0  0  0  0
  129.5030  132.0500   57.6260 C   0  0  0  0  0  0  0  0  0  0  0  0
  130.4030  132.0130   56.4630 C   0  0  0  0  0  0  0  0  0  0  0  0
  131.7840  132.1970   56.3620 C   0  0  0  0  0  0  0  0  0  0  0  0
  132.4000  132.1300   55.1120 C   0  0  0  0  0  0  0  0  0  0  0  0
  131.6390  131.8770   53.9680 C   0  0  0  0  0  0  0  0  0  0  0  0
  130.2610  131.6900   54.0740 C   0  0  0  0  0  0  0  0  0  0  0  0
  129.6410  131.7530   55.3230 C   0  0  0  0  0  0  0  0  0  0  0  0
  124.6210  129.9090   58.9910 C   0  0  0  0  0  0  0  0  0  0  0  0
  125.0880  130.2530   60.0580 O   0  0  0  0  0  0  0  0  0  0  0  0
  123.5550  130.4900   58.3650 O   0  0  0  0  0  0  0  0  0  0  0  0
  127.2570  125.6460   58.8670 N   0  0  0  0  0  0  0  0  0  0  0  0
  128.0860  124.4630   58.4890 C   0  0  0  0  0  0  0  0  0  0  0  0
  127.1950  123.7730   57.4020 C   0  0  0  0  0  0  0  0  0  0  0  0
  125.7970  123.7130   57.5300 C   0  0  0  0  0  0  0  0  0  0  0  0
  125.0140  123.0990   56.5560 C   0  0  0  0  0  0  0  0  0  0  0  0
  125.6170  122.5230   55.4430 C   0  0  0  0  0  0  0  0  0  0  0  0
  126.9980  122.5680   55.2900 C   0  0  0  0  0  0  0  0  0  0  0  0
  127.7780  123.1920   56.2580 C   0  0  0  0  0  0  0  0  0  0  0  0
  129.4340  125.0040   57.9060 C   0  0  0  0  0  0  0  0  0  0  0  0
  129.4950  125.6440   56.6570 C   0  0  0  0  0  0  0  0  0  0  0  0
  130.7090  126.1000   56.1490 C   0  0  0  0  0  0  0  0  0  0  0  0
  131.8780  125.9210   56.8820 C   0  0  0  0  0  0  0  0  0  0  0  0
  131.8430  125.2940   58.1230 C   0  0  0  0  0  0  0  0  0  0  0  0
  130.6280  124.8460   58.6330 C   0  0  0  0  0  0  0  0  0  0  0  0
  128.2350  123.6030   59.7890 C   0  0  0  0  0  0  0  0  0  0  0  0
  129.0880  122.4840   59.8230 C   0  0  0  0  0  0  0  0  0  0  0  0
  129.2180  121.7110   60.9740 C   0  0  0  0  0  0  0  0  0  0  0  0
  128.5010  122.0480   62.1160 C   0  0  0  0  0  0  0  0  0  0  0  0
  127.6620  123.1560   62.1170 C   0  0  0  0  0  0  0  0  0  0  0  0
  127.5340  123.9260   60.9650 C   0  0  0  0  0  0  0  0  0  0  0  0
  1  2  2  0
  2  3  1  0
  4  3  1  1
  4  5  1  0
  5  6  1  0
  6  7  2  0
  6  8  1  0
  8  9  1  0
  9 10  1  0
 10 11  1  0
 11 12  2  0
 12 13  1  0
 13 14  2  0
 14 15  1  0
 15 16  2  0
 16 17  1  0
 17 18  2  0
 18 19  1  0
 19 20  2  0
 20 21  1  0
 21 22  2  0
  4 23  1  0
 23 24  2  0
 23 25  1  0
  2 26  1  0
 26 27  1  0
 27 28  1  0
 28 29  2  0
 29 30  1  0
 30 31  2  0
 31 32  1  0
 32 33  2  0
 27 34  1  0
 34 35  2  0
 35 36  1  0
 36 37  2  0
 37 38  1  0
 38 39  2  0
 27 40  1  0
 40 41  2  0
 41 42  1  0
 42 43  2  0
 43 44  1  0
 44 45  2  0
 22 10  1  0
 33 28  1  0
 39 34  1  0
 45 40  1  0
 16 11  1  0
 22 17  1  0
M  END
>  <Binding energies>  (84) 
[-11.73]

>  <Ligand effiencies>  (84) 
[-0.244375]

>  <Interactions>  (84) 
["V-A:PRO:540:N:4884, V-B:TYR:539:C:9839, V-A:TYR:539:CE1:4875, V-B:ILE:538:C:9830, V-B:TYR:531:CE2:9765, V-B:ASP:366:CG:8185, V-B:TYR:539:CD1:9845, V-A:TYR:539:CD1:4873, V-B:ILE:538:CA:9832, V-A:TYR:531:CZ:4794, V-B:TYR:539:CD2:9846, V-A:TYR:539:CZ:4877, V-A:PRO:540:CA:4883, V-A:ILE:538:CG2:4863, V-B:MET:535:CE:9807, H-B:LYS:534:NZ:9795, H-A:TYR:539:OH:4878, V-B:TYR:539:CE2:9848, V-B:TYR:539:CE1:9847, V-B:TYR:531:CZ:9766, V-B:TYR:539:CZ:9849, V-A:TYR:539:C:4867, V-B:LEU:363:CD1:8161, V-B:ILE:538:CD1:9837, V-A:TYR:539:CE2:4876, V-B:ILE:538:CG2:9835, V-B:TYR:539:CG:9844, V-A:ILE:538:CB:4862, V-B:TYR:531:CE1:9764, H-B:TYR:531:OH:9767, V-B:ASP:366:CB:8184, V-A:PRO:540:CB:4885, V-A:ASP:366:CB:3212, V-A:PRO:540:CD:4887, V-A:LEU:363:CD1:3189, V-B:ASP:366:CA:8182, V-A:TYR:531:CE2:4793, V-B:ILE:538:CB:9834, V-B:ALA:541:CB:9864, V-B:GLU:543:CD:9880, V-B:GLU:543:CG:9879, H-B:ASP:366:OD2:8187, H-B:ASP:366:O:8181"]

$$$$
