1a_Ghoteimi_2023
     RDKit          3D

 40 43  0  0  0  0  0  0  0  0999 V2000
  132.5640  131.0970   58.8770 C   0  0  0  0  0  0  0  0  0  0  0  0
  133.1260  131.0290   57.4540 C   0  0  0  0  0  0  0  0  0  0  0  0
  132.8820  132.2630   56.7910 O   0  0  0  0  0  0  0  0  0  0  0  0
  132.2260  132.3040   55.6030 C   0  0  0  0  0  0  0  0  0  0  0  0
  132.7640  132.6220   54.5380 O   0  0  0  0  0  0  0  0  0  0  0  0
  130.7790  131.9170   55.7120 C   0  0  0  0  0  0  0  0  0  0  0  0
  130.1320  131.1730   54.7140 C   0  0  0  0  0  0  0  0  0  0  0  0
  128.7880  130.8320   54.8410 C   0  0  0  0  0  0  0  0  0  0  0  0
  128.0650  131.2280   55.9770 C   0  0  0  0  0  0  0  0  0  0  0  0
  126.7050  130.9440   56.2070 N   0  0  0  0  0  0  0  0  0  0  0  0
  125.9440  129.9280   55.7450 C   0  0  0  0  0  0  0  0  0  0  0  0
  126.3320  129.0160   55.0150 O   0  0  0  0  0  0  0  0  0  0  0  0
  124.4830  129.9450   56.1960 C   0  0  0  0  0  0  0  0  0  0  0  0
  124.3090  130.5820   57.8880 S   0  0  0  0  0  0  0  0  0  0  0  0
  125.1070  129.3970   58.9480 C   0  0  0  0  0  0  0  0  0  0  0  0
  125.3970  128.2230   58.3390 N   0  0  0  0  0  0  0  0  0  0  0  0
  126.0130  127.2340   59.0380 C   0  0  0  0  0  0  0  0  0  0  0  0
  126.3200  125.9700   58.2870 C   0  0  0  0  0  0  0  0  0  0  0  0
  127.4590  125.8640   57.4720 C   0  0  0  0  0  0  0  0  0  0  0  0
  127.7420  124.6910   56.7780 C   0  0  0  0  0  0  0  0  0  0  0  0
  126.8950  123.5900   56.8730 C   0  0  0  0  0  0  0  0  0  0  0  0
  127.2540  122.4670   56.1520 O   0  0  0  0  0  0  0  0  0  0  0  0
  127.1440  122.4900   54.7330 C   0  0  0  0  0  0  0  0  0  0  0  0
  125.7520  123.6810   57.6790 C   0  0  0  0  0  0  0  0  0  0  0  0
  125.4720  124.8550   58.3710 C   0  0  0  0  0  0  0  0  0  0  0  0
  126.3500  127.4170   60.3850 C   0  0  0  0  0  0  0  0  0  0  0  0
  126.0370  128.6140   61.0430 C   0  0  0  0  0  0  0  0  0  0  0  0
  126.3970  128.7260   62.4890 C   0  0  0  0  0  0  0  0  0  0  0  0
  127.7310  128.6540   62.9030 C   0  0  0  0  0  0  0  0  0  0  0  0
  128.0600  128.7740   64.2510 C   0  0  0  0  0  0  0  0  0  0  0  0
  127.0660  128.9770   65.2080 C   0  0  0  0  0  0  0  0  0  0  0  0
  127.4860  129.0860   66.5190 O   0  0  0  0  0  0  0  0  0  0  0  0
  128.5820  128.2950   66.9640 C   0  0  0  0  0  0  0  0  0  0  0  0
  125.7270  129.0590   64.7950 C   0  0  0  0  0  0  0  0  0  0  0  0
  125.4000  128.9370   63.4470 C   0  0  0  0  0  0  0  0  0  0  0  0
  125.3990  129.6410   60.3070 C   0  0  0  0  0  0  0  0  0  0  0  0
  125.0610  130.9210   60.9370 C   0  0  0  0  0  0  0  0  0  0  0  0
  124.7940  131.9310   61.4360 N   0  0  0  0  0  0  0  0  0  0  0  0
  128.7040  131.9720   56.9690 C   0  0  0  0  0  0  0  0  0  0  0  0
  130.0490  132.3120   56.8400 C   0  0  0  0  0  0  0  0  0  0  0  0
  1  2  1  0
  2  3  1  0
  3  4  1  0
  4  5  2  0
  4  6  1  0
  6  7  2  0
  7  8  1  0
  8  9  2  0
  9 10  1  0
 10 11  1  0
 11 12  2  0
 11 13  1  0
 13 14  1  0
 14 15  1  0
 15 16  2  0
 16 17  1  0
 17 18  1  0
 18 19  2  0
 19 20  1  0
 20 21  2  0
 21 22  1  0
 22 23  1  0
 21 24  1  0
 24 25  2  0
 17 26  2  0
 26 27  1  0
 27 28  1  0
 28 29  2  0
 29 30  1  0
 30 31  2  0
 31 32  1  0
 32 33  1  0
 31 34  1  0
 34 35  2  0
 27 36  2  0
 36 37  1  0
 37 38  3  0
  9 39  1  0
 39 40  2  0
 40  6  1  0
 36 15  1  0
 25 18  1  0
 35 28  1  0
M  END
>  <Binding energies>  (1) 
[-10.07]

>  <Ligand effiencies>  (1) 
[-0.24560975609756097]

>  <Interactions>  (1) 
["V-B:PRO:540:CB:9857, V-A:PRO:540:N:4884, V-A:TYR:539:CE1:4875, V-B:ILE:538:C:9830, V-B:ASP:366:CG:8185, V-B:TYR:539:CD1:9845, V-A:TYR:539:CD1:4873, V-B:ILE:538:CA:9832, V-B:VAL:537:C:9822, V-A:TYR:539:CZ:4877, V-A:PRO:540:CA:4883, V-A:ILE:538:CG2:4863, V-B:MET:535:CE:9807, H-B:LYS:534:NZ:9795, H-A:TYR:539:OH:4878, V-B:TYR:539:CE1:9847, V-B:TYR:531:CZ:9766, V-A:TYR:539:C:4867, V-B:ILE:538:CD1:9837, V-A:TYR:539:CE2:4876, V-A:GLU:543:CG:4907, V-B:ARG:545:CZ:9898, V-A:GLU:543:CD:4908, V-A:ILE:538:CB:4862, V-B:TYR:531:CE1:9764, H-B:TYR:531:OH:9767, V-B:ASP:366:CB:8184, V-A:PRO:540:CB:4885, H-A:TYR:531:OH:4795, V-A:PRO:540:CD:4887, V-A:LEU:363:CD1:3189, V-A:TYR:531:CE2:4793, H-B:TYR:539:N:9842, V-B:TYR:531:CD1:9762, V-B:HIS:456:CE1:9042, H-B:TYR:484:OH:9320, V-A:GLU:543:CB:4906"]

$$$$
1b_Ghoteimi_2023
     RDKit          3D

 34 37  0  0  0  0  0  0  0  0999 V2000
  124.0880  129.5930   66.8760 C   0  0  0  0  0  0  0  0  0  0  0  0
  123.8400  129.8540   65.4990 O   0  0  0  0  0  0  0  0  0  0  0  0
  124.7930  129.4990   64.5640 C   0  0  0  0  0  0  0  0  0  0  0  0
  124.5010  129.7910   63.2330 C   0  0  0  0  0  0  0  0  0  0  0  0
  125.4010  129.4690   62.2220 C   0  0  0  0  0  0  0  0  0  0  0  0
  126.6240  128.8460   62.5110 C   0  0  0  0  0  0  0  0  0  0  0  0
  127.5930  128.4970   61.4160 C   0  0  0  0  0  0  0  0  0  0  0  0
  128.0740  129.4360   60.4970 C   0  0  0  0  0  0  0  0  0  0  0  0
  128.9790  129.0600   59.4970 C   0  0  0  0  0  0  0  0  0  0  0  0
  129.4460  130.1140   58.5480 C   0  0  0  0  0  0  0  0  0  0  0  0
  130.7990  130.4610   58.4890 C   0  0  0  0  0  0  0  0  0  0  0  0
  131.2380  131.4490   57.6120 C   0  0  0  0  0  0  0  0  0  0  0  0
  130.3340  132.1120   56.7810 C   0  0  0  0  0  0  0  0  0  0  0  0
  130.8590  133.0780   55.9440 O   0  0  0  0  0  0  0  0  0  0  0  0
  132.1600  132.8900   55.3980 C   0  0  0  0  0  0  0  0  0  0  0  0
  128.9740  131.7730   56.8430 C   0  0  0  0  0  0  0  0  0  0  0  0
  128.5380  130.7850   57.7220 C   0  0  0  0  0  0  0  0  0  0  0  0
  129.4050  127.7100   59.4460 C   0  0  0  0  0  0  0  0  0  0  0  0
  130.4230  127.2860   58.4800 C   0  0  0  0  0  0  0  0  0  0  0  0
  131.2270  126.9530   57.7170 N   0  0  0  0  0  0  0  0  0  0  0  0
  128.8650  126.8080   60.3900 C   0  0  0  0  0  0  0  0  0  0  0  0
  129.2770  125.0770   60.4700 S   0  0  0  0  0  0  0  0  0  0  0  0
  127.8930  124.2070   61.2800 C   0  0  0  0  0  0  0  0  0  0  0  0
  126.8480  123.6150   60.3230 C   0  0  0  0  0  0  0  0  0  0  0  0
  125.7470  123.2500   60.7400 O   0  0  0  0  0  0  0  0  0  0  0  0
  127.2470  123.5370   59.0330 N   0  0  0  0  0  0  0  0  0  0  0  0
  126.5160  123.0500   57.9560 C   0  0  0  0  0  0  0  0  0  0  0  0
  125.2340  123.4960   57.6420 C   0  0  0  0  0  0  0  0  0  0  0  0
  124.8680  122.7770   56.5260 C   0  0  0  0  0  0  0  0  0  0  0  0
  125.8800  121.9440   56.1850 O   0  0  0  0  0  0  0  0  0  0  0  0
  126.9190  122.1260   57.0990 N   0  0  0  0  0  0  0  0  0  0  0  0
  128.0000  127.2020   61.3560 N   0  0  0  0  0  0  0  0  0  0  0  0
  126.9070  128.5540   63.8550 C   0  0  0  0  0  0  0  0  0  0  0  0
  126.0090  128.8730   64.8690 C   0  0  0  0  0  0  0  0  0  0  0  0
  1  2  1  0
  2  3  1  0
  3  4  2  0
  4  5  1  0
  5  6  2  0
  6  7  1  0
  7  8  2  0
  8  9  1  0
  9 10  1  0
 10 11  2  0
 11 12  1  0
 12 13  2  0
 13 14  1  0
 14 15  1  0
 13 16  1  0
 16 17  2  0
  9 18  2  0
 18 19  1  0
 19 20  3  0
 18 21  1  0
 21 22  1  0
 22 23  1  0
 23 24  1  0
 24 25  2  0
 24 26  1  0
 26 27  1  0
 27 28  1  0
 28 29  2  0
 29 30  1  0
 30 31  1  0
 21 32  2  0
  6 33  1  0
 33 34  2  0
 34  3  1  0
 32  7  1  0
 17 10  1  0
 31 27  2  0
M  END
>  <Binding energies>  (2) 
[-8.88]

>  <Ligand effiencies>  (2) 
[-0.2537142857142857]

>  <Interactions>  (2) 
["V-B:PRO:540:CB:9857, V-A:PRO:540:N:4884, V-B:TYR:539:C:9839, H-A:TYR:539:N:4870, V-B:TYR:531:CE2:9765, V-B:PRO:540:N:9856, V-B:PRO:540:CA:9855, V-A:PRO:540:CA:4883, V-A:ILE:538:CG2:4863, V-A:TYR:539:C:4867, V-B:LEU:363:CD1:8161, V-B:PRO:540:CD:9859, V-B:ILE:538:CD1:9837, V-B:ARG:545:CZ:9898, V-A:ILE:538:CB:4862, V-B:TYR:484:CZ:9319, V-A:PRO:540:CB:4885, V-A:PRO:540:CD:4887, V-A:LEU:363:CD1:3189, V-B:GLU:543:CD:9880, H-B:TYR:539:N:9842, H-B:GLY:454:N:9022, V-B:HIS:456:CE1:9042, V-B:ARG:545:CD:9895, V-B:ARG:545:CG:9894, H-B:TYR:484:OH:9320, V-B:TYR:484:CE1:9317, H-B:ALA:541:N:9863, H-B:ARG:545:NE:9896"]

$$$$
1c_Ghoteimi_2023
     RDKit          3D

 34 37  0  0  0  0  0  0  0  0999 V2000
  127.1810  122.3350   54.8630 C   0  0  0  0  0  0  0  0  0  0  0  0
  127.3120  122.3900   56.2790 O   0  0  0  0  0  0  0  0  0  0  0  0
  127.0780  123.5840   56.9330 C   0  0  0  0  0  0  0  0  0  0  0  0
  125.9060  123.6690   57.6800 C   0  0  0  0  0  0  0  0  0  0  0  0
  125.5880  124.8360   58.3690 C   0  0  0  0  0  0  0  0  0  0  0  0
  126.4340  125.9550   58.3320 C   0  0  0  0  0  0  0  0  0  0  0  0
  126.0920  127.2170   59.0700 C   0  0  0  0  0  0  0  0  0  0  0  0
  126.3200  127.3770   60.4410 C   0  0  0  0  0  0  0  0  0  0  0  0
  126.0100  128.5830   61.0800 C   0  0  0  0  0  0  0  0  0  0  0  0
  126.3420  128.7070   62.5310 C   0  0  0  0  0  0  0  0  0  0  0  0
  127.6650  128.5930   62.9700 C   0  0  0  0  0  0  0  0  0  0  0  0
  127.9700  128.6880   64.3240 C   0  0  0  0  0  0  0  0  0  0  0  0
  126.9610  128.8920   65.2640 C   0  0  0  0  0  0  0  0  0  0  0  0
  127.3560  128.9730   66.5860 O   0  0  0  0  0  0  0  0  0  0  0  0
  128.6180  128.4350   66.9680 C   0  0  0  0  0  0  0  0  0  0  0  0
  125.6310  128.9990   64.8280 C   0  0  0  0  0  0  0  0  0  0  0  0
  125.3280  128.9040   63.4730 C   0  0  0  0  0  0  0  0  0  0  0  0
  125.4330  129.6230   60.3140 C   0  0  0  0  0  0  0  0  0  0  0  0
  125.0550  130.8980   60.9320 C   0  0  0  0  0  0  0  0  0  0  0  0
  124.7570  131.9040   61.4200 N   0  0  0  0  0  0  0  0  0  0  0  0
  125.2460  129.4010   58.9340 C   0  0  0  0  0  0  0  0  0  0  0  0
  124.6920  130.6740   57.8210 S   0  0  0  0  0  0  0  0  0  0  0  0
  124.7310  129.9010   56.1710 C   0  0  0  0  0  0  0  0  0  0  0  0
  126.1300  129.9460   55.5450 C   0  0  0  0  0  0  0  0  0  0  0  0
  126.5630  128.9560   54.9540 O   0  0  0  0  0  0  0  0  0  0  0  0
  126.7760  131.1260   55.6640 N   0  0  0  0  0  0  0  0  0  0  0  0
  127.9740  131.4790   55.0620 C   0  0  0  0  0  0  0  0  0  0  0  0
  128.2280  131.5970   53.7770 N   0  0  0  0  0  0  0  0  0  0  0  0
  129.4690  131.9900   53.5640 C   0  0  0  0  0  0  0  0  0  0  0  0
  130.2500  132.2020   54.6950 C   0  0  0  0  0  0  0  0  0  0  0  0
  129.3010  131.8620   56.1110 S   0  0  0  0  0  0  0  0  0  0  0  0
  125.5750  128.2330   58.3300 N   0  0  0  0  0  0  0  0  0  0  0  0
  127.6150  125.8560   57.5820 C   0  0  0  0  0  0  0  0  0  0  0  0
  127.9360  124.6920   56.8900 C   0  0  0  0  0  0  0  0  0  0  0  0
  1  2  1  0
  2  3  1  0
  3  4  2  0
  4  5  1  0
  5  6  2  0
  6  7  1  0
  7  8  2  0
  8  9  1  0
  9 10  1  0
 10 11  2  0
 11 12  1  0
 12 13  2  0
 13 14  1  0
 14 15  1  0
 13 16  1  0
 16 17  2  0
  9 18  2  0
 18 19  1  0
 19 20  3  0
 18 21  1  0
 21 22  1  0
 22 23  1  0
 23 24  1  0
 24 25  2  0
 24 26  1  0
 26 27  1  0
 27 28  2  0
 28 29  1  0
 29 30  2  0
 30 31  1  0
 21 32  2  0
  6 33  1  0
 33 34  2  0
 34  3  1  0
 32  7  1  0
 17 10  1  0
 31 27  1  0
M  END
>  <Binding energies>  (3) 
[-9.14]

>  <Ligand effiencies>  (3) 
[-0.2611428571428572]

>  <Interactions>  (3) 
["V-A:TYR:539:CE1:4875, V-B:ILE:538:C:9830, V-B:ASP:366:CG:8185, V-B:TYR:539:CD1:9845, V-B:ILE:538:CA:9832, V-B:VAL:537:C:9822, V-A:ILE:538:CA:4860, V-A:TYR:539:CZ:4877, V-A:ILE:538:CG2:4863, V-B:MET:535:CE:9807, H-B:LYS:534:NZ:9795, H-A:TYR:539:OH:4878, V-B:TYR:539:CE1:9847, V-B:TYR:531:CZ:9766, V-B:ILE:538:CD1:9837, V-A:TYR:539:CE2:4876, V-A:GLU:543:CG:4907, V-B:ARG:545:CZ:9898, V-A:GLU:543:CD:4908, V-A:ILE:538:CB:4862, V-B:TYR:531:CE1:9764, H-B:TYR:531:OH:9767, V-B:ASP:366:CB:8184, H-B:TYR:539:N:9842, V-B:HIS:456:CE1:9042, H-B:TYR:484:OH:9320, V-A:GLU:543:CB:4906"]

$$$$
1d_Ghoteimi_2023
     RDKit          3D

 30 32  0  0  0  0  0  0  0  0999 V2000
  124.9910  122.5490   57.1230 C   0  0  0  0  0  0  0  0  0  0  0  0
  126.3800  122.2590   57.1250 O   0  0  0  0  0  0  0  0  0  0  0  0
  127.1560  122.6130   56.0790 C   0  0  0  0  0  0  0  0  0  0  0  0
  127.1200  122.1270   54.9470 O   0  0  0  0  0  0  0  0  0  0  0  0
  128.1400  123.7240   56.4360 C   0  0  0  0  0  0  0  0  0  0  0  0
  127.4850  124.5870   57.8960 S   0  0  0  0  0  0  0  0  0  0  0  0
  128.6650  125.8450   58.3310 C   0  0  0  0  0  0  0  0  0  0  0  0
  129.4400  125.5220   59.3940 N   0  0  0  0  0  0  0  0  0  0  0  0
  130.3820  126.3940   59.8360 C   0  0  0  0  0  0  0  0  0  0  0  0
  131.2020  125.9570   61.0150 C   0  0  0  0  0  0  0  0  0  0  0  0
  132.4130  125.2690   60.8450 C   0  0  0  0  0  0  0  0  0  0  0  0
  133.1690  124.8590   61.9400 C   0  0  0  0  0  0  0  0  0  0  0  0
  132.7370  125.1210   63.2380 C   0  0  0  0  0  0  0  0  0  0  0  0
  133.5490  124.6740   64.2630 O   0  0  0  0  0  0  0  0  0  0  0  0
  133.3480  125.1820   65.5780 C   0  0  0  0  0  0  0  0  0  0  0  0
  131.5290  125.8070   63.4240 C   0  0  0  0  0  0  0  0  0  0  0  0
  130.7770  126.2160   62.3270 C   0  0  0  0  0  0  0  0  0  0  0  0
  130.5690  127.6250   59.1960 C   0  0  0  0  0  0  0  0  0  0  0  0
  129.7720  127.9910   58.1050 C   0  0  0  0  0  0  0  0  0  0  0  0
  130.0210  129.3230   57.4740 C   0  0  0  0  0  0  0  0  0  0  0  0
  131.3040  129.6650   57.0340 C   0  0  0  0  0  0  0  0  0  0  0  0
  131.5430  130.9040   56.4460 C   0  0  0  0  0  0  0  0  0  0  0  0
  130.5070  131.8220   56.2800 C   0  0  0  0  0  0  0  0  0  0  0  0
  130.8380  133.0280   55.6920 O   0  0  0  0  0  0  0  0  0  0  0  0
  132.1990  133.2980   55.3780 C   0  0  0  0  0  0  0  0  0  0  0  0
  129.2150  131.4780   56.7070 C   0  0  0  0  0  0  0  0  0  0  0  0
  128.9780  130.2390   57.2950 C   0  0  0  0  0  0  0  0  0  0  0  0
  128.7730  127.0870   57.6650 C   0  0  0  0  0  0  0  0  0  0  0  0
  127.8430  127.4610   56.5960 C   0  0  0  0  0  0  0  0  0  0  0  0
  127.1100  127.7580   55.7520 N   0  0  0  0  0  0  0  0  0  0  0  0
  1  2  1  0
  2  3  1  0
  3  4  2  0
  3  5  1  0
  5  6  1  0
  6  7  1  0
  7  8  2  0
  8  9  1  0
  9 10  1  0
 10 11  2  0
 11 12  1  0
 12 13  2  0
 13 14  1  0
 14 15  1  0
 13 16  1  0
 16 17  2  0
  9 18  2  0
 18 19  1  0
 19 20  1  0
 20 21  2  0
 21 22  1  0
 22 23  2  0
 23 24  1  0
 24 25  1  0
 23 26  1  0
 26 27  2  0
 19 28  2  0
 28 29  1  0
 29 30  3  0
 28  7  1  0
 17 10  1  0
 27 20  1  0
M  END
>  <Binding energies>  (4) 
[-7.87]

>  <Ligand effiencies>  (4) 
[-0.26233333333333336]

>  <Interactions>  (4) 
["V-B:PRO:540:CB:9857, V-A:PRO:540:N:4884, H-A:TYR:539:N:4870, V-B:TYR:539:CD1:9845, V-B:PRO:540:N:9856, V-B:PRO:540:CA:9855, V-A:ILE:538:CA:4860, V-A:ILE:538:CG2:4863, V-B:MET:535:CE:9807, V-B:TYR:539:CE2:9848, V-B:TYR:539:CE1:9847, V-B:TYR:539:CZ:9849, V-B:PRO:540:CG:9858, V-B:LEU:363:CD1:8161, V-B:PRO:540:CD:9859, V-A:ASP:366:CG:3213, V-A:ARG:545:CZ:4926, V-B:TYR:539:CG:9844, V-A:GLU:543:CD:4908, V-A:ILE:538:CB:4862, H-B:TYR:531:OH:9767, V-A:PRO:540:CG:4886, V-A:PRO:540:CB:4885, V-A:PRO:540:CD:4887, V-A:LEU:363:CD1:3189, V-A:TYR:484:CZ:4347, H-B:TYR:539:N:9842, H-A:TYR:484:OH:4348, H-A:ARG:545:NE:4924, V-A:TYR:484:CE2:4346, V-A:ARG:545:CD:4923, H-A:GLY:454:N:4050, V-A:HIS:456:CE1:4070, V-A:ILE:538:CD1:4865, V-A:ARG:545:CG:4922, V-A:ILE:538:CG1:4864"]

$$$$
1j_Grossjean_2025
     RDKit          3D

 20 21  0  0  0  0  0  0  0  0999 V2000
  125.1490  130.2840   56.1310 C   0  0  0  0  0  0  0  0  0  0  0  0
  126.4580  129.5390   55.9500 C   0  0  0  0  0  0  0  0  0  0  0  0
  126.7690  128.4160   56.7130 C   0  0  0  0  0  0  0  0  0  0  0  0
  127.9860  127.7610   56.4940 C   0  0  0  0  0  0  0  0  0  0  0  0
  128.2970  126.5210   57.3320 C   0  0  0  0  0  0  0  0  0  0  0  0
  128.8710  128.2590   55.5110 C   0  0  0  0  0  0  0  0  0  0  0  0
  130.1260  127.5580   55.2280 C   0  0  0  0  0  0  0  0  0  0  0  0
  131.1160  127.0020   55.0060 N   0  0  0  0  0  0  0  0  0  0  0  0
  128.4840  129.4200   54.8010 C   0  0  0  0  0  0  0  0  0  0  0  0
  129.4740  130.1830   53.5350 S   0  0  0  0  0  0  0  0  0  0  0  0
  129.6790  131.9350   53.9730 C   0  0  0  0  0  0  0  0  0  0  0  0
  130.3120  132.1100   55.3550 C   0  0  0  0  0  0  0  0  0  0  0  0
  129.9250  133.0220   56.0860 O   0  0  0  0  0  0  0  0  0  0  0  0
  131.2760  131.2170   55.6720 N   0  0  0  0  0  0  0  0  0  0  0  0
  132.0020  131.1670   56.8530 C   0  0  0  0  0  0  0  0  0  0  0  0
  133.3070  131.0740   56.9950 N   0  0  0  0  0  0  0  0  0  0  0  0
  133.6550  131.0520   58.2660 C   0  0  0  0  0  0  0  0  0  0  0  0
  132.6180  131.1310   59.1910 C   0  0  0  0  0  0  0  0  0  0  0  0
  131.1070  131.2400   58.3370 S   0  0  0  0  0  0  0  0  0  0  0  0
  127.2930  130.0350   55.0060 N   0  0  0  0  0  0  0  0  0  0  0  0
  1  2  1  0
  2  3  2  0
  3  4  1  0
  4  5  1  0
  4  6  2  0
  6  7  1  0
  7  8  3  0
  6  9  1  0
  9 10  1  0
 10 11  1  0
 11 12  1  0
 12 13  2  0
 12 14  1  0
 14 15  1  0
 15 16  2  0
 16 17  1  0
 17 18  2  0
 18 19  1  0
  9 20  2  0
 20  2  1  0
 19 15  1  0
M  END
>  <Binding energies>  (5) 
[-6.69]

>  <Ligand effiencies>  (5) 
[-0.3185714285714286]

>  <Interactions>  (5) 
["V-A:TYR:539:CE1:4875, H-A:TYR:539:N:4870, V-A:MET:535:CE:4835, V-A:TYR:531:CZ:4794, V-A:ILE:538:CA:4860, V-A:TYR:539:CZ:4877, V-A:PRO:540:CA:4883, V-A:ILE:538:CG2:4863, V-B:MET:535:CE:9807, H-B:LYS:534:NZ:9795, V-A:ASP:366:CG:3213, V-B:TYR:531:CE1:9764, V-A:PRO:540:CB:4885, V-A:ASP:366:CB:3212, V-A:LEU:363:CA:3185, H-A:TYR:531:OH:4795, V-A:LEU:363:CD1:3189, V-A:LEU:363:CB:3187"]

$$$$
1o_Grossjean_2025
     RDKit          3D

 26 27  0  0  0  0  0  0  0  0999 V2000
  125.6410  122.5040   56.2000 C   0  0  0  0  0  0  0  0  0  0  0  0
  126.7570  121.9830   56.9080 O   0  0  0  0  0  0  0  0  0  0  0  0
  127.3200  122.6750   57.9320 C   0  0  0  0  0  0  0  0  0  0  0  0
  127.8490  122.1350   58.9080 O   0  0  0  0  0  0  0  0  0  0  0  0
  127.2400  124.1640   57.7580 C   0  0  0  0  0  0  0  0  0  0  0  0
  128.0770  124.8540   56.8690 C   0  0  0  0  0  0  0  0  0  0  0  0
  127.9750  126.2360   56.7290 C   0  0  0  0  0  0  0  0  0  0  0  0
  127.0410  126.9560   57.4750 C   0  0  0  0  0  0  0  0  0  0  0  0
  127.0170  128.3460   57.2490 N   0  0  0  0  0  0  0  0  0  0  0  0
  126.7300  129.0350   56.1220 C   0  0  0  0  0  0  0  0  0  0  0  0
  126.3800  128.5330   55.0540 O   0  0  0  0  0  0  0  0  0  0  0  0
  126.8350  130.5630   56.2370 C   0  0  0  0  0  0  0  0  0  0  0  0
  127.6980  131.2010   55.1310 C   0  0  0  0  0  0  0  0  0  0  0  0
  128.9150  130.0660   54.3980 S   0  0  0  0  0  0  0  0  0  0  0  0
  130.1450  129.6870   55.6300 C   0  0  0  0  0  0  0  0  0  0  0  0
  130.2120  128.3670   55.9380 N   0  0  0  0  0  0  0  0  0  0  0  0
  131.1180  127.9570   56.8560 C   0  0  0  0  0  0  0  0  0  0  0  0
  131.1450  126.4660   57.1370 C   0  0  0  0  0  0  0  0  0  0  0  0
  131.9770  128.8380   57.5090 C   0  0  0  0  0  0  0  0  0  0  0  0
  131.8990  130.2040   57.2190 C   0  0  0  0  0  0  0  0  0  0  0  0
  132.8410  131.1520   57.9590 C   0  0  0  0  0  0  0  0  0  0  0  0
  130.9580  130.6560   56.2660 C   0  0  0  0  0  0  0  0  0  0  0  0
  130.8210  132.0890   55.9930 C   0  0  0  0  0  0  0  0  0  0  0  0
  130.7150  133.2210   55.7780 N   0  0  0  0  0  0  0  0  0  0  0  0
  126.1960  126.2710   58.3620 C   0  0  0  0  0  0  0  0  0  0  0  0
  126.2990  124.8900   58.5000 C   0  0  0  0  0  0  0  0  0  0  0  0
  1  2  1  0
  2  3  1  0
  3  4  2  0
  3  5  1  0
  5  6  2  0
  6  7  1  0
  7  8  2  0
  8  9  1  0
  9 10  1  0
 10 11  2  0
 10 12  1  0
 12 13  1  0
 13 14  1  0
 14 15  1  0
 15 16  2  0
 16 17  1  0
 17 18  1  0
 17 19  2  0
 19 20  1  0
 20 21  1  0
 20 22  2  0
 22 23  1  0
 23 24  3  0
  8 25  1  0
 25 26  2  0
 26  5  1  0
 22 15  1  0
M  END
>  <Binding energies>  (6) 
[-7.66]

>  <Ligand effiencies>  (6) 
[-0.28370370370370374]

>  <Interactions>  (6) 
["V-B:TYR:539:C:9839, V-A:TYR:539:CE1:4875, H-A:TYR:539:N:4870, V-B:ASP:366:CG:8185, V-B:ILE:538:CA:9832, V-B:PRO:540:N:9856, V-B:PRO:540:CA:9855, V-B:TYR:539:CD2:9846, V-A:TYR:539:CZ:4877, V-A:PRO:540:CA:4883, V-B:MET:535:CE:9807, H-B:LYS:534:NZ:9795, V-B:PRO:540:CD:9859, V-B:ILE:538:CD1:9837, V-A:TYR:539:CE2:4876, V-B:ILE:538:CG2:9835, V-A:ASP:366:CG:3213, V-B:TYR:531:CE1:9764, H-B:TYR:531:OH:9767, V-A:PRO:540:CB:4885, V-A:ASP:366:CB:3212, H-A:TYR:531:OH:4795, V-A:LEU:363:CD1:3189, H-B:TYR:539:N:9842"]

$$$$
1p_Grossjean_2025
     RDKit          3D

 21 22  0  0  0  0  0  0  0  0999 V2000
  127.4970  132.2850   59.3040 C   0  0  0  0  0  0  0  0  0  0  0  0
  128.9760  131.9600   59.2150 C   0  0  0  0  0  0  0  0  0  0  0  0
  129.7680  131.8480   60.3570 C   0  0  0  0  0  0  0  0  0  0  0  0
  131.1290  131.5600   60.2150 C   0  0  0  0  0  0  0  0  0  0  0  0
  131.9800  131.4570   61.4790 C   0  0  0  0  0  0  0  0  0  0  0  0
  131.6660  131.3810   58.9200 C   0  0  0  0  0  0  0  0  0  0  0  0
  133.0970  131.1270   58.7420 C   0  0  0  0  0  0  0  0  0  0  0  0
  134.2280  130.9250   58.6020 N   0  0  0  0  0  0  0  0  0  0  0  0
  130.7840  131.4910   57.8180 C   0  0  0  0  0  0  0  0  0  0  0  0
  131.2920  131.2860   56.1260 S   0  0  0  0  0  0  0  0  0  0  0  0
  130.8900  132.8340   55.2650 C   0  0  0  0  0  0  0  0  0  0  0  0
  130.3260  132.6270   53.8460 C   0  0  0  0  0  0  0  0  0  0  0  0
  129.0950  131.7090   53.8030 C   0  0  0  0  0  0  0  0  0  0  0  0
  128.6250  131.3740   52.7140 O   0  0  0  0  0  0  0  0  0  0  0  0
  128.6160  131.3170   55.0050 N   0  0  0  0  0  0  0  0  0  0  0  0
  127.5240  130.4930   55.2460 C   0  0  0  0  0  0  0  0  0  0  0  0
  126.5410  130.7890   56.1900 C   0  0  0  0  0  0  0  0  0  0  0  0
  125.6510  129.7410   56.1220 C   0  0  0  0  0  0  0  0  0  0  0  0
  126.0770  128.8600   55.1860 O   0  0  0  0  0  0  0  0  0  0  0  0
  127.2650  129.3470   54.6390 N   0  0  0  0  0  0  0  0  0  0  0  0
  129.4690  131.7920   57.9660 N   0  0  0  0  0  0  0  0  0  0  0  0
  1  2  1  0
  2  3  2  0
  3  4  1  0
  4  5  1  0
  4  6  2  0
  6  7  1  0
  7  8  3  0
  6  9  1  0
  9 10  1  0
 10 11  1  0
 11 12  1  0
 12 13  1  0
 13 14  2  0
 13 15  1  0
 15 16  1  0
 16 17  1  0
 17 18  2  0
 18 19  1  0
 19 20  1  0
  9 21  2  0
 21  2  1  0
 20 16  2  0
M  END
>  <Binding energies>  (7) 
[-7.12]

>  <Ligand effiencies>  (7) 
[-0.32363636363636367]

>  <Interactions>  (7) 
["V-A:PRO:540:N:4884, V-A:TYR:539:CE1:4875, V-A:TYR:539:CD1:4873, V-A:ILE:538:CA:4860, V-A:TYR:539:CZ:4877, V-A:PRO:540:CA:4883, V-A:ILE:538:CG2:4863, H-B:LYS:534:NZ:9795, V-A:ASP:366:CG:3213, V-A:GLU:543:CG:4907, V-A:GLU:543:CD:4908, V-A:ILE:538:CB:4862, V-B:TYR:531:CE1:9764, H-B:TYR:531:OH:9767, V-A:PRO:540:CB:4885, V-A:LEU:363:CA:3185, H-A:TYR:531:OH:4795, V-A:PRO:540:CD:4887, V-A:PRO:540:C:4881, V-A:ILE:538:C:4858, H-A:LEU:363:N:3186"]

$$$$
2a_Ghoteimi_2023
     RDKit          3D

 48 53  0  0  0  0  0  0  0  0999 V2000
  136.5960  137.7170   70.4750 C   0  0  0  0  0  0  0  0  0  0  0  0
  137.2130  137.2290   71.7880 C   0  0  0  0  0  0  0  0  0  0  0  0
  137.9060  136.0090   71.5600 O   0  0  0  0  0  0  0  0  0  0  0  0
  137.6340  134.8990   72.2930 C   0  0  0  0  0  0  0  0  0  0  0  0
  138.5060  134.1320   72.7140 O   0  0  0  0  0  0  0  0  0  0  0  0
  136.1670  134.7010   72.5460 C   0  0  0  0  0  0  0  0  0  0  0  0
  135.6320  134.6910   73.8430 C   0  0  0  0  0  0  0  0  0  0  0  0
  134.2670  134.5060   74.0430 C   0  0  0  0  0  0  0  0  0  0  0  0
  133.4090  134.3320   72.9560 C   0  0  0  0  0  0  0  0  0  0  0  0
  132.0490  134.1490   73.2730 N   0  0  0  0  0  0  0  0  0  0  0  0
  130.9450  134.4570   72.5590 C   0  0  0  0  0  0  0  0  0  0  0  0
  130.9430  135.0250   71.4660 O   0  0  0  0  0  0  0  0  0  0  0  0
  129.6140  134.0840   73.2240 C   0  0  0  0  0  0  0  0  0  0  0  0
  129.2520  135.0040   74.7550 S   0  0  0  0  0  0  0  0  0  0  0  0
  130.3110  134.3020   75.9980 C   0  0  0  0  0  0  0  0  0  0  0  0
  129.8210  133.1740   76.5620 N   0  0  0  0  0  0  0  0  0  0  0  0
  130.5350  132.5480   77.5320 C   0  0  0  0  0  0  0  0  0  0  0  0
  129.9270  131.3130   78.1160 C   0  0  0  0  0  0  0  0  0  0  0  0
  128.5930  130.9710   77.8610 C   0  0  0  0  0  0  0  0  0  0  0  0
  128.0290  129.8260   78.4170 C   0  0  0  0  0  0  0  0  0  0  0  0
  128.7790  128.9760   79.2410 C   0  0  0  0  0  0  0  0  0  0  0  0
  128.1900  127.8450   79.8170 N   0  0  0  0  0  0  0  0  0  0  0  0
  126.7540  127.5500   79.6400 C   0  0  0  0  0  0  0  0  0  0  0  0
  126.3620  126.1080   80.0240 C   0  0  0  0  0  0  0  0  0  0  0  0
  126.7780  125.8280   81.3510 O   0  0  0  0  0  0  0  0  0  0  0  0
  128.1850  125.9440   81.4870 C   0  0  0  0  0  0  0  0  0  0  0  0
  128.6350  127.3810   81.1480 C   0  0  0  0  0  0  0  0  0  0  0  0
  130.1120  129.3300   79.5030 C   0  0  0  0  0  0  0  0  0  0  0  0
  130.6760  130.4730   78.9460 C   0  0  0  0  0  0  0  0  0  0  0  0
  131.7730  133.0420   77.9500 C   0  0  0  0  0  0  0  0  0  0  0  0
  132.3010  134.2090   77.3800 C   0  0  0  0  0  0  0  0  0  0  0  0
  133.6280  134.6840   77.8780 C   0  0  0  0  0  0  0  0  0  0  0  0
  133.7080  135.4410   79.0500 C   0  0  0  0  0  0  0  0  0  0  0  0
  134.9360  135.9050   79.5110 C   0  0  0  0  0  0  0  0  0  0  0  0
  136.1220  135.6240   78.8160 C   0  0  0  0  0  0  0  0  0  0  0  0
  137.3630  136.0970   79.2520 N   0  0  0  0  0  0  0  0  0  0  0  0
  138.4410  136.3160   78.2660 C   0  0  0  0  0  0  0  0  0  0  0  0
  139.5930  137.1890   78.8060 C   0  0  0  0  0  0  0  0  0  0  0  0
  140.1110  136.6260   80.0020 O   0  0  0  0  0  0  0  0  0  0  0  0
  139.1190  136.5360   81.0120 C   0  0  0  0  0  0  0  0  0  0  0  0
  137.9520  135.6500   80.5300 C   0  0  0  0  0  0  0  0  0  0  0  0
  136.0310  134.8750   77.6340 C   0  0  0  0  0  0  0  0  0  0  0  0
  134.8030  134.4120   77.1720 C   0  0  0  0  0  0  0  0  0  0  0  0
  131.5550  134.8610   76.3690 C   0  0  0  0  0  0  0  0  0  0  0  0
  132.0810  136.0530   75.6960 C   0  0  0  0  0  0  0  0  0  0  0  0
  132.4970  136.9950   75.1680 N   0  0  0  0  0  0  0  0  0  0  0  0
  133.9380  134.3330   71.6560 C   0  0  0  0  0  0  0  0  0  0  0  0
  135.3030  134.5190   71.4580 C   0  0  0  0  0  0  0  0  0  0  0  0
  1  2  1  0
  2  3  1  0
  3  4  1  0
  4  5  2  0
  4  6  1  0
  6  7  2  0
  7  8  1  0
  8  9  2  0
  9 10  1  0
 10 11  1  0
 11 12  2  0
 11 13  1  0
 13 14  1  0
 14 15  1  0
 15 16  2  0
 16 17  1  0
 17 18  1  0
 18 19  2  0
 19 20  1  0
 20 21  2  0
 21 22  1  0
 22 23  1  0
 23 24  1  0
 24 25  1  0
 25 26  1  0
 26 27  1  0
 21 28  1  0
 28 29  2  0
 17 30  2  0
 30 31  1  0
 31 32  1  0
 32 33  2  0
 33 34  1  0
 34 35  2  0
 35 36  1  0
 36 37  1  0
 37 38  1  0
 38 39  1  0
 39 40  1  0
 40 41  1  0
 35 42  1  0
 42 43  2  0
 31 44  2  0
 44 45  1  0
 45 46  3  0
  9 47  1  0
 47 48  2  0
 48  6  1  0
 44 15  1  0
 29 18  1  0
 43 32  1  0
 27 22  1  0
 41 36  1  0
M  END
>  <Binding energies>  (8) 
[-6.86]

>  <Ligand effiencies>  (8) 
[-0.14]

>  <Interactions>  (8) 
["H-A:LYS:547:NZ:4951, V-B:TYR:484:CB:9313, V-B:VAL:458:CG2:9059, V-A:VAL:542:CG1:4899, V-A:LYS:547:CE:4950, V-A:LYS:547:CD:4949, V-A:LYS:547:CG:4948, V-A:ARG:356:CD:3119, V-A:GLU:357:CD:3136, V-A:GLU:357:CB:3134, V-A:GLY:544:CA:4914, H-B:TYR:484:N:9312, V-A:ARG:356:CB:3117, V-A:PHE:548:CD2:4963, V-A:PHE:548:CA:4958, V-A:ARG:356:CG:3118, V-A:PHE:548:CG:4961, V-A:PHE:548:CB:4960, V-B:LYS:471:CD:9191, V-A:PHE:548:C:4956, V-A:LYS:547:CB:4947, V-A:GLU:357:CA:3132, V-B:VAL:458:CG1:9058, H-A:GLU:357:N:3133"]

$$$$
2aa_Ghoteimi_2023
     RDKit          3D

 48 53  0  0  0  0  0  0  0  0999 V2000
  132.8630  126.9660   74.0020 C   0  0  0  0  0  0  0  0  0  0  0  0
  131.3670  126.6930   73.8140 C   0  0  0  0  0  0  0  0  0  0  0  0
  130.8750  127.4840   72.7400 O   0  0  0  0  0  0  0  0  0  0  0  0
  129.5640  127.4520   72.3870 C   0  0  0  0  0  0  0  0  0  0  0  0
  128.6410  127.3710   73.2050 O   0  0  0  0  0  0  0  0  0  0  0  0
  129.3460  127.5420   70.9040 C   0  0  0  0  0  0  0  0  0  0  0  0
  128.3610  126.7840   70.2530 C   0  0  0  0  0  0  0  0  0  0  0  0
  128.1810  126.8920   68.8770 C   0  0  0  0  0  0  0  0  0  0  0  0
  128.9850  127.7500   68.1240 C   0  0  0  0  0  0  0  0  0  0  0  0
  128.7140  127.7840   66.7420 N   0  0  0  0  0  0  0  0  0  0  0  0
  127.9020  128.6020   66.0390 C   0  0  0  0  0  0  0  0  0  0  0  0
  127.2440  129.5290   66.5170 O   0  0  0  0  0  0  0  0  0  0  0  0
  127.8570  128.3180   64.5320 C   0  0  0  0  0  0  0  0  0  0  0  0
  129.0210  127.5770   64.1480 O   0  0  0  0  0  0  0  0  0  0  0  0
  129.1860  127.1740   62.8290 C   0  0  0  0  0  0  0  0  0  0  0  0
  129.3860  125.8480   62.5850 N   0  0  0  0  0  0  0  0  0  0  0  0
  129.5480  125.4200   61.3080 C   0  0  0  0  0  0  0  0  0  0  0  0
  129.7680  123.9530   61.1170 C   0  0  0  0  0  0  0  0  0  0  0  0
  131.0290  123.4590   60.7670 C   0  0  0  0  0  0  0  0  0  0  0  0
  131.2410  122.0940   60.5950 C   0  0  0  0  0  0  0  0  0  0  0  0
  130.2010  121.1690   60.7790 C   0  0  0  0  0  0  0  0  0  0  0  0
  130.3930  119.7950   60.5980 N   0  0  0  0  0  0  0  0  0  0  0  0
  131.6860  119.2540   60.1290 C   0  0  0  0  0  0  0  0  0  0  0  0
  131.6110  117.7890   59.6510 C   0  0  0  0  0  0  0  0  0  0  0  0
  131.0590  116.9720   60.6710 O   0  0  0  0  0  0  0  0  0  0  0  0
  129.7450  117.3850   61.0120 C   0  0  0  0  0  0  0  0  0  0  0  0
  129.7650  118.8380   61.5320 C   0  0  0  0  0  0  0  0  0  0  0  0
  128.9340  121.6710   61.1090 C   0  0  0  0  0  0  0  0  0  0  0  0
  128.7220  123.0360   61.2780 C   0  0  0  0  0  0  0  0  0  0  0  0
  129.5280  126.3190   60.2370 C   0  0  0  0  0  0  0  0  0  0  0  0
  129.3360  127.6880   60.4620 C   0  0  0  0  0  0  0  0  0  0  0  0
  129.3510  128.6020   59.2800 C   0  0  0  0  0  0  0  0  0  0  0  0
  128.2100  128.7510   58.4880 C   0  0  0  0  0  0  0  0  0  0  0  0
  128.2230  129.5860   57.3740 C   0  0  0  0  0  0  0  0  0  0  0  0
  129.3840  130.2860   57.0110 C   0  0  0  0  0  0  0  0  0  0  0  0
  129.4200  131.1320   55.8990 N   0  0  0  0  0  0  0  0  0  0  0  0
  130.5470  132.0560   55.6720 C   0  0  0  0  0  0  0  0  0  0  0  0
  130.5870  132.6380   54.2420 C   0  0  0  0  0  0  0  0  0  0  0  0
  129.3500  133.2640   53.9390 O   0  0  0  0  0  0  0  0  0  0  0  0
  128.2690  132.3480   54.0110 C   0  0  0  0  0  0  0  0  0  0  0  0
  128.1670  131.7610   55.4340 C   0  0  0  0  0  0  0  0  0  0  0  0
  130.5220  130.1360   57.8150 C   0  0  0  0  0  0  0  0  0  0  0  0
  130.5090  129.3020   58.9290 C   0  0  0  0  0  0  0  0  0  0  0  0
  129.1450  128.1240   61.7930 C   0  0  0  0  0  0  0  0  0  0  0  0
  128.8870  129.5290   62.1180 C   0  0  0  0  0  0  0  0  0  0  0  0
  128.6830  130.6390   62.3730 N   0  0  0  0  0  0  0  0  0  0  0  0
  129.9670  128.5160   68.7680 C   0  0  0  0  0  0  0  0  0  0  0  0
  130.1420  128.4080   70.1450 C   0  0  0  0  0  0  0  0  0  0  0  0
  1  2  1  0
  2  3  1  0
  3  4  1  0
  4  5  2  0
  4  6  1  0
  6  7  2  0
  7  8  1  0
  8  9  2  0
  9 10  1  0
 10 11  1  0
 11 12  2  0
 11 13  1  0
 13 14  1  0
 14 15  1  0
 15 16  2  0
 16 17  1  0
 17 18  1  0
 18 19  2  0
 19 20  1  0
 20 21  2  0
 21 22  1  0
 22 23  1  0
 23 24  1  0
 24 25  1  0
 25 26  1  0
 26 27  1  0
 21 28  1  0
 28 29  2  0
 17 30  2  0
 30 31  1  0
 31 32  1  0
 32 33  2  0
 33 34  1  0
 34 35  2  0
 35 36  1  0
 36 37  1  0
 37 38  1  0
 38 39  1  0
 39 40  1  0
 40 41  1  0
 35 42  1  0
 42 43  2  0
 31 44  2  0
 44 45  1  0
 45 46  3  0
  9 47  1  0
 47 48  2  0
 48  6  1  0
 44 15  1  0
 29 18  1  0
 43 32  1  0
 27 22  1  0
 41 36  1  0
M  END
>  <Binding energies>  (9) 
[-8.54]

>  <Ligand effiencies>  (9) 
[-0.17428571428571427]

>  <Interactions>  (9) 
["V-B:TYR:539:C:9839, V-A:TYR:539:CE1:4875, H-A:TYR:539:N:4870, V-B:PRO:540:CA:9855, V-A:ILE:538:CA:4860, V-B:TYR:539:CD2:9846, V-A:TYR:539:CZ:4877, V-A:ILE:538:CG2:4863, V-B:TYR:539:CE2:9848, V-A:TYR:539:CD2:4874, V-A:TYR:539:CE2:4876, V-A:GLU:543:CG:4907, V-A:LEU:475:CD2:4259, V-A:GLU:543:CD:4908, V-A:ILE:538:CB:4862, V-B:ALA:541:CB:9864, V-B:GLU:543:CD:9880, V-B:HIS:456:CE1:9042, H-B:TYR:484:OH:9320, V-A:ILE:538:C:4858, V-A:SER:385:CB:3409, V-B:TYR:539:CB:9843, V-A:PRO:482:CG:4327, V-A:LEU:475:CG:4257, V-A:PRO:482:CB:4326, V-A:LEU:475:CD1:4258, V-B:HIS:456:CD2:9040, V-A:HIS:456:CG:4066, H-B:LYS:547:NZ:9923, V-A:HIS:456:CD2:4068, V-A:HIS:456:CB:4065, V-A:GLY:544:CA:4914, H-B:GLU:543:OE2:9882, H-A:SER:385:OG:3410, H-A:GLU:543:OE2:4910, V-A:GLU:543:CB:4906, V-A:HIS:456:CE1:4070, V-A:GLU:543:C:4902, V-A:GLU:543:CA:4904, V-A:GLY:544:C:4912, V-B:GLU:543:CB:9878"]

$$$$
2b_Ghoteimi_2023
     RDKit          3D

 42 47  0  0  0  0  0  0  0  0999 V2000
  124.8500  130.3440   58.8280 N   0  0  0  0  0  0  0  0  0  0  0  0
  125.2250  130.0210   59.8740 C   0  0  0  0  0  0  0  0  0  0  0  0
  125.7010  129.6070   61.1970 C   0  0  0  0  0  0  0  0  0  0  0  0
  126.2100  128.3000   61.4020 C   0  0  0  0  0  0  0  0  0  0  0  0
  126.3050  127.2680   60.3270 C   0  0  0  0  0  0  0  0  0  0  0  0
  126.3770  125.9130   60.6570 C   0  0  0  0  0  0  0  0  0  0  0  0
  126.4660  124.9470   59.6590 C   0  0  0  0  0  0  0  0  0  0  0  0
  126.5050  125.3110   58.3030 C   0  0  0  0  0  0  0  0  0  0  0  0
  126.5810  124.3600   57.2840 N   0  0  0  0  0  0  0  0  0  0  0  0
  127.9040  123.8440   56.8800 C   0  0  0  0  0  0  0  0  0  0  0  0
  127.8860  123.1090   55.5230 C   0  0  0  0  0  0  0  0  0  0  0  0
  126.9170  122.0720   55.5420 O   0  0  0  0  0  0  0  0  0  0  0  0
  125.6130  122.5760   55.7870 C   0  0  0  0  0  0  0  0  0  0  0  0
  125.5740  123.2880   57.1550 C   0  0  0  0  0  0  0  0  0  0  0  0
  126.4360  126.6740   57.9830 C   0  0  0  0  0  0  0  0  0  0  0  0
  126.3420  127.6400   58.9800 C   0  0  0  0  0  0  0  0  0  0  0  0
  126.6580  127.9520   62.6820 C   0  0  0  0  0  0  0  0  0  0  0  0
  126.6300  128.8870   63.7200 C   0  0  0  0  0  0  0  0  0  0  0  0
  127.1240  128.5750   65.0970 C   0  0  0  0  0  0  0  0  0  0  0  0
  128.4500  128.8430   65.4580 C   0  0  0  0  0  0  0  0  0  0  0  0
  128.9120  128.5700   66.7420 C   0  0  0  0  0  0  0  0  0  0  0  0
  128.0690  128.0060   67.7130 C   0  0  0  0  0  0  0  0  0  0  0  0
  128.5110  127.7550   69.0160 N   0  0  0  0  0  0  0  0  0  0  0  0
  128.0570  126.5410   69.7260 C   0  0  0  0  0  0  0  0  0  0  0  0
  128.2970  126.5900   71.2500 C   0  0  0  0  0  0  0  0  0  0  0  0
  129.6650  126.8560   71.5190 O   0  0  0  0  0  0  0  0  0  0  0  0
  130.0680  128.1030   70.9790 C   0  0  0  0  0  0  0  0  0  0  0  0
  129.8800  128.1020   69.4470 C   0  0  0  0  0  0  0  0  0  0  0  0
  126.7400  127.7460   67.3490 C   0  0  0  0  0  0  0  0  0  0  0  0
  126.2780  128.0220   66.0650 C   0  0  0  0  0  0  0  0  0  0  0  0
  126.1430  130.1390   63.5220 N   0  0  0  0  0  0  0  0  0  0  0  0
  125.6730  130.4880   62.3010 C   0  0  0  0  0  0  0  0  0  0  0  0
  125.0700  132.1610   62.2220 S   0  0  0  0  0  0  0  0  0  0  0  0
  126.4270  133.2060   61.6130 C   0  0  0  0  0  0  0  0  0  0  0  0
  127.7990  132.6410   61.9830 C   0  0  0  0  0  0  0  0  0  0  0  0
  128.0270  132.3280   63.1530 O   0  0  0  0  0  0  0  0  0  0  0  0
  128.6780  132.5340   60.9640 N   0  0  0  0  0  0  0  0  0  0  0  0
  129.9770  132.0470   61.0200 C   0  0  0  0  0  0  0  0  0  0  0  0
  130.6190  131.4660   59.9270 C   0  0  0  0  0  0  0  0  0  0  0  0
  131.8680  131.1210   60.3880 C   0  0  0  0  0  0  0  0  0  0  0  0
  131.9730  131.4770   61.6900 O   0  0  0  0  0  0  0  0  0  0  0  0
  130.7680  132.0650   62.0800 N   0  0  0  0  0  0  0  0  0  0  0  0
  1  2  3  0
  2  3  1  0
  3  4  2  0
  4  5  1  0
  5  6  2  0
  6  7  1  0
  7  8  2  0
  8  9  1  0
  9 10  1  0
 10 11  1  0
 11 12  1  0
 12 13  1  0
 13 14  1  0
  8 15  1  0
 15 16  2  0
  4 17  1  0
 17 18  2  0
 18 19  1  0
 19 20  2  0
 20 21  1  0
 21 22  2  0
 22 23  1  0
 23 24  1  0
 24 25  1  0
 25 26  1  0
 26 27  1  0
 27 28  1  0
 22 29  1  0
 29 30  2  0
 18 31  1  0
 31 32  2  0
 32 33  1  0
 33 34  1  0
 34 35  1  0
 35 36  2  0
 35 37  1  0
 37 38  1  0
 38 39  1  0
 39 40  2  0
 40 41  1  0
 41 42  1  0
 32  3  1  0
 42 38  2  0
 16  5  1  0
 30 19  1  0
 14  9  1  0
 28 23  1  0
M  END
>  <Binding energies>  (10) 
[-8.98]

>  <Ligand effiencies>  (10) 
[-0.2088372093023256]

>  <Interactions>  (10) 
["V-B:PRO:540:CB:9857, V-B:ASP:366:CG:8185, V-B:TYR:539:CD1:9845, V-B:LEU:475:CD2:9231, V-B:ILE:538:CA:9832, H-A:TYR:539:O:4868, H-A:ALA:541:N:4891, V-A:PRO:540:CA:4883, V-B:MET:535:CE:9807, V-B:TYR:539:CE2:9848, V-B:TYR:539:CE1:9847, V-B:TYR:539:CZ:9849, V-B:ILE:538:CD1:9837, V-B:ILE:538:CG2:9835, V-A:ALA:541:CB:4892, V-A:GLU:543:CG:4907, V-B:TYR:539:CG:9844, V-A:GLU:543:CD:4908, V-A:PRO:540:CB:4885, V-B:GLU:543:CD:9880, H-B:TYR:539:N:9842, V-A:PRO:540:C:4881, V-B:HIS:456:CE1:9042, V-B:ARG:545:CG:9894, H-B:TYR:484:OH:9320, V-B:HIS:456:CD2:9040, V-A:HIS:456:CD2:4068, V-B:GLU:543:C:9874, V-A:GLU:543:CB:4906, V-A:HIS:456:CE1:4070, V-A:GLU:543:C:4902, V-A:GLY:544:C:4912, V-B:GLU:543:CB:9878"]

$$$$
2c_Ghoteimi_2023
     RDKit          3D

 42 47  0  0  0  0  0  0  0  0999 V2000
  125.3160  130.3130   58.3610 N   0  0  0  0  0  0  0  0  0  0  0  0
  125.6310  129.9940   59.4280 C   0  0  0  0  0  0  0  0  0  0  0  0
  126.0320  129.5850   60.7770 C   0  0  0  0  0  0  0  0  0  0  0  0
  126.4460  128.2540   61.0350 C   0  0  0  0  0  0  0  0  0  0  0  0
  126.5060  127.1850   59.9930 C   0  0  0  0  0  0  0  0  0  0  0  0
  126.3820  125.8430   60.3550 C   0  0  0  0  0  0  0  0  0  0  0  0
  126.4320  124.8410   59.3890 C   0  0  0  0  0  0  0  0  0  0  0  0
  126.6230  125.1540   58.0340 C   0  0  0  0  0  0  0  0  0  0  0  0
  126.6570  124.1670   57.0460 N   0  0  0  0  0  0  0  0  0  0  0  0
  127.9610  123.6440   56.5910 C   0  0  0  0  0  0  0  0  0  0  0  0
  127.8750  122.8690   55.2590 C   0  0  0  0  0  0  0  0  0  0  0  0
  126.9200  121.8240   55.3650 O   0  0  0  0  0  0  0  0  0  0  0  0
  125.6260  122.3250   55.6630 C   0  0  0  0  0  0  0  0  0  0  0  0
  125.6520  123.0860   57.0050 C   0  0  0  0  0  0  0  0  0  0  0  0
  126.7520  126.5050   57.6810 C   0  0  0  0  0  0  0  0  0  0  0  0
  126.6990  127.5050   58.6460 C   0  0  0  0  0  0  0  0  0  0  0  0
  126.8230  127.9140   62.3400 C   0  0  0  0  0  0  0  0  0  0  0  0
  126.8130  128.8760   63.3540 C   0  0  0  0  0  0  0  0  0  0  0  0
  127.2230  128.5680   64.7580 C   0  0  0  0  0  0  0  0  0  0  0  0
  128.5590  128.6830   65.1550 C   0  0  0  0  0  0  0  0  0  0  0  0
  128.9460  128.4020   66.4630 C   0  0  0  0  0  0  0  0  0  0  0  0
  128.0100  127.9830   67.4220 C   0  0  0  0  0  0  0  0  0  0  0  0
  128.3770  127.7220   68.7460 N   0  0  0  0  0  0  0  0  0  0  0  0
  127.8710  126.5110   69.4240 C   0  0  0  0  0  0  0  0  0  0  0  0
  128.0310  126.5480   70.9590 C   0  0  0  0  0  0  0  0  0  0  0  0
  129.3860  126.7880   71.3000 O   0  0  0  0  0  0  0  0  0  0  0  0
  129.8380  128.0320   70.7890 C   0  0  0  0  0  0  0  0  0  0  0  0
  129.7280  128.0430   69.2490 C   0  0  0  0  0  0  0  0  0  0  0  0
  126.6690  127.8820   67.0230 C   0  0  0  0  0  0  0  0  0  0  0  0
  126.2830  128.1640   65.7150 C   0  0  0  0  0  0  0  0  0  0  0  0
  126.4180  130.1510   63.1040 N   0  0  0  0  0  0  0  0  0  0  0  0
  126.0190  130.4970   61.8570 C   0  0  0  0  0  0  0  0  0  0  0  0
  125.5260  132.1990   61.7140 S   0  0  0  0  0  0  0  0  0  0  0  0
  126.9690  133.2230   62.1340 C   0  0  0  0  0  0  0  0  0  0  0  0
  128.1760  132.9020   61.2520 C   0  0  0  0  0  0  0  0  0  0  0  0
  128.2450  133.3880   60.1220 O   0  0  0  0  0  0  0  0  0  0  0  0
  129.0970  132.0820   61.8010 N   0  0  0  0  0  0  0  0  0  0  0  0
  130.2820  131.6560   61.2180 C   0  0  0  0  0  0  0  0  0  0  0  0
  131.4930  131.6910   61.7300 N   0  0  0  0  0  0  0  0  0  0  0  0
  132.3860  131.1960   60.8980 C   0  0  0  0  0  0  0  0  0  0  0  0
  131.9020  130.7430   59.6740 C   0  0  0  0  0  0  0  0  0  0  0  0
  130.1810  130.9840   59.6220 S   0  0  0  0  0  0  0  0  0  0  0  0
  1  2  3  0
  2  3  1  0
  3  4  2  0
  4  5  1  0
  5  6  2  0
  6  7  1  0
  7  8  2  0
  8  9  1  0
  9 10  1  0
 10 11  1  0
 11 12  1  0
 12 13  1  0
 13 14  1  0
  8 15  1  0
 15 16  2  0
  4 17  1  0
 17 18  2  0
 18 19  1  0
 19 20  2  0
 20 21  1  0
 21 22  2  0
 22 23  1  0
 23 24  1  0
 24 25  1  0
 25 26  1  0
 26 27  1  0
 27 28  1  0
 22 29  1  0
 29 30  2  0
 18 31  1  0
 31 32  2  0
 32 33  1  0
 33 34  1  0
 34 35  1  0
 35 36  2  0
 35 37  1  0
 37 38  1  0
 38 39  2  0
 39 40  1  0
 40 41  2  0
 41 42  1  0
 32  3  1  0
 42 38  1  0
 16  5  1  0
 30 19  1  0
 14  9  1  0
 28 23  1  0
M  END
>  <Binding energies>  (11) 
[-8.74]

>  <Ligand effiencies>  (11) 
[-0.20325581395348838]

>  <Interactions>  (11) 
["V-B:PRO:540:CB:9857, V-B:ILE:538:C:9830, V-B:ASP:366:CG:8185, V-B:TYR:539:CD1:9845, V-B:LEU:475:CD2:9231, V-B:ILE:538:CA:9832, V-B:PRO:540:N:9856, H-A:ALA:541:N:4891, V-A:PRO:540:CA:4883, V-B:MET:535:CE:9807, V-B:TYR:539:CE2:9848, V-B:TYR:539:CE1:9847, V-B:TYR:539:CZ:9849, V-B:PRO:540:CD:9859, V-B:ILE:538:CD1:9837, V-B:ILE:538:CG2:9835, V-A:ALA:541:CB:4892, V-A:GLU:543:CG:4907, V-B:TYR:539:CG:9844, V-B:ARG:545:CZ:9898, V-A:GLU:543:CD:4908, V-A:PRO:540:CB:4885, V-B:ILE:538:CB:9834, V-B:GLU:543:CD:9880, H-B:TYR:539:N:9842, H-A:GLU:543:OE1:4909, V-B:HIS:456:CE1:9042, V-B:ARG:545:CG:9894, H-B:TYR:484:OH:9320, V-B:HIS:456:CD2:9040, V-A:HIS:456:CD2:4068, V-B:GLU:543:C:9874, V-A:GLU:543:CB:4906, V-A:HIS:456:CE1:4070, V-B:GLU:543:CB:9878, V-B:GLY:544:C:9884"]

$$$$
2j_Grossjean_2025
     RDKit          3D

 23 24  0  0  0  0  0  0  0  0999 V2000
  127.4880  130.9470   56.3170 C   0  0  0  0  0  0  0  0  0  0  0  0
  128.3970  131.1760   57.5110 C   0  0  0  0  0  0  0  0  0  0  0  0
  127.9710  131.8960   58.6240 C   0  0  0  0  0  0  0  0  0  0  0  0
  128.8470  132.0790   59.7040 C   0  0  0  0  0  0  0  0  0  0  0  0
  128.3600  132.8770   60.9280 C   0  0  0  0  0  0  0  0  0  0  0  0
  128.9840  134.0550   60.9830 F   0  0  0  0  0  0  0  0  0  0  0  0
  127.0460  133.0880   60.8430 F   0  0  0  0  0  0  0  0  0  0  0  0
  128.5910  132.2460   62.0810 F   0  0  0  0  0  0  0  0  0  0  0  0
  130.1470  131.5190   59.6230 C   0  0  0  0  0  0  0  0  0  0  0  0
  131.1040  131.6790   60.7220 C   0  0  0  0  0  0  0  0  0  0  0  0
  131.8590  131.8040   61.5910 N   0  0  0  0  0  0  0  0  0  0  0  0
  130.4960  130.8030   58.4530 C   0  0  0  0  0  0  0  0  0  0  0  0
  132.1050  130.0540   58.2430 S   0  0  0  0  0  0  0  0  0  0  0  0
  133.1310  131.1720   57.2290 C   0  0  0  0  0  0  0  0  0  0  0  0
  132.3510  132.0250   56.2180 C   0  0  0  0  0  0  0  0  0  0  0  0
  132.6650  133.1990   56.0110 O   0  0  0  0  0  0  0  0  0  0  0  0
  131.3230  131.3890   55.6140 N   0  0  0  0  0  0  0  0  0  0  0  0
  130.4600  131.9220   54.6650 C   0  0  0  0  0  0  0  0  0  0  0  0
  129.6890  132.9810   54.7790 N   0  0  0  0  0  0  0  0  0  0  0  0
  129.0000  133.2020   53.6770 C   0  0  0  0  0  0  0  0  0  0  0  0
  129.2070  132.3060   52.6320 C   0  0  0  0  0  0  0  0  0  0  0  0
  130.3700  131.1140   53.1330 S   0  0  0  0  0  0  0  0  0  0  0  0
  129.6330  130.6360   57.4190 N   0  0  0  0  0  0  0  0  0  0  0  0
  1  2  1  0
  2  3  2  0
  3  4  1  0
  4  5  1  0
  5  6  1  0
  5  7  1  0
  5  8  1  0
  4  9  2  0
  9 10  1  0
 10 11  3  0
  9 12  1  0
 12 13  1  0
 13 14  1  0
 14 15  1  0
 15 16  2  0
 15 17  1  0
 17 18  1  0
 18 19  2  0
 19 20  1  0
 20 21  2  0
 21 22  1  0
 12 23  2  0
 23  2  1  0
 22 18  1  0
M  END
>  <Binding energies>  (12) 
[-6.12]

>  <Ligand effiencies>  (12) 
[-0.255]

>  <Interactions>  (12) 
["V-A:PRO:540:N:4884, V-A:TYR:539:CE1:4875, V-A:MET:535:CG:4833, H-A:TYR:539:N:4870, V-A:TYR:539:CD1:4873, V-A:MET:535:CE:4835, H-A:ALA:541:N:4891, V-A:TYR:531:CZ:4794, V-A:ILE:538:CA:4860, V-A:TYR:539:CZ:4877, V-A:PRO:540:CA:4883, V-A:ILE:538:CG2:4863, V-A:VAL:537:C:4850, V-A:TYR:539:C:4867, V-A:TYR:539:CD2:4874, V-A:TYR:539:CE2:4876, V-A:ALA:541:CB:4892, V-A:MET:535:CB:4832, V-A:ILE:538:CB:4862, V-A:PRO:540:CB:4885, V-A:ALA:541:CA:4890, H-A:TYR:531:OH:4795, V-A:PRO:540:CD:4887, V-A:LEU:363:CD1:3189, V-A:PRO:540:C:4881, V-A:ILE:538:C:4858"]

$$$$
3ab_Grossjean_2025
     RDKit          3D

 33 35  0  0  0  0  0  0  0  0999 V2000
  129.4000  132.6100   53.1720 C   0  0  0  0  0  0  0  0  0  0  0  0
  130.0950  133.0160   54.3430 O   0  0  0  0  0  0  0  0  0  0  0  0
  129.6660  132.6440   55.5760 C   0  0  0  0  0  0  0  0  0  0  0  0
  129.0040  133.3770   56.3160 O   0  0  0  0  0  0  0  0  0  0  0  0
  130.0730  131.2480   55.9490 C   0  0  0  0  0  0  0  0  0  0  0  0
  129.5180  130.1200   55.3250 C   0  0  0  0  0  0  0  0  0  0  0  0
  129.9150  128.8370   55.6910 C   0  0  0  0  0  0  0  0  0  0  0  0
  130.8800  128.6590   56.6950 C   0  0  0  0  0  0  0  0  0  0  0  0
  131.3600  127.4120   57.1390 N   0  0  0  0  0  0  0  0  0  0  0  0
  131.8870  126.3860   56.4380 C   0  0  0  0  0  0  0  0  0  0  0  0
  132.0350  126.3560   55.2160 O   0  0  0  0  0  0  0  0  0  0  0  0
  132.3200  125.1770   57.2700 C   0  0  0  0  0  0  0  0  0  0  0  0
  131.9170  125.3780   59.0310 S   0  0  0  0  0  0  0  0  0  0  0  0
  130.6880  124.1570   59.4420 C   0  0  0  0  0  0  0  0  0  0  0  0
  129.6690  124.0940   58.5520 N   0  0  0  0  0  0  0  0  0  0  0  0
  128.6630  123.2020   58.7380 C   0  0  0  0  0  0  0  0  0  0  0  0
  127.5740  123.1940   57.7070 C   0  0  0  0  0  0  0  0  0  0  0  0
  126.2240  123.2620   58.0860 C   0  0  0  0  0  0  0  0  0  0  0  0
  125.2090  123.2560   57.1330 C   0  0  0  0  0  0  0  0  0  0  0  0
  125.5320  123.1790   55.7810 C   0  0  0  0  0  0  0  0  0  0  0  0
  126.8610  123.1070   55.3790 C   0  0  0  0  0  0  0  0  0  0  0  0
  127.8720  123.1130   56.3350 C   0  0  0  0  0  0  0  0  0  0  0  0
  128.6530  122.3560   59.8540 C   0  0  0  0  0  0  0  0  0  0  0  0
  129.6870  122.4160   60.7990 C   0  0  0  0  0  0  0  0  0  0  0  0
  129.6350  121.4720   62.0160 C   0  0  0  0  0  0  0  0  0  0  0  0
  129.0530  122.0300   63.0790 F   0  0  0  0  0  0  0  0  0  0  0  0
  128.9450  120.3710   61.7150 F   0  0  0  0  0  0  0  0  0  0  0  0
  130.8720  121.1220   62.3730 F   0  0  0  0  0  0  0  0  0  0  0  0
  130.7360  123.3470   60.5990 C   0  0  0  0  0  0  0  0  0  0  0  0
  131.8100  123.4900   61.5850 C   0  0  0  0  0  0  0  0  0  0  0  0
  132.6570  123.6000   62.3650 N   0  0  0  0  0  0  0  0  0  0  0  0
  131.4380  129.7780   57.3130 C   0  0  0  0  0  0  0  0  0  0  0  0
  131.0380  131.0600   56.9460 C   0  0  0  0  0  0  0  0  0  0  0  0
  1  2  1  0
  2  3  1  0
  3  4  2  0
  3  5  1  0
  5  6  2  0
  6  7  1  0
  7  8  2  0
  8  9  1  0
  9 10  1  0
 10 11  2  0
 10 12  1  0
 12 13  1  0
 13 14  1  0
 14 15  2  0
 15 16  1  0
 16 17  1  0
 17 18  2  0
 18 19  1  0
 19 20  2  0
 20 21  1  0
 21 22  2  0
 16 23  2  0
 23 24  1  0
 24 25  1  0
 25 26  1  0
 25 27  1  0
 25 28  1  0
 24 29  2  0
 29 30  1  0
 30 31  3  0
  8 32  1  0
 32 33  2  0
 33  5  1  0
 29 14  1  0
 22 17  1  0
M  END
>  <Binding energies>  (13) 
[-8.98]

>  <Ligand effiencies>  (13) 
[-0.26411764705882357]

>  <Interactions>  (13) 
["V-B:PRO:540:CB:9857, V-B:TYR:539:C:9839, H-A:TYR:539:N:4870, V-B:TYR:531:CE2:9765, V-B:TYR:539:CD1:9845, V-B:ILE:538:CA:9832, V-B:PRO:540:N:9856, V-B:PRO:540:CA:9855, V-A:ILE:538:CA:4860, V-B:TYR:539:CD2:9846, V-A:ILE:538:CG2:4863, V-B:MET:535:CE:9807, V-B:TYR:539:CE2:9848, V-B:TYR:539:CE1:9847, V-B:TYR:531:CZ:9766, V-B:TYR:539:CZ:9849, V-A:TYR:539:C:4867, V-A:TYR:539:CD2:4874, V-B:ILE:538:CD1:9837, V-A:LEU:475:CD2:4259, V-B:TYR:539:CG:9844, V-A:ILE:538:CB:4862, V-A:ASP:366:CB:3212, H-A:TYR:531:OH:4795, V-A:TYR:484:CE1:4345, V-B:ALA:541:CB:9864, V-B:ALA:541:CA:9862, V-A:TYR:484:CZ:4347, V-B:PRO:540:C:9853, V-B:GLU:543:CG:9879, H-A:TYR:484:OH:4348, V-A:LEU:475:CG:4257, H-A:GLY:454:N:4050, H-B:TYR:539:OH:9850, H-A:ASP:366:OD1:3214"]

$$$$
3ac_Grossjean_2025
     RDKit          3D

 31 33  0  0  0  0  0  0  0  0999 V2000
  125.3280  130.0140   55.9790 C   0  0  0  0  0  0  0  0  0  0  0  0
  126.1820  129.4260   55.0020 O   0  0  0  0  0  0  0  0  0  0  0  0
  127.3110  128.7450   55.4150 C   0  0  0  0  0  0  0  0  0  0  0  0
  127.1580  127.8910   56.5070 C   0  0  0  0  0  0  0  0  0  0  0  0
  128.2390  127.1610   56.9910 C   0  0  0  0  0  0  0  0  0  0  0  0
  129.4950  127.2810   56.3940 C   0  0  0  0  0  0  0  0  0  0  0  0
  130.5210  126.4870   56.9400 N   0  0  0  0  0  0  0  0  0  0  0  0
  131.7070  126.1370   56.3980 C   0  0  0  0  0  0  0  0  0  0  0  0
  132.1240  126.5070   55.3000 O   0  0  0  0  0  0  0  0  0  0  0  0
  132.5730  125.2080   57.2500 C   0  0  0  0  0  0  0  0  0  0  0  0
  132.2090  125.3650   59.0250 S   0  0  0  0  0  0  0  0  0  0  0  0
  130.9430  124.1860   59.4550 C   0  0  0  0  0  0  0  0  0  0  0  0
  129.9400  124.1250   58.5460 N   0  0  0  0  0  0  0  0  0  0  0  0
  128.9060  123.2650   58.7350 C   0  0  0  0  0  0  0  0  0  0  0  0
  127.8350  123.2640   57.6860 C   0  0  0  0  0  0  0  0  0  0  0  0
  128.1650  123.1890   56.3220 C   0  0  0  0  0  0  0  0  0  0  0  0
  127.1750  123.1820   55.3440 C   0  0  0  0  0  0  0  0  0  0  0  0
  125.8370  123.2530   55.7160 C   0  0  0  0  0  0  0  0  0  0  0  0
  125.4820  123.3330   57.0580 C   0  0  0  0  0  0  0  0  0  0  0  0
  126.4750  123.3400   58.0340 C   0  0  0  0  0  0  0  0  0  0  0  0
  128.8500  122.4510   59.8710 C   0  0  0  0  0  0  0  0  0  0  0  0
  129.8630  122.5110   60.8390 C   0  0  0  0  0  0  0  0  0  0  0  0
  129.7590  121.6000   62.0780 C   0  0  0  0  0  0  0  0  0  0  0  0
  129.1600  122.1970   63.1100 F   0  0  0  0  0  0  0  0  0  0  0  0
  129.0530  120.5060   61.7880 F   0  0  0  0  0  0  0  0  0  0  0  0
  130.9780  121.2350   62.4750 F   0  0  0  0  0  0  0  0  0  0  0  0
  130.9380  123.4140   60.6400 C   0  0  0  0  0  0  0  0  0  0  0  0
  131.9780  123.5670   61.6590 C   0  0  0  0  0  0  0  0  0  0  0  0
  132.7990  123.6890   62.4660 N   0  0  0  0  0  0  0  0  0  0  0  0
  129.6550  128.1320   55.2900 C   0  0  0  0  0  0  0  0  0  0  0  0
  128.5710  128.8610   54.8070 C   0  0  0  0  0  0  0  0  0  0  0  0
  1  2  1  0
  2  3  1  0
  3  4  2  0
  4  5  1  0
  5  6  2  0
  6  7  1  0
  7  8  1  0
  8  9  2  0
  8 10  1  0
 10 11  1  0
 11 12  1  0
 12 13  2  0
 13 14  1  0
 14 15  1  0
 15 16  2  0
 16 17  1  0
 17 18  2  0
 18 19  1  0
 19 20  2  0
 14 21  2  0
 21 22  1  0
 22 23  1  0
 23 24  1  0
 23 25  1  0
 23 26  1  0
 22 27  2  0
 27 28  1  0
 28 29  3  0
  6 30  1  0
 30 31  2  0
 31  3  1  0
 27 12  1  0
 20 15  1  0
M  END
>  <Binding energies>  (14) 
[-7.87]

>  <Ligand effiencies>  (14) 
[-0.2459375]

>  <Interactions>  (14) 
["V-B:PRO:540:CB:9857, V-B:TYR:539:C:9839, V-B:TYR:531:CE2:9765, V-B:TYR:539:CD1:9845, V-B:PRO:540:N:9856, V-B:PRO:540:CA:9855, V-A:MET:535:CE:4835, V-B:TYR:539:CD2:9846, V-A:TYR:539:CZ:4877, V-B:MET:535:CE:9807, H-B:LYS:534:NZ:9795, V-B:TYR:539:CE2:9848, V-B:TYR:539:CE1:9847, V-B:TYR:531:CZ:9766, V-B:TYR:539:CZ:9849, V-B:ILE:538:CD1:9837, V-A:LEU:475:CD2:4259, V-B:TYR:539:CG:9844, V-B:TYR:531:CE1:9764, V-A:ASP:366:CB:3212, H-A:TYR:531:OH:4795, V-A:ASP:366:CA:3210, V-A:TYR:484:CE1:4345, V-B:ALA:541:CB:9864, V-B:ALA:541:CA:9862, V-A:TYR:484:CZ:4347, V-B:PRO:540:C:9853, V-B:GLU:543:CD:9880, V-B:GLU:543:CG:9879, H-A:TYR:484:OH:4348, V-A:LEU:475:CG:4257, H-A:GLY:454:N:4050, H-B:TYR:539:OH:9850"]

$$$$
3af_Grossjean_2025
     RDKit          3D

 29 31  0  0  0  0  0  0  0  0999 V2000
  130.3270  125.2290   62.4690 N   0  0  0  0  0  0  0  0  0  0  0  0
  130.4690  124.1420   62.0970 C   0  0  0  0  0  0  0  0  0  0  0  0
  130.6500  122.7670   61.6250 C   0  0  0  0  0  0  0  0  0  0  0  0
  131.8960  122.3390   61.1050 C   0  0  0  0  0  0  0  0  0  0  0  0
  133.1330  123.2580   61.0490 C   0  0  0  0  0  0  0  0  0  0  0  0
  133.0780  124.1410   60.0490 F   0  0  0  0  0  0  0  0  0  0  0  0
  133.2420  123.9450   62.1870 F   0  0  0  0  0  0  0  0  0  0  0  0
  134.2370  122.5290   60.8750 F   0  0  0  0  0  0  0  0  0  0  0  0
  132.0050  121.0290   60.6150 C   0  0  0  0  0  0  0  0  0  0  0  0
  130.9010  120.1710   60.6410 C   0  0  0  0  0  0  0  0  0  0  0  0
  130.9570  118.7680   60.1140 C   0  0  0  0  0  0  0  0  0  0  0  0
  130.0820  117.7830   60.6000 C   0  0  0  0  0  0  0  0  0  0  0  0
  130.1280  116.4800   60.1120 C   0  0  0  0  0  0  0  0  0  0  0  0
  131.0510  116.1430   59.1290 C   0  0  0  0  0  0  0  0  0  0  0  0
  131.9260  117.1000   58.6270 C   0  0  0  0  0  0  0  0  0  0  0  0
  131.8780  118.4030   59.1170 C   0  0  0  0  0  0  0  0  0  0  0  0
  129.7080  120.5850   61.1360 N   0  0  0  0  0  0  0  0  0  0  0  0
  129.5840  121.8390   61.6360 C   0  0  0  0  0  0  0  0  0  0  0  0
  127.9510  122.1940   62.2530 S   0  0  0  0  0  0  0  0  0  0  0  0
  127.4730  123.8450   61.6610 C   0  0  0  0  0  0  0  0  0  0  0  0
  126.5580  123.7680   60.4390 C   0  0  0  0  0  0  0  0  0  0  0  0
  125.4050  124.1900   60.5270 O   0  0  0  0  0  0  0  0  0  0  0  0
  127.1110  123.2190   59.3360 N   0  0  0  0  0  0  0  0  0  0  0  0
  126.5470  122.9950   58.0650 C   0  0  0  0  0  0  0  0  0  0  0  0
  125.1970  123.1910   57.7190 C   0  0  0  0  0  0  0  0  0  0  0  0
  124.7730  122.9260   56.4160 C   0  0  0  0  0  0  0  0  0  0  0  0
  125.7090  122.4710   55.4870 C   0  0  0  0  0  0  0  0  0  0  0  0
  127.0150  122.2750   55.7940 N   0  0  0  0  0  0  0  0  0  0  0  0
  127.4130  122.5370   57.0650 C   0  0  0  0  0  0  0  0  0  0  0  0
  1  2  3  0
  2  3  1  0
  3  4  2  0
  4  5  1  0
  5  6  1  0
  5  7  1  0
  5  8  1  0
  4  9  1  0
  9 10  2  0
 10 11  1  0
 11 12  2  0
 12 13  1  0
 13 14  2  0
 14 15  1  0
 15 16  2  0
 10 17  1  0
 17 18  2  0
 18 19  1  0
 19 20  1  0
 20 21  1  0
 21 22  2  0
 21 23  1  0
 23 24  1  0
 24 25  2  0
 25 26  1  0
 26 27  2  0
 27 28  1  0
 28 29  2  0
 18  3  1  0
 29 24  1  0
 16 11  1  0
M  END
>  <Binding energies>  (15) 
[-8.91]

>  <Ligand effiencies>  (15) 
[-0.297]

>  <Interactions>  (15) 
["V-B:PRO:540:CB:9857, V-B:TYR:539:C:9839, V-B:ILE:538:C:9830, V-B:TYR:531:CE2:9765, V-B:TYR:539:CD1:9845, V-B:ILE:538:CA:9832, V-B:PRO:540:N:9856, V-B:PRO:540:CA:9855, V-B:TYR:539:CD2:9846, V-B:TYR:539:CE2:9848, V-B:TYR:539:CE1:9847, V-B:TYR:531:CZ:9766, V-B:TYR:539:CZ:9849, V-B:LEU:363:CD1:8161, V-B:PRO:540:CD:9859, V-B:ILE:538:CD1:9837, V-B:ILE:538:CG2:9835, V-A:ASP:366:CG:3213, V-A:GLY:454:CA:4049, V-A:ILE:369:CD1:3239, V-A:ILE:369:CG2:3237, V-A:LEU:475:CD2:4259, V-B:TYR:539:CG:9844, V-B:ILE:538:CB:9834, V-A:ILE:369:CB:3236, V-B:ALA:541:CB:9864, V-B:GLU:543:CD:9880, H-B:TYR:539:N:9842, V-A:SER:385:CB:3409, V-B:TYR:539:CB:9843, H-A:TYR:484:OH:4348, V-A:HIS:383:CE1:3394, V-A:PRO:482:CG:4327, V-A:LEU:373:CD1:3280, V-A:LEU:373:CD2:3281, V-A:PRO:482:CB:4326, H-B:TYR:539:O:9840, H-B:ALA:541:N:9863, H-B:ARG:545:NH2:9900, V-A:ILE:369:CG1:3238, V-B:TYR:539:CA:9841"]

$$$$
3ag_Grossjean_2025
     RDKit          3D

 30 32  0  0  0  0  0  0  0  0999 V2000
  132.6770  132.5820   55.0030 N   0  0  0  0  0  0  0  0  0  0  0  0
  131.6120  132.2960   55.3570 C   0  0  0  0  0  0  0  0  0  0  0  0
  130.2630  131.9350   55.8010 C   0  0  0  0  0  0  0  0  0  0  0  0
  129.1700  131.9720   54.9000 C   0  0  0  0  0  0  0  0  0  0  0  0
  129.3320  132.3280   53.4090 C   0  0  0  0  0  0  0  0  0  0  0  0
  128.6510  131.5110   52.6050 F   0  0  0  0  0  0  0  0  0  0  0  0
  128.8930  133.5680   53.1890 F   0  0  0  0  0  0  0  0  0  0  0  0
  130.6170  132.2550   53.0560 F   0  0  0  0  0  0  0  0  0  0  0  0
  127.8890  131.6690   55.3860 C   0  0  0  0  0  0  0  0  0  0  0  0
  127.7020  131.3520   56.7360 C   0  0  0  0  0  0  0  0  0  0  0  0
  126.3570  131.0230   57.3090 C   0  0  0  0  0  0  0  0  0  0  0  0
  125.3940  130.3520   56.5390 C   0  0  0  0  0  0  0  0  0  0  0  0
  124.1430  130.0440   57.0650 C   0  0  0  0  0  0  0  0  0  0  0  0
  123.8360  130.4040   58.3740 C   0  0  0  0  0  0  0  0  0  0  0  0
  124.7720  131.0720   59.1570 C   0  0  0  0  0  0  0  0  0  0  0  0
  126.0210  131.3800   58.6270 C   0  0  0  0  0  0  0  0  0  0  0  0
  128.7540  131.3050   57.5940 N   0  0  0  0  0  0  0  0  0  0  0  0
  130.0030  131.5740   57.1420 C   0  0  0  0  0  0  0  0  0  0  0  0
  131.2540  131.4630   58.4010 S   0  0  0  0  0  0  0  0  0  0  0  0
  130.4520  130.8400   59.9090 C   0  0  0  0  0  0  0  0  0  0  0  0
  129.9300  131.9710   60.7960 C   0  0  0  0  0  0  0  0  0  0  0  0
  130.4680  132.1990   61.8800 O   0  0  0  0  0  0  0  0  0  0  0  0
  128.8860  132.6720   60.3180 N   0  0  0  0  0  0  0  0  0  0  0  0
  128.2550  133.8120   60.9810 C   0  0  0  0  0  0  0  0  0  0  0  0
  126.7500  133.6600   61.1800 C   0  0  0  0  0  0  0  0  0  0  0  0
  125.8700  134.4840   60.4730 C   0  0  0  0  0  0  0  0  0  0  0  0
  124.4950  134.3300   60.6290 C   0  0  0  0  0  0  0  0  0  0  0  0
  124.0050  133.3450   61.4840 C   0  0  0  0  0  0  0  0  0  0  0  0
  124.8760  132.5100   62.1800 C   0  0  0  0  0  0  0  0  0  0  0  0
  126.2510  132.6640   62.0240 C   0  0  0  0  0  0  0  0  0  0  0  0
  1  2  3  0
  2  3  1  0
  3  4  2  0
  4  5  1  0
  5  6  1  0
  5  7  1  0
  5  8  1  0
  4  9  1  0
  9 10  2  0
 10 11  1  0
 11 12  2  0
 12 13  1  0
 13 14  2  0
 14 15  1  0
 15 16  2  0
 10 17  1  0
 17 18  2  0
 18 19  1  0
 19 20  1  0
 20 21  1  0
 21 22  2  0
 21 23  1  0
 23 24  1  0
 24 25  1  0
 25 26  2  0
 26 27  1  0
 27 28  2  0
 28 29  1  0
 29 30  2  0
 18  3  1  0
 30 25  1  0
 16 11  1  0
M  END
>  <Binding energies>  (16) 
[-8.06]

>  <Ligand effiencies>  (16) 
[-0.26]

>  <Interactions>  (16) 
["V-A:TYR:539:CE1:4875, V-A:MET:535:CG:4833, V-B:ASP:366:CG:8185, V-A:TYR:539:CD1:4873, V-B:LEU:475:CD2:9231, H-A:TYR:539:O:4868, H-A:ALA:541:N:4891, V-A:ILE:538:CA:4860, V-A:TYR:539:CZ:4877, V-A:PRO:540:CA:4883, V-A:ILE:538:CG2:4863, V-A:VAL:537:C:4850, V-A:TYR:539:CD2:4874, V-A:TYR:539:CE2:4876, V-A:ALA:541:CB:4892, V-B:ILE:369:CD1:8211, V-A:MET:535:CB:4832, V-A:ILE:538:CB:4862, V-B:TYR:531:CE1:9764, V-B:ASP:366:CB:8184, V-B:ILE:369:CG2:8209, V-B:ASP:366:C:8180, H-A:TYR:531:OH:4795, V-B:ASP:366:CA:8182, V-A:PRO:540:C:4881, V-A:ILE:538:C:4858, V-B:LYS:534:CE:9794"]

$$$$
3bc_Grossjean_2025
     RDKit          3D

 28 30  0  0  0  0  0  0  0  0999 V2000
  131.7350  132.6040   55.0020 C   0  0  0  0  0  0  0  0  0  0  0  0
  130.3700  132.8490   55.3210 O   0  0  0  0  0  0  0  0  0  0  0  0
  129.9060  132.5300   56.5840 C   0  0  0  0  0  0  0  0  0  0  0  0
  130.7650  131.7850   57.3910 C   0  0  0  0  0  0  0  0  0  0  0  0
  130.3850  131.4160   58.6790 C   0  0  0  0  0  0  0  0  0  0  0  0
  129.1320  131.7820   59.1740 C   0  0  0  0  0  0  0  0  0  0  0  0
  128.8420  131.3750   60.4900 N   0  0  0  0  0  0  0  0  0  0  0  0
  129.6250  131.4200   61.5880 C   0  0  0  0  0  0  0  0  0  0  0  0
  130.7670  131.8850   61.6180 O   0  0  0  0  0  0  0  0  0  0  0  0
  128.9730  130.8720   62.8650 C   0  0  0  0  0  0  0  0  0  0  0  0
  127.8940  132.0470   63.7510 S   0  0  0  0  0  0  0  0  0  0  0  0
  126.4030  132.2400   62.8000 C   0  0  0  0  0  0  0  0  0  0  0  0
  126.3520  133.3960   62.0940 N   0  0  0  0  0  0  0  0  0  0  0  0
  125.2690  133.6700   61.3210 C   0  0  0  0  0  0  0  0  0  0  0  0
  125.2810  134.9790   60.5890 C   0  0  0  0  0  0  0  0  0  0  0  0
  126.3910  135.8340   60.6680 C   0  0  0  0  0  0  0  0  0  0  0  0
  126.4100  137.0500   59.9910 C   0  0  0  0  0  0  0  0  0  0  0  0
  125.3130  137.4290   59.2240 C   0  0  0  0  0  0  0  0  0  0  0  0
  124.1990  136.6020   59.1310 C   0  0  0  0  0  0  0  0  0  0  0  0
  124.1840  135.3860   59.8110 C   0  0  0  0  0  0  0  0  0  0  0  0
  124.1980  132.7740   61.2420 C   0  0  0  0  0  0  0  0  0  0  0  0
  124.2450  131.5660   61.9460 C   0  0  0  0  0  0  0  0  0  0  0  0
  123.0600  130.6090   61.8160 C   0  0  0  0  0  0  0  0  0  0  0  0
  125.3740  131.2730   62.7420 C   0  0  0  0  0  0  0  0  0  0  0  0
  125.4660  129.9940   63.4480 C   0  0  0  0  0  0  0  0  0  0  0  0
  125.5360  128.9820   64.0060 N   0  0  0  0  0  0  0  0  0  0  0  0
  128.2680  132.5430   58.3740 C   0  0  0  0  0  0  0  0  0  0  0  0
  128.6520  132.9100   57.0860 C   0  0  0  0  0  0  0  0  0  0  0  0
  1  2  1  0
  2  3  1  0
  3  4  2  0
  4  5  1  0
  5  6  2  0
  6  7  1  0
  7  8  1  0
  8  9  2  0
  8 10  1  0
 10 11  1  0
 11 12  1  0
 12 13  2  0
 13 14  1  0
 14 15  1  0
 15 16  2  0
 16 17  1  0
 17 18  2  0
 18 19  1  0
 19 20  2  0
 14 21  2  0
 21 22  1  0
 22 23  1  0
 22 24  2  0
 24 25  1  0
 25 26  3  0
  6 27  1  0
 27 28  2  0
 28  3  1  0
 24 12  1  0
 20 15  1  0
M  END
>  <Binding energies>  (17) 
[-8.44]

>  <Ligand effiencies>  (17) 
[-0.29103448275862065]

>  <Interactions>  (17) 
["V-A:PRO:540:N:4884, V-A:TYR:539:CE1:4875, H-A:TYR:539:N:4870, V-B:ASP:366:CG:8185, V-A:TYR:539:CD1:4873, V-B:LEU:475:CD2:9231, H-A:ALA:541:N:4891, V-A:ILE:538:CA:4860, V-A:PRO:540:CA:4883, V-A:ILE:538:CG2:4863, V-A:TYR:539:C:4867, V-A:TYR:539:CG:4872, V-A:TYR:539:CD2:4874, V-A:ALA:541:CB:4892, V-A:GLU:543:CG:4907, V-B:ILE:369:CD1:8211, V-A:GLU:543:CD:4908, V-A:ILE:538:CB:4862, V-B:ILE:369:CG2:8209, V-A:PRO:540:CB:4885, V-A:LEU:363:CD1:3189, V-B:SER:385:CB:8381, V-B:GLY:453:CA:9016, V-B:GLY:453:C:9014, H-B:TYR:484:OH:9320, V-A:TYR:539:CA:4869, H-B:ARG:545:NH2:9900, V-A:TYR:539:CB:4871, V-B:HIS:383:CD2:8364, V-B:SER:385:CA:8379"]

$$$$
3bd_Grossjean_2025
     RDKit          3D

 26 28  0  0  0  0  0  0  0  0999 V2000
  133.5210  123.8230   59.4850 C   0  0  0  0  0  0  0  0  0  0  0  0
  132.4240  123.0570   60.2210 C   0  0  0  0  0  0  0  0  0  0  0  0
  132.3110  121.6810   59.9920 C   0  0  0  0  0  0  0  0  0  0  0  0
  131.3160  120.9430   60.6440 C   0  0  0  0  0  0  0  0  0  0  0  0
  131.1420  119.4660   60.4480 C   0  0  0  0  0  0  0  0  0  0  0  0
  130.1480  118.7620   61.1450 C   0  0  0  0  0  0  0  0  0  0  0  0
  129.9830  117.3900   60.9690 C   0  0  0  0  0  0  0  0  0  0  0  0
  130.8130  116.7020   60.0900 C   0  0  0  0  0  0  0  0  0  0  0  0
  131.8080  117.3760   59.3890 C   0  0  0  0  0  0  0  0  0  0  0  0
  131.9700  118.7470   59.5690 C   0  0  0  0  0  0  0  0  0  0  0  0
  130.4620  121.5440   61.5120 N   0  0  0  0  0  0  0  0  0  0  0  0
  130.5560  122.8780   61.7460 C   0  0  0  0  0  0  0  0  0  0  0  0
  129.3680  123.5480   62.8970 S   0  0  0  0  0  0  0  0  0  0  0  0
  127.8880  122.4930   62.8580 C   0  0  0  0  0  0  0  0  0  0  0  0
  127.0670  122.7050   61.5850 C   0  0  0  0  0  0  0  0  0  0  0  0
  125.8540  122.8920   61.6800 O   0  0  0  0  0  0  0  0  0  0  0  0
  127.7600  122.6540   60.4260 N   0  0  0  0  0  0  0  0  0  0  0  0
  127.2970  122.8350   59.1090 C   0  0  0  0  0  0  0  0  0  0  0  0
  128.2100  122.5430   58.0920 C   0  0  0  0  0  0  0  0  0  0  0  0
  127.8450  122.7000   56.7570 C   0  0  0  0  0  0  0  0  0  0  0  0
  126.5700  123.1590   56.4390 C   0  0  0  0  0  0  0  0  0  0  0  0
  125.6560  123.4660   57.4450 C   0  0  0  0  0  0  0  0  0  0  0  0
  126.0170  123.3090   58.7800 C   0  0  0  0  0  0  0  0  0  0  0  0
  131.5300  123.6820   61.1160 C   0  0  0  0  0  0  0  0  0  0  0  0
  131.6230  125.1220   61.3770 C   0  0  0  0  0  0  0  0  0  0  0  0
  131.6990  126.2580   61.5840 N   0  0  0  0  0  0  0  0  0  0  0  0
  1  2  1  0
  2  3  2  0
  3  4  1  0
  4  5  1  0
  5  6  2  0
  6  7  1  0
  7  8  2  0
  8  9  1  0
  9 10  2  0
  4 11  2  0
 11 12  1  0
 12 13  1  0
 13 14  1  0
 14 15  1  0
 15 16  2  0
 15 17  1  0
 17 18  1  0
 18 19  2  0
 19 20  1  0
 20 21  2  0
 21 22  1  0
 22 23  2  0
 12 24  2  0
 24 25  1  0
 25 26  3  0
 24  2  1  0
 10  5  1  0
 23 18  1  0
M  END
>  <Binding energies>  (18) 
[-8.33]

>  <Ligand effiencies>  (18) 
[-0.3085185185185185]

>  <Interactions>  (18) 
["V-B:PRO:540:CB:9857, V-B:TYR:539:C:9839, V-B:TYR:539:CD1:9845, V-B:PRO:540:N:9856, V-B:PRO:540:CA:9855, V-B:TYR:539:CD2:9846, V-B:MET:535:CE:9807, V-B:TYR:539:CE2:9848, V-B:TYR:539:CE1:9847, V-B:TYR:539:CZ:9849, V-A:ILE:369:CD1:3239, V-A:ILE:369:CG2:3237, V-A:LEU:475:CD2:4259, V-B:TYR:539:CG:9844, V-A:ILE:369:CB:3236, V-B:ALA:541:CB:9864, V-B:ALA:541:CA:9862, V-B:PRO:540:C:9853, V-B:GLU:543:CD:9880, V-B:GLU:543:CG:9879, V-A:SER:385:CB:3409, V-B:TYR:539:CB:9843, H-A:TYR:484:OH:4348, V-A:HIS:383:CE1:3394, V-A:PRO:482:CG:4327, V-A:LEU:475:CG:4257, V-A:PRO:482:CB:4326, V-A:LEU:475:CD1:4258, H-B:TYR:539:O:9840, H-B:ALA:541:N:9863, H-A:ARG:545:NH2:4928"]

$$$$
3be_Grossjean_2025
     RDKit          3D

 27 29  0  0  0  0  0  0  0  0999 V2000
  127.3830  122.4920   54.7620 C   0  0  0  0  0  0  0  0  0  0  0  0
  126.5890  122.7740   56.0220 C   0  0  0  0  0  0  0  0  0  0  0  0
  125.1930  122.8280   56.0110 C   0  0  0  0  0  0  0  0  0  0  0  0
  124.5280  123.0960   57.2080 C   0  0  0  0  0  0  0  0  0  0  0  0
  125.2670  123.2990   58.3760 C   0  0  0  0  0  0  0  0  0  0  0  0
  126.6630  123.2270   58.3190 C   0  0  0  0  0  0  0  0  0  0  0  0
  127.3500  123.4520   59.5260 N   0  0  0  0  0  0  0  0  0  0  0  0
  126.8500  123.5550   60.7770 C   0  0  0  0  0  0  0  0  0  0  0  0
  125.6540  123.4700   61.0620 O   0  0  0  0  0  0  0  0  0  0  0  0
  127.9020  123.7940   61.8720 C   0  0  0  0  0  0  0  0  0  0  0  0
  128.5970  122.2820   62.6220 S   0  0  0  0  0  0  0  0  0  0  0  0
  130.0940  121.8710   61.7520 C   0  0  0  0  0  0  0  0  0  0  0  0
  130.1200  120.5970   61.2880 N   0  0  0  0  0  0  0  0  0  0  0  0
  131.2040  120.1490   60.6000 C   0  0  0  0  0  0  0  0  0  0  0  0
  131.1590  118.7240   60.1340 C   0  0  0  0  0  0  0  0  0  0  0  0
  130.2780  117.8030   60.7240 C   0  0  0  0  0  0  0  0  0  0  0  0
  130.2340  116.4790   60.2980 C   0  0  0  0  0  0  0  0  0  0  0  0
  131.0730  116.0550   59.2740 C   0  0  0  0  0  0  0  0  0  0  0  0
  131.9560  116.9450   58.6740 C   0  0  0  0  0  0  0  0  0  0  0  0
  131.9980  118.2690   59.1030 C   0  0  0  0  0  0  0  0  0  0  0  0
  132.3000  120.9850   60.3640 C   0  0  0  0  0  0  0  0  0  0  0  0
  132.2790  122.3090   60.8150 C   0  0  0  0  0  0  0  0  0  0  0  0
  133.4910  123.1910   60.5190 C   0  0  0  0  0  0  0  0  0  0  0  0
  131.1490  122.7820   61.5170 C   0  0  0  0  0  0  0  0  0  0  0  0
  131.0830  124.1790   61.9500 C   0  0  0  0  0  0  0  0  0  0  0  0
  131.0330  125.2840   62.2910 N   0  0  0  0  0  0  0  0  0  0  0  0
  127.3200  122.9690   57.1490 N   0  0  0  0  0  0  0  0  0  0  0  0
  1  2  1  0
  2  3  2  0
  3  4  1  0
  4  5  2  0
  5  6  1  0
  6  7  1  0
  7  8  1  0
  8  9  2  0
  8 10  1  0
 10 11  1  0
 11 12  1  0
 12 13  2  0
 13 14  1  0
 14 15  1  0
 15 16  2  0
 16 17  1  0
 17 18  2  0
 18 19  1  0
 19 20  2  0
 14 21  2  0
 21 22  1  0
 22 23  1  0
 22 24  2  0
 24 25  1  0
 25 26  3  0
  6 27  2  0
 27  2  1  0
 24 12  1  0
 20 15  1  0
M  END
>  <Binding energies>  (19) 
[-9.68]

>  <Ligand effiencies>  (19) 
[-0.3457142857142857]

>  <Interactions>  (19) 
["V-B:PRO:540:CB:9857, V-B:TYR:539:C:9839, V-B:ILE:538:C:9830, V-B:TYR:531:CE2:9765, V-B:TYR:539:CD1:9845, V-B:ILE:538:CA:9832, V-B:PRO:540:N:9856, V-B:PRO:540:CA:9855, V-B:VAL:537:C:9822, V-B:TYR:539:CD2:9846, V-B:MET:535:CE:9807, V-B:TYR:539:CE2:9848, V-B:TYR:539:CE1:9847, V-B:TYR:531:CZ:9766, V-B:TYR:539:CZ:9849, V-B:PRO:540:CG:9858, V-B:LEU:363:CD1:8161, V-B:PRO:540:CD:9859, V-B:ILE:538:CD1:9837, V-B:ILE:538:CG2:9835, V-A:ILE:369:CD1:3239, V-A:ILE:369:CG2:3237, V-A:LEU:475:CD2:4259, V-B:TYR:539:CG:9844, V-B:GLU:543:CD:9880, V-A:SER:385:CB:3409, V-B:TYR:539:CB:9843, H-A:TYR:484:OH:4348, V-A:HIS:383:CE1:3394, V-A:PRO:482:CG:4327, V-A:LEU:373:CD1:3280, V-A:LEU:373:CD2:3281, V-A:PRO:482:CB:4326, V-A:LEU:475:CD1:4258, V-B:VAL:344:CG1:7973"]

$$$$
3bf_Grossjean_2025
     RDKit          3D

 26 28  0  0  0  0  0  0  0  0999 V2000
  133.4930  123.2450   60.2830 C   0  0  0  0  0  0  0  0  0  0  0  0
  132.3180  122.3600   60.6930 C   0  0  0  0  0  0  0  0  0  0  0  0
  132.2890  121.0430   60.2240 C   0  0  0  0  0  0  0  0  0  0  0  0
  131.2380  120.1940   60.5870 C   0  0  0  0  0  0  0  0  0  0  0  0
  131.1590  118.7670   60.1360 C   0  0  0  0  0  0  0  0  0  0  0  0
  131.9920  118.2930   59.1110 C   0  0  0  0  0  0  0  0  0  0  0  0
  131.9250  116.9690   58.6860 C   0  0  0  0  0  0  0  0  0  0  0  0
  131.0200  116.0980   59.2830 C   0  0  0  0  0  0  0  0  0  0  0  0
  130.1830  116.5430   60.3010 C   0  0  0  0  0  0  0  0  0  0  0  0
  130.2520  117.8680   60.7220 C   0  0  0  0  0  0  0  0  0  0  0  0
  130.2360  120.6320   61.3960 N   0  0  0  0  0  0  0  0  0  0  0  0
  130.2370  121.9130   61.8390 C   0  0  0  0  0  0  0  0  0  0  0  0
  128.8470  122.3090   62.8780 S   0  0  0  0  0  0  0  0  0  0  0  0
  127.9290  123.6800   62.0980 C   0  0  0  0  0  0  0  0  0  0  0  0
  126.9310  123.2590   61.0090 C   0  0  0  0  0  0  0  0  0  0  0  0
  125.7980  122.8790   61.3070 O   0  0  0  0  0  0  0  0  0  0  0  0
  127.3950  123.3750   59.7450 N   0  0  0  0  0  0  0  0  0  0  0  0
  126.7470  123.0670   58.5350 C   0  0  0  0  0  0  0  0  0  0  0  0
  125.4020  123.4350   58.4190 C   0  0  0  0  0  0  0  0  0  0  0  0
  124.7070  123.1690   57.2370 C   0  0  0  0  0  0  0  0  0  0  0  0
  125.3850  122.5400   56.1930 C   0  0  0  0  0  0  0  0  0  0  0  0
  126.6910  122.1810   56.2730 N   0  0  0  0  0  0  0  0  0  0  0  0
  127.3540  122.4470   57.4290 C   0  0  0  0  0  0  0  0  0  0  0  0
  131.2750  122.8190   61.5270 C   0  0  0  0  0  0  0  0  0  0  0  0
  131.3120  124.1800   62.0710 C   0  0  0  0  0  0  0  0  0  0  0  0
  131.3420  125.2550   62.4980 N   0  0  0  0  0  0  0  0  0  0  0  0
  1  2  1  0
  2  3  2  0
  3  4  1  0
  4  5  1  0
  5  6  2  0
  6  7  1  0
  7  8  2  0
  8  9  1  0
  9 10  2  0
  4 11  2  0
 11 12  1  0
 12 13  1  0
 13 14  1  0
 14 15  1  0
 15 16  2  0
 15 17  1  0
 17 18  1  0
 18 19  2  0
 19 20  1  0
 20 21  2  0
 21 22  1  0
 22 23  2  0
 12 24  2  0
 24 25  1  0
 25 26  3  0
 24  2  1  0
 10  5  1  0
 23 18  1  0
M  END
>  <Binding energies>  (20) 
[-9.76]

>  <Ligand effiencies>  (20) 
[-0.36148148148148146]

>  <Interactions>  (20) 
["V-B:PRO:540:CB:9857, V-B:TYR:539:C:9839, V-B:TYR:531:CE2:9765, V-B:TYR:539:CD1:9845, V-B:ILE:538:CA:9832, V-B:PRO:540:N:9856, V-B:PRO:540:CA:9855, V-B:TYR:539:CD2:9846, V-B:TYR:539:CE2:9848, V-B:LEU:363:CD1:8161, V-B:PRO:540:CD:9859, V-B:ILE:538:CD1:9837, V-B:ILE:538:CG2:9835, V-A:ILE:369:CD1:3239, V-A:ILE:369:CG2:3237, V-A:LEU:475:CD2:4259, V-B:TYR:539:CG:9844, V-B:GLU:543:CD:9880, V-B:GLU:543:CG:9879, H-B:TYR:539:N:9842, V-A:SER:385:CB:3409, V-B:TYR:539:CB:9843, H-A:TYR:484:OH:4348, V-A:HIS:383:CE1:3394, V-A:PRO:482:CG:4327, V-A:LEU:373:CD1:3280, V-A:LEU:373:CD2:3281, V-A:PRO:482:CB:4326, V-A:LEU:475:CD1:4258, H-B:ALA:541:N:9863, V-B:VAL:344:CG1:7973, V-B:TYR:539:CA:9841"]

$$$$
3bg_Grossjean_2025
     RDKit          3D

 27 29  0  0  0  0  0  0  0  0999 V2000
  133.5710  123.2900   60.2070 C   0  0  0  0  0  0  0  0  0  0  0  0
  132.3920  122.4270   60.6510 C   0  0  0  0  0  0  0  0  0  0  0  0
  132.3490  121.0960   60.2240 C   0  0  0  0  0  0  0  0  0  0  0  0
  131.2880  120.2670   60.6140 C   0  0  0  0  0  0  0  0  0  0  0  0
  131.1870  118.8250   60.2000 C   0  0  0  0  0  0  0  0  0  0  0  0
  131.9660  118.3180   59.1460 C   0  0  0  0  0  0  0  0  0  0  0  0
  131.8890  116.9800   58.7710 C   0  0  0  0  0  0  0  0  0  0  0  0
  131.0250  116.1230   59.4450 C   0  0  0  0  0  0  0  0  0  0  0  0
  130.2330  116.5990   60.4830 C   0  0  0  0  0  0  0  0  0  0  0  0
  130.3130  117.9390   60.8540 C   0  0  0  0  0  0  0  0  0  0  0  0
  130.3040  120.7400   61.4250 N   0  0  0  0  0  0  0  0  0  0  0  0
  130.3330  122.0290   61.8510 C   0  0  0  0  0  0  0  0  0  0  0  0
  129.0010  122.5150   62.9370 S   0  0  0  0  0  0  0  0  0  0  0  0
  127.6590  123.2110   61.9190 C   0  0  0  0  0  0  0  0  0  0  0  0
  127.8970  122.9770   60.4250 C   0  0  0  0  0  0  0  0  0  0  0  0
  128.0930  121.8360   60.0060 O   0  0  0  0  0  0  0  0  0  0  0  0
  127.9010  124.0700   59.6410 N   0  0  0  0  0  0  0  0  0  0  0  0
  128.2850  124.1020   58.2300 C   0  0  0  0  0  0  0  0  0  0  0  0
  127.1990  123.5180   57.3340 C   0  0  0  0  0  0  0  0  0  0  0  0
  125.8870  123.4050   57.8070 C   0  0  0  0  0  0  0  0  0  0  0  0
  124.8970  122.8630   56.9930 C   0  0  0  0  0  0  0  0  0  0  0  0
  125.2180  122.4450   55.7020 C   0  0  0  0  0  0  0  0  0  0  0  0
  126.5170  122.5730   55.2170 C   0  0  0  0  0  0  0  0  0  0  0  0
  127.5080  123.1150   56.0320 C   0  0  0  0  0  0  0  0  0  0  0  0
  131.3620  122.9190   61.4800 C   0  0  0  0  0  0  0  0  0  0  0  0
  131.3840  124.3070   61.9500 C   0  0  0  0  0  0  0  0  0  0  0  0
  131.4030  125.4030   62.3200 N   0  0  0  0  0  0  0  0  0  0  0  0
  1  2  1  0
  2  3  2  0
  3  4  1  0
  4  5  1  0
  5  6  2  0
  6  7  1  0
  7  8  2  0
  8  9  1  0
  9 10  2  0
  4 11  2  0
 11 12  1  0
 12 13  1  0
 13 14  1  0
 14 15  1  0
 15 16  2  0
 15 17  1  0
 17 18  1  0
 18 19  1  0
 19 20  2  0
 20 21  1  0
 21 22  2  0
 22 23  1  0
 23 24  2  0
 12 25  2  0
 25 26  1  0
 26 27  3  0
 25  2  1  0
 10  5  1  0
 24 19  1  0
M  END
>  <Binding energies>  (21) 
[-9.19]

>  <Ligand effiencies>  (21) 
[-0.3282142857142857]

>  <Interactions>  (21) 
["V-B:PRO:540:CB:9857, V-B:ILE:538:C:9830, V-B:TYR:531:CE2:9765, V-B:TYR:539:CD1:9845, V-B:ILE:538:CA:9832, V-B:PRO:540:N:9856, V-B:PRO:540:CA:9855, V-B:TYR:539:CD2:9846, V-B:MET:535:CE:9807, V-B:TYR:539:CE2:9848, V-B:TYR:539:CE1:9847, V-B:TYR:539:CZ:9849, V-B:PRO:540:CG:9858, V-B:LEU:363:CD1:8161, V-B:PRO:540:CD:9859, V-B:ILE:538:CD1:9837, V-B:ILE:538:CG2:9835, V-A:ILE:369:CD1:3239, V-A:ILE:369:CG2:3237, V-A:LEU:475:CD2:4259, V-B:TYR:539:CG:9844, V-B:ILE:538:CB:9834, V-A:ILE:369:CB:3236, V-B:GLU:543:CD:9880, V-A:SER:385:CB:3409, V-B:TYR:539:CB:9843, H-A:TYR:484:OH:4348, V-A:HIS:383:CE1:3394, V-A:PRO:482:CG:4327, V-A:LEU:475:CG:4257, V-A:LEU:373:CD1:3280, V-A:LEU:373:CD2:3281, V-A:PRO:482:CB:4326, V-A:LEU:475:CD1:4258, H-A:ARG:545:NH2:4928"]

$$$$
3ca_Grossjean_2025
     RDKit          3D

 31 33  0  0  0  0  0  0  0  0999 V2000
  128.6210  132.6030   53.1620 C   0  0  0  0  0  0  0  0  0  0  0  0
  130.0840  132.2630   53.4610 C   0  0  0  0  0  0  0  0  0  0  0  0
  130.5030  132.9610   54.6270 O   0  0  0  0  0  0  0  0  0  0  0  0
  130.0310  132.6230   55.8540 C   0  0  0  0  0  0  0  0  0  0  0  0
  129.2600  133.3350   56.5060 O   0  0  0  0  0  0  0  0  0  0  0  0
  130.5350  131.2930   56.3390 C   0  0  0  0  0  0  0  0  0  0  0  0
  129.8300  130.1310   56.0020 C   0  0  0  0  0  0  0  0  0  0  0  0
  130.2710  128.8840   56.4360 C   0  0  0  0  0  0  0  0  0  0  0  0
  131.4200  128.7750   57.2220 C   0  0  0  0  0  0  0  0  0  0  0  0
  131.7780  127.4680   57.6050 N   0  0  0  0  0  0  0  0  0  0  0  0
  132.1640  126.4220   56.8440 C   0  0  0  0  0  0  0  0  0  0  0  0
  132.2930  126.4400   55.6200 O   0  0  0  0  0  0  0  0  0  0  0  0
  132.4770  125.1330   57.6120 C   0  0  0  0  0  0  0  0  0  0  0  0
  131.7960  125.1230   59.3040 S   0  0  0  0  0  0  0  0  0  0  0  0
  130.4310  123.9730   59.4020 C   0  0  0  0  0  0  0  0  0  0  0  0
  130.4930  123.0710   60.4130 N   0  0  0  0  0  0  0  0  0  0  0  0
  129.4850  122.1840   60.5610 C   0  0  0  0  0  0  0  0  0  0  0  0
  129.6190  121.2220   61.7240 C   0  0  0  0  0  0  0  0  0  0  0  0
  128.3870  122.1480   59.7030 C   0  0  0  0  0  0  0  0  0  0  0  0
  128.3080  123.0570   58.6400 C   0  0  0  0  0  0  0  0  0  0  0  0
  127.1200  122.9720   57.7390 C   0  0  0  0  0  0  0  0  0  0  0  0
  127.2790  122.5990   56.3990 C   0  0  0  0  0  0  0  0  0  0  0  0
  126.1790  122.5270   55.5490 C   0  0  0  0  0  0  0  0  0  0  0  0
  124.9110  122.8320   56.0370 C   0  0  0  0  0  0  0  0  0  0  0  0
  124.7350  123.2110   57.3660 C   0  0  0  0  0  0  0  0  0  0  0  0
  125.8390  123.2830   58.2120 C   0  0  0  0  0  0  0  0  0  0  0  0
  129.3520  124.0050   58.4850 C   0  0  0  0  0  0  0  0  0  0  0  0
  129.2990  125.0140   57.4220 C   0  0  0  0  0  0  0  0  0  0  0  0
  129.2560  125.8100   56.5830 N   0  0  0  0  0  0  0  0  0  0  0  0
  132.1370  129.9330   57.5570 C   0  0  0  0  0  0  0  0  0  0  0  0
  131.6940  131.1790   57.1200 C   0  0  0  0  0  0  0  0  0  0  0  0
  1  2  1  0
  2  3  1  0
  3  4  1  0
  4  5  2  0
  4  6  1  0
  6  7  2  0
  7  8  1  0
  8  9  2  0
  9 10  1  0
 10 11  1  0
 11 12  2  0
 11 13  1  0
 13 14  1  0
 14 15  1  0
 15 16  2  0
 16 17  1  0
 17 18  1  0
 17 19  2  0
 19 20  1  0
 20 21  1  0
 21 22  2  0
 22 23  1  0
 23 24  2  0
 24 25  1  0
 25 26  2  0
 20 27  2  0
 27 28  1  0
 28 29  3  0
  9 30  1  0
 30 31  2  0
 31  6  1  0
 27 15  1  0
 26 21  1  0
M  END
>  <Binding energies>  (22) 
[-9.9]

>  <Ligand effiencies>  (22) 
[-0.309375]

>  <Interactions>  (22) 
["V-B:PRO:540:CB:9857, V-A:PRO:540:N:4884, V-B:TYR:539:C:9839, V-B:ILE:538:C:9830, V-A:MET:535:CG:4833, H-A:TYR:539:N:4870, V-B:TYR:531:CE2:9765, V-B:TYR:539:CD1:9845, V-B:ILE:538:CA:9832, V-B:PRO:540:N:9856, V-B:PRO:540:CA:9855, V-A:ILE:538:CA:4860, V-B:TYR:539:CD2:9846, V-A:ILE:538:CG2:4863, V-B:TYR:539:CE2:9848, V-B:TYR:539:CE1:9847, V-B:TYR:531:CZ:9766, V-B:TYR:539:CZ:9849, V-A:TYR:539:C:4867, V-B:LEU:363:CD1:8161, V-A:TYR:539:CD2:4874, V-B:PRO:540:CD:9859, V-B:ILE:538:CD1:9837, V-A:TYR:539:CE2:4876, V-B:ILE:538:CG2:9835, V-A:ASP:366:CG:3213, V-A:LEU:475:CD2:4259, V-B:TYR:539:CG:9844, V-A:ILE:538:CB:4862, V-A:PRO:540:CB:4885, V-A:ASP:366:CB:3212, H-A:TYR:531:OH:4795, V-A:ASP:366:CA:3210, V-B:ALA:541:CB:9864, V-A:TYR:539:CA:4869, H-B:TYR:539:OH:9850, H-A:ASP:366:OD1:3214"]

$$$$
3ce_Grossjean_2025
     RDKit          3D

 27 29  0  0  0  0  0  0  0  0999 V2000
  123.5480  129.6200   66.8280 C   0  0  0  0  0  0  0  0  0  0  0  0
  124.4280  129.3790   65.6170 C   0  0  0  0  0  0  0  0  0  0  0  0
  125.7190  128.8590   65.7430 C   0  0  0  0  0  0  0  0  0  0  0  0
  126.4680  128.6530   64.5850 C   0  0  0  0  0  0  0  0  0  0  0  0
  125.9150  128.9680   63.3410 C   0  0  0  0  0  0  0  0  0  0  0  0
  124.6200  129.4950   63.2860 C   0  0  0  0  0  0  0  0  0  0  0  0
  124.1090  129.7750   62.0080 N   0  0  0  0  0  0  0  0  0  0  0  0
  124.0050  130.9750   61.3940 C   0  0  0  0  0  0  0  0  0  0  0  0
  124.3610  132.0500   61.8780 O   0  0  0  0  0  0  0  0  0  0  0  0
  123.4010  130.9510   59.9900 C   0  0  0  0  0  0  0  0  0  0  0  0
  124.4660  130.0720   58.8080 S   0  0  0  0  0  0  0  0  0  0  0  0
  125.9450  131.0490   58.6720 C   0  0  0  0  0  0  0  0  0  0  0  0
  126.2130  131.7980   59.7690 N   0  0  0  0  0  0  0  0  0  0  0  0
  127.3280  132.5650   59.7720 C   0  0  0  0  0  0  0  0  0  0  0  0
  127.5750  133.3670   61.0350 C   0  0  0  0  0  0  0  0  0  0  0  0
  128.2000  132.6240   58.6880 C   0  0  0  0  0  0  0  0  0  0  0  0
  127.9260  131.8770   57.5350 C   0  0  0  0  0  0  0  0  0  0  0  0
  128.8770  131.9920   56.3890 C   0  0  0  0  0  0  0  0  0  0  0  0
  128.3970  132.2560   55.1000 C   0  0  0  0  0  0  0  0  0  0  0  0
  129.2770  132.3600   54.0260 C   0  0  0  0  0  0  0  0  0  0  0  0
  130.6430  132.1920   54.2340 C   0  0  0  0  0  0  0  0  0  0  0  0
  131.1350  131.9190   55.5080 C   0  0  0  0  0  0  0  0  0  0  0  0
  130.2540  131.8170   56.5800 C   0  0  0  0  0  0  0  0  0  0  0  0
  126.7680  131.0590   57.5210 C   0  0  0  0  0  0  0  0  0  0  0  0
  126.4370  130.2430   56.3480 C   0  0  0  0  0  0  0  0  0  0  0  0
  126.1780  129.6000   55.4220 N   0  0  0  0  0  0  0  0  0  0  0  0
  123.8790  129.6920   64.4160 N   0  0  0  0  0  0  0  0  0  0  0  0
  1  2  1  0
  2  3  2  0
  3  4  1  0
  4  5  2  0
  5  6  1  0
  6  7  1  0
  7  8  1  0
  8  9  2  0
  8 10  1  0
 10 11  1  0
 11 12  1  0
 12 13  2  0
 13 14  1  0
 14 15  1  0
 14 16  2  0
 16 17  1  0
 17 18  1  0
 18 19  2  0
 19 20  1  0
 20 21  2  0
 21 22  1  0
 22 23  2  0
 17 24  2  0
 24 25  1  0
 25 26  3  0
  6 27  2  0
 27  2  1  0
 24 12  1  0
 23 18  1  0
M  END
>  <Binding energies>  (23) 
[-9.38]

>  <Ligand effiencies>  (23) 
[-0.335]

>  <Interactions>  (23) 
["V-A:TYR:539:CE1:4875, V-B:ASP:366:CG:8185, V-A:TYR:539:CD1:4873, V-A:ILE:538:CA:4860, V-A:TYR:539:CZ:4877, V-A:ILE:538:CG2:4863, H-B:LYS:534:NZ:9795, V-A:TYR:539:C:4867, V-A:TYR:539:CG:4872, V-A:TYR:539:CD2:4874, V-A:TYR:539:CE2:4876, V-A:ALA:541:CB:4892, V-B:ILE:369:CD1:8211, V-B:ARG:545:CZ:9898, V-A:ILE:538:CB:4862, V-B:GLY:454:CA:9021, V-B:ASP:366:CB:8184, V-B:ILE:369:CB:8208, V-B:ASP:366:CA:8182, V-B:GLU:543:CD:9880, V-B:GLY:453:CA:9016, H-B:GLY:454:N:9022, V-B:HIS:456:CE1:9042, V-B:ARG:545:CD:9895, V-B:GLY:453:C:9014, V-B:ARG:545:CG:9894, H-B:TYR:484:OH:9320, H-B:ASP:366:OD2:8187, V-B:TYR:484:CE1:9317, V-B:ILE:455:C:9024, H-B:ARG:545:NH1:9899, H-B:ARG:545:NH2:9900, H-B:ARG:545:NE:9896, H-B:ASP:366:OD1:8186"]

$$$$
3cj_Grossjean_2025
     RDKit          3D

 25 27  0  0  0  0  0  0  0  0999 V2000
  128.0680  132.9810   60.2300 C   0  0  0  0  0  0  0  0  0  0  0  0
  127.7470  132.1250   59.0210 C   0  0  0  0  0  0  0  0  0  0  0  0
  128.4220  132.2870   57.8130 C   0  0  0  0  0  0  0  0  0  0  0  0
  128.1080  131.4570   56.7280 C   0  0  0  0  0  0  0  0  0  0  0  0
  128.9000  131.6220   55.4750 C   0  0  0  0  0  0  0  0  0  0  0  0
  128.2720  131.9930   54.2800 C   0  0  0  0  0  0  0  0  0  0  0  0
  129.0110  132.1340   53.1080 C   0  0  0  0  0  0  0  0  0  0  0  0
  130.3820  131.8990   53.1260 C   0  0  0  0  0  0  0  0  0  0  0  0
  131.0200  131.5210   54.3050 C   0  0  0  0  0  0  0  0  0  0  0  0
  130.2790  131.3800   55.4760 C   0  0  0  0  0  0  0  0  0  0  0  0
  127.0810  130.4940   56.8900 C   0  0  0  0  0  0  0  0  0  0  0  0
  126.6870  129.6160   55.7830 C   0  0  0  0  0  0  0  0  0  0  0  0
  126.3780  128.9230   54.9090 N   0  0  0  0  0  0  0  0  0  0  0  0
  126.4530  130.3960   58.1520 C   0  0  0  0  0  0  0  0  0  0  0  0
  125.2450  129.1440   58.5300 S   0  0  0  0  0  0  0  0  0  0  0  0
  126.2110  127.7430   59.1770 C   0  0  0  0  0  0  0  0  0  0  0  0
  126.4180  126.6550   58.1180 C   0  0  0  0  0  0  0  0  0  0  0  0
  127.1290  126.8890   57.1380 O   0  0  0  0  0  0  0  0  0  0  0  0
  125.8120  125.4750   58.3740 N   0  0  0  0  0  0  0  0  0  0  0  0
  125.9490  124.3010   57.6520 C   0  0  0  0  0  0  0  0  0  0  0  0
  127.0580  123.7500   57.2080 N   0  0  0  0  0  0  0  0  0  0  0  0
  126.8170  122.6140   56.5850 C   0  0  0  0  0  0  0  0  0  0  0  0
  125.4840  122.2210   56.5120 C   0  0  0  0  0  0  0  0  0  0  0  0
  124.4990  123.4130   57.3070 S   0  0  0  0  0  0  0  0  0  0  0  0
  126.7870  131.1900   59.2000 N   0  0  0  0  0  0  0  0  0  0  0  0
  1  2  1  0
  2  3  2  0
  3  4  1  0
  4  5  1  0
  5  6  2  0
  6  7  1  0
  7  8  2  0
  8  9  1  0
  9 10  2  0
  4 11  2  0
 11 12  1  0
 12 13  3  0
 11 14  1  0
 14 15  1  0
 15 16  1  0
 16 17  1  0
 17 18  2  0
 17 19  1  0
 19 20  1  0
 20 21  2  0
 21 22  1  0
 22 23  2  0
 23 24  1  0
 14 25  2  0
 25  2  1  0
 10  5  1  0
 24 20  1  0
M  END
>  <Binding energies>  (24) 
[-8.17]

>  <Ligand effiencies>  (24) 
[-0.3142307692307692]

>  <Interactions>  (24) 
["V-B:PRO:540:CB:9857, V-B:TYR:539:C:9839, V-A:TYR:539:CE1:4875, V-A:MET:535:CG:4833, V-B:TYR:531:CE2:9765, V-B:ASP:366:CG:8185, V-A:TYR:539:CD1:4873, V-B:ILE:538:CA:9832, V-B:PRO:540:N:9856, V-B:PRO:540:CA:9855, V-A:TYR:531:CZ:4794, V-A:ILE:538:CA:4860, V-A:TYR:539:CZ:4877, V-A:ILE:538:CG2:4863, H-B:LYS:534:NZ:9795, V-B:TYR:531:CZ:9766, V-A:TYR:539:C:4867, V-A:TYR:539:CG:4872, V-B:LEU:363:CD1:8161, V-A:TYR:539:CD2:4874, V-B:PRO:540:CD:9859, V-A:TYR:539:CE2:4876, V-B:ILE:538:CG2:9835, V-A:MET:535:CB:4832, V-A:ILE:538:CB:4862, V-B:TYR:531:CE1:9764, H-B:TYR:531:OH:9767, V-B:ASP:366:CB:8184, V-A:TYR:531:CE2:4793, H-B:ASP:366:OD2:8187"]

$$$$
4ba_Grossjean_2025
     RDKit          3D

 28 30  0  0  0  0  0  0  0  0999 V2000
  128.6440  132.6720   53.1370 C   0  0  0  0  0  0  0  0  0  0  0  0
  129.6230  131.8470   53.9940 C   0  0  0  0  0  0  0  0  0  0  0  0
  130.0070  132.4840   55.3450 C   0  0  0  0  0  0  0  0  0  0  0  0
  130.8960  133.3390   55.3820 O   0  0  0  0  0  0  0  0  0  0  0  0
  129.2650  132.0300   56.5670 C   0  0  0  0  0  0  0  0  0  0  0  0
  129.9310  131.9820   57.7980 C   0  0  0  0  0  0  0  0  0  0  0  0
  129.2680  131.5630   58.9480 C   0  0  0  0  0  0  0  0  0  0  0  0
  127.9250  131.1860   58.8920 C   0  0  0  0  0  0  0  0  0  0  0  0
  127.3550  130.7710   60.1110 N   0  0  0  0  0  0  0  0  0  0  0  0
  127.0150  129.5290   60.5370 C   0  0  0  0  0  0  0  0  0  0  0  0
  127.1250  128.5100   59.8540 O   0  0  0  0  0  0  0  0  0  0  0  0
  126.4670  129.4620   61.8930 C   0  0  0  0  0  0  0  0  0  0  0  0
  124.7480  129.7300   62.1680 S   0  0  0  0  0  0  0  0  0  0  0  0
  124.9470  129.5410   63.8940 C   0  0  0  0  0  0  0  0  0  0  0  0
  123.9130  129.6450   64.7280 N   0  0  0  0  0  0  0  0  0  0  0  0
  124.1910  129.4800   66.0420 C   0  0  0  0  0  0  0  0  0  0  0  0
  123.0000  129.6120   66.9750 C   0  0  0  0  0  0  0  0  0  0  0  0
  125.4640  129.2120   66.5360 C   0  0  0  0  0  0  0  0  0  0  0  0
  126.5580  129.1010   65.6630 C   0  0  0  0  0  0  0  0  0  0  0  0
  127.9400  128.8030   66.2540 C   0  0  0  0  0  0  0  0  0  0  0  0
  127.8830  128.0920   67.3820 F   0  0  0  0  0  0  0  0  0  0  0  0
  128.6650  128.1060   65.3780 F   0  0  0  0  0  0  0  0  0  0  0  0
  128.5660  129.9460   66.5330 F   0  0  0  0  0  0  0  0  0  0  0  0
  126.2990  129.2760   64.2700 C   0  0  0  0  0  0  0  0  0  0  0  0
  127.1470  129.2460   63.1030 C   0  0  0  0  0  0  0  0  0  0  0  0
  128.4990  129.0230   63.1760 N   0  0  0  0  0  0  0  0  0  0  0  0
  127.2520  131.2250   57.6620 C   0  0  0  0  0  0  0  0  0  0  0  0
  127.9180  131.6440   56.5130 C   0  0  0  0  0  0  0  0  0  0  0  0
  1  2  1  0
  2  3  1  0
  3  4  2  0
  3  5  1  0
  5  6  2  0
  6  7  1  0
  7  8  2  0
  8  9  1  0
  9 10  1  0
 10 11  2  0
 10 12  1  0
 12 13  1  0
 13 14  1  0
 14 15  2  0
 15 16  1  0
 16 17  1  0
 16 18  2  0
 18 19  1  0
 19 20  1  0
 20 21  1  0
 20 22  1  0
 20 23  1  0
 19 24  2  0
 24 25  1  0
 25 26  1  0
  8 27  1  0
 27 28  2  0
 28  5  1  0
 25 12  2  0
 24 14  1  0
M  END
>  <Binding energies>  (25) 
[-7.28]

>  <Ligand effiencies>  (25) 
[-0.23483870967741935]

>  <Interactions>  (25) 
["V-A:PRO:540:N:4884, V-A:TYR:539:CE1:4875, H-A:TYR:539:N:4870, V-B:ASP:366:CG:8185, V-A:TYR:539:CD1:4873, V-A:ILE:538:CA:4860, V-A:TYR:539:CZ:4877, V-A:PRO:540:CA:4883, V-A:TYR:539:C:4867, V-A:TYR:539:CD2:4874, V-A:TYR:539:CE2:4876, V-A:GLU:543:CG:4907, V-B:ARG:545:CZ:9898, V-A:GLU:543:CD:4908, V-B:TYR:484:CZ:9319, V-B:TYR:484:CE2:9318, V-B:GLY:454:CA:9021, V-B:GLU:543:CD:9880, H-A:GLU:543:OE1:4909, V-B:GLY:453:CA:9016, H-B:GLY:454:N:9022, V-B:HIS:456:CE1:9042, V-B:ARG:545:CD:9895, V-B:GLY:453:C:9014, V-B:ARG:545:CG:9894, H-B:TYR:484:OH:9320, V-B:ARG:545:CB:9893, V-B:TYR:484:CE1:9317, V-B:GLY:454:C:9019, H-B:GLU:543:OE2:9882, V-B:ILE:455:C:9024, H-B:ARG:545:NH1:9899, H-B:ARG:545:NE:9896, H-A:GLU:543:OE2:4910, V-A:GLU:543:CB:4906, V-A:GLU:543:CA:4904"]

$$$$
4bb_Grossjean_2025
     RDKit          3D

 27 29  0  0  0  0  0  0  0  0999 V2000
  123.9880  129.4710   67.0220 C   0  0  0  0  0  0  0  0  0  0  0  0
  125.2110  128.7220   66.4890 C   0  0  0  0  0  0  0  0  0  0  0  0
  125.6370  127.7670   67.1420 O   0  0  0  0  0  0  0  0  0  0  0  0
  125.8330  129.1960   65.2100 C   0  0  0  0  0  0  0  0  0  0  0  0
  127.2290  129.2230   65.0930 C   0  0  0  0  0  0  0  0  0  0  0  0
  127.8310  129.6590   63.9170 C   0  0  0  0  0  0  0  0  0  0  0  0
  127.0520  130.0680   62.8320 C   0  0  0  0  0  0  0  0  0  0  0  0
  127.7640  130.4920   61.6930 N   0  0  0  0  0  0  0  0  0  0  0  0
  128.8280  131.3250   61.5910 C   0  0  0  0  0  0  0  0  0  0  0  0
  129.3520  131.8980   62.5460 O   0  0  0  0  0  0  0  0  0  0  0  0
  129.3240  131.5410   60.2290 C   0  0  0  0  0  0  0  0  0  0  0  0
  128.3320  132.3930   59.0480 S   0  0  0  0  0  0  0  0  0  0  0  0
  129.5450  132.1840   57.8070 C   0  0  0  0  0  0  0  0  0  0  0  0
  129.3680  132.6580   56.5750 N   0  0  0  0  0  0  0  0  0  0  0  0
  130.3770  132.4330   55.7020 C   0  0  0  0  0  0  0  0  0  0  0  0
  130.1560  132.9820   54.3040 C   0  0  0  0  0  0  0  0  0  0  0  0
  131.5460  131.7520   56.0280 C   0  0  0  0  0  0  0  0  0  0  0  0
  131.7380  131.2500   57.3250 C   0  0  0  0  0  0  0  0  0  0  0  0
  133.0420  130.5070   57.6370 C   0  0  0  0  0  0  0  0  0  0  0  0
  133.7390  131.0690   58.6270 F   0  0  0  0  0  0  0  0  0  0  0  0
  132.7700  129.2540   58.0000 F   0  0  0  0  0  0  0  0  0  0  0  0
  133.8230  130.4930   56.5570 F   0  0  0  0  0  0  0  0  0  0  0  0
  130.6930  131.4700   58.2720 C   0  0  0  0  0  0  0  0  0  0  0  0
  130.5340  131.1120   59.6590 C   0  0  0  0  0  0  0  0  0  0  0  0
  131.4890  130.4190   60.3580 N   0  0  0  0  0  0  0  0  0  0  0  0
  125.6530  130.0500   62.9450 C   0  0  0  0  0  0  0  0  0  0  0  0
  125.0530  129.6150   64.1240 C   0  0  0  0  0  0  0  0  0  0  0  0
  1  2  1  0
  2  3  2  0
  2  4  1  0
  4  5  2  0
  5  6  1  0
  6  7  2  0
  7  8  1  0
  8  9  1  0
  9 10  2  0
  9 11  1  0
 11 12  1  0
 12 13  1  0
 13 14  2  0
 14 15  1  0
 15 16  1  0
 15 17  2  0
 17 18  1  0
 18 19  1  0
 19 20  1  0
 19 21  1  0
 19 22  1  0
 18 23  2  0
 23 24  1  0
 24 25  1  0
  7 26  1  0
 26 27  2  0
 27  4  1  0
 24 11  2  0
 23 13  1  0
M  END
>  <Binding energies>  (26) 
[-7.14]

>  <Ligand effiencies>  (26) 
[-0.238]

>  <Interactions>  (26) 
["V-A:PRO:540:N:4884, H-A:TYR:539:N:4870, V-A:TYR:539:CD1:4873, H-A:ALA:541:N:4891, V-A:TYR:531:CZ:4794, V-A:ILE:538:CA:4860, V-A:PRO:540:CA:4883, V-A:ILE:538:CG2:4863, V-A:TYR:539:C:4867, V-A:ASP:366:CG:3213, V-A:GLU:543:CG:4907, V-B:ARG:545:CZ:9898, V-A:GLU:543:CD:4908, V-A:ILE:538:CB:4862, V-B:TYR:484:CZ:9319, V-A:PRO:540:CB:4885, V-A:ASP:366:CB:3212, V-A:LEU:363:CA:3185, V-A:LEU:363:CD1:3189, V-A:ASN:362:C:3172, V-A:TYR:531:CE2:4793, H-A:GLU:543:OE1:4909, V-B:HIS:456:CE1:9042, V-B:ARG:545:CD:9895, V-B:ARG:545:CG:9894, H-B:HIS:456:ND1:9039, V-A:ILE:538:C:4858, V-B:TYR:484:CE1:9317, H-B:ARG:545:NE:9896, V-A:LEU:363:CB:3187, H-A:ASP:366:OD1:3214"]

$$$$
4bd_Grossjean_2025
     RDKit          3D

 24 26  0  0  0  0  0  0  0  0999 V2000
  129.7680  132.9520   54.6300 C   0  0  0  0  0  0  0  0  0  0  0  0
  130.0830  132.4080   56.0110 C   0  0  0  0  0  0  0  0  0  0  0  0
  131.2990  131.7850   56.2780 C   0  0  0  0  0  0  0  0  0  0  0  0
  131.5760  131.2840   57.5600 C   0  0  0  0  0  0  0  0  0  0  0  0
  132.9270  130.6040   57.8050 C   0  0  0  0  0  0  0  0  0  0  0  0
  133.7750  130.7440   56.7830 F   0  0  0  0  0  0  0  0  0  0  0  0
  133.5090  131.1300   58.8810 F   0  0  0  0  0  0  0  0  0  0  0  0
  132.7460  129.2970   57.9950 F   0  0  0  0  0  0  0  0  0  0  0  0
  130.5670  131.4450   58.5550 C   0  0  0  0  0  0  0  0  0  0  0  0
  130.4920  131.0710   59.9470 C   0  0  0  0  0  0  0  0  0  0  0  0
  131.5140  130.4290   60.5950 N   0  0  0  0  0  0  0  0  0  0  0  0
  129.2820  131.4200   60.5710 C   0  0  0  0  0  0  0  0  0  0  0  0
  128.8660  131.1790   61.9560 C   0  0  0  0  0  0  0  0  0  0  0  0
  129.4200  131.7620   62.8880 O   0  0  0  0  0  0  0  0  0  0  0  0
  127.8460  130.2990   62.1110 N   0  0  0  0  0  0  0  0  0  0  0  0
  127.2460  129.8240   63.2920 C   0  0  0  0  0  0  0  0  0  0  0  0
  125.8510  129.7400   63.2790 C   0  0  0  0  0  0  0  0  0  0  0  0
  125.1650  129.2720   64.3970 C   0  0  0  0  0  0  0  0  0  0  0  0
  125.8750  128.8790   65.5280 C   0  0  0  0  0  0  0  0  0  0  0  0
  127.2660  128.9450   65.5480 C   0  0  0  0  0  0  0  0  0  0  0  0
  127.9560  129.4130   64.4330 C   0  0  0  0  0  0  0  0  0  0  0  0
  128.1970  132.2350   59.4470 S   0  0  0  0  0  0  0  0  0  0  0  0
  129.3630  132.1010   58.1510 C   0  0  0  0  0  0  0  0  0  0  0  0
  129.1060  132.5750   56.9330 N   0  0  0  0  0  0  0  0  0  0  0  0
  1  2  1  0
  2  3  2  0
  3  4  1  0
  4  5  1  0
  5  6  1  0
  5  7  1  0
  5  8  1  0
  4  9  2  0
  9 10  1  0
 10 11  1  0
 10 12  2  0
 12 13  1  0
 13 14  2  0
 13 15  1  0
 15 16  1  0
 16 17  2  0
 17 18  1  0
 18 19  2  0
 19 20  1  0
 20 21  2  0
 12 22  1  0
 22 23  1  0
 23 24  2  0
 24  2  1  0
 23  9  1  0
 21 16  1  0
M  END
>  <Binding energies>  (27) 
[-6.38]

>  <Ligand effiencies>  (27) 
[-0.23629629629629628]

>  <Interactions>  (27) 
["V-A:PRO:540:N:4884, V-A:TYR:531:CZ:4794, V-A:ILE:538:CA:4860, V-A:PRO:540:CA:4883, V-A:ILE:538:CG2:4863, V-A:TYR:539:C:4867, V-A:TYR:539:CD2:4874, V-A:ASP:366:CG:3213, V-A:GLU:543:CG:4907, V-B:ARG:545:CZ:9898, V-A:GLU:543:CD:4908, V-A:ILE:538:CB:4862, V-A:PRO:540:CB:4885, V-A:ASP:366:CB:3212, V-A:LEU:363:CA:3185, V-A:LEU:363:CD1:3189, V-A:TYR:531:CE2:4793, H-A:GLU:543:OE1:4909, V-A:ILE:538:C:4858, H-A:ASP:366:OD1:3214"]

$$$$
4be_Grossjean_2025
     RDKit          3D

 25 27  0  0  0  0  0  0  0  0999 V2000
  128.2600  128.8660   66.6250 C   0  0  0  0  0  0  0  0  0  0  0  0
  127.4130  129.1100   65.3900 C   0  0  0  0  0  0  0  0  0  0  0  0
  126.0320  128.8960   65.3970 C   0  0  0  0  0  0  0  0  0  0  0  0
  125.3170  129.1380   64.2240 C   0  0  0  0  0  0  0  0  0  0  0  0
  125.9920  129.5830   63.0850 C   0  0  0  0  0  0  0  0  0  0  0  0
  127.3760  129.7830   63.1480 C   0  0  0  0  0  0  0  0  0  0  0  0
  127.9960  130.2250   61.9660 N   0  0  0  0  0  0  0  0  0  0  0  0
  128.9250  131.2000   61.8040 C   0  0  0  0  0  0  0  0  0  0  0  0
  129.3860  131.8690   62.7310 O   0  0  0  0  0  0  0  0  0  0  0  0
  129.3520  131.4400   60.4230 C   0  0  0  0  0  0  0  0  0  0  0  0
  128.2900  132.2930   59.3040 S   0  0  0  0  0  0  0  0  0  0  0  0
  129.4470  132.1250   58.0050 C   0  0  0  0  0  0  0  0  0  0  0  0
  129.2040  132.6140   56.7910 N   0  0  0  0  0  0  0  0  0  0  0  0
  130.1760  132.4230   55.8680 C   0  0  0  0  0  0  0  0  0  0  0  0
  129.8790  132.9860   54.4900 C   0  0  0  0  0  0  0  0  0  0  0  0
  131.3730  131.7640   56.1310 C   0  0  0  0  0  0  0  0  0  0  0  0
  131.6360  131.2470   57.4090 C   0  0  0  0  0  0  0  0  0  0  0  0
  132.9690  130.5320   57.6510 C   0  0  0  0  0  0  0  0  0  0  0  0
  133.7760  130.5570   56.5870 F   0  0  0  0  0  0  0  0  0  0  0  0
  133.6190  131.1170   58.6570 F   0  0  0  0  0  0  0  0  0  0  0  0
  132.7470  129.2530   57.9550 F   0  0  0  0  0  0  0  0  0  0  0  0
  130.6290  131.4270   58.4040 C   0  0  0  0  0  0  0  0  0  0  0  0
  130.5390  131.0390   59.7910 C   0  0  0  0  0  0  0  0  0  0  0  0
  131.5330  130.3450   60.4320 N   0  0  0  0  0  0  0  0  0  0  0  0
  128.0820  129.5430   64.2910 N   0  0  0  0  0  0  0  0  0  0  0  0
  1  2  1  0
  2  3  2  0
  3  4  1  0
  4  5  2  0
  5  6  1  0
  6  7  1  0
  7  8  1  0
  8  9  2  0
  8 10  1  0
 10 11  1  0
 11 12  1  0
 12 13  2  0
 13 14  1  0
 14 15  1  0
 14 16  2  0
 16 17  1  0
 17 18  1  0
 18 19  1  0
 18 20  1  0
 18 21  1  0
 17 22  2  0
 22 23  1  0
 23 24  1  0
  6 25  2  0
 25  2  1  0
 23 10  2  0
 22 12  1  0
M  END
>  <Binding energies>  (28) 
[-6.62]

>  <Ligand effiencies>  (28) 
[-0.23642857142857143]

>  <Interactions>  (28) 
["V-A:PRO:540:N:4884, H-A:TYR:539:N:4870, V-A:TYR:531:CZ:4794, V-A:ILE:538:CA:4860, V-A:PRO:540:CA:4883, V-A:ILE:538:CG2:4863, V-A:TYR:539:C:4867, V-A:TYR:539:CD2:4874, V-A:ASP:366:CG:3213, V-A:GLU:543:CG:4907, V-B:ARG:545:CZ:9898, V-A:GLU:543:CD:4908, V-A:ILE:538:CB:4862, V-A:PRO:540:CB:4885, V-A:ASP:366:CB:3212, V-A:LEU:363:CA:3185, V-A:LEU:363:CD1:3189, V-A:TYR:531:CE2:4793, H-A:GLU:543:OE1:4909, V-B:HIS:456:CE1:9042, H-B:TYR:484:OH:9320, V-A:ILE:538:C:4858, V-A:LEU:363:CB:3187, V-A:GLU:543:CB:4906, H-A:ASP:366:OD1:3214"]

$$$$
4bg_Grossjean_2025
     RDKit          3D

 25 27  0  0  0  0  0  0  0  0999 V2000
  126.3230  128.0490   60.9390 C   0  0  0  0  0  0  0  0  0  0  0  0
  126.8890  126.6760   60.6260 C   0  0  0  0  0  0  0  0  0  0  0  0
  126.8260  126.1510   59.3380 C   0  0  0  0  0  0  0  0  0  0  0  0
  127.3490  124.8770   59.0630 C   0  0  0  0  0  0  0  0  0  0  0  0
  127.2570  124.3410   57.6310 C   0  0  0  0  0  0  0  0  0  0  0  0
  128.4320  123.9220   57.1540 F   0  0  0  0  0  0  0  0  0  0  0  0
  126.4180  123.3050   57.5900 F   0  0  0  0  0  0  0  0  0  0  0  0
  126.8140  125.2990   56.8170 F   0  0  0  0  0  0  0  0  0  0  0  0
  127.9360  124.1650   60.1510 C   0  0  0  0  0  0  0  0  0  0  0  0
  128.5530  122.8650   60.2550 C   0  0  0  0  0  0  0  0  0  0  0  0
  128.6700  122.0110   59.1870 N   0  0  0  0  0  0  0  0  0  0  0  0
  129.0290  122.5590   61.5390 C   0  0  0  0  0  0  0  0  0  0  0  0
  129.6740  121.3310   62.0030 C   0  0  0  0  0  0  0  0  0  0  0  0
  130.5530  121.3530   62.8660 O   0  0  0  0  0  0  0  0  0  0  0  0
  129.2190  120.1830   61.4590 N   0  0  0  0  0  0  0  0  0  0  0  0
  129.7230  118.8430   61.7600 C   0  0  0  0  0  0  0  0  0  0  0  0
  130.3170  118.1300   60.5520 C   0  0  0  0  0  0  0  0  0  0  0  0
  131.4210  118.6750   59.8890 C   0  0  0  0  0  0  0  0  0  0  0  0
  131.9860  118.0010   58.8100 C   0  0  0  0  0  0  0  0  0  0  0  0
  131.4560  116.7780   58.4050 C   0  0  0  0  0  0  0  0  0  0  0  0
  130.3670  116.2200   59.0720 C   0  0  0  0  0  0  0  0  0  0  0  0
  129.8010  116.8950   60.1510 C   0  0  0  0  0  0  0  0  0  0  0  0
  128.6920  123.8610   62.6750 S   0  0  0  0  0  0  0  0  0  0  0  0
  127.9430  124.8200   61.4210 C   0  0  0  0  0  0  0  0  0  0  0  0
  127.4430  126.0290   61.6770 N   0  0  0  0  0  0  0  0  0  0  0  0
  1  2  1  0
  2  3  2  0
  3  4  1  0
  4  5  1  0
  5  6  1  0
  5  7  1  0
  5  8  1  0
  4  9  2  0
  9 10  1  0
 10 11  1  0
 10 12  2  0
 12 13  1  0
 13 14  2  0
 13 15  1  0
 15 16  1  0
 16 17  1  0
 17 18  2  0
 18 19  1  0
 19 20  2  0
 20 21  1  0
 21 22  2  0
 12 23  1  0
 23 24  1  0
 24 25  2  0
 25  2  1  0
 24  9  1  0
 22 17  1  0
M  END
>  <Binding energies>  (29) 
[-6.58]

>  <Ligand effiencies>  (29) 
[-0.23500000000000001]

>  <Interactions>  (29) 
["V-B:TYR:539:C:9839, V-B:ASP:366:CG:8185, V-B:PRO:540:N:9856, V-B:PRO:540:CA:9855, V-B:TYR:539:CD2:9846, V-B:MET:535:CE:9807, V-B:TYR:539:CE2:9848, V-B:TYR:539:CE1:9847, V-B:TYR:531:CZ:9766, V-B:TYR:539:CZ:9849, V-A:LEU:475:CD2:4259, V-B:TYR:539:CG:9844, V-A:TYR:484:CE1:4345, V-B:ALA:541:CB:9864, V-B:PRO:540:C:9853, V-B:GLU:543:CD:9880, V-B:GLU:543:CG:9879, V-A:SER:385:CB:3409, V-B:TYR:539:CB:9843, H-A:TYR:484:OH:4348, V-A:HIS:383:CE1:3394, V-A:PRO:482:CG:4327, V-A:LEU:475:CG:4257, V-A:LEU:373:CD1:3280, V-A:LEU:373:CD2:3281, V-A:PRO:482:CB:4326, V-A:LEU:475:CD1:4258, H-B:TYR:539:O:9840, V-B:VAL:344:CG1:7973"]

$$$$
4ca_Grossjean_2025
     RDKit          3D

 34 37  0  0  0  0  0  0  0  0999 V2000
  137.2540  139.0740   67.2610 C   0  0  0  0  0  0  0  0  0  0  0  0
  136.4350  140.0910   68.0630 C   0  0  0  0  0  0  0  0  0  0  0  0
  136.7360  139.9550   69.4450 O   0  0  0  0  0  0  0  0  0  0  0  0
  136.9920  138.7370   69.9920 C   0  0  0  0  0  0  0  0  0  0  0  0
  138.1230  138.2440   70.0530 O   0  0  0  0  0  0  0  0  0  0  0  0
  135.7640  138.0530   70.5160 C   0  0  0  0  0  0  0  0  0  0  0  0
  135.9050  136.8980   71.2960 C   0  0  0  0  0  0  0  0  0  0  0  0
  134.7840  136.2430   71.8000 C   0  0  0  0  0  0  0  0  0  0  0  0
  133.5030  136.7240   71.5300 C   0  0  0  0  0  0  0  0  0  0  0  0
  132.4420  135.9900   72.0970 N   0  0  0  0  0  0  0  0  0  0  0  0
  131.3150  135.5010   71.5240 C   0  0  0  0  0  0  0  0  0  0  0  0
  131.0550  135.5910   70.3240 O   0  0  0  0  0  0  0  0  0  0  0  0
  130.3970  134.8150   72.4360 C   0  0  0  0  0  0  0  0  0  0  0  0
  129.4550  133.4360   71.8740 S   0  0  0  0  0  0  0  0  0  0  0  0
  128.7410  133.2230   73.4550 C   0  0  0  0  0  0  0  0  0  0  0  0
  127.8660  132.2500   73.6950 N   0  0  0  0  0  0  0  0  0  0  0  0
  127.3750  132.1530   74.9570 C   0  0  0  0  0  0  0  0  0  0  0  0
  126.3970  131.0390   75.1990 C   0  0  0  0  0  0  0  0  0  0  0  0
  126.7330  129.7090   74.8980 C   0  0  0  0  0  0  0  0  0  0  0  0
  125.8290  128.6730   75.1150 C   0  0  0  0  0  0  0  0  0  0  0  0
  124.5700  128.9530   75.6360 C   0  0  0  0  0  0  0  0  0  0  0  0
  124.2100  130.2610   75.9410 C   0  0  0  0  0  0  0  0  0  0  0  0
  125.1170  131.2950   75.7230 C   0  0  0  0  0  0  0  0  0  0  0  0
  127.7490  133.0470   75.9660 C   0  0  0  0  0  0  0  0  0  0  0  0
  128.6680  134.0790   75.7220 C   0  0  0  0  0  0  0  0  0  0  0  0
  129.0360  135.0210   76.8740 C   0  0  0  0  0  0  0  0  0  0  0  0
  128.9160  136.3110   76.5540 F   0  0  0  0  0  0  0  0  0  0  0  0
  128.2370  134.7940   77.9160 F   0  0  0  0  0  0  0  0  0  0  0  0
  130.3020  134.8170   77.2370 F   0  0  0  0  0  0  0  0  0  0  0  0
  129.2020  134.1790   74.4060 C   0  0  0  0  0  0  0  0  0  0  0  0
  130.1510  135.0770   73.7940 C   0  0  0  0  0  0  0  0  0  0  0  0
  130.7560  136.0970   74.4840 N   0  0  0  0  0  0  0  0  0  0  0  0
  133.3520  137.8830   70.7550 C   0  0  0  0  0  0  0  0  0  0  0  0
  134.4740  138.5380   70.2530 C   0  0  0  0  0  0  0  0  0  0  0  0
  1  2  1  0
  2  3  1  0
  3  4  1  0
  4  5  2  0
  4  6  1  0
  6  7  2  0
  7  8  1  0
  8  9  2  0
  9 10  1  0
 10 11  1  0
 11 12  2  0
 11 13  1  0
 13 14  1  0
 14 15  1  0
 15 16  2  0
 16 17  1  0
 17 18  1  0
 18 19  2  0
 19 20  1  0
 20 21  2  0
 21 22  1  0
 22 23  2  0
 17 24  2  0
 24 25  1  0
 25 26  1  0
 26 27  1  0
 26 28  1  0
 26 29  1  0
 25 30  2  0
 30 31  1  0
 31 32  1  0
  9 33  1  0
 33 34  2  0
 34  6  1  0
 31 13  2  0
 30 15  1  0
 23 18  1  0
M  END
>  <Binding energies>  (30) 
[-7.87]

>  <Ligand effiencies>  (30) 
[-0.2127027027027027]

>  <Interactions>  (30) 
["V-B:VAL:457:C:9045, V-A:VAL:542:CB:4898, V-B:HIS:456:CB:9037, V-B:HIS:456:C:9033, H-A:LYS:547:NZ:4951, V-B:VAL:457:CA:9047, V-B:TYR:484:CB:9313, V-B:VAL:458:CG2:9059, V-B:HIS:456:CD2:9040, V-B:HIS:456:CG:9038, V-B:SER:483:CB:9305, V-A:VAL:542:CG1:4899, V-B:ASP:473:CG:9212, V-A:LYS:547:CE:4950, V-A:ARG:356:CD:3119, V-A:GLY:544:CA:4914, V-B:TYR:484:CD2:9316, H-B:TYR:484:N:9312, V-B:TYR:484:CG:9314, V-A:GLU:543:C:4902, H-A:ARG:356:NH1:3123, V-A:VAL:542:CG2:4900, V-A:CYS:358:CA:3142, V-B:VAL:481:CG1:9291, H-B:TYR:484:O:9310"]

$$$$
4cb_Grossjean_2025
     RDKit          3D

 33 36  0  0  0  0  0  0  0  0999 V2000
  136.8950  139.7240   67.7420 C   0  0  0  0  0  0  0  0  0  0  0  0
  136.9000  139.7600   69.1620 O   0  0  0  0  0  0  0  0  0  0  0  0
  137.1570  138.6420   69.8880 C   0  0  0  0  0  0  0  0  0  0  0  0
  138.2950  138.2100   70.0940 O   0  0  0  0  0  0  0  0  0  0  0  0
  135.9160  137.9800   70.4190 C   0  0  0  0  0  0  0  0  0  0  0  0
  136.0360  136.8000   71.1640 C   0  0  0  0  0  0  0  0  0  0  0  0
  134.9060  136.1680   71.6760 C   0  0  0  0  0  0  0  0  0  0  0  0
  133.6360  136.6980   71.4480 C   0  0  0  0  0  0  0  0  0  0  0  0
  132.5650  135.9860   72.0240 N   0  0  0  0  0  0  0  0  0  0  0  0
  131.4360  135.4980   71.4560 C   0  0  0  0  0  0  0  0  0  0  0  0
  131.1800  135.5700   70.2530 O   0  0  0  0  0  0  0  0  0  0  0  0
  130.5070  134.8380   72.3770 C   0  0  0  0  0  0  0  0  0  0  0  0
  129.4970  133.5070   71.8160 S   0  0  0  0  0  0  0  0  0  0  0  0
  128.8060  133.3000   73.4080 C   0  0  0  0  0  0  0  0  0  0  0  0
  127.8940  132.3620   73.6530 N   0  0  0  0  0  0  0  0  0  0  0  0
  127.4220  132.2710   74.9240 C   0  0  0  0  0  0  0  0  0  0  0  0
  126.3990  131.2000   75.1700 C   0  0  0  0  0  0  0  0  0  0  0  0
  126.6840  129.8550   74.8850 C   0  0  0  0  0  0  0  0  0  0  0  0
  125.7380  128.8580   75.1070 C   0  0  0  0  0  0  0  0  0  0  0  0
  124.4900  129.1920   75.6210 C   0  0  0  0  0  0  0  0  0  0  0  0
  124.1800  130.5180   75.9110 C   0  0  0  0  0  0  0  0  0  0  0  0
  125.1280  131.5110   75.6840 C   0  0  0  0  0  0  0  0  0  0  0  0
  127.8530  133.1350   75.9360 C   0  0  0  0  0  0  0  0  0  0  0  0
  128.8120  134.1290   75.6870 C   0  0  0  0  0  0  0  0  0  0  0  0
  129.2410  135.0420   76.8430 C   0  0  0  0  0  0  0  0  0  0  0  0
  128.5620  134.8130   77.9690 F   0  0  0  0  0  0  0  0  0  0  0  0
  130.5330  134.8520   77.1100 F   0  0  0  0  0  0  0  0  0  0  0  0
  129.0430  136.3170   76.5090 F   0  0  0  0  0  0  0  0  0  0  0  0
  129.3250  134.2240   74.3610 C   0  0  0  0  0  0  0  0  0  0  0  0
  130.3010  135.0880   73.7440 C   0  0  0  0  0  0  0  0  0  0  0  0
  130.9660  136.0690   74.4360 N   0  0  0  0  0  0  0  0  0  0  0  0
  133.5070  137.8810   70.7060 C   0  0  0  0  0  0  0  0  0  0  0  0
  134.6380  138.5120   70.1960 C   0  0  0  0  0  0  0  0  0  0  0  0
  1  2  1  0
  2  3  1  0
  3  4  2  0
  3  5  1  0
  5  6  2  0
  6  7  1  0
  7  8  2  0
  8  9  1  0
  9 10  1  0
 10 11  2  0
 10 12  1  0
 12 13  1  0
 13 14  1  0
 14 15  2  0
 15 16  1  0
 16 17  1  0
 17 18  2  0
 18 19  1  0
 19 20  2  0
 20 21  1  0
 21 22  2  0
 16 23  2  0
 23 24  1  0
 24 25  1  0
 25 26  1  0
 25 27  1  0
 25 28  1  0
 24 29  2  0
 29 30  1  0
 30 31  1  0
  8 32  1  0
 32 33  2  0
 33  5  1  0
 30 12  2  0
 29 14  1  0
 22 17  1  0
M  END
>  <Binding energies>  (31) 
[-7.55]

>  <Ligand effiencies>  (31) 
[-0.20972222222222223]

>  <Interactions>  (31) 
["V-B:VAL:457:C:9045, V-A:VAL:542:CB:4898, V-B:HIS:456:CB:9037, V-B:HIS:456:C:9033, H-A:LYS:547:NZ:4951, V-B:VAL:457:CA:9047, V-B:TYR:484:CB:9313, V-B:VAL:458:CG2:9059, V-B:HIS:456:CD2:9040, V-B:HIS:456:CG:9038, V-B:SER:483:CB:9305, V-A:VAL:542:CG1:4899, V-B:ASP:473:CG:9212, V-A:LYS:547:CE:4950, V-A:ARG:356:CD:3119, V-A:GLY:544:CA:4914, V-B:TYR:484:CD2:9316, H-B:TYR:484:N:9312, V-B:TYR:484:CG:9314, V-A:GLU:543:C:4902, H-A:ARG:356:NH1:3123, V-A:VAL:542:CG2:4900, V-B:VAL:481:CG1:9291, H-B:TYR:484:O:9310, H-A:ARG:356:NE:3120"]

$$$$
4cc_Grossjean_2025
     RDKit          3D

 31 34  0  0  0  0  0  0  0  0999 V2000
  123.9940  132.3150   62.3840 C   0  0  0  0  0  0  0  0  0  0  0  0
  123.7640  131.1400   63.1550 O   0  0  0  0  0  0  0  0  0  0  0  0
  124.6740  130.1030   63.0910 C   0  0  0  0  0  0  0  0  0  0  0  0
  124.9600  129.6040   61.8210 C   0  0  0  0  0  0  0  0  0  0  0  0
  125.8660  128.5600   61.6570 C   0  0  0  0  0  0  0  0  0  0  0  0
  126.4920  127.9910   62.7680 C   0  0  0  0  0  0  0  0  0  0  0  0
  127.4040  126.9520   62.5030 N   0  0  0  0  0  0  0  0  0  0  0  0
  128.6850  127.0260   62.0670 C   0  0  0  0  0  0  0  0  0  0  0  0
  129.2830  128.0840   61.8640 O   0  0  0  0  0  0  0  0  0  0  0  0
  129.3490  125.7390   61.8420 C   0  0  0  0  0  0  0  0  0  0  0  0
  128.3930  124.2820   61.5700 S   0  0  0  0  0  0  0  0  0  0  0  0
  129.8380  123.3130   61.4020 C   0  0  0  0  0  0  0  0  0  0  0  0
  129.7720  122.0050   61.1610 N   0  0  0  0  0  0  0  0  0  0  0  0
  130.9480  121.3370   61.0360 C   0  0  0  0  0  0  0  0  0  0  0  0
  130.8430  119.8640   60.7680 C   0  0  0  0  0  0  0  0  0  0  0  0
  131.7330  119.2290   59.8860 C   0  0  0  0  0  0  0  0  0  0  0  0
  131.6400  117.8630   59.6310 C   0  0  0  0  0  0  0  0  0  0  0  0
  130.6520  117.1100   60.2560 C   0  0  0  0  0  0  0  0  0  0  0  0
  129.7560  117.7140   61.1320 C   0  0  0  0  0  0  0  0  0  0  0  0
  129.8510  119.0800   61.3830 C   0  0  0  0  0  0  0  0  0  0  0  0
  132.1820  121.9810   61.1710 C   0  0  0  0  0  0  0  0  0  0  0  0
  132.2620  123.3590   61.4260 C   0  0  0  0  0  0  0  0  0  0  0  0
  133.6480  124.0010   61.5560 C   0  0  0  0  0  0  0  0  0  0  0  0
  133.7560  124.8090   62.6130 F   0  0  0  0  0  0  0  0  0  0  0  0
  134.5750  123.0520   61.6840 F   0  0  0  0  0  0  0  0  0  0  0  0
  133.9120  124.7280   60.4700 F   0  0  0  0  0  0  0  0  0  0  0  0
  131.0350  124.0720   61.5500 C   0  0  0  0  0  0  0  0  0  0  0  0
  130.7240  125.4570   61.8050 C   0  0  0  0  0  0  0  0  0  0  0  0
  131.6910  126.4120   61.9930 N   0  0  0  0  0  0  0  0  0  0  0  0
  126.2190  128.4960   64.0480 C   0  0  0  0  0  0  0  0  0  0  0  0
  125.3130  129.5410   64.2070 C   0  0  0  0  0  0  0  0  0  0  0  0
  1  2  1  0
  2  3  1  0
  3  4  2  0
  4  5  1  0
  5  6  2  0
  6  7  1  0
  7  8  1  0
  8  9  2  0
  8 10  1  0
 10 11  1  0
 11 12  1  0
 12 13  2  0
 13 14  1  0
 14 15  1  0
 15 16  2  0
 16 17  1  0
 17 18  2  0
 18 19  1  0
 19 20  2  0
 14 21  2  0
 21 22  1  0
 22 23  1  0
 23 24  1  0
 23 25  1  0
 23 26  1  0
 22 27  2  0
 27 28  1  0
 28 29  1  0
  6 30  1  0
 30 31  2  0
 31  3  1  0
 28 10  2  0
 27 12  1  0
 20 15  1  0
M  END
>  <Binding energies>  (32) 
[-7.44]

>  <Ligand effiencies>  (32) 
[-0.21882352941176472]

>  <Interactions>  (32) 
["V-B:TYR:539:C:9839, V-B:ASP:366:CG:8185, V-B:LEU:475:CD2:9231, V-B:TYR:539:CD2:9846, V-B:TYR:539:CE2:9848, V-A:ASP:366:CG:3213, V-A:GLY:454:CA:4049, V-A:ILE:369:CD1:3239, V-A:ARG:545:CZ:4926, V-A:LEU:475:CD2:4259, V-B:TYR:539:CG:9844, V-B:ILE:369:CD1:8211, V-B:ARG:545:CZ:9898, V-A:GLU:543:CD:4908, V-B:GLY:454:CA:9021, V-A:ASP:366:CB:3212, V-A:ASP:366:CA:3210, V-B:ALA:541:CB:9864, V-B:GLU:543:CD:9880, H-A:GLU:543:OE1:4909, H-B:GLY:454:N:9022, V-A:SER:385:CB:3409, V-B:TYR:539:CB:9843, V-A:PRO:482:CG:4327, V-A:PRO:482:CB:4326, V-A:LEU:475:CD1:4258, H-B:GLU:543:OE1:9881, H-B:GLU:543:OE2:9882, V-A:ILE:369:CG1:3238, H-A:GLU:543:OE2:4910, V-A:GLY:453:C:4042, H-A:ASP:366:OD2:3215, H-A:ASP:366:OD1:3214, V-A:GLY:453:CA:4044"]

$$$$
4ce_Grossjean_2025
     RDKit          3D

 30 33  0  0  0  0  0  0  0  0999 V2000
  122.6870  129.6260   66.8200 C   0  0  0  0  0  0  0  0  0  0  0  0
  124.0590  129.3320   66.2410 C   0  0  0  0  0  0  0  0  0  0  0  0
  125.0440  128.6840   66.9900 C   0  0  0  0  0  0  0  0  0  0  0  0
  126.2800  128.4390   66.3910 C   0  0  0  0  0  0  0  0  0  0  0  0
  126.4980  128.8410   65.0720 C   0  0  0  0  0  0  0  0  0  0  0  0
  125.4690  129.4900   64.3800 C   0  0  0  0  0  0  0  0  0  0  0  0
  125.7420  129.8490   63.0470 N   0  0  0  0  0  0  0  0  0  0  0  0
  125.0160  130.6370   62.2150 C   0  0  0  0  0  0  0  0  0  0  0  0
  123.9650  131.1920   62.5410 O   0  0  0  0  0  0  0  0  0  0  0  0
  125.5640  130.8020   60.8670 C   0  0  0  0  0  0  0  0  0  0  0  0
  127.2470  131.2730   60.6460 S   0  0  0  0  0  0  0  0  0  0  0  0
  127.0870  131.1990   58.9080 C   0  0  0  0  0  0  0  0  0  0  0  0
  128.1120  131.4690   58.1040 N   0  0  0  0  0  0  0  0  0  0  0  0
  127.8950  131.3690   56.7660 C   0  0  0  0  0  0  0  0  0  0  0  0
  129.0720  131.6750   55.8880 C   0  0  0  0  0  0  0  0  0  0  0  0
  130.2970  132.0760   56.4450 C   0  0  0  0  0  0  0  0  0  0  0  0
  131.3920  132.3680   55.6360 C   0  0  0  0  0  0  0  0  0  0  0  0
  131.2770  132.2610   54.2540 C   0  0  0  0  0  0  0  0  0  0  0  0
  130.0750  131.8660   53.6770 C   0  0  0  0  0  0  0  0  0  0  0  0
  128.9820  131.5780   54.4890 C   0  0  0  0  0  0  0  0  0  0  0  0
  126.6460  131.0200   56.2430 C   0  0  0  0  0  0  0  0  0  0  0  0
  125.5560  130.7390   57.0820 C   0  0  0  0  0  0  0  0  0  0  0  0
  124.2160  130.3610   56.4420 C   0  0  0  0  0  0  0  0  0  0  0  0
  123.7940  129.1440   56.7910 F   0  0  0  0  0  0  0  0  0  0  0  0
  123.2770  131.2310   56.8160 F   0  0  0  0  0  0  0  0  0  0  0  0
  124.3290  130.3790   55.1150 F   0  0  0  0  0  0  0  0  0  0  0  0
  125.7760  130.8250   58.4870 C   0  0  0  0  0  0  0  0  0  0  0  0
  124.9250  130.6060   59.6310 C   0  0  0  0  0  0  0  0  0  0  0  0
  123.6100  130.2370   59.5170 N   0  0  0  0  0  0  0  0  0  0  0  0
  124.2560  129.7290   64.9580 N   0  0  0  0  0  0  0  0  0  0  0  0
  1  2  1  0
  2  3  2  0
  3  4  1  0
  4  5  2  0
  5  6  1  0
  6  7  1  0
  7  8  1  0
  8  9  2  0
  8 10  1  0
 10 11  1  0
 11 12  1  0
 12 13  2  0
 13 14  1  0
 14 15  1  0
 15 16  2  0
 16 17  1  0
 17 18  2  0
 18 19  1  0
 19 20  2  0
 14 21  2  0
 21 22  1  0
 22 23  1  0
 23 24  1  0
 23 25  1  0
 23 26  1  0
 22 27  2  0
 27 28  1  0
 28 29  1  0
  6 30  2  0
 30  2  1  0
 28 10  2  0
 27 12  1  0
 20 15  1  0
M  END
>  <Binding energies>  (33) 
[-7.83]

>  <Ligand effiencies>  (33) 
[-0.23727272727272727]

>  <Interactions>  (33) 
["V-A:PRO:540:N:4884, V-A:TYR:539:CE1:4875, V-A:MET:535:CG:4833, V-B:ASP:366:CG:8185, V-A:ILE:538:CA:4860, V-A:TYR:539:CZ:4877, V-A:ILE:538:CG2:4863, V-B:TYR:531:CZ:9766, V-A:TYR:539:C:4867, V-A:TYR:539:CE2:4876, V-B:ARG:545:CZ:9898, V-A:ILE:538:CB:4862, V-B:TYR:531:CE1:9764, V-B:GLY:454:CA:9021, V-B:ASP:366:CB:8184, V-B:ILE:369:CG2:8209, V-B:ILE:369:CB:8208, V-B:ASP:366:C:8180, V-A:PRO:540:CD:4887, V-B:ASP:366:CA:8182, V-A:TYR:531:CE2:4793, V-B:GLU:543:CD:9880, V-B:TYR:531:CD1:9762, V-B:ASN:370:CB:8217, V-B:GLY:453:CA:9016, H-B:GLY:454:N:9022, V-B:HIS:456:CE1:9042, V-B:ARG:545:CD:9895, V-B:GLY:453:C:9014, V-B:ARG:545:CG:9894, H-B:TYR:484:OH:9320, V-B:GLY:454:C:9019, V-B:ILE:455:C:9024, H-B:ARG:545:NE:9896, H-B:ASP:366:O:8181, H-B:ASP:366:OD1:8186, V-B:ASN:370:CG:8218, V-B:ASN:370:CA:8215"]

$$$$
4cf_Grossjean_2025
     RDKit          3D

 29 32  0  0  0  0  0  0  0  0999 V2000
  129.9170  131.2110   62.0470 N   0  0  0  0  0  0  0  0  0  0  0  0
  129.0470  131.4310   61.0100 C   0  0  0  0  0  0  0  0  0  0  0  0
  127.6610  131.5720   61.1860 C   0  0  0  0  0  0  0  0  0  0  0  0
  126.8830  131.4840   62.4250 C   0  0  0  0  0  0  0  0  0  0  0  0
  126.5050  132.5050   63.0020 O   0  0  0  0  0  0  0  0  0  0  0  0
  126.6180  130.2270   62.8570 N   0  0  0  0  0  0  0  0  0  0  0  0
  125.9490  129.7990   64.0190 C   0  0  0  0  0  0  0  0  0  0  0  0
  126.5530  129.1660   65.1220 C   0  0  0  0  0  0  0  0  0  0  0  0
  125.7670  128.7770   66.2100 C   0  0  0  0  0  0  0  0  0  0  0  0
  124.3960  129.0290   66.1680 C   0  0  0  0  0  0  0  0  0  0  0  0
  123.7890  129.6310   65.1150 N   0  0  0  0  0  0  0  0  0  0  0  0
  124.5650  130.0020   64.0640 C   0  0  0  0  0  0  0  0  0  0  0  0
  126.8490  131.8490   59.6470 S   0  0  0  0  0  0  0  0  0  0  0  0
  128.3660  131.7650   58.7810 C   0  0  0  0  0  0  0  0  0  0  0  0
  128.4190  131.9040   57.4580 N   0  0  0  0  0  0  0  0  0  0  0  0
  129.6420  131.8080   56.8730 C   0  0  0  0  0  0  0  0  0  0  0  0
  129.6710  131.9610   55.3800 C   0  0  0  0  0  0  0  0  0  0  0  0
  128.6090  132.5790   54.7020 C   0  0  0  0  0  0  0  0  0  0  0  0
  128.6280  132.7260   53.3170 C   0  0  0  0  0  0  0  0  0  0  0  0
  129.7160  132.2560   52.5890 C   0  0  0  0  0  0  0  0  0  0  0  0
  130.7830  131.6410   53.2360 C   0  0  0  0  0  0  0  0  0  0  0  0
  130.7600  131.4970   54.6200 C   0  0  0  0  0  0  0  0  0  0  0  0
  130.8050  131.5970   57.6200 C   0  0  0  0  0  0  0  0  0  0  0  0
  130.7590  131.4540   59.0150 C   0  0  0  0  0  0  0  0  0  0  0  0
  132.0720  131.2200   59.7720 C   0  0  0  0  0  0  0  0  0  0  0  0
  133.1300  131.1090   58.9650 F   0  0  0  0  0  0  0  0  0  0  0  0
  132.3050  132.2410   60.5960 F   0  0  0  0  0  0  0  0  0  0  0  0
  131.9910  130.0930   60.4790 F   0  0  0  0  0  0  0  0  0  0  0  0
  129.4810  131.5350   59.6390 C   0  0  0  0  0  0  0  0  0  0  0  0
  1  2  1  0
  2  3  2  0
  3  4  1  0
  4  5  2  0
  4  6  1  0
  6  7  1  0
  7  8  2  0
  8  9  1  0
  9 10  2  0
 10 11  1  0
 11 12  2  0
  3 13  1  0
 13 14  1  0
 14 15  2  0
 15 16  1  0
 16 17  1  0
 17 18  2  0
 18 19  1  0
 19 20  2  0
 20 21  1  0
 21 22  2  0
 16 23  2  0
 23 24  1  0
 24 25  1  0
 25 26  1  0
 25 27  1  0
 25 28  1  0
 24 29  2  0
 29  2  1  0
 12  7  1  0
 29 14  1  0
 22 17  1  0
M  END
>  <Binding energies>  (34) 
[-7.6]

>  <Ligand effiencies>  (34) 
[-0.2375]

>  <Interactions>  (34) 
["V-A:PRO:540:N:4884, V-A:TYR:539:CE1:4875, V-A:MET:535:CG:4833, V-A:TYR:531:CZ:4794, V-A:ILE:538:CA:4860, V-A:TYR:539:CZ:4877, V-A:PRO:540:CA:4883, V-A:ILE:538:CG2:4863, V-A:VAL:537:C:4850, V-A:TYR:539:CG:4872, V-A:TYR:539:CD2:4874, V-A:TYR:539:CE2:4876, V-A:ASP:366:CG:3213, V-A:ALA:541:CB:4892, V-A:GLU:543:CG:4907, V-B:ARG:545:CZ:9898, V-A:MET:535:CB:4832, V-A:GLU:543:CD:4908, V-A:ILE:538:CB:4862, V-B:TYR:484:CZ:9319, V-A:PRO:540:CB:4885, V-A:LEU:363:CA:3185, V-A:ALA:541:CA:4890, V-A:TYR:531:CE2:4793, V-A:PRO:540:C:4881, H-A:GLU:543:OE1:4909, H-B:GLY:454:N:9022, V-B:HIS:456:CE1:9042, V-B:ARG:545:CD:9895, V-B:ARG:545:CG:9894, H-B:TYR:484:OH:9320, H-B:ARG:545:NH1:9899, H-B:ARG:545:NE:9896"]

$$$$
4ci_Grossjean_2025
     RDKit          3D

 28 31  0  0  0  0  0  0  0  0999 V2000
  129.8440  131.1980   62.2180 N   0  0  0  0  0  0  0  0  0  0  0  0
  128.9860  131.3790   61.1650 C   0  0  0  0  0  0  0  0  0  0  0  0
  127.5920  131.4670   61.3140 C   0  0  0  0  0  0  0  0  0  0  0  0
  126.8000  131.4030   62.5450 C   0  0  0  0  0  0  0  0  0  0  0  0
  126.6600  132.4020   63.2560 O   0  0  0  0  0  0  0  0  0  0  0  0
  126.2620  130.1910   62.8310 N   0  0  0  0  0  0  0  0  0  0  0  0
  125.4780  129.8510   63.9260 C   0  0  0  0  0  0  0  0  0  0  0  0
  125.9460  129.0800   64.9890 C   0  0  0  0  0  0  0  0  0  0  0  0
  124.8790  128.9720   65.8500 C   0  0  0  0  0  0  0  0  0  0  0  0
  123.8220  129.6430   65.3320 O   0  0  0  0  0  0  0  0  0  0  0  0
  124.2150  130.1950   64.1120 N   0  0  0  0  0  0  0  0  0  0  0  0
  126.8000  131.7090   59.7590 S   0  0  0  0  0  0  0  0  0  0  0  0
  128.3340  131.6810   58.9210 C   0  0  0  0  0  0  0  0  0  0  0  0
  128.4080  131.8250   57.6000 N   0  0  0  0  0  0  0  0  0  0  0  0
  129.6440  131.7930   57.0390 C   0  0  0  0  0  0  0  0  0  0  0  0
  129.6950  131.9540   55.5460 C   0  0  0  0  0  0  0  0  0  0  0  0
  130.8210  131.5410   54.8150 C   0  0  0  0  0  0  0  0  0  0  0  0
  130.8740  131.6870   53.4310 C   0  0  0  0  0  0  0  0  0  0  0  0
  129.7970  132.2520   52.7560 C   0  0  0  0  0  0  0  0  0  0  0  0
  128.6720  132.6730   53.4550 C   0  0  0  0  0  0  0  0  0  0  0  0
  128.6240  132.5270   54.8390 C   0  0  0  0  0  0  0  0  0  0  0  0
  130.7980  131.5980   57.8060 C   0  0  0  0  0  0  0  0  0  0  0  0
  130.7320  131.4450   59.2000 C   0  0  0  0  0  0  0  0  0  0  0  0
  132.0360  131.2350   59.9780 C   0  0  0  0  0  0  0  0  0  0  0  0
  132.3120  132.2350   60.8170 F   0  0  0  0  0  0  0  0  0  0  0  0
  131.9520  130.1190   60.7020 F   0  0  0  0  0  0  0  0  0  0  0  0
  133.0570  131.1320   59.1270 F   0  0  0  0  0  0  0  0  0  0  0  0
  129.4410  131.4900   59.8000 C   0  0  0  0  0  0  0  0  0  0  0  0
  1  2  1  0
  2  3  2  0
  3  4  1  0
  4  5  2  0
  4  6  1  0
  6  7  1  0
  7  8  1  0
  8  9  2  0
  9 10  1  0
 10 11  1  0
  3 12  1  0
 12 13  1  0
 13 14  2  0
 14 15  1  0
 15 16  1  0
 16 17  2  0
 17 18  1  0
 18 19  2  0
 19 20  1  0
 20 21  2  0
 15 22  2  0
 22 23  1  0
 23 24  1  0
 24 25  1  0
 24 26  1  0
 24 27  1  0
 23 28  2  0
 28  2  1  0
 11  7  2  0
 28 13  1  0
 21 16  1  0
M  END
>  <Binding energies>  (35) 
[-7.93]

>  <Ligand effiencies>  (35) 
[-0.2558064516129032]

>  <Interactions>  (35) 
["V-A:PRO:540:N:4884, V-A:MET:535:CG:4833, V-A:TYR:531:CZ:4794, V-A:ILE:538:CA:4860, V-A:TYR:539:CZ:4877, V-A:PRO:540:CA:4883, V-A:ILE:538:CG2:4863, V-A:TYR:539:CG:4872, V-A:TYR:539:CD2:4874, V-A:TYR:539:CE2:4876, V-A:ASP:366:CG:3213, V-A:ALA:541:CB:4892, V-A:GLU:543:CG:4907, V-B:ARG:545:CZ:9898, V-A:MET:535:CB:4832, V-A:GLU:543:CD:4908, V-A:ILE:538:CB:4862, V-A:PRO:540:CB:4885, V-A:ALA:541:CA:4890, V-A:TYR:531:CE2:4793, V-A:PRO:540:C:4881, H-A:GLU:543:OE1:4909, H-B:GLY:454:N:9022, V-B:HIS:456:CE1:9042, V-B:ARG:545:CD:9895, V-B:ARG:545:CG:9894, H-B:TYR:484:OH:9320, H-B:ARG:545:NH1:9899, H-B:ARG:545:NE:9896"]

$$$$
8a_Ghoteimi_2023
     RDKit          3D

 40 44  0  0  0  0  0  0  0  0999 V2000
  116.9910  135.6240   80.0500 C   0  0  0  0  0  0  0  0  0  0  0  0
  117.3540  136.0740   78.6320 C   0  0  0  0  0  0  0  0  0  0  0  0
  117.7600  137.4360   78.6580 O   0  0  0  0  0  0  0  0  0  0  0  0
  118.5960  137.9010   79.6240 C   0  0  0  0  0  0  0  0  0  0  0  0
  118.2580  138.7280   80.4760 O   0  0  0  0  0  0  0  0  0  0  0  0
  119.9750  137.3120   79.5470 C   0  0  0  0  0  0  0  0  0  0  0  0
  120.9330  137.9200   78.7260 C   0  0  0  0  0  0  0  0  0  0  0  0
  122.2200  137.3970   78.6320 C   0  0  0  0  0  0  0  0  0  0  0  0
  122.5770  136.2580   79.3560 C   0  0  0  0  0  0  0  0  0  0  0  0
  123.9040  135.8170   79.1790 N   0  0  0  0  0  0  0  0  0  0  0  0
  124.9920  135.9710   79.9740 C   0  0  0  0  0  0  0  0  0  0  0  0
  124.9850  136.5660   81.0510 O   0  0  0  0  0  0  0  0  0  0  0  0
  126.2250  135.3620   79.4680 C   0  0  0  0  0  0  0  0  0  0  0  0
  127.7800  136.1520   79.7250 S   0  0  0  0  0  0  0  0  0  0  0  0
  128.6220  134.8800   78.8710 C   0  0  0  0  0  0  0  0  0  0  0  0
  129.9410  134.9130   78.6880 N   0  0  0  0  0  0  0  0  0  0  0  0
  130.4950  133.8760   78.0050 C   0  0  0  0  0  0  0  0  0  0  0  0
  131.9740  133.9440   77.7940 C   0  0  0  0  0  0  0  0  0  0  0  0
  132.5180  134.6270   76.6960 C   0  0  0  0  0  0  0  0  0  0  0  0
  133.8950  134.6770   76.4990 C   0  0  0  0  0  0  0  0  0  0  0  0
  134.7620  134.0500   77.3910 C   0  0  0  0  0  0  0  0  0  0  0  0
  136.1120  134.1500   77.1140 O   0  0  0  0  0  0  0  0  0  0  0  0
  136.5240  134.6010   75.8290 C   0  0  0  0  0  0  0  0  0  0  0  0
  134.2290  133.3700   78.4950 C   0  0  0  0  0  0  0  0  0  0  0  0
  132.8500  133.3190   78.6890 C   0  0  0  0  0  0  0  0  0  0  0  0
  129.7340  132.8120   77.5170 C   0  0  0  0  0  0  0  0  0  0  0  0
  128.3510  132.7650   77.7210 C   0  0  0  0  0  0  0  0  0  0  0  0
  127.5930  131.5940   77.2090 C   0  0  0  0  0  0  0  0  0  0  0  0
  127.7020  130.3550   77.8440 C   0  0  0  0  0  0  0  0  0  0  0  0
  126.9780  129.2600   77.3800 C   0  0  0  0  0  0  0  0  0  0  0  0
  126.1300  129.3850   76.2790 C   0  0  0  0  0  0  0  0  0  0  0  0
  125.4520  128.2470   75.8890 O   0  0  0  0  0  0  0  0  0  0  0  0
  124.5350  128.3210   74.8040 C   0  0  0  0  0  0  0  0  0  0  0  0
  126.0140  130.6320   75.6440 C   0  0  0  0  0  0  0  0  0  0  0  0
  126.7380  131.7260   76.1120 C   0  0  0  0  0  0  0  0  0  0  0  0
  127.7460  133.8510   78.4140 C   0  0  0  0  0  0  0  0  0  0  0  0
  126.3790  134.1620   78.7540 C   0  0  0  0  0  0  0  0  0  0  0  0
  125.3280  133.3580   78.3900 N   0  0  0  0  0  0  0  0  0  0  0  0
  121.6250  135.6450   80.1850 C   0  0  0  0  0  0  0  0  0  0  0  0
  120.3380  136.1690   80.2770 C   0  0  0  0  0  0  0  0  0  0  0  0
  1  2  1  0
  2  3  1  0
  3  4  1  0
  4  5  2  0
  4  6  1  0
  6  7  2  0
  7  8  1  0
  8  9  2  0
  9 10  1  0
 10 11  1  0
 11 12  2  0
 11 13  1  0
 13 14  1  0
 14 15  1  0
 15 16  2  0
 16 17  1  0
 17 18  1  0
 18 19  2  0
 19 20  1  0
 20 21  2  0
 21 22  1  0
 22 23  1  0
 21 24  1  0
 24 25  2  0
 17 26  2  0
 26 27  1  0
 27 28  1  0
 28 29  2  0
 29 30  1  0
 30 31  2  0
 31 32  1  0
 32 33  1  0
 31 34  1  0
 34 35  2  0
 27 36  2  0
 36 37  1  0
 37 38  1  0
  9 39  1  0
 39 40  2  0
 40  6  1  0
 37 13  2  0
 36 15  1  0
 25 18  1  0
 35 28  1  0
M  END
>  <Binding energies>  (36) 
[-7.6]

>  <Ligand effiencies>  (36) 
[-0.17674418604651163]

>  <Interactions>  (36) 
["V-B:LYS:471:CB:9189, V-B:VAL:457:C:9045, V-B:HIS:456:CB:9037, V-B:HIS:456:C:9033, V-B:LYS:471:CA:9187, V-B:VAL:457:CA:9047, V-B:LYS:471:C:9185, V-B:VAL:458:CG2:9059, V-B:LEU:472:C:9198, V-B:ASP:473:CG:9212, V-A:LYS:547:CD:4949, V-A:LYS:547:CG:4948, V-A:LYS:547:CA:4945, V-A:PHE:548:CD2:4963, H-B:ASP:473:OD1:9213, H-B:ASP:473:OD2:9214, V-B:LYS:471:CD:9191, V-A:LYS:547:CB:4947, V-B:PRO:486:CB:9336, H-A:PHE:548:N:4959, V-B:LEU:472:CB:9202, V-B:HIS:456:CA:9035, H-B:LEU:472:O:9199, V-B:LYS:471:CG:9190, V-A:LYS:547:C:4943, V-B:PRO:486:CA:9334, V-B:PRO:486:C:9332, V-B:LEU:487:CB:9343, V-B:LEU:487:C:9339, V-B:VAL:469:CG1:9174, V-B:LEU:472:CG:9203, V-B:LEU:472:CD2:9205, V-B:LYS:432:CG:8804, V-B:LEU:487:CA:9341, V-B:LYS:432:CE:8806, V-B:VAL:469:CB:9173"]

$$$$
8c_Ghoteimi_2023
     RDKit          3D

 34 38  0  0  0  0  0  0  0  0999 V2000
  127.1870  137.9860   59.8050 C   0  0  0  0  0  0  0  0  0  0  0  0
  126.0060  137.3390   60.2650 O   0  0  0  0  0  0  0  0  0  0  0  0
  126.0180  135.9710   60.4590 C   0  0  0  0  0  0  0  0  0  0  0  0
  127.2130  135.4160   60.9130 C   0  0  0  0  0  0  0  0  0  0  0  0
  127.3170  134.0460   61.1320 C   0  0  0  0  0  0  0  0  0  0  0  0
  126.2280  133.1930   60.9030 C   0  0  0  0  0  0  0  0  0  0  0  0
  126.3350  131.7190   61.1340 C   0  0  0  0  0  0  0  0  0  0  0  0
  126.5250  131.1850   62.4120 C   0  0  0  0  0  0  0  0  0  0  0  0
  126.6190  129.8020   62.6000 C   0  0  0  0  0  0  0  0  0  0  0  0
  126.8290  129.2690   63.9660 C   0  0  0  0  0  0  0  0  0  0  0  0
  125.7600  128.7180   64.6780 C   0  0  0  0  0  0  0  0  0  0  0  0
  125.9610  128.2090   65.9570 C   0  0  0  0  0  0  0  0  0  0  0  0
  127.2260  128.2440   66.5450 C   0  0  0  0  0  0  0  0  0  0  0  0
  127.3320  127.7130   67.8160 O   0  0  0  0  0  0  0  0  0  0  0  0
  128.5140  127.0100   68.1790 C   0  0  0  0  0  0  0  0  0  0  0  0
  128.2980  128.8010   65.8290 C   0  0  0  0  0  0  0  0  0  0  0  0
  128.0960  129.3100   64.5490 C   0  0  0  0  0  0  0  0  0  0  0  0
  126.5110  128.9630   61.4590 C   0  0  0  0  0  0  0  0  0  0  0  0
  126.5580  127.5350   61.2900 C   0  0  0  0  0  0  0  0  0  0  0  0
  126.7360  126.6750   62.3450 N   0  0  0  0  0  0  0  0  0  0  0  0
  126.4060  127.1140   59.9600 C   0  0  0  0  0  0  0  0  0  0  0  0
  126.3980  125.7480   59.4300 C   0  0  0  0  0  0  0  0  0  0  0  0
  127.0580  124.8590   59.9710 O   0  0  0  0  0  0  0  0  0  0  0  0
  125.6310  125.5560   58.3290 N   0  0  0  0  0  0  0  0  0  0  0  0
  125.4480  124.3680   57.6360 C   0  0  0  0  0  0  0  0  0  0  0  0
  124.3850  123.5920   57.6290 N   0  0  0  0  0  0  0  0  0  0  0  0
  124.5590  122.5400   56.8540 C   0  0  0  0  0  0  0  0  0  0  0  0
  125.7890  122.4450   56.2110 C   0  0  0  0  0  0  0  0  0  0  0  0
  126.7650  123.8140   56.6530 S   0  0  0  0  0  0  0  0  0  0  0  0
  126.1950  128.4900   58.8760 S   0  0  0  0  0  0  0  0  0  0  0  0
  126.3140  129.6170   60.2080 C   0  0  0  0  0  0  0  0  0  0  0  0
  126.2260  130.9340   60.0280 N   0  0  0  0  0  0  0  0  0  0  0  0
  125.0290  133.7590   60.4490 C   0  0  0  0  0  0  0  0  0  0  0  0
  124.9210  135.1290   60.2280 C   0  0  0  0  0  0  0  0  0  0  0  0
  1  2  1  0
  2  3  1  0
  3  4  2  0
  4  5  1  0
  5  6  2  0
  6  7  1  0
  7  8  2  0
  8  9  1  0
  9 10  1  0
 10 11  2  0
 11 12  1  0
 12 13  2  0
 13 14  1  0
 14 15  1  0
 13 16  1  0
 16 17  2  0
  9 18  2  0
 18 19  1  0
 19 20  1  0
 19 21  2  0
 21 22  1  0
 22 23  2  0
 22 24  1  0
 24 25  1  0
 25 26  2  0
 26 27  1  0
 27 28  2  0
 28 29  1  0
 21 30  1  0
 30 31  1  0
 31 32  2  0
  6 33  1  0
 33 34  2  0
 34  3  1  0
 32  7  1  0
 17 10  1  0
 31 18  1  0
 29 25  1  0
M  END
>  <Binding energies>  (37) 
[-7.86]

>  <Ligand effiencies>  (37) 
[-0.21243243243243243]

>  <Interactions>  (37) 
["V-B:PRO:540:CB:9857, V-A:TYR:539:CE1:4875, V-B:ASP:366:CG:8185, V-A:TYR:539:CD1:4873, V-B:LEU:475:CD2:9231, V-B:ILE:538:CA:9832, V-B:PRO:540:N:9856, V-B:PRO:540:CA:9855, V-B:MET:535:CE:9807, V-B:TYR:531:CZ:9766, V-B:PRO:540:CG:9858, V-B:LEU:363:CD1:8161, V-B:PRO:540:CD:9859, V-B:ILE:538:CD1:9837, V-B:ILE:538:CG2:9835, V-A:ALA:541:CB:4892, V-A:GLU:543:CG:4907, V-B:ARG:545:CZ:9898, V-A:GLU:543:CD:4908, H-B:TYR:531:OH:9767, V-B:ASP:366:CB:8184, V-B:ILE:369:CG2:8209, V-B:GLU:543:CD:9880, V-B:PRO:482:CG:9299, V-B:HIS:456:CE1:9042, V-B:ARG:545:CD:9895, V-B:ARG:545:CG:9894, H-B:ASP:366:OD2:8187, H-B:GLU:543:OE1:9881, H-B:GLU:543:OE2:9882, H-B:SER:385:OG:8382, V-A:TYR:539:CB:4871, V-B:HIS:383:CD2:8364, V-A:VAL:344:CG1:3001, V-A:GLU:543:CB:4906, V-A:HIS:456:CE1:4070, H-B:HIS:383:NE2:8366, V-B:GLU:543:CB:9878"]

$$$$
8d_Ghoteimi_2023
     RDKit          3D

 30 33  0  0  0  0  0  0  0  0999 V2000
  126.9430  122.8730   55.0120 C   0  0  0  0  0  0  0  0  0  0  0  0
  126.2420  122.0590   55.9410 O   0  0  0  0  0  0  0  0  0  0  0  0
  125.5590  122.6130   56.9760 C   0  0  0  0  0  0  0  0  0  0  0  0
  124.3350  122.5410   57.1130 O   0  0  0  0  0  0  0  0  0  0  0  0
  126.4380  123.3200   57.9330 C   0  0  0  0  0  0  0  0  0  0  0  0
  127.8760  122.5160   58.5670 S   0  0  0  0  0  0  0  0  0  0  0  0
  128.2850  123.9190   59.5270 C   0  0  0  0  0  0  0  0  0  0  0  0
  129.3660  123.9480   60.3060 N   0  0  0  0  0  0  0  0  0  0  0  0
  129.5920  125.0900   61.0090 C   0  0  0  0  0  0  0  0  0  0  0  0
  130.8090  125.0930   61.8790 C   0  0  0  0  0  0  0  0  0  0  0  0
  130.7470  125.5280   63.2110 C   0  0  0  0  0  0  0  0  0  0  0  0
  131.8820  125.5310   64.0160 C   0  0  0  0  0  0  0  0  0  0  0  0
  133.1090  125.0990   63.5130 C   0  0  0  0  0  0  0  0  0  0  0  0
  134.1810  125.1350   64.3820 O   0  0  0  0  0  0  0  0  0  0  0  0
  133.9400  125.0700   65.7840 C   0  0  0  0  0  0  0  0  0  0  0  0
  133.1820  124.6600   62.1830 C   0  0  0  0  0  0  0  0  0  0  0  0
  132.0440  124.6590   61.3810 C   0  0  0  0  0  0  0  0  0  0  0  0
  128.7360  126.1930   60.9370 C   0  0  0  0  0  0  0  0  0  0  0  0
  127.6040  126.1640   60.1170 C   0  0  0  0  0  0  0  0  0  0  0  0
  126.7210  127.3520   60.0550 C   0  0  0  0  0  0  0  0  0  0  0  0
  126.5250  128.0180   58.8440 C   0  0  0  0  0  0  0  0  0  0  0  0
  125.7020  129.1400   58.7880 C   0  0  0  0  0  0  0  0  0  0  0  0
  125.0620  129.6080   59.9360 C   0  0  0  0  0  0  0  0  0  0  0  0
  124.2660  130.7270   59.7850 O   0  0  0  0  0  0  0  0  0  0  0  0
  123.7480  131.0430   58.4980 C   0  0  0  0  0  0  0  0  0  0  0  0
  125.2570  128.9330   61.1520 C   0  0  0  0  0  0  0  0  0  0  0  0
  126.0810  127.8120   61.2070 C   0  0  0  0  0  0  0  0  0  0  0  0
  127.3500  124.9820   59.3720 C   0  0  0  0  0  0  0  0  0  0  0  0
  126.3060  124.6120   58.4560 C   0  0  0  0  0  0  0  0  0  0  0  0
  125.2720  125.4540   58.1330 N   0  0  0  0  0  0  0  0  0  0  0  0
  1  2  1  0
  2  3  1  0
  3  4  2  0
  3  5  1  0
  5  6  1  0
  6  7  1  0
  7  8  2  0
  8  9  1  0
  9 10  1  0
 10 11  2  0
 11 12  1  0
 12 13  2  0
 13 14  1  0
 14 15  1  0
 13 16  1  0
 16 17  2  0
  9 18  2  0
 18 19  1  0
 19 20  1  0
 20 21  2  0
 21 22  1  0
 22 23  2  0
 23 24  1  0
 24 25  1  0
 23 26  1  0
 26 27  2  0
 19 28  2  0
 28 29  1  0
 29 30  1  0
 29  5  2  0
 28  7  1  0
 17 10  1  0
 27 20  1  0
M  END
>  <Binding energies>  (38) 
[-7.68]

>  <Ligand effiencies>  (38) 
[-0.24]

>  <Interactions>  (38) 
["V-B:PRO:540:CB:9857, V-B:TYR:539:C:9839, V-A:TYR:539:CE1:4875, V-B:ASP:366:CG:8185, V-B:TYR:539:CD1:9845, V-B:ILE:538:CA:9832, V-B:PRO:540:N:9856, V-B:PRO:540:CA:9855, V-B:TYR:539:CD2:9846, V-B:MET:535:CE:9807, V-B:TYR:539:CE2:9848, V-B:TYR:539:CE1:9847, V-B:TYR:531:CZ:9766, V-B:PRO:540:CD:9859, V-B:ILE:538:CD1:9837, V-A:GLY:454:CA:4049, V-A:ARG:545:CZ:4926, V-B:TYR:539:CG:9844, V-A:GLU:543:CD:4908, H-B:TYR:531:OH:9767, V-B:ASP:366:CB:8184, V-B:ILE:369:CG2:8209, V-B:ILE:369:CB:8208, V-B:ASP:366:C:8180, V-B:ASP:366:CA:8182, V-A:TYR:484:CZ:4347, H-B:TYR:539:N:9842, H-B:ASP:366:OD2:8187, H-A:TYR:484:OH:4348, H-A:ARG:545:NE:4924, H-A:ARG:545:NH1:4927, H-A:ARG:545:NH2:4928, V-A:TYR:484:CE2:4346, V-A:ARG:545:CD:4923, H-A:GLY:454:N:4050, V-A:GLY:453:C:4042, V-A:ARG:545:CG:4922"]

$$$$
9a_Ghoteimi_2023
     RDKit          3D

 48 54  0  0  0  0  0  0  0  0999 V2000
  117.7370  136.7440   78.2950 C   0  0  0  0  0  0  0  0  0  0  0  0
  117.3760  137.8290   79.3160 C   0  0  0  0  0  0  0  0  0  0  0  0
  118.4710  138.0290   80.2010 O   0  0  0  0  0  0  0  0  0  0  0  0
  119.0920  136.9790   80.7970 C   0  0  0  0  0  0  0  0  0  0  0  0
  118.5680  136.2890   81.6770 O   0  0  0  0  0  0  0  0  0  0  0  0
  120.4840  136.7440   80.2850 C   0  0  0  0  0  0  0  0  0  0  0  0
  121.3170  135.8390   80.9570 C   0  0  0  0  0  0  0  0  0  0  0  0
  122.6130  135.6010   80.5080 C   0  0  0  0  0  0  0  0  0  0  0  0
  123.1030  136.2590   79.3800 C   0  0  0  0  0  0  0  0  0  0  0  0
  124.4270  135.9400   79.0190 N   0  0  0  0  0  0  0  0  0  0  0  0
  125.5980  136.5270   79.3690 C   0  0  0  0  0  0  0  0  0  0  0  0
  125.6880  137.5020   80.1150 O   0  0  0  0  0  0  0  0  0  0  0  0
  126.8010  135.9130   78.7970 C   0  0  0  0  0  0  0  0  0  0  0  0
  127.9920  136.9040   77.9550 S   0  0  0  0  0  0  0  0  0  0  0  0
  129.0000  135.5100   77.6440 C   0  0  0  0  0  0  0  0  0  0  0  0
  130.1620  135.6170   77.0020 N   0  0  0  0  0  0  0  0  0  0  0  0
  130.8750  134.4740   76.8220 C   0  0  0  0  0  0  0  0  0  0  0  0
  132.1810  134.6190   76.1100 C   0  0  0  0  0  0  0  0  0  0  0  0
  133.3890  134.4990   76.8060 C   0  0  0  0  0  0  0  0  0  0  0  0
  134.6090  134.6320   76.1500 C   0  0  0  0  0  0  0  0  0  0  0  0
  134.6680  134.8780   74.7690 C   0  0  0  0  0  0  0  0  0  0  0  0
  135.8860  135.0330   74.1000 N   0  0  0  0  0  0  0  0  0  0  0  0
  137.1590  134.5820   74.6990 C   0  0  0  0  0  0  0  0  0  0  0  0
  138.4120  135.1510   74.0000 C   0  0  0  0  0  0  0  0  0  0  0  0
  138.3710  134.8590   72.6140 O   0  0  0  0  0  0  0  0  0  0  0  0
  137.2290  135.4320   71.9950 C   0  0  0  0  0  0  0  0  0  0  0  0
  135.9440  134.8650   72.6330 C   0  0  0  0  0  0  0  0  0  0  0  0
  133.4550  135.0120   74.0780 C   0  0  0  0  0  0  0  0  0  0  0  0
  132.2350  134.8810   74.7360 C   0  0  0  0  0  0  0  0  0  0  0  0
  130.4130  133.2300   77.2580 C   0  0  0  0  0  0  0  0  0  0  0  0
  129.1830  133.1100   77.9140 C   0  0  0  0  0  0  0  0  0  0  0  0
  128.7210  131.7590   78.3240 C   0  0  0  0  0  0  0  0  0  0  0  0
  127.5110  131.2470   77.8510 C   0  0  0  0  0  0  0  0  0  0  0  0
  127.0870  129.9750   78.2250 C   0  0  0  0  0  0  0  0  0  0  0  0
  127.8720  129.1730   79.0690 C   0  0  0  0  0  0  0  0  0  0  0  0
  127.4620  127.8990   79.4670 N   0  0  0  0  0  0  0  0  0  0  0  0
  127.5470  126.7820   78.5050 C   0  0  0  0  0  0  0  0  0  0  0  0
  127.4330  125.3930   79.1690 C   0  0  0  0  0  0  0  0  0  0  0  0
  126.2380  125.3150   79.9300 O   0  0  0  0  0  0  0  0  0  0  0  0
  126.2050  126.2940   80.9570 C   0  0  0  0  0  0  0  0  0  0  0  0
  126.2860  127.7070   80.3400 C   0  0  0  0  0  0  0  0  0  0  0  0
  129.0860  129.6970   79.5360 C   0  0  0  0  0  0  0  0  0  0  0  0
  129.5080  130.9700   79.1660 C   0  0  0  0  0  0  0  0  0  0  0  0
  128.4360  134.3010   78.1460 C   0  0  0  0  0  0  0  0  0  0  0  0
  127.1890  134.5650   78.8220 C   0  0  0  0  0  0  0  0  0  0  0  0
  126.4640  133.5800   79.4430 N   0  0  0  0  0  0  0  0  0  0  0  0
  122.2750  137.1650   78.6980 C   0  0  0  0  0  0  0  0  0  0  0  0
  120.9790  137.4030   79.1490 C   0  0  0  0  0  0  0  0  0  0  0  0
  1  2  1  0
  2  3  1  0
  3  4  1  0
  4  5  2  0
  4  6  1  0
  6  7  2  0
  7  8  1  0
  8  9  2  0
  9 10  1  0
 10 11  1  0
 11 12  2  0
 11 13  1  0
 13 14  1  0
 14 15  1  0
 15 16  2  0
 16 17  1  0
 17 18  1  0
 18 19  2  0
 19 20  1  0
 20 21  2  0
 21 22  1  0
 22 23  1  0
 23 24  1  0
 24 25  1  0
 25 26  1  0
 26 27  1  0
 21 28  1  0
 28 29  2  0
 17 30  2  0
 30 31  1  0
 31 32  1  0
 32 33  2  0
 33 34  1  0
 34 35  2  0
 35 36  1  0
 36 37  1  0
 37 38  1  0
 38 39  1  0
 39 40  1  0
 40 41  1  0
 35 42  1  0
 42 43  2  0
 31 44  2  0
 44 45  1  0
 45 46  1  0
  9 47  1  0
 47 48  2  0
 48  6  1  0
 45 13  2  0
 44 15  1  0
 29 18  1  0
 43 32  1  0
 27 22  1  0
 41 36  1  0
M  END
>  <Binding energies>  (39) 
[-7.45]

>  <Ligand effiencies>  (39) 
[-0.14607843137254903]

>  <Interactions>  (39) 
["V-B:LYS:471:CB:9189, V-B:LYS:471:CA:9187, V-B:VAL:458:CG2:9059, V-B:LEU:472:C:9198, V-B:ASP:473:CG:9212, V-A:LYS:547:CE:4950, V-A:LYS:547:CD:4949, V-B:LYS:547:CE:9922, V-A:LYS:547:CG:4948, V-A:LYS:547:CA:4945, V-A:GLU:357:CB:3134, V-B:LYS:471:CE:9192, V-A:ARG:356:CB:3117, V-A:PHE:548:CD2:4963, V-A:PHE:548:CE2:4965, H-B:ASP:473:OD1:9213, H-B:ASP:473:OD2:9214, V-B:LYS:471:CD:9191, V-B:LYS:547:CD:9921, V-A:LYS:547:CB:4947, V-B:PRO:486:CG:9337, V-A:GLU:357:CA:3132, V-B:PRO:486:CB:9336, V-B:VAL:458:CG1:9058, V-B:VAL:458:CB:9057, H-A:GLU:357:N:3133, V-B:LEU:472:CB:9202, V-B:LYS:471:CG:9190, V-B:PRO:486:CA:9334, V-B:PRO:486:C:9332, V-B:PRO:486:CD:9338, V-B:LEU:487:CD2:9346, V-B:LEU:487:CB:9343, V-B:LEU:472:CG:9203, V-B:LEU:472:CD2:9205, V-B:LYS:432:CG:8804"]

$$$$
9b_Ghoteimi_2023
     RDKit          3D

 42 48  0  0  0  0  0  0  0  0999 V2000
  134.9170  137.4740   73.3250 N   0  0  0  0  0  0  0  0  0  0  0  0
  133.7560  137.0770   72.7120 C   0  0  0  0  0  0  0  0  0  0  0  0
  133.3740  137.4990   71.4290 C   0  0  0  0  0  0  0  0  0  0  0  0
  134.0940  138.3800   70.5060 C   0  0  0  0  0  0  0  0  0  0  0  0
  133.5790  139.4260   70.1050 O   0  0  0  0  0  0  0  0  0  0  0  0
  135.3290  137.9560   70.1390 N   0  0  0  0  0  0  0  0  0  0  0  0
  136.2180  138.5830   69.2750 C   0  0  0  0  0  0  0  0  0  0  0  0
  135.8090  139.2860   68.1420 C   0  0  0  0  0  0  0  0  0  0  0  0
  136.9720  139.7480   67.5700 C   0  0  0  0  0  0  0  0  0  0  0  0
  138.0260  139.3430   68.3190 O   0  0  0  0  0  0  0  0  0  0  0  0
  137.5350  138.6050   69.3960 N   0  0  0  0  0  0  0  0  0  0  0  0
  131.8130  136.8190   70.9720 S   0  0  0  0  0  0  0  0  0  0  0  0
  131.6730  135.9910   72.5050 C   0  0  0  0  0  0  0  0  0  0  0  0
  130.6030  135.2600   72.8080 N   0  0  0  0  0  0  0  0  0  0  0  0
  130.5850  134.6720   74.0330 C   0  0  0  0  0  0  0  0  0  0  0  0
  129.3630  133.8740   74.3560 C   0  0  0  0  0  0  0  0  0  0  0  0
  128.6110  133.2600   73.3470 C   0  0  0  0  0  0  0  0  0  0  0  0
  127.4670  132.5300   73.6530 C   0  0  0  0  0  0  0  0  0  0  0  0
  127.0220  132.4000   74.9780 C   0  0  0  0  0  0  0  0  0  0  0  0
  125.8750  131.6670   75.3010 N   0  0  0  0  0  0  0  0  0  0  0  0
  124.9340  132.1300   76.3410 C   0  0  0  0  0  0  0  0  0  0  0  0
  123.5750  131.4000   76.3220 C   0  0  0  0  0  0  0  0  0  0  0  0
  123.7760  129.9990   76.4070 O   0  0  0  0  0  0  0  0  0  0  0  0
  124.5400  129.5160   75.3140 C   0  0  0  0  0  0  0  0  0  0  0  0
  125.9290  130.1900   75.2970 C   0  0  0  0  0  0  0  0  0  0  0  0
  127.7900  133.0010   75.9860 C   0  0  0  0  0  0  0  0  0  0  0  0
  128.9380  133.7270   75.6810 C   0  0  0  0  0  0  0  0  0  0  0  0
  131.6440  134.7940   74.9360 C   0  0  0  0  0  0  0  0  0  0  0  0
  132.7800  135.5450   74.6120 C   0  0  0  0  0  0  0  0  0  0  0  0
  133.8920  135.6190   75.5950 C   0  0  0  0  0  0  0  0  0  0  0  0
  134.9880  134.7630   75.4840 C   0  0  0  0  0  0  0  0  0  0  0  0
  136.0400  134.8430   76.3910 C   0  0  0  0  0  0  0  0  0  0  0  0
  136.0240  135.7820   77.4350 C   0  0  0  0  0  0  0  0  0  0  0  0
  137.0770  135.8900   78.3470 N   0  0  0  0  0  0  0  0  0  0  0  0
  138.2440  136.7270   78.0080 C   0  0  0  0  0  0  0  0  0  0  0  0
  139.4750  136.4430   78.8950 C   0  0  0  0  0  0  0  0  0  0  0  0
  139.1310  136.5920   80.2640 O   0  0  0  0  0  0  0  0  0  0  0  0
  138.0960  135.6980   80.6470 C   0  0  0  0  0  0  0  0  0  0  0  0
  136.8320  135.9590   79.8020 C   0  0  0  0  0  0  0  0  0  0  0  0
  134.9260  136.6490   77.5250 C   0  0  0  0  0  0  0  0  0  0  0  0
  133.8730  136.5690   76.6170 C   0  0  0  0  0  0  0  0  0  0  0  0
  132.8050  136.1990   73.3480 C   0  0  0  0  0  0  0  0  0  0  0  0
  1  2  1  0
  2  3  2  0
  3  4  1  0
  4  5  2  0
  4  6  1  0
  6  7  1  0
  7  8  1  0
  8  9  2  0
  9 10  1  0
 10 11  1  0
  3 12  1  0
 12 13  1  0
 13 14  2  0
 14 15  1  0
 15 16  1  0
 16 17  2  0
 17 18  1  0
 18 19  2  0
 19 20  1  0
 20 21  1  0
 21 22  1  0
 22 23  1  0
 23 24  1  0
 24 25  1  0
 19 26  1  0
 26 27  2  0
 15 28  2  0
 28 29  1  0
 29 30  1  0
 30 31  2  0
 31 32  1  0
 32 33  2  0
 33 34  1  0
 34 35  1  0
 35 36  1  0
 36 37  1  0
 37 38  1  0
 38 39  1  0
 33 40  1  0
 40 41  2  0
 29 42  2  0
 42  2  1  0
 11  7  2  0
 42 13  1  0
 27 16  1  0
 41 30  1  0
 25 20  1  0
 39 34  1  0
M  END
>  <Binding energies>  (40) 
[-7.65]

>  <Ligand effiencies>  (40) 
[-0.17]

>  <Interactions>  (40) 
["V-B:LEU:472:CA:9200, V-B:LYS:471:CB:9189, V-B:SER:483:CA:9303, V-B:VAL:457:C:9045, V-A:VAL:542:CB:4898, V-B:HIS:456:CB:9037, V-B:HIS:456:C:9033, V-B:ASP:473:CB:9211, V-B:VAL:457:CA:9047, V-B:TYR:484:CB:9313, V-B:LYS:471:C:9185, V-B:VAL:458:CG2:9059, V-B:HIS:456:CD2:9040, V-B:HIS:456:CG:9038, V-B:SER:483:CB:9305, V-A:VAL:542:CG1:4899, V-B:ASP:473:CG:9212, V-A:LYS:547:CE:4950, V-A:LYS:547:CG:4948, V-A:LYS:547:CA:4945, V-A:PHE:548:CD2:4963, V-A:PHE:548:CA:4958, V-A:PHE:548:CG:4961, V-A:PHE:548:CB:4960, H-B:VAL:458:N:9056, V-A:PHE:548:C:4956, H-B:VAL:457:N:9048, V-A:LYS:547:CB:4947, H-A:GLU:357:O:3131, V-B:HIS:456:CA:9035, H-A:ARG:356:NH1:3123, V-A:VAL:542:CG2:4900, V-B:VAL:481:CG1:9291, H-A:SER:352:OG:3074, H-B:SER:483:OG:9306"]

$$$$
9c_Ghoteimi_2023
     RDKit          3D

 42 48  0  0  0  0  0  0  0  0999 V2000
  126.4790  133.5980   79.3630 N   0  0  0  0  0  0  0  0  0  0  0  0
  127.3040  134.5890   78.8950 C   0  0  0  0  0  0  0  0  0  0  0  0
  126.9920  135.9550   78.9740 C   0  0  0  0  0  0  0  0  0  0  0  0
  125.8040  136.5890   79.5540 C   0  0  0  0  0  0  0  0  0  0  0  0
  125.9100  137.4090   80.4690 O   0  0  0  0  0  0  0  0  0  0  0  0
  124.6200  136.2040   79.0190 N   0  0  0  0  0  0  0  0  0  0  0  0
  123.3550  136.6370   79.3930 C   0  0  0  0  0  0  0  0  0  0  0  0
  122.2110  136.0030   79.2560 N   0  0  0  0  0  0  0  0  0  0  0  0
  121.2030  136.7170   79.7200 C   0  0  0  0  0  0  0  0  0  0  0  0
  121.5230  137.9650   80.2480 C   0  0  0  0  0  0  0  0  0  0  0  0
  123.2410  138.2050   80.1260 S   0  0  0  0  0  0  0  0  0  0  0  0
  128.2610  136.9420   78.2500 S   0  0  0  0  0  0  0  0  0  0  0  0
  129.1890  135.5220   77.8310 C   0  0  0  0  0  0  0  0  0  0  0  0
  130.3490  135.6120   77.1810 N   0  0  0  0  0  0  0  0  0  0  0  0
  130.9830  134.4460   76.8870 C   0  0  0  0  0  0  0  0  0  0  0  0
  132.2700  134.5750   76.1390 C   0  0  0  0  0  0  0  0  0  0  0  0
  133.5030  134.4520   76.7910 C   0  0  0  0  0  0  0  0  0  0  0  0
  134.6980  134.5810   76.0920 C   0  0  0  0  0  0  0  0  0  0  0  0
  134.7060  134.8540   74.7140 C   0  0  0  0  0  0  0  0  0  0  0  0
  135.9000  134.9800   73.9950 N   0  0  0  0  0  0  0  0  0  0  0  0
  135.9380  134.7940   72.5300 C   0  0  0  0  0  0  0  0  0  0  0  0
  137.2350  135.3080   71.8700 C   0  0  0  0  0  0  0  0  0  0  0  0
  138.3630  134.7080   72.4870 O   0  0  0  0  0  0  0  0  0  0  0  0
  138.4270  135.0230   73.8680 C   0  0  0  0  0  0  0  0  0  0  0  0
  137.1650  134.5050   74.5910 C   0  0  0  0  0  0  0  0  0  0  0  0
  133.4680  134.9570   74.0630 C   0  0  0  0  0  0  0  0  0  0  0  0
  132.2730  134.8230   74.7630 C   0  0  0  0  0  0  0  0  0  0  0  0
  130.4730  133.2030   77.2680 C   0  0  0  0  0  0  0  0  0  0  0  0
  129.2670  133.1050   77.9700 C   0  0  0  0  0  0  0  0  0  0  0  0
  128.7830  131.7630   78.3790 C   0  0  0  0  0  0  0  0  0  0  0  0
  127.5770  131.2670   77.8820 C   0  0  0  0  0  0  0  0  0  0  0  0
  127.1280  130.0010   78.2500 C   0  0  0  0  0  0  0  0  0  0  0  0
  127.8730  129.1990   79.1270 C   0  0  0  0  0  0  0  0  0  0  0  0
  127.4470  127.9210   79.5010 N   0  0  0  0  0  0  0  0  0  0  0  0
  126.2770  127.7830   80.3910 C   0  0  0  0  0  0  0  0  0  0  0  0
  126.1590  126.3820   81.0290 C   0  0  0  0  0  0  0  0  0  0  0  0
  126.1390  125.3870   80.0170 O   0  0  0  0  0  0  0  0  0  0  0  0
  127.3210  125.4140   79.2320 C   0  0  0  0  0  0  0  0  0  0  0  0
  127.4740  126.7920   78.5510 C   0  0  0  0  0  0  0  0  0  0  0  0
  129.0940  129.6990   79.6040 C   0  0  0  0  0  0  0  0  0  0  0  0
  129.5430  130.9640   79.2360 C   0  0  0  0  0  0  0  0  0  0  0  0
  128.5660  134.3110   78.2570 C   0  0  0  0  0  0  0  0  0  0  0  0
  1  2  1  0
  2  3  2  0
  3  4  1  0
  4  5  2  0
  4  6  1  0
  6  7  1  0
  7  8  2  0
  8  9  1  0
  9 10  2  0
 10 11  1  0
  3 12  1  0
 12 13  1  0
 13 14  2  0
 14 15  1  0
 15 16  1  0
 16 17  2  0
 17 18  1  0
 18 19  2  0
 19 20  1  0
 20 21  1  0
 21 22  1  0
 22 23  1  0
 23 24  1  0
 24 25  1  0
 19 26  1  0
 26 27  2  0
 15 28  2  0
 28 29  1  0
 29 30  1  0
 30 31  2  0
 31 32  1  0
 32 33  2  0
 33 34  1  0
 34 35  1  0
 35 36  1  0
 36 37  1  0
 37 38  1  0
 38 39  1  0
 33 40  1  0
 40 41  2  0
 29 42  2  0
 42  2  1  0
 11  7  1  0
 42 13  1  0
 27 16  1  0
 41 30  1  0
 25 20  1  0
 39 34  1  0
M  END
>  <Binding energies>  (41) 
[-7.01]

>  <Ligand effiencies>  (41) 
[-0.15577777777777777]

>  <Interactions>  (41) 
["V-B:LYS:471:CB:9189, V-B:VAL:458:CG2:9059, V-B:ASP:473:CG:9212, V-A:LYS:547:CE:4950, V-A:LYS:547:CD:4949, V-A:LYS:547:CG:4948, V-A:LYS:547:CA:4945, V-A:GLU:357:CB:3134, V-B:LYS:471:CE:9192, V-A:ARG:356:CB:3117, V-A:PHE:548:CD2:4963, V-A:PHE:548:CE2:4965, H-B:ASP:473:OD1:9213, H-B:ASP:473:OD2:9214, V-B:LYS:471:CD:9191, V-B:LYS:547:CD:9921, V-A:LYS:547:CB:4947, H-B:LEU:472:N:9201, V-B:PRO:486:CG:9337, V-A:GLU:357:CA:3132, V-B:PRO:486:CB:9336, V-A:ILE:546:C:4934, V-B:VAL:458:CG1:9058, V-B:VAL:458:CB:9057, H-A:GLU:357:N:3133, V-B:LYS:471:CG:9190, V-B:PRO:486:CD:9338"]

$$$$
RR11_Rahimova_2017
     RDKit          3D

 33 38  0  0  0  0  0  0  0  0999 V2000
  134.9450  128.2700   74.0950 N   0  0  0  0  0  0  0  0  0  0  0  0
  134.0440  127.3690   74.6580 C   0  0  0  0  0  0  0  0  0  0  0  0
  132.9480  127.8420   75.3770 C   0  0  0  0  0  0  0  0  0  0  0  0
  132.0470  126.9410   75.9370 C   0  0  0  0  0  0  0  0  0  0  0  0
  132.2320  125.5610   75.7850 C   0  0  0  0  0  0  0  0  0  0  0  0
  131.2570  124.5920   76.3840 C   0  0  0  0  0  0  0  0  0  0  0  0
  130.4210  124.8840   77.3570 N   0  0  0  0  0  0  0  0  0  0  0  0
  129.7160  123.7320   77.5870 C   0  0  0  0  0  0  0  0  0  0  0  0
  128.6920  123.4890   78.5130 C   0  0  0  0  0  0  0  0  0  0  0  0
  128.1090  122.2170   78.5430 C   0  0  0  0  0  0  0  0  0  0  0  0
  126.9990  121.9230   79.5430 C   0  0  0  0  0  0  0  0  0  0  0  0
  125.7570  121.3290   78.8930 C   0  0  0  0  0  0  0  0  0  0  0  0
  124.7590  120.7690   79.6990 C   0  0  0  0  0  0  0  0  0  0  0  0
  123.5980  120.2200   79.1510 C   0  0  0  0  0  0  0  0  0  0  0  0
  123.4480  120.2480   77.7580 C   0  0  0  0  0  0  0  0  0  0  0  0
  122.4190  119.7740   76.9860 N   0  0  0  0  0  0  0  0  0  0  0  0
  122.7660  120.0410   75.7450 C   0  0  0  0  0  0  0  0  0  0  0  0
  121.9430  119.6860   74.5390 C   0  0  0  0  0  0  0  0  0  0  0  0
  120.6720  119.1170   74.6890 C   0  0  0  0  0  0  0  0  0  0  0  0
  119.9140  118.7780   73.5710 C   0  0  0  0  0  0  0  0  0  0  0  0
  120.4220  119.0070   72.2940 C   0  0  0  0  0  0  0  0  0  0  0  0
  119.6660  118.6640   71.1740 N   0  0  0  0  0  0  0  0  0  0  0  0
  121.6830  119.5760   72.1310 C   0  0  0  0  0  0  0  0  0  0  0  0
  122.4400  119.9140   73.2490 C   0  0  0  0  0  0  0  0  0  0  0  0
  123.9850  120.6800   75.6750 N   0  0  0  0  0  0  0  0  0  0  0  0
  124.4590  120.8290   76.9570 C   0  0  0  0  0  0  0  0  0  0  0  0
  125.6210  121.3840   77.5000 C   0  0  0  0  0  0  0  0  0  0  0  0
  128.5560  121.2070   77.6840 C   0  0  0  0  0  0  0  0  0  0  0  0
  129.5770  121.4150   76.7540 C   0  0  0  0  0  0  0  0  0  0  0  0
  130.1400  122.6940   76.7230 C   0  0  0  0  0  0  0  0  0  0  0  0
  131.1290  123.2810   75.9710 N   0  0  0  0  0  0  0  0  0  0  0  0
  133.3390  125.0990   75.0600 C   0  0  0  0  0  0  0  0  0  0  0  0
  134.2420  125.9980   74.4990 C   0  0  0  0  0  0  0  0  0  0  0  0
  1  2  1  0
  2  3  2  0
  3  4  1  0
  4  5  2  0
  5  6  1  0
  6  7  2  0
  7  8  1  0
  8  9  2  0
  9 10  1  0
 10 11  1  0
 11 12  1  0
 12 13  2  0
 13 14  1  0
 14 15  2  0
 15 16  1  0
 16 17  2  0
 17 18  1  0
 18 19  2  0
 19 20  1  0
 20 21  2  0
 21 22  1  0
 21 23  1  0
 23 24  2  0
 17 25  1  0
 25 26  1  0
 26 27  2  0
 10 28  2  0
 28 29  1  0
 29 30  2  0
 30 31  1  0
  5 32  1  0
 32 33  2  0
 33  2  1  0
 31  6  1  0
 30  8  1  0
 27 12  1  0
 26 15  1  0
 24 18  1  0
M  END
>  <Binding energies>  (42) 
[-8.52]

>  <Ligand effiencies>  (42) 
[-0.21846153846153846]

>  <Interactions>  (42) 
["V-A:LYS:547:CE:4950, V-A:LYS:471:CD:4219, V-A:VAL:458:CG2:4087, V-A:LYS:547:CD:4949, V-A:ASP:473:CG:4240, V-A:HIS:456:C:4061, V-A:LYS:471:CE:4220, V-A:ARG:545:C:4917, V-A:HIS:456:CA:4063, V-B:LYS:547:CE:9922, V-A:HIS:456:CB:4065, V-A:VAL:457:C:4073, V-A:LYS:547:CG:4948, V-A:VAL:457:CA:4075, V-A:LYS:547:CA:4945, V-B:LYS:547:CD:9921, H-A:ASP:473:OD1:4241, V-A:LYS:547:CB:4947, V-A:ILE:546:C:4934, V-B:LYS:547:CG:9920, V-B:LYS:547:CB:9919, V-B:ARG:356:CZ:8094, H-B:PHE:548:N:9931, V-B:VAL:542:CG1:9871, V-B:GLU:357:CA:8104, V-B:PHE:548:CB:9932, V-B:GLU:357:C:8102, V-B:PHE:548:C:9928, V-B:GLU:357:CB:8106, V-A:GLY:544:C:4912, H-A:GLY:544:O:4913, H-A:VAL:457:O:4074, H-A:ARG:545:O:4918, H-B:GLU:357:O:8103, V-B:PHE:548:CE2:9937, V-B:ARG:356:CB:8089, V-B:PHE:548:CD2:9935, V-B:PHE:548:CA:9930, V-B:LYS:547:C:9915, V-B:LYS:547:CA:9917, H-B:ILE:546:O:9907, V-A:ILE:546:CA:4936, V-B:ARG:356:C:8085, V-B:ARG:356:CA:8087, H-B:ARG:356:O:8086"]

$$$$
RR16_Rahimova_2017
     RDKit          3D

 44 49  0  0  0  0  0  0  0  0999 V2000
  132.4670  131.8370   53.8830 O   0  0  0  0  0  0  0  0  0  0  0  0
  132.0020  132.2490   55.2120 S   0  0  0  0  0  0  0  0  0  0  0  0
  132.0300  133.6600   55.6150 O   0  0  0  0  0  0  0  0  0  0  0  0
  132.9130  131.3210   56.4050 N   0  0  0  0  0  0  0  0  0  0  0  0
  132.5650  131.3810   57.8440 C   0  0  0  0  0  0  0  0  0  0  0  0
  131.3940  130.4040   58.1260 C   0  0  0  0  0  0  0  0  0  0  0  0
  130.4220  130.7750   59.2630 C   0  0  0  0  0  0  0  0  0  0  0  0
  131.0990  131.4480   60.4690 C   0  0  0  0  0  0  0  0  0  0  0  0
  132.4660  130.8670   60.8810 C   0  0  0  0  0  0  0  0  0  0  0  0
  133.7140  131.4370   60.1770 C   0  0  0  0  0  0  0  0  0  0  0  0
  133.8500  131.1430   58.6700 C   0  0  0  0  0  0  0  0  0  0  0  0
  130.3210  131.6620   55.3790 C   0  0  0  0  0  0  0  0  0  0  0  0
  129.3880  132.3950   56.1150 C   0  0  0  0  0  0  0  0  0  0  0  0
  128.1190  131.8670   56.3400 C   0  0  0  0  0  0  0  0  0  0  0  0
  127.7900  130.6110   55.8280 C   0  0  0  0  0  0  0  0  0  0  0  0
  126.2110  129.8690   56.2340 S   0  0  0  0  0  0  0  0  0  0  0  0
  125.6320  129.3570   54.9840 O   0  0  0  0  0  0  0  0  0  0  0  0
  125.4690  130.8350   57.0530 O   0  0  0  0  0  0  0  0  0  0  0  0
  126.6330  128.4830   57.2590 N   0  0  0  0  0  0  0  0  0  0  0  0
  125.5350  128.0160   58.1450 C   0  0  0  0  0  0  0  0  0  0  0  0
  126.0770  127.0350   59.2040 C   0  0  0  0  0  0  0  0  0  0  0  0
  126.8690  125.8710   58.5580 C   0  0  0  0  0  0  0  0  0  0  0  0
  127.4550  124.9110   59.5960 C   0  0  0  0  0  0  0  0  0  0  0  0
  126.6110  124.3010   60.5340 C   0  0  0  0  0  0  0  0  0  0  0  0
  127.1010  123.4130   61.4930 C   0  0  0  0  0  0  0  0  0  0  0  0
  126.2590  122.8220   62.4000 O   0  0  0  0  0  0  0  0  0  0  0  0
  128.4760  123.1370   61.4980 C   0  0  0  0  0  0  0  0  0  0  0  0
  129.2220  122.3120   62.2910 N   0  0  0  0  0  0  0  0  0  0  0  0
  130.5260  122.3860   61.8530 N   0  0  0  0  0  0  0  0  0  0  0  0
  130.5870  123.2730   60.8410 N   0  0  0  0  0  0  0  0  0  0  0  0
  131.8390  123.4870   60.1270 C   0  0  0  0  0  0  0  0  0  0  0  0
  131.8490  124.7870   59.3360 C   0  0  0  0  0  0  0  0  0  0  0  0
  131.4930  125.9890   59.9570 C   0  0  0  0  0  0  0  0  0  0  0  0
  131.5230  127.1860   59.2400 C   0  0  0  0  0  0  0  0  0  0  0  0
  131.9110  127.1880   57.9000 C   0  0  0  0  0  0  0  0  0  0  0  0
  132.2700  125.9930   57.2750 C   0  0  0  0  0  0  0  0  0  0  0  0
  132.7600  125.9930   55.6210 Cl  0  0  0  0  0  0  0  0  0  0  0  0
  132.2350  124.7940   57.9920 C   0  0  0  0  0  0  0  0  0  0  0  0
  129.3230  123.7630   60.5530 C   0  0  0  0  0  0  0  0  0  0  0  0
  128.8340  124.6560   59.5950 C   0  0  0  0  0  0  0  0  0  0  0  0
  127.9270  126.3740   57.5400 C   0  0  0  0  0  0  0  0  0  0  0  0
  127.3290  127.3840   56.5410 C   0  0  0  0  0  0  0  0  0  0  0  0
  128.7110  129.8970   55.0570 C   0  0  0  0  0  0  0  0  0  0  0  0
  129.9790  130.4230   54.8350 C   0  0  0  0  0  0  0  0  0  0  0  0
  1  2  2  0
  2  3  2  0
  2  4  1  0
  4  5  1  0
  5  6  1  0
  6  7  1  0
  7  8  1  0
  8  9  1  0
  9 10  1  0
 10 11  1  0
  2 12  1  0
 12 13  2  0
 13 14  1  0
 14 15  2  0
 15 16  1  0
 16 17  2  0
 16 18  2  0
 16 19  1  0
 19 20  1  0
 20 21  1  0
 21 22  1  0
 22 23  1  0
 23 24  2  0
 24 25  1  0
 25 26  1  0
 25 27  2  0
 27 28  1  0
 28 29  2  0
 29 30  1  0
 30 31  1  0
 31 32  1  0
 32 33  2  0
 33 34  1  0
 34 35  2  0
 35 36  1  0
 36 37  1  0
 36 38  2  0
 30 39  1  0
 39 40  2  0
 22 41  1  0
 41 42  1  0
 15 43  1  0
 43 44  2  0
 11  5  1  0
 44 12  1  0
 42 19  1  0
 40 23  1  0
 39 27  1  0
 38 32  1  0
M  END
>  <Binding energies>  (43) 
[-11.21]

>  <Ligand effiencies>  (43) 
[-0.23354166666666668]

>  <Interactions>  (43) 
["V-A:TYR:539:CE1:4875, H-A:TYR:539:N:4870, V-B:ASP:366:CG:8185, V-A:TYR:539:CD1:4873, V-B:PRO:540:CA:9855, V-A:TYR:531:CZ:4794, V-A:TYR:539:CZ:4877, V-A:PRO:540:CA:4883, V-A:ILE:538:CG2:4863, V-B:MET:535:CE:9807, H-B:LYS:534:NZ:9795, H-A:TYR:539:OH:4878, V-B:TYR:539:CE2:9848, V-B:TYR:539:CZ:9849, V-A:TYR:539:C:4867, V-A:TYR:539:CG:4872, V-A:TYR:539:CD2:4874, V-A:TYR:539:CE2:4876, V-A:ASP:366:CG:3213, V-A:ILE:538:CB:4862, V-B:TYR:531:CE1:9764, H-B:TYR:531:OH:9767, V-B:ASP:366:CB:8184, V-A:PRO:540:CB:4885, V-A:ASP:366:CB:3212, V-A:LEU:363:CA:3185, H-A:TYR:531:OH:4795, V-A:ASN:362:CB:3176, V-A:LEU:363:CD1:3189, V-A:ASN:362:C:3172, V-A:TYR:531:CE2:4793, V-B:GLU:543:CD:9880, H-A:TYR:484:OH:4348, H-B:GLU:543:OE1:9881, H-B:ALA:541:N:9863, H-B:ALA:541:O:9861, V-A:ASP:366:C:3208, V-A:LEU:363:CB:3187, V-A:TYR:531:CE1:4792, V-A:ASN:370:CB:3245"]

$$$$
RR18_Rahimova_2017
     RDKit          3D

 36 41  0  0  0  0  0  0  0  0999 V2000
  128.4920  122.5330   61.2190 C   0  0  0  0  0  0  0  0  0  0  0  0
  128.3750  123.3290   59.9440 C   0  0  0  0  0  0  0  0  0  0  0  0
  127.5610  123.2480   58.8260 C   0  0  0  0  0  0  0  0  0  0  0  0
  127.9440  124.2830   57.9730 C   0  0  0  0  0  0  0  0  0  0  0  0
  128.9780  124.9590   58.6000 C   0  0  0  0  0  0  0  0  0  0  0  0
  129.8300  126.1700   58.2280 C   0  0  1  0  0  0  0  0  0  0  0  0
  131.0800  125.7550   57.3970 C   0  0  0  0  0  0  0  0  0  0  0  0
  132.1210  124.9240   57.9930 C   0  0  0  0  0  0  0  0  0  0  0  0
  133.2180  124.7680   57.4520 O   0  0  0  0  0  0  0  0  0  0  0  0
  131.7770  124.3690   59.1780 N   0  0  0  0  0  0  0  0  0  0  0  0
  132.5020  123.5050   60.0270 C   0  0  0  0  0  0  0  0  0  0  0  0
  132.7520  122.1540   59.7270 C   0  0  0  0  0  0  0  0  0  0  0  0
  133.4700  121.3510   60.6120 C   0  0  0  0  0  0  0  0  0  0  0  0
  133.9430  121.8810   61.8090 C   0  0  0  0  0  0  0  0  0  0  0  0
  133.6930  123.2150   62.1250 C   0  0  0  0  0  0  0  0  0  0  0  0
  132.9740  124.0320   61.2460 C   0  0  0  0  0  0  0  0  0  0  0  0
  132.7240  125.4850   61.6410 C   0  0  0  0  0  0  0  0  0  0  0  0
  131.1260  126.0970   56.0820 C   0  0  0  0  0  0  0  0  0  0  0  0
  130.2110  126.8840   55.4520 N   0  0  0  0  0  0  0  0  0  0  0  0
  129.2670  127.4230   56.1320 C   0  0  0  0  0  0  0  0  0  0  0  0
  128.1140  128.5710   55.4940 S   0  0  0  0  0  0  0  0  0  0  0  0
  127.3190  128.7400   57.0910 C   0  0  0  0  0  0  0  0  0  0  0  0
  126.2410  129.5390   57.4030 C   0  0  0  0  0  0  0  0  0  0  0  0
  125.6670  130.4400   56.3930 C   0  0  0  0  0  0  0  0  0  0  0  0
  125.9800  130.6110   55.2160 O   0  0  0  0  0  0  0  0  0  0  0  0
  124.6810  131.1240   56.9830 N   0  0  0  0  0  0  0  0  0  0  0  0
  124.4910  130.7670   58.2830 C   0  0  0  0  0  0  0  0  0  0  0  0
  123.5460  131.2680   59.1780 C   0  0  0  0  0  0  0  0  0  0  0  0
  123.4940  130.7430   60.4660 C   0  0  0  0  0  0  0  0  0  0  0  0
  124.3750  129.7270   60.8320 C   0  0  0  0  0  0  0  0  0  0  0  0
  125.3140  129.2420   59.9170 C   0  0  0  0  0  0  0  0  0  0  0  0
  125.3980  129.7760   58.6180 C   0  0  0  0  0  0  0  0  0  0  0  0
  128.0260  127.8800   58.0400 C   0  0  0  0  0  0  0  0  0  0  0  0
  127.7960  127.7760   59.2410 O   0  0  0  0  0  0  0  0  0  0  0  0
  129.0320  127.1820   57.4480 N   0  0  0  0  0  0  0  0  0  0  0  0
  129.2350  124.3710   59.7990 O   0  0  0  0  0  0  0  0  0  0  0  0
  1  2  1  0
  2  3  2  0
  3  4  1  0
  4  5  2  0
  6  5  1  6
  6  7  1  0
  7  8  1  0
  8  9  2  0
  8 10  1  0
 10 11  1  0
 11 12  2  0
 12 13  1  0
 13 14  2  0
 14 15  1  0
 15 16  2  0
 16 17  1  0
  7 18  2  0
 18 19  1  0
 19 20  2  0
 20 21  1  0
 21 22  1  0
 22 23  2  0
 23 24  1  0
 24 25  2  0
 24 26  1  0
 26 27  1  0
 27 28  2  0
 28 29  1  0
 29 30  2  0
 30 31  1  0
 31 32  2  0
 22 33  1  0
 33 34  2  0
 33 35  1  0
  5 36  1  0
 36  2  1  0
 35  6  1  0
 16 11  1  0
 35 20  1  0
 32 23  1  0
 32 27  1  0
M  END
>  <Binding energies>  (44) 
[-8.64]

>  <Ligand effiencies>  (44) 
[-0.22736842105263158]

>  <Interactions>  (44) 
["V-A:TYR:539:CE1:4875, V-B:ASP:366:CG:8185, V-B:PRO:540:N:9856, V-B:PRO:540:CA:9855, V-B:TYR:539:CD2:9846, V-A:TYR:539:CZ:4877, V-B:MET:535:CE:9807, H-B:LYS:534:NZ:9795, H-A:TYR:539:OH:4878, V-B:TYR:539:CE2:9848, V-B:TYR:539:CZ:9849, V-A:ASP:366:CG:3213, V-A:GLY:454:CA:4049, V-A:ILE:369:CD1:3239, V-A:ARG:545:CZ:4926, V-A:ILE:369:CG2:3237, V-A:LEU:475:CD2:4259, V-B:ILE:369:CD1:8211, V-B:ASP:366:CB:8184, V-B:ILE:369:CG2:8209, V-B:ILE:369:CB:8208, V-A:ASP:366:CB:3212, H-A:TYR:531:OH:4795, V-B:ASP:366:CA:8182, H-B:ASP:366:O:8181, H-B:TYR:539:OH:9850, V-A:GLY:453:C:4042"]

$$$$
RR20_Rahimova_2017
     RDKit          3D

 38 43  0  0  0  0  0  0  0  0999 V2000
  131.5270  116.4070   58.5420 C   0  0  0  0  0  0  0  0  0  0  0  0
  131.3460  117.6880   59.3350 C   0  0  0  0  0  0  0  0  0  0  0  0
  130.3000  117.7950   60.2520 C   0  0  0  0  0  0  0  0  0  0  0  0
  130.1370  118.9660   60.9880 C   0  0  0  0  0  0  0  0  0  0  0  0
  131.0110  120.0440   60.8030 C   0  0  0  0  0  0  0  0  0  0  0  0
  130.8300  121.2990   61.6270 C   0  0  0  0  0  0  0  0  0  0  0  0
  130.1800  121.2080   62.6710 O   0  0  0  0  0  0  0  0  0  0  0  0
  131.3940  122.4670   61.2000 N   0  0  0  0  0  0  0  0  0  0  0  0
  132.8470  122.6950   61.2750 C   0  0  0  0  0  0  0  0  0  0  0  0
  133.1090  124.0180   60.5770 C   0  0  0  0  0  0  0  0  0  0  0  0
  131.8340  124.2590   59.8280 C   0  0  0  0  0  0  0  0  0  0  0  0
  131.5190  125.2850   58.9360 C   0  0  0  0  0  0  0  0  0  0  0  0
  130.2120  125.4370   58.4570 C   0  0  0  0  0  0  0  0  0  0  0  0
  129.8740  126.5360   57.4890 C   0  0  0  0  0  0  0  0  0  0  0  0
  128.7970  127.2690   57.7200 N   0  0  0  0  0  0  0  0  0  0  0  0
  128.6100  128.2070   56.8270 C   0  0  0  0  0  0  0  0  0  0  0  0
  127.5910  129.1460   56.7730 N   0  0  0  0  0  0  0  0  0  0  0  0
  126.5630  129.1820   55.8910 C   0  0  0  0  0  0  0  0  0  0  0  0
  126.3850  128.3440   55.0050 O   0  0  0  0  0  0  0  0  0  0  0  0
  125.5360  130.3320   56.0190 C   0  0  0  0  0  0  0  0  0  0  0  0
  125.1780  130.6300   57.4180 N   0  0  0  0  0  0  0  0  0  0  0  0
  123.7910  131.0990   57.5550 C   0  0  0  0  0  0  0  0  0  0  0  0
  123.5520  131.6480   58.9800 C   0  0  0  0  0  0  0  0  0  0  0  0
  124.1060  130.7330   60.0720 C   0  0  0  0  0  0  0  0  0  0  0  0
  123.7560  130.9190   61.4140 C   0  0  0  0  0  0  0  0  0  0  0  0
  124.2910  130.1100   62.4140 C   0  0  0  0  0  0  0  0  0  0  0  0
  125.1850  129.0970   62.0800 C   0  0  0  0  0  0  0  0  0  0  0  0
  125.5350  128.8950   60.7470 C   0  0  0  0  0  0  0  0  0  0  0  0
  125.0060  129.7020   59.7330 C   0  0  0  0  0  0  0  0  0  0  0  0
  125.3440  129.4430   58.2640 C   0  0  0  0  0  0  0  0  0  0  0  0
  129.7940  128.2450   55.5790 S   0  0  0  0  0  0  0  0  0  0  0  0
  130.5930  126.8810   56.3240 C   0  0  0  0  0  0  0  0  0  0  0  0
  131.8230  126.2720   55.6870 C   0  0  0  0  0  0  0  0  0  0  0  0
  129.2180  124.5720   58.9380 C   0  0  0  0  0  0  0  0  0  0  0  0
  129.5260  123.5580   59.8450 C   0  0  0  0  0  0  0  0  0  0  0  0
  130.8530  123.3630   60.2500 C   0  0  0  0  0  0  0  0  0  0  0  0
  132.0760  119.9180   59.9020 C   0  0  0  0  0  0  0  0  0  0  0  0
  132.2400  118.7470   59.1660 C   0  0  0  0  0  0  0  0  0  0  0  0
  1  2  1  0
  2  3  2  0
  3  4  1  0
  4  5  2  0
  5  6  1  0
  6  7  2  0
  6  8  1  0
  8  9  1  0
  9 10  1  0
 10 11  1  0
 11 12  2  0
 12 13  1  0
 13 14  1  0
 14 15  1  0
 15 16  2  0
 16 17  1  0
 17 18  1  0
 18 19  2  0
 18 20  1  0
 20 21  1  0
 21 22  1  0
 22 23  1  0
 23 24  1  0
 24 25  2  0
 25 26  1  0
 26 27  2  0
 27 28  1  0
 28 29  2  0
 29 30  1  0
 16 31  1  0
 31 32  1  0
 32 33  1  0
 13 34  2  0
 34 35  1  0
 35 36  2  0
  5 37  1  0
 37 38  2  0
 38  2  1  0
 36  8  1  0
 36 11  1  0
 32 14  2  0
 30 21  1  0
 29 24  1  0
M  END
>  <Binding energies>  (45) 
[-10.64]

>  <Ligand effiencies>  (45) 
[-0.27282051282051284]

>  <Interactions>  (45) 
["V-B:TYR:539:C:9839, V-A:TYR:539:CE1:4875, V-B:ASP:366:CG:8185, V-B:TYR:539:CD2:9846, V-A:TYR:539:CZ:4877, V-B:MET:535:CE:9807, H-B:LYS:534:NZ:9795, H-A:TYR:539:OH:4878, V-B:TYR:539:CE2:9848, V-A:LEU:475:CD2:4259, V-B:TYR:539:CG:9844, V-B:ILE:369:CD1:8211, V-B:ARG:545:CZ:9898, V-B:TYR:531:CE1:9764, H-B:TYR:531:OH:9767, V-B:ASP:366:CB:8184, V-B:ILE:369:CG2:8209, V-B:ILE:369:CB:8208, V-B:ASP:366:C:8180, V-B:ASP:366:CA:8182, V-A:SER:385:CB:3409, V-B:TYR:539:CB:9843, H-A:TYR:484:OH:4348, V-A:HIS:383:CE1:3394, V-A:PRO:482:CG:4327, V-A:LEU:373:CD1:3280, V-A:LEU:373:CD2:3281, V-A:PRO:482:CB:4326, V-A:LEU:475:CD1:4258, V-A:TYR:531:CE1:4792"]

$$$$
RR21_Rahimova_2017
     RDKit          3D

 40 45  0  0  0  0  0  0  0  0999 V2000
  124.5880  129.2260   65.9820 C   0  0  0  0  0  0  0  0  0  0  0  0
  123.9920  129.6830   64.7720 O   0  0  0  0  0  0  0  0  0  0  0  0
  124.6700  129.5150   63.5790 C   0  0  0  0  0  0  0  0  0  0  0  0
  125.9150  128.8740   63.4620 C   0  0  0  0  0  0  0  0  0  0  0  0
  126.5320  128.7420   62.2190 C   0  0  0  0  0  0  0  0  0  0  0  0
  125.9220  129.2430   61.0620 C   0  0  0  0  0  0  0  0  0  0  0  0
  126.5850  129.0960   59.7270 C   0  0  0  0  0  0  0  0  0  0  0  0
  126.8800  130.1690   59.0200 N   0  0  0  0  0  0  0  0  0  0  0  0
  127.4580  129.7380   57.8880 N   0  0  0  0  0  0  0  0  0  0  0  0
  127.9220  130.6450   56.9010 C   0  0  0  0  0  0  0  0  0  0  0  0
  127.4160  130.6020   55.5920 C   0  0  0  0  0  0  0  0  0  0  0  0
  127.8760  131.5010   54.6330 C   0  0  0  0  0  0  0  0  0  0  0  0
  128.8420  132.4440   54.9780 C   0  0  0  0  0  0  0  0  0  0  0  0
  129.3540  132.4950   56.2720 C   0  0  0  0  0  0  0  0  0  0  0  0
  128.8960  131.5980   57.2330 C   0  0  0  0  0  0  0  0  0  0  0  0
  127.5420  128.3680   57.8910 C   0  0  0  0  0  0  0  0  0  0  0  0
  126.9700  127.9060   59.0670 C   0  0  0  0  0  0  0  0  0  0  0  0
  126.8680  126.5330   59.5380 C   0  0  0  0  0  0  0  0  0  0  0  0
  127.8660  125.7000   59.9130 C   0  0  0  0  0  0  0  0  0  0  0  0
  129.6130  126.0290   59.9350 S   0  0  0  0  0  0  0  0  0  0  0  0
  129.8950  124.4120   60.5650 C   0  0  0  0  0  0  0  0  0  0  0  0
  131.0290  123.8690   60.8830 N   0  0  0  0  0  0  0  0  0  0  0  0
  131.1180  122.5460   61.3970 C   0  0  0  0  0  0  0  0  0  0  0  0
  132.1490  121.9690   61.7410 O   0  0  0  0  0  0  0  0  0  0  0  0
  129.7900  121.8490   61.5140 C   0  0  0  0  0  0  0  0  0  0  0  0
  129.7630  120.4080   62.0390 C   0  0  0  0  0  0  0  0  0  0  0  0
  130.3300  119.3740   61.0680 C   0  0  0  0  0  0  0  0  0  0  0  0
  131.4280  119.6950   60.2660 C   0  0  0  0  0  0  0  0  0  0  0  0
  131.9540  118.7460   59.3930 C   0  0  0  0  0  0  0  0  0  0  0  0
  131.3860  117.4730   59.3210 C   0  0  0  0  0  0  0  0  0  0  0  0
  131.9710  116.4390   58.3770 C   0  0  0  0  0  0  0  0  0  0  0  0
  130.2960  117.1460   60.1310 C   0  0  0  0  0  0  0  0  0  0  0  0
  129.7690  118.0940   61.0030 C   0  0  0  0  0  0  0  0  0  0  0  0
  128.6680  122.4010   61.1870 N   0  0  0  0  0  0  0  0  0  0  0  0
  128.7240  123.7150   60.7050 N   0  0  0  0  0  0  0  0  0  0  0  0
  127.5740  124.3470   60.3650 C   0  0  0  0  0  0  0  0  0  0  0  0
  126.4460  123.8450   60.4370 O   0  0  0  0  0  0  0  0  0  0  0  0
  124.6860  129.8870   61.1790 C   0  0  0  0  0  0  0  0  0  0  0  0
  124.0670  130.0200   62.4220 C   0  0  0  0  0  0  0  0  0  0  0  0
  122.8710  130.6480   62.5010 F   0  0  0  0  0  0  0  0  0  0  0  0
  1  2  1  0
  2  3  1  0
  3  4  2  0
  4  5  1  0
  5  6  2  0
  6  7  1  0
  7  8  2  0
  8  9  1  0
  9 10  1  0
 10 11  2  0
 11 12  1  0
 12 13  2  0
 13 14  1  0
 14 15  2  0
  9 16  1  0
 16 17  2  0
 17 18  1  0
 18 19  2  0
 19 20  1  0
 20 21  1  0
 21 22  2  0
 22 23  1  0
 23 24  2  0
 23 25  1  0
 25 26  1  0
 26 27  1  0
 27 28  2  0
 28 29  1  0
 29 30  2  0
 30 31  1  0
 30 32  1  0
 32 33  2  0
 25 34  2  0
 34 35  1  0
 35 36  1  0
 36 37  2  0
  6 38  1  0
 38 39  2  0
 39 40  1  0
 39  3  1  0
 17  7  1  0
 36 19  1  0
 15 10  1  0
 35 21  1  0
 33 27  1  0
M  END
>  <Binding energies>  (46) 
[-9.66]

>  <Ligand effiencies>  (46) 
[-0.2415]

>  <Interactions>  (46) 
["V-A:PRO:540:N:4884, V-B:TYR:539:C:9839, V-B:ASP:366:CG:8185, V-B:TYR:539:CD2:9846, V-A:TYR:539:CZ:4877, V-B:TYR:539:CE2:9848, V-A:TYR:539:C:4867, V-A:TYR:539:CG:4872, V-A:TYR:539:CD2:4874, V-A:TYR:539:CE2:4876, V-A:LEU:475:CD2:4259, V-B:TYR:539:CG:9844, V-B:ILE:369:CD1:8211, V-B:ARG:545:CZ:9898, V-B:TYR:484:CZ:9319, V-B:GLY:454:CA:9021, V-A:TYR:484:CE1:4345, V-B:ALA:541:CB:9864, V-B:GLY:453:CA:9016, H-B:GLY:454:N:9022, V-B:HIS:456:CE1:9042, V-B:ARG:545:CD:9895, V-B:GLY:453:C:9014, V-B:ARG:545:CG:9894, H-B:TYR:484:OH:9320, V-A:SER:385:CB:3409, V-B:TYR:539:CB:9843, H-A:TYR:484:OH:4348, V-A:HIS:383:CE1:3394, V-A:PRO:482:CG:4327, V-A:LEU:373:CD1:3280, V-A:LEU:373:CD2:3281, V-A:PRO:482:CB:4326, V-A:LEU:475:CD1:4258, H-B:ARG:545:NH1:9899, H-B:ARG:545:NE:9896"]

$$$$
RR23_Rahimova_2017
     RDKit          3D

 39 44  0  0  0  0  0  0  0  0999 V2000
  132.4610  132.9920   55.3680 C   0  0  0  0  0  0  0  0  0  0  0  0
  131.0640  132.4160   55.5100 C   0  0  0  0  0  0  0  0  0  0  0  0
  130.5320  132.1790   56.7770 C   0  0  0  0  0  0  0  0  0  0  0  0
  129.2460  131.6590   56.9070 C   0  0  0  0  0  0  0  0  0  0  0  0
  128.4880  131.3620   55.7690 C   0  0  0  0  0  0  0  0  0  0  0  0
  127.0860  130.8180   55.9310 C   0  0  0  0  0  0  0  0  0  0  0  0
  126.2970  130.9860   54.9980 O   0  0  0  0  0  0  0  0  0  0  0  0
  126.7520  130.1560   57.0790 N   0  0  0  0  0  0  0  0  0  0  0  0
  125.8170  130.7340   58.0570 C   0  0  0  0  0  0  0  0  0  0  0  0
  125.5810  129.6630   59.1080 C   0  0  0  0  0  0  0  0  0  0  0  0
  126.1060  128.4250   58.4470 C   0  0  0  0  0  0  0  0  0  0  0  0
  126.0770  127.1060   58.9010 C   0  0  0  0  0  0  0  0  0  0  0  0
  126.7680  126.1010   58.2070 C   0  0  0  0  0  0  0  0  0  0  0  0
  126.7620  124.6370   58.6720 C   0  0  2  0  0  0  0  0  0  0  0  0
  127.8360  124.3540   59.5990 N   0  0  0  0  0  0  0  0  0  0  0  0
  128.2540  123.1570   59.4900 C   0  0  0  0  0  0  0  0  0  0  0  0
  129.2620  122.5550   60.1760 N   0  0  0  0  0  0  0  0  0  0  0  0
  130.1490  123.1150   61.0330 C   0  0  0  0  0  0  0  0  0  0  0  0
  130.1650  124.3000   61.3750 O   0  0  0  0  0  0  0  0  0  0  0  0
  131.2140  122.1620   61.6010 C   0  0  0  0  0  0  0  0  0  0  0  0
  130.9030  120.7790   61.1750 N   0  0  0  0  0  0  0  0  0  0  0  0
  129.7810  120.2120   61.7670 N   0  0  0  0  0  0  0  0  0  0  0  0
  129.4030  119.0070   61.4800 N   0  0  0  0  0  0  0  0  0  0  0  0
  130.1290  118.2510   60.5570 C   0  0  0  0  0  0  0  0  0  0  0  0
  129.6950  116.9550   60.2720 C   0  0  0  0  0  0  0  0  0  0  0  0
  130.4000  116.1750   59.3540 C   0  0  0  0  0  0  0  0  0  0  0  0
  131.5350  116.6880   58.7220 C   0  0  0  0  0  0  0  0  0  0  0  0
  131.9710  117.9830   59.0060 C   0  0  0  0  0  0  0  0  0  0  0  0
  131.2630  118.7660   59.9260 C   0  0  0  0  0  0  0  0  0  0  0  0
  131.7200  120.1690   60.2500 C   0  0  0  0  0  0  0  0  0  0  0  0
  132.7170  120.6990   59.7490 O   0  0  0  0  0  0  0  0  0  0  0  0
  127.4410  122.1230   58.2790 S   0  0  0  0  0  0  0  0  0  0  0  0
  126.7490  123.6040   57.5210 C   0  0  2  0  0  0  0  0  0  0  0  0
  127.5720  123.9560   56.2640 C   0  0  0  0  0  0  0  0  0  0  0  0
  127.5230  126.4540   57.0830 C   0  0  0  0  0  0  0  0  0  0  0  0
  127.5700  127.7770   56.6400 C   0  0  0  0  0  0  0  0  0  0  0  0
  126.8130  128.7600   57.2910 C   0  0  0  0  0  0  0  0  0  0  0  0
  129.0180  131.6290   54.5000 C   0  0  0  0  0  0  0  0  0  0  0  0
  130.3030  132.1490   54.3710 C   0  0  0  0  0  0  0  0  0  0  0  0
  1  2  1  0
  2  3  2  0
  3  4  1  0
  4  5  2  0
  5  6  1  0
  6  7  2  0
  6  8  1  0
  8  9  1  0
  9 10  1  0
 10 11  1  0
 11 12  2  0
 12 13  1  0
 14 13  1  6
 14 15  1  0
 15 16  2  0
 16 17  1  0
 17 18  1  0
 18 19  2  0
 18 20  1  0
 20 21  1  0
 21 22  1  0
 22 23  2  0
 23 24  1  0
 24 25  2  0
 25 26  1  0
 26 27  2  0
 27 28  1  0
 28 29  2  0
 29 30  1  0
 30 31  2  0
 16 32  1  0
 32 33  1  0
 33 34  1  6
 13 35  2  0
 35 36  1  0
 36 37  2  0
  5 38  1  0
 38 39  2  0
 39  2  1  0
 37  8  1  0
 37 11  1  0
 33 14  1  0
 30 21  1  0
 29 24  1  0
M  END
>  <Binding energies>  (47) 
[-11.05]

>  <Ligand effiencies>  (47) 
[-0.27625]

>  <Interactions>  (47) 
["V-A:PRO:540:N:4884, V-B:TYR:539:C:9839, V-A:TYR:539:CE1:4875, V-B:ASP:366:CG:8185, V-B:PRO:540:CA:9855, V-A:ILE:538:CA:4860, V-B:TYR:539:CD2:9846, V-A:TYR:539:CZ:4877, V-A:PRO:540:CA:4883, V-A:ILE:538:CG2:4863, V-B:MET:535:CE:9807, H-B:LYS:534:NZ:9795, H-A:TYR:539:OH:4878, V-B:TYR:539:CE2:9848, V-A:TYR:539:C:4867, V-A:LEU:475:CD2:4259, V-B:TYR:539:CG:9844, V-A:ILE:538:CB:4862, V-B:ASP:366:CB:8184, V-A:PRO:540:CG:4886, V-A:PRO:540:CB:4885, V-A:PRO:540:CD:4887, V-A:LEU:363:CD1:3189, H-B:TYR:539:N:9842, V-A:SER:385:CB:3409, V-B:TYR:539:CB:9843, V-A:HIS:383:CE1:3394, V-A:PRO:482:CG:4327, V-A:LEU:373:CD1:3280, V-A:PRO:482:CB:4326, H-B:TYR:539:O:9840, V-B:VAL:344:CG1:7973"]

$$$$
RR26_Rahimova_2017
     RDKit          3D

 38 44  0  0  0  0  0  0  0  0999 V2000
  124.4650  134.4320   59.8990 C   0  0  0  0  0  0  0  0  0  0  0  0
  125.6970  135.2390   60.2870 C   0  0  0  0  0  0  0  0  0  0  0  0
  125.6280  136.6340   60.2050 C   0  0  0  0  0  0  0  0  0  0  0  0
  126.7110  137.4240   60.5850 C   0  0  0  0  0  0  0  0  0  0  0  0
  127.8740  136.8240   61.0580 C   0  0  0  0  0  0  0  0  0  0  0  0
  127.9550  135.4360   61.1440 C   0  0  0  0  0  0  0  0  0  0  0  0
  126.8780  134.6240   60.7570 C   0  0  0  0  0  0  0  0  0  0  0  0
  127.0540  133.1370   60.8670 C   0  0  0  0  0  0  0  0  0  0  0  0
  126.9960  132.3330   59.8090 N   0  0  0  0  0  0  0  0  0  0  0  0
  127.2090  131.1630   60.3460 C   0  0  0  0  0  0  0  0  0  0  0  0
  127.3090  129.5390   59.7730 S   0  0  0  0  0  0  0  0  0  0  0  0
  127.6290  128.9880   61.4610 C   0  0  0  0  0  0  0  0  0  0  0  0
  127.8340  127.7240   61.8940 C   0  0  0  0  0  0  0  0  0  0  0  0
  127.8530  126.5000   61.1100 C   0  0  0  0  0  0  0  0  0  0  0  0
  126.9190  126.0610   60.1840 C   0  0  0  0  0  0  0  0  0  0  0  0
  127.3690  124.8750   59.6600 N   0  0  0  0  0  0  0  0  0  0  0  0
  126.7520  124.0600   58.6760 C   0  0  0  0  0  0  0  0  0  0  0  0
  125.3550  123.9790   58.5840 C   0  0  0  0  0  0  0  0  0  0  0  0
  124.7620  123.1730   57.6150 C   0  0  0  0  0  0  0  0  0  0  0  0
  125.5630  122.4490   56.7360 C   0  0  0  0  0  0  0  0  0  0  0  0
  126.9520  122.5230   56.8150 C   0  0  0  0  0  0  0  0  0  0  0  0
  127.5470  123.3260   57.7840 C   0  0  0  0  0  0  0  0  0  0  0  0
  128.5590  124.5540   60.1900 N   0  0  0  0  0  0  0  0  0  0  0  0
  128.8560  125.5050   61.0540 C   0  0  0  0  0  0  0  0  0  0  0  0
  130.1340  125.4350   61.8310 C   0  0  0  0  0  0  0  0  0  0  0  0
  131.3580  125.2510   61.1690 C   0  0  0  0  0  0  0  0  0  0  0  0
  132.5550  125.1800   61.8850 C   0  0  0  0  0  0  0  0  0  0  0  0
  132.5350  125.2920   63.2730 C   0  0  0  0  0  0  0  0  0  0  0  0
  131.3210  125.4940   63.9450 C   0  0  0  0  0  0  0  0  0  0  0  0
  130.1260  125.5580   63.2280 C   0  0  0  0  0  0  0  0  0  0  0  0
  131.2490  125.5660   65.3220 O   0  0  0  0  0  0  0  0  0  0  0  0
  132.4960  125.8610   65.9590 C   0  0  0  0  0  0  0  0  0  0  0  0
  133.6350  125.0120   65.3420 C   0  0  0  0  0  0  0  0  0  0  0  0
  133.7450  125.2650   63.9370 O   0  0  0  0  0  0  0  0  0  0  0  0
  127.6400  130.0950   62.4130 C   0  0  0  0  0  0  0  0  0  0  0  0
  127.8220  130.0700   63.6310 O   0  0  0  0  0  0  0  0  0  0  0  0
  127.3960  131.2620   61.6740 N   0  0  0  0  0  0  0  0  0  0  0  0
  127.3020  132.5470   62.0270 N   0  0  0  0  0  0  0  0  0  0  0  0
  1  2  1  0
  2  3  2  0
  3  4  1  0
  4  5  2  0
  5  6  1  0
  6  7  2  0
  7  8  1  0
  8  9  1  0
  9 10  2  0
 10 11  1  0
 11 12  1  0
 12 13  2  0
 13 14  1  0
 14 15  2  0
 15 16  1  0
 16 17  1  0
 17 18  2  0
 18 19  1  0
 19 20  2  0
 20 21  1  0
 21 22  2  0
 16 23  1  0
 23 24  2  0
 24 25  1  0
 25 26  2  0
 26 27  1  0
 27 28  2  0
 28 29  1  0
 29 30  2  0
 29 31  1  0
 31 32  1  0
 32 33  1  0
 33 34  1  0
 12 35  1  0
 35 36  2  0
 35 37  1  0
 37 38  1  0
  7  2  1  0
 38  8  2  0
 37 10  1  0
 24 14  1  0
 30 25  1  0
 22 17  1  0
 34 28  1  0
M  END
>  <Binding energies>  (48) 
[-9.4]

>  <Ligand effiencies>  (48) 
[-0.2473684210526316]

>  <Interactions>  (48) 
["V-B:PRO:540:CB:9857, V-B:TYR:539:C:9839, V-A:TYR:539:CE1:4875, V-B:TYR:539:CD1:9845, V-A:TYR:539:CD1:4873, V-B:LEU:475:CD2:9231, V-B:PRO:540:N:9856, V-B:PRO:540:CA:9855, V-A:TYR:539:C:4867, V-B:PRO:540:CG:9858, V-B:LEU:363:CD1:8161, V-B:PRO:540:CD:9859, V-A:ASP:366:CG:3213, V-A:GLY:454:CA:4049, V-A:ARG:545:CZ:4926, V-A:ALA:541:CB:4892, V-B:TYR:539:CG:9844, V-A:GLU:543:CD:4908, V-B:ILE:369:CG2:8209, V-A:ALA:541:CA:4890, V-A:TYR:484:CZ:4347, V-B:GLU:543:CD:9880, V-B:PRO:482:CG:9299, V-B:SER:385:CB:8381, V-B:PRO:482:CB:9298, V-A:PRO:540:C:4881, H-B:TYR:484:OH:9320, H-A:TYR:484:OH:4348, H-A:ARG:545:NE:4924, H-A:ARG:545:NH1:4927, H-A:ARG:545:NH2:4928, V-A:TYR:484:CE2:4346, V-A:ARG:545:CD:4923, H-A:GLY:454:N:4050, V-A:HIS:456:CE1:4070, V-B:TYR:539:CA:9841, V-A:ARG:545:CG:4922"]

$$$$
RR2_Rahimova_2017
     RDKit          3D

 46 50  0  0  0  0  0  0  0  0999 V2000
  133.5310  123.2930   61.2340 C   0  0  0  0  0  0  0  0  0  0  0  0
  133.9630  123.3280   59.8780 O   0  0  0  0  0  0  0  0  0  0  0  0
  133.3810  124.2320   59.0080 C   0  0  0  0  0  0  0  0  0  0  0  0
  133.7360  124.3740   57.6600 C   0  0  0  0  0  0  0  0  0  0  0  0
  133.0960  125.3160   56.8600 C   0  0  0  0  0  0  0  0  0  0  0  0
  132.0900  126.1380   57.3860 C   0  0  0  0  0  0  0  0  0  0  0  0
  131.4130  127.1610   56.4950 C   0  0  0  0  0  0  0  0  0  0  0  0
  130.9710  126.8290   55.3900 O   0  0  0  0  0  0  0  0  0  0  0  0
  131.3500  128.4210   56.9850 N   0  0  0  0  0  0  0  0  0  0  0  0
  130.8230  129.4170   56.1700 N   0  0  0  0  0  0  0  0  0  0  0  0
  131.2460  130.6830   56.3550 C   0  0  0  0  0  0  0  0  0  0  0  0
  131.9320  131.0660   57.3080 O   0  0  0  0  0  0  0  0  0  0  0  0
  130.8390  131.6830   55.2640 C   0  0  0  0  0  0  0  0  0  0  0  0
  129.0760  132.1750   55.2830 S   0  0  0  0  0  0  0  0  0  0  0  0
  128.3220  130.6620   55.8000 C   0  0  0  0  0  0  0  0  0  0  0  0
  127.6200  129.9040   54.9960 N   0  0  0  0  0  0  0  0  0  0  0  0
  127.1230  128.8480   55.7470 N   0  0  0  0  0  0  0  0  0  0  0  0
  127.5680  128.9920   56.9730 C   0  0  0  0  0  0  0  0  0  0  0  0
  127.2570  128.0350   58.0780 C   0  0  0  0  0  0  0  0  0  0  0  0
  127.9360  126.8160   58.1510 C   0  0  0  0  0  0  0  0  0  0  0  0
  127.6490  125.9150   59.1720 C   0  0  0  0  0  0  0  0  0  0  0  0
  126.6900  126.2330   60.1400 C   0  0  0  0  0  0  0  0  0  0  0  0
  126.3520  125.3590   61.1850 N   0  0  0  0  0  0  0  0  0  0  0  0
  125.7000  123.7200   60.9630 S   0  0  0  0  0  0  0  0  0  0  0  0
  124.2560  123.8240   61.2030 O   0  0  0  0  0  0  0  0  0  0  0  0
  126.5270  122.7920   61.7420 O   0  0  0  0  0  0  0  0  0  0  0  0
  125.9090  123.3650   59.2200 C   0  0  0  0  0  0  0  0  0  0  0  0
  127.1140  122.8490   58.7380 C   0  0  0  0  0  0  0  0  0  0  0  0
  127.2620  122.5950   57.3770 C   0  0  0  0  0  0  0  0  0  0  0  0
  126.2040  122.8490   56.5010 C   0  0  0  0  0  0  0  0  0  0  0  0
  126.3720  122.5850   55.0160 C   0  0  0  0  0  0  0  0  0  0  0  0
  125.0010  123.3680   56.9850 C   0  0  0  0  0  0  0  0  0  0  0  0
  124.8530  123.6240   58.3450 C   0  0  0  0  0  0  0  0  0  0  0  0
  126.0150  127.4520   60.0670 C   0  0  0  0  0  0  0  0  0  0  0  0
  126.2970  128.3510   59.0430 C   0  0  0  0  0  0  0  0  0  0  0  0
  128.3400  130.1380   57.0790 N   0  0  0  0  0  0  0  0  0  0  0  0
  128.9620  130.6730   58.2260 C   0  0  0  0  0  0  0  0  0  0  0  0
  129.7610  129.8580   59.0290 C   0  0  0  0  0  0  0  0  0  0  0  0
  130.3760  130.3940   60.1570 C   0  0  0  0  0  0  0  0  0  0  0  0
  130.1980  131.7370   60.4930 C   0  0  0  0  0  0  0  0  0  0  0  0
  130.8470  132.1760   61.6310 O   0  0  0  0  0  0  0  0  0  0  0  0
  132.0370  131.5160   62.0520 C   0  0  0  0  0  0  0  0  0  0  0  0
  129.3920  132.5490   59.6790 C   0  0  0  0  0  0  0  0  0  0  0  0
  128.7770  132.0190   58.5490 C   0  0  0  0  0  0  0  0  0  0  0  0
  131.7360  125.9860   58.7350 C   0  0  0  0  0  0  0  0  0  0  0  0
  132.3760  125.0420   59.5330 C   0  0  0  0  0  0  0  0  0  0  0  0
  1  2  1  0
  2  3  1  0
  3  4  2  0
  4  5  1  0
  5  6  2  0
  6  7  1  0
  7  8  2  0
  7  9  1  0
  9 10  1  0
 10 11  1  0
 11 12  2  0
 11 13  1  0
 13 14  1  0
 14 15  1  0
 15 16  2  0
 16 17  1  0
 17 18  2  0
 18 19  1  0
 19 20  2  0
 20 21  1  0
 21 22  2  0
 22 23  1  0
 23 24  1  0
 24 25  2  0
 24 26  2  0
 24 27  1  0
 27 28  2  0
 28 29  1  0
 29 30  2  0
 30 31  1  0
 30 32  1  0
 32 33  2  0
 22 34  1  0
 34 35  2  0
 18 36  1  0
 36 37  1  0
 37 38  2  0
 38 39  1  0
 39 40  2  0
 40 41  1  0
 41 42  1  0
 40 43  1  0
 43 44  2  0
  6 45  1  0
 45 46  2  0
 46  3  1  0
 36 15  1  0
 44 37  1  0
 35 19  1  0
 33 27  1  0
M  END
>  <Binding energies>  (49) 
[-11.44]

>  <Ligand effiencies>  (49) 
[-0.23346938775510204]

>  <Interactions>  (49) 
["V-B:PRO:540:CB:9857, V-A:PRO:540:N:4884, V-B:TYR:539:C:9839, V-B:ILE:538:C:9830, V-B:TYR:531:CE2:9765, V-B:ASP:366:CG:8185, V-B:ILE:538:CA:9832, V-B:PRO:540:N:9856, V-B:PRO:540:CA:9855, H-A:ALA:541:N:4891, V-A:TYR:531:CZ:4794, V-B:TYR:539:CD2:9846, V-A:PRO:540:CA:4883, V-B:MET:535:CE:9807, H-B:LYS:534:NZ:9795, V-B:TYR:539:CE2:9848, V-B:TYR:531:CZ:9766, V-B:TYR:539:CZ:9849, V-A:TYR:539:C:4867, V-B:LEU:363:CD1:8161, V-B:ILE:538:CD1:9837, V-A:ASP:366:CG:3213, V-A:ILE:369:CD1:3239, V-A:GLU:543:CG:4907, V-A:ILE:369:CG2:3237, V-B:TYR:539:CG:9844, V-A:GLU:543:CD:4908, H-B:TYR:531:OH:9767, V-B:ASP:366:CB:8184, V-A:ASP:366:CB:3212, V-A:ALA:541:CA:4890, H-A:TYR:531:OH:4795, V-A:ALA:541:C:4888, V-A:ASP:366:CA:3210, V-A:ILE:369:CB:3236, V-A:PRO:540:C:4881, H-B:ASP:366:OD2:8187, H-B:GLU:543:OE1:9881, H-B:GLU:543:OE2:9882, H-B:ALA:541:N:9863, H-B:ARG:545:NH2:9900, V-A:ASP:366:C:3208, H-B:TYR:539:OH:9850, V-B:TYR:539:CA:9841, H-A:ASP:366:OD1:3214"]

$$$$
RR33_Rahimova_2017
     RDKit          3D

 18 19  0  0  0  0  0  0  0  0999 V2000
  130.5070  114.5220   61.0110 C   0  0  0  0  0  0  0  0  0  0  0  0
  131.7570  115.3770   61.2420 C   0  0  0  0  0  0  0  0  0  0  0  0
  131.8080  116.3920   60.2440 O   0  0  0  0  0  0  0  0  0  0  0  0
  131.2620  117.6330   60.5100 C   0  0  0  0  0  0  0  0  0  0  0  0
  130.1710  117.6590   61.3780 C   0  0  0  0  0  0  0  0  0  0  0  0
  129.5530  118.8630   61.7030 C   0  0  0  0  0  0  0  0  0  0  0  0
  130.0200  120.0650   61.1620 C   0  0  0  0  0  0  0  0  0  0  0  0
  129.3550  121.3580   61.5110 C   0  0  0  0  0  0  0  0  0  0  0  0
  128.1120  121.7110   61.2720 N   0  0  0  0  0  0  0  0  0  0  0  0
  127.9950  122.9340   61.7650 C   0  0  0  0  0  0  0  0  0  0  0  0
  126.6800  123.6810   61.6880 C   0  0  0  0  0  0  0  0  0  0  0  0
  125.6290  122.9440   62.3730 N   0  0  0  0  0  0  0  0  0  0  0  0
  124.3360  123.2140   61.7680 C   0  0  0  0  0  0  0  0  0  0  0  0
  129.2050  123.3320   62.3190 C   0  0  0  0  0  0  0  0  0  0  0  0
  129.7100  124.5700   63.0190 C   0  0  0  0  0  0  0  0  0  0  0  0
  130.0790  122.3130   62.1520 O   0  0  0  0  0  0  0  0  0  0  0  0
  131.1170  120.0440   60.2950 C   0  0  0  0  0  0  0  0  0  0  0  0
  131.7350  118.8390   59.9690 C   0  0  0  0  0  0  0  0  0  0  0  0
  1  2  1  0
  2  3  1  0
  3  4  1  0
  4  5  2  0
  5  6  1  0
  6  7  2  0
  7  8  1  0
  8  9  2  0
  9 10  1  0
 10 11  1  0
 11 12  1  0
 12 13  1  0
 10 14  2  0
 14 15  1  0
 14 16  1  0
  7 17  1  0
 17 18  2  0
 18  4  1  0
 16  8  1  0
M  END
>  <Binding energies>  (50) 
[-5.99]

>  <Ligand effiencies>  (50) 
[-0.31526315789473686]

>  <Interactions>  (50) 
["V-B:PRO:540:CB:9857, V-B:TYR:539:C:9839, V-B:PRO:540:CA:9855, V-B:TYR:539:CD2:9846, V-B:TYR:539:CE2:9848, V-A:LEU:475:CD2:4259, V-B:ALA:541:CB:9864, V-A:TYR:484:CZ:4347, V-B:GLU:543:CD:9880, V-A:SER:385:CB:3409, H-A:TYR:484:OH:4348, V-A:HIS:383:CE1:3394, V-A:PRO:482:CG:4327, V-A:LEU:475:CG:4257, V-A:PRO:482:CB:4326, V-A:LEU:475:CD1:4258, H-B:GLU:543:OE1:9881, H-B:ALA:541:N:9863, V-B:ASN:362:CB:8148, H-B:ALA:541:O:9861, V-B:VAL:344:CG1:7973, H-A:SER:385:OG:3410, V-A:CYS:476:C:4264, V-A:THR:477:CG2:4273"]

$$$$
RR3_Rahimova_2017
     RDKit          3D

 38 44  0  0  0  0  0  0  0  0999 V2000
  126.6990  122.5080   57.5070 C   0  0  0  0  0  0  0  0  0  0  0  0
  125.4450  123.0720   57.7140 C   0  0  0  0  0  0  0  0  0  0  0  0
  125.3430  124.3320   58.2970 C   0  0  0  0  0  0  0  0  0  0  0  0
  126.4910  125.0440   58.6780 C   0  0  0  0  0  0  0  0  0  0  0  0
  126.3800  126.3990   59.3030 C   0  0  0  0  0  0  0  0  0  0  0  0
  126.6370  126.5860   60.6680 C   0  0  0  0  0  0  0  0  0  0  0  0
  126.5300  127.8460   61.2500 C   0  0  0  0  0  0  0  0  0  0  0  0
  126.1570  128.9500   60.4790 C   0  0  0  0  0  0  0  0  0  0  0  0
  126.0350  130.3070   61.0990 C   0  0  0  0  0  0  0  0  0  0  0  0
  125.7760  131.3650   60.3390 N   0  0  0  0  0  0  0  0  0  0  0  0
  125.6820  132.3930   61.1460 C   0  0  0  0  0  0  0  0  0  0  0  0
  125.4040  133.7660   60.7320 C   0  0  0  0  0  0  0  0  0  0  0  0
  124.2010  134.2330   60.2290 C   0  0  0  0  0  0  0  0  0  0  0  0
  124.2920  135.5720   59.9530 N   0  0  0  0  0  0  0  0  0  0  0  0
  125.5540  136.0300   60.2620 C   0  0  0  0  0  0  0  0  0  0  0  0
  126.1140  137.3070   60.1530 C   0  0  0  0  0  0  0  0  0  0  0  0
  127.4420  137.4530   60.5540 C   0  0  0  0  0  0  0  0  0  0  0  0
  128.1830  136.3810   61.0400 C   0  0  0  0  0  0  0  0  0  0  0  0
  127.6250  135.1080   61.1490 C   0  0  0  0  0  0  0  0  0  0  0  0
  126.2890  134.9070   60.7580 C   0  0  0  0  0  0  0  0  0  0  0  0
  125.8870  132.0160   62.4450 N   0  0  0  0  0  0  0  0  0  0  0  0
  126.1430  130.6690   62.4530 C   0  0  0  0  0  0  0  0  0  0  0  0
  126.4750  129.9140   63.6980 C   0  0  0  0  0  0  0  0  0  0  0  0
  125.4860  129.1850   64.3600 C   0  0  0  0  0  0  0  0  0  0  0  0
  125.7890  128.4910   65.5270 C   0  0  0  0  0  0  0  0  0  0  0  0
  127.0870  128.5060   66.0590 C   0  0  0  0  0  0  0  0  0  0  0  0
  127.4040  127.7750   67.3250 C   0  0  0  0  0  0  0  0  0  0  0  0
  128.6590  127.9100   67.9380 C   0  0  0  0  0  0  0  0  0  0  0  0
  128.9530  127.2320   69.1200 C   0  0  0  0  0  0  0  0  0  0  0  0
  127.9910  126.4120   69.7010 C   0  0  0  0  0  0  0  0  0  0  0  0
  126.7410  126.2650   69.1110 C   0  0  0  0  0  0  0  0  0  0  0  0
  126.4510  126.9420   67.9300 C   0  0  0  0  0  0  0  0  0  0  0  0
  128.0750  129.2280   65.3750 C   0  0  0  0  0  0  0  0  0  0  0  0
  127.7760  129.9230   64.2070 C   0  0  0  0  0  0  0  0  0  0  0  0
  125.9120  128.7770   59.1150 C   0  0  0  0  0  0  0  0  0  0  0  0
  126.0190  127.5150   58.5360 C   0  0  0  0  0  0  0  0  0  0  0  0
  127.7450  124.4540   58.4600 C   0  0  0  0  0  0  0  0  0  0  0  0
  127.8500  123.1940   57.8770 C   0  0  0  0  0  0  0  0  0  0  0  0
  1  2  2  0
  2  3  1  0
  3  4  2  0
  4  5  1  0
  5  6  2  0
  6  7  1  0
  7  8  2  0
  8  9  1  0
  9 10  1  0
 10 11  2  0
 11 12  1  0
 12 13  2  0
 13 14  1  0
 14 15  1  0
 15 16  2  0
 16 17  1  0
 17 18  2  0
 18 19  1  0
 19 20  2  0
 11 21  1  0
 21 22  1  0
 22 23  1  0
 23 24  2  0
 24 25  1  0
 25 26  2  0
 26 27  1  0
 27 28  2  0
 28 29  1  0
 29 30  2  0
 30 31  1  0
 31 32  2  0
 26 33  1  0
 33 34  2  0
  8 35  1  0
 35 36  2  0
  4 37  1  0
 37 38  2  0
 38  1  1  0
 36  5  1  0
 22  9  2  0
 34 23  1  0
 20 12  1  0
 32 27  1  0
 20 15  1  0
M  END
>  <Binding energies>  (51) 
[-10.18]

>  <Ligand effiencies>  (51) 
[-0.2545]

>  <Interactions>  (51) 
["V-B:PRO:540:CB:9857, V-B:TYR:539:C:9839, V-A:TYR:539:CE1:4875, V-B:ASP:366:CG:8185, V-A:TYR:539:CD1:4873, V-B:LEU:475:CD2:9231, V-B:PRO:540:N:9856, V-B:PRO:540:CA:9855, V-B:TYR:539:CD2:9846, V-B:TYR:539:CE2:9848, V-A:TYR:539:C:4867, V-B:PRO:540:CD:9859, V-A:ALA:541:CB:4892, V-A:GLU:543:CG:4907, V-B:ARG:545:CZ:9898, V-A:GLU:543:CD:4908, V-B:ASP:366:CB:8184, V-B:ILE:369:CG2:8209, V-A:ALA:541:CA:4890, V-B:GLU:543:CD:9880, V-B:PRO:482:CG:9299, V-B:SER:385:CB:8381, V-B:PRO:482:CB:9298, V-A:PRO:540:C:4881, V-B:HIS:456:CE1:9042, V-B:ARG:545:CD:9895, V-B:ARG:545:CG:9894, H-B:TYR:484:OH:9320, V-B:GLU:543:C:9874, H-B:SER:385:OG:8382, V-B:HIS:383:CD2:8364, V-A:GLU:543:CB:4906, V-A:HIS:456:CE1:4070, V-B:SER:385:CA:8379, V-B:TYR:539:CA:9841, H-B:VAL:384:O:8370, V-B:GLU:543:CB:9878, V-B:GLY:544:C:9884, V-B:ARG:545:CA:9891, V-B:GLU:543:CA:9876"]

$$$$
RR4_Rahimova_2017
     RDKit          3D

 40 44  0  0  0  0  0  0  0  0999 V2000
  132.6770  126.2620   56.1480 C   0  0  0  0  0  0  0  0  0  0  0  0
  131.6290  127.0010   55.5310 O   0  0  0  0  0  0  0  0  0  0  0  0
  130.5910  127.4770   56.3100 C   0  0  0  0  0  0  0  0  0  0  0  0
  130.9140  127.8830   57.6020 C   0  0  0  0  0  0  0  0  0  0  0  0
  129.9330  128.3770   58.4570 C   0  0  0  0  0  0  0  0  0  0  0  0
  128.5960  128.4770   58.0440 C   0  0  0  0  0  0  0  0  0  0  0  0
  127.5400  129.0100   58.9700 C   0  0  0  0  0  0  0  0  0  0  0  0
  127.6430  128.9300   60.3630 C   0  0  0  0  0  0  0  0  0  0  0  0
  126.6320  129.4460   61.1840 C   0  0  0  0  0  0  0  0  0  0  0  0
  126.8250  129.3510   62.6620 C   0  0  0  0  0  0  0  0  0  0  0  0
  126.0170  128.4990   63.4220 C   0  0  0  0  0  0  0  0  0  0  0  0
  126.1980  128.3950   64.7990 C   0  0  0  0  0  0  0  0  0  0  0  0
  127.1910  129.1340   65.4410 C   0  0  0  0  0  0  0  0  0  0  0  0
  127.2960  128.9670   66.8080 O   0  0  0  0  0  0  0  0  0  0  0  0
  128.3680  128.1880   67.3320 C   0  0  0  0  0  0  0  0  0  0  0  0
  128.0070  129.9860   64.6820 C   0  0  0  0  0  0  0  0  0  0  0  0
  127.8250  130.0880   63.3050 C   0  0  0  0  0  0  0  0  0  0  0  0
  125.4930  130.0220   60.5710 C   0  0  0  0  0  0  0  0  0  0  0  0
  124.4060  130.5780   61.3830 C   0  0  0  0  0  0  0  0  0  0  0  0
  123.5490  131.0160   62.0240 N   0  0  0  0  0  0  0  0  0  0  0  0
  125.4410  130.0430   59.1580 C   0  0  0  0  0  0  0  0  0  0  0  0
  124.0850  130.7140   58.2210 S   0  0  0  0  0  0  0  0  0  0  0  0
  124.1670  130.0090   56.5400 C   0  0  0  0  0  0  0  0  0  0  0  0
  125.5540  130.0760   55.8880 C   0  0  0  0  0  0  0  0  0  0  0  0
  125.8530  129.3070   54.9710 O   0  0  0  0  0  0  0  0  0  0  0  0
  126.3810  131.0120   56.4100 N   0  0  0  0  0  0  0  0  0  0  0  0
  127.6920  131.3180   56.0370 C   0  0  0  0  0  0  0  0  0  0  0  0
  128.2920  131.1000   54.4150 S   0  0  0  0  0  0  0  0  0  0  0  0
  129.8670  131.6810   54.8590 C   0  0  0  0  0  0  0  0  0  0  0  0
  129.9250  132.0270   56.2180 C   0  0  0  0  0  0  0  0  0  0  0  0
  128.6870  131.8360   56.8800 C   0  0  0  0  0  0  0  0  0  0  0  0
  128.4760  132.1390   58.2920 C   0  0  0  0  0  0  0  0  0  0  0  0
  128.3080  132.3780   59.4120 N   0  0  0  0  0  0  0  0  0  0  0  0
  131.2000  132.6030   56.8460 C   0  0  0  0  0  0  0  0  0  0  0  0
  132.1730  133.0950   55.7510 C   0  0  0  0  0  0  0  0  0  0  0  0
  132.3260  132.0740   54.6100 C   0  0  0  0  0  0  0  0  0  0  0  0
  130.9990  131.8470   53.8540 C   0  0  0  0  0  0  0  0  0  0  0  0
  126.4470  129.5660   58.3880 N   0  0  0  0  0  0  0  0  0  0  0  0
  128.2810  128.0690   56.7390 C   0  0  0  0  0  0  0  0  0  0  0  0
  129.2600  127.5740   55.8810 C   0  0  0  0  0  0  0  0  0  0  0  0
  1  2  1  0
  2  3  1  0
  3  4  2  0
  4  5  1  0
  5  6  2  0
  6  7  1  0
  7  8  2  0
  8  9  1  0
  9 10  1  0
 10 11  2  0
 11 12  1  0
 12 13  2  0
 13 14  1  0
 14 15  1  0
 13 16  1  0
 16 17  2  0
  9 18  2  0
 18 19  1  0
 19 20  3  0
 18 21  1  0
 21 22  1  0
 22 23  1  0
 23 24  1  0
 24 25  2  0
 24 26  1  0
 26 27  1  0
 27 28  1  0
 28 29  1  0
 29 30  2  0
 30 31  1  0
 31 32  1  0
 32 33  3  0
 30 34  1  0
 34 35  1  0
 35 36  1  0
 36 37  1  0
 21 38  2  0
  6 39  1  0
 39 40  2  0
 40  3  1  0
 38  7  1  0
 17 10  1  0
 31 27  2  0
 37 29  1  0
M  END
>  <Binding energies>  (52) 
[-9.82]

>  <Ligand effiencies>  (52) 
[-0.23951219512195124]

>  <Interactions>  (52) 
["V-A:PRO:540:N:4884, V-A:TYR:539:CE1:4875, V-A:MET:535:CG:4833, V-A:TYR:539:CD1:4873, V-A:TYR:531:CZ:4794, V-A:ILE:538:CA:4860, V-A:TYR:539:CZ:4877, V-A:PRO:540:CA:4883, V-A:ILE:538:CG2:4863, V-B:MET:535:CE:9807, H-B:LYS:534:NZ:9795, H-A:TYR:539:OH:4878, V-A:TYR:539:C:4867, V-A:TYR:539:CE2:4876, V-A:GLU:543:CG:4907, V-B:ARG:545:CZ:9898, V-A:GLU:543:CD:4908, V-A:ILE:538:CB:4862, V-B:TYR:531:CE1:9764, V-B:TYR:484:CZ:9319, H-B:TYR:531:OH:9767, V-B:ASP:366:CB:8184, V-A:PRO:540:CG:4886, V-A:PRO:540:CB:4885, V-A:ASP:366:CB:3212, V-B:ASP:366:C:8180, H-A:TYR:531:OH:4795, V-A:PRO:540:CD:4887, V-A:LEU:363:CD1:3189, V-B:ASP:366:CA:8182, V-A:TYR:531:CE2:4793, V-A:ASP:366:CA:3210, V-B:GLU:543:CD:9880, H-B:GLY:454:N:9022, V-B:HIS:456:CE1:9042, H-B:TYR:484:OH:9320, V-A:ASP:366:C:3208, V-A:GLU:543:CB:4906, V-A:TYR:531:CE1:4792"]

$$$$
RR6_Rahimova_2017
     RDKit          3D

 38 41  0  0  0  0  0  0  0  0999 V2000
  131.1460  132.4890   55.0000 C   0  0  0  0  0  0  0  0  0  0  0  0
  130.1120  133.0200   54.1840 O   0  0  0  0  0  0  0  0  0  0  0  0
  129.0180  132.2780   53.8720 C   0  0  0  0  0  0  0  0  0  0  0  0
  128.5150  132.2500   52.7440 O   0  0  0  0  0  0  0  0  0  0  0  0
  128.4810  131.4930   55.0340 C   0  0  0  0  0  0  0  0  0  0  0  0
  128.4420  130.0910   55.0300 C   0  0  0  0  0  0  0  0  0  0  0  0
  127.9300  129.3920   56.1220 C   0  0  0  0  0  0  0  0  0  0  0  0
  127.4440  130.0890   57.2380 C   0  0  0  0  0  0  0  0  0  0  0  0
  126.8820  129.4850   58.3780 N   0  0  0  0  0  0  0  0  0  0  0  0
  125.6180  129.5580   58.8500 C   0  0  0  0  0  0  0  0  0  0  0  0
  124.6970  130.1870   58.3290 O   0  0  0  0  0  0  0  0  0  0  0  0
  125.3640  128.8340   60.1770 C   0  0  0  0  0  0  0  0  0  0  0  0
  126.6030  129.2050   61.4630 S   0  0  0  0  0  0  0  0  0  0  0  0
  127.4790  130.6600   60.9280 C   0  0  0  0  0  0  0  0  0  0  0  0
  128.6460  130.4050   60.2900 N   0  0  0  0  0  0  0  0  0  0  0  0
  129.3900  131.4330   59.8100 C   0  0  0  0  0  0  0  0  0  0  0  0
  130.6370  131.0630   59.0630 C   0  0  0  0  0  0  0  0  0  0  0  0
  131.9040  131.4300   59.5440 C   0  0  0  0  0  0  0  0  0  0  0  0
  133.0600  131.0970   58.8440 C   0  0  0  0  0  0  0  0  0  0  0  0
  132.9720  130.3850   57.6480 C   0  0  0  0  0  0  0  0  0  0  0  0
  134.2350  130.0330   56.8840 C   0  0  0  0  0  0  0  0  0  0  0  0
  131.7250  130.0100   57.1550 C   0  0  0  0  0  0  0  0  0  0  0  0
  130.5720  130.3440   57.8590 C   0  0  0  0  0  0  0  0  0  0  0  0
  128.9710  132.7570   59.9770 C   0  0  0  0  0  0  0  0  0  0  0  0
  127.7690  133.0480   60.6370 C   0  0  0  0  0  0  0  0  0  0  0  0
  127.3730  134.4820   60.7640 C   0  0  0  0  0  0  0  0  0  0  0  0
  128.2430  135.4010   61.3580 C   0  0  0  0  0  0  0  0  0  0  0  0
  127.8890  136.7430   61.4660 C   0  0  0  0  0  0  0  0  0  0  0  0
  126.6630  137.1930   60.9780 C   0  0  0  0  0  0  0  0  0  0  0  0
  126.3970  138.5410   61.1270 O   0  0  0  0  0  0  0  0  0  0  0  0
  126.0980  139.0500   62.4220 C   0  0  0  0  0  0  0  0  0  0  0  0
  125.7880  136.2760   60.3760 C   0  0  0  0  0  0  0  0  0  0  0  0
  126.1460  134.9350   60.2690 C   0  0  0  0  0  0  0  0  0  0  0  0
  126.9980  131.9690   61.1360 C   0  0  0  0  0  0  0  0  0  0  0  0
  125.7450  132.2030   61.8610 C   0  0  0  0  0  0  0  0  0  0  0  0
  124.7560  132.3880   62.4330 N   0  0  0  0  0  0  0  0  0  0  0  0
  127.4980  131.4830   57.2530 C   0  0  0  0  0  0  0  0  0  0  0  0
  128.0070  132.1800   56.1600 C   0  0  0  0  0  0  0  0  0  0  0  0
  1  2  1  0
  2  3  1  0
  3  4  2  0
  3  5  1  0
  5  6  2  0
  6  7  1  0
  7  8  2  0
  8  9  1  0
  9 10  1  0
 10 11  2  0
 10 12  1  0
 12 13  1  0
 13 14  1  0
 14 15  2  0
 15 16  1  0
 16 17  1  0
 17 18  2  0
 18 19  1  0
 19 20  2  0
 20 21  1  0
 20 22  1  0
 22 23  2  0
 16 24  2  0
 24 25  1  0
 25 26  1  0
 26 27  2  0
 27 28  1  0
 28 29  2  0
 29 30  1  0
 30 31  1  0
 29 32  1  0
 32 33  2  0
 25 34  2  0
 34 35  1  0
 35 36  3  0
  8 37  1  0
 37 38  2  0
 38  5  1  0
 34 14  1  0
 23 17  1  0
 33 26  1  0
M  END
>  <Binding energies>  (53) 
[-9.11]

>  <Ligand effiencies>  (53) 
[-0.23358974358974358]

>  <Interactions>  (53) 
["V-A:TYR:539:CE1:4875, H-A:TYR:539:N:4870, V-B:ASP:366:CG:8185, V-A:TYR:539:CD1:4873, V-B:LEU:475:CD2:9231, V-A:TYR:531:CZ:4794, V-A:ILE:538:CA:4860, V-A:TYR:539:CZ:4877, V-A:PRO:540:CA:4883, V-A:ILE:538:CG2:4863, H-B:LYS:534:NZ:9795, V-A:TYR:539:C:4867, V-A:TYR:539:CG:4872, V-A:TYR:539:CD2:4874, V-A:TYR:539:CE2:4876, V-A:ASP:366:CG:3213, V-A:ALA:541:CB:4892, V-A:ILE:538:CB:4862, V-B:ASP:366:CB:8184, V-A:PRO:540:CB:4885, V-A:ASP:366:CB:3212, V-A:LEU:363:CA:3185, V-A:ALA:541:CA:4890, V-A:LEU:363:CD1:3189, V-A:TYR:531:CE2:4793, V-B:PRO:482:CG:9299, V-B:SER:385:CB:8381, V-B:PRO:482:CB:9298, V-A:PRO:540:C:4881, H-B:SER:385:OG:8382, V-B:LEU:475:CG:9229, V-A:LEU:363:C:3183, H-B:HIS:383:NE2:8366, V-B:HIS:383:CE1:8365"]

$$$$
RR7_Rahimova_2017
     RDKit          3D

 47 53  0  0  0  0  0  0  0  0999 V2000
  126.0640  130.3860   60.6580 C   0  0  0  0  0  0  0  0  0  0  0  0
  126.9570  129.9810   59.6250 O   0  0  0  0  0  0  0  0  0  0  0  0
  127.1880  128.6330   59.4260 C   0  0  0  0  0  0  0  0  0  0  0  0
  126.7240  128.0930   58.2280 C   0  0  0  0  0  0  0  0  0  0  0  0
  126.9150  126.7460   57.9360 C   0  0  0  0  0  0  0  0  0  0  0  0
  127.5660  125.9010   58.8470 C   0  0  0  0  0  0  0  0  0  0  0  0
  127.8230  124.3940   58.5320 C   0  0  0  0  0  0  0  0  0  0  0  0
  129.0910  124.3330   57.8410 O   0  0  0  0  0  0  0  0  0  0  0  0
  130.0790  125.3430   58.0660 C   0  0  0  0  0  0  0  0  0  0  0  0
  130.4520  125.9860   56.7200 C   0  0  1  0  0  0  0  0  0  0  0  0
  129.7270  127.2100   56.6330 O   0  0  0  0  0  0  0  0  0  0  0  0
  130.5760  128.3120   56.4880 C   0  0  1  0  0  0  0  0  0  0  0  0
  130.0050  129.4720   57.1450 N   0  0  0  0  0  0  0  0  0  0  0  0
  129.1680  130.4330   56.6040 C   0  0  0  0  0  0  0  0  0  0  0  0
  128.8350  131.4070   57.4140 N   0  0  0  0  0  0  0  0  0  0  0  0
  129.5190  131.1230   58.5650 C   0  0  0  0  0  0  0  0  0  0  0  0
  129.5980  131.7890   59.8030 C   0  0  0  0  0  0  0  0  0  0  0  0
  128.8560  132.9720   59.9830 N   0  0  0  0  0  0  0  0  0  0  0  0
  128.1010  133.3520   61.0410 C   0  0  0  0  0  0  0  0  0  0  0  0
  127.9300  132.6690   62.0530 O   0  0  0  0  0  0  0  0  0  0  0  0
  127.4190  134.6970   60.9090 C   0  0  0  0  0  0  0  0  0  0  0  0
  128.0900  135.8590   61.3220 C   0  0  0  0  0  0  0  0  0  0  0  0
  127.4840  137.1060   61.2050 C   0  0  0  0  0  0  0  0  0  0  0  0
  126.2040  137.2040   60.6700 C   0  0  0  0  0  0  0  0  0  0  0  0
  125.5230  136.0640   60.2510 C   0  0  0  0  0  0  0  0  0  0  0  0
  126.1280  134.8150   60.3690 C   0  0  0  0  0  0  0  0  0  0  0  0
  130.3920  131.2730   60.7900 N   0  0  0  0  0  0  0  0  0  0  0  0
  131.0750  130.1300   60.5210 C   0  0  0  0  0  0  0  0  0  0  0  0
  131.0680  129.4070   59.3690 N   0  0  0  0  0  0  0  0  0  0  0  0
  130.2770  129.9320   58.4240 C   0  0  0  0  0  0  0  0  0  0  0  0
  131.9220  127.8570   57.0400 C   0  0  0  0  0  0  0  0  0  0  0  0
  131.9230  126.4070   56.5880 C   0  0  2  0  0  0  0  0  0  0  0  0
  132.4100  126.2630   55.2650 O   0  0  0  0  0  0  0  0  0  0  0  0
  127.9670  123.5380   59.8190 C   0  0  0  0  0  0  0  0  0  0  0  0
  127.0160  123.6410   60.8480 C   0  0  0  0  0  0  0  0  0  0  0  0
  127.1430  122.8890   62.0110 C   0  0  0  0  0  0  0  0  0  0  0  0
  128.2240  122.0260   62.1600 C   0  0  0  0  0  0  0  0  0  0  0  0
  129.1780  121.9080   61.1530 C   0  0  0  0  0  0  0  0  0  0  0  0
  129.0510  122.6610   59.9900 C   0  0  0  0  0  0  0  0  0  0  0  0
  126.7320  123.6850   57.6790 C   0  0  0  0  0  0  0  0  0  0  0  0
  127.0570  123.1260   56.4330 C   0  0  0  0  0  0  0  0  0  0  0  0
  126.0870  122.4990   55.6590 C   0  0  0  0  0  0  0  0  0  0  0  0
  124.7750  122.4310   56.1190 C   0  0  0  0  0  0  0  0  0  0  0  0
  124.4280  122.9900   57.3450 C   0  0  0  0  0  0  0  0  0  0  0  0
  125.4000  123.6170   58.1180 C   0  0  0  0  0  0  0  0  0  0  0  0
  128.0430  126.4520   60.0450 C   0  0  0  0  0  0  0  0  0  0  0  0
  127.8530  127.8000   60.3360 C   0  0  0  0  0  0  0  0  0  0  0  0
  1  2  1  0
  2  3  1  0
  3  4  2  0
  4  5  1  0
  5  6  2  0
  6  7  1  0
  7  8  1  0
  8  9  1  0
 10  9  1  1
 10 11  1  0
 11 12  1  0
 12 13  1  1
 13 14  1  0
 14 15  2  0
 15 16  1  0
 16 17  2  0
 17 18  1  0
 18 19  1  0
 19 20  2  0
 19 21  1  0
 21 22  2  0
 22 23  1  0
 23 24  2  0
 24 25  1  0
 25 26  2  0
 17 27  1  0
 27 28  2  0
 28 29  1  0
 29 30  2  0
 12 31  1  0
 31 32  1  0
 32 33  1  6
  7 34  1  0
 34 35  2  0
 35 36  1  0
 36 37  2  0
 37 38  1  0
 38 39  2  0
  7 40  1  0
 40 41  2  0
 41 42  1  0
 42 43  2  0
 43 44  1  0
 44 45  2  0
  6 46  1  0
 46 47  2  0
 47  3  1  0
 32 10  1  0
 39 34  1  0
 45 40  1  0
 30 13  1  0
 30 16  1  0
 26 21  1  0
M  END
>  <Binding energies>  (54) 
[-10.57]

>  <Ligand effiencies>  (54) 
[-0.21571428571428572]

>  <Interactions>  (54) 
["V-B:PRO:540:CB:9857, V-A:PRO:540:N:4884, V-A:TYR:539:CE1:4875, V-B:ILE:538:C:9830, V-B:TYR:531:CE2:9765, V-A:TYR:539:CD1:4873, V-B:LEU:475:CD2:9231, V-B:ILE:538:CA:9832, V-B:PRO:540:N:9856, H-A:TYR:539:O:4868, V-B:PRO:540:CA:9855, V-B:TYR:539:CD2:9846, V-A:PRO:540:CA:4883, V-B:MET:535:CE:9807, V-B:TYR:539:CE2:9848, V-A:TYR:539:C:4867, V-B:PRO:540:CG:9858, V-B:LEU:363:CD1:8161, V-B:PRO:540:CD:9859, V-B:ILE:538:CD1:9837, V-B:ILE:538:CG2:9835, V-A:ASP:366:CG:3213, V-A:ALA:541:CB:4892, V-A:ASP:366:CB:3212, V-A:ALA:541:CA:4890, H-A:TYR:531:OH:4795, V-B:ALA:541:CB:9864, V-B:ALA:541:CA:9862, V-B:PRO:540:C:9853, V-B:GLU:543:CD:9880, V-B:GLU:543:CG:9879, V-B:PRO:482:CG:9299, V-B:SER:385:CB:8381, V-B:PRO:482:CB:9298, V-A:PRO:540:C:4881, H-B:TYR:539:OH:9850, H-A:ASP:366:O:3209"]

$$$$
RR8_A_Rahimova_2017
     RDKit          3D

 42 46  0  0  0  0  0  0  0  0999 V2000
  125.6030  128.2750   61.8640 O   0  0  0  0  0  0  0  0  0  0  0  0
  125.4790  129.2960   61.1780 C   0  0  0  0  0  0  0  0  0  0  0  0
  125.2650  130.5490   61.6880 O   0  0  0  0  0  0  0  0  0  0  0  0
  126.3530  131.4310   61.7170 C   0  0  1  0  0  0  0  0  0  0  0  0
  127.5380  130.7780   62.0710 O   0  0  0  0  0  0  0  0  0  0  0  0
  128.6540  131.2720   61.3360 C   0  0  2  0  0  0  0  0  0  0  0  0
  129.7300  131.7380   62.3320 C   0  0  0  0  0  0  0  0  0  0  0  0
  130.8790  132.1510   61.6060 O   0  0  0  0  0  0  0  0  0  0  0  0
  131.8340  131.1180   61.3990 C   0  0  0  0  0  0  0  0  0  0  0  0
  131.7930  130.6600   59.9490 C   0  0  0  0  0  0  0  0  0  0  0  0
  130.7900  129.7860   59.5220 C   0  0  0  0  0  0  0  0  0  0  0  0
  130.7470  129.3710   58.1930 C   0  0  0  0  0  0  0  0  0  0  0  0
  131.7040  129.8350   57.2930 C   0  0  0  0  0  0  0  0  0  0  0  0
  132.7040  130.7110   57.7090 C   0  0  0  0  0  0  0  0  0  0  0  0
  132.7470  131.1270   59.0370 C   0  0  0  0  0  0  0  0  0  0  0  0
  128.0520  132.3720   60.4520 C   0  0  1  0  0  0  0  0  0  0  0  0
  128.6150  132.4110   59.1420 O   0  0  0  0  0  0  0  0  0  0  0  0
  127.8380  131.8000   58.1190 C   0  0  0  0  0  0  0  0  0  0  0  0
  128.5320  131.9610   56.7740 C   0  0  0  0  0  0  0  0  0  0  0  0
  129.8440  132.4430   56.7230 C   0  0  0  0  0  0  0  0  0  0  0  0
  130.4820  132.6020   55.4970 C   0  0  0  0  0  0  0  0  0  0  0  0
  129.8060  132.2810   54.3200 C   0  0  0  0  0  0  0  0  0  0  0  0
  128.4980  131.8070   54.3600 C   0  0  0  0  0  0  0  0  0  0  0  0
  127.8580  131.6500   55.5880 C   0  0  0  0  0  0  0  0  0  0  0  0
  126.6010  131.9500   60.3070 C   0  0  2  0  0  0  0  0  0  0  0  0
  125.7870  133.0650   59.9550 O   0  0  0  0  0  0  0  0  0  0  0  0
  125.5390  134.0020   60.9980 C   0  0  0  0  0  0  0  0  0  0  0  0
  126.1150  135.3590   60.6230 C   0  0  0  0  0  0  0  0  0  0  0  0
  125.3630  136.2540   59.8530 C   0  0  0  0  0  0  0  0  0  0  0  0
  125.8910  137.4990   59.5210 C   0  0  0  0  0  0  0  0  0  0  0  0
  127.1650  137.8480   59.9610 C   0  0  0  0  0  0  0  0  0  0  0  0
  127.9180  136.9660   60.7330 C   0  0  0  0  0  0  0  0  0  0  0  0
  127.3910  135.7200   61.0660 C   0  0  0  0  0  0  0  0  0  0  0  0
  125.5630  129.2880   59.6790 C   0  0  0  0  0  0  0  0  0  0  0  0
  126.5770  128.5970   58.9960 C   0  0  0  0  0  0  0  0  0  0  0  0
  126.6280  128.6090   57.6050 C   0  0  0  0  0  0  0  0  0  0  0  0
  125.6710  129.3110   56.8610 C   0  0  0  0  0  0  0  0  0  0  0  0
  125.7250  129.3220   55.3790 N   0  0  0  0  0  0  0  0  0  0  0  0
  125.0380  130.1370   54.7710 O   0  0  0  0  0  0  0  0  0  0  0  0
  126.4570  128.5160   54.8120 O   0  0  0  0  0  0  0  0  0  0  0  0
  124.6610  130.0020   57.5440 C   0  0  0  0  0  0  0  0  0  0  0  0
  124.6080  129.9910   58.9340 C   0  0  0  0  0  0  0  0  0  0  0  0
  1  2  2  0
  2  3  1  0
  4  3  1  6
  4  5  1  0
  5  6  1  0
  6  7  1  1
  7  8  1  0
  8  9  1  0
  9 10  1  0
 10 11  2  0
 11 12  1  0
 12 13  2  0
 13 14  1  0
 14 15  2  0
  6 16  1  0
 16 17  1  6
 17 18  1  0
 18 19  1  0
 19 20  2  0
 20 21  1  0
 21 22  2  0
 22 23  1  0
 23 24  2  0
 16 25  1  0
 25 26  1  1
 26 27  1  0
 27 28  1  0
 28 29  2  0
 29 30  1  0
 30 31  2  0
 31 32  1  0
 32 33  2  0
  2 34  1  0
 34 35  2  0
 35 36  1  0
 36 37  2  0
 37 38  1  0
 38 39  2  0
 38 40  1  0
 37 41  1  0
 41 42  2  0
 25  4  1  0
 33 28  1  0
 42 34  1  0
 15 10  1  0
 24 19  1  0
M  CHG  2  38   1  40  -1
M  END
>  <Binding energies>  (55) 
[-10.45]

>  <Ligand effiencies>  (55) 
[-0.24880952380952379]

>  <Interactions>  (55) 
["V-A:PRO:540:N:4884, V-A:TYR:539:CE1:4875, V-B:ASP:366:CG:8185, V-A:TYR:539:CD1:4873, V-B:LEU:475:CD2:9231, H-A:ALA:541:N:4891, V-A:ILE:538:CA:4860, V-A:TYR:539:CZ:4877, V-A:PRO:540:CA:4883, V-A:ILE:538:CG2:4863, H-B:LYS:534:NZ:9795, H-A:TYR:539:OH:4878, V-B:TYR:531:CZ:9766, V-A:TYR:539:C:4867, V-A:TYR:539:CG:4872, V-A:TYR:539:CD2:4874, V-A:TYR:539:CE2:4876, V-A:ASP:366:CG:3213, V-A:ALA:541:CB:4892, V-A:GLU:543:CG:4907, V-A:GLU:543:CD:4908, V-A:ILE:538:CB:4862, V-B:TYR:531:CE1:9764, H-B:TYR:531:OH:9767, V-B:ASP:366:CB:8184, V-A:PRO:540:CB:4885, V-A:ASP:366:CB:3212, V-A:ALA:541:CA:4890, V-B:ASP:366:CA:8182, V-B:PRO:482:CG:9299, V-B:SER:385:CB:8381, V-B:PRO:482:CB:9298, V-B:TYR:531:CD1:9762, H-B:ARG:545:NH2:9900, V-A:TYR:539:CB:4871, V-B:HIS:383:CD2:8364, V-A:VAL:344:CG1:3001"]

$$$$
RR8_B_Rahimova_2017
     RDKit          3D

 42 46  0  0  0  0  0  0  0  0999 V2000
  124.7200  131.6890   61.6740 O   0  0  0  0  0  0  0  0  0  0  0  0
  125.5420  132.1250   60.8620 C   0  0  0  0  0  0  0  0  0  0  0  0
  126.2670  131.3460   60.0030 O   0  0  0  0  0  0  0  0  0  0  0  0
  125.6970  131.0180   58.7600 C   0  0  2  0  0  0  0  0  0  0  0  0
  125.2520  129.6920   58.7230 O   0  0  0  0  0  0  0  0  0  0  0  0
  126.2640  128.8150   58.2310 C   0  0  2  0  0  0  0  0  0  0  0  0
  126.5650  127.7350   59.2850 C   0  0  0  0  0  0  0  0  0  0  0  0
  126.0210  126.4940   58.8520 O   0  0  0  0  0  0  0  0  0  0  0  0
  126.9700  125.4520   58.6800 C   0  0  0  0  0  0  0  0  0  0  0  0
  126.3830  124.3870   57.7670 C   0  0  0  0  0  0  0  0  0  0  0  0
  125.0850  123.9170   57.9930 C   0  0  0  0  0  0  0  0  0  0  0  0
  124.5500  122.9240   57.1760 C   0  0  0  0  0  0  0  0  0  0  0  0
  125.3150  122.4050   56.1330 C   0  0  0  0  0  0  0  0  0  0  0  0
  126.6060  122.8720   55.8980 C   0  0  0  0  0  0  0  0  0  0  0  0
  127.1430  123.8630   56.7170 C   0  0  0  0  0  0  0  0  0  0  0  0
  127.4350  129.7430   57.8850 C   0  0  1  0  0  0  0  0  0  0  0  0
  128.1140  129.2560   56.7250 O   0  0  0  0  0  0  0  0  0  0  0  0
  127.5210  129.5430   55.4560 C   0  0  0  0  0  0  0  0  0  0  0  0
  128.3700  130.5000   54.6240 C   0  0  0  0  0  0  0  0  0  0  0  0
  127.8950  131.7800   54.3250 C   0  0  0  0  0  0  0  0  0  0  0  0
  128.6860  132.6620   53.5930 C   0  0  0  0  0  0  0  0  0  0  0  0
  129.9470  132.2590   53.1590 C   0  0  0  0  0  0  0  0  0  0  0  0
  130.4260  130.9830   53.4490 C   0  0  0  0  0  0  0  0  0  0  0  0
  129.6360  130.1020   54.1850 C   0  0  0  0  0  0  0  0  0  0  0  0
  126.7660  131.0970   57.6710 C   0  0  2  0  0  0  0  0  0  0  0  0
  127.7060  132.1510   57.8630 O   0  0  0  0  0  0  0  0  0  0  0  0
  128.7810  131.8620   58.7430 C   0  0  0  0  0  0  0  0  0  0  0  0
  130.0640  131.8300   57.9310 C   0  0  0  0  0  0  0  0  0  0  0  0
  131.1240  131.0060   58.3190 C   0  0  0  0  0  0  0  0  0  0  0  0
  132.3040  130.9990   57.5770 C   0  0  0  0  0  0  0  0  0  0  0  0
  132.4190  131.8150   56.4540 C   0  0  0  0  0  0  0  0  0  0  0  0
  131.3650  132.6380   56.0620 C   0  0  0  0  0  0  0  0  0  0  0  0
  130.1860  132.6450   56.8020 C   0  0  0  0  0  0  0  0  0  0  0  0
  125.8790  133.5820   60.7370 C   0  0  0  0  0  0  0  0  0  0  0  0
  127.1310  134.0870   61.1200 C   0  0  0  0  0  0  0  0  0  0  0  0
  127.4130  135.4430   61.0010 C   0  0  0  0  0  0  0  0  0  0  0  0
  126.4500  136.3320   60.5070 C   0  0  0  0  0  0  0  0  0  0  0  0
  126.7430  137.7830   60.4060 N   0  0  0  0  0  0  0  0  0  0  0  0
  127.1100  138.2350   59.3250 O   0  0  0  0  0  0  0  0  0  0  0  0
  126.6040  138.4820   61.4070 O   0  0  0  0  0  0  0  0  0  0  0  0
  125.2020  135.8270   60.1190 C   0  0  0  0  0  0  0  0  0  0  0  0
  124.9210  134.4690   60.2310 C   0  0  0  0  0  0  0  0  0  0  0  0
  1  2  2  0
  2  3  1  0
  4  3  1  1
  4  5  1  0
  5  6  1  0
  6  7  1  1
  7  8  1  0
  8  9  1  0
  9 10  1  0
 10 11  2  0
 11 12  1  0
 12 13  2  0
 13 14  1  0
 14 15  2  0
  6 16  1  0
 16 17  1  6
 17 18  1  0
 18 19  1  0
 19 20  2  0
 20 21  1  0
 21 22  2  0
 22 23  1  0
 23 24  2  0
 16 25  1  0
 25 26  1  1
 26 27  1  0
 27 28  1  0
 28 29  2  0
 29 30  1  0
 30 31  2  0
 31 32  1  0
 32 33  2  0
  2 34  1  0
 34 35  2  0
 35 36  1  0
 36 37  2  0
 37 38  1  0
 38 39  2  0
 38 40  1  0
 37 41  1  0
 41 42  2  0
 25  4  1  0
 33 28  1  0
 42 34  1  0
 15 10  1  0
 24 19  1  0
M  CHG  2  38   1  40  -1
M  END
>  <Binding energies>  (56) 
[-10.7]

>  <Ligand effiencies>  (56) 
[-0.25476190476190474]

>  <Interactions>  (56) 
["V-B:PRO:540:CB:9857, V-A:PRO:540:N:4884, V-A:TYR:539:CE1:4875, V-A:MET:535:CG:4833, V-B:TYR:531:CE2:9765, V-B:ASP:366:CG:8185, V-A:TYR:539:CD1:4873, V-B:LEU:475:CD2:9231, V-B:ILE:538:CA:9832, V-B:PRO:540:N:9856, V-B:PRO:540:CA:9855, V-A:MET:535:CE:4835, V-A:TYR:531:CZ:4794, V-A:ILE:538:CA:4860, V-A:TYR:539:CZ:4877, V-A:PRO:540:CA:4883, V-A:ILE:538:CG2:4863, V-B:MET:535:CE:9807, V-A:TYR:539:C:4867, V-B:PRO:540:CG:9858, V-B:LEU:363:CD1:8161, V-A:TYR:539:CD2:4874, V-B:PRO:540:CD:9859, V-B:ILE:538:CD1:9837, V-A:TYR:539:CE2:4876, V-B:ILE:538:CG2:9835, V-A:ALA:541:CB:4892, V-A:MET:535:CB:4832, V-A:ILE:538:CB:4862, H-B:TYR:531:OH:9767, V-B:ILE:369:CG2:8209, V-A:PRO:540:CB:4885, V-A:PRO:540:CD:4887, V-A:LEU:363:CD1:3189, V-B:PRO:482:CG:9299, V-B:SER:385:CB:8381, V-B:PRO:482:CB:9298, V-A:TYR:539:CA:4869, H-B:SER:385:OG:8382, V-B:HIS:383:CD2:8364, H-B:HIS:383:NE2:8366"]

$$$$
RR9_Rahimova_2017
     RDKit          3D

 36 40  0  0  0  0  0  0  0  0999 V2000
  124.5930  133.6490   60.9710 C   0  0  0  0  0  0  0  0  0  0  0  0
  123.7410  133.1530   62.1440 C   0  0  0  0  0  0  0  0  0  0  0  0
  124.6070  132.6620   63.1630 O   0  0  0  0  0  0  0  0  0  0  0  0
  125.2420  131.4480   62.9860 C   0  0  0  0  0  0  0  0  0  0  0  0
  126.6340  131.4750   62.9200 C   0  0  0  0  0  0  0  0  0  0  0  0
  127.3580  130.3010   62.7410 C   0  0  0  0  0  0  0  0  0  0  0  0
  126.7100  129.0630   62.6220 C   0  0  0  0  0  0  0  0  0  0  0  0
  127.4860  127.7950   62.4250 C   0  0  0  0  0  0  0  0  0  0  0  0
  126.9520  126.7090   61.7130 C   0  0  0  0  0  0  0  0  0  0  0  0
  127.6890  125.5270   61.5190 C   0  0  0  0  0  0  0  0  0  0  0  0
  127.1020  124.4380   60.6620 C   0  0  0  0  0  0  0  0  0  0  0  0
  127.8320  123.6000   60.1340 O   0  0  0  0  0  0  0  0  0  0  0  0
  125.7630  124.4730   60.5080 N   0  0  0  0  0  0  0  0  0  0  0  0
  124.9780  123.6060   59.6230 C   0  0  0  0  0  0  0  0  0  0  0  0
  124.7880  124.2000   58.2070 C   0  0  0  0  0  0  0  0  0  0  0  0
  125.7130  123.6190   57.1440 C   0  0  0  0  0  0  0  0  0  0  0  0
  125.1780  122.9810   56.0200 C   0  0  0  0  0  0  0  0  0  0  0  0
  126.0250  122.4820   55.0340 C   0  0  0  0  0  0  0  0  0  0  0  0
  127.4030  122.6180   55.1760 C   0  0  0  0  0  0  0  0  0  0  0  0
  127.9450  123.2470   56.2960 C   0  0  0  0  0  0  0  0  0  0  0  0
  127.0980  123.7480   57.2820 C   0  0  0  0  0  0  0  0  0  0  0  0
  128.9760  125.4860   62.1090 C   0  0  0  0  0  0  0  0  0  0  0  0
  130.0790  124.5640   62.2490 C   0  0  0  0  0  0  0  0  0  0  0  0
  130.1870  123.1410   61.8110 C   0  0  0  0  0  0  0  0  0  0  0  0
  129.2210  122.2090   62.2010 C   0  0  0  0  0  0  0  0  0  0  0  0
  129.3320  120.8790   61.8050 C   0  0  0  0  0  0  0  0  0  0  0  0
  130.4090  120.4760   61.0130 C   0  0  0  0  0  0  0  0  0  0  0  0
  130.5410  119.0230   60.5960 C   0  0  0  0  0  0  0  0  0  0  0  0
  131.3770  121.4030   60.6220 C   0  0  0  0  0  0  0  0  0  0  0  0
  131.2620  122.7330   61.0180 C   0  0  0  0  0  0  0  0  0  0  0  0
  131.0790  125.1340   62.8830 N   0  0  0  0  0  0  0  0  0  0  0  0
  130.6950  126.3730   63.2320 N   0  0  0  0  0  0  0  0  0  0  0  0
  129.4180  126.6410   62.7990 C   0  0  0  0  0  0  0  0  0  0  0  0
  128.7310  127.7680   62.9780 N   0  0  0  0  0  0  0  0  0  0  0  0
  125.3090  129.0430   62.6870 C   0  0  0  0  0  0  0  0  0  0  0  0
  124.5810  130.2170   62.8680 C   0  0  0  0  0  0  0  0  0  0  0  0
  1  2  1  0
  2  3  1  0
  3  4  1  0
  4  5  2  0
  5  6  1  0
  6  7  2  0
  7  8  1  0
  8  9  2  0
  9 10  1  0
 10 11  1  0
 11 12  2  0
 11 13  1  0
 13 14  1  0
 14 15  1  0
 15 16  1  0
 16 17  2  0
 17 18  1  0
 18 19  2  0
 19 20  1  0
 20 21  2  0
 10 22  2  0
 22 23  1  0
 23 24  1  0
 24 25  2  0
 25 26  1  0
 26 27  2  0
 27 28  1  0
 27 29  1  0
 29 30  2  0
 23 31  2  0
 31 32  1  0
 32 33  1  0
 33 34  2  0
  7 35  1  0
 35 36  2  0
 36  4  1  0
 34  8  1  0
 21 16  1  0
 33 22  1  0
 30 24  1  0
M  END
>  <Binding energies>  (57) 
[-9.72]

>  <Ligand effiencies>  (57) 
[-0.25578947368421057]

>  <Interactions>  (57) 
["V-B:PRO:540:CB:9857, V-B:TYR:539:C:9839, V-B:ILE:538:C:9830, V-B:TYR:531:CE2:9765, V-B:ASP:366:CG:8185, V-B:TYR:539:CD1:9845, V-B:LEU:475:CD2:9231, V-B:ILE:538:CA:9832, V-B:PRO:540:CA:9855, V-B:TYR:539:CD2:9846, V-B:MET:535:CE:9807, V-B:TYR:539:CE2:9848, V-B:TYR:539:CE1:9847, V-B:TYR:531:CZ:9766, V-B:TYR:539:CZ:9849, V-B:LEU:363:CD1:8161, V-B:ILE:538:CD1:9837, V-B:ILE:538:CG2:9835, V-A:LEU:475:CD2:4259, V-B:TYR:539:CG:9844, V-B:ILE:369:CD1:8211, V-B:ARG:545:CZ:9898, V-A:GLU:543:CD:4908, V-B:GLY:454:CA:9021, V-B:ILE:369:CG2:8209, V-B:ILE:538:CG1:9836, V-B:ILE:538:CB:9834, V-A:TYR:484:CE1:4345, V-B:ALA:541:CB:9864, V-B:GLU:543:CD:9880, H-A:GLU:543:OE1:4909, H-B:GLY:454:N:9022, H-B:TYR:484:OH:9320, H-B:ASP:366:OD2:8187, H-A:TYR:484:OH:4348, H-B:GLU:543:OE1:9881, H-A:GLU:543:OE2:4910, H-B:ASP:366:OD1:8186"]

$$$$
