1a_Ghoteimi_2023
     RDKit          3D

 40 43  0  0  0  0  0  0  0  0999 V2000
  129.8870  132.1530   55.4500 C   0  0  0  0  0  0  0  0  0  0  0  0
  129.2810  131.5900   54.1610 C   0  0  0  0  0  0  0  0  0  0  0  0
  127.8790  131.4230   54.3330 O   0  0  0  0  0  0  0  0  0  0  0  0
  127.3480  130.2060   54.6160 C   0  0  0  0  0  0  0  0  0  0  0  0
  127.1580  129.3310   53.7660 O   0  0  0  0  0  0  0  0  0  0  0  0
  127.0180  130.0280   56.0710 C   0  0  0  0  0  0  0  0  0  0  0  0
  128.0140  129.9910   57.0580 C   0  0  0  0  0  0  0  0  0  0  0  0
  127.6780  129.8210   58.3990 C   0  0  0  0  0  0  0  0  0  0  0  0
  126.3340  129.6900   58.7770 C   0  0  0  0  0  0  0  0  0  0  0  0
  125.8820  129.5090   60.0990 N   0  0  0  0  0  0  0  0  0  0  0  0
  126.4310  128.8050   61.1120 C   0  0  0  0  0  0  0  0  0  0  0  0
  127.4870  128.1760   61.0570 O   0  0  0  0  0  0  0  0  0  0  0  0
  125.6460  128.8210   62.4240 C   0  0  0  0  0  0  0  0  0  0  0  0
  126.1210  130.2250   63.4750 S   0  0  0  0  0  0  0  0  0  0  0  0
  126.7430  131.4770   62.3770 C   0  0  0  0  0  0  0  0  0  0  0  0
  127.9710  131.2070   61.8740 N   0  0  0  0  0  0  0  0  0  0  0  0
  128.5580  132.0830   61.0170 C   0  0  0  0  0  0  0  0  0  0  0  0
  129.9110  131.7020   60.4880 C   0  0  0  0  0  0  0  0  0  0  0  0
  130.1700  131.6620   59.1080 C   0  0  0  0  0  0  0  0  0  0  0  0
  131.4240  131.3090   58.6200 C   0  0  0  0  0  0  0  0  0  0  0  0
  132.4590  130.9820   59.4940 C   0  0  0  0  0  0  0  0  0  0  0  0
  133.6710  130.6470   58.9210 O   0  0  0  0  0  0  0  0  0  0  0  0
  133.6860  130.0370   57.6360 C   0  0  0  0  0  0  0  0  0  0  0  0
  132.2150  131.0130   60.8740 C   0  0  0  0  0  0  0  0  0  0  0  0
  130.9590  131.3660   61.3580 C   0  0  0  0  0  0  0  0  0  0  0  0
  127.9050  133.2650   60.6490 C   0  0  0  0  0  0  0  0  0  0  0  0
  126.6450  133.5790   61.1750 C   0  0  0  0  0  0  0  0  0  0  0  0
  126.0220  134.8730   60.7630 C   0  0  0  0  0  0  0  0  0  0  0  0
  126.7390  136.0720   60.8430 C   0  0  0  0  0  0  0  0  0  0  0  0
  126.1560  137.2710   60.4430 C   0  0  0  0  0  0  0  0  0  0  0  0
  124.8520  137.2960   59.9490 C   0  0  0  0  0  0  0  0  0  0  0  0
  124.3580  138.5300   59.5760 O   0  0  0  0  0  0  0  0  0  0  0  0
  125.2690  139.5930   59.3170 C   0  0  0  0  0  0  0  0  0  0  0  0
  124.1330  136.0940   59.8590 C   0  0  0  0  0  0  0  0  0  0  0  0
  124.7170  134.8960   60.2610 C   0  0  0  0  0  0  0  0  0  0  0  0
  126.0380  132.6590   62.0640 C   0  0  0  0  0  0  0  0  0  0  0  0
  124.7130  132.9250   62.6350 C   0  0  0  0  0  0  0  0  0  0  0  0
  123.6680  133.1350   63.0850 N   0  0  0  0  0  0  0  0  0  0  0  0
  125.3410  129.7220   57.7970 C   0  0  0  0  0  0  0  0  0  0  0  0
  125.6790  129.8910   56.4570 C   0  0  0  0  0  0  0  0  0  0  0  0
  1  2  1  0
  2  3  1  0
  3  4  1  0
  4  5  2  0
  4  6  1  0
  6  7  2  0
  7  8  1  0
  8  9  2  0
  9 10  1  0
 10 11  1  0
 11 12  2  0
 11 13  1  0
 13 14  1  0
 14 15  1  0
 15 16  2  0
 16 17  1  0
 17 18  1  0
 18 19  2  0
 19 20  1  0
 20 21  2  0
 21 22  1  0
 22 23  1  0
 21 24  1  0
 24 25  2  0
 17 26  2  0
 26 27  1  0
 27 28  1  0
 28 29  2  0
 29 30  1  0
 30 31  2  0
 31 32  1  0
 32 33  1  0
 31 34  1  0
 34 35  2  0
 27 36  2  0
 36 37  1  0
 37 38  3  0
  9 39  1  0
 39 40  2  0
 40  6  1  0
 36 15  1  0
 25 18  1  0
 35 28  1  0
M  END
>  <Binding energies>  (1) 
[-9.83]

>  <Ligand effiencies>  (1) 
[-0.2397560975609756]

>  <Interactions>  (1) 
["V-A:GLU:543:CD:4908, H-A:LEU:363:N:3185, V-A:TYR:539:CZ:4877, V-A:ASP:366:CB:3211, V-A:ILE:538:CA:4860, V-A:PRO:540:C:4881, V-A:ILE:538:CG2:4863, V-A:ILE:538:C:4858, V-A:ILE:538:CB:4862, V-A:TYR:539:CE1:4875, V-A:PRO:540:CB:4885, V-A:PRO:540:CA:4883, V-A:ASP:366:CG:3212, V-A:TYR:539:C:4867, V-A:PRO:540:N:4884, V-A:LEU:363:CD1:3188, V-B:ASP:366:CG:8184, H-B:TYR:531:OH:9767, V-B:ASP:366:CB:8183, V-A:TYR:539:CD1:4873, H-B:ASP:366:OD2:8186, V-B:TYR:531:CZ:9766, V-B:ILE:369:CG2:8208, H-A:TYR:539:OH:4878, H-B:LYS:534:NZ:9795, V-B:LEU:475:CD1:9229, V-A:ALA:541:CB:4892, V-B:GLY:454:CA:9020, V-B:TYR:531:CE1:9764, H-B:SER:385:OG:8381, V-B:ARG:545:CZ:9898, H-B:GLY:454:N:9021, V-B:ILE:369:CD1:8210, V-A:LEU:363:CA:3184, V-B:HIS:383:CE1:8365, V-A:TYR:539:CB:4871, V-B:SER:385:CB:8380, V-B:LEU:373:CD1:8251, V-A:ILE:343:CG2:2991, V-B:PRO:482:CG:9298, V-B:HIS:383:CD2:8363, V-B:LYS:534:CE:9794, V-B:HIS:383:CG:8361, V-B:SER:385:CA:8378, V-B:LEU:373:CD2:8252, V-B:PRO:482:CB:9297"]

$$$$
1b_Ghoteimi_2023
     RDKit          3D

 34 37  0  0  0  0  0  0  0  0999 V2000
  126.7490  134.7440   61.7370 C   0  0  0  0  0  0  0  0  0  0  0  0
  127.0630  133.5110   62.3730 O   0  0  0  0  0  0  0  0  0  0  0  0
  127.7180  132.5300   61.6540 C   0  0  0  0  0  0  0  0  0  0  0  0
  127.5840  132.5770   60.2680 C   0  0  0  0  0  0  0  0  0  0  0  0
  128.2070  131.6290   59.4620 C   0  0  0  0  0  0  0  0  0  0  0  0
  128.9870  130.6040   60.0180 C   0  0  0  0  0  0  0  0  0  0  0  0
  129.6560  129.5810   59.1440 C   0  0  0  0  0  0  0  0  0  0  0  0
  129.1740  128.2770   58.9930 C   0  0  0  0  0  0  0  0  0  0  0  0
  129.8330  127.3610   58.1630 C   0  0  0  0  0  0  0  0  0  0  0  0
  129.2640  125.9850   58.0530 C   0  0  0  0  0  0  0  0  0  0  0  0
  127.9560  125.7970   57.5970 C   0  0  0  0  0  0  0  0  0  0  0  0
  127.4180  124.5160   57.5010 C   0  0  0  0  0  0  0  0  0  0  0  0
  128.1740  123.4010   57.8620 C   0  0  0  0  0  0  0  0  0  0  0  0
  127.5580  122.1700   57.7340 O   0  0  0  0  0  0  0  0  0  0  0  0
  126.3990  122.0560   56.9160 C   0  0  0  0  0  0  0  0  0  0  0  0
  129.4840  123.5860   58.3280 C   0  0  0  0  0  0  0  0  0  0  0  0
  130.0190  124.8670   58.4230 C   0  0  0  0  0  0  0  0  0  0  0  0
  130.9920  127.7920   57.4710 C   0  0  0  0  0  0  0  0  0  0  0  0
  131.6630  126.9040   56.5180 C   0  0  0  0  0  0  0  0  0  0  0  0
  132.1920  126.2010   55.7640 N   0  0  0  0  0  0  0  0  0  0  0  0
  131.4380  129.1150   57.6850 C   0  0  0  0  0  0  0  0  0  0  0  0
  132.8770  129.8240   56.9100 S   0  0  0  0  0  0  0  0  0  0  0  0
  132.3670  131.3710   56.0880 C   0  0  0  0  0  0  0  0  0  0  0  0
  130.8510  131.5500   55.9240 C   0  0  0  0  0  0  0  0  0  0  0  0
  130.3060  132.6150   56.2270 O   0  0  0  0  0  0  0  0  0  0  0  0
  130.2040  130.4670   55.4380 N   0  0  0  0  0  0  0  0  0  0  0  0
  128.8430  130.3430   55.1870 C   0  0  0  0  0  0  0  0  0  0  0  0
  127.9410  129.8300   56.1180 C   0  0  0  0  0  0  0  0  0  0  0  0
  126.7160  129.8760   55.4920 C   0  0  0  0  0  0  0  0  0  0  0  0
  126.8720  130.3920   54.2490 O   0  0  0  0  0  0  0  0  0  0  0  0
  128.2250  130.6840   54.0680 N   0  0  0  0  0  0  0  0  0  0  0  0
  130.7730  129.9840   58.4830 N   0  0  0  0  0  0  0  0  0  0  0  0
  129.1130  130.5650   61.4160 C   0  0  0  0  0  0  0  0  0  0  0  0
  128.4910  131.5100   62.2260 C   0  0  0  0  0  0  0  0  0  0  0  0
  1  2  1  0
  2  3  1  0
  3  4  2  0
  4  5  1  0
  5  6  2  0
  6  7  1  0
  7  8  2  0
  8  9  1  0
  9 10  1  0
 10 11  2  0
 11 12  1  0
 12 13  2  0
 13 14  1  0
 14 15  1  0
 13 16  1  0
 16 17  2  0
  9 18  2  0
 18 19  1  0
 19 20  3  0
 18 21  1  0
 21 22  1  0
 22 23  1  0
 23 24  1  0
 24 25  2  0
 24 26  1  0
 26 27  1  0
 27 28  1  0
 28 29  2  0
 29 30  1  0
 30 31  1  0
 21 32  2  0
  6 33  1  0
 33 34  2  0
 34  3  1  0
 32  7  1  0
 17 10  1  0
 31 27  2  0
M  END
>  <Binding energies>  (2) 
[-9.14]

>  <Ligand effiencies>  (2) 
[-0.2611428571428572]

>  <Interactions>  (2) 
["V-A:TYR:539:CZ:4877, V-A:ASP:366:CB:3211, V-A:TYR:531:CZ:4794, V-A:TYR:539:CE1:4875, V-A:LEU:363:CD1:3188, H-A:TYR:531:OH:4795, H-B:TYR:539:OH:9850, V-B:PRO:540:CB:9857, V-B:TYR:539:CZ:9849, V-B:PRO:540:N:9856, V-A:TYR:539:CD1:4873, V-B:PRO:540:CD:9859, V-B:TYR:539:CE2:9848, V-B:PRO:540:CA:9855, V-B:MET:535:CE:9807, V-B:TYR:531:CZ:9766, H-A:TYR:539:OH:4878, H-B:LYS:534:NZ:9795, V-B:LEU:475:CD1:9229, V-A:ALA:541:CB:4892, V-B:TYR:531:CE1:9764, H-A:TYR:539:N:4870, V-B:TYR:539:C:9839, V-A:TYR:531:CE2:4793"]

$$$$
1c_Ghoteimi_2023
     RDKit          3D

 34 37  0  0  0  0  0  0  0  0999 V2000
  133.8570  125.4570   66.6430 C   0  0  0  0  0  0  0  0  0  0  0  0
  134.0610  125.0570   65.2920 O   0  0  0  0  0  0  0  0  0  0  0  0
  133.0680  125.2940   64.3610 C   0  0  0  0  0  0  0  0  0  0  0  0
  131.8640  125.8000   64.8450 C   0  0  0  0  0  0  0  0  0  0  0  0
  130.8080  126.0660   63.9780 C   0  0  0  0  0  0  0  0  0  0  0  0
  130.9240  125.8320   62.5990 C   0  0  0  0  0  0  0  0  0  0  0  0
  129.7860  126.1120   61.6610 C   0  0  0  0  0  0  0  0  0  0  0  0
  129.3390  125.1830   60.7140 C   0  0  0  0  0  0  0  0  0  0  0  0
  128.2560  125.4800   59.8790 C   0  0  0  0  0  0  0  0  0  0  0  0
  127.7900  124.4170   58.9400 C   0  0  0  0  0  0  0  0  0  0  0  0
  126.4280  124.1340   58.8050 C   0  0  0  0  0  0  0  0  0  0  0  0
  125.9980  123.1280   57.9450 C   0  0  0  0  0  0  0  0  0  0  0  0
  126.9190  122.3840   57.2080 C   0  0  0  0  0  0  0  0  0  0  0  0
  126.4010  121.4070   56.3800 O   0  0  0  0  0  0  0  0  0  0  0  0
  125.2390  121.6940   55.6080 C   0  0  0  0  0  0  0  0  0  0  0  0
  128.2880  122.6620   57.3450 C   0  0  0  0  0  0  0  0  0  0  0  0
  128.7160  123.6680   58.2060 C   0  0  0  0  0  0  0  0  0  0  0  0
  127.6440  126.7510   59.9950 C   0  0  0  0  0  0  0  0  0  0  0  0
  126.5270  127.1350   59.1260 C   0  0  0  0  0  0  0  0  0  0  0  0
  125.6450  127.4370   58.4400 N   0  0  0  0  0  0  0  0  0  0  0  0
  128.1330  127.6320   60.9810 C   0  0  0  0  0  0  0  0  0  0  0  0
  127.3550  129.1890   61.3510 S   0  0  0  0  0  0  0  0  0  0  0  0
  128.5330  130.0520   62.4420 C   0  0  0  0  0  0  0  0  0  0  0  0
  129.6480  130.7460   61.6530 C   0  0  0  0  0  0  0  0  0  0  0  0
  129.7570  131.9720   61.7050 O   0  0  0  0  0  0  0  0  0  0  0  0
  130.4750  129.9200   60.9750 N   0  0  0  0  0  0  0  0  0  0  0  0
  131.6410  130.2730   60.3160 C   0  0  0  0  0  0  0  0  0  0  0  0
  131.8630  130.2890   59.0190 N   0  0  0  0  0  0  0  0  0  0  0  0
  133.0780  130.7190   58.7410 C   0  0  0  0  0  0  0  0  0  0  0  0
  133.8720  131.0660   59.8300 C   0  0  0  0  0  0  0  0  0  0  0  0
  132.9690  130.8090   61.2940 S   0  0  0  0  0  0  0  0  0  0  0  0
  129.1690  127.3150   61.7950 N   0  0  0  0  0  0  0  0  0  0  0  0
  132.1430  125.3280   62.1210 C   0  0  0  0  0  0  0  0  0  0  0  0
  133.2010  125.0600   62.9850 C   0  0  0  0  0  0  0  0  0  0  0  0
  1  2  1  0
  2  3  1  0
  3  4  2  0
  4  5  1  0
  5  6  2  0
  6  7  1  0
  7  8  2  0
  8  9  1  0
  9 10  1  0
 10 11  2  0
 11 12  1  0
 12 13  2  0
 13 14  1  0
 14 15  1  0
 13 16  1  0
 16 17  2  0
  9 18  2  0
 18 19  1  0
 19 20  3  0
 18 21  1  0
 21 22  1  0
 22 23  1  0
 23 24  1  0
 24 25  2  0
 24 26  1  0
 26 27  1  0
 27 28  2  0
 28 29  1  0
 29 30  2  0
 30 31  1  0
 21 32  2  0
  6 33  1  0
 33 34  2  0
 34  3  1  0
 32  7  1  0
 17 10  1  0
 31 27  1  0
M  END
>  <Binding energies>  (3) 
[-8.62]

>  <Ligand effiencies>  (3) 
[-0.24628571428571427]

>  <Interactions>  (3) 
["V-A:GLU:543:CD:4908, H-A:ASP:366:OD2:3214, V-A:ASP:366:CB:3211, V-A:ASN:362:CB:3175, H-A:ALA:541:N:4891, V-A:PRO:540:CB:4885, V-A:PRO:540:CA:4883, V-A:ASP:366:CG:3212, H-A:GLU:543:OE2:4910, V-A:LEU:363:CD1:3188, V-B:ASP:366:CG:8184, V-B:PRO:540:CB:9857, V-B:TYR:539:CZ:9849, V-B:TYR:539:CE1:9847, H-B:TYR:531:OH:9767, V-B:PRO:540:N:9856, V-B:TYR:539:CD2:9846, V-B:ILE:538:CG2:9835, V-B:LEU:363:CD1:8160, V-B:PRO:540:CD:9859, V-B:TYR:539:CE2:9848, H-B:TYR:539:N:9842, V-B:PRO:540:CA:9855, V-B:MET:535:CE:9807, H-A:ARG:545:NE:4924, H-A:GLY:454:N:4049, V-A:ARG:545:CZ:4926, H-A:TYR:484:OH:4347, V-A:ARG:545:CG:4922, V-A:TYR:484:CZ:4346, V-A:ARG:545:CD:4923, V-A:ASN:362:C:3171, V-A:LEU:363:CA:3184, V-B:TYR:539:C:9839, V-A:LEU:363:CB:3186, V-B:ILE:538:CA:9832, V-B:ILE:538:CB:9834, V-B:ILE:538:CG1:9836"]

$$$$
1d_Ghoteimi_2023
     RDKit          3D

 30 32  0  0  0  0  0  0  0  0999 V2000
  126.8110  128.4790   66.4540 C   0  0  0  0  0  0  0  0  0  0  0  0
  125.4350  128.8210   66.5010 O   0  0  0  0  0  0  0  0  0  0  0  0
  124.8810  129.5690   65.5240 C   0  0  0  0  0  0  0  0  0  0  0  0
  123.6950  129.5680   65.1900 O   0  0  0  0  0  0  0  0  0  0  0  0
  125.9040  130.4610   64.8260 C   0  0  0  0  0  0  0  0  0  0  0  0
  126.1210  129.8260   63.1370 S   0  0  0  0  0  0  0  0  0  0  0  0
  126.7890  131.1560   62.1620 C   0  0  0  0  0  0  0  0  0  0  0  0
  128.0300  130.9100   61.6800 N   0  0  0  0  0  0  0  0  0  0  0  0
  128.6600  131.8430   60.9220 C   0  0  0  0  0  0  0  0  0  0  0  0
  130.0310  131.4890   60.4220 C   0  0  0  0  0  0  0  0  0  0  0  0
  130.2950  131.3590   59.0490 C   0  0  0  0  0  0  0  0  0  0  0  0
  131.5640  131.0250   58.5880 C   0  0  0  0  0  0  0  0  0  0  0  0
  132.6090  130.8080   59.4830 C   0  0  0  0  0  0  0  0  0  0  0  0
  133.8340  130.4760   58.9360 O   0  0  0  0  0  0  0  0  0  0  0  0
  133.8810  129.9220   57.6250 C   0  0  0  0  0  0  0  0  0  0  0  0
  132.3620  130.9330   60.8570 C   0  0  0  0  0  0  0  0  0  0  0  0
  131.0910  131.2690   61.3140 C   0  0  0  0  0  0  0  0  0  0  0  0
  128.0350  133.0590   60.6230 C   0  0  0  0  0  0  0  0  0  0  0  0
  126.7580  133.3470   61.1210 C   0  0  0  0  0  0  0  0  0  0  0  0
  126.1520  134.6670   60.7700 C   0  0  0  0  0  0  0  0  0  0  0  0
  124.8660  134.7290   60.2230 C   0  0  0  0  0  0  0  0  0  0  0  0
  124.2960  135.9550   59.8940 C   0  0  0  0  0  0  0  0  0  0  0  0
  124.9940  137.1430   60.1070 C   0  0  0  0  0  0  0  0  0  0  0  0
  124.3530  138.3110   59.7440 O   0  0  0  0  0  0  0  0  0  0  0  0
  125.0950  139.5250   59.6940 C   0  0  0  0  0  0  0  0  0  0  0  0
  126.2800  137.0870   60.6670 C   0  0  0  0  0  0  0  0  0  0  0  0
  126.8480  135.8600   60.9970 C   0  0  0  0  0  0  0  0  0  0  0  0
  126.1170  132.3790   61.9340 C   0  0  0  0  0  0  0  0  0  0  0  0
  124.8270  132.6680   62.5660 C   0  0  0  0  0  0  0  0  0  0  0  0
  123.8080  132.8980   63.0650 N   0  0  0  0  0  0  0  0  0  0  0  0
  1  2  1  0
  2  3  1  0
  3  4  2  0
  3  5  1  0
  5  6  1  0
  6  7  1  0
  7  8  2  0
  8  9  1  0
  9 10  1  0
 10 11  2  0
 11 12  1  0
 12 13  2  0
 13 14  1  0
 14 15  1  0
 13 16  1  0
 16 17  2  0
  9 18  2  0
 18 19  1  0
 19 20  1  0
 20 21  2  0
 21 22  1  0
 22 23  2  0
 23 24  1  0
 24 25  1  0
 23 26  1  0
 26 27  2  0
 19 28  2  0
 28 29  1  0
 29 30  3  0
 28  7  1  0
 17 10  1  0
 27 20  1  0
M  END
>  <Binding energies>  (4) 
[-7.95]

>  <Ligand effiencies>  (4) 
[-0.265]

>  <Interactions>  (4) 
["V-A:GLU:543:CD:4908, H-A:LEU:363:N:3185, V-A:ASP:366:CB:3211, V-A:TYR:539:CE1:4875, V-A:PRO:540:CB:4885, V-A:PRO:540:CA:4883, V-A:ASP:366:CG:3212, V-A:TYR:539:C:4867, V-A:PRO:540:N:4884, V-A:LEU:363:CD1:3188, V-A:TYR:539:CD1:4873, H-B:ARG:545:NH2:9900, V-B:ILE:369:CG2:8208, V-B:LEU:475:CD1:9229, V-A:ALA:541:CB:4892, H-B:SER:385:OG:8381, V-B:ARG:545:CZ:9898, V-B:HIS:456:CE1:9041, H-B:GLY:454:N:9021, V-B:ILE:369:CD1:8210, H-B:ARG:545:NH1:9899, H-B:TYR:484:OH:9319, H-B:ARG:545:NE:9896, V-A:LEU:363:CA:3184, V-B:HIS:383:CE1:8365, V-A:TYR:539:CB:4871, V-B:SER:385:CB:8380, V-B:LEU:373:CD1:8251, V-A:ILE:343:CG2:2991, V-B:PRO:482:CG:9298, V-B:HIS:383:CD2:8363, V-B:HIS:383:CG:8361, V-A:LEU:363:CB:3186, V-B:PRO:482:CB:9297"]

$$$$
1j_Grossjean_2025
     RDKit          3D

 20 21  0  0  0  0  0  0  0  0999 V2000
  126.0070  129.9370   57.6920 C   0  0  0  0  0  0  0  0  0  0  0  0
  127.1080  129.0970   57.0700 C   0  0  0  0  0  0  0  0  0  0  0  0
  127.6000  127.9570   57.7020 C   0  0  0  0  0  0  0  0  0  0  0  0
  128.6060  127.2150   57.0750 C   0  0  0  0  0  0  0  0  0  0  0  0
  129.1180  125.9580   57.7800 C   0  0  0  0  0  0  0  0  0  0  0  0
  129.1030  127.6420   55.8240 C   0  0  0  0  0  0  0  0  0  0  0  0
  130.1190  126.8510   55.1250 C   0  0  0  0  0  0  0  0  0  0  0  0
  130.9210  126.2230   54.5760 N   0  0  0  0  0  0  0  0  0  0  0  0
  128.5630  128.8260   55.2680 C   0  0  0  0  0  0  0  0  0  0  0  0
  129.0710  129.5100   53.7060 S   0  0  0  0  0  0  0  0  0  0  0  0
  129.3950  131.2810   53.9570 C   0  0  0  0  0  0  0  0  0  0  0  0
  130.0050  131.5640   55.3310 C   0  0  0  0  0  0  0  0  0  0  0  0
  129.6140  132.5370   55.9760 O   0  0  0  0  0  0  0  0  0  0  0  0
  130.9520  130.6910   55.7390 N   0  0  0  0  0  0  0  0  0  0  0  0
  131.6570  130.7320   56.9340 C   0  0  0  0  0  0  0  0  0  0  0  0
  132.9530  130.5890   57.1120 N   0  0  0  0  0  0  0  0  0  0  0  0
  133.2790  130.6870   58.3850 C   0  0  0  0  0  0  0  0  0  0  0  0
  132.2330  130.9160   59.2740 C   0  0  0  0  0  0  0  0  0  0  0  0
  130.7440  131.0090   58.3820 S   0  0  0  0  0  0  0  0  0  0  0  0
  127.5720  129.5280   55.8740 N   0  0  0  0  0  0  0  0  0  0  0  0
  1  2  1  0
  2  3  2  0
  3  4  1  0
  4  5  1  0
  4  6  2  0
  6  7  1  0
  7  8  3  0
  6  9  1  0
  9 10  1  0
 10 11  1  0
 11 12  1  0
 12 13  2  0
 12 14  1  0
 14 15  1  0
 15 16  2  0
 16 17  1  0
 17 18  2  0
 18 19  1  0
  9 20  2  0
 20  2  1  0
 19 15  1  0
M  END
>  <Binding energies>  (5) 
[-6.7]

>  <Ligand effiencies>  (5) 
[-0.3190476190476191]

>  <Interactions>  (5) 
["V-A:TYR:539:CZ:4877, V-A:ASP:366:CB:3211, V-A:ILE:538:CA:4860, V-A:TYR:531:CZ:4794, V-A:ILE:538:CG2:4863, V-A:ILE:538:CB:4862, V-A:TYR:539:CE1:4875, V-A:PRO:540:CB:4885, V-A:PRO:540:CA:4883, V-A:ASP:366:CG:3212, V-A:LEU:363:CD1:3188, H-A:TYR:531:OH:4795, H-B:TYR:539:OH:9850, H-B:TYR:531:OH:9767, V-B:TYR:531:CZ:9766, H-A:TYR:539:N:4870, V-A:LEU:363:CA:3184"]

$$$$
1o_Grossjean_2025
     RDKit          3D

 26 27  0  0  0  0  0  0  0  0999 V2000
  125.0370  124.1840   57.9400 C   0  0  0  0  0  0  0  0  0  0  0  0
  126.0240  123.9140   56.9550 O   0  0  0  0  0  0  0  0  0  0  0  0
  126.8070  122.8080   57.0350 C   0  0  0  0  0  0  0  0  0  0  0  0
  126.4480  121.6910   56.6490 O   0  0  0  0  0  0  0  0  0  0  0  0
  128.1570  123.0770   57.6360 C   0  0  0  0  0  0  0  0  0  0  0  0
  128.6800  122.2880   58.6690 C   0  0  0  0  0  0  0  0  0  0  0  0
  129.9370  122.5630   59.2030 C   0  0  0  0  0  0  0  0  0  0  0  0
  130.6910  123.6330   58.7210 C   0  0  0  0  0  0  0  0  0  0  0  0
  131.9510  123.8160   59.3250 N   0  0  0  0  0  0  0  0  0  0  0  0
  133.1900  123.6600   58.8090 C   0  0  0  0  0  0  0  0  0  0  0  0
  133.4390  123.3560   57.6420 O   0  0  0  0  0  0  0  0  0  0  0  0
  134.3490  123.9220   59.7810 C   0  0  0  0  0  0  0  0  0  0  0  0
  133.9920  123.6230   61.2510 C   0  0  0  0  0  0  0  0  0  0  0  0
  134.1270  121.8680   61.7010 S   0  0  0  0  0  0  0  0  0  0  0  0
  132.4990  121.1470   61.6570 C   0  0  0  0  0  0  0  0  0  0  0  0
  131.5420  121.9400   62.2020 N   0  0  0  0  0  0  0  0  0  0  0  0
  130.2620  121.5000   62.2170 C   0  0  0  0  0  0  0  0  0  0  0  0
  129.2460  122.4470   62.8280 C   0  0  0  0  0  0  0  0  0  0  0  0
  129.8880  120.2590   61.7060 C   0  0  0  0  0  0  0  0  0  0  0  0
  130.8700  119.4220   61.1650 C   0  0  0  0  0  0  0  0  0  0  0  0
  130.4360  118.0600   60.6250 C   0  0  0  0  0  0  0  0  0  0  0  0
  132.2140  119.8580   61.1430 C   0  0  0  0  0  0  0  0  0  0  0  0
  133.2640  118.9720   60.6350 C   0  0  0  0  0  0  0  0  0  0  0  0
  134.0920  118.2710   60.2320 N   0  0  0  0  0  0  0  0  0  0  0  0
  130.1760  124.4250   57.6830 C   0  0  0  0  0  0  0  0  0  0  0  0
  128.9200  124.1470   57.1500 C   0  0  0  0  0  0  0  0  0  0  0  0
  1  2  1  0
  2  3  1  0
  3  4  2  0
  3  5  1  0
  5  6  2  0
  6  7  1  0
  7  8  2  0
  8  9  1  0
  9 10  1  0
 10 11  2  0
 10 12  1  0
 12 13  1  0
 13 14  1  0
 14 15  1  0
 15 16  2  0
 16 17  1  0
 17 18  1  0
 17 19  2  0
 19 20  1  0
 20 21  1  0
 20 22  2  0
 22 23  1  0
 23 24  3  0
  8 25  1  0
 25 26  2  0
 26  5  1  0
 22 15  1  0
M  END
>  <Binding energies>  (6) 
[-8.17]

>  <Ligand effiencies>  (6) 
[-0.3025925925925926]

>  <Interactions>  (6) 
["V-A:ASP:366:CB:3211, V-A:ASP:366:CG:3212, H-B:TYR:539:OH:9850, V-B:TYR:539:CZ:9849, V-B:ALA:541:CB:9864, H-B:TYR:531:OH:9767, V-B:PRO:540:N:9856, V-B:TYR:539:CD2:9846, V-B:LEU:363:CD1:8160, V-B:PRO:540:C:9853, V-B:TYR:539:CE2:9848, H-B:TYR:539:N:9842, V-B:PRO:540:CA:9855, V-B:ALA:541:CA:9862, V-B:MET:535:CE:9807, V-B:TYR:531:CE2:9765, V-A:LEU:475:CD1:4257, V-B:TYR:539:C:9839, V-A:ILE:369:CD1:3238, V-A:ILE:369:CG2:3236, V-A:SER:385:CA:3406, V-A:PRO:482:CG:4326, V-A:ASP:366:CA:3209, V-A:ILE:369:CB:3235, H-A:HIS:383:NE2:3393, H-A:SER:385:OG:3409"]

$$$$
1p_Grossjean_2025
     RDKit          3D

 21 22  0  0  0  0  0  0  0  0999 V2000
  128.0880  131.0440   58.0180 C   0  0  0  0  0  0  0  0  0  0  0  0
  129.2170  131.1540   59.0250 C   0  0  0  0  0  0  0  0  0  0  0  0
  128.9670  131.3070   60.3870 C   0  0  0  0  0  0  0  0  0  0  0  0
  130.0470  131.4170   61.2690 C   0  0  0  0  0  0  0  0  0  0  0  0
  129.7490  131.5990   62.7560 C   0  0  0  0  0  0  0  0  0  0  0  0
  131.3640  131.3620   60.7590 C   0  0  0  0  0  0  0  0  0  0  0  0
  132.5100  131.5220   61.6540 C   0  0  0  0  0  0  0  0  0  0  0  0
  133.4170  131.6490   62.3640 N   0  0  0  0  0  0  0  0  0  0  0  0
  131.5240  131.1810   59.3640 C   0  0  0  0  0  0  0  0  0  0  0  0
  133.1070  131.0800   58.5610 S   0  0  0  0  0  0  0  0  0  0  0  0
  132.7990  130.5320   56.8560 C   0  0  0  0  0  0  0  0  0  0  0  0
  132.3670  131.6660   55.9080 C   0  0  0  0  0  0  0  0  0  0  0  0
  130.8460  131.7550   55.7090 C   0  0  0  0  0  0  0  0  0  0  0  0
  130.2640  132.8150   55.9480 O   0  0  0  0  0  0  0  0  0  0  0  0
  130.2490  130.6290   55.2600 N   0  0  0  0  0  0  0  0  0  0  0  0
  128.8970  130.4420   54.9980 C   0  0  0  0  0  0  0  0  0  0  0  0
  128.1680  129.3600   55.4920 C   0  0  0  0  0  0  0  0  0  0  0  0
  126.8910  129.5400   55.0140 C   0  0  0  0  0  0  0  0  0  0  0  0
  126.8530  130.6700   54.2680 O   0  0  0  0  0  0  0  0  0  0  0  0
  128.1310  131.2320   54.2650 N   0  0  0  0  0  0  0  0  0  0  0  0
  130.4700  131.0970   58.5150 N   0  0  0  0  0  0  0  0  0  0  0  0
  1  2  1  0
  2  3  2  0
  3  4  1  0
  4  5  1  0
  4  6  2  0
  6  7  1  0
  7  8  3  0
  6  9  1  0
  9 10  1  0
 10 11  1  0
 11 12  1  0
 12 13  1  0
 13 14  2  0
 13 15  1  0
 15 16  1  0
 16 17  1  0
 17 18  2  0
 18 19  1  0
 19 20  1  0
  9 21  2  0
 21  2  1  0
 20 16  2  0
M  END
>  <Binding energies>  (7) 
[-7.58]

>  <Ligand effiencies>  (7) 
[-0.34454545454545454]

>  <Interactions>  (7) 
["V-A:GLU:543:CD:4908, V-A:TYR:539:CZ:4877, V-A:ASN:362:CB:3175, V-A:TYR:531:CZ:4794, V-A:PRO:540:C:4881, V-A:ILE:538:CG2:4863, V-A:ILE:538:CB:4862, V-A:TYR:539:CE1:4875, V-A:PRO:540:CB:4885, V-A:PRO:540:CA:4883, V-A:LEU:363:CD1:3188, H-A:TYR:531:OH:4795, V-A:TYR:539:CD1:4873, V-A:GLU:543:CG:4907, V-B:TYR:531:CZ:9766, H-A:TYR:539:OH:4878, H-B:LYS:534:NZ:9795, V-A:ALA:541:CB:4892, V-B:TYR:531:CE1:9764, V-A:ALA:541:CA:4890, H-A:TYR:539:N:4870, H-A:ARG:545:NH2:4928, H-A:ASN:362:ND2:3178, V-A:TYR:531:CE2:4793"]

$$$$
2a_Ghoteimi_2023
     RDKit          3D

 48 53  0  0  0  0  0  0  0  0999 V2000
  125.5190  139.1420   60.6160 C   0  0  0  0  0  0  0  0  0  0  0  0
  126.0300  138.1300   59.5870 C   0  0  0  0  0  0  0  0  0  0  0  0
  126.0960  136.8420   60.1840 O   0  0  0  0  0  0  0  0  0  0  0  0
  124.9930  136.0570   60.2840 C   0  0  0  0  0  0  0  0  0  0  0  0
  123.8650  136.4220   59.9390 O   0  0  0  0  0  0  0  0  0  0  0  0
  125.2830  134.6960   60.8510 C   0  0  0  0  0  0  0  0  0  0  0  0
  124.2720  133.8820   61.3810 C   0  0  0  0  0  0  0  0  0  0  0  0
  124.5750  132.6250   61.8970 C   0  0  0  0  0  0  0  0  0  0  0  0
  125.8890  132.1540   61.8910 C   0  0  0  0  0  0  0  0  0  0  0  0
  126.0810  130.8730   62.4410 N   0  0  0  0  0  0  0  0  0  0  0  0
  125.4120  130.2480   63.4350 C   0  0  0  0  0  0  0  0  0  0  0  0
  124.4980  130.7440   64.0940 O   0  0  0  0  0  0  0  0  0  0  0  0
  125.8950  128.8270   63.7530 C   0  0  0  0  0  0  0  0  0  0  0  0
  127.5580  128.4360   63.1200 S   0  0  0  0  0  0  0  0  0  0  0  0
  128.2830  127.3430   64.3200 C   0  0  0  0  0  0  0  0  0  0  0  0
  128.7890  126.2050   63.7890 N   0  0  0  0  0  0  0  0  0  0  0  0
  129.3620  125.2860   64.6050 C   0  0  0  0  0  0  0  0  0  0  0  0
  129.8900  124.0500   63.9500 C   0  0  0  0  0  0  0  0  0  0  0  0
  131.2080  123.6250   64.1590 C   0  0  0  0  0  0  0  0  0  0  0  0
  131.6980  122.4810   63.5370 C   0  0  0  0  0  0  0  0  0  0  0  0
  130.8880  121.7120   62.6900 C   0  0  0  0  0  0  0  0  0  0  0  0
  131.4030  120.5800   62.0490 N   0  0  0  0  0  0  0  0  0  0  0  0
  132.6700  120.6340   61.2920 C   0  0  0  0  0  0  0  0  0  0  0  0
  133.2620  119.2460   60.9680 C   0  0  0  0  0  0  0  0  0  0  0  0
  132.3000  118.4540   60.2920 O   0  0  0  0  0  0  0  0  0  0  0  0
  131.1410  118.2550   61.0860 C   0  0  0  0  0  0  0  0  0  0  0  0
  130.4840  119.6120   61.4150 C   0  0  0  0  0  0  0  0  0  0  0  0
  129.5700  122.1480   62.4750 C   0  0  0  0  0  0  0  0  0  0  0  0
  129.0800  123.2920   63.0990 C   0  0  0  0  0  0  0  0  0  0  0  0
  129.4500  125.4980   65.9830 C   0  0  0  0  0  0  0  0  0  0  0  0
  128.9330  126.6690   66.5560 C   0  0  0  0  0  0  0  0  0  0  0  0
  129.0560  126.8290   68.0360 C   0  0  0  0  0  0  0  0  0  0  0  0
  128.4610  125.9020   68.8960 C   0  0  0  0  0  0  0  0  0  0  0  0
  128.5530  126.0530   70.2760 C   0  0  0  0  0  0  0  0  0  0  0  0
  129.2460  127.1350   70.8390 C   0  0  0  0  0  0  0  0  0  0  0  0
  129.3340  127.3160   72.2230 N   0  0  0  0  0  0  0  0  0  0  0  0
  130.6370  127.1320   72.8940 C   0  0  0  0  0  0  0  0  0  0  0  0
  130.6800  127.7320   74.3160 C   0  0  0  0  0  0  0  0  0  0  0  0
  129.6270  127.1960   75.1020 O   0  0  0  0  0  0  0  0  0  0  0  0
  128.3550  127.4850   74.5430 C   0  0  0  0  0  0  0  0  0  0  0  0
  128.2510  126.8820   73.1260 C   0  0  0  0  0  0  0  0  0  0  0  0
  129.8310  128.0680   69.9700 C   0  0  0  0  0  0  0  0  0  0  0  0
  129.7370  127.9170   68.5890 C   0  0  0  0  0  0  0  0  0  0  0  0
  128.3350  127.6270   65.7020 C   0  0  0  0  0  0  0  0  0  0  0  0
  127.8270  128.8960   66.2350 C   0  0  0  0  0  0  0  0  0  0  0  0
  127.4260  129.8960   66.6580 N   0  0  0  0  0  0  0  0  0  0  0  0
  126.9070  132.9670   61.3700 C   0  0  0  0  0  0  0  0  0  0  0  0
  126.6020  134.2230   60.8520 C   0  0  0  0  0  0  0  0  0  0  0  0
  1  2  1  0
  2  3  1  0
  3  4  1  0
  4  5  2  0
  4  6  1  0
  6  7  2  0
  7  8  1  0
  8  9  2  0
  9 10  1  0
 10 11  1  0
 11 12  2  0
 11 13  1  0
 13 14  1  0
 14 15  1  0
 15 16  2  0
 16 17  1  0
 17 18  1  0
 18 19  2  0
 19 20  1  0
 20 21  2  0
 21 22  1  0
 22 23  1  0
 23 24  1  0
 24 25  1  0
 25 26  1  0
 26 27  1  0
 21 28  1  0
 28 29  2  0
 17 30  2  0
 30 31  1  0
 31 32  1  0
 32 33  2  0
 33 34  1  0
 34 35  2  0
 35 36  1  0
 36 37  1  0
 37 38  1  0
 38 39  1  0
 39 40  1  0
 40 41  1  0
 35 42  1  0
 42 43  2  0
 31 44  2  0
 44 45  1  0
 45 46  3  0
  9 47  1  0
 47 48  2  0
 48  6  1  0
 44 15  1  0
 29 18  1  0
 43 32  1  0
 27 22  1  0
 41 36  1  0
M  END
>  <Binding energies>  (8) 
[-10.58]

>  <Ligand effiencies>  (8) 
[-0.21591836734693878]

>  <Interactions>  (8) 
["V-A:GLU:543:CD:4908, V-B:ALA:541:CB:9864, V-B:GLU:543:CD:9880, V-A:TYR:539:CD1:4873, V-B:GLU:543:CG:9879, V-A:GLU:543:CG:4907, V-B:ILE:369:CG2:8208, V-B:LEU:475:CD1:9229, V-A:GLU:543:CB:4906, H-B:SER:385:OG:8381, V-B:ARG:545:CZ:9898, V-B:HIS:456:CE1:9041, H-B:GLY:454:N:9021, V-B:ILE:369:CD1:8210, V-A:GLU:543:C:4902, V-B:GLU:543:CB:9878, H-B:TYR:484:OH:9319, V-A:LEU:475:CD1:4257, V-A:HIS:456:CE1:4069, V-B:HIS:456:CD2:9039, V-A:ILE:369:CG2:3236, V-A:SER:385:CA:3406, V-A:TYR:539:CB:4871, V-B:SER:385:CB:8380, V-B:LEU:373:CD1:8251, V-B:PRO:482:CG:9298, V-A:PRO:482:CG:4326, H-A:HIS:383:NE2:3393, H-A:SER:385:OG:3409, V-A:PRO:482:CB:4325, V-B:GLU:543:C:9874, H-A:LYS:547:NZ:4951, V-A:LYS:547:CE:4950, V-A:HIS:456:CG:4065, V-B:GLU:543:CA:9876, V-A:HIS:456:CD2:4067"]

$$$$
2aa_Ghoteimi_2023
     RDKit          3D

 48 53  0  0  0  0  0  0  0  0999 V2000
  124.9280  139.7500   58.7490 C   0  0  0  0  0  0  0  0  0  0  0  0
  124.7030  138.9010   60.0050 C   0  0  0  0  0  0  0  0  0  0  0  0
  125.9560  138.6230   60.6160 O   0  0  0  0  0  0  0  0  0  0  0  0
  126.7500  137.6180   60.1650 C   0  0  0  0  0  0  0  0  0  0  0  0
  127.7790  137.8050   59.5070 O   0  0  0  0  0  0  0  0  0  0  0  0
  126.2600  136.2540   60.5590 C   0  0  0  0  0  0  0  0  0  0  0  0
  124.9880  135.7890   60.1930 C   0  0  0  0  0  0  0  0  0  0  0  0
  124.5640  134.5180   60.5700 C   0  0  0  0  0  0  0  0  0  0  0  0
  125.3960  133.6900   61.3260 C   0  0  0  0  0  0  0  0  0  0  0  0
  124.8690  132.4250   61.6490 N   0  0  0  0  0  0  0  0  0  0  0  0
  123.8800  132.0930   62.5060 C   0  0  0  0  0  0  0  0  0  0  0  0
  123.2160  132.8950   63.1670 O   0  0  0  0  0  0  0  0  0  0  0  0
  123.5950  130.5890   62.6010 C   0  0  0  0  0  0  0  0  0  0  0  0
  123.9950  130.1030   63.8870 O   0  0  0  0  0  0  0  0  0  0  0  0
  125.3390  129.9050   64.1700 C   0  0  0  0  0  0  0  0  0  0  0  0
  126.2460  130.1640   63.1860 N   0  0  0  0  0  0  0  0  0  0  0  0
  127.5680  129.9840   63.4300 C   0  0  0  0  0  0  0  0  0  0  0  0
  128.5030  130.2840   62.3010 C   0  0  0  0  0  0  0  0  0  0  0  0
  129.4390  129.3340   61.8780 C   0  0  0  0  0  0  0  0  0  0  0  0
  130.3080  129.6060   60.8240 C   0  0  0  0  0  0  0  0  0  0  0  0
  130.2630  130.8330   60.1440 C   0  0  0  0  0  0  0  0  0  0  0  0
  131.1370  131.1260   59.0910 N   0  0  0  0  0  0  0  0  0  0  0  0
  132.3790  130.3540   58.8830 C   0  0  0  0  0  0  0  0  0  0  0  0
  133.3770  131.0270   57.9180 C   0  0  0  0  0  0  0  0  0  0  0  0
  132.7420  131.3100   56.6820 O   0  0  0  0  0  0  0  0  0  0  0  0
  131.6420  132.1900   56.8520 C   0  0  0  0  0  0  0  0  0  0  0  0
  130.5920  131.5510   57.7850 C   0  0  0  0  0  0  0  0  0  0  0  0
  129.3370  131.7890   60.5860 C   0  0  0  0  0  0  0  0  0  0  0  0
  128.4710  131.5180   61.6420 C   0  0  0  0  0  0  0  0  0  0  0  0
  128.0170  129.5210   64.6700 C   0  0  0  0  0  0  0  0  0  0  0  0
  127.1060  129.2370   65.6950 C   0  0  0  0  0  0  0  0  0  0  0  0
  127.6450  128.7210   66.9900 C   0  0  0  0  0  0  0  0  0  0  0  0
  128.3300  129.5730   67.8590 C   0  0  0  0  0  0  0  0  0  0  0  0
  128.8510  129.0940   69.0580 C   0  0  0  0  0  0  0  0  0  0  0  0
  128.7140  127.7440   69.4160 C   0  0  0  0  0  0  0  0  0  0  0  0
  129.2260  127.2420   70.6160 N   0  0  0  0  0  0  0  0  0  0  0  0
  128.5590  126.1410   71.3350 C   0  0  0  0  0  0  0  0  0  0  0  0
  129.4420  125.4930   72.4240 C   0  0  0  0  0  0  0  0  0  0  0  0
  129.8990  126.4860   73.3300 O   0  0  0  0  0  0  0  0  0  0  0  0
  130.6700  127.4790   72.6720 C   0  0  0  0  0  0  0  0  0  0  0  0
  129.8200  128.1790   71.5920 C   0  0  0  0  0  0  0  0  0  0  0  0
  128.0190  126.8980   68.5410 C   0  0  0  0  0  0  0  0  0  0  0  0
  127.4980  127.3760   67.3430 C   0  0  0  0  0  0  0  0  0  0  0  0
  125.7310  129.4480   65.4410 C   0  0  0  0  0  0  0  0  0  0  0  0
  124.7110  129.2260   66.4690 C   0  0  0  0  0  0  0  0  0  0  0  0
  123.9060  129.0500   67.2820 N   0  0  0  0  0  0  0  0  0  0  0  0
  126.6720  134.1450   61.6900 C   0  0  0  0  0  0  0  0  0  0  0  0
  127.0950  135.4150   61.3090 C   0  0  0  0  0  0  0  0  0  0  0  0
  1  2  1  0
  2  3  1  0
  3  4  1  0
  4  5  2  0
  4  6  1  0
  6  7  2  0
  7  8  1  0
  8  9  2  0
  9 10  1  0
 10 11  1  0
 11 12  2  0
 11 13  1  0
 13 14  1  0
 14 15  1  0
 15 16  2  0
 16 17  1  0
 17 18  1  0
 18 19  2  0
 19 20  1  0
 20 21  2  0
 21 22  1  0
 22 23  1  0
 23 24  1  0
 24 25  1  0
 25 26  1  0
 26 27  1  0
 21 28  1  0
 28 29  2  0
 17 30  2  0
 30 31  1  0
 31 32  1  0
 32 33  2  0
 33 34  1  0
 34 35  2  0
 35 36  1  0
 36 37  1  0
 37 38  1  0
 38 39  1  0
 39 40  1  0
 40 41  1  0
 35 42  1  0
 42 43  2  0
 31 44  2  0
 44 45  1  0
 45 46  3  0
  9 47  1  0
 47 48  2  0
 48  6  1  0
 44 15  1  0
 29 18  1  0
 43 32  1  0
 27 22  1  0
 41 36  1  0
M  END
>  <Binding energies>  (9) 
[-11.09]

>  <Ligand effiencies>  (9) 
[-0.2263265306122449]

>  <Interactions>  (9) 
["V-A:GLU:543:CD:4908, V-A:ASP:366:CB:3211, V-A:PRO:540:CD:4887, V-A:PRO:540:CB:4885, V-A:PRO:540:CA:4883, V-A:ASP:366:CG:3212, V-A:TYR:539:C:4867, V-A:PRO:540:N:4884, V-A:LEU:363:CD1:3188, H-A:TYR:531:OH:4795, V-B:ASP:366:CG:8184, V-B:GLU:543:CD:9880, V-A:TYR:539:CD1:4873, H-B:ARG:545:NH2:9900, V-A:GLU:543:CG:4907, V-B:ILE:369:CG2:8208, V-B:LEU:475:CD1:9229, V-A:ALA:541:CB:4892, V-B:GLY:454:CA:9020, V-A:GLU:543:CB:4906, H-B:SER:385:OG:8381, V-B:ARG:545:CD:9895, V-B:ARG:545:CG:9894, V-B:ARG:545:CZ:9898, V-B:HIS:456:CE1:9041, V-B:TYR:484:CE2:9317, H-B:GLY:454:N:9021, V-B:ILE:369:CD1:8210, H-B:ARG:545:NH1:9899, V-B:TYR:484:CZ:9318, V-A:GLU:543:C:4902, V-B:GLU:543:CB:9878, V-A:GLU:543:CA:4904, H-B:TYR:484:OH:9319, V-A:HIS:456:CE1:4069, V-B:HIS:456:CD2:9039, H-B:ARG:545:NE:9896, V-A:LEU:363:CA:3184, V-B:HIS:383:CE1:8365, V-A:TYR:539:CB:4871, V-A:VAL:344:CG1:3000, V-B:SER:385:CB:8380, V-B:LEU:373:CD1:8251, V-A:ILE:343:CG2:2991, V-B:PRO:482:CG:9298, V-B:HIS:383:CD2:8363, V-B:HIS:383:CG:8361, V-A:LEU:363:CB:3186, V-B:LEU:373:CD2:8252, V-B:PRO:482:CB:9297, H-B:HIS:456:ND1:9038, V-A:HIS:456:CG:4065, V-A:HIS:456:CD2:4067, V-A:LEU:363:CG:3187"]

$$$$
2b_Ghoteimi_2023
     RDKit          3D

 42 47  0  0  0  0  0  0  0  0999 V2000
  126.5150  126.3970   61.6860 N   0  0  0  0  0  0  0  0  0  0  0  0
  126.4210  127.5460   61.5980 C   0  0  0  0  0  0  0  0  0  0  0  0
  126.3030  129.0040   61.4920 C   0  0  0  0  0  0  0  0  0  0  0  0
  126.6160  129.8340   62.5980 C   0  0  0  0  0  0  0  0  0  0  0  0
  127.0770  129.3160   63.9200 C   0  0  0  0  0  0  0  0  0  0  0  0
  126.7960  130.0240   65.0900 C   0  0  0  0  0  0  0  0  0  0  0  0
  127.2240  129.5470   66.3260 C   0  0  0  0  0  0  0  0  0  0  0  0
  127.9610  128.3560   66.4230 C   0  0  0  0  0  0  0  0  0  0  0  0
  128.3910  127.8500   67.6510 N   0  0  0  0  0  0  0  0  0  0  0  0
  128.7870  128.7920   68.7170 C   0  0  0  0  0  0  0  0  0  0  0  0
  129.5850  128.1240   69.8570 C   0  0  0  0  0  0  0  0  0  0  0  0
  128.8550  127.0290   70.3880 O   0  0  0  0  0  0  0  0  0  0  0  0
  128.5940  126.0440   69.3990 C   0  0  0  0  0  0  0  0  0  0  0  0
  127.7620  126.6590   68.2540 C   0  0  0  0  0  0  0  0  0  0  0  0
  128.2410  127.6540   65.2420 C   0  0  0  0  0  0  0  0  0  0  0  0
  127.8100  128.1290   64.0070 C   0  0  0  0  0  0  0  0  0  0  0  0
  126.4930  131.2200   62.4470 C   0  0  0  0  0  0  0  0  0  0  0  0
  126.1030  131.7670   61.2210 C   0  0  0  0  0  0  0  0  0  0  0  0
  125.9860  133.2420   60.9990 C   0  0  0  0  0  0  0  0  0  0  0  0
  126.9820  134.1130   61.4520 C   0  0  0  0  0  0  0  0  0  0  0  0
  126.8880  135.4850   61.2350 C   0  0  0  0  0  0  0  0  0  0  0  0
  125.7850  136.0400   60.5660 C   0  0  0  0  0  0  0  0  0  0  0  0
  125.6910  137.4130   60.3130 N   0  0  0  0  0  0  0  0  0  0  0  0
  126.8450  138.1370   59.7420 C   0  0  0  0  0  0  0  0  0  0  0  0
  126.7440  139.6710   59.8820 C   0  0  0  0  0  0  0  0  0  0  0  0
  125.5250  140.1310   59.3190 O   0  0  0  0  0  0  0  0  0  0  0  0
  124.4030  139.5620   59.9750 C   0  0  0  0  0  0  0  0  0  0  0  0
  124.4340  138.0250   59.8410 C   0  0  0  0  0  0  0  0  0  0  0  0
  124.7930  135.1620   60.1070 C   0  0  0  0  0  0  0  0  0  0  0  0
  124.8890  133.7900   60.3230 C   0  0  0  0  0  0  0  0  0  0  0  0
  125.8050  130.9710   60.1630 N   0  0  0  0  0  0  0  0  0  0  0  0
  125.8840  129.6250   60.2940 C   0  0  0  0  0  0  0  0  0  0  0  0
  125.4550  128.7380   58.8120 S   0  0  0  0  0  0  0  0  0  0  0  0
  125.7740  129.8390   57.4010 C   0  0  0  0  0  0  0  0  0  0  0  0
  127.2450  130.2480   57.3120 C   0  0  0  0  0  0  0  0  0  0  0  0
  128.0130  129.9440   58.2280 O   0  0  0  0  0  0  0  0  0  0  0  0
  127.5920  130.9360   56.2030 N   0  0  0  0  0  0  0  0  0  0  0  0
  128.8510  131.4140   55.8680 C   0  0  0  0  0  0  0  0  0  0  0  0
  129.7090  130.7480   54.9940 C   0  0  0  0  0  0  0  0  0  0  0  0
  130.8340  131.5360   54.9290 C   0  0  0  0  0  0  0  0  0  0  0  0
  130.6630  132.6200   55.7210 O   0  0  0  0  0  0  0  0  0  0  0  0
  129.3990  132.5330   56.3100 N   0  0  0  0  0  0  0  0  0  0  0  0
  1  2  3  0
  2  3  1  0
  3  4  2  0
  4  5  1  0
  5  6  2  0
  6  7  1  0
  7  8  2  0
  8  9  1  0
  9 10  1  0
 10 11  1  0
 11 12  1  0
 12 13  1  0
 13 14  1  0
  8 15  1  0
 15 16  2  0
  4 17  1  0
 17 18  2  0
 18 19  1  0
 19 20  2  0
 20 21  1  0
 21 22  2  0
 22 23  1  0
 23 24  1  0
 24 25  1  0
 25 26  1  0
 26 27  1  0
 27 28  1  0
 22 29  1  0
 29 30  2  0
 18 31  1  0
 31 32  2  0
 32 33  1  0
 33 34  1  0
 34 35  1  0
 35 36  2  0
 35 37  1  0
 37 38  1  0
 38 39  1  0
 39 40  2  0
 40 41  1  0
 41 42  1  0
 32  3  1  0
 42 38  2  0
 16  5  1  0
 30 19  1  0
 14  9  1  0
 28 23  1  0
M  END
>  <Binding energies>  (10) 
[-10.93]

>  <Ligand effiencies>  (10) 
[-0.2541860465116279]

>  <Interactions>  (10) 
["V-A:GLU:543:CD:4908, V-A:TYR:539:CZ:4877, V-A:ILE:538:CA:4860, V-A:ILE:538:CG2:4863, V-A:ILE:538:CB:4862, V-A:TYR:539:CE1:4875, V-B:ASP:366:CG:8184, V-B:GLU:543:CD:9880, V-A:TYR:539:CD1:4873, H-B:ARG:545:NH2:9900, V-B:ILE:369:CG2:8208, H-A:TYR:539:OH:4878, V-B:LEU:475:CD1:9229, V-A:ALA:541:CB:4892, V-A:GLU:543:CB:4906, V-B:HIS:456:CE1:9041, V-B:TYR:484:CE2:9317, V-B:TYR:484:CZ:9318, H-A:TYR:539:N:4870, V-A:GLU:543:C:4902, V-B:GLU:543:CB:9878, V-A:HIS:456:CE1:4069, V-B:HIS:383:CE1:8365, V-A:TYR:539:CB:4871, V-A:VAL:344:CG1:3000, V-B:SER:385:CB:8380, V-B:LEU:373:CD1:8251, V-A:ILE:343:CG2:2991, V-B:PRO:482:CG:9298, V-B:HIS:383:CD2:8363, V-B:HIS:383:CG:8361, V-B:SER:385:CA:8378, V-B:PRO:482:CB:9297, V-B:GLU:543:C:9874, V-B:VAL:384:C:8368, H-B:HIS:383:ND1:8362"]

$$$$
2c_Ghoteimi_2023
     RDKit          3D

 42 47  0  0  0  0  0  0  0  0999 V2000
  126.6940  126.4450   61.6650 N   0  0  0  0  0  0  0  0  0  0  0  0
  126.5900  127.5930   61.5640 C   0  0  0  0  0  0  0  0  0  0  0  0
  126.4610  129.0480   61.4410 C   0  0  0  0  0  0  0  0  0  0  0  0
  126.6880  129.8900   62.5580 C   0  0  0  0  0  0  0  0  0  0  0  0
  127.0630  129.3880   63.9140 C   0  0  0  0  0  0  0  0  0  0  0  0
  127.8640  128.2530   64.0470 C   0  0  0  0  0  0  0  0  0  0  0  0
  128.2210  127.7820   65.3080 C   0  0  0  0  0  0  0  0  0  0  0  0
  127.7750  128.4250   66.4720 C   0  0  0  0  0  0  0  0  0  0  0  0
  128.1380  127.9820   67.7460 N   0  0  0  0  0  0  0  0  0  0  0  0
  128.2830  126.5340   67.9930 C   0  0  0  0  0  0  0  0  0  0  0  0
  128.2990  126.1700   69.4930 C   0  0  0  0  0  0  0  0  0  0  0  0
  129.3160  126.9020   70.1600 O   0  0  0  0  0  0  0  0  0  0  0  0
  129.1110  128.3020   70.0530 C   0  0  0  0  0  0  0  0  0  0  0  0
  129.1150  128.7220   68.5680 C   0  0  0  0  0  0  0  0  0  0  0  0
  126.9680  129.5630   66.3290 C   0  0  0  0  0  0  0  0  0  0  0  0
  126.6130  130.0350   65.0680 C   0  0  0  0  0  0  0  0  0  0  0  0
  126.5560  131.2740   62.3880 C   0  0  0  0  0  0  0  0  0  0  0  0
  126.2330  131.8060   61.1360 C   0  0  0  0  0  0  0  0  0  0  0  0
  126.0970  133.2760   60.9000 C   0  0  0  0  0  0  0  0  0  0  0  0
  124.9540  133.7980   60.2870 C   0  0  0  0  0  0  0  0  0  0  0  0
  124.8190  135.1670   60.0680 C   0  0  0  0  0  0  0  0  0  0  0  0
  125.8300  136.0650   60.4450 C   0  0  0  0  0  0  0  0  0  0  0  0
  125.7000  137.4450   60.2560 N   0  0  0  0  0  0  0  0  0  0  0  0
  126.8100  138.2130   59.6560 C   0  0  0  0  0  0  0  0  0  0  0  0
  126.6890  139.7380   59.8610 C   0  0  0  0  0  0  0  0  0  0  0  0
  125.4380  140.1960   59.3750 O   0  0  0  0  0  0  0  0  0  0  0  0
  124.3580  139.5810   60.0600 C   0  0  0  0  0  0  0  0  0  0  0  0
  124.4100  138.0510   59.8660 C   0  0  0  0  0  0  0  0  0  0  0  0
  126.9690  135.5380   61.0710 C   0  0  0  0  0  0  0  0  0  0  0  0
  127.1020  134.1690   61.2900 C   0  0  0  0  0  0  0  0  0  0  0  0
  126.0180  130.9980   60.0670 N   0  0  0  0  0  0  0  0  0  0  0  0
  126.1100  129.6550   60.2130 C   0  0  0  0  0  0  0  0  0  0  0  0
  125.7870  128.7520   58.7150 S   0  0  0  0  0  0  0  0  0  0  0  0
  125.7200  129.9570   57.3550 C   0  0  0  0  0  0  0  0  0  0  0  0
  127.1120  130.2950   56.8200 C   0  0  0  0  0  0  0  0  0  0  0  0
  127.4390  129.9050   55.6980 O   0  0  0  0  0  0  0  0  0  0  0  0
  127.8970  131.0140   57.6500 N   0  0  0  0  0  0  0  0  0  0  0  0
  129.1860  131.4600   57.3960 C   0  0  0  0  0  0  0  0  0  0  0  0
  129.5720  132.3540   56.5110 N   0  0  0  0  0  0  0  0  0  0  0  0
  130.8760  132.5380   56.5460 C   0  0  0  0  0  0  0  0  0  0  0  0
  131.5810  131.7800   57.4760 C   0  0  0  0  0  0  0  0  0  0  0  0
  130.4630  130.7750   58.3490 S   0  0  0  0  0  0  0  0  0  0  0  0
  1  2  3  0
  2  3  1  0
  3  4  2  0
  4  5  1  0
  5  6  2  0
  6  7  1  0
  7  8  2  0
  8  9  1  0
  9 10  1  0
 10 11  1  0
 11 12  1  0
 12 13  1  0
 13 14  1  0
  8 15  1  0
 15 16  2  0
  4 17  1  0
 17 18  2  0
 18 19  1  0
 19 20  2  0
 20 21  1  0
 21 22  2  0
 22 23  1  0
 23 24  1  0
 24 25  1  0
 25 26  1  0
 26 27  1  0
 27 28  1  0
 22 29  1  0
 29 30  2  0
 18 31  1  0
 31 32  2  0
 32 33  1  0
 33 34  1  0
 34 35  1  0
 35 36  2  0
 35 37  1  0
 37 38  1  0
 38 39  2  0
 39 40  1  0
 40 41  2  0
 41 42  1  0
 32  3  1  0
 42 38  1  0
 16  5  1  0
 30 19  1  0
 14  9  1  0
 28 23  1  0
M  END
>  <Binding energies>  (11) 
[-10.25]

>  <Ligand effiencies>  (11) 
[-0.23837209302325582]

>  <Interactions>  (11) 
["V-A:GLU:543:CD:4908, V-A:TYR:539:CZ:4877, V-A:PRO:540:CD:4887, V-A:ILE:538:CB:4862, V-A:TYR:539:CE1:4875, V-A:PRO:540:CB:4885, V-A:PRO:540:CA:4883, V-A:TYR:539:C:4867, V-A:PRO:540:N:4884, V-B:ASP:366:CG:8184, H-B:TYR:531:OH:9767, V-B:GLU:543:CD:9880, V-A:TYR:539:CD1:4873, H-B:ARG:545:NH2:9900, V-B:ILE:369:CG2:8208, H-A:TYR:539:OH:4878, V-A:ALA:541:CB:4892, V-A:GLU:543:CB:4906, V-B:HIS:456:CE1:9041, V-B:TYR:484:CE2:9317, V-B:TYR:484:CZ:9318, H-A:TYR:539:N:4870, V-A:GLU:543:C:4902, V-A:TYR:539:CA:4869, V-B:GLU:543:CB:9878, V-A:GLU:543:CA:4904, V-A:HIS:456:CE1:4069, V-B:HIS:383:CE1:8365, V-A:TYR:539:CB:4871, V-A:VAL:344:CG1:3000, V-B:SER:385:CB:8380, V-B:LEU:373:CD1:8251, V-A:ILE:343:CG2:2991, V-B:PRO:482:CG:9298, V-B:HIS:383:CD2:8363, V-B:HIS:383:CG:8361, V-B:SER:385:CA:8378, V-B:PRO:482:CB:9297, V-B:GLU:543:C:9874, V-B:VAL:384:C:8368, H-B:HIS:383:ND1:8362"]

$$$$
2j_Grossjean_2025
     RDKit          3D

 23 24  0  0  0  0  0  0  0  0999 V2000
  126.2500  130.0260   57.8630 C   0  0  0  0  0  0  0  0  0  0  0  0
  127.2670  129.1420   57.1640 C   0  0  0  0  0  0  0  0  0  0  0  0
  127.6770  127.9290   57.7110 C   0  0  0  0  0  0  0  0  0  0  0  0
  128.6170  127.1460   57.0250 C   0  0  0  0  0  0  0  0  0  0  0  0
  129.0590  125.8060   57.6440 C   0  0  0  0  0  0  0  0  0  0  0  0
  128.5080  125.6560   58.8490 F   0  0  0  0  0  0  0  0  0  0  0  0
  128.6760  124.7940   56.8640 F   0  0  0  0  0  0  0  0  0  0  0  0
  130.3830  125.7180   57.7940 F   0  0  0  0  0  0  0  0  0  0  0  0
  129.1220  127.6220   55.7890 C   0  0  0  0  0  0  0  0  0  0  0  0
  130.1070  126.8450   55.0300 C   0  0  0  0  0  0  0  0  0  0  0  0
  130.8840  126.2310   54.4310 N   0  0  0  0  0  0  0  0  0  0  0  0
  128.6510  128.8670   55.3080 C   0  0  0  0  0  0  0  0  0  0  0  0
  129.2160  129.5640   53.7630 S   0  0  0  0  0  0  0  0  0  0  0  0
  129.7130  131.2950   54.0600 C   0  0  0  0  0  0  0  0  0  0  0  0
  130.2150  131.5870   55.4820 C   0  0  0  0  0  0  0  0  0  0  0  0
  129.7660  132.5390   56.1240 O   0  0  0  0  0  0  0  0  0  0  0  0
  131.1660  130.7390   55.9320 N   0  0  0  0  0  0  0  0  0  0  0  0
  131.7880  130.7730   57.1730 C   0  0  0  0  0  0  0  0  0  0  0  0
  133.0700  130.6420   57.4370 N   0  0  0  0  0  0  0  0  0  0  0  0
  133.3110  130.7300   58.7310 C   0  0  0  0  0  0  0  0  0  0  0  0
  132.2050  130.9360   59.5500 C   0  0  0  0  0  0  0  0  0  0  0  0
  130.7770  131.0190   58.5610 S   0  0  0  0  0  0  0  0  0  0  0  0
  127.7380  129.6090   55.9860 N   0  0  0  0  0  0  0  0  0  0  0  0
  1  2  1  0
  2  3  2  0
  3  4  1  0
  4  5  1  0
  5  6  1  0
  5  7  1  0
  5  8  1  0
  4  9  2  0
  9 10  1  0
 10 11  3  0
  9 12  1  0
 12 13  1  0
 13 14  1  0
 14 15  1  0
 15 16  2  0
 15 17  1  0
 17 18  1  0
 18 19  2  0
 19 20  1  0
 20 21  2  0
 21 22  1  0
 12 23  2  0
 23  2  1  0
 22 18  1  0
M  END
>  <Binding energies>  (12) 
[-6.32]

>  <Ligand effiencies>  (12) 
[-0.26333333333333336]

>  <Interactions>  (12) 
["V-A:TYR:539:CZ:4877, V-A:ASP:366:CB:3211, V-A:ILE:538:CA:4860, V-A:TYR:531:CZ:4794, V-A:ILE:538:CG2:4863, V-A:ILE:538:CB:4862, V-A:TYR:539:CE1:4875, V-A:PRO:540:CB:4885, V-A:PRO:540:CA:4883, V-A:ASP:366:CG:3212, V-A:LEU:363:CD1:3188, H-A:TYR:531:OH:4795, H-B:TYR:539:OH:9850, H-B:TYR:531:OH:9767, V-B:MET:535:CE:9807, H-A:TYR:539:N:4870, V-A:LEU:363:CA:3184"]

$$$$
3ab_Grossjean_2025
     RDKit          3D

 33 35  0  0  0  0  0  0  0  0999 V2000
  125.2210  122.0110   55.0940 C   0  0  0  0  0  0  0  0  0  0  0  0
  125.6360  121.4840   56.3470 O   0  0  0  0  0  0  0  0  0  0  0  0
  126.8460  121.8040   56.8730 C   0  0  0  0  0  0  0  0  0  0  0  0
  127.9100  121.3170   56.4790 O   0  0  0  0  0  0  0  0  0  0  0  0
  126.7620  122.8130   57.9820 C   0  0  0  0  0  0  0  0  0  0  0  0
  127.6500  122.7980   59.0690 C   0  0  0  0  0  0  0  0  0  0  0  0
  127.5490  123.7460   60.0830 C   0  0  0  0  0  0  0  0  0  0  0  0
  126.5520  124.7330   60.0270 C   0  0  0  0  0  0  0  0  0  0  0  0
  126.3620  125.7420   60.9900 N   0  0  0  0  0  0  0  0  0  0  0  0
  127.2530  126.5900   61.5440 C   0  0  0  0  0  0  0  0  0  0  0  0
  128.4600  126.6200   61.2990 O   0  0  0  0  0  0  0  0  0  0  0  0
  126.6750  127.5790   62.5590 C   0  0  0  0  0  0  0  0  0  0  0  0
  127.9750  128.5100   63.4230 S   0  0  0  0  0  0  0  0  0  0  0  0
  128.2750  129.9980   62.4920 C   0  0  0  0  0  0  0  0  0  0  0  0
  129.5010  130.0410   61.9190 N   0  0  0  0  0  0  0  0  0  0  0  0
  129.8620  131.1170   61.1740 C   0  0  0  0  0  0  0  0  0  0  0  0
  131.2360  131.0850   60.5720 C   0  0  0  0  0  0  0  0  0  0  0  0
  131.4180  130.7760   59.2150 C   0  0  0  0  0  0  0  0  0  0  0  0
  132.6900  130.7450   58.6500 C   0  0  0  0  0  0  0  0  0  0  0  0
  133.8020  131.0240   59.4380 C   0  0  0  0  0  0  0  0  0  0  0  0
  133.6500  131.3300   60.7870 C   0  0  0  0  0  0  0  0  0  0  0  0
  132.3760  131.3590   61.3470 C   0  0  0  0  0  0  0  0  0  0  0  0
  128.9890  132.1980   61.0080 C   0  0  0  0  0  0  0  0  0  0  0  0
  127.7220  132.1860   61.6070 C   0  0  0  0  0  0  0  0  0  0  0  0
  126.7930  133.3990   61.4030 C   0  0  0  0  0  0  0  0  0  0  0  0
  127.4450  134.4850   60.9830 F   0  0  0  0  0  0  0  0  0  0  0  0
  125.8610  133.1160   60.4920 F   0  0  0  0  0  0  0  0  0  0  0  0
  126.1920  133.7100   62.5530 F   0  0  0  0  0  0  0  0  0  0  0  0
  127.3490  131.0600   62.3810 C   0  0  0  0  0  0  0  0  0  0  0  0
  126.0590  131.0210   63.0750 C   0  0  0  0  0  0  0  0  0  0  0  0
  125.0400  130.9930   63.6230 N   0  0  0  0  0  0  0  0  0  0  0  0
  125.6710  124.7540   58.9440 C   0  0  0  0  0  0  0  0  0  0  0  0
  125.7730  123.8030   57.9330 C   0  0  0  0  0  0  0  0  0  0  0  0
  1  2  1  0
  2  3  1  0
  3  4  2  0
  3  5  1  0
  5  6  2  0
  6  7  1  0
  7  8  2  0
  8  9  1  0
  9 10  1  0
 10 11  2  0
 10 12  1  0
 12 13  1  0
 13 14  1  0
 14 15  2  0
 15 16  1  0
 16 17  1  0
 17 18  2  0
 18 19  1  0
 19 20  2  0
 20 21  1  0
 21 22  2  0
 16 23  2  0
 23 24  1  0
 24 25  1  0
 25 26  1  0
 25 27  1  0
 25 28  1  0
 24 29  2  0
 29 30  1  0
 30 31  3  0
  8 32  1  0
 32 33  2  0
 33  5  1  0
 29 14  1  0
 22 17  1  0
M  END
>  <Binding energies>  (13) 
[-8.34]

>  <Ligand effiencies>  (13) 
[-0.24529411764705883]

>  <Interactions>  (13) 
["V-A:GLU:543:CD:4908, V-A:ASN:362:CB:3175, V-A:PRO:540:C:4881, V-A:TYR:539:CE1:4875, V-A:PRO:540:CB:4885, V-A:PRO:540:CA:4883, V-A:ASP:366:CG:3212, V-A:TYR:539:C:4867, V-B:ASP:366:CG:8184, V-B:PRO:540:CB:9857, V-B:PRO:540:N:9856, V-A:TYR:539:CD1:4873, V-B:ILE:538:CG2:9835, H-B:ASP:366:OD2:8186, V-B:LEU:363:CD1:8160, V-B:PRO:540:CD:9859, H-B:TYR:539:N:9842, V-B:PRO:540:CA:9855, H-B:ASP:366:OD1:8185, V-B:MET:535:CE:9807, H-B:GLU:543:OE1:9881, V-B:ILE:369:CG2:8208, V-B:LEU:475:CD1:9229, V-A:ALA:541:CB:4892, H-B:GLY:454:N:9021, V-A:ASN:362:C:3171, V-A:LEU:363:CA:3184, V-B:TYR:539:C:9839, V-A:LEU:363:CB:3186, V-B:TYR:539:CA:9841, V-B:ILE:538:CA:9832, V-B:ILE:538:CB:9834, V-B:ILE:538:CG1:9836, V-B:MET:535:CG:9805"]

$$$$
3ac_Grossjean_2025
     RDKit          3D

 31 33  0  0  0  0  0  0  0  0999 V2000
  132.9490  131.4920   61.6070 C   0  0  0  0  0  0  0  0  0  0  0  0
  133.6690  130.9920   60.4840 O   0  0  0  0  0  0  0  0  0  0  0  0
  133.0310  130.8910   59.2630 C   0  0  0  0  0  0  0  0  0  0  0  0
  131.7210  131.3660   59.2050 C   0  0  0  0  0  0  0  0  0  0  0  0
  131.0000  131.3100   58.0160 C   0  0  0  0  0  0  0  0  0  0  0  0
  131.5770  130.7670   56.8670 C   0  0  0  0  0  0  0  0  0  0  0  0
  130.7770  130.7720   55.7090 N   0  0  0  0  0  0  0  0  0  0  0  0
  129.7530  131.5910   55.3860 C   0  0  0  0  0  0  0  0  0  0  0  0
  129.3580  132.5390   56.0650 O   0  0  0  0  0  0  0  0  0  0  0  0
  129.0560  131.2830   54.0600 C   0  0  0  0  0  0  0  0  0  0  0  0
  128.9430  129.4950   53.7410 S   0  0  0  0  0  0  0  0  0  0  0  0
  128.5560  128.6660   55.2710 C   0  0  0  0  0  0  0  0  0  0  0  0
  127.6900  129.3580   56.0490 N   0  0  0  0  0  0  0  0  0  0  0  0
  127.2960  128.8480   57.2440 C   0  0  0  0  0  0  0  0  0  0  0  0
  126.3420  129.6810   58.0470 C   0  0  0  0  0  0  0  0  0  0  0  0
  126.7320  130.2350   59.2770 C   0  0  0  0  0  0  0  0  0  0  0  0
  125.8530  131.0140   60.0240 C   0  0  0  0  0  0  0  0  0  0  0  0
  124.5660  131.2480   59.5510 C   0  0  0  0  0  0  0  0  0  0  0  0
  124.1520  130.7060   58.3390 C   0  0  0  0  0  0  0  0  0  0  0  0
  125.0350  129.9280   57.5950 C   0  0  0  0  0  0  0  0  0  0  0  0
  127.7880  127.6190   57.6940 C   0  0  0  0  0  0  0  0  0  0  0  0
  128.7030  126.8920   56.9190 C   0  0  0  0  0  0  0  0  0  0  0  0
  129.2240  125.5440   57.4560 C   0  0  0  0  0  0  0  0  0  0  0  0
  128.7150  125.2310   58.6490 F   0  0  0  0  0  0  0  0  0  0  0  0
  128.9030  124.5580   56.6170 F   0  0  0  0  0  0  0  0  0  0  0  0
  130.5500  125.5900   57.5830 F   0  0  0  0  0  0  0  0  0  0  0  0
  129.1150  127.4310   55.6750 C   0  0  0  0  0  0  0  0  0  0  0  0
  130.1260  126.7470   54.8660 C   0  0  0  0  0  0  0  0  0  0  0  0
  130.9260  126.2060   54.2280 N   0  0  0  0  0  0  0  0  0  0  0  0
  132.8970  130.2930   56.9160 C   0  0  0  0  0  0  0  0  0  0  0  0
  133.6160  130.3510   58.1070 C   0  0  0  0  0  0  0  0  0  0  0  0
  1  2  1  0
  2  3  1  0
  3  4  2  0
  4  5  1  0
  5  6  2  0
  6  7  1  0
  7  8  1  0
  8  9  2  0
  8 10  1  0
 10 11  1  0
 11 12  1  0
 12 13  2  0
 13 14  1  0
 14 15  1  0
 15 16  2  0
 16 17  1  0
 17 18  2  0
 18 19  1  0
 19 20  2  0
 14 21  2  0
 21 22  1  0
 22 23  1  0
 23 24  1  0
 23 25  1  0
 23 26  1  0
 22 27  2  0
 27 28  1  0
 28 29  3  0
  6 30  1  0
 30 31  2  0
 31  3  1  0
 27 12  1  0
 20 15  1  0
M  END
>  <Binding energies>  (14) 
[-8.43]

>  <Ligand effiencies>  (14) 
[-0.2634375]

>  <Interactions>  (14) 
["H-A:LEU:363:N:3185, V-A:TYR:539:CZ:4877, V-A:ASP:366:CB:3211, V-A:ASN:362:CB:3175, V-A:ILE:538:CA:4860, V-A:TYR:531:CZ:4794, V-A:PRO:540:C:4881, V-A:ILE:538:CG2:4863, V-A:TYR:539:CE1:4875, V-A:PRO:540:CB:4885, V-A:PRO:540:CA:4883, V-A:ASP:366:CG:3212, V-A:PRO:540:N:4884, V-A:LEU:363:CD1:3188, H-A:TYR:531:OH:4795, H-B:TYR:539:OH:9850, V-B:TYR:539:CZ:9849, H-B:TYR:531:OH:9767, V-B:ASP:366:CB:8183, V-B:ASP:366:CA:8181, V-B:MET:535:CE:9807, V-B:ILE:369:CG2:8208, H-A:TYR:539:N:4870, V-A:LEU:363:CA:3184, V-B:ILE:369:CB:8207, V-B:ASP:366:C:8179, V-B:LYS:534:CE:9794, V-A:LEU:363:CB:3186"]

$$$$
3af_Grossjean_2025
     RDKit          3D

 29 31  0  0  0  0  0  0  0  0999 V2000
  130.9010  126.1830   54.6230 N   0  0  0  0  0  0  0  0  0  0  0  0
  130.1210  126.7110   55.2960 C   0  0  0  0  0  0  0  0  0  0  0  0
  129.1330  127.3770   56.1490 C   0  0  0  0  0  0  0  0  0  0  0  0
  128.5540  126.6980   57.2480 C   0  0  0  0  0  0  0  0  0  0  0  0
  128.9520  125.2620   57.6440 C   0  0  0  0  0  0  0  0  0  0  0  0
  130.2740  125.0790   57.6690 F   0  0  0  0  0  0  0  0  0  0  0  0
  128.4830  124.9790   58.8600 F   0  0  0  0  0  0  0  0  0  0  0  0
  128.4460  124.3900   56.7710 F   0  0  0  0  0  0  0  0  0  0  0  0
  127.5720  127.3590   58.0030 C   0  0  0  0  0  0  0  0  0  0  0  0
  127.1790  128.6590   57.6680 C   0  0  0  0  0  0  0  0  0  0  0  0
  126.1220  129.4030   58.4280 C   0  0  0  0  0  0  0  0  0  0  0  0
  124.9950  129.9210   57.7690 C   0  0  0  0  0  0  0  0  0  0  0  0
  124.0090  130.6110   58.4700 C   0  0  0  0  0  0  0  0  0  0  0  0
  124.1380  130.7930   59.8420 C   0  0  0  0  0  0  0  0  0  0  0  0
  125.2430  130.2880   60.5190 C   0  0  0  0  0  0  0  0  0  0  0  0
  126.2270  129.5980   59.8150 C   0  0  0  0  0  0  0  0  0  0  0  0
  127.7340  129.3040   56.6110 N   0  0  0  0  0  0  0  0  0  0  0  0
  128.7000  128.6950   55.8810 C   0  0  0  0  0  0  0  0  0  0  0  0
  129.3170  129.7030   54.5470 S   0  0  0  0  0  0  0  0  0  0  0  0
  129.1290  131.4470   55.0270 C   0  0  0  0  0  0  0  0  0  0  0  0
  130.0110  131.8060   56.2220 C   0  0  0  0  0  0  0  0  0  0  0  0
  130.8580  132.6900   56.0960 O   0  0  0  0  0  0  0  0  0  0  0  0
  129.7810  131.0930   57.3460 N   0  0  0  0  0  0  0  0  0  0  0  0
  130.4140  131.1680   58.6020 C   0  0  0  0  0  0  0  0  0  0  0  0
  131.7370  130.7790   58.8790 C   0  0  0  0  0  0  0  0  0  0  0  0
  132.2370  130.9060   60.1770 C   0  0  0  0  0  0  0  0  0  0  0  0
  131.4010  131.4190   61.1680 C   0  0  0  0  0  0  0  0  0  0  0  0
  130.1220  131.8020   60.9270 N   0  0  0  0  0  0  0  0  0  0  0  0
  129.6510  131.6720   59.6610 C   0  0  0  0  0  0  0  0  0  0  0  0
  1  2  3  0
  2  3  1  0
  3  4  2  0
  4  5  1  0
  5  6  1  0
  5  7  1  0
  5  8  1  0
  4  9  1  0
  9 10  2  0
 10 11  1  0
 11 12  2  0
 12 13  1  0
 13 14  2  0
 14 15  1  0
 15 16  2  0
 10 17  1  0
 17 18  2  0
 18 19  1  0
 19 20  1  0
 20 21  1  0
 21 22  2  0
 21 23  1  0
 23 24  1  0
 24 25  2  0
 25 26  1  0
 26 27  2  0
 27 28  1  0
 28 29  2  0
 18  3  1  0
 29 24  1  0
 16 11  1  0
M  END
>  <Binding energies>  (15) 
[-7.81]

>  <Ligand effiencies>  (15) 
[-0.2603333333333333]

>  <Interactions>  (15) 
["V-A:TYR:539:CZ:4877, H-A:ALA:541:N:4891, V-A:PRO:540:C:4881, V-A:TYR:539:CE1:4875, V-A:PRO:540:CB:4885, V-A:PRO:540:CA:4883, H-A:TYR:531:OH:4795, H-B:TYR:539:OH:9850, V-B:ASP:366:CG:8184, H-B:TYR:531:OH:9767, V-B:ASP:366:CB:8183, V-B:ASP:366:CA:8181, V-B:MET:535:CE:9807, V-B:ILE:369:CG2:8208, H-A:TYR:539:N:4870, V-B:ILE:369:CB:8207, V-B:ASP:366:C:8179"]

$$$$
3ag_Grossjean_2025
     RDKit          3D

 30 32  0  0  0  0  0  0  0  0999 V2000
  131.2590  125.8020   54.6250 N   0  0  0  0  0  0  0  0  0  0  0  0
  130.4730  126.4190   55.2110 C   0  0  0  0  0  0  0  0  0  0  0  0
  129.4780  127.1960   55.9540 C   0  0  0  0  0  0  0  0  0  0  0  0
  129.0300  126.7690   57.2280 C   0  0  0  0  0  0  0  0  0  0  0  0
  129.5890  125.5160   57.9300 C   0  0  0  0  0  0  0  0  0  0  0  0
  130.9190  125.5360   58.0410 F   0  0  0  0  0  0  0  0  0  0  0  0
  129.0850  125.4220   59.1600 F   0  0  0  0  0  0  0  0  0  0  0  0
  129.2630  124.4210   57.2430 F   0  0  0  0  0  0  0  0  0  0  0  0
  128.0370  127.5190   57.8770 C   0  0  0  0  0  0  0  0  0  0  0  0
  127.4970  128.6560   57.2660 C   0  0  0  0  0  0  0  0  0  0  0  0
  126.4340  129.4920   57.9110 C   0  0  0  0  0  0  0  0  0  0  0  0
  126.7110  130.2340   59.0700 C   0  0  0  0  0  0  0  0  0  0  0  0
  125.7280  131.0130   59.6750 C   0  0  0  0  0  0  0  0  0  0  0  0
  124.4500  131.0600   59.1260 C   0  0  0  0  0  0  0  0  0  0  0  0
  124.1490  130.3320   57.9790 C   0  0  0  0  0  0  0  0  0  0  0  0
  125.1340  129.5540   57.3790 C   0  0  0  0  0  0  0  0  0  0  0  0
  127.9390  129.0700   56.0500 N   0  0  0  0  0  0  0  0  0  0  0  0
  128.9110  128.3720   55.4140 C   0  0  0  0  0  0  0  0  0  0  0  0
  129.3650  129.0600   53.8370 S   0  0  0  0  0  0  0  0  0  0  0  0
  128.9300  130.8250   53.8710 C   0  0  0  0  0  0  0  0  0  0  0  0
  129.7790  131.6100   54.8710 C   0  0  0  0  0  0  0  0  0  0  0  0
  129.3210  132.6220   55.4060 O   0  0  0  0  0  0  0  0  0  0  0  0
  131.0100  131.1290   55.1170 N   0  0  0  0  0  0  0  0  0  0  0  0
  131.9720  131.6990   56.0600 C   0  0  0  0  0  0  0  0  0  0  0  0
  131.6530  131.4130   57.5230 C   0  0  0  0  0  0  0  0  0  0  0  0
  132.6760  131.0280   58.3940 C   0  0  0  0  0  0  0  0  0  0  0  0
  132.3940  130.7950   59.7380 C   0  0  0  0  0  0  0  0  0  0  0  0
  131.0920  130.9560   60.2080 C   0  0  0  0  0  0  0  0  0  0  0  0
  130.0710  131.3540   59.3480 C   0  0  0  0  0  0  0  0  0  0  0  0
  130.3520  131.5880   58.0050 C   0  0  0  0  0  0  0  0  0  0  0  0
  1  2  3  0
  2  3  1  0
  3  4  2  0
  4  5  1  0
  5  6  1  0
  5  7  1  0
  5  8  1  0
  4  9  1  0
  9 10  2  0
 10 11  1  0
 11 12  2  0
 12 13  1  0
 13 14  2  0
 14 15  1  0
 15 16  2  0
 10 17  1  0
 17 18  2  0
 18 19  1  0
 19 20  1  0
 20 21  1  0
 21 22  2  0
 21 23  1  0
 23 24  1  0
 24 25  1  0
 25 26  2  0
 26 27  1  0
 27 28  2  0
 28 29  1  0
 29 30  2  0
 18  3  1  0
 30 25  1  0
 16 11  1  0
M  END
>  <Binding energies>  (16) 
[-8.45]

>  <Ligand effiencies>  (16) 
[-0.2725806451612903]

>  <Interactions>  (16) 
["V-A:TYR:539:CZ:4877, V-A:ILE:538:CA:4860, V-A:TYR:531:CZ:4794, V-A:ILE:538:CG2:4863, V-A:ILE:538:CB:4862, V-A:TYR:539:CE1:4875, V-A:PRO:540:CB:4885, V-A:PRO:540:CA:4883, V-A:ASP:366:CG:3212, V-A:TYR:539:C:4867, V-A:PRO:540:N:4884, V-A:LEU:363:CD1:3188, H-A:TYR:531:OH:4795, H-B:TYR:539:OH:9850, V-B:TYR:539:CZ:9849, H-B:TYR:531:OH:9767, V-B:ASP:366:CB:8183, V-B:ASP:366:CA:8181, V-B:MET:535:CE:9807, V-B:TYR:531:CZ:9766, V-B:ILE:369:CG2:8208, V-B:TYR:531:CE1:9764, H-A:TYR:539:N:4870, V-B:ILE:369:CB:8207, V-B:ASP:366:C:8179, V-B:LYS:534:CE:9794, V-A:TYR:531:CE2:4793"]

$$$$
3bc_Grossjean_2025
     RDKit          3D

 28 30  0  0  0  0  0  0  0  0999 V2000
  133.1170  131.5730   61.7590 C   0  0  0  0  0  0  0  0  0  0  0  0
  133.6670  131.1040   60.5330 O   0  0  0  0  0  0  0  0  0  0  0  0
  132.8490  131.0030   59.4230 C   0  0  0  0  0  0  0  0  0  0  0  0
  133.4800  130.7250   58.2100 C   0  0  0  0  0  0  0  0  0  0  0  0
  132.7400  130.6060   57.0370 C   0  0  0  0  0  0  0  0  0  0  0  0
  131.3540  130.7720   57.0600 C   0  0  0  0  0  0  0  0  0  0  0  0
  130.6900  130.6200   55.8290 N   0  0  0  0  0  0  0  0  0  0  0  0
  129.8480  131.4710   55.2040 C   0  0  0  0  0  0  0  0  0  0  0  0
  129.5440  132.5900   55.6220 O   0  0  0  0  0  0  0  0  0  0  0  0
  129.2980  130.9620   53.8640 C   0  0  0  0  0  0  0  0  0  0  0  0
  129.2590  129.1460   53.6820 S   0  0  0  0  0  0  0  0  0  0  0  0
  128.8740  128.4480   55.2730 C   0  0  0  0  0  0  0  0  0  0  0  0
  127.9100  129.1240   55.9460 N   0  0  0  0  0  0  0  0  0  0  0  0
  127.5170  128.6960   57.1740 C   0  0  0  0  0  0  0  0  0  0  0  0
  126.4610  129.5110   57.8610 C   0  0  0  0  0  0  0  0  0  0  0  0
  125.1640  129.5930   57.3350 C   0  0  0  0  0  0  0  0  0  0  0  0
  124.1780  130.3470   57.9670 C   0  0  0  0  0  0  0  0  0  0  0  0
  124.4810  131.0330   59.1380 C   0  0  0  0  0  0  0  0  0  0  0  0
  125.7610  130.9710   59.6800 C   0  0  0  0  0  0  0  0  0  0  0  0
  126.7430  130.2170   59.0440 C   0  0  0  0  0  0  0  0  0  0  0  0
  128.0940  127.5650   57.7600 C   0  0  0  0  0  0  0  0  0  0  0  0
  129.0730  126.8430   57.0690 C   0  0  0  0  0  0  0  0  0  0  0  0
  129.6630  125.6030   57.7390 C   0  0  0  0  0  0  0  0  0  0  0  0
  129.4760  127.2780   55.7870 C   0  0  0  0  0  0  0  0  0  0  0  0
  130.4630  126.5110   55.0250 C   0  0  0  0  0  0  0  0  0  0  0  0
  131.2440  125.9030   54.4250 N   0  0  0  0  0  0  0  0  0  0  0  0
  130.7100  131.0380   58.2780 C   0  0  0  0  0  0  0  0  0  0  0  0
  131.4550  131.1560   59.4490 C   0  0  0  0  0  0  0  0  0  0  0  0
  1  2  1  0
  2  3  1  0
  3  4  2  0
  4  5  1  0
  5  6  2  0
  6  7  1  0
  7  8  1  0
  8  9  2  0
  8 10  1  0
 10 11  1  0
 11 12  1  0
 12 13  2  0
 13 14  1  0
 14 15  1  0
 15 16  2  0
 16 17  1  0
 17 18  2  0
 18 19  1  0
 19 20  2  0
 14 21  2  0
 21 22  1  0
 22 23  1  0
 22 24  2  0
 24 25  1  0
 25 26  3  0
  6 27  1  0
 27 28  2  0
 28  3  1  0
 24 12  1  0
 20 15  1  0
M  END
>  <Binding energies>  (17) 
[-8.73]

>  <Ligand effiencies>  (17) 
[-0.3010344827586207]

>  <Interactions>  (17) 
["H-A:LEU:363:N:3185, V-A:TYR:539:CZ:4877, V-A:ASP:366:CB:3211, V-A:ASN:362:CB:3175, V-A:TYR:531:CZ:4794, V-A:PRO:540:C:4881, V-A:ILE:538:CG2:4863, V-A:ILE:538:CB:4862, V-A:TYR:539:CE1:4875, V-A:PRO:540:CB:4885, V-A:PRO:540:CA:4883, V-A:ASP:366:CG:3212, V-A:LEU:363:CD1:3188, H-A:TYR:531:OH:4795, H-B:TYR:539:OH:9850, H-B:TYR:531:OH:9767, V-B:ASP:366:CB:8183, V-B:ASP:366:CA:8181, V-B:TYR:531:CZ:9766, V-B:ILE:369:CG2:8208, V-B:TYR:531:CE1:9764, H-A:TYR:539:N:4870, V-A:LEU:363:CA:3184, V-B:ILE:369:CB:8207, V-B:ASP:366:C:8179, V-B:LYS:534:CE:9794, V-A:LEU:363:CB:3186, V-A:TYR:531:CE1:4792"]

$$$$
3bd_Grossjean_2025
     RDKit          3D

 26 28  0  0  0  0  0  0  0  0999 V2000
  129.2790  125.7000   57.5380 C   0  0  0  0  0  0  0  0  0  0  0  0
  128.7760  127.0330   56.9880 C   0  0  0  0  0  0  0  0  0  0  0  0
  127.8720  127.7690   57.7610 C   0  0  0  0  0  0  0  0  0  0  0  0
  127.3850  128.9940   57.2910 C   0  0  0  0  0  0  0  0  0  0  0  0
  126.4170  129.8350   58.0700 C   0  0  0  0  0  0  0  0  0  0  0  0
  126.8550  130.6140   59.1530 C   0  0  0  0  0  0  0  0  0  0  0  0
  125.9620  131.3960   59.8820 C   0  0  0  0  0  0  0  0  0  0  0  0
  124.6140  131.4080   59.5370 C   0  0  0  0  0  0  0  0  0  0  0  0
  124.1550  130.6430   58.4710 C   0  0  0  0  0  0  0  0  0  0  0  0
  125.0500  129.8630   57.7450 C   0  0  0  0  0  0  0  0  0  0  0  0
  127.7900  129.4900   56.0920 N   0  0  0  0  0  0  0  0  0  0  0  0
  128.6660  128.7890   55.3280 C   0  0  0  0  0  0  0  0  0  0  0  0
  129.1100  129.5420   53.7720 S   0  0  0  0  0  0  0  0  0  0  0  0
  129.3340  131.3240   54.0520 C   0  0  0  0  0  0  0  0  0  0  0  0
  129.8700  131.6210   55.4530 C   0  0  0  0  0  0  0  0  0  0  0  0
  129.3960  132.5640   56.0870 O   0  0  0  0  0  0  0  0  0  0  0  0
  130.8580  130.8080   55.8860 N   0  0  0  0  0  0  0  0  0  0  0  0
  131.5280  130.8110   57.1250 C   0  0  0  0  0  0  0  0  0  0  0  0
  130.7300  131.0110   58.2540 C   0  0  0  0  0  0  0  0  0  0  0  0
  131.3050  131.0380   59.5220 C   0  0  0  0  0  0  0  0  0  0  0  0
  132.6810  130.8750   59.6600 C   0  0  0  0  0  0  0  0  0  0  0  0
  133.4880  130.6890   58.5400 C   0  0  0  0  0  0  0  0  0  0  0  0
  132.9160  130.6600   57.2720 C   0  0  0  0  0  0  0  0  0  0  0  0
  129.1900  127.5440   55.7380 C   0  0  0  0  0  0  0  0  0  0  0  0
  130.1370  126.7970   54.9050 C   0  0  0  0  0  0  0  0  0  0  0  0
  130.8860  126.2080   54.2490 N   0  0  0  0  0  0  0  0  0  0  0  0
  1  2  1  0
  2  3  2  0
  3  4  1  0
  4  5  1  0
  5  6  2  0
  6  7  1  0
  7  8  2  0
  8  9  1  0
  9 10  2  0
  4 11  2  0
 11 12  1  0
 12 13  1  0
 13 14  1  0
 14 15  1  0
 15 16  2  0
 15 17  1  0
 17 18  1  0
 18 19  2  0
 19 20  1  0
 20 21  2  0
 21 22  1  0
 22 23  2  0
 12 24  2  0
 24 25  1  0
 25 26  3  0
 24  2  1  0
 10  5  1  0
 23 18  1  0
M  END
>  <Binding energies>  (18) 
[-8.66]

>  <Ligand effiencies>  (18) 
[-0.32074074074074077]

>  <Interactions>  (18) 
["V-A:TYR:539:CZ:4877, V-A:ASP:366:CB:3211, V-A:ILE:538:CA:4860, V-A:TYR:531:CZ:4794, V-A:ILE:538:CG2:4863, V-A:ILE:538:CB:4862, V-A:TYR:539:CE1:4875, V-A:PRO:540:CB:4885, V-A:PRO:540:CA:4883, V-A:ASP:366:CG:3212, V-A:LEU:363:CD1:3188, H-A:TYR:531:OH:4795, H-B:TYR:539:OH:9850, H-B:TYR:531:OH:9767, V-B:ASP:366:CB:8183, V-B:ASP:366:CA:8181, V-A:TYR:539:CD1:4873, V-B:ILE:369:CG2:8208, H-A:TYR:539:N:4870, V-A:LEU:363:CA:3184, V-B:ILE:369:CB:8207, V-B:ASP:366:C:8179, V-A:LEU:363:CB:3186"]

$$$$
3be_Grossjean_2025
     RDKit          3D

 27 29  0  0  0  0  0  0  0  0999 V2000
  125.3100  122.2760   56.3840 C   0  0  0  0  0  0  0  0  0  0  0  0
  126.3840  123.0670   57.1050 C   0  0  0  0  0  0  0  0  0  0  0  0
  127.5910  122.4780   57.4910 C   0  0  0  0  0  0  0  0  0  0  0  0
  128.5330  123.2660   58.1530 C   0  0  0  0  0  0  0  0  0  0  0  0
  128.2490  124.6100   58.4120 C   0  0  0  0  0  0  0  0  0  0  0  0
  127.0210  125.1370   57.9950 C   0  0  0  0  0  0  0  0  0  0  0  0
  126.7910  126.4930   58.2940 N   0  0  0  0  0  0  0  0  0  0  0  0
  127.1660  127.1940   59.3870 C   0  0  0  0  0  0  0  0  0  0  0  0
  127.7940  126.7240   60.3380 O   0  0  0  0  0  0  0  0  0  0  0  0
  126.7490  128.6730   59.3760 C   0  0  0  0  0  0  0  0  0  0  0  0
  126.5170  129.4010   57.7180 S   0  0  0  0  0  0  0  0  0  0  0  0
  128.0680  130.1010   57.2000 C   0  0  0  0  0  0  0  0  0  0  0  0
  128.9480  130.2850   58.2150 N   0  0  0  0  0  0  0  0  0  0  0  0
  130.1760  130.8090   57.9600 C   0  0  0  0  0  0  0  0  0  0  0  0
  131.0840  130.9930   59.1400 C   0  0  0  0  0  0  0  0  0  0  0  0
  132.4780  130.9020   58.9950 C   0  0  0  0  0  0  0  0  0  0  0  0
  133.3250  131.0690   60.0860 C   0  0  0  0  0  0  0  0  0  0  0  0
  132.7900  131.3300   61.3420 C   0  0  0  0  0  0  0  0  0  0  0  0
  131.4130  131.4230   61.5150 C   0  0  0  0  0  0  0  0  0  0  0  0
  130.5690  131.2550   60.4210 C   0  0  0  0  0  0  0  0  0  0  0  0
  130.5480  131.1680   56.6600 C   0  0  0  0  0  0  0  0  0  0  0  0
  129.6610  130.9620   55.5980 C   0  0  0  0  0  0  0  0  0  0  0  0
  130.1170  131.3530   54.1930 C   0  0  0  0  0  0  0  0  0  0  0  0
  128.3900  130.4050   55.8570 C   0  0  0  0  0  0  0  0  0  0  0  0
  127.4670  130.1310   54.7530 C   0  0  0  0  0  0  0  0  0  0  0  0
  126.7400  129.9150   53.8800 N   0  0  0  0  0  0  0  0  0  0  0  0
  126.0950  124.3700   57.3490 N   0  0  0  0  0  0  0  0  0  0  0  0
  1  2  1  0
  2  3  2  0
  3  4  1  0
  4  5  2  0
  5  6  1  0
  6  7  1  0
  7  8  1  0
  8  9  2  0
  8 10  1  0
 10 11  1  0
 11 12  1  0
 12 13  2  0
 13 14  1  0
 14 15  1  0
 15 16  2  0
 16 17  1  0
 17 18  2  0
 18 19  1  0
 19 20  2  0
 14 21  2  0
 21 22  1  0
 22 23  1  0
 22 24  2  0
 24 25  1  0
 25 26  3  0
  6 27  2  0
 27  2  1  0
 24 12  1  0
 20 15  1  0
M  END
>  <Binding energies>  (19) 
[-8.95]

>  <Ligand effiencies>  (19) 
[-0.3196428571428571]

>  <Interactions>  (19) 
["V-A:GLU:543:CD:4908, V-A:TYR:539:CZ:4877, V-A:ASN:362:CB:3175, V-A:ILE:538:CA:4860, V-A:PRO:540:C:4881, V-A:ILE:538:CG2:4863, V-A:ILE:538:CB:4862, V-A:TYR:539:CE1:4875, V-A:PRO:540:CB:4885, V-A:PRO:540:CA:4883, V-A:ASP:366:CG:3212, V-B:PRO:540:CB:9857, H-B:TYR:531:OH:9767, V-B:PRO:540:N:9856, V-B:LEU:363:CD1:8160, V-B:PRO:540:CD:9859, V-B:TYR:539:CE2:9848, V-B:PRO:540:CA:9855, V-B:MET:535:CE:9807, H-A:TYR:539:OH:4878, H-B:LYS:534:NZ:9795, V-B:TYR:531:CE1:9764, V-A:ASN:362:C:3171, V-A:LEU:363:CA:3184, V-B:TYR:539:C:9839"]

$$$$
3bf_Grossjean_2025
     RDKit          3D

 26 28  0  0  0  0  0  0  0  0999 V2000
  129.2900  125.6940   57.5530 C   0  0  0  0  0  0  0  0  0  0  0  0
  128.7540  127.0020   56.9750 C   0  0  0  0  0  0  0  0  0  0  0  0
  127.8570  127.7460   57.7500 C   0  0  0  0  0  0  0  0  0  0  0  0
  127.3530  128.9580   57.2650 C   0  0  0  0  0  0  0  0  0  0  0  0
  126.4070  129.8120   58.0540 C   0  0  0  0  0  0  0  0  0  0  0  0
  126.8750  130.6160   59.1050 C   0  0  0  0  0  0  0  0  0  0  0  0
  126.0030  131.4110   59.8430 C   0  0  0  0  0  0  0  0  0  0  0  0
  124.6450  131.4130   59.5380 C   0  0  0  0  0  0  0  0  0  0  0  0
  124.1560  130.6250   58.5020 C   0  0  0  0  0  0  0  0  0  0  0  0
  125.0320  129.8290   57.7680 C   0  0  0  0  0  0  0  0  0  0  0  0
  127.7220  129.4280   56.0440 N   0  0  0  0  0  0  0  0  0  0  0  0
  128.5710  128.7070   55.2710 C   0  0  0  0  0  0  0  0  0  0  0  0
  128.9370  129.4730   53.7070 S   0  0  0  0  0  0  0  0  0  0  0  0
  129.2700  131.2420   54.0070 C   0  0  0  0  0  0  0  0  0  0  0  0
  129.8110  131.5750   55.4050 C   0  0  0  0  0  0  0  0  0  0  0  0
  129.3770  132.5420   56.0340 O   0  0  0  0  0  0  0  0  0  0  0  0
  130.7490  130.7180   55.8650 N   0  0  0  0  0  0  0  0  0  0  0  0
  131.4470  130.7450   57.0870 C   0  0  0  0  0  0  0  0  0  0  0  0
  130.6910  130.9320   58.2490 C   0  0  0  0  0  0  0  0  0  0  0  0
  131.3240  130.9550   59.4940 C   0  0  0  0  0  0  0  0  0  0  0  0
  132.7070  130.7820   59.5420 C   0  0  0  0  0  0  0  0  0  0  0  0
  133.4630  130.5880   58.4320 N   0  0  0  0  0  0  0  0  0  0  0  0
  132.8340  130.5680   57.2280 C   0  0  0  0  0  0  0  0  0  0  0  0
  129.1330  127.4850   55.7040 C   0  0  0  0  0  0  0  0  0  0  0  0
  130.1090  126.7470   54.8980 C   0  0  0  0  0  0  0  0  0  0  0  0
  130.8800  126.1630   54.2620 N   0  0  0  0  0  0  0  0  0  0  0  0
  1  2  1  0
  2  3  2  0
  3  4  1  0
  4  5  1  0
  5  6  2  0
  6  7  1  0
  7  8  2  0
  8  9  1  0
  9 10  2  0
  4 11  2  0
 11 12  1  0
 12 13  1  0
 13 14  1  0
 14 15  1  0
 15 16  2  0
 15 17  1  0
 17 18  1  0
 18 19  2  0
 19 20  1  0
 20 21  2  0
 21 22  1  0
 22 23  2  0
 12 24  2  0
 24 25  1  0
 25 26  3  0
 24  2  1  0
 10  5  1  0
 23 18  1  0
M  END
>  <Binding energies>  (20) 
[-8.22]

>  <Ligand effiencies>  (20) 
[-0.30444444444444446]

>  <Interactions>  (20) 
["V-A:TYR:539:CZ:4877, V-A:ILE:538:CA:4860, V-A:ILE:538:CG2:4863, V-A:TYR:539:CE1:4875, V-A:PRO:540:CB:4885, V-A:PRO:540:CA:4883, V-A:ASP:366:CG:3212, V-A:LEU:363:CD1:3188, H-A:TYR:531:OH:4795, H-B:TYR:539:OH:9850, H-B:TYR:531:OH:9767, V-B:ASP:366:CB:8183, V-B:ASP:366:CA:8181, V-A:TYR:539:CD1:4873, V-B:ILE:369:CG2:8208, H-A:TYR:539:N:4870, V-B:ILE:369:CB:8207, V-B:ASP:366:C:8179"]

$$$$
3bg_Grossjean_2025
     RDKit          3D

 27 29  0  0  0  0  0  0  0  0999 V2000
  129.5550  125.5670   57.8850 C   0  0  0  0  0  0  0  0  0  0  0  0
  128.9600  126.7970   57.2030 C   0  0  0  0  0  0  0  0  0  0  0  0
  127.9690  127.5140   57.8810 C   0  0  0  0  0  0  0  0  0  0  0  0
  127.4010  128.6540   57.2950 C   0  0  0  0  0  0  0  0  0  0  0  0
  126.3410  129.4750   57.9750 C   0  0  0  0  0  0  0  0  0  0  0  0
  126.5610  130.0370   59.2430 C   0  0  0  0  0  0  0  0  0  0  0  0
  125.5890  130.8130   59.8670 C   0  0  0  0  0  0  0  0  0  0  0  0
  124.3730  131.0390   59.2320 C   0  0  0  0  0  0  0  0  0  0  0  0
  124.1220  130.4860   57.9820 C   0  0  0  0  0  0  0  0  0  0  0  0
  125.0960  129.7090   57.3620 C   0  0  0  0  0  0  0  0  0  0  0  0
  127.8190  129.0830   56.0750 N   0  0  0  0  0  0  0  0  0  0  0  0
  128.7830  128.4010   55.4050 C   0  0  0  0  0  0  0  0  0  0  0  0
  129.2650  129.0900   53.8290 S   0  0  0  0  0  0  0  0  0  0  0  0
  128.9070  130.8770   53.8530 C   0  0  0  0  0  0  0  0  0  0  0  0
  129.7460  131.6120   54.9030 C   0  0  0  0  0  0  0  0  0  0  0  0
  129.2890  132.6060   55.4680 O   0  0  0  0  0  0  0  0  0  0  0  0
  130.9780  131.1250   55.1320 N   0  0  0  0  0  0  0  0  0  0  0  0
  132.0070  131.7690   55.9490 C   0  0  0  0  0  0  0  0  0  0  0  0
  131.8770  131.3970   57.4210 C   0  0  0  0  0  0  0  0  0  0  0  0
  133.0130  131.0500   58.1590 C   0  0  0  0  0  0  0  0  0  0  0  0
  132.8930  130.7020   59.5010 C   0  0  0  0  0  0  0  0  0  0  0  0
  131.6370  130.7120   60.1060 C   0  0  0  0  0  0  0  0  0  0  0  0
  130.5030  131.0760   59.3830 C   0  0  0  0  0  0  0  0  0  0  0  0
  130.6240  131.4240   58.0400 C   0  0  0  0  0  0  0  0  0  0  0  0
  129.3810  127.2370   55.9310 C   0  0  0  0  0  0  0  0  0  0  0  0
  130.4230  126.5120   55.2000 C   0  0  0  0  0  0  0  0  0  0  0  0
  131.2460  125.9380   54.6240 N   0  0  0  0  0  0  0  0  0  0  0  0
  1  2  1  0
  2  3  2  0
  3  4  1  0
  4  5  1  0
  5  6  2  0
  6  7  1  0
  7  8  2  0
  8  9  1  0
  9 10  2  0
  4 11  2  0
 11 12  1  0
 12 13  1  0
 13 14  1  0
 14 15  1  0
 15 16  2  0
 15 17  1  0
 17 18  1  0
 18 19  1  0
 19 20  2  0
 20 21  1  0
 21 22  2  0
 22 23  1  0
 23 24  2  0
 12 25  2  0
 25 26  1  0
 26 27  3  0
 25  2  1  0
 10  5  1  0
 24 19  1  0
M  END
>  <Binding energies>  (21) 
[-8.88]

>  <Ligand effiencies>  (21) 
[-0.31714285714285717]

>  <Interactions>  (21) 
["V-A:TYR:539:CZ:4877, V-A:ILE:538:CA:4860, V-A:TYR:531:CZ:4794, V-A:ILE:538:CG2:4863, V-A:ILE:538:CB:4862, V-A:TYR:539:CE1:4875, V-A:PRO:540:CB:4885, V-A:PRO:540:CA:4883, V-A:ASP:366:CG:3212, V-A:PRO:540:N:4884, V-A:LEU:363:CD1:3188, H-A:TYR:531:OH:4795, H-B:TYR:539:OH:9850, H-B:TYR:531:OH:9767, V-B:ASP:366:CB:8183, V-B:ASP:366:CA:8181, V-B:TYR:531:CZ:9766, V-B:ILE:369:CG2:8208, V-B:TYR:531:CE1:9764, H-A:TYR:539:N:4870, V-A:LEU:363:CA:3184, V-B:ILE:369:CB:8207, V-B:ASP:366:C:8179, V-B:LYS:534:CE:9794, V-A:TYR:531:CE2:4793"]

$$$$
3ca_Grossjean_2025
     RDKit          3D

 31 33  0  0  0  0  0  0  0  0999 V2000
  124.9360  140.0250   61.5650 C   0  0  0  0  0  0  0  0  0  0  0  0
  126.3920  140.3630   61.2340 C   0  0  0  0  0  0  0  0  0  0  0  0
  126.8670  139.4780   60.2270 O   0  0  0  0  0  0  0  0  0  0  0  0
  126.0070  138.8290   59.4010 C   0  0  0  0  0  0  0  0  0  0  0  0
  125.5080  139.3450   58.3960 O   0  0  0  0  0  0  0  0  0  0  0  0
  125.7260  137.4170   59.8290 C   0  0  0  0  0  0  0  0  0  0  0  0
  126.7900  136.5980   60.2280 C   0  0  0  0  0  0  0  0  0  0  0  0
  126.5610  135.2850   60.6290 C   0  0  0  0  0  0  0  0  0  0  0  0
  125.2680  134.7610   60.6320 C   0  0  0  0  0  0  0  0  0  0  0  0
  125.1480  133.4240   61.0560 N   0  0  0  0  0  0  0  0  0  0  0  0
  124.4320  132.9040   62.0760 C   0  0  0  0  0  0  0  0  0  0  0  0
  123.7080  133.5450   62.8370 O   0  0  0  0  0  0  0  0  0  0  0  0
  124.5450  131.3850   62.2480 C   0  0  0  0  0  0  0  0  0  0  0  0
  126.2580  130.7740   62.1220 S   0  0  0  0  0  0  0  0  0  0  0  0
  126.7220  130.6160   60.4030 C   0  0  0  0  0  0  0  0  0  0  0  0
  125.7790  130.0820   59.5860 N   0  0  0  0  0  0  0  0  0  0  0  0
  126.0540  129.9510   58.2700 C   0  0  0  0  0  0  0  0  0  0  0  0
  124.9440  129.3630   57.4210 C   0  0  0  0  0  0  0  0  0  0  0  0
  127.2750  130.3300   57.7180 C   0  0  0  0  0  0  0  0  0  0  0  0
  128.2710  130.8670   58.5430 C   0  0  0  0  0  0  0  0  0  0  0  0
  129.5700  131.2470   57.9090 C   0  0  0  0  0  0  0  0  0  0  0  0
  130.7710  130.7160   58.3960 C   0  0  0  0  0  0  0  0  0  0  0  0
  131.9870  131.0710   57.8180 C   0  0  0  0  0  0  0  0  0  0  0  0
  132.0070  131.9650   56.7500 C   0  0  0  0  0  0  0  0  0  0  0  0
  130.8220  132.5080   56.2580 C   0  0  0  0  0  0  0  0  0  0  0  0
  129.6080  132.1510   56.8400 C   0  0  0  0  0  0  0  0  0  0  0  0
  127.9900  131.0260   59.9250 C   0  0  0  0  0  0  0  0  0  0  0  0
  128.9750  131.6290   60.8280 C   0  0  0  0  0  0  0  0  0  0  0  0
  129.7530  132.1060   61.5400 N   0  0  0  0  0  0  0  0  0  0  0  0
  124.1950  135.5760   60.2400 C   0  0  0  0  0  0  0  0  0  0  0  0
  124.4260  136.8910   59.8420 C   0  0  0  0  0  0  0  0  0  0  0  0
  1  2  1  0
  2  3  1  0
  3  4  1  0
  4  5  2  0
  4  6  1  0
  6  7  2  0
  7  8  1  0
  8  9  2  0
  9 10  1  0
 10 11  1  0
 11 12  2  0
 11 13  1  0
 13 14  1  0
 14 15  1  0
 15 16  2  0
 16 17  1  0
 17 18  1  0
 17 19  2  0
 19 20  1  0
 20 21  1  0
 21 22  2  0
 22 23  1  0
 23 24  2  0
 24 25  1  0
 25 26  2  0
 20 27  2  0
 27 28  1  0
 28 29  3  0
  9 30  1  0
 30 31  2  0
 31  6  1  0
 27 15  1  0
 26 21  1  0
M  END
>  <Binding energies>  (22) 
[-8.92]

>  <Ligand effiencies>  (22) 
[-0.27875]

>  <Interactions>  (22) 
["V-A:TYR:539:CZ:4877, V-A:ILE:538:CA:4860, V-A:PRO:540:CD:4887, H-A:ALA:541:N:4891, V-A:ILE:538:C:4858, V-A:ILE:538:CB:4862, V-A:TYR:539:CE1:4875, V-A:PRO:540:CB:4885, V-A:PRO:540:CA:4883, V-A:TYR:539:C:4867, V-A:PRO:540:N:4884, V-A:LEU:363:CD1:3188, V-B:ASP:366:CB:8183, V-A:TYR:539:CD1:4873, V-B:TYR:531:CZ:9766, V-A:TYR:539:CG:4872, V-B:ILE:369:CG2:8208, V-B:LEU:475:CD1:9229, V-B:TYR:531:CE1:9764, H-B:SER:385:OG:8381, H-B:GLY:454:N:9021, V-B:ILE:369:CD1:8210, V-A:TYR:539:CA:4869, V-B:HIS:383:CE1:8365, V-A:TYR:539:CB:4871, V-A:VAL:344:CG1:3000, V-B:SER:385:CB:8380, V-B:LEU:373:CD1:8251, V-A:ILE:343:CG2:2991, V-B:PRO:482:CG:9298, V-B:HIS:383:CD2:8363, V-B:ASP:366:C:8179, V-B:SER:385:CA:8378, V-B:PRO:482:CB:9297, V-B:THR:477:CG2:9244"]

$$$$
3ce_Grossjean_2025
     RDKit          3D

 27 29  0  0  0  0  0  0  0  0999 V2000
  134.6310  125.4060   66.6210 C   0  0  0  0  0  0  0  0  0  0  0  0
  133.4870  125.3680   65.6260 C   0  0  0  0  0  0  0  0  0  0  0  0
  132.2140  125.8410   65.9550 C   0  0  0  0  0  0  0  0  0  0  0  0
  131.2130  125.7840   64.9860 C   0  0  0  0  0  0  0  0  0  0  0  0
  131.5040  125.2590   63.7240 C   0  0  0  0  0  0  0  0  0  0  0  0
  132.7970  124.7920   63.4630 C   0  0  0  0  0  0  0  0  0  0  0  0
  133.0360  124.2930   62.1720 N   0  0  0  0  0  0  0  0  0  0  0  0
  134.2250  124.0790   61.5660 C   0  0  0  0  0  0  0  0  0  0  0  0
  135.3260  124.2910   62.0760 O   0  0  0  0  0  0  0  0  0  0  0  0
  134.1530  123.5230   60.1440 C   0  0  0  0  0  0  0  0  0  0  0  0
  132.8420  124.3190   59.1690 S   0  0  0  0  0  0  0  0  0  0  0  0
  131.3580  123.4030   59.5160 C   0  0  0  0  0  0  0  0  0  0  0  0
  131.4630  122.5670   60.5770 N   0  0  0  0  0  0  0  0  0  0  0  0
  130.3810  121.8360   60.9340 C   0  0  0  0  0  0  0  0  0  0  0  0
  130.5630  120.9320   62.1380 C   0  0  0  0  0  0  0  0  0  0  0  0
  129.1730  121.9010   60.2460 C   0  0  0  0  0  0  0  0  0  0  0  0
  129.0530  122.7400   59.1300 C   0  0  0  0  0  0  0  0  0  0  0  0
  127.7450  122.7560   58.4090 C   0  0  0  0  0  0  0  0  0  0  0  0
  127.5900  122.0360   57.2180 C   0  0  0  0  0  0  0  0  0  0  0  0
  126.3750  122.0510   56.5370 C   0  0  0  0  0  0  0  0  0  0  0  0
  125.3110  122.7940   57.0410 C   0  0  0  0  0  0  0  0  0  0  0  0
  125.4530  123.5240   58.2180 C   0  0  0  0  0  0  0  0  0  0  0  0
  126.6670  123.5060   58.8970 C   0  0  0  0  0  0  0  0  0  0  0  0
  130.1740  123.5210   58.7500 C   0  0  0  0  0  0  0  0  0  0  0  0
  130.1040  124.4280   57.6010 C   0  0  0  0  0  0  0  0  0  0  0  0
  130.0470  125.1440   56.6930 N   0  0  0  0  0  0  0  0  0  0  0  0
  133.7840  124.8530   64.4050 N   0  0  0  0  0  0  0  0  0  0  0  0
  1  2  1  0
  2  3  2  0
  3  4  1  0
  4  5  2  0
  5  6  1  0
  6  7  1  0
  7  8  1  0
  8  9  2  0
  8 10  1  0
 10 11  1  0
 11 12  1  0
 12 13  2  0
 13 14  1  0
 14 15  1  0
 14 16  2  0
 16 17  1  0
 17 18  1  0
 18 19  2  0
 19 20  1  0
 20 21  2  0
 21 22  1  0
 22 23  2  0
 17 24  2  0
 24 25  1  0
 25 26  3  0
  6 27  2  0
 27  2  1  0
 24 12  1  0
 23 18  1  0
M  END
>  <Binding energies>  (23) 
[-8.67]

>  <Ligand effiencies>  (23) 
[-0.30964285714285716]

>  <Interactions>  (23) 
["V-A:ASP:366:CG:3212, H-B:TYR:539:OH:9850, V-B:PRO:540:CB:9857, V-B:TYR:539:CZ:9849, V-B:ALA:541:CB:9864, V-B:PRO:540:N:9856, V-B:TYR:539:CD2:9846, V-B:LEU:363:CD1:8160, V-B:PRO:540:CD:9859, V-B:TYR:539:CE2:9848, V-B:PRO:540:CA:9855, V-B:MET:535:CE:9807, V-A:GLY:453:C:4041, H-A:ARG:545:NH2:4928, V-A:GLY:453:CA:4043, V-A:LEU:475:CD1:4257, H-A:GLY:454:N:4049, V-A:ARG:545:CZ:4926, H-A:TYR:484:OH:4347, V-A:ARG:545:CG:4922, V-A:ARG:545:CD:4923, V-B:TYR:539:C:9839, V-A:ILE:369:CD1:3238, V-A:ILE:369:CG2:3236, V-A:ASP:366:CA:3209, V-B:TYR:539:CA:9841, V-A:ILE:369:CB:3235, V-B:TYR:539:CG:9844"]

$$$$
3cj_Grossjean_2025
     RDKit          3D

 25 27  0  0  0  0  0  0  0  0999 V2000
  127.0200  127.4420   58.7790 C   0  0  0  0  0  0  0  0  0  0  0  0
  127.8510  128.5550   58.1690 C   0  0  0  0  0  0  0  0  0  0  0  0
  129.0490  128.9690   58.7450 C   0  0  0  0  0  0  0  0  0  0  0  0
  129.7960  129.9860   58.1350 C   0  0  0  0  0  0  0  0  0  0  0  0
  131.1050  130.3530   58.7510 C   0  0  0  0  0  0  0  0  0  0  0  0
  131.1740  130.7410   60.0940 C   0  0  0  0  0  0  0  0  0  0  0  0
  132.3930  131.0960   60.6650 C   0  0  0  0  0  0  0  0  0  0  0  0
  133.5490  131.0690   59.8900 C   0  0  0  0  0  0  0  0  0  0  0  0
  133.4950  130.6940   58.5510 C   0  0  0  0  0  0  0  0  0  0  0  0
  132.2750  130.3390   57.9820 C   0  0  0  0  0  0  0  0  0  0  0  0
  129.2840  130.5850   56.9580 C   0  0  0  0  0  0  0  0  0  0  0  0
  130.0050  131.6730   56.2890 C   0  0  0  0  0  0  0  0  0  0  0  0
  130.5750  132.5310   55.7610 N   0  0  0  0  0  0  0  0  0  0  0  0
  128.0620  130.0990   56.4400 C   0  0  0  0  0  0  0  0  0  0  0  0
  127.3760  130.6690   54.8990 S   0  0  0  0  0  0  0  0  0  0  0  0
  127.6940  129.3200   53.7180 C   0  0  0  0  0  0  0  0  0  0  0  0
  128.9910  128.5720   54.0420 C   0  0  0  0  0  0  0  0  0  0  0  0
  130.0510  128.9470   53.5360 O   0  0  0  0  0  0  0  0  0  0  0  0
  128.8670  127.5500   54.9170 N   0  0  0  0  0  0  0  0  0  0  0  0
  129.8960  126.8080   55.4730 C   0  0  0  0  0  0  0  0  0  0  0  0
  131.0630  126.5170   54.9390 N   0  0  0  0  0  0  0  0  0  0  0  0
  131.8110  125.8150   55.7670 C   0  0  0  0  0  0  0  0  0  0  0  0
  131.2500  125.5190   57.0060 C   0  0  0  0  0  0  0  0  0  0  0  0
  129.6530  126.2030   57.0810 S   0  0  0  0  0  0  0  0  0  0  0  0
  127.3650  129.0950   57.0290 N   0  0  0  0  0  0  0  0  0  0  0  0
  1  2  1  0
  2  3  2  0
  3  4  1  0
  4  5  1  0
  5  6  2  0
  6  7  1  0
  7  8  2  0
  8  9  1  0
  9 10  2  0
  4 11  2  0
 11 12  1  0
 12 13  3  0
 11 14  1  0
 14 15  1  0
 15 16  1  0
 16 17  1  0
 17 18  2  0
 17 19  1  0
 19 20  1  0
 20 21  2  0
 21 22  1  0
 22 23  2  0
 23 24  1  0
 14 25  2  0
 25  2  1  0
 10  5  1  0
 24 20  1  0
M  END
>  <Binding energies>  (24) 
[-7.87]

>  <Ligand effiencies>  (24) 
[-0.3026923076923077]

>  <Interactions>  (24) 
["V-A:ASP:366:CB:3211, V-A:ASN:362:CB:3175, V-A:TYR:531:CZ:4794, V-A:TYR:539:CE1:4875, V-A:PRO:540:CB:4885, V-A:PRO:540:CA:4883, V-A:ASP:366:CG:3212, V-A:LEU:363:CD1:3188, H-A:TYR:531:OH:4795, H-B:TYR:539:OH:9850, H-B:TYR:531:OH:9767, V-B:TYR:531:CZ:9766, H-A:TYR:539:OH:4878, H-B:LYS:534:NZ:9795, V-B:TYR:531:CE1:9764, H-A:TYR:539:N:4870, V-A:ASN:362:C:3171, V-A:LEU:363:CA:3184, H-B:MET:535:SD:9806, V-B:LYS:534:CE:9794, V-A:LEU:363:CB:3186, V-A:TYR:531:CE1:4792, V-B:LYS:534:CD:9793"]

$$$$
4ba_Grossjean_2025
     RDKit          3D

 28 30  0  0  0  0  0  0  0  0999 V2000
  124.7100  124.2960   57.4350 C   0  0  0  0  0  0  0  0  0  0  0  0
  125.2750  123.2570   56.4470 C   0  0  0  0  0  0  0  0  0  0  0  0
  126.4070  122.3700   57.0070 C   0  0  0  0  0  0  0  0  0  0  0  0
  126.6680  121.2990   56.4540 O   0  0  0  0  0  0  0  0  0  0  0  0
  127.1490  122.8650   58.2130 C   0  0  0  0  0  0  0  0  0  0  0  0
  128.5360  123.0470   58.1400 C   0  0  0  0  0  0  0  0  0  0  0  0
  129.2500  123.5030   59.2440 C   0  0  0  0  0  0  0  0  0  0  0  0
  128.5940  123.7910   60.4420 C   0  0  0  0  0  0  0  0  0  0  0  0
  129.4130  124.2370   61.4970 N   0  0  0  0  0  0  0  0  0  0  0  0
  129.2070  125.2230   62.4040 C   0  0  0  0  0  0  0  0  0  0  0  0
  128.2160  125.9550   62.4170 O   0  0  0  0  0  0  0  0  0  0  0  0
  130.2730  125.3950   63.3930 C   0  0  0  0  0  0  0  0  0  0  0  0
  131.9190  124.8870   63.0200 S   0  0  0  0  0  0  0  0  0  0  0  0
  132.4740  125.3570   64.6090 C   0  0  0  0  0  0  0  0  0  0  0  0
  133.7470  125.2050   64.9730 N   0  0  0  0  0  0  0  0  0  0  0  0
  134.0570  125.6040   66.2270 C   0  0  0  0  0  0  0  0  0  0  0  0
  135.5100  125.4130   66.6240 C   0  0  0  0  0  0  0  0  0  0  0  0
  133.1360  126.1510   67.1160 C   0  0  0  0  0  0  0  0  0  0  0  0
  131.7940  126.3140   66.7390 C   0  0  0  0  0  0  0  0  0  0  0  0
  130.8170  126.9230   67.7500 C   0  0  0  0  0  0  0  0  0  0  0  0
  130.1780  126.0040   68.4770 F   0  0  0  0  0  0  0  0  0  0  0  0
  131.4770  127.7130   68.5980 F   0  0  0  0  0  0  0  0  0  0  0  0
  129.8930  127.6390   67.1100 F   0  0  0  0  0  0  0  0  0  0  0  0
  131.4320  125.8970   65.4230 C   0  0  0  0  0  0  0  0  0  0  0  0
  130.1820  125.8970   64.7020 C   0  0  0  0  0  0  0  0  0  0  0  0
  129.0100  126.3510   65.2530 N   0  0  0  0  0  0  0  0  0  0  0  0
  127.2060  123.6050   60.5250 C   0  0  0  0  0  0  0  0  0  0  0  0
  126.4930  123.1480   59.4200 C   0  0  0  0  0  0  0  0  0  0  0  0
  1  2  1  0
  2  3  1  0
  3  4  2  0
  3  5  1  0
  5  6  2  0
  6  7  1  0
  7  8  2  0
  8  9  1  0
  9 10  1  0
 10 11  2  0
 10 12  1  0
 12 13  1  0
 13 14  1  0
 14 15  2  0
 15 16  1  0
 16 17  1  0
 16 18  2  0
 18 19  1  0
 19 20  1  0
 20 21  1  0
 20 22  1  0
 20 23  1  0
 19 24  2  0
 24 25  1  0
 25 26  1  0
  8 27  1  0
 27 28  2  0
 28  5  1  0
 25 12  2  0
 24 14  1  0
M  END
>  <Binding energies>  (25) 
[-7.19]

>  <Ligand effiencies>  (25) 
[-0.23193548387096777]

>  <Interactions>  (25) 
["V-A:GLU:543:CD:4908, H-A:GLU:543:OE1:4909, V-B:PRO:540:CB:9857, V-B:GLU:543:CD:9880, V-B:PRO:540:N:9856, V-B:LEU:363:CD1:8160, V-B:PRO:540:CD:9859, V-B:TYR:539:CE2:9848, H-B:TYR:539:N:9842, V-B:PRO:540:CA:9855, V-B:MET:535:CE:9807, V-B:GLU:543:CG:9879, V-B:TYR:531:CE2:9765, H-B:GLU:543:OE2:9882, H-B:GLU:543:OE1:9881, V-A:GLU:543:CG:4907, V-B:TYR:531:CZ:9766, V-A:GLU:543:CB:4906, V-A:TYR:484:CE2:4345, V-A:GLU:543:C:4902, V-A:GLY:453:C:4041, H-A:ARG:545:NH2:4928, V-A:GLY:453:CA:4043, V-A:HIS:456:CE1:4069, H-A:ARG:545:NH1:4927, H-A:ARG:545:NE:4924, H-A:GLY:454:N:4049, V-A:ARG:545:CZ:4926, H-A:TYR:484:OH:4347, V-A:ARG:545:CG:4922, V-A:ARG:545:CD:4923, V-B:TYR:539:C:9839, V-A:GLY:454:CA:4048, V-A:ILE:455:C:4051, V-A:GLY:454:C:4046"]

$$$$
4bb_Grossjean_2025
     RDKit          3D

 27 29  0  0  0  0  0  0  0  0999 V2000
  125.2550  123.3750   56.3520 C   0  0  0  0  0  0  0  0  0  0  0  0
  126.3300  122.3910   56.8190 C   0  0  0  0  0  0  0  0  0  0  0  0
  126.4000  121.2970   56.2560 O   0  0  0  0  0  0  0  0  0  0  0  0
  127.2340  122.8060   57.9410 C   0  0  0  0  0  0  0  0  0  0  0  0
  126.6880  123.4380   59.0660 C   0  0  0  0  0  0  0  0  0  0  0  0
  127.5040  123.8340   60.1210 C   0  0  0  0  0  0  0  0  0  0  0  0
  128.8800  123.5990   60.0760 C   0  0  0  0  0  0  0  0  0  0  0  0
  129.6120  124.0430   61.1960 N   0  0  0  0  0  0  0  0  0  0  0  0
  129.3270  125.0190   62.0920 C   0  0  0  0  0  0  0  0  0  0  0  0
  128.3260  125.7330   62.0430 O   0  0  0  0  0  0  0  0  0  0  0  0
  130.3260  125.2070   63.1480 C   0  0  0  0  0  0  0  0  0  0  0  0
  132.0120  124.7880   62.8590 S   0  0  0  0  0  0  0  0  0  0  0  0
  132.4540  125.2390   64.4890 C   0  0  0  0  0  0  0  0  0  0  0  0
  133.7100  125.1450   64.9210 N   0  0  0  0  0  0  0  0  0  0  0  0
  133.9280  125.5230   66.2020 C   0  0  0  0  0  0  0  0  0  0  0  0
  135.3660  125.4090   66.6730 C   0  0  0  0  0  0  0  0  0  0  0  0
  132.9290  125.9880   67.0520 C   0  0  0  0  0  0  0  0  0  0  0  0
  131.6040  126.0900   66.6030 C   0  0  0  0  0  0  0  0  0  0  0  0
  130.5390  126.6080   67.5760 C   0  0  0  0  0  0  0  0  0  0  0  0
  129.9320  125.6300   68.2530 F   0  0  0  0  0  0  0  0  0  0  0  0
  131.1010  127.4230   68.4680 F   0  0  0  0  0  0  0  0  0  0  0  0
  129.5980  127.2720   66.9050 F   0  0  0  0  0  0  0  0  0  0  0  0
  131.3380  125.6990   65.2560 C   0  0  0  0  0  0  0  0  0  0  0  0
  130.1350  125.6640   64.4630 C   0  0  0  0  0  0  0  0  0  0  0  0
  128.9140  126.0520   64.9520 N   0  0  0  0  0  0  0  0  0  0  0  0
  129.4350  122.9740   58.9500 C   0  0  0  0  0  0  0  0  0  0  0  0
  128.6160  122.5800   57.8950 C   0  0  0  0  0  0  0  0  0  0  0  0
  1  2  1  0
  2  3  2  0
  2  4  1  0
  4  5  2  0
  5  6  1  0
  6  7  2  0
  7  8  1  0
  8  9  1  0
  9 10  2  0
  9 11  1  0
 11 12  1  0
 12 13  1  0
 13 14  2  0
 14 15  1  0
 15 16  1  0
 15 17  2  0
 17 18  1  0
 18 19  1  0
 19 20  1  0
 19 21  1  0
 19 22  1  0
 18 23  2  0
 23 24  1  0
 24 25  1  0
  7 26  1  0
 26 27  2  0
 27  4  1  0
 24 11  2  0
 23 13  1  0
M  END
>  <Binding energies>  (26) 
[-7.28]

>  <Ligand effiencies>  (26) 
[-0.24266666666666667]

>  <Interactions>  (26) 
["V-A:GLU:543:CD:4908, H-A:GLU:543:OE1:4909, V-B:PRO:540:CB:9857, V-B:TYR:539:CZ:9849, V-B:GLU:543:CD:9880, V-B:PRO:540:N:9856, V-B:TYR:539:CD2:9846, V-B:LEU:363:CD1:8160, V-B:PRO:540:CD:9859, V-B:TYR:539:CE2:9848, H-B:TYR:539:N:9842, V-B:PRO:540:CA:9855, V-B:MET:535:CE:9807, V-B:GLU:543:CG:9879, V-B:TYR:531:CE2:9765, H-B:GLU:543:OE2:9882, V-B:TYR:531:CZ:9766, V-A:GLU:543:CB:4906, V-A:TYR:484:CE2:4345, V-B:GLU:543:CB:9878, V-A:GLY:453:C:4041, H-A:ARG:545:NH2:4928, V-A:GLY:453:CA:4043, V-A:HIS:456:CE1:4069, H-A:ARG:545:NE:4924, H-A:GLY:454:N:4049, V-A:ARG:545:CZ:4926, H-A:TYR:484:OH:4347, V-A:ARG:545:CG:4922, V-A:TYR:484:CZ:4346, V-A:ARG:545:CD:4923, V-B:TYR:539:C:9839, V-A:GLY:454:CA:4048, V-A:ILE:455:C:4051, V-A:GLY:454:C:4046"]

$$$$
4bd_Grossjean_2025
     RDKit          3D

 24 26  0  0  0  0  0  0  0  0999 V2000
  124.8210  129.5670   65.5350 C   0  0  0  0  0  0  0  0  0  0  0  0
  125.3580  130.4540   64.4260 C   0  0  0  0  0  0  0  0  0  0  0  0
  126.6390  130.2680   63.9140 C   0  0  0  0  0  0  0  0  0  0  0  0
  127.1230  131.0980   62.8910 C   0  0  0  0  0  0  0  0  0  0  0  0
  128.5410  130.8570   62.3610 C   0  0  0  0  0  0  0  0  0  0  0  0
  128.6070  130.8600   61.0270 F   0  0  0  0  0  0  0  0  0  0  0  0
  129.3580  131.8120   62.8040 F   0  0  0  0  0  0  0  0  0  0  0  0
  128.9820  129.6700   62.7780 F   0  0  0  0  0  0  0  0  0  0  0  0
  126.2510  132.1200   62.4110 C   0  0  0  0  0  0  0  0  0  0  0  0
  126.3930  133.1360   61.3970 C   0  0  0  0  0  0  0  0  0  0  0  0
  127.5330  133.2780   60.6480 N   0  0  0  0  0  0  0  0  0  0  0  0
  125.2660  133.9610   61.2490 C   0  0  0  0  0  0  0  0  0  0  0  0
  125.0750  135.0910   60.3350 C   0  0  0  0  0  0  0  0  0  0  0  0
  124.5670  134.9230   59.2250 O   0  0  0  0  0  0  0  0  0  0  0  0
  125.4800  136.2960   60.8070 N   0  0  0  0  0  0  0  0  0  0  0  0
  125.4750  137.5530   60.1750 C   0  0  0  0  0  0  0  0  0  0  0  0
  124.2170  138.0770   59.8650 C   0  0  0  0  0  0  0  0  0  0  0  0
  124.1060  139.3200   59.2470 C   0  0  0  0  0  0  0  0  0  0  0  0
  125.2560  140.0450   58.9460 C   0  0  0  0  0  0  0  0  0  0  0  0
  126.5150  139.5410   59.2620 C   0  0  0  0  0  0  0  0  0  0  0  0
  126.6290  138.2980   59.8790 C   0  0  0  0  0  0  0  0  0  0  0  0
  123.9840  133.4950   62.3640 S   0  0  0  0  0  0  0  0  0  0  0  0
  124.9630  132.2050   63.0230 C   0  0  0  0  0  0  0  0  0  0  0  0
  124.5080  131.4140   63.9930 N   0  0  0  0  0  0  0  0  0  0  0  0
  1  2  1  0
  2  3  2  0
  3  4  1  0
  4  5  1  0
  5  6  1  0
  5  7  1  0
  5  8  1  0
  4  9  2  0
  9 10  1  0
 10 11  1  0
 10 12  2  0
 12 13  1  0
 13 14  2  0
 13 15  1  0
 15 16  1  0
 16 17  2  0
 17 18  1  0
 18 19  2  0
 19 20  1  0
 20 21  2  0
 12 22  1  0
 22 23  1  0
 23 24  2  0
 24  2  1  0
 23  9  1  0
 21 16  1  0
M  END
>  <Binding energies>  (27) 
[-6.9]

>  <Ligand effiencies>  (27) 
[-0.2555555555555556]

>  <Interactions>  (27) 
["V-A:GLU:543:CD:4908, V-A:TYR:539:CE1:4875, V-A:TYR:539:C:4867, V-A:TYR:539:CD1:4873, V-A:GLU:543:CG:4907, V-B:ILE:369:CG2:8208, V-B:LEU:475:CD1:9229, V-A:ALA:541:CB:4892, V-B:GLY:454:CA:9020, V-A:ALA:541:CA:4890, H-B:SER:385:OG:8381, V-B:ARG:545:CZ:9898, H-B:GLY:454:N:9021, V-B:ILE:369:CD1:8210, H-A:TYR:539:O:4868, V-B:HIS:383:CE1:8365, V-A:TYR:539:CB:4871, V-A:VAL:344:CG1:3000, V-B:SER:385:CB:8380, V-B:LEU:373:CD1:8251, V-A:ILE:343:CG2:2991, V-B:PRO:482:CG:9298, V-B:HIS:383:CD2:8363, V-B:HIS:383:CG:8361, V-B:SER:385:CA:8378, V-B:LEU:373:CD2:8252, V-B:VAL:384:C:8368, V-B:LEU:373:CG:8250"]

$$$$
4be_Grossjean_2025
     RDKit          3D

 25 27  0  0  0  0  0  0  0  0999 V2000
  125.7490  140.0620   62.4180 C   0  0  0  0  0  0  0  0  0  0  0  0
  125.8050  139.1640   61.1960 C   0  0  0  0  0  0  0  0  0  0  0  0
  125.6710  139.6800   59.9040 C   0  0  0  0  0  0  0  0  0  0  0  0
  125.7300  138.7950   58.8270 C   0  0  0  0  0  0  0  0  0  0  0  0
  125.9190  137.4310   59.0640 C   0  0  0  0  0  0  0  0  0  0  0  0
  126.0520  136.9830   60.3830 C   0  0  0  0  0  0  0  0  0  0  0  0
  126.2330  135.5980   60.5540 N   0  0  0  0  0  0  0  0  0  0  0  0
  125.3090  134.6470   60.8400 C   0  0  0  0  0  0  0  0  0  0  0  0
  124.1080  134.8810   60.9920 O   0  0  0  0  0  0  0  0  0  0  0  0
  125.8310  133.2860   60.9850 C   0  0  0  0  0  0  0  0  0  0  0  0
  124.7220  131.9230   61.1280 S   0  0  0  0  0  0  0  0  0  0  0  0
  126.0520  130.7990   61.2840 C   0  0  0  0  0  0  0  0  0  0  0  0
  125.8430  129.4920   61.4320 N   0  0  0  0  0  0  0  0  0  0  0  0
  126.9510  128.7220   61.5400 C   0  0  0  0  0  0  0  0  0  0  0  0
  126.6920  127.2370   61.7110 C   0  0  0  0  0  0  0  0  0  0  0  0
  128.2490  129.2240   61.5010 C   0  0  0  0  0  0  0  0  0  0  0  0
  128.4760  130.6000   61.3440 C   0  0  0  0  0  0  0  0  0  0  0  0
  129.9220  131.1050   61.3040 C   0  0  0  0  0  0  0  0  0  0  0  0
  130.8170  130.1180   61.2210 F   0  0  0  0  0  0  0  0  0  0  0  0
  130.0960  131.8910   60.2420 F   0  0  0  0  0  0  0  0  0  0  0  0
  130.1900  131.7960   62.4120 F   0  0  0  0  0  0  0  0  0  0  0  0
  127.3290  131.4410   61.2320 C   0  0  0  0  0  0  0  0  0  0  0  0
  127.1680  132.8660   61.0710 C   0  0  0  0  0  0  0  0  0  0  0  0
  128.2320  133.7280   61.0020 N   0  0  0  0  0  0  0  0  0  0  0  0
  125.9900  137.8420   61.4420 N   0  0  0  0  0  0  0  0  0  0  0  0
  1  2  1  0
  2  3  2  0
  3  4  1  0
  4  5  2  0
  5  6  1  0
  6  7  1  0
  7  8  1  0
  8  9  2  0
  8 10  1  0
 10 11  1  0
 11 12  1  0
 12 13  2  0
 13 14  1  0
 14 15  1  0
 14 16  2  0
 16 17  1  0
 17 18  1  0
 18 19  1  0
 18 20  1  0
 18 21  1  0
 17 22  2  0
 22 23  1  0
 23 24  1  0
  6 25  2  0
 25  2  1  0
 23 10  2  0
 22 12  1  0
M  END
>  <Binding energies>  (28) 
[-6.44]

>  <Ligand effiencies>  (28) 
[-0.23]

>  <Interactions>  (28) 
["V-A:GLU:543:CD:4908, V-A:ALA:541:C:4888, V-A:PRO:540:C:4881, V-A:PRO:540:CA:4883, V-A:TYR:539:C:4867, V-A:PRO:540:N:4884, V-B:ASP:366:CG:8184, V-A:TYR:539:CD1:4873, V-A:GLU:543:CG:4907, V-A:TYR:539:CG:4872, V-B:ILE:369:CG2:8208, V-A:ALA:541:CB:4892, V-A:ALA:541:CA:4890, H-B:SER:385:OG:8381, V-B:ILE:369:CD1:8210, H-A:TYR:539:O:4868, V-B:HIS:383:CE1:8365, V-A:TYR:539:CB:4871, V-B:SER:385:CB:8380, V-B:LEU:373:CD1:8251, V-A:ILE:343:CG2:2991, V-B:PRO:482:CG:9298, V-B:HIS:383:CD2:8363, V-B:LEU:373:CD2:8252, V-B:PRO:482:CB:9297, V-B:THR:477:CA:9241, V-B:CYS:476:C:9235"]

$$$$
4bg_Grossjean_2025
     RDKit          3D

 25 27  0  0  0  0  0  0  0  0999 V2000
  129.3900  132.1590   54.4910 C   0  0  0  0  0  0  0  0  0  0  0  0
  129.8690  131.8260   55.8930 C   0  0  0  0  0  0  0  0  0  0  0  0
  131.0550  131.1290   56.0990 C   0  0  0  0  0  0  0  0  0  0  0  0
  131.4830  130.8230   57.4010 C   0  0  0  0  0  0  0  0  0  0  0  0
  132.7960  130.0530   57.5790 C   0  0  0  0  0  0  0  0  0  0  0  0
  133.5050  129.9630   56.4510 F   0  0  0  0  0  0  0  0  0  0  0  0
  133.5600  130.6670   58.4830 F   0  0  0  0  0  0  0  0  0  0  0  0
  132.5400  128.8110   57.9900 F   0  0  0  0  0  0  0  0  0  0  0  0
  130.6550  131.2580   58.4780 C   0  0  0  0  0  0  0  0  0  0  0  0
  130.7590  131.1270   59.9110 C   0  0  0  0  0  0  0  0  0  0  0  0
  131.7970  130.4720   60.5240 N   0  0  0  0  0  0  0  0  0  0  0  0
  129.7110  131.7360   60.6180 C   0  0  0  0  0  0  0  0  0  0  0  0
  129.4850  131.7710   62.0630 C   0  0  0  0  0  0  0  0  0  0  0  0
  130.4240  131.7970   62.8600 O   0  0  0  0  0  0  0  0  0  0  0  0
  128.1960  131.8130   62.4580 N   0  0  0  0  0  0  0  0  0  0  0  0
  127.7340  131.8370   63.8460 C   0  0  0  0  0  0  0  0  0  0  0  0
  126.4830  131.0020   64.0860 C   0  0  0  0  0  0  0  0  0  0  0  0
  126.3610  130.2400   65.2520 C   0  0  0  0  0  0  0  0  0  0  0  0
  125.2000  129.5090   65.4870 C   0  0  0  0  0  0  0  0  0  0  0  0
  124.1580  129.5520   64.5640 C   0  0  0  0  0  0  0  0  0  0  0  0
  124.2650  130.3220   63.4080 C   0  0  0  0  0  0  0  0  0  0  0  0
  125.4260  131.0530   63.1720 C   0  0  0  0  0  0  0  0  0  0  0  0
  128.5360  132.4610   59.5250 S   0  0  0  0  0  0  0  0  0  0  0  0
  129.4670  131.9710   58.1300 C   0  0  0  0  0  0  0  0  0  0  0  0
  129.0640  132.2560   56.8910 N   0  0  0  0  0  0  0  0  0  0  0  0
  1  2  1  0
  2  3  2  0
  3  4  1  0
  4  5  1  0
  5  6  1  0
  5  7  1  0
  5  8  1  0
  4  9  2  0
  9 10  1  0
 10 11  1  0
 10 12  2  0
 12 13  1  0
 13 14  2  0
 13 15  1  0
 15 16  1  0
 16 17  1  0
 17 18  2  0
 18 19  1  0
 19 20  2  0
 20 21  1  0
 21 22  2  0
 12 23  1  0
 23 24  1  0
 24 25  2  0
 25  2  1  0
 24  9  1  0
 22 17  1  0
M  END
>  <Binding energies>  (29) 
[-6.58]

>  <Ligand effiencies>  (29) 
[-0.23500000000000001]

>  <Interactions>  (29) 
["V-A:GLU:543:CD:4908, H-A:ASP:366:OD2:3214, V-A:ASP:366:CB:3211, V-A:ILE:538:CA:4860, H-A:ALA:541:N:4891, V-A:TYR:531:CZ:4794, V-A:ILE:538:CG2:4863, V-A:ILE:538:C:4858, V-A:ILE:538:CB:4862, V-A:TYR:539:CE1:4875, V-A:PRO:540:CB:4885, V-A:PRO:540:CA:4883, V-A:ASP:366:CG:3212, V-A:TYR:539:C:4867, H-A:GLU:543:OE2:4910, V-A:PRO:540:N:4884, V-A:LEU:363:CD1:3188, V-A:TYR:539:CD1:4873, V-A:GLU:543:CG:4907, V-A:ALA:541:CB:4892, V-B:GLY:454:CA:9020, V-A:ALA:541:CA:4890, V-B:ARG:545:CZ:9898, H-A:TYR:539:N:4870, V-A:LEU:363:CA:3184, V-A:LEU:363:CB:3186, V-A:TYR:531:CE2:4793"]

$$$$
4ca_Grossjean_2025
     RDKit          3D

 34 37  0  0  0  0  0  0  0  0999 V2000
  127.6530  131.3460   72.3150 C   0  0  0  0  0  0  0  0  0  0  0  0
  128.6300  130.1880   72.5450 C   0  0  0  0  0  0  0  0  0  0  0  0
  128.6210  129.3310   71.4110 O   0  0  0  0  0  0  0  0  0  0  0  0
  129.3770  128.2030   71.3780 C   0  0  0  0  0  0  0  0  0  0  0  0
  129.9750  127.7570   72.3630 O   0  0  0  0  0  0  0  0  0  0  0  0
  129.4090  127.5500   70.0270 C   0  0  0  0  0  0  0  0  0  0  0  0
  128.6270  126.4100   69.7990 C   0  0  0  0  0  0  0  0  0  0  0  0
  128.6330  125.7850   68.5550 C   0  0  0  0  0  0  0  0  0  0  0  0
  129.4240  126.2800   67.5180 C   0  0  0  0  0  0  0  0  0  0  0  0
  129.3460  125.5770   66.3000 N   0  0  0  0  0  0  0  0  0  0  0  0
  130.3340  125.1210   65.4910 C   0  0  0  0  0  0  0  0  0  0  0  0
  131.5350  125.2210   65.7430 O   0  0  0  0  0  0  0  0  0  0  0  0
  129.8830  124.4610   64.2640 C   0  0  0  0  0  0  0  0  0  0  0  0
  128.6210  125.1940   63.2760 S   0  0  0  0  0  0  0  0  0  0  0  0
  128.7260  123.9020   62.1040 C   0  0  0  0  0  0  0  0  0  0  0  0
  127.9550  123.8860   61.0190 N   0  0  0  0  0  0  0  0  0  0  0  0
  128.1180  122.8490   60.1570 C   0  0  0  0  0  0  0  0  0  0  0  0
  127.2410  122.8640   58.9380 C   0  0  0  0  0  0  0  0  0  0  0  0
  127.5340  122.0510   57.8320 C   0  0  0  0  0  0  0  0  0  0  0  0
  126.7280  122.0650   56.6960 C   0  0  0  0  0  0  0  0  0  0  0  0
  125.6130  122.8960   56.6510 C   0  0  0  0  0  0  0  0  0  0  0  0
  125.3020  123.7130   57.7320 C   0  0  0  0  0  0  0  0  0  0  0  0
  126.1100  123.6970   58.8650 C   0  0  0  0  0  0  0  0  0  0  0  0
  129.0370  121.8230   60.4000 C   0  0  0  0  0  0  0  0  0  0  0  0
  129.8510  121.8290   61.5430 C   0  0  0  0  0  0  0  0  0  0  0  0
  130.8390  120.6740   61.7460 C   0  0  0  0  0  0  0  0  0  0  0  0
  130.8990  119.8470   60.7000 F   0  0  0  0  0  0  0  0  0  0  0  0
  132.0650  121.1580   61.9410 F   0  0  0  0  0  0  0  0  0  0  0  0
  130.4780  119.9510   62.8050 F   0  0  0  0  0  0  0  0  0  0  0  0
  129.7010  122.9210   62.4450 C   0  0  0  0  0  0  0  0  0  0  0  0
  130.3500  123.2680   63.6860 C   0  0  0  0  0  0  0  0  0  0  0  0
  131.3330  122.4960   64.2490 N   0  0  0  0  0  0  0  0  0  0  0  0
  130.2060  127.4240   67.7350 C   0  0  0  0  0  0  0  0  0  0  0  0
  130.1970  128.0500   68.9790 C   0  0  0  0  0  0  0  0  0  0  0  0
  1  2  1  0
  2  3  1  0
  3  4  1  0
  4  5  2  0
  4  6  1  0
  6  7  2  0
  7  8  1  0
  8  9  2  0
  9 10  1  0
 10 11  1  0
 11 12  2  0
 11 13  1  0
 13 14  1  0
 14 15  1  0
 15 16  2  0
 16 17  1  0
 17 18  1  0
 18 19  2  0
 19 20  1  0
 20 21  2  0
 21 22  1  0
 22 23  2  0
 17 24  2  0
 24 25  1  0
 25 26  1  0
 26 27  1  0
 26 28  1  0
 26 29  1  0
 25 30  2  0
 30 31  1  0
 31 32  1  0
  9 33  1  0
 33 34  2  0
 34  6  1  0
 31 13  2  0
 30 15  1  0
 23 18  1  0
M  END
>  <Binding energies>  (30) 
[-7.87]

>  <Ligand effiencies>  (30) 
[-0.2127027027027027]

>  <Interactions>  (30) 
["V-A:GLU:543:CD:4908, V-B:PRO:540:CB:9857, V-B:ALA:541:CB:9864, V-B:GLU:543:CD:9880, V-B:PRO:540:N:9856, V-B:TYR:539:CD2:9846, V-B:LEU:363:CD1:8160, V-B:PRO:540:CD:9859, V-B:PRO:540:CA:9855, V-B:ALA:541:CA:9862, V-B:MET:535:CE:9807, V-B:GLU:543:CG:9879, V-B:TYR:531:CE2:9765, H-B:GLU:543:OE2:9882, V-A:GLU:543:CB:4906, V-B:HIS:456:CE1:9041, V-B:TYR:484:CE2:9317, V-A:GLU:543:C:4902, V-B:GLU:543:CB:9878, V-A:LEU:475:CD1:4257, V-A:HIS:456:CE1:4069, H-A:TYR:484:OH:4347, V-A:TYR:484:CZ:4346, V-B:HIS:456:CD2:9039, V-B:TYR:539:C:9839, V-B:TYR:539:CA:9841, V-B:GLU:543:C:9874, V-B:TYR:484:CG:9313, V-B:TYR:484:CD2:9315, V-B:HIS:456:CG:9037, V-B:TYR:484:CB:9312, V-B:GLU:543:CA:9876, V-B:TYR:484:CD1:9314"]

$$$$
4cb_Grossjean_2025
     RDKit          3D

 33 36  0  0  0  0  0  0  0  0999 V2000
  124.9190  121.9870   54.8410 C   0  0  0  0  0  0  0  0  0  0  0  0
  125.4160  121.4740   56.0680 O   0  0  0  0  0  0  0  0  0  0  0  0
  126.5890  121.9190   56.5870 C   0  0  0  0  0  0  0  0  0  0  0  0
  127.6520  121.2960   56.5020 O   0  0  0  0  0  0  0  0  0  0  0  0
  126.4660  123.2480   57.2770 C   0  0  0  0  0  0  0  0  0  0  0  0
  127.6270  123.9680   57.5880 C   0  0  0  0  0  0  0  0  0  0  0  0
  127.5460  125.2050   58.2190 C   0  0  0  0  0  0  0  0  0  0  0  0
  126.3050  125.7450   58.5600 C   0  0  0  0  0  0  0  0  0  0  0  0
  126.3390  127.0080   59.1820 N   0  0  0  0  0  0  0  0  0  0  0  0
  126.4010  127.3320   60.4960 C   0  0  0  0  0  0  0  0  0  0  0  0
  126.4890  126.5090   61.4090 O   0  0  0  0  0  0  0  0  0  0  0  0
  126.3750  128.7680   60.7890 C   0  0  0  0  0  0  0  0  0  0  0  0
  125.9530  129.9230   59.5260 S   0  0  0  0  0  0  0  0  0  0  0  0
  126.1060  131.2640   60.6360 C   0  0  0  0  0  0  0  0  0  0  0  0
  125.8910  132.5170   60.2470 N   0  0  0  0  0  0  0  0  0  0  0  0
  126.0230  133.4920   61.1840 C   0  0  0  0  0  0  0  0  0  0  0  0
  125.7680  134.8950   60.7150 C   0  0  0  0  0  0  0  0  0  0  0  0
  126.8020  135.8440   60.6950 C   0  0  0  0  0  0  0  0  0  0  0  0
  126.5720  137.1490   60.2650 C   0  0  0  0  0  0  0  0  0  0  0  0
  125.2990  137.5230   59.8480 C   0  0  0  0  0  0  0  0  0  0  0  0
  124.2550  136.6030   59.8610 C   0  0  0  0  0  0  0  0  0  0  0  0
  124.4900  135.3010   60.2930 C   0  0  0  0  0  0  0  0  0  0  0  0
  126.3940  133.2030   62.5020 C   0  0  0  0  0  0  0  0  0  0  0  0
  126.6270  131.8850   62.9220 C   0  0  0  0  0  0  0  0  0  0  0  0
  127.0280  131.6400   64.3820 C   0  0  0  0  0  0  0  0  0  0  0  0
  127.1990  132.7680   65.0740 F   0  0  0  0  0  0  0  0  0  0  0  0
  126.0780  130.9350   64.9970 F   0  0  0  0  0  0  0  0  0  0  0  0
  128.1760  130.9650   64.4280 F   0  0  0  0  0  0  0  0  0  0  0  0
  126.4740  130.8540   61.9510 C   0  0  0  0  0  0  0  0  0  0  0  0
  126.6160  129.4190   62.0100 C   0  0  0  0  0  0  0  0  0  0  0  0
  126.9580  128.7550   63.1600 N   0  0  0  0  0  0  0  0  0  0  0  0
  125.1370  125.0330   58.2500 C   0  0  0  0  0  0  0  0  0  0  0  0
  125.2200  123.7960   57.6170 C   0  0  0  0  0  0  0  0  0  0  0  0
  1  2  1  0
  2  3  1  0
  3  4  2  0
  3  5  1  0
  5  6  2  0
  6  7  1  0
  7  8  2  0
  8  9  1  0
  9 10  1  0
 10 11  2  0
 10 12  1  0
 12 13  1  0
 13 14  1  0
 14 15  2  0
 15 16  1  0
 16 17  1  0
 17 18  2  0
 18 19  1  0
 19 20  2  0
 20 21  1  0
 21 22  2  0
 16 23  2  0
 23 24  1  0
 24 25  1  0
 25 26  1  0
 25 27  1  0
 25 28  1  0
 24 29  2  0
 29 30  1  0
 30 31  1  0
  8 32  1  0
 32 33  2  0
 33  5  1  0
 30 12  2  0
 29 14  1  0
 22 17  1  0
M  END
>  <Binding energies>  (31) 
[-7.8]

>  <Ligand effiencies>  (31) 
[-0.21666666666666667]

>  <Interactions>  (31) 
["V-A:GLU:543:CD:4908, H-A:GLU:543:OE1:4909, V-A:TYR:539:C:4867, V-B:ASP:366:CG:8184, H-B:TYR:531:OH:9767, V-B:ASP:366:CB:8183, V-B:PRO:540:N:9856, V-A:TYR:539:CD1:4873, V-B:ILE:538:CG2:9835, V-B:LEU:363:CD1:8160, V-B:PRO:540:CD:9859, H-B:TYR:539:N:9842, V-B:PRO:540:CA:9855, V-B:MET:535:CE:9807, H-B:ARG:545:NH2:9900, V-B:TYR:531:CE2:9765, H-B:GLU:543:OE2:9882, V-A:GLU:543:CG:4907, V-B:TYR:531:CZ:9766, V-B:ILE:369:CG2:8208, V-B:LEU:475:CD1:9229, V-A:ALA:541:CB:4892, V-B:TYR:484:CE2:9317, V-B:TYR:484:CZ:9318, V-B:TYR:539:C:9839, V-A:TYR:539:CB:4871, V-B:SER:385:CB:8380, V-B:LEU:373:CD1:8251, V-B:PRO:482:CG:9298, V-B:SER:385:CA:8378, V-B:TYR:539:CA:9841, V-B:PRO:482:CB:9297, V-B:LEU:475:CD2:9230, V-B:LEU:475:CG:9228, V-B:ILE:538:CA:9832, V-B:ILE:538:CB:9834, V-B:ILE:538:CG1:9836, V-B:MET:535:CG:9805, V-B:MET:535:CB:9804"]

$$$$
4cc_Grossjean_2025
     RDKit          3D

 31 34  0  0  0  0  0  0  0  0999 V2000
  125.2510  121.3490   55.4170 C   0  0  0  0  0  0  0  0  0  0  0  0
  126.1810  121.3920   56.4930 O   0  0  0  0  0  0  0  0  0  0  0  0
  126.3650  122.5770   57.1790 C   0  0  0  0  0  0  0  0  0  0  0  0
  125.2460  123.3980   57.3130 C   0  0  0  0  0  0  0  0  0  0  0  0
  125.3330  124.6120   57.9900 C   0  0  0  0  0  0  0  0  0  0  0  0
  126.5500  125.0270   58.5350 C   0  0  0  0  0  0  0  0  0  0  0  0
  126.5380  126.2590   59.2140 N   0  0  0  0  0  0  0  0  0  0  0  0
  126.6140  126.5060   60.5440 C   0  0  0  0  0  0  0  0  0  0  0  0
  126.7520  125.6300   61.3990 O   0  0  0  0  0  0  0  0  0  0  0  0
  126.5240  127.9170   60.9290 C   0  0  0  0  0  0  0  0  0  0  0  0
  126.3840  129.1670   59.6950 S   0  0  0  0  0  0  0  0  0  0  0  0
  126.3280  130.4230   60.9090 C   0  0  0  0  0  0  0  0  0  0  0  0
  126.2150  131.7070   60.5760 N   0  0  0  0  0  0  0  0  0  0  0  0
  126.1690  132.6100   61.5900 C   0  0  0  0  0  0  0  0  0  0  0  0
  126.0440  134.0490   61.1840 C   0  0  0  0  0  0  0  0  0  0  0  0
  124.8710  134.5250   60.5760 C   0  0  0  0  0  0  0  0  0  0  0  0
  124.7490  135.8590   60.1950 C   0  0  0  0  0  0  0  0  0  0  0  0
  125.8020  136.7390   60.4170 C   0  0  0  0  0  0  0  0  0  0  0  0
  126.9770  136.2930   61.0140 C   0  0  0  0  0  0  0  0  0  0  0  0
  127.0950  134.9590   61.3920 C   0  0  0  0  0  0  0  0  0  0  0  0
  126.2530  132.2210   62.9300 C   0  0  0  0  0  0  0  0  0  0  0  0
  126.3740  130.8700   63.2930 C   0  0  0  0  0  0  0  0  0  0  0  0
  126.4560  130.5140   64.7810 C   0  0  0  0  0  0  0  0  0  0  0  0
  127.4900  129.7220   65.0760 F   0  0  0  0  0  0  0  0  0  0  0  0
  126.5880  131.6260   65.5040 F   0  0  0  0  0  0  0  0  0  0  0  0
  125.3460  129.8770   65.1540 F   0  0  0  0  0  0  0  0  0  0  0  0
  126.4140  129.9130   62.2380 C   0  0  0  0  0  0  0  0  0  0  0  0
  126.5300  128.4760   62.2180 C   0  0  0  0  0  0  0  0  0  0  0  0
  126.6340  127.7240   63.3610 N   0  0  0  0  0  0  0  0  0  0  0  0
  127.6770  124.2000   58.4150 C   0  0  0  0  0  0  0  0  0  0  0  0
  127.5850  122.9880   57.7390 C   0  0  0  0  0  0  0  0  0  0  0  0
  1  2  1  0
  2  3  1  0
  3  4  2  0
  4  5  1  0
  5  6  2  0
  6  7  1  0
  7  8  1  0
  8  9  2  0
  8 10  1  0
 10 11  1  0
 11 12  1  0
 12 13  2  0
 13 14  1  0
 14 15  1  0
 15 16  2  0
 16 17  1  0
 17 18  2  0
 18 19  1  0
 19 20  2  0
 14 21  2  0
 21 22  1  0
 22 23  1  0
 23 24  1  0
 23 25  1  0
 23 26  1  0
 22 27  2  0
 27 28  1  0
 28 29  1  0
  6 30  1  0
 30 31  2  0
 31  3  1  0
 28 10  2  0
 27 12  1  0
 20 15  1  0
M  END
>  <Binding energies>  (32) 
[-7.43]

>  <Ligand effiencies>  (32) 
[-0.21852941176470586]

>  <Interactions>  (32) 
["V-A:GLU:543:CD:4908, V-A:TYR:539:CE1:4875, V-B:ASP:366:CG:8184, V-B:PRO:540:CB:9857, H-B:TYR:531:OH:9767, V-B:GLU:543:CD:9880, V-B:PRO:540:N:9856, V-A:TYR:539:CD1:4873, V-B:ILE:538:CG2:9835, V-B:LEU:363:CD1:8160, V-B:PRO:540:CD:9859, H-B:TYR:539:N:9842, V-B:PRO:540:CA:9855, H-B:ASP:366:OD1:8185, V-B:MET:535:CE:9807, H-B:ARG:545:NH2:9900, V-B:TYR:531:CE2:9765, H-B:GLU:543:OE2:9882, H-B:GLU:543:OE1:9881, V-A:GLU:543:CG:4907, V-B:TYR:531:CZ:9766, V-B:ILE:369:CG2:8208, V-B:LEU:475:CD1:9229, V-A:ALA:541:CB:4892, V-B:ARG:545:CZ:9898, V-B:TYR:484:CE2:9317, V-B:TYR:484:CZ:9318, V-B:TYR:539:C:9839, V-A:TYR:539:CB:4871, V-B:SER:385:CB:8380, V-B:LEU:373:CD1:8251, V-B:PRO:482:CG:9298, V-B:PRO:482:CB:9297, V-B:ILE:538:CA:9832, V-B:ILE:538:CB:9834, V-B:ILE:538:C:9830, V-B:ILE:538:CG1:9836"]

$$$$
4ce_Grossjean_2025
     RDKit          3D

 30 33  0  0  0  0  0  0  0  0999 V2000
  129.3750  128.2670   71.0780 C   0  0  0  0  0  0  0  0  0  0  0  0
  129.0920  127.6820   69.7080 C   0  0  0  0  0  0  0  0  0  0  0  0
  129.1040  126.3030   69.4850 C   0  0  0  0  0  0  0  0  0  0  0  0
  128.8250  125.8360   68.2000 C   0  0  0  0  0  0  0  0  0  0  0  0
  128.5440  126.7470   67.1810 C   0  0  0  0  0  0  0  0  0  0  0  0
  128.5540  128.1160   67.4710 C   0  0  0  0  0  0  0  0  0  0  0  0
  128.2390  128.9830   66.4090 N   0  0  0  0  0  0  0  0  0  0  0  0
  127.0730  129.0970   65.7240 C   0  0  0  0  0  0  0  0  0  0  0  0
  126.0680  128.4280   65.9670 O   0  0  0  0  0  0  0  0  0  0  0  0
  127.0710  130.0900   64.6470 C   0  0  0  0  0  0  0  0  0  0  0  0
  125.9400  131.4410   64.6900 S   0  0  0  0  0  0  0  0  0  0  0  0
  126.5900  132.0900   63.2040 C   0  0  0  0  0  0  0  0  0  0  0  0
  126.1120  133.2110   62.6690 N   0  0  0  0  0  0  0  0  0  0  0  0
  126.6910  133.6460   61.5190 C   0  0  0  0  0  0  0  0  0  0  0  0
  126.1330  134.9150   60.9450 C   0  0  0  0  0  0  0  0  0  0  0  0
  124.8330  134.9490   60.4140 C   0  0  0  0  0  0  0  0  0  0  0  0
  124.3110  136.1210   59.8720 C   0  0  0  0  0  0  0  0  0  0  0  0
  125.0830  137.2780   59.8560 C   0  0  0  0  0  0  0  0  0  0  0  0
  126.3730  137.2700   60.3740 C   0  0  0  0  0  0  0  0  0  0  0  0
  126.8930  136.0960   60.9130 C   0  0  0  0  0  0  0  0  0  0  0  0
  127.7320  132.9440   60.9030 C   0  0  0  0  0  0  0  0  0  0  0  0
  128.2400  131.7580   61.4560 C   0  0  0  0  0  0  0  0  0  0  0  0
  129.3830  131.0400   60.7300 C   0  0  0  0  0  0  0  0  0  0  0  0
  129.7340  131.6350   59.5890 F   0  0  0  0  0  0  0  0  0  0  0  0
  130.4630  131.0070   61.5110 F   0  0  0  0  0  0  0  0  0  0  0  0
  129.0160  129.7940   60.4340 F   0  0  0  0  0  0  0  0  0  0  0  0
  127.6510  131.3000   62.6700 C   0  0  0  0  0  0  0  0  0  0  0  0
  127.9030  130.1600   63.5170 C   0  0  0  0  0  0  0  0  0  0  0  0
  128.8720  129.2300   63.2400 N   0  0  0  0  0  0  0  0  0  0  0  0
  128.8200  128.5810   68.7260 N   0  0  0  0  0  0  0  0  0  0  0  0
  1  2  1  0
  2  3  2  0
  3  4  1  0
  4  5  2  0
  5  6  1  0
  6  7  1  0
  7  8  1  0
  8  9  2  0
  8 10  1  0
 10 11  1  0
 11 12  1  0
 12 13  2  0
 13 14  1  0
 14 15  1  0
 15 16  2  0
 16 17  1  0
 17 18  2  0
 18 19  1  0
 19 20  2  0
 14 21  2  0
 21 22  1  0
 22 23  1  0
 23 24  1  0
 23 25  1  0
 23 26  1  0
 22 27  2  0
 27 28  1  0
 28 29  1  0
  6 30  2  0
 30  2  1  0
 28 10  2  0
 27 12  1  0
 20 15  1  0
M  END
>  <Binding energies>  (33) 
[-7.75]

>  <Ligand effiencies>  (33) 
[-0.23484848484848486]

>  <Interactions>  (33) 
["V-A:GLU:543:CD:4908, H-A:GLU:543:OE1:4909, V-A:PRO:540:CA:4883, H-A:GLU:543:OE2:4910, V-B:GLU:543:CD:9880, V-A:TYR:539:CD1:4873, V-B:GLU:543:CG:9879, H-B:ARG:545:NH2:9900, V-A:GLU:543:CG:4907, V-B:ILE:369:CG2:8208, V-B:LEU:475:CD1:9229, V-A:ALA:541:CB:4892, V-B:GLY:454:CA:9020, V-A:GLU:543:CB:4906, V-B:HIS:456:CE1:9041, V-B:GLU:543:CB:9878, V-A:HIS:456:CE1:4069, V-B:HIS:456:CD2:9039, H-B:ARG:545:NE:9896, V-A:TYR:539:CB:4871, V-B:SER:385:CB:8380, V-B:LEU:373:CD1:8251, V-B:PRO:482:CG:9298, V-B:SER:385:CA:8378, V-B:PRO:482:CB:9297"]

$$$$
4cf_Grossjean_2025
     RDKit          3D

 29 32  0  0  0  0  0  0  0  0999 V2000
  128.8320  129.2170   63.2200 N   0  0  0  0  0  0  0  0  0  0  0  0
  127.9090  130.1840   63.5290 C   0  0  0  0  0  0  0  0  0  0  0  0
  127.1250  130.1560   64.6940 C   0  0  0  0  0  0  0  0  0  0  0  0
  127.0910  129.1380   65.7480 C   0  0  0  0  0  0  0  0  0  0  0  0
  126.0840  128.4510   65.9230 O   0  0  0  0  0  0  0  0  0  0  0  0
  128.2270  129.0180   66.4750 N   0  0  0  0  0  0  0  0  0  0  0  0
  128.5050  128.1850   67.5760 C   0  0  0  0  0  0  0  0  0  0  0  0
  129.0110  128.6150   68.8180 C   0  0  0  0  0  0  0  0  0  0  0  0
  129.2560  127.6790   69.8250 C   0  0  0  0  0  0  0  0  0  0  0  0
  128.9930  126.3340   69.5660 C   0  0  0  0  0  0  0  0  0  0  0  0
  128.5120  125.8920   68.3760 N   0  0  0  0  0  0  0  0  0  0  0  0
  128.2800  126.8150   67.4060 C   0  0  0  0  0  0  0  0  0  0  0  0
  126.0540  131.5530   64.7740 S   0  0  0  0  0  0  0  0  0  0  0  0
  126.6570  132.1590   63.2490 C   0  0  0  0  0  0  0  0  0  0  0  0
  126.1900  133.2860   62.7150 N   0  0  0  0  0  0  0  0  0  0  0  0
  126.7090  133.6670   61.5180 C   0  0  0  0  0  0  0  0  0  0  0  0
  126.1590  134.9370   60.9380 C   0  0  0  0  0  0  0  0  0  0  0  0
  124.8480  134.9900   60.4390 C   0  0  0  0  0  0  0  0  0  0  0  0
  124.3290  136.1640   59.9000 C   0  0  0  0  0  0  0  0  0  0  0  0
  125.1180  137.3080   59.8550 C   0  0  0  0  0  0  0  0  0  0  0  0
  126.4200  137.2860   60.3450 C   0  0  0  0  0  0  0  0  0  0  0  0
  126.9340  136.1100   60.8830 C   0  0  0  0  0  0  0  0  0  0  0  0
  127.7080  132.9290   60.8760 C   0  0  0  0  0  0  0  0  0  0  0  0
  128.2090  131.7420   61.4330 C   0  0  0  0  0  0  0  0  0  0  0  0
  129.3010  130.9800   60.6730 C   0  0  0  0  0  0  0  0  0  0  0  0
  128.9480  129.7310   60.3600 F   0  0  0  0  0  0  0  0  0  0  0  0
  129.5830  131.6120   59.5330 F   0  0  0  0  0  0  0  0  0  0  0  0
  130.4040  130.9070   61.4190 F   0  0  0  0  0  0  0  0  0  0  0  0
  127.6600  131.3230   62.6790 C   0  0  0  0  0  0  0  0  0  0  0  0
  1  2  1  0
  2  3  2  0
  3  4  1  0
  4  5  2  0
  4  6  1  0
  6  7  1  0
  7  8  2  0
  8  9  1  0
  9 10  2  0
 10 11  1  0
 11 12  2  0
  3 13  1  0
 13 14  1  0
 14 15  2  0
 15 16  1  0
 16 17  1  0
 17 18  2  0
 18 19  1  0
 19 20  2  0
 20 21  1  0
 21 22  2  0
 16 23  2  0
 23 24  1  0
 24 25  1  0
 25 26  1  0
 25 27  1  0
 25 28  1  0
 24 29  2  0
 29  2  1  0
 12  7  1  0
 29 14  1  0
 22 17  1  0
M  END
>  <Binding energies>  (34) 
[-7.38]

>  <Ligand effiencies>  (34) 
[-0.230625]

>  <Interactions>  (34) 
["V-A:GLU:543:CD:4908, H-A:GLU:543:OE1:4909, V-A:PRO:540:CA:4883, V-A:TYR:539:C:4867, H-A:GLU:543:OE2:4910, V-B:GLU:543:CD:9880, V-A:TYR:539:CD1:4873, H-B:ARG:545:NH2:9900, V-A:GLU:543:CG:4907, V-B:ILE:369:CG2:8208, V-B:LEU:475:CD1:9229, V-A:ALA:541:CB:4892, V-A:GLU:543:CB:4906, V-B:HIS:456:CE1:9041, V-B:TYR:484:CZ:9318, V-A:GLU:543:C:4902, V-B:GLU:543:CB:9878, V-A:HIS:456:CE1:4069, H-B:ARG:545:NE:9896, V-A:TYR:539:CB:4871, V-B:SER:385:CB:8380, V-B:LEU:373:CD1:8251, V-B:PRO:482:CG:9298, V-B:SER:385:CA:8378, V-B:PRO:482:CB:9297"]

$$$$
4ci_Grossjean_2025
     RDKit          3D

 28 31  0  0  0  0  0  0  0  0999 V2000
  129.2590  121.6720   60.2220 N   0  0  0  0  0  0  0  0  0  0  0  0
  128.8040  122.7550   60.9270 C   0  0  0  0  0  0  0  0  0  0  0  0
  127.6320  123.4540   60.5930 C   0  0  0  0  0  0  0  0  0  0  0  0
  126.6940  123.1920   59.4980 C   0  0  0  0  0  0  0  0  0  0  0  0
  125.4830  123.3740   59.6510 O   0  0  0  0  0  0  0  0  0  0  0  0
  127.2500  122.7360   58.3480 N   0  0  0  0  0  0  0  0  0  0  0  0
  126.5990  122.4060   57.1660 C   0  0  0  0  0  0  0  0  0  0  0  0
  125.6320  123.2190   56.5760 C   0  0  0  0  0  0  0  0  0  0  0  0
  125.2410  122.5460   55.4420 C   0  0  0  0  0  0  0  0  0  0  0  0
  125.9370  121.3870   55.3540 O   0  0  0  0  0  0  0  0  0  0  0  0
  126.7940  121.3100   56.4520 N   0  0  0  0  0  0  0  0  0  0  0  0
  127.3410  124.7820   61.7140 S   0  0  0  0  0  0  0  0  0  0  0  0
  128.7890  124.3990   62.6150 C   0  0  0  0  0  0  0  0  0  0  0  0
  129.1540  125.1080   63.6800 N   0  0  0  0  0  0  0  0  0  0  0  0
  130.2930  124.7330   64.3180 C   0  0  0  0  0  0  0  0  0  0  0  0
  130.6800  125.5560   65.5140 C   0  0  0  0  0  0  0  0  0  0  0  0
  132.0250  125.8720   65.7650 C   0  0  0  0  0  0  0  0  0  0  0  0
  132.3910  126.6360   66.8710 C   0  0  0  0  0  0  0  0  0  0  0  0
  131.4110  127.0930   67.7460 C   0  0  0  0  0  0  0  0  0  0  0  0
  130.0730  126.7910   67.5250 C   0  0  0  0  0  0  0  0  0  0  0  0
  129.7120  126.0260   66.4190 C   0  0  0  0  0  0  0  0  0  0  0  0
  131.0680  123.6590   63.8710 C   0  0  0  0  0  0  0  0  0  0  0  0
  130.6940  122.9030   62.7490 C   0  0  0  0  0  0  0  0  0  0  0  0
  131.5910  121.7380   62.3150 C   0  0  0  0  0  0  0  0  0  0  0  0
  132.7310  121.6700   63.0050 F   0  0  0  0  0  0  0  0  0  0  0  0
  130.9470  120.5850   62.4930 F   0  0  0  0  0  0  0  0  0  0  0  0
  131.9110  121.8700   61.0270 F   0  0  0  0  0  0  0  0  0  0  0  0
  129.4940  123.2800   62.0810 C   0  0  0  0  0  0  0  0  0  0  0  0
  1  2  1  0
  2  3  2  0
  3  4  1  0
  4  5  2  0
  4  6  1  0
  6  7  1  0
  7  8  1  0
  8  9  2  0
  9 10  1  0
 10 11  1  0
  3 12  1  0
 12 13  1  0
 13 14  2  0
 14 15  1  0
 15 16  1  0
 16 17  2  0
 17 18  1  0
 18 19  2  0
 19 20  1  0
 20 21  2  0
 15 22  2  0
 22 23  1  0
 23 24  1  0
 24 25  1  0
 24 26  1  0
 24 27  1  0
 23 28  2  0
 28  2  1  0
 11  7  2  0
 28 13  1  0
 21 16  1  0
M  END
>  <Binding energies>  (35) 
[-7.57]

>  <Ligand effiencies>  (35) 
[-0.24419354838709678]

>  <Interactions>  (35) 
["V-A:GLU:543:CD:4908, V-B:PRO:540:CB:9857, V-B:ALA:541:CB:9864, V-B:GLU:543:CD:9880, V-B:PRO:540:N:9856, V-B:TYR:539:CD2:9846, V-B:LEU:363:CD1:8160, V-B:PRO:540:CD:9859, H-B:TYR:539:N:9842, V-B:PRO:540:CA:9855, V-B:MET:535:CE:9807, V-B:TYR:531:CE2:9765, V-A:GLU:543:CB:4906, V-A:LEU:475:CD1:4257, V-A:HIS:456:CE1:4069, V-A:ARG:545:CZ:4926, V-A:ARG:545:CG:4922, V-A:ARG:545:CD:4923, V-B:TYR:539:C:9839, V-A:GLY:454:CA:4048, H-B:TYR:539:O:9840, V-B:MET:535:CG:9805"]

$$$$
8a_Ghoteimi_2023
     RDKit          3D

 40 44  0  0  0  0  0  0  0  0999 V2000
  128.3390  131.1340   73.0300 C   0  0  0  0  0  0  0  0  0  0  0  0
  128.4400  129.9660   72.0440 C   0  0  0  0  0  0  0  0  0  0  0  0
  128.7730  128.7780   72.7510 O   0  0  0  0  0  0  0  0  0  0  0  0
  129.6980  127.9090   72.2630 C   0  0  0  0  0  0  0  0  0  0  0  0
  130.6680  127.5130   72.9160 O   0  0  0  0  0  0  0  0  0  0  0  0
  129.4250  127.4830   70.8500 C   0  0  0  0  0  0  0  0  0  0  0  0
  129.6010  128.4070   69.8120 C   0  0  0  0  0  0  0  0  0  0  0  0
  129.3550  128.0440   68.4910 C   0  0  0  0  0  0  0  0  0  0  0  0
  128.9280  126.7520   68.1790 C   0  0  0  0  0  0  0  0  0  0  0  0
  128.7060  126.4990   66.8100 N   0  0  0  0  0  0  0  0  0  0  0  0
  129.5770  126.1490   65.8310 C   0  0  0  0  0  0  0  0  0  0  0  0
  130.7850  125.9890   66.0020 O   0  0  0  0  0  0  0  0  0  0  0  0
  128.9800  125.9570   64.5060 C   0  0  0  0  0  0  0  0  0  0  0  0
  129.0070  124.3690   63.7390 S   0  0  0  0  0  0  0  0  0  0  0  0
  128.1810  124.9860   62.3260 C   0  0  0  0  0  0  0  0  0  0  0  0
  127.9030  124.2060   61.2820 N   0  0  0  0  0  0  0  0  0  0  0  0
  127.2640  124.7870   60.2320 C   0  0  0  0  0  0  0  0  0  0  0  0
  126.9800  123.8990   59.0630 C   0  0  0  0  0  0  0  0  0  0  0  0
  127.9060  122.9300   58.6490 C   0  0  0  0  0  0  0  0  0  0  0  0
  127.6410  122.1150   57.5520 C   0  0  0  0  0  0  0  0  0  0  0  0
  126.4470  122.2430   56.8450 C   0  0  0  0  0  0  0  0  0  0  0  0
  126.2720  121.3920   55.7700 O   0  0  0  0  0  0  0  0  0  0  0  0
  125.2360  121.6660   54.8320 C   0  0  0  0  0  0  0  0  0  0  0  0
  125.5120  123.2040   57.2550 C   0  0  0  0  0  0  0  0  0  0  0  0
  125.7810  124.0210   58.3510 C   0  0  0  0  0  0  0  0  0  0  0  0
  126.8990  126.1350   60.2330 C   0  0  0  0  0  0  0  0  0  0  0  0
  127.1740  126.9530   61.3350 C   0  0  0  0  0  0  0  0  0  0  0  0
  126.7360  128.3710   61.2970 C   0  0  0  0  0  0  0  0  0  0  0  0
  127.3580  129.2760   60.4340 C   0  0  0  0  0  0  0  0  0  0  0  0
  126.9370  130.6020   60.3810 C   0  0  0  0  0  0  0  0  0  0  0  0
  125.8840  131.0450   61.1830 C   0  0  0  0  0  0  0  0  0  0  0  0
  125.5350  132.3760   61.0630 O   0  0  0  0  0  0  0  0  0  0  0  0
  124.5170  132.9050   61.9040 C   0  0  0  0  0  0  0  0  0  0  0  0
  125.2520  130.1350   62.0450 C   0  0  0  0  0  0  0  0  0  0  0  0
  125.6750  128.8080   62.0950 C   0  0  0  0  0  0  0  0  0  0  0  0
  127.8630  126.3720   62.4360 C   0  0  0  0  0  0  0  0  0  0  0  0
  128.3480  126.9050   63.6850 C   0  0  0  0  0  0  0  0  0  0  0  0
  128.2140  128.2280   64.0230 N   0  0  0  0  0  0  0  0  0  0  0  0
  128.7540  125.8180   69.2120 C   0  0  0  0  0  0  0  0  0  0  0  0
  129.0010  126.1840   70.5330 C   0  0  0  0  0  0  0  0  0  0  0  0
  1  2  1  0
  2  3  1  0
  3  4  1  0
  4  5  2  0
  4  6  1  0
  6  7  2  0
  7  8  1  0
  8  9  2  0
  9 10  1  0
 10 11  1  0
 11 12  2  0
 11 13  1  0
 13 14  1  0
 14 15  1  0
 15 16  2  0
 16 17  1  0
 17 18  1  0
 18 19  2  0
 19 20  1  0
 20 21  2  0
 21 22  1  0
 22 23  1  0
 21 24  1  0
 24 25  2  0
 17 26  2  0
 26 27  1  0
 27 28  1  0
 28 29  2  0
 29 30  1  0
 30 31  2  0
 31 32  1  0
 32 33  1  0
 31 34  1  0
 34 35  2  0
 27 36  2  0
 36 37  1  0
 37 38  1  0
  9 39  1  0
 39 40  2  0
 40  6  1  0
 37 13  2  0
 36 15  1  0
 25 18  1  0
 35 28  1  0
M  END
>  <Binding energies>  (36) 
[-8.19]

>  <Ligand effiencies>  (36) 
[-0.19046511627906976]

>  <Interactions>  (36) 
["V-A:GLU:543:CD:4908, H-A:GLU:543:OE1:4909, H-A:GLU:543:OE2:4910, V-B:ASP:366:CG:8184, V-B:PRO:540:CB:9857, V-B:GLU:543:CD:9880, V-B:PRO:540:N:9856, V-B:ILE:538:CG2:9835, V-B:LEU:363:CD1:8160, V-B:PRO:540:CD:9859, H-B:TYR:539:N:9842, V-B:PRO:540:CA:9855, V-B:MET:535:CE:9807, V-B:GLU:543:CG:9879, V-B:TYR:531:CE2:9765, H-B:GLU:543:OE2:9882, V-B:ILE:369:CG2:8208, V-B:LEU:475:CD1:9229, V-A:GLU:543:CB:4906, V-B:HIS:456:CE1:9041, V-B:ILE:369:CD1:8210, V-A:GLU:543:C:4902, V-B:GLU:543:CB:9878, V-A:HIS:456:CE1:4069, H-A:TYR:484:OH:4347, V-B:HIS:456:CD2:9039, V-B:TYR:539:C:9839, V-B:TYR:539:CA:9841, V-B:GLU:543:C:9874, V-B:ILE:538:CA:9832, V-B:ILE:538:CB:9834, V-B:ILE:538:C:9830, V-B:ILE:538:CG1:9836, V-B:MET:535:CG:9805, V-B:MET:535:CB:9804, V-B:HIS:456:CG:9037, H-A:HIS:456:ND1:4066"]

$$$$
8c_Ghoteimi_2023
     RDKit          3D

 34 38  0  0  0  0  0  0  0  0999 V2000
  124.8720  138.8800   59.5720 C   0  0  0  0  0  0  0  0  0  0  0  0
  125.6130  138.2320   60.6000 O   0  0  0  0  0  0  0  0  0  0  0  0
  125.6530  136.8510   60.6340 C   0  0  0  0  0  0  0  0  0  0  0  0
  126.6900  136.2760   61.3660 C   0  0  0  0  0  0  0  0  0  0  0  0
  126.8110  134.8920   61.4530 C   0  0  0  0  0  0  0  0  0  0  0  0
  125.8960  134.0460   60.8100 C   0  0  0  0  0  0  0  0  0  0  0  0
  126.0220  132.5580   60.8970 C   0  0  0  0  0  0  0  0  0  0  0  0
  125.9650  131.8840   62.1200 C   0  0  0  0  0  0  0  0  0  0  0  0
  126.0830  130.4910   62.1730 C   0  0  0  0  0  0  0  0  0  0  0  0
  126.0270  129.8080   63.4850 C   0  0  0  0  0  0  0  0  0  0  0  0
  127.1570  129.1630   63.9920 C   0  0  0  0  0  0  0  0  0  0  0  0
  127.1050  128.5300   65.2300 C   0  0  0  0  0  0  0  0  0  0  0  0
  125.9270  128.5280   65.9770 C   0  0  0  0  0  0  0  0  0  0  0  0
  125.9690  127.8770   67.1960 O   0  0  0  0  0  0  0  0  0  0  0  0
  127.1720  127.2330   67.5980 C   0  0  0  0  0  0  0  0  0  0  0  0
  124.7900  129.1730   65.4650 C   0  0  0  0  0  0  0  0  0  0  0  0
  124.8430  129.8070   64.2260 C   0  0  0  0  0  0  0  0  0  0  0  0
  126.2570  129.7880   60.9510 C   0  0  0  0  0  0  0  0  0  0  0  0
  126.4060  128.3900   60.6420 C   0  0  0  0  0  0  0  0  0  0  0  0
  126.3990  127.4180   61.6110 N   0  0  0  0  0  0  0  0  0  0  0  0
  126.5560  128.1230   59.2720 C   0  0  0  0  0  0  0  0  0  0  0  0
  126.7240  126.8290   58.6080 C   0  0  0  0  0  0  0  0  0  0  0  0
  127.7990  126.5230   58.0880 O   0  0  0  0  0  0  0  0  0  0  0  0
  125.6320  126.0260   58.6140 N   0  0  0  0  0  0  0  0  0  0  0  0
  125.5260  124.7580   58.0610 C   0  0  0  0  0  0  0  0  0  0  0  0
  126.1610  124.2770   57.0140 N   0  0  0  0  0  0  0  0  0  0  0  0
  125.8180  123.0280   56.7710 C   0  0  0  0  0  0  0  0  0  0  0  0
  124.8810  122.4670   57.6330 C   0  0  0  0  0  0  0  0  0  0  0  0
  124.4300  123.6510   58.8240 S   0  0  0  0  0  0  0  0  0  0  0  0
  126.5110  129.6110   58.3240 S   0  0  0  0  0  0  0  0  0  0  0  0
  126.2950  130.5770   59.7650 C   0  0  0  0  0  0  0  0  0  0  0  0
  126.1840  131.9050   59.7140 N   0  0  0  0  0  0  0  0  0  0  0  0
  124.8540  134.6330   60.0780 C   0  0  0  0  0  0  0  0  0  0  0  0
  124.7300  136.0160   59.9880 C   0  0  0  0  0  0  0  0  0  0  0  0
  1  2  1  0
  2  3  1  0
  3  4  2  0
  4  5  1  0
  5  6  2  0
  6  7  1  0
  7  8  2  0
  8  9  1  0
  9 10  1  0
 10 11  2  0
 11 12  1  0
 12 13  2  0
 13 14  1  0
 14 15  1  0
 13 16  1  0
 16 17  2  0
  9 18  2  0
 18 19  1  0
 19 20  1  0
 19 21  2  0
 21 22  1  0
 22 23  2  0
 22 24  1  0
 24 25  1  0
 25 26  2  0
 26 27  1  0
 27 28  2  0
 28 29  1  0
 21 30  1  0
 30 31  1  0
 31 32  2  0
  6 33  1  0
 33 34  2  0
 34  3  1  0
 32  7  1  0
 17 10  1  0
 31 18  1  0
 29 25  1  0
M  END
>  <Binding energies>  (37) 
[-8.57]

>  <Ligand effiencies>  (37) 
[-0.23162162162162164]

>  <Interactions>  (37) 
["V-A:TYR:539:CE1:4875, V-B:ASP:366:CG:8184, V-B:PRO:540:CB:9857, H-B:TYR:531:OH:9767, V-B:GLU:543:CD:9880, V-B:ASP:366:CB:8183, V-B:PRO:540:N:9856, V-A:TYR:539:CD1:4873, H-B:ASP:366:OD2:8186, V-B:PRO:540:CG:9858, V-B:LEU:363:CD1:8160, V-B:PRO:540:CD:9859, V-B:PRO:540:CA:9855, H-B:ASP:366:OD1:8185, V-B:MET:535:CE:9807, V-B:TYR:531:CE2:9765, H-B:GLU:543:OE2:9882, V-B:TYR:531:CZ:9766, V-B:ILE:369:CG2:8208, V-B:LEU:475:CD1:9229, V-A:ALA:541:CB:4892, H-B:SER:385:OG:8381, V-B:ARG:545:CD:9895, V-B:ARG:545:CZ:9898, V-B:HIS:456:CE1:9041, V-B:GLU:543:CB:9878, H-B:ARG:545:NE:9896, V-B:LEU:363:CA:8156, V-B:LEU:363:CB:8158, V-B:SER:385:CB:8380, V-B:LEU:373:CD1:8251, V-B:PRO:482:CG:9298, V-B:LEU:373:CD2:8252, V-B:PRO:482:CB:9297, V-B:LEU:363:CG:8159"]

$$$$
8d_Ghoteimi_2023
     RDKit          3D

 30 33  0  0  0  0  0  0  0  0999 V2000
  132.2030  131.5240   61.3380 C   0  0  0  0  0  0  0  0  0  0  0  0
  130.7890  131.4210   61.4310 O   0  0  0  0  0  0  0  0  0  0  0  0
  130.0340  131.1910   60.3260 C   0  0  0  0  0  0  0  0  0  0  0  0
  129.6060  132.0790   59.5840 O   0  0  0  0  0  0  0  0  0  0  0  0
  129.7720  129.7530   60.0970 C   0  0  0  0  0  0  0  0  0  0  0  0
  128.6080  129.2550   58.8670 S   0  0  0  0  0  0  0  0  0  0  0  0
  128.8870  127.5680   59.2310 C   0  0  0  0  0  0  0  0  0  0  0  0
  128.2480  126.5930   58.5830 N   0  0  0  0  0  0  0  0  0  0  0  0
  128.5410  125.3150   58.9430 C   0  0  0  0  0  0  0  0  0  0  0  0
  127.8060  124.2410   58.2040 C   0  0  0  0  0  0  0  0  0  0  0  0
  126.4630  124.4020   57.8380 C   0  0  0  0  0  0  0  0  0  0  0  0
  125.7840  123.4000   57.1510 C   0  0  0  0  0  0  0  0  0  0  0  0
  126.4290  122.2110   56.8120 C   0  0  0  0  0  0  0  0  0  0  0  0
  125.6780  121.2740   56.1310 O   0  0  0  0  0  0  0  0  0  0  0  0
  124.9040  121.6860   55.0080 C   0  0  0  0  0  0  0  0  0  0  0  0
  127.7730  122.0400   57.1710 C   0  0  0  0  0  0  0  0  0  0  0  0
  128.4490  123.0460   57.8580 C   0  0  0  0  0  0  0  0  0  0  0  0
  129.4620  125.0160   59.9510 C   0  0  0  0  0  0  0  0  0  0  0  0
  130.1350  126.0380   60.6280 C   0  0  0  0  0  0  0  0  0  0  0  0
  131.1120  125.6880   61.6850 C   0  0  0  0  0  0  0  0  0  0  0  0
  130.8430  125.9970   63.0200 C   0  0  0  0  0  0  0  0  0  0  0  0
  131.7650  125.6770   64.0120 C   0  0  0  0  0  0  0  0  0  0  0  0
  132.9650  125.0420   63.6870 C   0  0  0  0  0  0  0  0  0  0  0  0
  133.8190  124.7640   64.7360 O   0  0  0  0  0  0  0  0  0  0  0  0
  133.6190  125.4140   65.9860 C   0  0  0  0  0  0  0  0  0  0  0  0
  133.2310  124.7290   62.3440 C   0  0  0  0  0  0  0  0  0  0  0  0
  132.3080  125.0510   61.3530 C   0  0  0  0  0  0  0  0  0  0  0  0
  129.8470  127.3800   60.2660 C   0  0  0  0  0  0  0  0  0  0  0  0
  130.3350  128.6450   60.7420 C   0  0  0  0  0  0  0  0  0  0  0  0
  131.2660  128.7490   61.7440 N   0  0  0  0  0  0  0  0  0  0  0  0
  1  2  1  0
  2  3  1  0
  3  4  2  0
  3  5  1  0
  5  6  1  0
  6  7  1  0
  7  8  2  0
  8  9  1  0
  9 10  1  0
 10 11  2  0
 11 12  1  0
 12 13  2  0
 13 14  1  0
 14 15  1  0
 13 16  1  0
 16 17  2  0
  9 18  2  0
 18 19  1  0
 19 20  1  0
 20 21  2  0
 21 22  1  0
 22 23  2  0
 23 24  1  0
 24 25  1  0
 23 26  1  0
 26 27  2  0
 19 28  2  0
 28 29  1  0
 29 30  1  0
 29  5  2  0
 28  7  1  0
 17 10  1  0
 27 20  1  0
M  END
>  <Binding energies>  (38) 
[-7.73]

>  <Ligand effiencies>  (38) 
[-0.2415625]

>  <Interactions>  (38) 
["V-A:GLU:543:CD:4908, H-A:ASP:366:OD2:3214, H-A:GLU:543:OE1:4909, H-A:ALA:541:N:4891, V-A:PRO:540:C:4881, H-A:ASP:366:OD1:3213, V-A:PRO:540:CB:4885, V-A:PRO:540:CA:4883, V-A:ASP:366:CG:3212, H-A:GLU:543:OE2:4910, V-B:PRO:540:CB:9857, V-B:TYR:539:CZ:9849, V-B:TYR:539:CE1:9847, V-B:PRO:540:N:9856, V-B:TYR:539:CD2:9846, V-B:ILE:538:CG2:9835, V-B:LEU:363:CD1:8160, V-B:PRO:540:CD:9859, V-B:TYR:539:CE2:9848, H-B:TYR:539:N:9842, V-B:PRO:540:CA:9855, V-B:MET:535:CE:9807, V-B:TYR:531:CE2:9765, H-A:GLY:454:N:4049, V-A:ARG:545:CZ:4926, H-A:TYR:484:OH:4347, V-A:ARG:545:CG:4922, V-A:ARG:545:CD:4923, V-B:TYR:539:C:9839, V-B:TYR:539:CA:9841, V-B:TYR:539:CG:9844, V-B:TYR:539:CD1:9845, V-B:ILE:538:CA:9832, V-B:ILE:538:CB:9834, V-B:ILE:538:CG1:9836, V-B:MET:535:CG:9805"]

$$$$
9a_Ghoteimi_2023
     RDKit          3D

 48 54  0  0  0  0  0  0  0  0999 V2000
  125.2950  139.4640   60.2840 C   0  0  0  0  0  0  0  0  0  0  0  0
  126.0400  138.4300   59.4330 C   0  0  0  0  0  0  0  0  0  0  0  0
  126.1460  137.2090   60.1560 O   0  0  0  0  0  0  0  0  0  0  0  0
  125.0910  136.3600   60.2570 C   0  0  0  0  0  0  0  0  0  0  0  0
  123.9460  136.6530   59.8990 O   0  0  0  0  0  0  0  0  0  0  0  0
  125.4540  135.0310   60.8530 C   0  0  0  0  0  0  0  0  0  0  0  0
  126.8010  134.7360   61.1010 C   0  0  0  0  0  0  0  0  0  0  0  0
  127.1690  133.5110   61.6510 C   0  0  0  0  0  0  0  0  0  0  0  0
  126.2010  132.5580   61.9680 C   0  0  0  0  0  0  0  0  0  0  0  0
  126.6880  131.3570   62.5190 N   0  0  0  0  0  0  0  0  0  0  0  0
  126.5210  130.8270   63.7560 C   0  0  0  0  0  0  0  0  0  0  0  0
  125.8650  131.3560   64.6530 O   0  0  0  0  0  0  0  0  0  0  0  0
  127.1810  129.5360   63.9770 C   0  0  0  0  0  0  0  0  0  0  0  0
  127.4830  128.4460   62.6230 S   0  0  0  0  0  0  0  0  0  0  0  0
  128.2390  127.2740   63.6770 C   0  0  0  0  0  0  0  0  0  0  0  0
  128.7420  126.1340   63.2060 N   0  0  0  0  0  0  0  0  0  0  0  0
  129.3200  125.2960   64.1080 C   0  0  0  0  0  0  0  0  0  0  0  0
  129.8870  124.0280   63.5560 C   0  0  0  0  0  0  0  0  0  0  0  0
  131.1680  123.6020   63.9260 C   0  0  0  0  0  0  0  0  0  0  0  0
  131.7030  122.4220   63.4170 C   0  0  0  0  0  0  0  0  0  0  0  0
  130.9730  121.6160   62.5300 C   0  0  0  0  0  0  0  0  0  0  0  0
  131.5050  120.4380   61.9960 N   0  0  0  0  0  0  0  0  0  0  0  0
  130.6360  119.3760   61.4500 C   0  0  0  0  0  0  0  0  0  0  0  0
  131.3540  118.0260   61.2460 C   0  0  0  0  0  0  0  0  0  0  0  0
  132.5070  118.2050   60.4400 O   0  0  0  0  0  0  0  0  0  0  0  0
  133.4270  119.1030   61.0410 C   0  0  0  0  0  0  0  0  0  0  0  0
  132.7680  120.4840   61.2310 C   0  0  0  0  0  0  0  0  0  0  0  0
  129.6960  122.0560   62.1510 C   0  0  0  0  0  0  0  0  0  0  0  0
  129.1620  123.2370   62.6580 C   0  0  0  0  0  0  0  0  0  0  0  0
  129.3670  125.5870   65.4730 C   0  0  0  0  0  0  0  0  0  0  0  0
  128.8220  126.7750   65.9740 C   0  0  0  0  0  0  0  0  0  0  0  0
  128.8670  127.0180   67.4380 C   0  0  0  0  0  0  0  0  0  0  0  0
  128.1910  126.1720   68.3210 C   0  0  0  0  0  0  0  0  0  0  0  0
  128.2450  126.3930   69.6940 C   0  0  0  0  0  0  0  0  0  0  0  0
  128.9930  127.4580   70.2230 C   0  0  0  0  0  0  0  0  0  0  0  0
  129.0530  127.7060   71.5970 N   0  0  0  0  0  0  0  0  0  0  0  0
  129.1230  129.1030   72.0730 C   0  0  0  0  0  0  0  0  0  0  0  0
  128.8030  129.2520   73.5750 C   0  0  0  0  0  0  0  0  0  0  0  0
  129.6550  128.4130   74.3390 O   0  0  0  0  0  0  0  0  0  0  0  0
  129.4950  127.0470   73.9930 C   0  0  0  0  0  0  0  0  0  0  0  0
  129.8330  126.8380   72.5010 C   0  0  0  0  0  0  0  0  0  0  0  0
  129.6690  128.2990   69.3280 C   0  0  0  0  0  0  0  0  0  0  0  0
  129.6110  128.0800   67.9550 C   0  0  0  0  0  0  0  0  0  0  0  0
  128.2440  127.6840   65.0430 C   0  0  0  0  0  0  0  0  0  0  0  0
  127.6540  128.9920   65.1820 C   0  0  0  0  0  0  0  0  0  0  0  0
  127.5800  129.6440   66.3860 N   0  0  0  0  0  0  0  0  0  0  0  0
  124.8480  132.8460   61.7270 C   0  0  0  0  0  0  0  0  0  0  0  0
  124.4820  134.0710   61.1750 C   0  0  0  0  0  0  0  0  0  0  0  0
  1  2  1  0
  2  3  1  0
  3  4  1  0
  4  5  2  0
  4  6  1  0
  6  7  2  0
  7  8  1  0
  8  9  2  0
  9 10  1  0
 10 11  1  0
 11 12  2  0
 11 13  1  0
 13 14  1  0
 14 15  1  0
 15 16  2  0
 16 17  1  0
 17 18  1  0
 18 19  2  0
 19 20  1  0
 20 21  2  0
 21 22  1  0
 22 23  1  0
 23 24  1  0
 24 25  1  0
 25 26  1  0
 26 27  1  0
 21 28  1  0
 28 29  2  0
 17 30  2  0
 30 31  1  0
 31 32  1  0
 32 33  2  0
 33 34  1  0
 34 35  2  0
 35 36  1  0
 36 37  1  0
 37 38  1  0
 38 39  1  0
 39 40  1  0
 40 41  1  0
 35 42  1  0
 42 43  2  0
 31 44  2  0
 44 45  1  0
 45 46  1  0
  9 47  1  0
 47 48  2  0
 48  6  1  0
 45 13  2  0
 44 15  1  0
 29 18  1  0
 43 32  1  0
 27 22  1  0
 41 36  1  0
M  END
>  <Binding energies>  (39) 
[-10.71]

>  <Ligand effiencies>  (39) 
[-0.21000000000000002]

>  <Interactions>  (39) 
["V-A:GLU:543:CD:4908, H-A:GLU:543:OE1:4909, V-B:ALA:541:CB:9864, V-B:GLU:543:CD:9880, V-A:TYR:539:CD1:4873, V-B:GLU:543:CG:9879, V-A:GLU:543:CG:4907, V-B:ILE:369:CG2:8208, V-B:LEU:475:CD1:9229, V-A:ALA:541:CB:4892, V-A:GLU:543:CB:4906, H-B:SER:385:OG:8381, V-B:HIS:456:CE1:9041, V-B:TYR:484:CE2:9317, V-B:ILE:369:CD1:8210, V-A:GLU:543:C:4902, V-B:GLU:543:CB:9878, H-B:TYR:484:OH:9319, V-A:LEU:475:CD1:4257, V-A:HIS:456:CE1:4069, V-B:HIS:456:CD2:9039, V-A:SER:385:C:3404, V-A:ILE:369:CG2:3236, V-A:SER:385:CA:3406, V-B:HIS:383:CE1:8365, V-A:TYR:539:CB:4871, V-A:VAL:344:CG1:3000, V-B:SER:385:CB:8380, V-B:LEU:373:CD1:8251, V-B:PRO:482:CG:9298, V-B:HIS:383:CD2:8363, V-A:PRO:482:CG:4326, H-A:HIS:383:NE2:3393, H-A:SER:385:OG:3409, V-A:PRO:482:CB:4325, V-B:GLU:543:C:9874, H-A:LYS:547:NZ:4951, V-A:SER:385:CB:3408"]

$$$$
9b_Ghoteimi_2023
     RDKit          3D

 42 48  0  0  0  0  0  0  0  0999 V2000
  127.0580  126.6530   62.6880 N   0  0  0  0  0  0  0  0  0  0  0  0
  126.6700  127.4650   61.6530 C   0  0  0  0  0  0  0  0  0  0  0  0
  126.3640  126.9880   60.3690 C   0  0  0  0  0  0  0  0  0  0  0  0
  126.3650  125.6050   59.8830 C   0  0  0  0  0  0  0  0  0  0  0  0
  126.3640  124.6610   60.6750 O   0  0  0  0  0  0  0  0  0  0  0  0
  126.3740  125.4610   58.5340 N   0  0  0  0  0  0  0  0  0  0  0  0
  126.3890  124.2770   57.8090 C   0  0  0  0  0  0  0  0  0  0  0  0
  127.2740  123.2330   58.0740 C   0  0  0  0  0  0  0  0  0  0  0  0
  126.9660  122.2600   57.1510 C   0  0  0  0  0  0  0  0  0  0  0  0
  125.9470  122.6960   56.3720 O   0  0  0  0  0  0  0  0  0  0  0  0
  125.5910  123.9750   56.7980 N   0  0  0  0  0  0  0  0  0  0  0  0
  125.9360  128.3100   59.2830 S   0  0  0  0  0  0  0  0  0  0  0  0
  126.1870  129.4900   60.5470 C   0  0  0  0  0  0  0  0  0  0  0  0
  126.0340  130.7940   60.3250 N   0  0  0  0  0  0  0  0  0  0  0  0
  126.2700  131.6290   61.3700 C   0  0  0  0  0  0  0  0  0  0  0  0
  126.1120  133.0890   61.0880 C   0  0  0  0  0  0  0  0  0  0  0  0
  127.1520  133.9910   61.3410 C   0  0  0  0  0  0  0  0  0  0  0  0
  126.9950  135.3510   61.0900 C   0  0  0  0  0  0  0  0  0  0  0  0
  125.7860  135.8600   60.5910 C   0  0  0  0  0  0  0  0  0  0  0  0
  125.6130  137.2250   60.3310 N   0  0  0  0  0  0  0  0  0  0  0  0
  124.3410  137.7510   59.7980 C   0  0  0  0  0  0  0  0  0  0  0  0
  124.2090  139.2850   59.9000 C   0  0  0  0  0  0  0  0  0  0  0  0
  125.3180  139.9100   59.2760 O   0  0  0  0  0  0  0  0  0  0  0  0
  126.5400  139.5400   59.8940 C   0  0  0  0  0  0  0  0  0  0  0  0
  126.7440  138.0130   59.7960 C   0  0  0  0  0  0  0  0  0  0  0  0
  124.7550  134.9490   60.3210 C   0  0  0  0  0  0  0  0  0  0  0  0
  124.9140  133.5880   60.5670 C   0  0  0  0  0  0  0  0  0  0  0  0
  126.6300  131.1590   62.6350 C   0  0  0  0  0  0  0  0  0  0  0  0
  126.7710  129.7880   62.8790 C   0  0  0  0  0  0  0  0  0  0  0  0
  127.1260  129.3370   64.2490 C   0  0  0  0  0  0  0  0  0  0  0  0
  126.5920  129.9850   65.3640 C   0  0  0  0  0  0  0  0  0  0  0  0
  126.9070  129.5530   66.6480 C   0  0  0  0  0  0  0  0  0  0  0  0
  127.7650  128.4610   66.8530 C   0  0  0  0  0  0  0  0  0  0  0  0
  128.0820  128.0010   68.1340 N   0  0  0  0  0  0  0  0  0  0  0  0
  128.1730  126.5480   68.3780 C   0  0  0  0  0  0  0  0  0  0  0  0
  128.1290  126.1790   69.8760 C   0  0  0  0  0  0  0  0  0  0  0  0
  129.1520  126.8700   70.5760 O   0  0  0  0  0  0  0  0  0  0  0  0
  129.0060  128.2780   70.4650 C   0  0  0  0  0  0  0  0  0  0  0  0
  129.0670  128.7010   68.9820 C   0  0  0  0  0  0  0  0  0  0  0  0
  128.2810  127.8070   65.7250 C   0  0  0  0  0  0  0  0  0  0  0  0
  127.9650  128.2390   64.4390 C   0  0  0  0  0  0  0  0  0  0  0  0
  126.5630  128.8960   61.7890 C   0  0  0  0  0  0  0  0  0  0  0  0
  1  2  1  0
  2  3  2  0
  3  4  1  0
  4  5  2  0
  4  6  1  0
  6  7  1  0
  7  8  1  0
  8  9  2  0
  9 10  1  0
 10 11  1  0
  3 12  1  0
 12 13  1  0
 13 14  2  0
 14 15  1  0
 15 16  1  0
 16 17  2  0
 17 18  1  0
 18 19  2  0
 19 20  1  0
 20 21  1  0
 21 22  1  0
 22 23  1  0
 23 24  1  0
 24 25  1  0
 19 26  1  0
 26 27  2  0
 15 28  2  0
 28 29  1  0
 29 30  1  0
 30 31  2  0
 31 32  1  0
 32 33  2  0
 33 34  1  0
 34 35  1  0
 35 36  1  0
 36 37  1  0
 37 38  1  0
 38 39  1  0
 33 40  1  0
 40 41  2  0
 29 42  2  0
 42  2  1  0
 11  7  2  0
 42 13  1  0
 27 16  1  0
 41 30  1  0
 25 20  1  0
 39 34  1  0
M  END
>  <Binding energies>  (40) 
[-10.3]

>  <Ligand effiencies>  (40) 
[-0.2288888888888889]

>  <Interactions>  (40) 
["V-A:GLU:543:CD:4908, V-A:TYR:539:CE1:4875, V-B:ASP:366:CG:8184, H-B:TYR:531:OH:9767, V-B:GLU:543:CD:9880, V-B:ASP:366:CB:8183, V-B:PRO:540:N:9856, V-A:TYR:539:CD1:4873, V-B:PRO:540:CD:9859, V-B:PRO:540:CA:9855, V-B:MET:535:CE:9807, H-B:GLU:543:OE2:9882, H-B:GLU:543:OE1:9881, V-B:ILE:369:CG2:8208, V-A:ALA:541:CB:4892, V-A:GLU:543:CB:4906, V-B:HIS:456:CE1:9041, V-B:TYR:484:CE2:9317, V-B:TYR:484:CZ:9318, V-A:GLU:543:C:4902, V-B:GLU:543:CB:9878, V-A:HIS:456:CE1:4069, V-B:HIS:456:CD2:9039, V-B:TYR:539:C:9839, V-B:HIS:383:CE1:8365, V-A:TYR:539:CB:4871, V-A:VAL:344:CG1:3000, V-B:SER:385:CB:8380, V-B:LEU:373:CD1:8251, V-A:ILE:343:CG2:2991, V-B:PRO:482:CG:9298, V-B:HIS:383:CD2:8363, V-B:SER:385:CA:8378, V-B:LEU:373:CD2:8252, V-B:PRO:482:CB:9297, V-B:GLU:543:C:9874, V-B:VAL:384:C:8368, H-B:HIS:383:ND1:8362"]

$$$$
9c_Ghoteimi_2023
     RDKit          3D

 42 48  0  0  0  0  0  0  0  0999 V2000
  127.0390  126.5910   62.6360 N   0  0  0  0  0  0  0  0  0  0  0  0
  126.6600  127.4200   61.6110 C   0  0  0  0  0  0  0  0  0  0  0  0
  126.3660  126.9640   60.3160 C   0  0  0  0  0  0  0  0  0  0  0  0
  126.3770  125.5900   59.8070 C   0  0  0  0  0  0  0  0  0  0  0  0
  126.5260  124.6350   60.5720 O   0  0  0  0  0  0  0  0  0  0  0  0
  126.2220  125.4650   58.4660 N   0  0  0  0  0  0  0  0  0  0  0  0
  126.2100  124.2860   57.7340 C   0  0  0  0  0  0  0  0  0  0  0  0
  125.3580  123.9230   56.7990 N   0  0  0  0  0  0  0  0  0  0  0  0
  125.6470  122.7300   56.3170 C   0  0  0  0  0  0  0  0  0  0  0  0
  126.7590  122.0970   56.8650 C   0  0  0  0  0  0  0  0  0  0  0  0
  127.4570  123.1290   58.0770 S   0  0  0  0  0  0  0  0  0  0  0  0
  125.9450  128.3030   59.2490 S   0  0  0  0  0  0  0  0  0  0  0  0
  126.1820  129.4620   60.5340 C   0  0  0  0  0  0  0  0  0  0  0  0
  126.0280  130.7700   60.3330 N   0  0  0  0  0  0  0  0  0  0  0  0
  126.2530  131.5880   61.3940 C   0  0  0  0  0  0  0  0  0  0  0  0
  126.0930  133.0510   61.1340 C   0  0  0  0  0  0  0  0  0  0  0  0
  124.9300  133.5600   60.5460 C   0  0  0  0  0  0  0  0  0  0  0  0
  124.7900  134.9220   60.2970 C   0  0  0  0  0  0  0  0  0  0  0  0
  125.8160  135.8260   60.6180 C   0  0  0  0  0  0  0  0  0  0  0  0
  125.6880  137.1990   60.3810 N   0  0  0  0  0  0  0  0  0  0  0  0
  124.4290  137.7770   59.8690 C   0  0  0  0  0  0  0  0  0  0  0  0
  124.3480  139.3130   60.0010 C   0  0  0  0  0  0  0  0  0  0  0  0
  125.4720  139.9110   59.3750 O   0  0  0  0  0  0  0  0  0  0  0  0
  126.6860  139.4900   59.9750 C   0  0  0  0  0  0  0  0  0  0  0  0
  126.8380  137.9590   59.8480 C   0  0  0  0  0  0  0  0  0  0  0  0
  126.9710  135.3130   61.2250 C   0  0  0  0  0  0  0  0  0  0  0  0
  127.1080  133.9510   61.4760 C   0  0  0  0  0  0  0  0  0  0  0  0
  126.6020  131.0970   62.6540 C   0  0  0  0  0  0  0  0  0  0  0  0
  126.7430  129.7230   62.8760 C   0  0  0  0  0  0  0  0  0  0  0  0
  127.0850  129.2490   64.2400 C   0  0  0  0  0  0  0  0  0  0  0  0
  127.9370  128.1580   64.4140 C   0  0  0  0  0  0  0  0  0  0  0  0
  128.2730  127.7210   65.6930 C   0  0  0  0  0  0  0  0  0  0  0  0
  127.7650  128.3640   66.8320 C   0  0  0  0  0  0  0  0  0  0  0  0
  128.0980  127.9490   68.1250 N   0  0  0  0  0  0  0  0  0  0  0  0
  128.2430  126.5070   68.4040 C   0  0  0  0  0  0  0  0  0  0  0  0
  128.2200  126.1730   69.9110 C   0  0  0  0  0  0  0  0  0  0  0  0
  129.2200  126.9190   70.5890 O   0  0  0  0  0  0  0  0  0  0  0  0
  129.0190  128.3160   70.4460 C   0  0  0  0  0  0  0  0  0  0  0  0
  129.0570  128.7060   68.9520 C   0  0  0  0  0  0  0  0  0  0  0  0
  126.9260  129.4730   66.6450 C   0  0  0  0  0  0  0  0  0  0  0  0
  126.5900  129.9090   65.3660 C   0  0  0  0  0  0  0  0  0  0  0  0
  126.5470  128.8480   61.7690 C   0  0  0  0  0  0  0  0  0  0  0  0
  1  2  1  0
  2  3  2  0
  3  4  1  0
  4  5  2  0
  4  6  1  0
  6  7  1  0
  7  8  2  0
  8  9  1  0
  9 10  2  0
 10 11  1  0
  3 12  1  0
 12 13  1  0
 13 14  2  0
 14 15  1  0
 15 16  1  0
 16 17  2  0
 17 18  1  0
 18 19  2  0
 19 20  1  0
 20 21  1  0
 21 22  1  0
 22 23  1  0
 23 24  1  0
 24 25  1  0
 19 26  1  0
 26 27  2  0
 15 28  2  0
 28 29  1  0
 29 30  1  0
 30 31  2  0
 31 32  1  0
 32 33  2  0
 33 34  1  0
 34 35  1  0
 35 36  1  0
 36 37  1  0
 37 38  1  0
 38 39  1  0
 33 40  1  0
 40 41  2  0
 29 42  2  0
 42  2  1  0
 11  7  1  0
 42 13  1  0
 27 16  1  0
 41 30  1  0
 25 20  1  0
 39 34  1  0
M  END
>  <Binding energies>  (41) 
[-10.53]

>  <Ligand effiencies>  (41) 
[-0.23399999999999999]

>  <Interactions>  (41) 
["V-A:GLU:543:CD:4908, V-A:TYR:539:CE1:4875, V-B:ASP:366:CG:8184, H-B:TYR:531:OH:9767, V-B:GLU:543:CD:9880, V-B:ASP:366:CB:8183, V-B:PRO:540:N:9856, V-A:TYR:539:CD1:4873, V-B:LEU:363:CD1:8160, V-B:PRO:540:CD:9859, V-B:PRO:540:CA:9855, V-B:MET:535:CE:9807, V-B:TYR:531:CE2:9765, H-B:GLU:543:OE2:9882, H-B:GLU:543:OE1:9881, V-B:ILE:369:CG2:8208, V-A:ALA:541:CB:4892, V-A:GLU:543:CB:4906, V-B:HIS:456:CE1:9041, V-B:TYR:484:CE2:9317, V-B:TYR:484:CZ:9318, V-A:GLU:543:C:4902, V-B:GLU:543:CB:9878, V-A:HIS:456:CE1:4069, V-B:HIS:456:CD2:9039, V-B:TYR:539:C:9839, V-B:HIS:383:CE1:8365, V-A:TYR:539:CB:4871, V-A:VAL:344:CG1:3000, V-B:SER:385:CB:8380, V-B:LEU:373:CD1:8251, V-A:ILE:343:CG2:2991, V-B:PRO:482:CG:9298, V-B:HIS:383:CD2:8363, V-B:SER:385:CA:8378, V-B:PRO:482:CB:9297, V-B:GLU:543:C:9874, V-B:VAL:384:C:8368, H-B:HIS:383:ND1:8362"]

$$$$
RR11_Rahimova_2017
     RDKit          3D

 33 38  0  0  0  0  0  0  0  0999 V2000
  133.6950  123.5900   57.6580 N   0  0  0  0  0  0  0  0  0  0  0  0
  133.2120  123.9840   58.9040 C   0  0  0  0  0  0  0  0  0  0  0  0
  134.0060  123.8260   60.0380 C   0  0  0  0  0  0  0  0  0  0  0  0
  133.5230  124.2230   61.2820 C   0  0  0  0  0  0  0  0  0  0  0  0
  132.2430  124.7800   61.4040 C   0  0  0  0  0  0  0  0  0  0  0  0
  131.7270  125.2120   62.7440 C   0  0  0  0  0  0  0  0  0  0  0  0
  130.4620  125.4620   63.0080 N   0  0  0  0  0  0  0  0  0  0  0  0
  130.4310  125.8080   64.3340 C   0  0  0  0  0  0  0  0  0  0  0  0
  129.3340  126.1630   65.1310 C   0  0  0  0  0  0  0  0  0  0  0  0
  129.5590  126.4600   66.4800 C   0  0  0  0  0  0  0  0  0  0  0  0
  128.3880  126.8540   67.3690 C   0  0  0  0  0  0  0  0  0  0  0  0
  127.4290  127.8240   66.6920 C   0  0  0  0  0  0  0  0  0  0  0  0
  126.0640  127.7690   66.9980 C   0  0  0  0  0  0  0  0  0  0  0  0
  125.1470  128.6430   66.4100 C   0  0  0  0  0  0  0  0  0  0  0  0
  125.6300  129.5920   65.5000 C   0  0  0  0  0  0  0  0  0  0  0  0
  124.9430  130.5440   64.7920 N   0  0  0  0  0  0  0  0  0  0  0  0
  125.8540  131.1720   64.0800 C   0  0  0  0  0  0  0  0  0  0  0  0
  125.5610  132.2970   63.1290 C   0  0  0  0  0  0  0  0  0  0  0  0
  126.6060  132.9910   62.5060 C   0  0  0  0  0  0  0  0  0  0  0  0
  126.3360  134.0410   61.6320 C   0  0  0  0  0  0  0  0  0  0  0  0
  125.0160  134.4040   61.3750 C   0  0  0  0  0  0  0  0  0  0  0  0
  124.7440  135.4580   60.5030 N   0  0  0  0  0  0  0  0  0  0  0  0
  123.9670  133.7200   61.9830 C   0  0  0  0  0  0  0  0  0  0  0  0
  124.2380  132.6710   62.8570 C   0  0  0  0  0  0  0  0  0  0  0  0
  127.1190  130.6690   64.3010 N   0  0  0  0  0  0  0  0  0  0  0  0
  127.0140  129.6440   65.2100 C   0  0  0  0  0  0  0  0  0  0  0  0
  127.9380  128.7760   65.7990 C   0  0  0  0  0  0  0  0  0  0  0  0
  130.8540  126.4270   67.0110 C   0  0  0  0  0  0  0  0  0  0  0  0
  131.9680  126.0830   66.2410 C   0  0  0  0  0  0  0  0  0  0  0  0
  131.7270  125.7730   64.9010 C   0  0  0  0  0  0  0  0  0  0  0  0
  132.5300  125.3900   63.8520 N   0  0  0  0  0  0  0  0  0  0  0  0
  131.4550  124.9320   60.2550 C   0  0  0  0  0  0  0  0  0  0  0  0
  131.9360  124.5370   59.0100 C   0  0  0  0  0  0  0  0  0  0  0  0
  1  2  1  0
  2  3  2  0
  3  4  1  0
  4  5  2  0
  5  6  1  0
  6  7  2  0
  7  8  1  0
  8  9  2  0
  9 10  1  0
 10 11  1  0
 11 12  1  0
 12 13  2  0
 13 14  1  0
 14 15  2  0
 15 16  1  0
 16 17  2  0
 17 18  1  0
 18 19  2  0
 19 20  1  0
 20 21  2  0
 21 22  1  0
 21 23  1  0
 23 24  2  0
 17 25  1  0
 25 26  1  0
 26 27  2  0
 10 28  2  0
 28 29  1  0
 29 30  2  0
 30 31  1  0
  5 32  1  0
 32 33  2  0
 33  2  1  0
 31  6  1  0
 30  8  1  0
 27 12  1  0
 26 15  1  0
 24 18  1  0
M  END
>  <Binding energies>  (42) 
[-8.89]

>  <Ligand effiencies>  (42) 
[-0.22794871794871796]

>  <Interactions>  (42) 
["V-A:GLU:543:CD:4908, V-A:ASP:366:CB:3211, H-A:ASP:366:OD1:3213, V-A:ASP:366:CG:3212, H-B:TYR:539:OH:9850, V-A:ASP:366:C:3207, V-B:TYR:539:CZ:9849, V-B:GLU:543:CD:9880, V-A:TYR:539:CD1:4873, V-B:TYR:539:CE2:9848, V-B:GLU:543:CG:9879, V-A:GLU:543:CG:4907, V-B:ILE:369:CG2:8208, V-B:LEU:475:CD1:9229, V-A:ALA:541:CB:4892, V-B:GLY:454:CA:9020, H-B:SER:385:OG:8381, V-B:ARG:545:CD:9895, V-B:ARG:545:CG:9894, V-B:ARG:545:CZ:9898, V-B:HIS:456:CE1:9041, H-B:GLY:454:N:9021, V-B:ILE:369:CD1:8210, V-B:GLU:543:CB:9878, H-B:TYR:484:OH:9319, V-A:HIS:456:CE1:4069, V-A:ARG:545:CZ:4926, V-A:ILE:369:CD1:3238, V-A:ILE:369:CG2:3236, V-B:SER:385:CB:8380, V-B:LEU:373:CD1:8251, V-A:ASP:366:CA:3209, V-A:ILE:369:CB:3235, H-A:ASP:366:O:3208"]

$$$$
RR16_Rahimova_2017
     RDKit          3D

 44 49  0  0  0  0  0  0  0  0999 V2000
  133.4550  122.0780   63.8920 O   0  0  0  0  0  0  0  0  0  0  0  0
  133.7170  123.0590   62.8340 S   0  0  0  0  0  0  0  0  0  0  0  0
  134.9690  123.0270   62.0700 O   0  0  0  0  0  0  0  0  0  0  0  0
  133.5490  124.6660   63.5450 N   0  0  0  0  0  0  0  0  0  0  0  0
  132.4990  124.9470   64.5510 C   0  0  0  0  0  0  0  0  0  0  0  0
  133.0650  125.9160   65.6220 C   0  0  0  0  0  0  0  0  0  0  0  0
  132.4800  125.8180   67.0440 C   0  0  0  0  0  0  0  0  0  0  0  0
  130.9560  126.0200   67.1080 C   0  0  0  0  0  0  0  0  0  0  0  0
  130.1220  125.1310   66.1700 C   0  0  0  0  0  0  0  0  0  0  0  0
  129.9820  125.5860   64.7040 C   0  0  0  0  0  0  0  0  0  0  0  0
  131.2300  125.4330   63.8120 C   0  0  0  0  0  0  0  0  0  0  0  0
  132.3610  122.9430   61.6730 C   0  0  0  0  0  0  0  0  0  0  0  0
  132.4390  123.5770   60.4310 C   0  0  0  0  0  0  0  0  0  0  0  0
  131.3310  123.5810   59.5880 C   0  0  0  0  0  0  0  0  0  0  0  0
  130.1510  122.9520   59.9900 C   0  0  0  0  0  0  0  0  0  0  0  0
  128.6830  123.0770   58.9710 S   0  0  0  0  0  0  0  0  0  0  0  0
  127.5220  123.0660   59.8710 O   0  0  0  0  0  0  0  0  0  0  0  0
  128.8020  122.0750   57.9040 O   0  0  0  0  0  0  0  0  0  0  0  0
  128.8010  124.6860   58.2340 N   0  0  0  0  0  0  0  0  0  0  0  0
  129.6100  124.7350   56.9890 C   0  0  0  0  0  0  0  0  0  0  0  0
  129.9150  126.1960   56.6000 C   0  0  0  0  0  0  0  0  0  0  0  0
  128.6260  127.0500   56.5180 C   0  0  0  0  0  0  0  0  0  0  0  0
  128.9120  128.5150   56.1790 C   0  0  0  0  0  0  0  0  0  0  0  0
  127.9310  129.2860   55.5380 C   0  0  0  0  0  0  0  0  0  0  0  0
  128.1460  130.6270   55.2180 C   0  0  0  0  0  0  0  0  0  0  0  0
  127.1730  131.3650   54.5940 O   0  0  0  0  0  0  0  0  0  0  0  0
  129.3810  131.1990   55.5560 C   0  0  0  0  0  0  0  0  0  0  0  0
  129.8590  132.4660   55.3870 N   0  0  0  0  0  0  0  0  0  0  0  0
  131.1260  132.5080   55.9260 N   0  0  0  0  0  0  0  0  0  0  0  0
  131.4360  131.2770   56.3780 N   0  0  0  0  0  0  0  0  0  0  0  0
  132.6930  131.0490   57.0790 C   0  0  0  0  0  0  0  0  0  0  0  0
  132.5320  131.0650   58.5930 C   0  0  0  0  0  0  0  0  0  0  0  0
  133.6580  130.9820   59.4190 C   0  0  0  0  0  0  0  0  0  0  0  0
  133.5160  131.0200   60.8070 C   0  0  0  0  0  0  0  0  0  0  0  0
  132.2470  131.1420   61.3750 C   0  0  0  0  0  0  0  0  0  0  0  0
  131.1210  131.2270   60.5570 C   0  0  0  0  0  0  0  0  0  0  0  0
  129.5520  131.3890   61.2560 Cl  0  0  0  0  0  0  0  0  0  0  0  0
  131.2630  131.1860   59.1680 C   0  0  0  0  0  0  0  0  0  0  0  0
  130.3690  130.4130   56.1950 C   0  0  0  0  0  0  0  0  0  0  0  0
  130.1570  129.0680   56.5140 C   0  0  0  0  0  0  0  0  0  0  0  0
  127.7320  126.8880   57.7750 C   0  0  0  0  0  0  0  0  0  0  0  0
  127.5050  125.4060   58.1330 C   0  0  0  0  0  0  0  0  0  0  0  0
  130.0880  122.2820   61.2140 C   0  0  0  0  0  0  0  0  0  0  0  0
  131.1940  122.2810   62.0580 C   0  0  0  0  0  0  0  0  0  0  0  0
  1  2  2  0
  2  3  2  0
  2  4  1  0
  4  5  1  0
  5  6  1  0
  6  7  1  0
  7  8  1  0
  8  9  1  0
  9 10  1  0
 10 11  1  0
  2 12  1  0
 12 13  2  0
 13 14  1  0
 14 15  2  0
 15 16  1  0
 16 17  2  0
 16 18  2  0
 16 19  1  0
 19 20  1  0
 20 21  1  0
 21 22  1  0
 22 23  1  0
 23 24  2  0
 24 25  1  0
 25 26  1  0
 25 27  2  0
 27 28  1  0
 28 29  2  0
 29 30  1  0
 30 31  1  0
 31 32  1  0
 32 33  2  0
 33 34  1  0
 34 35  2  0
 35 36  1  0
 36 37  1  0
 36 38  2  0
 30 39  1  0
 39 40  2  0
 22 41  1  0
 41 42  1  0
 15 43  1  0
 43 44  2  0
 11  5  1  0
 44 12  1  0
 42 19  1  0
 40 23  1  0
 39 27  1  0
 38 32  1  0
M  END
>  <Binding energies>  (43) 
[-11.63]

>  <Ligand effiencies>  (43) 
[-0.24229166666666668]

>  <Interactions>  (43) 
["V-A:GLU:543:CD:4908, V-A:TYR:539:CZ:4877, V-A:ASN:362:CB:3175, V-A:TYR:539:CE1:4875, H-A:ASP:366:OD1:3213, V-A:PRO:540:CB:4885, V-A:PRO:540:CA:4883, V-A:ASP:366:CG:3212, V-A:LEU:363:CD1:3188, V-B:TYR:539:CZ:9849, V-B:TYR:539:CE2:9848, V-B:MET:535:CE:9807, V-B:GLU:543:CG:9879, H-A:TYR:539:OH:4878, H-B:LYS:534:NZ:9795, V-B:TYR:531:CE1:9764, H-A:TYR:539:N:4870, V-A:TYR:484:CE2:4345, V-A:GLY:453:C:4041, H-A:ARG:545:NH2:4928, V-A:HIS:456:CE1:4069, H-A:GLY:454:N:4049, V-A:ARG:545:CZ:4926, H-A:TYR:484:OH:4347, V-A:ARG:545:CG:4922, V-A:TYR:484:CZ:4346, V-A:ARG:545:CD:4923, V-A:ASN:362:C:3171, V-A:LEU:363:CA:3184, V-A:GLY:454:CA:4048, V-A:LEU:363:CB:3186, H-B:ASN:370:OD1:8218"]

$$$$
RR18_Rahimova_2017
     RDKit          3D

 36 41  0  0  0  0  0  0  0  0999 V2000
  134.6770  123.9050   60.2830 C   0  0  0  0  0  0  0  0  0  0  0  0
  133.3540  124.1980   59.6220 C   0  0  0  0  0  0  0  0  0  0  0  0
  132.9170  124.2250   58.3070 C   0  0  0  0  0  0  0  0  0  0  0  0
  131.5660  124.5700   58.3390 C   0  0  0  0  0  0  0  0  0  0  0  0
  131.2270  124.7410   59.6710 C   0  0  0  0  0  0  0  0  0  0  0  0
  129.9330  125.1080   60.3950 C   0  0  1  0  0  0  0  0  0  0  0  0
  129.7430  124.2620   61.6890 C   0  0  0  0  0  0  0  0  0  0  0  0
  129.5510  122.8180   61.6060 C   0  0  0  0  0  0  0  0  0  0  0  0
  128.4320  122.3060   61.6800 O   0  0  0  0  0  0  0  0  0  0  0  0
  130.6930  122.1150   61.4280 N   0  0  0  0  0  0  0  0  0  0  0  0
  130.9030  120.7230   61.3250 C   0  0  0  0  0  0  0  0  0  0  0  0
  129.8620  119.7770   61.3690 C   0  0  0  0  0  0  0  0  0  0  0  0
  130.1370  118.4150   61.2680 C   0  0  0  0  0  0  0  0  0  0  0  0
  131.4500  117.9760   61.1280 C   0  0  0  0  0  0  0  0  0  0  0  0
  132.4920  118.9000   61.0950 C   0  0  0  0  0  0  0  0  0  0  0  0
  132.2310  120.2710   61.1940 C   0  0  0  0  0  0  0  0  0  0  0  0
  133.4080  121.2410   61.1560 C   0  0  0  0  0  0  0  0  0  0  0  0
  129.8640  124.8830   62.8920 C   0  0  0  0  0  0  0  0  0  0  0  0
  130.0230  126.2250   63.0600 N   0  0  0  0  0  0  0  0  0  0  0  0
  129.9830  126.9990   62.0390 C   0  0  0  0  0  0  0  0  0  0  0  0
  130.0220  128.7440   62.1130 S   0  0  0  0  0  0  0  0  0  0  0  0
  129.8870  128.8760   60.3310 C   0  0  0  0  0  0  0  0  0  0  0  0
  129.8480  130.0320   59.5820 C   0  0  0  0  0  0  0  0  0  0  0  0
  129.8340  131.3450   60.2440 C   0  0  0  0  0  0  0  0  0  0  0  0
  129.8790  131.6290   61.4400 O   0  0  0  0  0  0  0  0  0  0  0  0
  129.7400  132.2730   59.2860 N   0  0  0  0  0  0  0  0  0  0  0  0
  129.7220  131.7420   58.0320 C   0  0  0  0  0  0  0  0  0  0  0  0
  129.6460  132.4220   56.8170 C   0  0  0  0  0  0  0  0  0  0  0  0
  129.6730  131.6900   55.6340 C   0  0  0  0  0  0  0  0  0  0  0  0
  129.7830  130.3020   55.6850 C   0  0  0  0  0  0  0  0  0  0  0  0
  129.8570  129.6430   56.9150 C   0  0  0  0  0  0  0  0  0  0  0  0
  129.8080  130.3640   58.1230 C   0  0  0  0  0  0  0  0  0  0  0  0
  129.8090  127.5210   59.7830 C   0  0  0  0  0  0  0  0  0  0  0  0
  129.6580  127.2190   58.6030 O   0  0  0  0  0  0  0  0  0  0  0  0
  129.9010  126.5710   60.7530 N   0  0  0  0  0  0  0  0  0  0  0  0
  132.3210  124.5140   60.4460 O   0  0  0  0  0  0  0  0  0  0  0  0
  1  2  1  0
  2  3  2  0
  3  4  1  0
  4  5  2  0
  6  5  1  1
  6  7  1  0
  7  8  1  0
  8  9  2  0
  8 10  1  0
 10 11  1  0
 11 12  2  0
 12 13  1  0
 13 14  2  0
 14 15  1  0
 15 16  2  0
 16 17  1  0
  7 18  2  0
 18 19  1  0
 19 20  2  0
 20 21  1  0
 21 22  1  0
 22 23  2  0
 23 24  1  0
 24 25  2  0
 24 26  1  0
 26 27  1  0
 27 28  2  0
 28 29  1  0
 29 30  2  0
 30 31  1  0
 31 32  2  0
 22 33  1  0
 33 34  2  0
 33 35  1  0
  5 36  1  0
 36  2  1  0
 35  6  1  0
 16 11  1  0
 35 20  1  0
 32 23  1  0
 32 27  1  0
M  END
>  <Binding energies>  (44) 
[-9.14]

>  <Ligand effiencies>  (44) 
[-0.2405263157894737]

>  <Interactions>  (44) 
["V-A:GLU:543:CD:4908, V-A:ASP:366:CB:3211, H-A:ALA:541:N:4891, V-A:PRO:540:C:4881, V-A:TYR:539:CE1:4875, V-A:PRO:540:CA:4883, V-A:ASP:366:CG:3212, V-A:TYR:539:C:4867, V-A:PRO:540:N:4884, V-A:ASP:366:C:3207, V-B:ALA:541:CB:9864, V-A:TYR:539:CD1:4873, V-B:PRO:540:C:9853, V-B:TYR:539:CE2:9848, V-B:ALA:541:CA:9862, V-A:TYR:539:CG:4872, H-A:TYR:539:O:4868, V-A:TYR:539:CA:4869, V-A:LEU:475:CD1:4257, V-B:TYR:539:C:9839, V-A:ILE:369:CD1:3238, V-A:ILE:369:CG2:3236, H-B:ALA:541:N:9863, V-A:PRO:482:CG:4326, V-A:ASP:366:CA:3209, V-A:ILE:369:CB:3235, V-A:PRO:482:CB:4325, V-A:ILE:369:CG1:3237"]

$$$$
RR20_Rahimova_2017
     RDKit          3D

 38 43  0  0  0  0  0  0  0  0999 V2000
  133.2790  130.9130   58.2690 C   0  0  0  0  0  0  0  0  0  0  0  0
  131.8920  130.8310   57.6590 C   0  0  0  0  0  0  0  0  0  0  0  0
  131.2500  131.9940   57.2340 C   0  0  0  0  0  0  0  0  0  0  0  0
  129.9810  131.9200   56.6660 C   0  0  0  0  0  0  0  0  0  0  0  0
  129.3390  130.6840   56.5300 C   0  0  0  0  0  0  0  0  0  0  0  0
  127.9690  130.6230   55.8910 C   0  0  0  0  0  0  0  0  0  0  0  0
  127.8920  130.8510   54.6820 O   0  0  0  0  0  0  0  0  0  0  0  0
  126.8850  130.3080   56.6600 N   0  0  0  0  0  0  0  0  0  0  0  0
  125.7500  129.5440   56.1180 C   0  0  0  0  0  0  0  0  0  0  0  0
  124.8260  129.2600   57.2900 C   0  0  0  0  0  0  0  0  0  0  0  0
  125.6910  129.5580   58.4760 C   0  0  0  0  0  0  0  0  0  0  0  0
  125.4090  129.3960   59.8330 C   0  0  0  0  0  0  0  0  0  0  0  0
  126.2860  129.8860   60.8080 C   0  0  0  0  0  0  0  0  0  0  0  0
  125.9870  129.7040   62.2700 C   0  0  0  0  0  0  0  0  0  0  0  0
  126.7940  128.9370   62.9860 N   0  0  0  0  0  0  0  0  0  0  0  0
  126.4510  128.8650   64.2470 C   0  0  0  0  0  0  0  0  0  0  0  0
  127.0760  128.1600   65.2640 N   0  0  0  0  0  0  0  0  0  0  0  0
  127.2150  128.5440   66.5560 C   0  0  0  0  0  0  0  0  0  0  0  0
  126.7690  129.5980   67.0130 O   0  0  0  0  0  0  0  0  0  0  0  0
  127.9570  127.5900   67.5220 C   0  0  0  0  0  0  0  0  0  0  0  0
  129.3420  127.3070   67.1020 N   0  0  0  0  0  0  0  0  0  0  0  0
  130.2660  127.2130   68.2420 C   0  0  0  0  0  0  0  0  0  0  0  0
  131.7280  127.1840   67.7410 C   0  0  0  0  0  0  0  0  0  0  0  0
  131.9390  126.2230   66.5700 C   0  0  0  0  0  0  0  0  0  0  0  0
  133.2270  125.8600   66.1590 C   0  0  0  0  0  0  0  0  0  0  0  0
  133.4200  125.0160   65.0690 C   0  0  0  0  0  0  0  0  0  0  0  0
  132.3210  124.5200   64.3750 C   0  0  0  0  0  0  0  0  0  0  0  0
  131.0330  124.8660   64.7790 C   0  0  0  0  0  0  0  0  0  0  0  0
  130.8250  125.7140   65.8720 C   0  0  0  0  0  0  0  0  0  0  0  0
  129.4120  126.0470   66.3510 C   0  0  0  0  0  0  0  0  0  0  0  0
  125.0430  129.7670   64.6530 S   0  0  0  0  0  0  0  0  0  0  0  0
  124.9100  130.2690   62.9850 C   0  0  0  0  0  0  0  0  0  0  0  0
  123.7570  131.1410   62.5370 C   0  0  0  0  0  0  0  0  0  0  0  0
  127.4250  130.5920   60.3900 C   0  0  0  0  0  0  0  0  0  0  0  0
  127.7000  130.7730   59.0340 C   0  0  0  0  0  0  0  0  0  0  0  0
  126.8590  130.2030   58.0690 C   0  0  0  0  0  0  0  0  0  0  0  0
  130.0020  129.5170   56.9310 C   0  0  0  0  0  0  0  0  0  0  0  0
  131.2710  129.5910   57.4990 C   0  0  0  0  0  0  0  0  0  0  0  0
  1  2  1  0
  2  3  2  0
  3  4  1  0
  4  5  2  0
  5  6  1  0
  6  7  2  0
  6  8  1  0
  8  9  1  0
  9 10  1  0
 10 11  1  0
 11 12  2  0
 12 13  1  0
 13 14  1  0
 14 15  1  0
 15 16  2  0
 16 17  1  0
 17 18  1  0
 18 19  2  0
 18 20  1  0
 20 21  1  0
 21 22  1  0
 22 23  1  0
 23 24  1  0
 24 25  2  0
 25 26  1  0
 26 27  2  0
 27 28  1  0
 28 29  2  0
 29 30  1  0
 16 31  1  0
 31 32  1  0
 32 33  1  0
 13 34  2  0
 34 35  1  0
 35 36  2  0
  5 37  1  0
 37 38  2  0
 38  2  1  0
 36  8  1  0
 36 11  1  0
 32 14  2  0
 30 21  1  0
 29 24  1  0
M  END
>  <Binding energies>  (45) 
[-10.74]

>  <Ligand effiencies>  (45) 
[-0.2753846153846154]

>  <Interactions>  (45) 
["V-A:GLU:543:CD:4908, V-A:TYR:539:CZ:4877, H-A:GLU:543:OE1:4909, V-A:PRO:540:CD:4887, V-A:TYR:539:CE1:4875, V-A:PRO:540:CB:4885, V-A:PRO:540:CA:4883, V-A:TYR:539:C:4867, V-A:PRO:540:N:4884, V-A:LEU:363:CD1:3188, V-B:ASP:366:CG:8184, V-B:GLU:543:CD:9880, V-B:ASP:366:CB:8183, V-A:TYR:539:CD1:4873, V-B:GLU:543:CG:9879, H-B:GLU:543:OE2:9882, V-B:TYR:531:CZ:9766, H-A:TYR:539:OH:4878, H-B:LYS:534:NZ:9795, V-B:GLY:454:CA:9020, V-B:TYR:531:CE1:9764, V-A:GLU:543:CB:4906, V-B:ARG:545:CZ:9898, V-B:HIS:456:CE1:9041, V-B:ILE:369:CD1:8210, V-B:GLU:543:CB:9878, H-B:TYR:484:OH:9319, V-A:HIS:456:CE1:4069, V-A:ARG:545:CZ:4926, V-A:ARG:545:CG:4922, V-A:ARG:545:CD:4923, V-A:LEU:363:CA:3184, V-A:GLY:454:CA:4048, V-B:ASP:366:C:8179, V-A:LEU:363:CB:3186"]

$$$$
RR21_Rahimova_2017
     RDKit          3D

 40 45  0  0  0  0  0  0  0  0999 V2000
  124.4740  130.0390   62.7560 C   0  0  0  0  0  0  0  0  0  0  0  0
  124.5030  130.3070   64.1550 O   0  0  0  0  0  0  0  0  0  0  0  0
  125.4370  129.6650   64.9460 C   0  0  0  0  0  0  0  0  0  0  0  0
  126.8010  129.5560   64.6270 C   0  0  0  0  0  0  0  0  0  0  0  0
  127.6800  128.8930   65.4840 C   0  0  0  0  0  0  0  0  0  0  0  0
  127.2210  128.3280   66.6790 C   0  0  0  0  0  0  0  0  0  0  0  0
  128.1680  127.6210   67.6000 C   0  0  0  0  0  0  0  0  0  0  0  0
  128.2480  127.9850   68.8650 N   0  0  0  0  0  0  0  0  0  0  0  0
  129.1620  127.1880   69.4390 N   0  0  0  0  0  0  0  0  0  0  0  0
  129.4810  127.3000   70.8170 C   0  0  0  0  0  0  0  0  0  0  0  0
  130.2570  128.3690   71.2900 C   0  0  0  0  0  0  0  0  0  0  0  0
  130.5600  128.4700   72.6450 C   0  0  0  0  0  0  0  0  0  0  0  0
  130.0900  127.5030   73.5310 C   0  0  0  0  0  0  0  0  0  0  0  0
  129.3210  126.4360   73.0740 C   0  0  0  0  0  0  0  0  0  0  0  0
  129.0170  126.3320   71.7200 C   0  0  0  0  0  0  0  0  0  0  0  0
  129.6540  126.2950   68.5210 C   0  0  0  0  0  0  0  0  0  0  0  0
  129.0430  126.5510   67.3030 C   0  0  0  0  0  0  0  0  0  0  0  0
  129.2080  125.8360   66.0460 C   0  0  0  0  0  0  0  0  0  0  0  0
  130.3560  125.5550   65.3870 C   0  0  0  0  0  0  0  0  0  0  0  0
  132.0160  125.9870   65.8530 S   0  0  0  0  0  0  0  0  0  0  0  0
  132.6170  125.1630   64.4210 C   0  0  0  0  0  0  0  0  0  0  0  0
  133.8500  125.0190   64.0450 N   0  0  0  0  0  0  0  0  0  0  0  0
  134.2040  124.3140   62.8620 C   0  0  0  0  0  0  0  0  0  0  0  0
  135.3460  124.1160   62.4480 O   0  0  0  0  0  0  0  0  0  0  0  0
  133.0240  123.7790   62.0970 C   0  0  0  0  0  0  0  0  0  0  0  0
  133.2820  123.0170   60.7910 C   0  0  0  0  0  0  0  0  0  0  0  0
  132.7400  121.5890   60.7780 C   0  0  0  0  0  0  0  0  0  0  0  0
  133.6100  120.5090   60.9530 C   0  0  0  0  0  0  0  0  0  0  0  0
  133.1130  119.2080   60.9580 C   0  0  0  0  0  0  0  0  0  0  0  0
  131.7450  118.9840   60.7900 C   0  0  0  0  0  0  0  0  0  0  0  0
  131.2070  117.5650   60.8080 C   0  0  0  0  0  0  0  0  0  0  0  0
  130.8730  120.0630   60.6260 C   0  0  0  0  0  0  0  0  0  0  0  0
  131.3690  121.3630   60.6210 C   0  0  0  0  0  0  0  0  0  0  0  0
  131.8000  123.9360   62.4810 N   0  0  0  0  0  0  0  0  0  0  0  0
  131.5940  124.6420   63.6740 N   0  0  0  0  0  0  0  0  0  0  0  0
  130.3310  124.8190   64.1310 C   0  0  0  0  0  0  0  0  0  0  0  0
  129.3120  124.4070   63.5640 O   0  0  0  0  0  0  0  0  0  0  0  0
  125.8630  128.4310   66.9940 C   0  0  0  0  0  0  0  0  0  0  0  0
  124.9820  129.0930   66.1390 C   0  0  0  0  0  0  0  0  0  0  0  0
  123.6730  129.1760   66.4730 F   0  0  0  0  0  0  0  0  0  0  0  0
  1  2  1  0
  2  3  1  0
  3  4  2  0
  4  5  1  0
  5  6  2  0
  6  7  1  0
  7  8  2  0
  8  9  1  0
  9 10  1  0
 10 11  2  0
 11 12  1  0
 12 13  2  0
 13 14  1  0
 14 15  2  0
  9 16  1  0
 16 17  2  0
 17 18  1  0
 18 19  2  0
 19 20  1  0
 20 21  1  0
 21 22  2  0
 22 23  1  0
 23 24  2  0
 23 25  1  0
 25 26  1  0
 26 27  1  0
 27 28  2  0
 28 29  1  0
 29 30  2  0
 30 31  1  0
 30 32  1  0
 32 33  2  0
 25 34  2  0
 34 35  1  0
 35 36  1  0
 36 37  2  0
  6 38  1  0
 38 39  2  0
 39 40  1  0
 39  3  1  0
 17  7  1  0
 36 19  1  0
 15 10  1  0
 35 21  1  0
 33 27  1  0
M  END
>  <Binding energies>  (46) 
[-11.07]

>  <Ligand effiencies>  (46) 
[-0.27675]

>  <Interactions>  (46) 
["V-A:GLU:543:CD:4908, V-B:ASP:366:CG:8184, V-B:GLU:543:CD:9880, V-B:TYR:539:CD2:9846, V-B:TYR:539:CE2:9848, V-B:GLU:543:CG:9879, V-A:GLU:543:CG:4907, V-B:ARG:545:CD:9895, V-B:ARG:545:CG:9894, V-B:ARG:545:CZ:9898, V-B:HIS:456:CE1:9041, H-B:GLY:454:N:9021, V-A:GLU:543:C:4902, V-B:GLU:543:CB:9878, V-A:GLY:453:C:4041, H-A:ARG:545:NH2:4928, V-A:GLY:453:CA:4043, V-A:LEU:475:CD1:4257, V-A:HIS:456:CE1:4069, H-A:ARG:545:NH1:4927, H-A:GLY:454:N:4049, V-A:ARG:545:CZ:4926, V-B:HIS:456:CD2:9039, V-A:ILE:369:CG2:3236, V-A:GLY:454:CA:4048, V-A:HIS:383:CE1:3392, V-A:PRO:482:CG:4326, V-A:PRO:482:CB:4325, V-A:LYS:547:CE:4950, V-A:GLY:544:CA:4914, V-A:GLY:544:C:4912"]

$$$$
RR23_Rahimova_2017
     RDKit          3D

 39 44  0  0  0  0  0  0  0  0999 V2000
  125.5370  138.0340   59.4240 C   0  0  0  0  0  0  0  0  0  0  0  0
  125.6760  136.7050   60.1440 C   0  0  0  0  0  0  0  0  0  0  0  0
  126.7950  136.4550   60.9400 C   0  0  0  0  0  0  0  0  0  0  0  0
  126.9170  135.2390   61.6070 C   0  0  0  0  0  0  0  0  0  0  0  0
  125.9270  134.2590   61.4750 C   0  0  0  0  0  0  0  0  0  0  0  0
  126.0680  132.9530   62.2240 C   0  0  0  0  0  0  0  0  0  0  0  0
  125.0700  132.5140   62.8000 O   0  0  0  0  0  0  0  0  0  0  0  0
  127.2730  132.3080   62.2250 N   0  0  0  0  0  0  0  0  0  0  0  0
  127.6710  131.4230   63.3320 C   0  0  0  0  0  0  0  0  0  0  0  0
  128.9840  130.7810   62.9150 C   0  0  0  0  0  0  0  0  0  0  0  0
  129.0410  131.0620   61.4440 C   0  0  0  0  0  0  0  0  0  0  0  0
  129.9800  130.6380   60.5040 C   0  0  0  0  0  0  0  0  0  0  0  0
  129.9490  131.1420   59.1940 C   0  0  0  0  0  0  0  0  0  0  0  0
  130.9640  130.7010   58.1280 C   0  0  2  0  0  0  0  0  0  0  0  0
  130.8770  129.2850   57.8430 N   0  0  0  0  0  0  0  0  0  0  0  0
  132.0080  128.7950   57.5290 C   0  0  0  0  0  0  0  0  0  0  0  0
  132.3080  127.5030   57.2260 N   0  0  0  0  0  0  0  0  0  0  0  0
  131.5120  126.4100   57.3200 C   0  0  0  0  0  0  0  0  0  0  0  0
  130.3300  126.4120   57.6720 O   0  0  0  0  0  0  0  0  0  0  0  0
  132.1780  125.0730   56.9550 C   0  0  0  0  0  0  0  0  0  0  0  0
  131.8780  124.0790   58.0100 N   0  0  0  0  0  0  0  0  0  0  0  0
  130.5390  123.7310   58.1390 N   0  0  0  0  0  0  0  0  0  0  0  0
  130.1460  122.8730   59.0250 N   0  0  0  0  0  0  0  0  0  0  0  0
  131.0790  122.2750   59.8750 C   0  0  0  0  0  0  0  0  0  0  0  0
  130.6210  121.3550   60.8210 C   0  0  0  0  0  0  0  0  0  0  0  0
  131.5290  120.7400   61.6840 C   0  0  0  0  0  0  0  0  0  0  0  0
  132.8900  121.0450   61.6050 C   0  0  0  0  0  0  0  0  0  0  0  0
  133.3500  121.9650   60.6610 C   0  0  0  0  0  0  0  0  0  0  0  0
  132.4390  122.5790   59.7930 C   0  0  0  0  0  0  0  0  0  0  0  0
  132.9150  123.5800   58.7670 C   0  0  0  0  0  0  0  0  0  0  0  0
  134.0950  123.9180   58.6330 O   0  0  0  0  0  0  0  0  0  0  0  0
  133.3960  129.9200   57.4880 S   0  0  0  0  0  0  0  0  0  0  0  0
  132.4250  131.1070   58.4330 C   0  0  2  0  0  0  0  0  0  0  0  0
  132.8640  131.0520   59.9110 C   0  0  0  0  0  0  0  0  0  0  0  0
  128.9940  132.1100   58.8650 C   0  0  0  0  0  0  0  0  0  0  0  0
  128.0670  132.5500   59.8110 C   0  0  0  0  0  0  0  0  0  0  0  0
  128.0530  131.9840   61.0920 C   0  0  0  0  0  0  0  0  0  0  0  0
  124.7930  134.5270   60.6970 C   0  0  0  0  0  0  0  0  0  0  0  0
  124.6710  135.7430   60.0300 C   0  0  0  0  0  0  0  0  0  0  0  0
  1  2  1  0
  2  3  2  0
  3  4  1  0
  4  5  2  0
  5  6  1  0
  6  7  2  0
  6  8  1  0
  8  9  1  0
  9 10  1  0
 10 11  1  0
 11 12  2  0
 12 13  1  0
 14 13  1  1
 14 15  1  0
 15 16  2  0
 16 17  1  0
 17 18  1  0
 18 19  2  0
 18 20  1  0
 20 21  1  0
 21 22  1  0
 22 23  2  0
 23 24  1  0
 24 25  2  0
 25 26  1  0
 26 27  2  0
 27 28  1  0
 28 29  2  0
 29 30  1  0
 30 31  2  0
 16 32  1  0
 32 33  1  0
 33 34  1  1
 13 35  2  0
 35 36  1  0
 36 37  2  0
  5 38  1  0
 38 39  2  0
 39  2  1  0
 37  8  1  0
 37 11  1  0
 33 14  1  0
 30 21  1  0
 29 24  1  0
M  END
>  <Binding energies>  (47) 
[-10.48]

>  <Ligand effiencies>  (47) 
[-0.262]

>  <Interactions>  (47) 
["V-A:GLU:543:CD:4908, H-A:ASP:366:OD2:3214, V-A:ASP:366:CB:3211, V-A:TYR:539:CE1:4875, V-A:PRO:540:CB:4885, V-A:PRO:540:CA:4883, V-A:ASP:366:CG:3212, V-A:TYR:539:C:4867, V-A:PRO:540:N:4884, H-A:TYR:531:OH:4795, H-B:TYR:539:OH:9850, V-B:TYR:539:CZ:9849, V-B:TYR:539:CD2:9846, V-A:TYR:539:CD1:4873, V-B:TYR:539:CE2:9848, V-A:GLU:543:CG:4907, V-B:ILE:369:CG2:8208, V-B:LEU:475:CD1:9229, V-A:ALA:541:CB:4892, V-A:LEU:475:CD1:4257, V-A:ILE:369:CG2:3236, V-A:TYR:539:CB:4871, V-B:SER:385:CB:8380, V-B:LEU:373:CD1:8251, V-B:PRO:482:CG:9298, V-B:PRO:482:CB:9297, H-A:ASP:366:O:3208"]

$$$$
RR26_Rahimova_2017
     RDKit          3D

 38 44  0  0  0  0  0  0  0  0999 V2000
  124.1380  124.7140   58.0950 C   0  0  0  0  0  0  0  0  0  0  0  0
  125.4380  123.9650   57.8280 C   0  0  0  0  0  0  0  0  0  0  0  0
  125.3600  122.6600   57.3300 C   0  0  0  0  0  0  0  0  0  0  0  0
  126.5160  121.9430   57.0300 C   0  0  0  0  0  0  0  0  0  0  0  0
  127.7630  122.5280   57.2210 C   0  0  0  0  0  0  0  0  0  0  0  0
  127.8540  123.8270   57.7160 C   0  0  0  0  0  0  0  0  0  0  0  0
  126.7010  124.5620   58.0320 C   0  0  0  0  0  0  0  0  0  0  0  0
  126.8890  125.9490   58.5760 C   0  0  0  0  0  0  0  0  0  0  0  0
  125.8690  126.7820   58.7650 N   0  0  0  0  0  0  0  0  0  0  0  0
  126.4680  127.8370   59.2470 C   0  0  0  0  0  0  0  0  0  0  0  0
  125.9780  129.4030   59.7790 S   0  0  0  0  0  0  0  0  0  0  0  0
  127.6990  129.7860   60.1610 C   0  0  0  0  0  0  0  0  0  0  0  0
  128.1990  130.9380   60.6620 C   0  0  0  0  0  0  0  0  0  0  0  0
  127.4760  132.1470   61.0220 C   0  0  0  0  0  0  0  0  0  0  0  0
  127.2520  133.2740   60.2480 C   0  0  0  0  0  0  0  0  0  0  0  0
  126.4880  134.1460   60.9810 N   0  0  0  0  0  0  0  0  0  0  0  0
  126.0050  135.4250   60.6010 C   0  0  0  0  0  0  0  0  0  0  0  0
  124.6610  135.6080   60.2450 C   0  0  0  0  0  0  0  0  0  0  0  0
  124.2010  136.8680   59.8700 C   0  0  0  0  0  0  0  0  0  0  0  0
  125.0810  137.9470   59.8530 C   0  0  0  0  0  0  0  0  0  0  0  0
  126.4180  137.7790   60.2080 C   0  0  0  0  0  0  0  0  0  0  0  0
  126.8810  136.5210   60.5800 C   0  0  0  0  0  0  0  0  0  0  0  0
  126.1920  133.6130   62.1770 N   0  0  0  0  0  0  0  0  0  0  0  0
  126.7750  132.4310   62.2170 C   0  0  0  0  0  0  0  0  0  0  0  0
  126.6430  131.5750   63.4390 C   0  0  0  0  0  0  0  0  0  0  0  0
  127.7580  131.3250   64.2540 C   0  0  0  0  0  0  0  0  0  0  0  0
  127.6460  130.5260   65.3930 C   0  0  0  0  0  0  0  0  0  0  0  0
  126.4130  129.9670   65.7250 C   0  0  0  0  0  0  0  0  0  0  0  0
  125.2880  130.2250   64.9290 C   0  0  0  0  0  0  0  0  0  0  0  0
  125.4040  131.0190   63.7880 C   0  0  0  0  0  0  0  0  0  0  0  0
  124.0570  129.6580   65.1940 O   0  0  0  0  0  0  0  0  0  0  0  0
  123.9120  129.1760   66.5340 C   0  0  0  0  0  0  0  0  0  0  0  0
  125.1730  128.3920   66.9700 C   0  0  0  0  0  0  0  0  0  0  0  0
  126.3360  129.2230   66.8860 O   0  0  0  0  0  0  0  0  0  0  0  0
  128.5960  128.6770   59.8530 C   0  0  0  0  0  0  0  0  0  0  0  0
  129.8190  128.6060   59.9860 O   0  0  0  0  0  0  0  0  0  0  0  0
  127.7950  127.6400   59.3490 N   0  0  0  0  0  0  0  0  0  0  0  0
  128.0820  126.4090   58.9180 N   0  0  0  0  0  0  0  0  0  0  0  0
  1  2  1  0
  2  3  2  0
  3  4  1  0
  4  5  2  0
  5  6  1  0
  6  7  2  0
  7  8  1  0
  8  9  1  0
  9 10  2  0
 10 11  1  0
 11 12  1  0
 12 13  2  0
 13 14  1  0
 14 15  2  0
 15 16  1  0
 16 17  1  0
 17 18  2  0
 18 19  1  0
 19 20  2  0
 20 21  1  0
 21 22  2  0
 16 23  1  0
 23 24  2  0
 24 25  1  0
 25 26  2  0
 26 27  1  0
 27 28  2  0
 28 29  1  0
 29 30  2  0
 29 31  1  0
 31 32  1  0
 32 33  1  0
 33 34  1  0
 12 35  1  0
 35 36  2  0
 35 37  1  0
 37 38  1  0
  7  2  1  0
 38  8  2  0
 37 10  1  0
 24 14  1  0
 30 25  1  0
 22 17  1  0
 34 28  1  0
M  END
>  <Binding energies>  (48) 
[-10.09]

>  <Ligand effiencies>  (48) 
[-0.26552631578947367]

>  <Interactions>  (48) 
["V-A:GLU:543:CD:4908, V-A:TYR:539:CE1:4875, V-A:TYR:539:C:4867, V-B:ASP:366:CG:8184, V-B:PRO:540:CB:9857, H-B:TYR:531:OH:9767, V-B:ASP:366:CB:8183, V-B:PRO:540:N:9856, V-A:TYR:539:CD1:4873, V-B:LEU:363:CD1:8160, V-B:PRO:540:CD:9859, V-B:PRO:540:CA:9855, V-B:MET:535:CE:9807, H-B:ARG:545:NH2:9900, V-B:TYR:531:CE2:9765, V-A:GLU:543:CG:4907, V-B:TYR:531:CZ:9766, V-B:ILE:369:CG2:8208, V-B:LEU:475:CD1:9229, V-A:ALA:541:CB:4892, V-B:ARG:545:CD:9895, V-B:ARG:545:CG:9894, V-B:ARG:545:CZ:9898, V-B:HIS:456:CE1:9041, V-B:TYR:484:CE2:9317, H-B:GLY:454:N:9021, H-B:ARG:545:NH1:9899, V-B:TYR:484:CZ:9318, H-B:TYR:484:OH:9319, H-B:ARG:545:NE:9896, V-B:LEU:363:CA:8156, V-B:TYR:539:C:9839, V-A:TYR:539:CB:4871, V-B:SER:385:CB:8380, V-B:LEU:373:CD1:8251, V-B:PRO:482:CG:9298, V-B:SER:385:CA:8378, V-B:TYR:539:CA:9841, V-B:PRO:482:CB:9297"]

$$$$
RR2_Rahimova_2017
     RDKit          3D

 46 50  0  0  0  0  0  0  0  0999 V2000
  133.6960  122.3920   60.9960 C   0  0  0  0  0  0  0  0  0  0  0  0
  132.7020  122.3910   59.9780 O   0  0  0  0  0  0  0  0  0  0  0  0
  132.4150  123.5700   59.3150 C   0  0  0  0  0  0  0  0  0  0  0  0
  131.5140  124.5380   59.7780 C   0  0  0  0  0  0  0  0  0  0  0  0
  131.2850  125.6960   59.0390 C   0  0  0  0  0  0  0  0  0  0  0  0
  131.9470  125.9110   57.8220 C   0  0  0  0  0  0  0  0  0  0  0  0
  131.6750  127.1770   57.0320 C   0  0  0  0  0  0  0  0  0  0  0  0
  131.1840  127.1110   55.9000 O   0  0  0  0  0  0  0  0  0  0  0  0
  132.0140  128.3360   57.6420 N   0  0  0  0  0  0  0  0  0  0  0  0
  131.8720  129.5200   56.9260 N   0  0  0  0  0  0  0  0  0  0  0  0
  132.5780  130.5960   57.3260 C   0  0  0  0  0  0  0  0  0  0  0  0
  133.2080  130.6730   58.3850 O   0  0  0  0  0  0  0  0  0  0  0  0
  132.5880  131.7810   56.3510 C   0  0  0  0  0  0  0  0  0  0  0  0
  130.9540  132.5470   56.0450 S   0  0  0  0  0  0  0  0  0  0  0  0
  129.9340  131.1070   55.9430 C   0  0  0  0  0  0  0  0  0  0  0  0
  129.6100  130.5420   54.8070 N   0  0  0  0  0  0  0  0  0  0  0  0
  128.7500  129.4920   55.0950 N   0  0  0  0  0  0  0  0  0  0  0  0
  128.6090  129.4430   56.3990 C   0  0  0  0  0  0  0  0  0  0  0  0
  127.7640  128.4270   57.0970 C   0  0  0  0  0  0  0  0  0  0  0  0
  126.4730  128.7630   57.5100 C   0  0  0  0  0  0  0  0  0  0  0  0
  125.6820  127.8260   58.1680 C   0  0  0  0  0  0  0  0  0  0  0  0
  126.1700  126.5360   58.4030 C   0  0  0  0  0  0  0  0  0  0  0  0
  125.4210  125.5540   59.0700 N   0  0  0  0  0  0  0  0  0  0  0  0
  125.3920  123.8310   58.6320 S   0  0  0  0  0  0  0  0  0  0  0  0
  125.6430  123.7780   57.1870 O   0  0  0  0  0  0  0  0  0  0  0  0
  124.1800  123.2360   59.2080 O   0  0  0  0  0  0  0  0  0  0  0  0
  126.8280  123.1200   59.4320 C   0  0  0  0  0  0  0  0  0  0  0  0
  126.9280  123.0960   60.8250 C   0  0  0  0  0  0  0  0  0  0  0  0
  128.0590  122.5530   61.4270 C   0  0  0  0  0  0  0  0  0  0  0  0
  129.0860  122.0290   60.6380 C   0  0  0  0  0  0  0  0  0  0  0  0
  130.3260  121.4510   61.2960 C   0  0  0  0  0  0  0  0  0  0  0  0
  128.9860  122.0580   59.2450 C   0  0  0  0  0  0  0  0  0  0  0  0
  127.8550  122.6020   58.6420 C   0  0  0  0  0  0  0  0  0  0  0  0
  127.4580  126.2000   57.9870 C   0  0  0  0  0  0  0  0  0  0  0  0
  128.2530  127.1390   57.3350 C   0  0  0  0  0  0  0  0  0  0  0  0
  129.3380  130.4530   57.0050 N   0  0  0  0  0  0  0  0  0  0  0  0
  129.4200  130.7730   58.3760 C   0  0  0  0  0  0  0  0  0  0  0  0
  129.0070  132.0280   58.8240 C   0  0  0  0  0  0  0  0  0  0  0  0
  129.0860  132.3360   60.1800 C   0  0  0  0  0  0  0  0  0  0  0  0
  129.5760  131.4010   61.0930 C   0  0  0  0  0  0  0  0  0  0  0  0
  129.6180  131.7990   62.4150 O   0  0  0  0  0  0  0  0  0  0  0  0
  128.6090  131.3420   63.3110 C   0  0  0  0  0  0  0  0  0  0  0  0
  129.9900  130.1410   60.6330 C   0  0  0  0  0  0  0  0  0  0  0  0
  129.9110  129.8270   59.2790 C   0  0  0  0  0  0  0  0  0  0  0  0
  132.8520  124.9390   57.3680 C   0  0  0  0  0  0  0  0  0  0  0  0
  133.0800  123.7830   58.1100 C   0  0  0  0  0  0  0  0  0  0  0  0
  1  2  1  0
  2  3  1  0
  3  4  2  0
  4  5  1  0
  5  6  2  0
  6  7  1  0
  7  8  2  0
  7  9  1  0
  9 10  1  0
 10 11  1  0
 11 12  2  0
 11 13  1  0
 13 14  1  0
 14 15  1  0
 15 16  2  0
 16 17  1  0
 17 18  2  0
 18 19  1  0
 19 20  2  0
 20 21  1  0
 21 22  2  0
 22 23  1  0
 23 24  1  0
 24 25  2  0
 24 26  2  0
 24 27  1  0
 27 28  2  0
 28 29  1  0
 29 30  2  0
 30 31  1  0
 30 32  1  0
 32 33  2  0
 22 34  1  0
 34 35  2  0
 18 36  1  0
 36 37  1  0
 37 38  2  0
 38 39  1  0
 39 40  2  0
 40 41  1  0
 41 42  1  0
 40 43  1  0
 43 44  2  0
  6 45  1  0
 45 46  2  0
 46  3  1  0
 36 15  1  0
 44 37  1  0
 35 19  1  0
 33 27  1  0
M  END
>  <Binding energies>  (49) 
[-10.87]

>  <Ligand effiencies>  (49) 
[-0.22183673469387755]

>  <Interactions>  (49) 
["V-A:GLU:543:CD:4908, H-A:ASP:366:OD2:3214, V-A:ASP:366:CB:3211, V-A:PRO:540:CD:4887, H-A:ALA:541:N:4891, V-A:TYR:531:CZ:4794, V-A:PRO:540:C:4881, V-A:TYR:539:CE1:4875, V-A:PRO:540:CB:4885, V-A:PRO:540:CA:4883, V-A:ASP:366:CG:3212, V-A:TYR:539:C:4867, V-A:PRO:540:N:4884, V-A:LEU:363:CD1:3188, H-A:TYR:531:OH:4795, V-A:ASP:366:C:3207, V-B:ASP:366:CG:8184, V-B:PRO:540:CB:9857, V-B:TYR:539:CZ:9849, V-B:ALA:541:CB:9864, H-B:TYR:531:OH:9767, V-B:ASP:366:CB:8183, V-B:PRO:540:N:9856, V-B:TYR:539:CD2:9846, V-A:TYR:539:CD1:4873, H-B:ASP:366:OD2:8186, V-B:PRO:540:C:9853, V-B:TYR:539:CE2:9848, V-B:PRO:540:CA:9855, H-B:ASP:366:OD1:8185, V-A:GLU:543:CG:4907, V-B:TYR:531:CZ:9766, V-A:ALA:541:CB:4892, H-A:TYR:539:N:4870, V-B:TYR:539:C:9839, V-A:ILE:369:CD1:3238, V-A:ILE:369:CG2:3236, V-A:ASP:366:CA:3209"]

$$$$
RR33_Rahimova_2017
     RDKit          3D

 18 19  0  0  0  0  0  0  0  0999 V2000
  125.1850  139.7060   60.9950 C   0  0  0  0  0  0  0  0  0  0  0  0
  125.2740  139.1670   59.5640 C   0  0  0  0  0  0  0  0  0  0  0  0
  124.5720  137.9290   59.4970 O   0  0  0  0  0  0  0  0  0  0  0  0
  125.1480  136.7930   60.0330 C   0  0  0  0  0  0  0  0  0  0  0  0
  126.4620  136.9150   60.4820 C   0  0  0  0  0  0  0  0  0  0  0  0
  127.1260  135.8240   61.0340 C   0  0  0  0  0  0  0  0  0  0  0  0
  126.4820  134.5880   61.1460 C   0  0  0  0  0  0  0  0  0  0  0  0
  127.1960  133.4160   61.7390 C   0  0  0  0  0  0  0  0  0  0  0  0
  128.3450  132.9010   61.3600 N   0  0  0  0  0  0  0  0  0  0  0  0
  128.5610  131.8870   62.1830 C   0  0  0  0  0  0  0  0  0  0  0  0
  129.8130  131.0430   62.0650 C   0  0  0  0  0  0  0  0  0  0  0  0
  130.6610  131.5310   60.9880 N   0  0  0  0  0  0  0  0  0  0  0  0
  132.0610  131.4930   61.3800 C   0  0  0  0  0  0  0  0  0  0  0  0
  127.5100  131.7850   63.0850 C   0  0  0  0  0  0  0  0  0  0  0  0
  127.1700  130.8740   64.2390 C   0  0  0  0  0  0  0  0  0  0  0  0
  126.6320  132.7720   62.7940 O   0  0  0  0  0  0  0  0  0  0  0  0
  125.1620  134.4620   60.7010 C   0  0  0  0  0  0  0  0  0  0  0  0
  124.4980  135.5540   60.1470 C   0  0  0  0  0  0  0  0  0  0  0  0
  1  2  1  0
  2  3  1  0
  3  4  1  0
  4  5  2  0
  5  6  1  0
  6  7  2  0
  7  8  1  0
  8  9  2  0
  9 10  1  0
 10 11  1  0
 11 12  1  0
 12 13  1  0
 10 14  2  0
 14 15  1  0
 14 16  1  0
  7 17  1  0
 17 18  2  0
 18  4  1  0
 16  8  1  0
M  END
>  <Binding energies>  (50) 
[-5.45]

>  <Ligand effiencies>  (50) 
[-0.2868421052631579]

>  <Interactions>  (50) 
["V-A:GLU:543:CD:4908, H-A:ALA:541:N:4891, V-A:PRO:540:C:4881, V-A:PRO:540:CB:4885, V-A:PRO:540:CA:4883, V-A:TYR:539:C:4867, V-A:TYR:539:CD1:4873, V-A:GLU:543:CG:4907, V-B:ILE:369:CG2:8208, V-B:LEU:475:CD1:9229, V-A:ALA:541:CB:4892, H-B:SER:385:OG:8381, H-A:TYR:539:O:4868, V-B:HIS:383:CE1:8365, V-A:TYR:539:CB:4871, V-B:SER:385:CB:8380, V-B:LEU:373:CD1:8251, V-A:ILE:343:CG2:2991, V-B:PRO:482:CG:9298, V-B:HIS:383:CD2:8363, V-B:PRO:482:CB:9297"]

$$$$
RR3_Rahimova_2017
     RDKit          3D

 38 44  0  0  0  0  0  0  0  0999 V2000
  128.5630  128.6860   53.5270 C   0  0  0  0  0  0  0  0  0  0  0  0
  129.2870  128.1370   54.5810 C   0  0  0  0  0  0  0  0  0  0  0  0
  128.9290  128.4370   55.8930 C   0  0  0  0  0  0  0  0  0  0  0  0
  127.8460  129.2850   56.1680 C   0  0  0  0  0  0  0  0  0  0  0  0
  127.4620  129.6050   57.5790 C   0  0  0  0  0  0  0  0  0  0  0  0
  128.3210  129.3060   58.6450 C   0  0  0  0  0  0  0  0  0  0  0  0
  127.9620  129.6000   59.9570 C   0  0  0  0  0  0  0  0  0  0  0  0
  126.7290  130.1960   60.2350 C   0  0  0  0  0  0  0  0  0  0  0  0
  126.3340  130.5100   61.6440 C   0  0  0  0  0  0  0  0  0  0  0  0
  126.2470  129.5360   62.5430 N   0  0  0  0  0  0  0  0  0  0  0  0
  125.9310  130.1040   63.6810 C   0  0  0  0  0  0  0  0  0  0  0  0
  125.7330  129.4010   64.9460 C   0  0  0  0  0  0  0  0  0  0  0  0
  124.5980  129.4630   65.7380 C   0  0  0  0  0  0  0  0  0  0  0  0
  124.7520  128.6720   66.8460 N   0  0  0  0  0  0  0  0  0  0  0  0
  125.9890  128.0670   66.8230 C   0  0  0  0  0  0  0  0  0  0  0  0
  126.5910  127.1840   67.7260 C   0  0  0  0  0  0  0  0  0  0  0  0
  127.8770  126.7410   67.4160 C   0  0  0  0  0  0  0  0  0  0  0  0
  128.5370  127.1530   66.2640 C   0  0  0  0  0  0  0  0  0  0  0  0
  127.9370  128.0320   65.3640 C   0  0  0  0  0  0  0  0  0  0  0  0
  126.6410  128.5100   65.6290 C   0  0  0  0  0  0  0  0  0  0  0  0
  125.8020  131.4580   63.5340 N   0  0  0  0  0  0  0  0  0  0  0  0
  126.0340  131.7580   62.2160 C   0  0  0  0  0  0  0  0  0  0  0  0
  125.9220  133.1430   61.6690 C   0  0  0  0  0  0  0  0  0  0  0  0
  124.9310  133.4480   60.7340 C   0  0  0  0  0  0  0  0  0  0  0  0
  124.8310  134.7340   60.2120 C   0  0  0  0  0  0  0  0  0  0  0  0
  125.7140  135.7460   60.6140 C   0  0  0  0  0  0  0  0  0  0  0  0
  125.6160  137.1220   60.0360 C   0  0  0  0  0  0  0  0  0  0  0  0
  126.7700  137.8400   59.6870 C   0  0  0  0  0  0  0  0  0  0  0  0
  126.6780  139.1200   59.1450 C   0  0  0  0  0  0  0  0  0  0  0  0
  125.4270  139.6960   58.9450 C   0  0  0  0  0  0  0  0  0  0  0  0
  124.2700  139.0020   59.2820 C   0  0  0  0  0  0  0  0  0  0  0  0
  124.3660  137.7240   59.8250 C   0  0  0  0  0  0  0  0  0  0  0  0
  126.6940  135.4310   61.5670 C   0  0  0  0  0  0  0  0  0  0  0  0
  126.7970  134.1460   62.0910 C   0  0  0  0  0  0  0  0  0  0  0  0
  125.8720  130.5100   59.1780 C   0  0  0  0  0  0  0  0  0  0  0  0
  126.2330  130.2140   57.8670 C   0  0  0  0  0  0  0  0  0  0  0  0
  127.1320  129.8270   55.0890 C   0  0  0  0  0  0  0  0  0  0  0  0
  127.4860  129.5300   53.7760 C   0  0  0  0  0  0  0  0  0  0  0  0
  1  2  2  0
  2  3  1  0
  3  4  2  0
  4  5  1  0
  5  6  2  0
  6  7  1  0
  7  8  2  0
  8  9  1  0
  9 10  1  0
 10 11  2  0
 11 12  1  0
 12 13  2  0
 13 14  1  0
 14 15  1  0
 15 16  2  0
 16 17  1  0
 17 18  2  0
 18 19  1  0
 19 20  2  0
 11 21  1  0
 21 22  1  0
 22 23  1  0
 23 24  2  0
 24 25  1  0
 25 26  2  0
 26 27  1  0
 27 28  2  0
 28 29  1  0
 29 30  2  0
 30 31  1  0
 31 32  2  0
 26 33  1  0
 33 34  2  0
  8 35  1  0
 35 36  2  0
  4 37  1  0
 37 38  2  0
 38  1  1  0
 36  5  1  0
 22  9  2  0
 34 23  1  0
 20 12  1  0
 32 27  1  0
 20 15  1  0
M  END
>  <Binding energies>  (51) 
[-10.0]

>  <Ligand effiencies>  (51) 
[-0.25]

>  <Interactions>  (51) 
["V-A:GLU:543:CD:4908, V-A:TYR:539:CZ:4877, V-A:TYR:539:CE1:4875, V-B:GLU:543:CD:9880, V-A:TYR:539:CD1:4873, V-B:GLU:543:CG:9879, V-B:TYR:531:CZ:9766, V-B:ILE:369:CG2:8208, V-B:LEU:475:CD1:9229, V-A:ALA:541:CB:4892, V-B:TYR:531:CE1:9764, V-B:ARG:545:CD:9895, V-B:ARG:545:CG:9894, V-B:ARG:545:CZ:9898, V-B:HIS:456:CE1:9041, V-B:GLU:543:CB:9878, H-B:TYR:484:OH:9319, V-B:HIS:383:CE1:8365, V-A:TYR:539:CB:4871, V-A:VAL:344:CG1:3000, V-B:SER:385:CB:8380, V-B:LEU:373:CD1:8251, V-A:ILE:343:CG2:2991, V-B:PRO:482:CG:9298, V-B:HIS:383:CD2:8363, V-B:LYS:534:CE:9794, V-B:HIS:383:CG:8361, V-B:SER:385:CA:8378, V-B:LEU:373:CD2:8252, V-B:PRO:482:CB:9297, H-B:ILE:455:O:9024, V-B:LYS:534:CD:9793, V-B:VAL:384:C:8368, V-A:ILE:343:CB:2990, V-B:LEU:373:CG:8250"]

$$$$
RR4_Rahimova_2017
     RDKit          3D

 40 44  0  0  0  0  0  0  0  0999 V2000
  123.7100  131.0090   62.5830 C   0  0  0  0  0  0  0  0  0  0  0  0
  123.3790  131.1190   61.2030 O   0  0  0  0  0  0  0  0  0  0  0  0
  124.2390  130.5910   60.2590 C   0  0  0  0  0  0  0  0  0  0  0  0
  125.3600  129.9200   60.7410 C   0  0  0  0  0  0  0  0  0  0  0  0
  126.2810  129.3550   59.8640 C   0  0  0  0  0  0  0  0  0  0  0  0
  126.1080  129.4470   58.4750 C   0  0  0  0  0  0  0  0  0  0  0  0
  127.1040  128.8370   57.5310 C   0  0  0  0  0  0  0  0  0  0  0  0
  128.0060  127.8420   57.9200 C   0  0  0  0  0  0  0  0  0  0  0  0
  128.9140  127.3010   57.0010 C   0  0  0  0  0  0  0  0  0  0  0  0
  129.8280  126.2220   57.4820 C   0  0  0  0  0  0  0  0  0  0  0  0
  129.3220  124.9520   57.7770 C   0  0  0  0  0  0  0  0  0  0  0  0
  130.1690  123.9380   58.2150 C   0  0  0  0  0  0  0  0  0  0  0  0
  131.5360  124.1690   58.3610 C   0  0  0  0  0  0  0  0  0  0  0  0
  132.2980  123.1040   58.8000 O   0  0  0  0  0  0  0  0  0  0  0  0
  133.4750  123.3590   59.5600 C   0  0  0  0  0  0  0  0  0  0  0  0
  132.0490  125.4400   58.0610 C   0  0  0  0  0  0  0  0  0  0  0  0
  131.2010  126.4530   57.6230 C   0  0  0  0  0  0  0  0  0  0  0  0
  128.9150  127.8050   55.6770 C   0  0  0  0  0  0  0  0  0  0  0  0
  129.8420  127.2730   54.6740 C   0  0  0  0  0  0  0  0  0  0  0  0
  130.5750  126.8540   53.8830 N   0  0  0  0  0  0  0  0  0  0  0  0
  127.9950  128.8310   55.3590 C   0  0  0  0  0  0  0  0  0  0  0  0
  127.8640  129.5900   53.7540 S   0  0  0  0  0  0  0  0  0  0  0  0
  129.0160  131.0040   53.7110 C   0  0  0  0  0  0  0  0  0  0  0  0
  129.5420  131.4390   55.0860 C   0  0  0  0  0  0  0  0  0  0  0  0
  129.1760  132.5040   55.5880 O   0  0  0  0  0  0  0  0  0  0  0  0
  130.4190  130.5800   55.6540 N   0  0  0  0  0  0  0  0  0  0  0  0
  131.0670  130.6880   56.8880 C   0  0  0  0  0  0  0  0  0  0  0  0
  132.7700  130.3770   57.0960 S   0  0  0  0  0  0  0  0  0  0  0  0
  132.6820  130.7220   58.7960 C   0  0  0  0  0  0  0  0  0  0  0  0
  131.3770  131.0620   59.1870 C   0  0  0  0  0  0  0  0  0  0  0  0
  130.4680  131.0580   58.1020 C   0  0  0  0  0  0  0  0  0  0  0  0
  129.0540  131.3950   58.2370 C   0  0  0  0  0  0  0  0  0  0  0  0
  127.9330  131.6620   58.3440 N   0  0  0  0  0  0  0  0  0  0  0  0
  131.0480  131.4480   60.6340 C   0  0  0  0  0  0  0  0  0  0  0  0
  132.3380  131.7850   61.4150 C   0  0  0  0  0  0  0  0  0  0  0  0
  133.4490  130.7480   61.1780 C   0  0  0  0  0  0  0  0  0  0  0  0
  133.9050  130.7150   59.7040 C   0  0  0  0  0  0  0  0  0  0  0  0
  127.1070  129.3140   56.2590 N   0  0  0  0  0  0  0  0  0  0  0  0
  124.9720  130.1220   57.9990 C   0  0  0  0  0  0  0  0  0  0  0  0
  124.0500  130.6890   58.8740 C   0  0  0  0  0  0  0  0  0  0  0  0
  1  2  1  0
  2  3  1  0
  3  4  2  0
  4  5  1  0
  5  6  2  0
  6  7  1  0
  7  8  2  0
  8  9  1  0
  9 10  1  0
 10 11  2  0
 11 12  1  0
 12 13  2  0
 13 14  1  0
 14 15  1  0
 13 16  1  0
 16 17  2  0
  9 18  2  0
 18 19  1  0
 19 20  3  0
 18 21  1  0
 21 22  1  0
 22 23  1  0
 23 24  1  0
 24 25  2  0
 24 26  1  0
 26 27  1  0
 27 28  1  0
 28 29  1  0
 29 30  2  0
 30 31  1  0
 31 32  1  0
 32 33  3  0
 30 34  1  0
 34 35  1  0
 35 36  1  0
 36 37  1  0
 21 38  2  0
  6 39  1  0
 39 40  2  0
 40  3  1  0
 38  7  1  0
 17 10  1  0
 31 27  2  0
 37 29  1  0
M  END
>  <Binding energies>  (52) 
[-10.63]

>  <Ligand effiencies>  (52) 
[-0.25926829268292684]

>  <Interactions>  (52) 
["V-A:TYR:539:CZ:4877, V-A:ASP:366:CB:3211, V-A:ASN:362:CB:3175, V-A:TYR:531:CZ:4794, V-A:PRO:540:C:4881, V-A:ILE:538:CG2:4863, V-A:TYR:539:CE1:4875, V-A:PRO:540:CB:4885, V-A:PRO:540:CA:4883, V-A:ASP:366:CG:3212, V-A:LEU:363:CD1:3188, H-A:TYR:531:OH:4795, H-B:TYR:539:OH:9850, V-B:ASP:366:CG:8184, V-B:TYR:539:CZ:9849, H-B:TYR:531:OH:9767, V-B:ASP:366:CB:8183, V-B:ASP:366:CA:8181, V-A:TYR:539:CD1:4873, V-B:TYR:539:CE2:9848, V-B:TYR:531:CZ:9766, V-B:ILE:369:CG2:8208, H-B:LYS:534:NZ:9795, V-B:GLY:454:CA:9020, V-B:TYR:531:CE1:9764, V-B:ILE:369:CD1:8210, H-A:TYR:539:N:4870, V-A:ASN:362:C:3171, V-A:LEU:363:CA:3184, V-A:ILE:369:CG2:3236, V-B:ILE:369:CB:8207, V-B:ASP:366:C:8179, V-B:LYS:534:CE:9794, V-A:LEU:363:CB:3186, V-A:ILE:369:CB:3235"]

$$$$
RR6_Rahimova_2017
     RDKit          3D

 38 41  0  0  0  0  0  0  0  0999 V2000
  129.7620  130.2850   55.0640 C   0  0  0  0  0  0  0  0  0  0  0  0
  128.6670  129.4020   55.2680 O   0  0  0  0  0  0  0  0  0  0  0  0
  127.3920  129.8660   55.2980 C   0  0  0  0  0  0  0  0  0  0  0  0
  126.7990  130.2910   54.3010 O   0  0  0  0  0  0  0  0  0  0  0  0
  126.7710  129.8100   56.6650 C   0  0  0  0  0  0  0  0  0  0  0  0
  125.4100  129.5320   56.8520 C   0  0  0  0  0  0  0  0  0  0  0  0
  124.8620  129.4940   58.1330 C   0  0  0  0  0  0  0  0  0  0  0  0
  125.6720  129.7400   59.2510 C   0  0  0  0  0  0  0  0  0  0  0  0
  125.2180  129.7550   60.5830 N   0  0  0  0  0  0  0  0  0  0  0  0
  124.1670  130.4120   61.1220 C   0  0  0  0  0  0  0  0  0  0  0  0
  123.3850  131.1350   60.5050 O   0  0  0  0  0  0  0  0  0  0  0  0
  124.0040  130.2690   62.6390 C   0  0  0  0  0  0  0  0  0  0  0  0
  125.3050  131.1140   63.5990 S   0  0  0  0  0  0  0  0  0  0  0  0
  126.3640  131.9290   62.4220 C   0  0  0  0  0  0  0  0  0  0  0  0
  125.8770  133.1020   61.9530 N   0  0  0  0  0  0  0  0  0  0  0  0
  126.6080  133.8300   61.0720 C   0  0  0  0  0  0  0  0  0  0  0  0
  126.0250  135.1460   60.6480 C   0  0  0  0  0  0  0  0  0  0  0  0
  126.8060  136.3130   60.6390 C   0  0  0  0  0  0  0  0  0  0  0  0
  126.2610  137.5360   60.2580 C   0  0  0  0  0  0  0  0  0  0  0  0
  124.9230  137.6150   59.8730 C   0  0  0  0  0  0  0  0  0  0  0  0
  124.3320  138.9530   59.4680 C   0  0  0  0  0  0  0  0  0  0  0  0
  124.1320  136.4690   59.8730 C   0  0  0  0  0  0  0  0  0  0  0  0
  124.6820  135.2490   60.2540 C   0  0  0  0  0  0  0  0  0  0  0  0
  127.8560  133.3770   60.6320 C   0  0  0  0  0  0  0  0  0  0  0  0
  128.3800  132.1640   61.1000 C   0  0  0  0  0  0  0  0  0  0  0  0
  129.7260  131.7490   60.6030 C   0  0  0  0  0  0  0  0  0  0  0  0
  130.7370  131.4160   61.5090 C   0  0  0  0  0  0  0  0  0  0  0  0
  131.9900  131.0130   61.0540 C   0  0  0  0  0  0  0  0  0  0  0  0
  132.2540  130.9290   59.6880 C   0  0  0  0  0  0  0  0  0  0  0  0
  133.5240  130.5180   59.3290 O   0  0  0  0  0  0  0  0  0  0  0  0
  133.8190  130.3020   57.9540 C   0  0  0  0  0  0  0  0  0  0  0  0
  131.2410  131.2570   58.7750 C   0  0  0  0  0  0  0  0  0  0  0  0
  129.9890  131.6590   59.2330 C   0  0  0  0  0  0  0  0  0  0  0  0
  127.6110  131.4090   62.0200 C   0  0  0  0  0  0  0  0  0  0  0  0
  128.0860  130.1180   62.5270 C   0  0  0  0  0  0  0  0  0  0  0  0
  128.4630  129.1000   62.9280 N   0  0  0  0  0  0  0  0  0  0  0  0
  127.0310  130.0010   59.0700 C   0  0  0  0  0  0  0  0  0  0  0  0
  127.5750  130.0400   57.7890 C   0  0  0  0  0  0  0  0  0  0  0  0
  1  2  1  0
  2  3  1  0
  3  4  2  0
  3  5  1  0
  5  6  2  0
  6  7  1  0
  7  8  2  0
  8  9  1  0
  9 10  1  0
 10 11  2  0
 10 12  1  0
 12 13  1  0
 13 14  1  0
 14 15  2  0
 15 16  1  0
 16 17  1  0
 17 18  2  0
 18 19  1  0
 19 20  2  0
 20 21  1  0
 20 22  1  0
 22 23  2  0
 16 24  2  0
 24 25  1  0
 25 26  1  0
 26 27  2  0
 27 28  1  0
 28 29  2  0
 29 30  1  0
 30 31  1  0
 29 32  1  0
 32 33  2  0
 25 34  2  0
 34 35  1  0
 35 36  3  0
  8 37  1  0
 37 38  2  0
 38  5  1  0
 34 14  1  0
 23 17  1  0
 33 26  1  0
M  END
>  <Binding energies>  (53) 
[-9.9]

>  <Ligand effiencies>  (53) 
[-0.25384615384615383]

>  <Interactions>  (53) 
["V-A:GLU:543:CD:4908, H-A:LEU:363:N:3185, V-A:TYR:539:CZ:4877, V-A:ASP:366:CB:3211, V-A:PRO:540:C:4881, V-A:TYR:539:CE1:4875, V-A:PRO:540:CB:4885, V-A:PRO:540:CA:4883, V-A:ASP:366:CG:3212, V-A:TYR:539:C:4867, V-A:PRO:540:N:4884, V-A:LEU:363:CD1:3188, V-B:ASP:366:CG:8184, V-B:ASP:366:CB:8183, V-B:ASP:366:CA:8181, V-A:TYR:539:CD1:4873, H-B:ASP:366:OD2:8186, H-B:ASP:366:OD1:8185, V-B:TYR:531:CZ:9766, V-B:ILE:369:CG2:8208, H-A:TYR:539:OH:4878, H-B:LYS:534:NZ:9795, V-A:ALA:541:CB:4892, V-B:TYR:531:CE1:9764, V-B:ILE:369:CD1:8210, V-A:LEU:363:CA:3184, V-A:TYR:539:CB:4871, V-B:SER:385:CB:8380, V-B:LEU:373:CD1:8251, V-B:PRO:482:CG:9298, V-B:HIS:383:CD2:8363, V-B:ASP:366:C:8179, V-B:SER:385:CA:8378, V-A:LEU:363:CB:3186, V-B:LEU:373:CD2:8252, V-B:PRO:482:CB:9297, V-B:VAL:384:C:8368"]

$$$$
RR7_Rahimova_2017
     RDKit          3D

 47 53  0  0  0  0  0  0  0  0999 V2000
  128.1200  128.8300   67.1360 C   0  0  0  0  0  0  0  0  0  0  0  0
  127.5990  130.1290   66.8690 O   0  0  0  0  0  0  0  0  0  0  0  0
  127.4960  130.5560   65.5590 C   0  0  0  0  0  0  0  0  0  0  0  0
  127.8690  129.6430   64.5750 C   0  0  0  0  0  0  0  0  0  0  0  0
  127.7940  129.9820   63.2280 C   0  0  0  0  0  0  0  0  0  0  0  0
  127.3540  131.2530   62.8320 C   0  0  0  0  0  0  0  0  0  0  0  0
  127.2290  131.6490   61.3270 C   0  0  0  0  0  0  0  0  0  0  0  0
  126.2350  130.7680   60.7560 O   0  0  0  0  0  0  0  0  0  0  0  0
  126.5440  129.3890   60.5330 C   0  0  0  0  0  0  0  0  0  0  0  0
  126.6390  129.1350   59.0190 C   0  0  1  0  0  0  0  0  0  0  0  0
  127.6430  128.1430   58.8290 O   0  0  0  0  0  0  0  0  0  0  0  0
  127.1430  127.0090   58.1810 C   0  0  1  0  0  0  0  0  0  0  0  0
  127.8260  125.8200   58.6550 N   0  0  0  0  0  0  0  0  0  0  0  0
  129.0220  125.2890   58.2070 C   0  0  0  0  0  0  0  0  0  0  0  0
  129.3910  124.1720   58.7830 N   0  0  0  0  0  0  0  0  0  0  0  0
  128.3650  123.8950   59.6460 C   0  0  0  0  0  0  0  0  0  0  0  0
  128.1480  122.8310   60.5420 C   0  0  0  0  0  0  0  0  0  0  0  0
  129.1260  121.8240   60.6440 N   0  0  0  0  0  0  0  0  0  0  0  0
  130.3320  121.8650   61.2580 C   0  0  0  0  0  0  0  0  0  0  0  0
  130.7830  122.8570   61.8370 O   0  0  0  0  0  0  0  0  0  0  0  0
  131.1550  120.5970   61.1740 C   0  0  0  0  0  0  0  0  0  0  0  0
  132.5310  120.6790   60.9130 C   0  0  0  0  0  0  0  0  0  0  0  0
  133.3070  119.5260   60.8360 C   0  0  0  0  0  0  0  0  0  0  0  0
  132.7150  118.2810   61.0250 C   0  0  0  0  0  0  0  0  0  0  0  0
  131.3510  118.1790   61.2890 C   0  0  0  0  0  0  0  0  0  0  0  0
  130.5740  119.3320   61.3650 C   0  0  0  0  0  0  0  0  0  0  0  0
  126.9990  122.8050   61.2820 N   0  0  0  0  0  0  0  0  0  0  0  0
  126.1120  123.8200   61.1110 C   0  0  0  0  0  0  0  0  0  0  0  0
  126.2220  124.8910   60.2810 N   0  0  0  0  0  0  0  0  0  0  0  0
  127.3600  124.8940   59.5750 C   0  0  0  0  0  0  0  0  0  0  0  0
  125.6400  127.0320   58.4360 C   0  0  0  0  0  0  0  0  0  0  0  0
  125.3800  128.5270   58.3830 C   0  0  2  0  0  0  0  0  0  0  0  0
  125.1690  128.9840   57.0580 O   0  0  0  0  0  0  0  0  0  0  0  0
  126.7090  133.1000   61.1400 C   0  0  0  0  0  0  0  0  0  0  0  0
  125.4100  133.3300   60.6580 C   0  0  0  0  0  0  0  0  0  0  0  0
  124.9380  134.6250   60.4730 C   0  0  0  0  0  0  0  0  0  0  0  0
  125.7630  135.7070   60.7670 C   0  0  0  0  0  0  0  0  0  0  0  0
  127.0540  135.5030   61.2450 C   0  0  0  0  0  0  0  0  0  0  0  0
  127.5250  134.2060   61.4290 C   0  0  0  0  0  0  0  0  0  0  0  0
  128.5390  131.5640   60.4940 C   0  0  0  0  0  0  0  0  0  0  0  0
  128.5240  131.8400   59.1170 C   0  0  0  0  0  0  0  0  0  0  0  0
  129.6880  131.7570   58.3610 C   0  0  0  0  0  0  0  0  0  0  0  0
  130.8830  131.3880   58.9730 C   0  0  0  0  0  0  0  0  0  0  0  0
  130.9180  131.0980   60.3330 C   0  0  0  0  0  0  0  0  0  0  0  0
  129.7520  131.1810   61.0880 C   0  0  0  0  0  0  0  0  0  0  0  0
  126.9670  132.1640   63.8250 C   0  0  0  0  0  0  0  0  0  0  0  0
  127.0410  131.8250   65.1740 C   0  0  0  0  0  0  0  0  0  0  0  0
  1  2  1  0
  2  3  1  0
  3  4  2  0
  4  5  1  0
  5  6  2  0
  6  7  1  0
  7  8  1  0
  8  9  1  0
 10  9  1  1
 10 11  1  0
 11 12  1  0
 12 13  1  1
 13 14  1  0
 14 15  2  0
 15 16  1  0
 16 17  2  0
 17 18  1  0
 18 19  1  0
 19 20  2  0
 19 21  1  0
 21 22  2  0
 22 23  1  0
 23 24  2  0
 24 25  1  0
 25 26  2  0
 17 27  1  0
 27 28  2  0
 28 29  1  0
 29 30  2  0
 12 31  1  0
 31 32  1  0
 32 33  1  6
  7 34  1  0
 34 35  2  0
 35 36  1  0
 36 37  2  0
 37 38  1  0
 38 39  2  0
  7 40  1  0
 40 41  2  0
 41 42  1  0
 42 43  2  0
 43 44  1  0
 44 45  2  0
  6 46  1  0
 46 47  2  0
 47  3  1  0
 32 10  1  0
 39 34  1  0
 45 40  1  0
 30 13  1  0
 30 16  1  0
 26 21  1  0
M  END
>  <Binding energies>  (54) 
[-10.77]

>  <Ligand effiencies>  (54) 
[-0.21979591836734694]

>  <Interactions>  (54) 
["V-A:GLU:543:CD:4908, V-A:TYR:539:CE1:4875, V-A:PRO:540:CB:4885, V-A:PRO:540:CA:4883, V-A:TYR:539:C:4867, V-A:PRO:540:N:4884, V-B:ASP:366:CG:8184, V-B:ALA:541:CB:9864, H-B:TYR:531:OH:9767, V-B:ASP:366:CB:8183, V-A:TYR:539:CD1:4873, V-B:PRO:540:CA:9855, V-A:GLU:543:CG:4907, V-B:TYR:531:CZ:9766, V-B:ILE:369:CG2:8208, H-A:TYR:539:OH:4878, V-B:LEU:475:CD1:9229, V-A:ALA:541:CB:4892, V-A:GLU:543:CB:4906, V-B:HIS:456:CE1:9041, V-B:TYR:484:CE2:9317, V-B:TYR:484:CZ:9318, H-B:TYR:484:OH:9319, V-A:LEU:475:CD1:4257, V-A:ILE:369:CG2:3236, H-B:ALA:541:N:9863, H-B:TYR:539:O:9840, V-B:PRO:482:CG:9298, V-A:PRO:482:CG:4326, V-B:PRO:482:CB:9297, V-A:PRO:482:CB:4325, V-A:SER:385:CB:3408"]

$$$$
RR8_A_Rahimova_2017
     RDKit          3D

 42 46  0  0  0  0  0  0  0  0999 V2000
  123.7850  130.2890   63.3890 O   0  0  0  0  0  0  0  0  0  0  0  0
  124.9910  130.0410   63.2810 C   0  0  0  0  0  0  0  0  0  0  0  0
  125.6580  129.9500   62.0880 O   0  0  0  0  0  0  0  0  0  0  0  0
  126.1920  131.1290   61.5530 C   0  0  1  0  0  0  0  0  0  0  0  0
  126.2330  132.1540   62.5030 O   0  0  0  0  0  0  0  0  0  0  0  0
  127.4130  132.9450   62.3780 C   0  0  2  0  0  0  0  0  0  0  0  0
  127.0000  134.4160   62.1990 C   0  0  0  0  0  0  0  0  0  0  0  0
  126.7210  134.6500   60.8260 O   0  0  0  0  0  0  0  0  0  0  0  0
  125.4130  135.1510   60.5800 C   0  0  0  0  0  0  0  0  0  0  0  0
  125.4920  136.6080   60.1490 C   0  0  0  0  0  0  0  0  0  0  0  0
  124.3190  137.3230   59.8930 C   0  0  0  0  0  0  0  0  0  0  0  0
  124.3890  138.6590   59.5040 C   0  0  0  0  0  0  0  0  0  0  0  0
  125.6310  139.2770   59.3760 C   0  0  0  0  0  0  0  0  0  0  0  0
  126.8050  138.5730   59.6350 C   0  0  0  0  0  0  0  0  0  0  0  0
  126.7350  137.2380   60.0250 C   0  0  0  0  0  0  0  0  0  0  0  0
  128.1500  132.3160   61.1880 C   0  0  1  0  0  0  0  0  0  0  0  0
  129.5640  132.2710   61.3650 O   0  0  0  0  0  0  0  0  0  0  0  0
  130.1290  130.9700   61.4840 C   0  0  0  0  0  0  0  0  0  0  0  0
  131.4300  130.8950   60.6980 C   0  0  0  0  0  0  0  0  0  0  0  0
  132.6230  131.3240   61.2880 C   0  0  0  0  0  0  0  0  0  0  0  0
  133.8150  131.2670   60.5720 C   0  0  0  0  0  0  0  0  0  0  0  0
  133.8120  130.7840   59.2640 C   0  0  0  0  0  0  0  0  0  0  0  0
  132.6280  130.3620   58.6660 C   0  0  0  0  0  0  0  0  0  0  0  0
  131.4350  130.4200   59.3820 C   0  0  0  0  0  0  0  0  0  0  0  0
  127.6490  130.8830   61.1840 C   0  0  2  0  0  0  0  0  0  0  0  0
  127.8220  130.2950   59.8970 O   0  0  0  0  0  0  0  0  0  0  0  0
  127.2520  131.0130   58.8090 C   0  0  0  0  0  0  0  0  0  0  0  0
  128.3070  131.2630   57.7420 C   0  0  0  0  0  0  0  0  0  0  0  0
  129.2990  132.2280   57.9470 C   0  0  0  0  0  0  0  0  0  0  0  0
  130.2690  132.4460   56.9720 C   0  0  0  0  0  0  0  0  0  0  0  0
  130.2480  131.6980   55.7980 C   0  0  0  0  0  0  0  0  0  0  0  0
  129.2670  130.7310   55.5880 C   0  0  0  0  0  0  0  0  0  0  0  0
  128.2960  130.5120   56.5630 C   0  0  0  0  0  0  0  0  0  0  0  0
  125.8880  129.8180   64.4640 C   0  0  0  0  0  0  0  0  0  0  0  0
  126.8700  130.7490   64.8370 C   0  0  0  0  0  0  0  0  0  0  0  0
  127.6870  130.5130   65.9390 C   0  0  0  0  0  0  0  0  0  0  0  0
  127.5470  129.3420   66.6940 C   0  0  0  0  0  0  0  0  0  0  0  0
  128.4170  129.0920   67.8690 N   0  0  0  0  0  0  0  0  0  0  0  0
  128.9060  127.9760   68.0120 O   0  0  0  0  0  0  0  0  0  0  0  0
  128.6190  130.0120   68.6570 O   0  0  0  0  0  0  0  0  0  0  0  0
  126.5690  128.4120   66.3200 C   0  0  0  0  0  0  0  0  0  0  0  0
  125.7510  128.6460   65.2190 C   0  0  0  0  0  0  0  0  0  0  0  0
  1  2  2  0
  2  3  1  0
  4  3  1  1
  4  5  1  0
  5  6  1  0
  6  7  1  6
  7  8  1  0
  8  9  1  0
  9 10  1  0
 10 11  2  0
 11 12  1  0
 12 13  2  0
 13 14  1  0
 14 15  2  0
  6 16  1  0
 16 17  1  1
 17 18  1  0
 18 19  1  0
 19 20  2  0
 20 21  1  0
 21 22  2  0
 22 23  1  0
 23 24  2  0
 16 25  1  0
 25 26  1  6
 26 27  1  0
 27 28  1  0
 28 29  2  0
 29 30  1  0
 30 31  2  0
 31 32  1  0
 32 33  2  0
  2 34  1  0
 34 35  2  0
 35 36  1  0
 36 37  2  0
 37 38  1  0
 38 39  2  0
 38 40  1  0
 37 41  1  0
 41 42  2  0
 25  4  1  0
 33 28  1  0
 42 34  1  0
 15 10  1  0
 24 19  1  0
M  CHG  2  38   1  40  -1
M  END
>  <Binding energies>  (55) 
[-10.98]

>  <Ligand effiencies>  (55) 
[-0.26142857142857145]

>  <Interactions>  (55) 
["V-A:GLU:543:CD:4908, V-A:ASP:366:CB:3211, V-A:ASN:362:CB:3175, V-A:PRO:540:CD:4887, H-A:ALA:541:N:4891, V-A:TYR:539:CE1:4875, V-A:PRO:540:CB:4885, V-A:PRO:540:CA:4883, V-A:ASP:366:CG:3212, V-A:TYR:539:C:4867, V-A:PRO:540:N:4884, V-A:TYR:539:CD1:4873, V-A:GLU:543:CG:4907, V-A:TYR:539:CG:4872, V-B:ILE:369:CG2:8208, V-B:LEU:475:CD1:9229, V-A:ALA:541:CB:4892, V-A:GLU:543:CB:4906, V-B:ARG:545:CZ:9898, V-B:HIS:456:CE1:9041, V-B:TYR:484:CE2:9317, H-B:GLY:454:N:9021, V-B:TYR:484:CZ:9318, V-A:TYR:539:CA:4869, V-A:ASN:362:C:3171, V-A:LEU:363:CA:3184, V-B:HIS:383:CE1:8365, V-A:TYR:539:CB:4871, V-A:VAL:344:CG1:3000, V-B:SER:385:CB:8380, V-B:LEU:373:CD1:8251, V-A:ILE:343:CG2:2991, V-B:PRO:482:CG:9298, V-B:SER:385:CA:8378, V-A:LEU:363:CB:3186, V-B:LEU:373:CD2:8252, V-A:ASN:362:CA:3173"]

$$$$
RR8_B_Rahimova_2017
     RDKit          3D

 42 46  0  0  0  0  0  0  0  0999 V2000
  132.6570  126.0460   56.9160 O   0  0  0  0  0  0  0  0  0  0  0  0
  131.5430  126.5560   57.0760 C   0  0  0  0  0  0  0  0  0  0  0  0
  130.4150  125.8580   57.4100 O   0  0  0  0  0  0  0  0  0  0  0  0
  130.1490  125.6400   58.7740 C   0  0  2  0  0  0  0  0  0  0  0  0
  131.2890  125.2180   59.4670 O   0  0  0  0  0  0  0  0  0  0  0  0
  131.3870  123.7940   59.4940 C   0  0  2  0  0  0  0  0  0  0  0  0
  132.7180  123.3590   58.8560 C   0  0  0  0  0  0  0  0  0  0  0  0
  133.7240  124.3110   59.1770 O   0  0  0  0  0  0  0  0  0  0  0  0
  134.6200  123.9130   60.2040 C   0  0  0  0  0  0  0  0  0  0  0  0
  133.8560  123.7910   61.5150 C   0  0  0  0  0  0  0  0  0  0  0  0
  133.7940  122.5580   62.1700 C   0  0  0  0  0  0  0  0  0  0  0  0
  133.0770  122.4340   63.3570 C   0  0  0  0  0  0  0  0  0  0  0  0
  132.4260  123.5470   63.8870 C   0  0  0  0  0  0  0  0  0  0  0  0
  132.4890  124.7800   63.2430 C   0  0  0  0  0  0  0  0  0  0  0  0
  133.2040  124.9040   62.0540 C   0  0  0  0  0  0  0  0  0  0  0  0
  130.1220  123.3140   58.7720 C   0  0  1  0  0  0  0  0  0  0  0  0
  129.6460  122.1080   59.3770 O   0  0  0  0  0  0  0  0  0  0  0  0
  130.0260  121.8670   60.7340 C   0  0  0  0  0  0  0  0  0  0  0  0
  130.8740  120.6080   60.8820 C   0  0  0  0  0  0  0  0  0  0  0  0
  130.3840  119.5130   61.6000 C   0  0  0  0  0  0  0  0  0  0  0  0
  131.1470  118.3530   61.7060 C   0  0  0  0  0  0  0  0  0  0  0  0
  132.3990  118.2940   61.0970 C   0  0  0  0  0  0  0  0  0  0  0  0
  132.8960  119.3820   60.3840 C   0  0  0  0  0  0  0  0  0  0  0  0
  132.1310  120.5420   60.2750 C   0  0  0  0  0  0  0  0  0  0  0  0
  129.1590  124.4860   58.9220 C   0  0  2  0  0  0  0  0  0  0  0  0
  128.1650  124.4470   57.9000 O   0  0  0  0  0  0  0  0  0  0  0  0
  127.3850  123.2620   57.8480 C   0  0  0  0  0  0  0  0  0  0  0  0
  126.3620  123.3170   58.9690 C   0  0  0  0  0  0  0  0  0  0  0  0
  126.7600  123.1390   60.2970 C   0  0  0  0  0  0  0  0  0  0  0  0
  125.8110  123.1730   61.3160 C   0  0  0  0  0  0  0  0  0  0  0  0
  124.4700  123.3830   61.0040 C   0  0  0  0  0  0  0  0  0  0  0  0
  124.0660  123.5620   59.6820 C   0  0  0  0  0  0  0  0  0  0  0  0
  125.0150  123.5300   58.6640 C   0  0  0  0  0  0  0  0  0  0  0  0
  131.2750  128.0210   56.8860 C   0  0  0  0  0  0  0  0  0  0  0  0
  132.1980  128.9990   57.2850 C   0  0  0  0  0  0  0  0  0  0  0  0
  131.9190  130.3490   57.1040 C   0  0  0  0  0  0  0  0  0  0  0  0
  130.7090  130.7570   56.5300 C   0  0  0  0  0  0  0  0  0  0  0  0
  130.4030  132.2000   56.3620 N   0  0  0  0  0  0  0  0  0  0  0  0
  131.3290  132.9770   56.1460 O   0  0  0  0  0  0  0  0  0  0  0  0
  129.2320  132.5650   56.4390 O   0  0  0  0  0  0  0  0  0  0  0  0
  129.7910  129.7800   56.1250 C   0  0  0  0  0  0  0  0  0  0  0  0
  130.0720  128.4290   56.2990 C   0  0  0  0  0  0  0  0  0  0  0  0
  1  2  2  0
  2  3  1  0
  4  3  1  6
  4  5  1  0
  5  6  1  0
  6  7  1  6
  7  8  1  0
  8  9  1  0
  9 10  1  0
 10 11  2  0
 11 12  1  0
 12 13  2  0
 13 14  1  0
 14 15  2  0
  6 16  1  0
 16 17  1  1
 17 18  1  0
 18 19  1  0
 19 20  2  0
 20 21  1  0
 21 22  2  0
 22 23  1  0
 23 24  2  0
 16 25  1  0
 25 26  1  6
 26 27  1  0
 27 28  1  0
 28 29  2  0
 29 30  1  0
 30 31  2  0
 31 32  1  0
 32 33  2  0
  2 34  1  0
 34 35  2  0
 35 36  1  0
 36 37  2  0
 37 38  1  0
 38 39  2  0
 38 40  1  0
 37 41  1  0
 41 42  2  0
 25  4  1  0
 33 28  1  0
 42 34  1  0
 15 10  1  0
 24 19  1  0
M  CHG  2  38   1  40  -1
M  END
>  <Binding energies>  (56) 
[-10.08]

>  <Ligand effiencies>  (56) 
[-0.24]

>  <Interactions>  (56) 
["V-A:ASP:366:CB:3211, V-A:ASP:366:CG:3212, V-A:TYR:539:C:4867, V-A:PRO:540:N:4884, H-A:TYR:531:OH:4795, H-B:TYR:539:OH:9850, V-B:ASP:366:CG:8184, V-B:PRO:540:CB:9857, V-B:TYR:539:CZ:9849, V-B:ALA:541:CB:9864, V-B:TYR:539:CD2:9846, V-B:LEU:363:CD1:8160, V-B:TYR:539:CE2:9848, V-B:PRO:540:CA:9855, V-B:MET:535:CE:9807, H-A:TYR:539:N:4870, V-A:LEU:475:CD1:4257, V-B:LEU:363:CA:8156, V-B:LEU:363:CB:8158, V-A:ILE:369:CD1:3238, V-A:ILE:369:CG2:3236, V-A:GLY:454:CA:4048, V-B:ASN:362:CB:8147, V-B:ASN:362:C:8143, V-A:PRO:482:CG:4326, V-A:ASP:366:CA:3209, V-A:ILE:369:CB:3235, V-A:PRO:482:CB:4325"]

$$$$
RR9_Rahimova_2017
     RDKit          3D

 36 40  0  0  0  0  0  0  0  0999 V2000
  129.8580  120.8280   61.2830 C   0  0  0  0  0  0  0  0  0  0  0  0
  129.7530  122.0500   62.2010 C   0  0  0  0  0  0  0  0  0  0  0  0
  128.3770  122.3840   62.3630 O   0  0  0  0  0  0  0  0  0  0  0  0
  127.9690  123.6900   62.1700 C   0  0  0  0  0  0  0  0  0  0  0  0
  128.7450  124.6800   62.7690 C   0  0  0  0  0  0  0  0  0  0  0  0
  128.4100  126.0230   62.6320 C   0  0  0  0  0  0  0  0  0  0  0  0
  127.2850  126.4150   61.8900 C   0  0  0  0  0  0  0  0  0  0  0  0
  126.9160  127.8610   61.7430 C   0  0  0  0  0  0  0  0  0  0  0  0
  127.8280  128.8070   61.2490 C   0  0  0  0  0  0  0  0  0  0  0  0
  127.4720  130.1600   61.1010 C   0  0  0  0  0  0  0  0  0  0  0  0
  128.4600  131.1040   60.4720 C   0  0  0  0  0  0  0  0  0  0  0  0
  129.2840  131.6980   61.1680 O   0  0  0  0  0  0  0  0  0  0  0  0
  128.3540  131.2590   59.1370 N   0  0  0  0  0  0  0  0  0  0  0  0
  129.1100  132.2140   58.3200 C   0  0  0  0  0  0  0  0  0  0  0  0
  130.2200  131.5450   57.4770 C   0  0  0  0  0  0  0  0  0  0  0  0
  129.7990  131.1530   56.0650 C   0  0  0  0  0  0  0  0  0  0  0  0
  129.6840  129.8040   55.7160 C   0  0  0  0  0  0  0  0  0  0  0  0
  129.2660  129.4500   54.4350 C   0  0  0  0  0  0  0  0  0  0  0  0
  128.9700  130.4450   53.5070 C   0  0  0  0  0  0  0  0  0  0  0  0
  129.0870  131.7920   53.8470 C   0  0  0  0  0  0  0  0  0  0  0  0
  129.5040  132.1460   55.1280 C   0  0  0  0  0  0  0  0  0  0  0  0
  126.1620  130.5120   61.5080 C   0  0  0  0  0  0  0  0  0  0  0  0
  125.3350  131.6920   61.6060 C   0  0  0  0  0  0  0  0  0  0  0  0
  125.6810  133.1180   61.3330 C   0  0  0  0  0  0  0  0  0  0  0  0
  124.8560  133.8990   60.5170 C   0  0  0  0  0  0  0  0  0  0  0  0
  125.1890  135.2240   60.2510 C   0  0  0  0  0  0  0  0  0  0  0  0
  126.3460  135.7760   60.8030 C   0  0  0  0  0  0  0  0  0  0  0  0
  126.7190  137.2160   60.4980 C   0  0  0  0  0  0  0  0  0  0  0  0
  127.1730  135.0000   61.6170 C   0  0  0  0  0  0  0  0  0  0  0  0
  126.8370  133.6760   61.8840 C   0  0  0  0  0  0  0  0  0  0  0  0
  124.1290  131.3760   62.0220 N   0  0  0  0  0  0  0  0  0  0  0  0
  124.1090  130.0560   62.2680 N   0  0  0  0  0  0  0  0  0  0  0  0
  125.3230  129.4770   61.9850 C   0  0  0  0  0  0  0  0  0  0  0  0
  125.6480  128.1920   62.1190 N   0  0  0  0  0  0  0  0  0  0  0  0
  126.5080  125.4120   61.2930 C   0  0  0  0  0  0  0  0  0  0  0  0
  126.8420  124.0670   61.4280 C   0  0  0  0  0  0  0  0  0  0  0  0
  1  2  1  0
  2  3  1  0
  3  4  1  0
  4  5  2  0
  5  6  1  0
  6  7  2  0
  7  8  1  0
  8  9  2  0
  9 10  1  0
 10 11  1  0
 11 12  2  0
 11 13  1  0
 13 14  1  0
 14 15  1  0
 15 16  1  0
 16 17  2  0
 17 18  1  0
 18 19  2  0
 19 20  1  0
 20 21  2  0
 10 22  2  0
 22 23  1  0
 23 24  1  0
 24 25  2  0
 25 26  1  0
 26 27  2  0
 27 28  1  0
 27 29  1  0
 29 30  2  0
 23 31  2  0
 31 32  1  0
 32 33  1  0
 33 34  2  0
  7 35  1  0
 35 36  2  0
 36  4  1  0
 34  8  1  0
 21 16  1  0
 33 22  1  0
 30 24  1  0
M  END
>  <Binding energies>  (57) 
[-9.24]

>  <Ligand effiencies>  (57) 
[-0.2431578947368421]

>  <Interactions>  (57) 
["V-A:ILE:538:CA:4860, H-A:ALA:541:N:4891, V-A:ILE:538:CG2:4863, V-A:ILE:538:C:4858, V-A:ILE:538:CB:4862, V-A:TYR:539:CE1:4875, V-A:PRO:540:CA:4883, V-A:TYR:539:C:4867, V-A:PRO:540:N:4884, V-B:ASP:366:CG:8184, V-B:ALA:541:CB:9864, V-B:GLU:543:CD:9880, V-A:TYR:539:CD1:4873, H-B:ASP:366:OD2:8186, H-B:ARG:545:NH2:9900, V-B:ILE:369:CG2:8208, V-B:LEU:475:CD1:9229, V-A:ALA:541:CB:4892, H-B:ALA:541:N:9863, V-A:TYR:539:CB:4871, V-B:LEU:373:CD1:8251, V-B:PRO:482:CG:9298, V-B:LYS:534:CE:9794, V-A:MET:535:CB:4832, V-A:MET:535:CG:4833, V-B:PRO:482:CB:9297"]

$$$$
