1a_Grossjean_2025
     RDKit          3D

 26 27  0  0  0  0  0  0  0  0999 V2000
  124.5100  123.6680   58.7920 C   0  0  0  0  0  0  0  0  0  0  0  0
  125.5200  124.5680   58.0730 C   0  0  0  0  0  0  0  0  0  0  0  0
  125.9570  123.9290   56.8800 O   0  0  0  0  0  0  0  0  0  0  0  0
  126.7320  122.8140   56.9250 C   0  0  0  0  0  0  0  0  0  0  0  0
  126.3850  121.7260   56.4560 O   0  0  0  0  0  0  0  0  0  0  0  0
  128.0460  123.0320   57.6180 C   0  0  0  0  0  0  0  0  0  0  0  0
  128.4100  122.1870   58.6750 C   0  0  0  0  0  0  0  0  0  0  0  0
  129.6200  122.3660   59.3400 C   0  0  0  0  0  0  0  0  0  0  0  0
  130.4880  123.3920   58.9660 C   0  0  0  0  0  0  0  0  0  0  0  0
  131.6820  123.4830   59.7090 N   0  0  0  0  0  0  0  0  0  0  0  0
  132.9660  123.4020   59.3020 C   0  0  0  0  0  0  0  0  0  0  0  0
  133.3380  123.2260   58.1410 O   0  0  0  0  0  0  0  0  0  0  0  0
  134.0150  123.5460   60.4070 C   0  0  0  0  0  0  0  0  0  0  0  0
  134.2460  122.0010   61.3370 S   0  0  0  0  0  0  0  0  0  0  0  0
  132.6580  121.2080   61.4590 C   0  0  0  0  0  0  0  0  0  0  0  0
  131.7050  121.9790   62.0420 N   0  0  0  0  0  0  0  0  0  0  0  0
  130.4590  121.4700   62.1900 C   0  0  0  0  0  0  0  0  0  0  0  0
  129.4500  122.3840   62.8610 C   0  0  0  0  0  0  0  0  0  0  0  0
  130.1110  120.1920   61.7590 C   0  0  0  0  0  0  0  0  0  0  0  0
  131.0810  119.3970   61.1390 C   0  0  0  0  0  0  0  0  0  0  0  0
  130.6740  118.0050   60.6610 C   0  0  0  0  0  0  0  0  0  0  0  0
  132.3890  119.9080   60.9700 C   0  0  0  0  0  0  0  0  0  0  0  0
  133.4080  119.1130   60.2790 C   0  0  0  0  0  0  0  0  0  0  0  0
  134.2100  118.4840   59.7330 N   0  0  0  0  0  0  0  0  0  0  0  0
  130.1350  124.2390   57.9040 C   0  0  0  0  0  0  0  0  0  0  0  0
  128.9250  124.0590   57.2400 C   0  0  0  0  0  0  0  0  0  0  0  0
  1  2  1  0
  2  3  1  0
  3  4  1  0
  4  5  2  0
  4  6  1  0
  6  7  2  0
  7  8  1  0
  8  9  2  0
  9 10  1  0
 10 11  1  0
 11 12  2  0
 11 13  1  0
 13 14  1  0
 14 15  1  0
 15 16  2  0
 16 17  1  0
 17 18  1  0
 17 19  2  0
 19 20  1  0
 20 21  1  0
 20 22  2  0
 22 23  1  0
 23 24  3  0
  9 25  1  0
 25 26  2  0
 26  6  1  0
 22 15  1  0
M  END
>  <Binding energies>  (1) 
[-8.21]

>  <Ligand effiencies>  (1) 
[-0.3040740740740741]

>  <Interactions>  (1) 
["V-A:ASP:366:CG:3212, H-B:TYR:539:OH:9850, V-B:PRO:540:CB:9857, V-B:TYR:539:CZ:9849, V-B:ALA:541:CB:9864, H-B:TYR:531:OH:9767, V-B:PRO:540:N:9856, V-B:TYR:539:CD2:9846, V-B:LEU:363:CD1:8160, V-B:TYR:539:CE2:9848, H-B:TYR:539:N:9842, V-B:PRO:540:CA:9855, V-B:ALA:541:CA:9862, V-B:MET:535:CE:9807, V-B:TYR:531:CE2:9765, V-A:LEU:475:CD1:4257, V-B:LEU:363:CA:8156, V-B:TYR:539:C:9839, V-B:LEU:363:CB:8158, V-A:ILE:369:CD1:3238, V-A:ILE:369:CG2:3236, V-A:SER:385:CA:3406, V-A:PRO:482:CG:4326, V-A:ASP:366:CA:3209, V-A:ILE:369:CB:3235, H-A:HIS:383:NE2:3393, H-A:SER:385:OG:3409"]

$$$$
1aa_Ghoteimi_2023
     RDKit          3D

 40 43  0  0  0  0  0  0  0  0999 V2000
  129.8290  130.9990   54.2650 C   0  0  0  0  0  0  0  0  0  0  0  0
  128.4860  131.6240   54.6540 C   0  0  0  0  0  0  0  0  0  0  0  0
  127.4300  130.7470   54.2800 O   0  0  0  0  0  0  0  0  0  0  0  0
  127.2590  129.5520   54.9000 C   0  0  0  0  0  0  0  0  0  0  0  0
  127.5450  128.4680   54.3800 O   0  0  0  0  0  0  0  0  0  0  0  0
  126.6860  129.6760   56.2820 C   0  0  0  0  0  0  0  0  0  0  0  0
  125.3030  129.6350   56.5190 C   0  0  0  0  0  0  0  0  0  0  0  0
  124.8000  129.7530   57.8130 C   0  0  0  0  0  0  0  0  0  0  0  0
  125.6760  129.9110   58.8970 C   0  0  0  0  0  0  0  0  0  0  0  0
  125.2840  130.0410   60.2420 N   0  0  0  0  0  0  0  0  0  0  0  0
  124.0850  130.3630   60.7790 C   0  0  0  0  0  0  0  0  0  0  0  0
  123.0670  130.6080   60.1310 O   0  0  0  0  0  0  0  0  0  0  0  0
  123.9930  130.4250   62.3120 C   0  0  0  0  0  0  0  0  0  0  0  0
  125.2460  130.8360   62.8740 O   0  0  0  0  0  0  0  0  0  0  0  0
  126.1050  131.6520   62.1510 C   0  0  0  0  0  0  0  0  0  0  0  0
  125.6610  132.8870   61.7880 N   0  0  0  0  0  0  0  0  0  0  0  0
  126.4680  133.7100   61.0680 C   0  0  0  0  0  0  0  0  0  0  0  0
  125.9050  135.0550   60.7090 C   0  0  0  0  0  0  0  0  0  0  0  0
  126.6660  136.2230   60.8710 C   0  0  0  0  0  0  0  0  0  0  0  0
  126.1460  137.4710   60.5410 C   0  0  0  0  0  0  0  0  0  0  0  0
  124.8520  137.5920   60.0380 C   0  0  0  0  0  0  0  0  0  0  0  0
  124.4210  138.8700   59.7390 O   0  0  0  0  0  0  0  0  0  0  0  0
  124.8560  139.9570   60.5490 C   0  0  0  0  0  0  0  0  0  0  0  0
  124.0820  136.4340   59.8650 C   0  0  0  0  0  0  0  0  0  0  0  0
  124.6040  135.1870   60.1950 C   0  0  0  0  0  0  0  0  0  0  0  0
  127.7610  133.3090   60.7110 C   0  0  0  0  0  0  0  0  0  0  0  0
  128.2460  132.0470   61.0820 C   0  0  0  0  0  0  0  0  0  0  0  0
  129.6380  131.6830   60.6800 C   0  0  0  0  0  0  0  0  0  0  0  0
  130.6030  131.4140   61.6550 C   0  0  0  0  0  0  0  0  0  0  0  0
  131.9000  131.0640   61.2890 C   0  0  0  0  0  0  0  0  0  0  0  0
  132.2560  130.9700   59.9440 C   0  0  0  0  0  0  0  0  0  0  0  0
  133.5650  130.6170   59.6750 O   0  0  0  0  0  0  0  0  0  0  0  0
  133.9400  130.3110   58.3370 C   0  0  0  0  0  0  0  0  0  0  0  0
  131.2880  131.2320   58.9630 C   0  0  0  0  0  0  0  0  0  0  0  0
  129.9930  131.5820   59.3310 C   0  0  0  0  0  0  0  0  0  0  0  0
  127.3900  131.1930   61.8150 C   0  0  0  0  0  0  0  0  0  0  0  0
  127.7930  129.8420   62.2080 C   0  0  0  0  0  0  0  0  0  0  0  0
  128.1100  128.7730   62.5200 N   0  0  0  0  0  0  0  0  0  0  0  0
  127.0520  129.9540   58.6640 C   0  0  0  0  0  0  0  0  0  0  0  0
  127.5520  129.8380   57.3710 C   0  0  0  0  0  0  0  0  0  0  0  0
  1  2  1  0
  2  3  1  0
  3  4  1  0
  4  5  2  0
  4  6  1  0
  6  7  2  0
  7  8  1  0
  8  9  2  0
  9 10  1  0
 10 11  1  0
 11 12  2  0
 11 13  1  0
 13 14  1  0
 14 15  1  0
 15 16  2  0
 16 17  1  0
 17 18  1  0
 18 19  2  0
 19 20  1  0
 20 21  2  0
 21 22  1  0
 22 23  1  0
 21 24  1  0
 24 25  2  0
 17 26  2  0
 26 27  1  0
 27 28  1  0
 28 29  2  0
 29 30  1  0
 30 31  2  0
 31 32  1  0
 32 33  1  0
 31 34  1  0
 34 35  2  0
 27 36  2  0
 36 37  1  0
 37 38  3  0
  9 39  1  0
 39 40  2  0
 40  6  1  0
 36 15  1  0
 25 18  1  0
 35 28  1  0
M  END
>  <Binding energies>  (2) 
[-8.94]

>  <Ligand effiencies>  (2) 
[-0.21804878048780488]

>  <Interactions>  (2) 
["V-A:GLU:543:CD:4908, H-A:LEU:363:N:3185, V-A:TYR:539:CZ:4877, V-A:ASP:366:CB:3211, V-A:ILE:538:CA:4860, V-A:ILE:538:CG2:4863, V-A:TYR:539:CE1:4875, V-A:TYR:539:CE2:4876, V-A:PRO:540:CB:4885, V-A:PRO:540:CA:4883, V-A:ASP:366:CG:3212, V-A:TYR:539:C:4867, V-A:PRO:540:N:4884, V-A:LEU:363:CD1:3188, V-B:ASP:366:CG:8184, H-B:TYR:531:OH:9767, V-B:ASP:366:CB:8183, V-B:ASP:366:CA:8181, V-A:TYR:539:CD1:4873, V-B:TYR:531:CZ:9766, V-B:ILE:369:CG2:8208, H-A:TYR:539:OH:4878, H-B:LYS:534:NZ:9795, V-A:ALA:541:CB:4892, V-B:TYR:531:CE1:9764, V-A:ALA:541:CA:4890, V-B:ILE:369:CD1:8210, V-A:ASN:362:C:3171, V-A:LEU:363:CA:3184, V-B:HIS:383:CE1:8365, V-A:TYR:539:CB:4871, V-B:SER:385:CB:8380, V-B:LEU:373:CD1:8251, V-B:PRO:482:CG:9298, V-B:HIS:383:CD2:8363, V-B:ASP:366:C:8179, V-B:HIS:383:CG:8361, V-B:SER:385:CA:8378, V-A:LEU:363:CB:3186, V-B:PRO:482:CB:9297"]

$$$$
1b_Grossjean_2025
     RDKit          3D

 25 26  0  0  0  0  0  0  0  0999 V2000
  125.2360  124.3090   58.0010 C   0  0  0  0  0  0  0  0  0  0  0  0
  125.9850  123.9110   56.8610 O   0  0  0  0  0  0  0  0  0  0  0  0
  126.7510  122.7900   56.8870 C   0  0  0  0  0  0  0  0  0  0  0  0
  126.4160  121.7250   56.3580 O   0  0  0  0  0  0  0  0  0  0  0  0
  128.0510  122.9750   57.6160 C   0  0  0  0  0  0  0  0  0  0  0  0
  128.4010  122.1850   58.7220 C   0  0  0  0  0  0  0  0  0  0  0  0
  129.6130  122.3830   59.3760 C   0  0  0  0  0  0  0  0  0  0  0  0
  130.4990  123.3690   58.9420 C   0  0  0  0  0  0  0  0  0  0  0  0
  131.6940  123.4800   59.6790 N   0  0  0  0  0  0  0  0  0  0  0  0
  132.9790  123.4030   59.2710 C   0  0  0  0  0  0  0  0  0  0  0  0
  133.3520  123.2160   58.1130 O   0  0  0  0  0  0  0  0  0  0  0  0
  134.0270  123.5800   60.3710 C   0  0  0  0  0  0  0  0  0  0  0  0
  134.2420  122.0710   61.3620 S   0  0  0  0  0  0  0  0  0  0  0  0
  132.6530  121.2770   61.4720 C   0  0  0  0  0  0  0  0  0  0  0  0
  131.7110  122.0250   62.0990 N   0  0  0  0  0  0  0  0  0  0  0  0
  130.4640  121.5180   62.2370 C   0  0  0  0  0  0  0  0  0  0  0  0
  129.4590  122.4160   62.9350 C   0  0  0  0  0  0  0  0  0  0  0  0
  130.1110  120.2530   61.7700 C   0  0  0  0  0  0  0  0  0  0  0  0
  131.0810  119.4660   61.1430 C   0  0  0  0  0  0  0  0  0  0  0  0
  130.6740  118.0760   60.6540 C   0  0  0  0  0  0  0  0  0  0  0  0
  132.3900  119.9740   60.9870 C   0  0  0  0  0  0  0  0  0  0  0  0
  133.4340  119.1500   60.3720 C   0  0  0  0  0  0  0  0  0  0  0  0
  134.2550  118.4970   59.8860 N   0  0  0  0  0  0  0  0  0  0  0  0
  130.1570  124.1620   57.8370 C   0  0  0  0  0  0  0  0  0  0  0  0
  128.9450  123.9630   57.1830 C   0  0  0  0  0  0  0  0  0  0  0  0
  1  2  1  0
  2  3  1  0
  3  4  2  0
  3  5  1  0
  5  6  2  0
  6  7  1  0
  7  8  2  0
  8  9  1  0
  9 10  1  0
 10 11  2  0
 10 12  1  0
 12 13  1  0
 13 14  1  0
 14 15  2  0
 15 16  1  0
 16 17  1  0
 16 18  2  0
 18 19  1  0
 19 20  1  0
 19 21  2  0
 21 22  1  0
 22 23  3  0
  8 24  1  0
 24 25  2  0
 25  5  1  0
 21 14  1  0
M  END
>  <Binding energies>  (3) 
[-7.94]

>  <Ligand effiencies>  (3) 
[-0.3053846153846154]

>  <Interactions>  (3) 
["V-A:ASP:366:CG:3212, H-B:TYR:539:OH:9850, V-B:TYR:539:CZ:9849, V-B:ALA:541:CB:9864, H-B:TYR:531:OH:9767, V-B:PRO:540:N:9856, V-B:TYR:539:CD2:9846, V-B:LEU:363:CD1:8160, V-B:TYR:539:CE2:9848, H-B:TYR:539:N:9842, V-B:PRO:540:CA:9855, V-B:ALA:541:CA:9862, V-B:MET:535:CE:9807, V-B:TYR:531:CE2:9765, V-A:LEU:475:CD1:4257, V-B:TYR:539:C:9839, V-A:ILE:369:CD1:3238, V-A:ILE:369:CG2:3236, V-A:SER:385:CA:3406, V-A:PRO:482:CG:4326, V-A:ASP:366:CA:3209, V-A:ILE:369:CB:3235, H-A:HIS:383:NE2:3393, H-A:SER:385:OG:3409"]

$$$$
1c_Grossjean_2025
     RDKit          3D

 23 24  0  0  0  0  0  0  0  0999 V2000
  125.1670  122.0430   55.1370 C   0  0  0  0  0  0  0  0  0  0  0  0
  126.3160  121.4720   55.7550 O   0  0  0  0  0  0  0  0  0  0  0  0
  126.8220  122.0510   56.9020 C   0  0  0  0  0  0  0  0  0  0  0  0
  125.9040  122.7010   57.7280 C   0  0  0  0  0  0  0  0  0  0  0  0
  126.3170  123.3150   58.9070 C   0  0  0  0  0  0  0  0  0  0  0  0
  127.6690  123.2780   59.2800 C   0  0  0  0  0  0  0  0  0  0  0  0
  128.1960  123.8740   60.4430 N   0  0  0  0  0  0  0  0  0  0  0  0
  128.1300  123.4550   61.7250 C   0  0  0  0  0  0  0  0  0  0  0  0
  127.5870  122.4210   62.1120 O   0  0  0  0  0  0  0  0  0  0  0  0
  128.8080  124.3690   62.7480 C   0  0  0  0  0  0  0  0  0  0  0  0
  129.8080  123.4280   63.9380 S   0  0  0  0  0  0  0  0  0  0  0  0
  130.9200  122.3750   63.0300 C   0  0  0  0  0  0  0  0  0  0  0  0
  130.3140  121.2870   62.4910 N   0  0  0  0  0  0  0  0  0  0  0  0
  131.0600  120.4120   61.7770 C   0  0  0  0  0  0  0  0  0  0  0  0
  130.3110  119.2260   61.1980 C   0  0  0  0  0  0  0  0  0  0  0  0
  132.4290  120.5770   61.5810 C   0  0  0  0  0  0  0  0  0  0  0  0
  133.0690  121.6810   62.1520 C   0  0  0  0  0  0  0  0  0  0  0  0
  134.5740  121.8310   61.9370 C   0  0  0  0  0  0  0  0  0  0  0  0
  132.3100  122.6080   62.9040 C   0  0  0  0  0  0  0  0  0  0  0  0
  132.9730  123.7410   63.5550 C   0  0  0  0  0  0  0  0  0  0  0  0
  133.4960  124.6360   64.0680 N   0  0  0  0  0  0  0  0  0  0  0  0
  128.5920  122.6390   58.4510 C   0  0  0  0  0  0  0  0  0  0  0  0
  128.1750  122.0270   57.2720 C   0  0  0  0  0  0  0  0  0  0  0  0
  1  2  1  0
  2  3  1  0
  3  4  2  0
  4  5  1  0
  5  6  2  0
  6  7  1  0
  7  8  1  0
  8  9  2  0
  8 10  1  0
 10 11  1  0
 11 12  1  0
 12 13  2  0
 13 14  1  0
 14 15  1  0
 14 16  2  0
 16 17  1  0
 17 18  1  0
 17 19  2  0
 19 20  1  0
 20 21  3  0
  6 22  1  0
 22 23  2  0
 23  3  1  0
 19 12  1  0
M  END
>  <Binding energies>  (4) 
[-7.91]

>  <Ligand effiencies>  (4) 
[-0.32958333333333334]

>  <Interactions>  (4) 
["V-B:PRO:540:CB:9857, V-B:TYR:539:CZ:9849, V-B:TYR:539:CE1:9847, V-B:ALA:541:CB:9864, V-B:GLU:543:CD:9880, V-B:PRO:540:N:9856, V-B:TYR:539:CD2:9846, V-B:ILE:538:CG2:9835, V-B:LEU:363:CD1:8160, V-B:PRO:540:CD:9859, V-B:TYR:539:CE2:9848, H-B:TYR:539:N:9842, V-B:PRO:540:CA:9855, V-B:MET:535:CE:9807, H-A:ARG:545:NH2:4928, V-A:LEU:475:CD1:4257, H-A:GLY:454:N:4049, H-A:TYR:484:OH:4347, V-B:TYR:539:C:9839, V-A:ILE:369:CD1:3238, V-A:ILE:369:CG2:3236, V-A:GLY:454:CA:4048, H-B:ALA:541:N:9863, V-A:PRO:482:CG:4326, V-B:TYR:539:CA:9841, V-B:TYR:539:CG:9844, V-B:TYR:539:CD1:9845, V-B:ILE:538:CA:9832, V-B:ILE:538:CB:9834, V-B:ILE:538:CG1:9836, V-B:MET:535:CG:9805"]

$$$$
1d_Grossjean_2025
     RDKit          3D

 21 22  0  0  0  0  0  0  0  0999 V2000
  125.7350  129.9910   57.4990 C   0  0  0  0  0  0  0  0  0  0  0  0
  126.9010  129.1600   57.0000 C   0  0  0  0  0  0  0  0  0  0  0  0
  127.4210  128.1080   57.7520 C   0  0  0  0  0  0  0  0  0  0  0  0
  128.4910  127.3690   57.2370 C   0  0  0  0  0  0  0  0  0  0  0  0
  129.0340  126.2100   58.0720 C   0  0  0  0  0  0  0  0  0  0  0  0
  129.0240  127.7110   55.9730 C   0  0  0  0  0  0  0  0  0  0  0  0
  130.1120  126.9220   55.3930 C   0  0  0  0  0  0  0  0  0  0  0  0
  130.9720  126.2950   54.9370 N   0  0  0  0  0  0  0  0  0  0  0  0
  128.4490  128.8100   55.2910 C   0  0  0  0  0  0  0  0  0  0  0  0
  128.9930  129.3790   53.6960 S   0  0  0  0  0  0  0  0  0  0  0  0
  129.3380  131.1590   53.8420 C   0  0  0  0  0  0  0  0  0  0  0  0
  129.8200  131.5380   55.2430 C   0  0  0  0  0  0  0  0  0  0  0  0
  129.3570  132.5410   55.7870 O   0  0  0  0  0  0  0  0  0  0  0  0
  130.7260  130.6990   55.7900 N   0  0  0  0  0  0  0  0  0  0  0  0
  131.3780  130.7620   57.0360 C   0  0  0  0  0  0  0  0  0  0  0  0
  130.5530  130.9920   58.1400 C   0  0  0  0  0  0  0  0  0  0  0  0
  131.0960  131.0670   59.4200 C   0  0  0  0  0  0  0  0  0  0  0  0
  132.4670  130.9050   59.5980 C   0  0  0  0  0  0  0  0  0  0  0  0
  133.3000  130.6670   58.5070 C   0  0  0  0  0  0  0  0  0  0  0  0
  132.7600  130.5920   57.2260 C   0  0  0  0  0  0  0  0  0  0  0  0
  127.3970  129.5070   55.7900 N   0  0  0  0  0  0  0  0  0  0  0  0
  1  2  1  0
  2  3  2  0
  3  4  1  0
  4  5  1  0
  4  6  2  0
  6  7  1  0
  7  8  3  0
  6  9  1  0
  9 10  1  0
 10 11  1  0
 11 12  1  0
 12 13  2  0
 12 14  1  0
 14 15  1  0
 15 16  2  0
 16 17  1  0
 17 18  2  0
 18 19  1  0
 19 20  2  0
  9 21  2  0
 21  2  1  0
 20 15  1  0
M  END
>  <Binding energies>  (5) 
[-7.25]

>  <Ligand effiencies>  (5) 
[-0.32954545454545453]

>  <Interactions>  (5) 
["V-A:TYR:539:CZ:4877, V-A:ASP:366:CB:3211, V-A:ILE:538:CA:4860, V-A:ILE:538:CG2:4863, V-A:ILE:538:CB:4862, V-A:TYR:539:CE1:4875, V-A:PRO:540:CB:4885, V-A:PRO:540:CA:4883, V-A:ASP:366:CG:3212, V-A:LEU:363:CD1:3188, H-A:TYR:531:OH:4795, H-B:TYR:539:OH:9850, H-B:TYR:531:OH:9767, V-B:TYR:531:CZ:9766, H-A:TYR:539:N:4870, V-A:LEU:363:CA:3184, V-B:LYS:534:CE:9794"]

$$$$
1e_Grossjean_2025
     RDKit          3D

 22 23  0  0  0  0  0  0  0  0999 V2000
  125.2470  122.2530   55.3560 C   0  0  0  0  0  0  0  0  0  0  0  0
  125.9720  122.7980   56.5720 C   0  0  0  0  0  0  0  0  0  0  0  0
  126.9460  122.0500   57.2390 C   0  0  0  0  0  0  0  0  0  0  0  0
  127.5690  122.6150   58.3510 C   0  0  0  0  0  0  0  0  0  0  0  0
  127.2080  123.8990   58.7680 C   0  0  0  0  0  0  0  0  0  0  0  0
  126.2280  124.5950   58.0510 C   0  0  0  0  0  0  0  0  0  0  0  0
  125.8980  125.8780   58.5240 N   0  0  0  0  0  0  0  0  0  0  0  0
  126.5840  127.0320   58.3730 C   0  0  0  0  0  0  0  0  0  0  0  0
  127.6580  127.1430   57.7790 O   0  0  0  0  0  0  0  0  0  0  0  0
  125.9610  128.2670   59.0270 C   0  0  0  0  0  0  0  0  0  0  0  0
  125.8720  129.6740   57.8790 S   0  0  0  0  0  0  0  0  0  0  0  0
  127.4690  130.4620   57.8170 C   0  0  0  0  0  0  0  0  0  0  0  0
  127.9490  130.8040   59.0400 N   0  0  0  0  0  0  0  0  0  0  0  0
  129.1550  131.4130   59.1210 C   0  0  0  0  0  0  0  0  0  0  0  0
  129.6290  131.7570   60.5200 C   0  0  0  0  0  0  0  0  0  0  0  0
  129.9200  131.7160   57.9970 C   0  0  0  0  0  0  0  0  0  0  0  0
  129.4240  131.3920   56.7310 C   0  0  0  0  0  0  0  0  0  0  0  0
  130.2750  131.7520   55.5130 C   0  0  0  0  0  0  0  0  0  0  0  0
  128.1650  130.7580   56.6210 C   0  0  0  0  0  0  0  0  0  0  0  0
  127.6060  130.4650   55.3000 C   0  0  0  0  0  0  0  0  0  0  0  0
  127.1660  130.2340   54.2540 N   0  0  0  0  0  0  0  0  0  0  0  0
  125.6110  124.0460   56.9630 N   0  0  0  0  0  0  0  0  0  0  0  0
  1  2  1  0
  2  3  2  0
  3  4  1  0
  4  5  2  0
  5  6  1  0
  6  7  1  0
  7  8  1  0
  8  9  2  0
  8 10  1  0
 10 11  1  0
 11 12  1  0
 12 13  2  0
 13 14  1  0
 14 15  1  0
 14 16  2  0
 16 17  1  0
 17 18  1  0
 17 19  2  0
 19 20  1  0
 20 21  3  0
  6 22  2  0
 22  2  1  0
 19 12  1  0
M  END
>  <Binding energies>  (6) 
[-7.89]

>  <Ligand effiencies>  (6) 
[-0.34304347826086956]

>  <Interactions>  (6) 
["V-A:TYR:539:CZ:4877, V-A:ILE:538:CA:4860, V-A:ILE:538:CG2:4863, V-A:ILE:538:CB:4862, V-A:TYR:539:CE1:4875, V-A:PRO:540:CA:4883, V-A:TYR:539:C:4867, V-A:PRO:540:N:4884, V-B:ASP:366:CG:8184, V-B:PRO:540:CB:9857, H-B:TYR:531:OH:9767, V-B:ASP:366:CB:8183, V-B:PRO:540:N:9856, V-A:TYR:539:CD1:4873, V-B:ILE:538:CG2:9835, V-B:LEU:363:CD1:8160, V-B:PRO:540:CD:9859, V-B:PRO:540:CA:9855, H-B:ASP:366:OD1:8185, V-B:MET:535:CE:9807, V-B:TYR:531:CE2:9765, V-B:TYR:531:CZ:9766, H-A:TYR:539:OH:4878, H-B:LYS:534:NZ:9795, V-B:TYR:539:C:9839, V-B:TYR:539:CA:9841, V-B:ILE:538:CA:9832, V-B:ILE:538:CG1:9836, V-B:MET:535:CG:9805"]

$$$$
1f_Grossjean_2025
     RDKit          3D

 21 22  0  0  0  0  0  0  0  0999 V2000
  126.1190  130.1190   57.8480 C   0  0  0  0  0  0  0  0  0  0  0  0
  127.1440  129.2400   57.1550 C   0  0  0  0  0  0  0  0  0  0  0  0
  127.7110  128.1400   57.7930 C   0  0  0  0  0  0  0  0  0  0  0  0
  128.6600  127.3730   57.1090 C   0  0  0  0  0  0  0  0  0  0  0  0
  129.2810  126.1820   57.8360 C   0  0  0  0  0  0  0  0  0  0  0  0
  129.0130  127.7280   55.7870 C   0  0  0  0  0  0  0  0  0  0  0  0
  130.0450  126.9700   55.0740 C   0  0  0  0  0  0  0  0  0  0  0  0
  130.8600  126.3710   54.5130 N   0  0  0  0  0  0  0  0  0  0  0  0
  128.3650  128.8440   55.2070 C   0  0  0  0  0  0  0  0  0  0  0  0
  128.6790  129.4390   53.5570 S   0  0  0  0  0  0  0  0  0  0  0  0
  129.4290  131.0990   53.6770 C   0  0  0  0  0  0  0  0  0  0  0  0
  129.8560  131.5150   55.0920 C   0  0  0  0  0  0  0  0  0  0  0  0
  129.4060  132.5420   55.6040 O   0  0  0  0  0  0  0  0  0  0  0  0
  130.7530  130.6910   55.6730 N   0  0  0  0  0  0  0  0  0  0  0  0
  131.3470  130.7630   56.9470 C   0  0  0  0  0  0  0  0  0  0  0  0
  132.7130  130.5680   57.2280 C   0  0  0  0  0  0  0  0  0  0  0  0
  133.1700  130.6740   58.5440 C   0  0  0  0  0  0  0  0  0  0  0  0
  132.2500  130.9750   59.5490 C   0  0  0  0  0  0  0  0  0  0  0  0
  130.9310  131.1730   59.3050 N   0  0  0  0  0  0  0  0  0  0  0  0
  130.5010  131.0670   58.0200 C   0  0  0  0  0  0  0  0  0  0  0  0
  127.4640  129.5950   55.8890 N   0  0  0  0  0  0  0  0  0  0  0  0
  1  2  1  0
  2  3  2  0
  3  4  1  0
  4  5  1  0
  4  6  2  0
  6  7  1  0
  7  8  3  0
  6  9  1  0
  9 10  1  0
 10 11  1  0
 11 12  1  0
 12 13  2  0
 12 14  1  0
 14 15  1  0
 15 16  2  0
 16 17  1  0
 17 18  2  0
 18 19  1  0
 19 20  2  0
  9 21  2  0
 21  2  1  0
 20 15  1  0
M  END
>  <Binding energies>  (7) 
[-6.85]

>  <Ligand effiencies>  (7) 
[-0.31136363636363634]

>  <Interactions>  (7) 
["V-A:TYR:539:CZ:4877, V-A:ASP:366:CB:3211, V-A:ILE:538:CA:4860, V-A:ILE:538:CG2:4863, V-A:ILE:538:CB:4862, V-A:TYR:539:CE1:4875, V-A:PRO:540:CB:4885, V-A:PRO:540:CA:4883, V-A:ASP:366:CG:3212, V-A:LEU:363:CD1:3188, H-A:TYR:531:OH:4795, H-B:TYR:539:OH:9850, H-B:TYR:531:OH:9767, H-B:LYS:534:NZ:9795, H-A:TYR:539:N:4870, V-A:LEU:363:CA:3184, V-B:LYS:534:CE:9794, V-A:MET:535:CB:4832"]

$$$$
1g_Grossjean_2025
     RDKit          3D

 22 23  0  0  0  0  0  0  0  0999 V2000
  129.3130  132.1560   60.1990 C   0  0  0  0  0  0  0  0  0  0  0  0
  128.8870  131.6760   58.8240 C   0  0  0  0  0  0  0  0  0  0  0  0
  129.5460  132.0930   57.6690 C   0  0  0  0  0  0  0  0  0  0  0  0
  129.0980  131.6300   56.4280 C   0  0  0  0  0  0  0  0  0  0  0  0
  129.8270  132.1120   55.1740 C   0  0  0  0  0  0  0  0  0  0  0  0
  127.9960  130.7470   56.3750 C   0  0  0  0  0  0  0  0  0  0  0  0
  127.4760  130.2910   55.0830 C   0  0  0  0  0  0  0  0  0  0  0  0
  127.0680  129.9330   54.0610 N   0  0  0  0  0  0  0  0  0  0  0  0
  127.4040  130.3570   57.5990 C   0  0  0  0  0  0  0  0  0  0  0  0
  126.0180  129.2480   57.7180 S   0  0  0  0  0  0  0  0  0  0  0  0
  124.5130  130.2660   57.7530 C   0  0  0  0  0  0  0  0  0  0  0  0
  124.2720  130.8840   59.1310 C   0  0  0  0  0  0  0  0  0  0  0  0
  123.2090  130.6820   59.7210 O   0  0  0  0  0  0  0  0  0  0  0  0
  125.2670  131.6410   59.6260 N   0  0  0  0  0  0  0  0  0  0  0  0
  125.2740  132.2770   60.9430 C   0  0  0  0  0  0  0  0  0  0  0  0
  125.6610  133.7530   60.9250 C   0  0  0  0  0  0  0  0  0  0  0  0
  126.8000  134.1850   61.6120 C   0  0  0  0  0  0  0  0  0  0  0  0
  127.1530  135.5310   61.5950 C   0  0  0  0  0  0  0  0  0  0  0  0
  126.3700  136.4410   60.8870 C   0  0  0  0  0  0  0  0  0  0  0  0
  125.2370  136.0170   60.1960 C   0  0  0  0  0  0  0  0  0  0  0  0
  124.8820  134.6710   60.2140 C   0  0  0  0  0  0  0  0  0  0  0  0
  127.8310  130.8290   58.7980 N   0  0  0  0  0  0  0  0  0  0  0  0
  1  2  1  0
  2  3  2  0
  3  4  1  0
  4  5  1  0
  4  6  2  0
  6  7  1  0
  7  8  3  0
  6  9  1  0
  9 10  1  0
 10 11  1  0
 11 12  1  0
 12 13  2  0
 12 14  1  0
 14 15  1  0
 15 16  1  0
 16 17  2  0
 17 18  1  0
 18 19  2  0
 19 20  1  0
 20 21  2  0
  9 22  2  0
 22  2  1  0
 21 16  1  0
M  END
>  <Binding energies>  (8) 
[-7.31]

>  <Ligand effiencies>  (8) 
[-0.3178260869565217]

>  <Interactions>  (8) 
["V-A:TYR:539:CZ:4877, V-A:ILE:538:CA:4860, V-A:PRO:540:C:4881, V-A:ILE:538:CG2:4863, V-A:ILE:538:C:4858, V-A:ILE:538:CB:4862, V-A:TYR:539:CE1:4875, V-A:PRO:540:CA:4883, V-A:TYR:539:C:4867, V-A:PRO:540:N:4884, H-B:TYR:531:OH:9767, V-B:ASP:366:CB:8183, V-B:ASP:366:CA:8181, V-A:TYR:539:CD1:4873, V-B:ILE:369:CG2:8208, H-A:TYR:539:OH:4878, H-B:LYS:534:NZ:9795, V-B:LEU:475:CD1:9229, V-A:ALA:541:CB:4892, V-B:TYR:531:CE1:9764, V-B:SER:385:CB:8380, V-B:LEU:373:CD1:8251, V-B:PRO:482:CG:9298, V-B:ILE:369:CB:8207, V-B:ASP:366:C:8179, V-B:PRO:482:CB:9297"]

$$$$
1h_Grossjean_2025
     RDKit          3D

 28 29  0  0  0  0  0  0  0  0999 V2000
  133.1230  131.7680   61.8510 C   0  0  0  0  0  0  0  0  0  0  0  0
  132.6710  130.7500   60.9650 O   0  0  0  0  0  0  0  0  0  0  0  0
  131.8780  131.0930   59.8860 C   0  0  0  0  0  0  0  0  0  0  0  0
  132.3040  131.0330   58.5500 C   0  0  0  0  0  0  0  0  0  0  0  0
  131.4520  131.4080   57.5100 C   0  0  0  0  0  0  0  0  0  0  0  0
  131.9210  131.3170   56.0610 C   0  0  0  0  0  0  0  0  0  0  0  0
  130.8570  130.9920   55.1110 N   0  0  0  0  0  0  0  0  0  0  0  0
  129.7840  131.7610   54.8520 C   0  0  0  0  0  0  0  0  0  0  0  0
  129.5870  132.8570   55.3760 O   0  0  0  0  0  0  0  0  0  0  0  0
  128.7730  131.2040   53.8500 C   0  0  0  0  0  0  0  0  0  0  0  0
  128.6410  129.3930   53.9510 S   0  0  0  0  0  0  0  0  0  0  0  0
  127.9800  128.9750   55.5560 C   0  0  0  0  0  0  0  0  0  0  0  0
  126.8170  129.5910   55.8930 N   0  0  0  0  0  0  0  0  0  0  0  0
  126.2580  129.3160   57.0950 C   0  0  0  0  0  0  0  0  0  0  0  0
  124.9590  130.0380   57.3980 C   0  0  0  0  0  0  0  0  0  0  0  0
  126.8280  128.4270   58.0040 C   0  0  0  0  0  0  0  0  0  0  0  0
  128.0270  127.7880   57.6690 C   0  0  0  0  0  0  0  0  0  0  0  0
  128.6340  126.8160   58.6780 C   0  0  0  0  0  0  0  0  0  0  0  0
  128.6270  128.0610   56.4190 C   0  0  0  0  0  0  0  0  0  0  0  0
  129.8840  127.4080   56.0420 C   0  0  0  0  0  0  0  0  0  0  0  0
  130.8780  126.8930   55.7450 N   0  0  0  0  0  0  0  0  0  0  0  0
  130.1480  131.8130   57.8000 C   0  0  0  0  0  0  0  0  0  0  0  0
  129.6930  131.8770   59.1260 C   0  0  0  0  0  0  0  0  0  0  0  0
  128.4170  132.2700   59.4870 O   0  0  0  0  0  0  0  0  0  0  0  0
  127.3920  131.2890   59.6090 C   0  0  0  0  0  0  0  0  0  0  0  0
  130.5710  131.5240   60.1610 C   0  0  0  0  0  0  0  0  0  0  0  0
  130.1380  131.5760   61.4640 O   0  0  0  0  0  0  0  0  0  0  0  0
  129.6410  130.3390   61.9570 C   0  0  0  0  0  0  0  0  0  0  0  0
  1  2  1  0
  2  3  1  0
  3  4  2  0
  4  5  1  0
  5  6  1  0
  6  7  1  0
  7  8  1  0
  8  9  2  0
  8 10  1  0
 10 11  1  0
 11 12  1  0
 12 13  2  0
 13 14  1  0
 14 15  1  0
 14 16  2  0
 16 17  1  0
 17 18  1  0
 17 19  2  0
 19 20  1  0
 20 21  3  0
  5 22  2  0
 22 23  1  0
 23 24  1  0
 24 25  1  0
 23 26  2  0
 26 27  1  0
 27 28  1  0
 26  3  1  0
 19 12  1  0
M  END
>  <Binding energies>  (9) 
[-7.13]

>  <Ligand effiencies>  (9) 
[-0.24586206896551724]

>  <Interactions>  (9) 
["V-A:GLU:543:CD:4908, V-A:TYR:539:CZ:4877, V-A:ASN:362:CB:3175, V-A:ILE:538:CA:4860, V-A:ALA:541:C:4888, H-A:ALA:541:N:4891, V-A:TYR:531:CZ:4794, V-A:PRO:540:C:4881, V-A:ILE:538:CG2:4863, V-A:ILE:538:CB:4862, V-A:TYR:539:CE1:4875, V-A:PRO:540:CB:4885, V-A:PRO:540:CA:4883, V-A:TYR:539:C:4867, V-A:PRO:540:N:4884, V-A:LEU:363:CD1:3188, H-A:TYR:531:OH:4795, H-B:TYR:531:OH:9767, V-B:ASP:366:CB:8183, V-A:TYR:539:CD1:4873, V-B:TYR:531:CZ:9766, H-A:TYR:539:OH:4878, V-B:TYR:531:CE1:9764, H-A:TYR:539:N:4870, H-A:ARG:545:NH2:4928, V-B:LYS:534:CE:9794, V-A:TYR:531:CE2:4793"]

$$$$
1i_Grossjean_2025
     RDKit          3D

 20 21  0  0  0  0  0  0  0  0999 V2000
  131.7870  126.5070   56.4920 C   0  0  0  0  0  0  0  0  0  0  0  0
  131.4340  127.6450   57.4310 C   0  0  0  0  0  0  0  0  0  0  0  0
  130.4490  127.5070   58.4060 C   0  0  0  0  0  0  0  0  0  0  0  0
  130.1720  128.5880   59.2510 C   0  0  0  0  0  0  0  0  0  0  0  0
  129.0990  128.4070   60.3230 C   0  0  0  0  0  0  0  0  0  0  0  0
  130.8950  129.7930   59.0910 C   0  0  0  0  0  0  0  0  0  0  0  0
  130.6570  130.9190   59.9970 C   0  0  0  0  0  0  0  0  0  0  0  0
  130.4680  131.8070   60.7150 N   0  0  0  0  0  0  0  0  0  0  0  0
  131.8600  129.8510   58.0590 C   0  0  0  0  0  0  0  0  0  0  0  0
  132.8570  131.2840   57.7160 S   0  0  0  0  0  0  0  0  0  0  0  0
  132.2670  132.0050   56.1550 C   0  0  0  0  0  0  0  0  0  0  0  0
  130.7420  131.9520   56.0370 C   0  0  0  0  0  0  0  0  0  0  0  0
  130.0700  132.8830   56.4840 O   0  0  0  0  0  0  0  0  0  0  0  0
  130.2420  130.8540   55.4290 N   0  0  0  0  0  0  0  0  0  0  0  0
  128.9070  130.5560   55.1980 C   0  0  0  0  0  0  0  0  0  0  0  0
  128.0670  130.0210   56.1730 C   0  0  0  0  0  0  0  0  0  0  0  0
  126.8480  129.8740   55.5540 C   0  0  0  0  0  0  0  0  0  0  0  0
  126.9480  130.2960   54.2720 O   0  0  0  0  0  0  0  0  0  0  0  0
  128.2590  130.7240   54.0570 N   0  0  0  0  0  0  0  0  0  0  0  0
  132.1350  128.7910   57.2570 N   0  0  0  0  0  0  0  0  0  0  0  0
  1  2  1  0
  2  3  2  0
  3  4  1  0
  4  5  1  0
  4  6  2  0
  6  7  1  0
  7  8  3  0
  6  9  1  0
  9 10  1  0
 10 11  1  0
 11 12  1  0
 12 13  2  0
 12 14  1  0
 14 15  1  0
 15 16  1  0
 16 17  2  0
 17 18  1  0
 18 19  1  0
  9 20  2  0
 20  2  1  0
 19 15  2  0
M  END
>  <Binding energies>  (10) 
[-7.52]

>  <Ligand effiencies>  (10) 
[-0.3580952380952381]

>  <Interactions>  (10) 
["V-A:TYR:539:CZ:4877, V-A:ASP:366:CB:3211, V-A:PRO:540:CD:4887, H-A:ALA:541:N:4891, V-A:ILE:538:CB:4862, V-A:TYR:539:CE1:4875, V-A:PRO:540:CB:4885, V-A:PRO:540:CA:4883, V-A:ASP:366:CG:3212, V-A:LEU:363:CD1:3188, H-A:TYR:531:OH:4795, V-B:TYR:531:CZ:9766, H-A:TYR:539:OH:4878, H-B:LYS:534:NZ:9795, V-B:TYR:531:CE1:9764, H-A:TYR:539:N:4870"]

$$$$
1k_Grossjean_2025
     RDKit          3D

 25 25  0  0  0  0  0  0  0  0999 V2000
  125.2580  121.9140   55.1070 C   0  0  0  0  0  0  0  0  0  0  0  0
  126.3670  121.4020   55.8290 O   0  0  0  0  0  0  0  0  0  0  0  0
  126.7180  122.1890   56.9600 C   0  0  0  0  0  0  0  0  0  0  0  0
  125.4720  122.9140   57.4870 C   0  0  0  0  0  0  0  0  0  0  0  0
  125.6000  124.3100   57.2490 O   0  0  0  0  0  0  0  0  0  0  0  0
  125.2030  125.1160   58.3510 C   0  0  0  0  0  0  0  0  0  0  0  0
  126.3720  126.0150   58.7710 C   0  0  0  0  0  0  0  0  0  0  0  0
  127.2430  126.2100   57.6640 O   0  0  0  0  0  0  0  0  0  0  0  0
  128.5920  125.8460   57.9280 C   0  0  0  0  0  0  0  0  0  0  0  0
  129.5030  126.3990   56.8150 C   0  0  0  0  0  0  0  0  0  0  0  0
  128.7960  127.1860   55.8040 N   0  0  0  0  0  0  0  0  0  0  0  0
  129.2240  127.3950   54.5460 C   0  0  0  0  0  0  0  0  0  0  0  0
  130.2760  126.9280   54.1070 O   0  0  0  0  0  0  0  0  0  0  0  0
  128.3110  128.2700   53.6730 C   0  0  0  0  0  0  0  0  0  0  0  0
  128.3040  130.0520   54.0750 S   0  0  0  0  0  0  0  0  0  0  0  0
  127.9040  130.2620   55.8040 C   0  0  0  0  0  0  0  0  0  0  0  0
  126.8560  129.5310   56.2630 N   0  0  0  0  0  0  0  0  0  0  0  0
  126.4940  129.6510   57.5610 C   0  0  0  0  0  0  0  0  0  0  0  0
  125.3100  128.8090   57.9950 C   0  0  0  0  0  0  0  0  0  0  0  0
  127.1590  130.4900   58.4520 C   0  0  0  0  0  0  0  0  0  0  0  0
  128.2450  131.2420   57.9940 C   0  0  0  0  0  0  0  0  0  0  0  0
  128.9610  132.1560   58.9870 C   0  0  0  0  0  0  0  0  0  0  0  0
  128.6370  131.1350   56.6410 C   0  0  0  0  0  0  0  0  0  0  0  0
  129.7690  131.9150   56.1320 C   0  0  0  0  0  0  0  0  0  0  0  0
  130.6630  132.5320   55.7310 N   0  0  0  0  0  0  0  0  0  0  0  0
  1  2  1  0
  2  3  1  0
  3  4  1  0
  4  5  1  0
  5  6  1  0
  6  7  1  0
  7  8  1  0
  8  9  1  0
  9 10  1  0
 10 11  1  0
 11 12  1  0
 12 13  2  0
 12 14  1  0
 14 15  1  0
 15 16  1  0
 16 17  2  0
 17 18  1  0
 18 19  1  0
 18 20  2  0
 20 21  1  0
 21 22  1  0
 21 23  2  0
 23 24  1  0
 24 25  3  0
 23 16  1  0
M  END
>  <Binding energies>  (11) 
[-7.07]

>  <Ligand effiencies>  (11) 
[-0.27192307692307693]

>  <Interactions>  (11) 
["V-A:TYR:539:CZ:4877, V-A:TYR:539:CE1:4875, V-A:PRO:540:CA:4883, V-A:TYR:539:C:4867, V-A:PRO:540:N:4884, H-A:TYR:531:OH:4795, V-B:ASP:366:CG:8184, V-B:PRO:540:CB:9857, H-B:TYR:531:OH:9767, V-B:ASP:366:CB:8183, V-B:PRO:540:N:9856, V-A:TYR:539:CD1:4873, V-B:ILE:538:CG2:9835, V-B:LEU:363:CD1:8160, V-B:PRO:540:CD:9859, H-B:TYR:539:N:9842, V-B:PRO:540:CA:9855, V-B:MET:535:CE:9807, V-B:TYR:531:CE2:9765, V-B:TYR:531:CZ:9766, H-A:TYR:539:OH:4878, H-B:LYS:534:NZ:9795, V-B:TYR:531:CE1:9764, H-A:TYR:539:N:4870, V-B:TYR:539:C:9839, V-B:ILE:538:CA:9832, V-B:ILE:538:CB:9834, V-B:ILE:538:CG1:9836, V-B:MET:535:CG:9805"]

$$$$
1l_Grossjean_2025
     RDKit          3D

 17 17  0  0  0  0  0  0  0  0999 V2000
  129.4130  127.4590   54.2270 C   0  0  0  0  0  0  0  0  0  0  0  0
  129.2860  128.6960   53.5400 O   0  0  0  0  0  0  0  0  0  0  0  0
  129.5520  129.7520   54.4100 N   0  0  0  0  0  0  0  0  0  0  0  0
  128.6040  130.6860   54.6130 C   0  0  0  0  0  0  0  0  0  0  0  0
  127.4290  130.5570   54.2590 O   0  0  0  0  0  0  0  0  0  0  0  0
  129.0790  131.9500   55.3450 C   0  0  0  0  0  0  0  0  0  0  0  0
  130.7510  131.8390   56.0700 S   0  0  0  0  0  0  0  0  0  0  0  0
  130.5810  131.7370   57.8440 C   0  0  0  0  0  0  0  0  0  0  0  0
  129.3980  132.1730   58.3490 N   0  0  0  0  0  0  0  0  0  0  0  0
  129.2030  132.1250   59.6890 C   0  0  0  0  0  0  0  0  0  0  0  0
  127.8570  132.6280   60.1760 C   0  0  0  0  0  0  0  0  0  0  0  0
  130.1660  131.6450   60.5720 C   0  0  0  0  0  0  0  0  0  0  0  0
  131.3880  131.1920   60.0640 C   0  0  0  0  0  0  0  0  0  0  0  0
  132.4300  130.6690   61.0510 C   0  0  0  0  0  0  0  0  0  0  0  0
  131.6130  131.2340   58.6700 C   0  0  0  0  0  0  0  0  0  0  0  0
  132.8850  130.7660   58.1090 C   0  0  0  0  0  0  0  0  0  0  0  0
  133.8880  130.3960   57.6680 N   0  0  0  0  0  0  0  0  0  0  0  0
  1  2  1  0
  2  3  1  0
  3  4  1  0
  4  5  2  0
  4  6  1  0
  6  7  1  0
  7  8  1  0
  8  9  2  0
  9 10  1  0
 10 11  1  0
 10 12  2  0
 12 13  1  0
 13 14  1  0
 13 15  2  0
 15 16  1  0
 16 17  3  0
 15  8  1  0
M  END
>  <Binding energies>  (12) 
[-6.53]

>  <Ligand effiencies>  (12) 
[-0.3627777777777778]

>  <Interactions>  (12) 
["V-A:TYR:539:CZ:4877, V-A:ILE:538:CA:4860, V-A:PRO:540:C:4881, V-A:TYR:539:CE1:4875, V-A:PRO:540:CB:4885, V-A:PRO:540:CA:4883, V-A:ASP:366:CG:3212, V-A:TYR:539:C:4867, V-A:PRO:540:N:4884, V-A:LEU:363:CD1:3188, H-A:TYR:531:OH:4795, V-A:TYR:539:CD1:4873, V-A:MET:535:CE:4835, H-A:TYR:539:OH:4878, H-B:LYS:534:NZ:9795"]

$$$$
1m_Grossjean_2025
     RDKit          3D

 20 20  0  0  0  0  0  0  0  0999 V2000
  126.7170  138.2270   59.4740 C   0  0  0  0  0  0  0  0  0  0  0  0
  126.5030  136.8320   59.6310 O   0  0  0  0  0  0  0  0  0  0  0  0
  125.3390  136.3690   60.1310 C   0  0  0  0  0  0  0  0  0  0  0  0
  124.2180  136.8180   59.8730 O   0  0  0  0  0  0  0  0  0  0  0  0
  125.5660  135.1740   61.0800 C   0  0  0  0  0  0  0  0  0  0  0  0
  126.7950  134.4260   60.7710 N   0  0  0  0  0  0  0  0  0  0  0  0
  127.2770  133.3840   61.4740 C   0  0  0  0  0  0  0  0  0  0  0  0
  126.7300  132.9460   62.4880 O   0  0  0  0  0  0  0  0  0  0  0  0
  128.5750  132.7670   60.9350 C   0  0  0  0  0  0  0  0  0  0  0  0
  128.4390  132.0470   59.2630 S   0  0  0  0  0  0  0  0  0  0  0  0
  130.0850  131.7050   58.6760 C   0  0  0  0  0  0  0  0  0  0  0  0
  130.9600  131.3940   59.6660 N   0  0  0  0  0  0  0  0  0  0  0  0
  132.2410  131.1080   59.3360 C   0  0  0  0  0  0  0  0  0  0  0  0
  133.1550  130.7510   60.4930 C   0  0  0  0  0  0  0  0  0  0  0  0
  132.7030  131.1310   58.0220 C   0  0  0  0  0  0  0  0  0  0  0  0
  131.8160  131.4760   56.9960 C   0  0  0  0  0  0  0  0  0  0  0  0
  132.3480  131.5110   55.5650 C   0  0  0  0  0  0  0  0  0  0  0  0
  130.4730  131.7800   57.3160 C   0  0  0  0  0  0  0  0  0  0  0  0
  129.5400  132.1910   56.2640 C   0  0  0  0  0  0  0  0  0  0  0  0
  128.8040  132.5160   55.4330 N   0  0  0  0  0  0  0  0  0  0  0  0
  1  2  1  0
  2  3  1  0
  3  4  2  0
  3  5  1  0
  5  6  1  0
  6  7  1  0
  7  8  2  0
  7  9  1  0
  9 10  1  0
 10 11  1  0
 11 12  2  0
 12 13  1  0
 13 14  1  0
 13 15  2  0
 15 16  1  0
 16 17  1  0
 16 18  2  0
 18 19  1  0
 19 20  3  0
 18 11  1  0
M  END
>  <Binding energies>  (13) 
[-6.29]

>  <Ligand effiencies>  (13) 
[-0.2995238095238095]

>  <Interactions>  (13) 
["V-A:ASN:362:CB:3175, V-A:TYR:531:CZ:4794, V-A:PRO:540:C:4881, V-A:ILE:538:CG2:4863, V-A:ILE:538:CB:4862, V-A:TYR:539:CE1:4875, V-A:PRO:540:CB:4885, V-A:PRO:540:CA:4883, V-A:ASP:366:CG:3212, V-A:TYR:539:C:4867, V-A:PRO:540:N:4884, V-A:LEU:363:CD1:3188, V-A:TYR:539:CD1:4873, V-B:LEU:475:CD1:9229, V-A:ALA:541:CB:4892, H-B:SER:385:OG:8381, H-A:TYR:539:O:4868, H-A:TYR:539:N:4870, V-A:ASN:362:C:3171, V-A:TYR:539:CB:4871, V-A:VAL:344:CG1:3000, V-B:SER:385:CB:8380, V-B:LEU:373:CD1:8251, V-B:PRO:482:CG:9298, V-A:TYR:531:CE2:4793"]

$$$$
1n_Grossjean_2025
     RDKit          3D

 27 28  0  0  0  0  0  0  0  0999 V2000
  124.4970  123.6000   58.8620 C   0  0  0  0  0  0  0  0  0  0  0  0
  125.4040  124.5260   58.0450 C   0  0  0  0  0  0  0  0  0  0  0  0
  125.8440  123.8460   56.8760 O   0  0  0  0  0  0  0  0  0  0  0  0
  126.7290  122.8190   56.9540 C   0  0  0  0  0  0  0  0  0  0  0  0
  126.4880  121.6810   56.5400 O   0  0  0  0  0  0  0  0  0  0  0  0
  128.0370  123.2090   57.5810 C   0  0  0  0  0  0  0  0  0  0  0  0
  128.6160  122.4610   58.6180 C   0  0  0  0  0  0  0  0  0  0  0  0
  129.8280  122.8520   59.1790 C   0  0  0  0  0  0  0  0  0  0  0  0
  130.4810  123.9990   58.7250 C   0  0  0  0  0  0  0  0  0  0  0  0
  131.6970  124.3050   59.3660 N   0  0  0  0  0  0  0  0  0  0  0  0
  132.8500  123.6020   59.4130 C   0  0  0  0  0  0  0  0  0  0  0  0
  133.0470  122.5170   58.8660 O   0  0  0  0  0  0  0  0  0  0  0  0
  133.9850  124.2440   60.2220 C   0  0  0  0  0  0  0  0  0  0  0  0
  134.1080  123.6730   61.6510 C   0  0  0  0  0  0  0  0  0  0  0  0
  134.2780  121.8650   61.7290 S   0  0  0  0  0  0  0  0  0  0  0  0
  132.6420  121.1670   61.6680 C   0  0  0  0  0  0  0  0  0  0  0  0
  131.6890  121.9660   62.2100 N   0  0  0  0  0  0  0  0  0  0  0  0
  130.4030  121.5430   62.2040 C   0  0  0  0  0  0  0  0  0  0  0  0
  129.3930  122.4940   62.8160 C   0  0  0  0  0  0  0  0  0  0  0  0
  130.0180  120.3160   61.6680 C   0  0  0  0  0  0  0  0  0  0  0  0
  130.9960  119.4750   61.1250 C   0  0  0  0  0  0  0  0  0  0  0  0
  130.5520  118.1290   60.5560 C   0  0  0  0  0  0  0  0  0  0  0  0
  132.3460  119.8940   61.1260 C   0  0  0  0  0  0  0  0  0  0  0  0
  133.3910  119.0080   60.6100 C   0  0  0  0  0  0  0  0  0  0  0  0
  134.2160  118.3060   60.2020 N   0  0  0  0  0  0  0  0  0  0  0  0
  129.9140  124.7460   57.6820 C   0  0  0  0  0  0  0  0  0  0  0  0
  128.7030  124.3510   57.1190 C   0  0  0  0  0  0  0  0  0  0  0  0
  1  2  1  0
  2  3  1  0
  3  4  1  0
  4  5  2  0
  4  6  1  0
  6  7  2  0
  7  8  1  0
  8  9  2  0
  9 10  1  0
 10 11  1  0
 11 12  2  0
 11 13  1  0
 13 14  1  0
 14 15  1  0
 15 16  1  0
 16 17  2  0
 17 18  1  0
 18 19  1  0
 18 20  2  0
 20 21  1  0
 21 22  1  0
 21 23  2  0
 23 24  1  0
 24 25  3  0
  9 26  1  0
 26 27  2  0
 27  6  1  0
 23 16  1  0
M  END
>  <Binding energies>  (14) 
[-8.29]

>  <Ligand effiencies>  (14) 
[-0.29607142857142854]

>  <Interactions>  (14) 
["H-A:ASP:366:OD2:3214, V-A:ASP:366:CB:3211, V-A:ASP:366:CG:3212, V-B:PRO:540:CB:9857, V-B:ALA:541:CB:9864, H-B:TYR:531:OH:9767, V-B:PRO:540:N:9856, V-B:TYR:539:CD2:9846, V-B:LEU:363:CD1:8160, V-B:TYR:539:CE2:9848, H-B:TYR:539:N:9842, V-B:PRO:540:CA:9855, V-B:ALA:541:CA:9862, V-B:MET:535:CE:9807, V-B:TYR:531:CE2:9765, V-A:LEU:475:CD1:4257, V-B:LEU:363:CA:8156, V-B:TYR:539:C:9839, V-B:LEU:363:CB:8158, V-A:ILE:369:CD1:3238, V-A:ILE:369:CG2:3236, V-A:SER:385:CA:3406, V-A:PRO:482:CG:4326, V-A:ASP:366:CA:3209, H-A:HIS:383:NE2:3393, H-A:SER:385:OG:3409"]

$$$$
1q_Grossjean_2025
     RDKit          3D

 21 21  0  0  0  0  0  0  0  0999 V2000
  132.1000  125.8130   55.6960 C   0  0  0  0  0  0  0  0  0  0  0  0
  131.0920  126.5300   54.9970 O   0  0  0  0  0  0  0  0  0  0  0  0
  129.7810  126.3000   55.2540 C   0  0  0  0  0  0  0  0  0  0  0  0
  129.3340  125.3510   55.8990 O   0  0  0  0  0  0  0  0  0  0  0  0
  128.8260  127.3390   54.6270 C   0  0  0  0  0  0  0  0  0  0  0  0
  129.4660  128.6440   54.4000 N   0  0  0  0  0  0  0  0  0  0  0  0
  128.8270  129.8120   54.1990 C   0  0  0  0  0  0  0  0  0  0  0  0
  127.5990  129.9140   54.1870 O   0  0  0  0  0  0  0  0  0  0  0  0
  129.7230  131.0430   53.9980 C   0  0  0  0  0  0  0  0  0  0  0  0
  129.7190  132.0300   55.1820 C   0  0  0  0  0  0  0  0  0  0  0  0
  131.2870  132.0690   56.1010 S   0  0  0  0  0  0  0  0  0  0  0  0
  130.9390  131.7980   57.8280 C   0  0  0  0  0  0  0  0  0  0  0  0
  129.6940  132.1940   58.1950 N   0  0  0  0  0  0  0  0  0  0  0  0
  129.3150  132.0410   59.4850 C   0  0  0  0  0  0  0  0  0  0  0  0
  127.9160  132.5230   59.8230 C   0  0  0  0  0  0  0  0  0  0  0  0
  130.1470  131.4800   60.4520 C   0  0  0  0  0  0  0  0  0  0  0  0
  131.4220  131.0440   60.0790 C   0  0  0  0  0  0  0  0  0  0  0  0
  132.3090  130.4160   61.1540 C   0  0  0  0  0  0  0  0  0  0  0  0
  131.8400  131.1920   58.7370 C   0  0  0  0  0  0  0  0  0  0  0  0
  133.1490  130.6890   58.3170 C   0  0  0  0  0  0  0  0  0  0  0  0
  134.1850  130.2900   57.9890 N   0  0  0  0  0  0  0  0  0  0  0  0
  1  2  1  0
  2  3  1  0
  3  4  2  0
  3  5  1  0
  5  6  1  0
  6  7  1  0
  7  8  2  0
  7  9  1  0
  9 10  1  0
 10 11  1  0
 11 12  1  0
 12 13  2  0
 13 14  1  0
 14 15  1  0
 14 16  2  0
 16 17  1  0
 17 18  1  0
 17 19  2  0
 19 20  1  0
 20 21  3  0
 19 12  1  0
M  END
>  <Binding energies>  (15) 
[-6.85]

>  <Ligand effiencies>  (15) 
[-0.31136363636363634]

>  <Interactions>  (15) 
["V-A:GLU:543:CD:4908, H-A:LEU:363:N:3185, V-A:ASP:366:CB:3211, V-A:ILE:538:CA:4860, V-A:PRO:540:CD:4887, V-A:TYR:531:CZ:4794, V-A:ILE:538:CG2:4863, V-A:ILE:538:CB:4862, V-A:TYR:539:CE1:4875, V-A:PRO:540:CB:4885, V-A:PRO:540:CA:4883, V-A:ASP:366:CG:3212, V-A:TYR:539:C:4867, V-A:PRO:540:N:4884, V-A:LEU:363:CD1:3188, H-A:TYR:531:OH:4795, H-B:TYR:539:OH:9850, H-B:TYR:531:OH:9767, V-A:TYR:539:CD1:4873, V-B:MET:535:CE:9807, V-B:TYR:531:CZ:9766, H-B:LYS:534:NZ:9795, V-A:LEU:363:CA:3184, V-A:TYR:531:CE1:4792, V-A:ASN:370:CB:3244"]

$$$$
2a_Grossjean_2025
     RDKit          3D

 29 30  0  0  0  0  0  0  0  0999 V2000
  124.4970  123.7950   58.7500 C   0  0  0  0  0  0  0  0  0  0  0  0
  125.6270  124.5870   58.0860 C   0  0  0  0  0  0  0  0  0  0  0  0
  126.0020  123.9440   56.8740 O   0  0  0  0  0  0  0  0  0  0  0  0
  126.7490  122.8100   56.8840 C   0  0  0  0  0  0  0  0  0  0  0  0
  126.3880  121.7520   56.3610 O   0  0  0  0  0  0  0  0  0  0  0  0
  128.0710  122.9800   57.5780 C   0  0  0  0  0  0  0  0  0  0  0  0
  128.4520  122.1680   58.6560 C   0  0  0  0  0  0  0  0  0  0  0  0
  129.6830  122.3520   59.2780 C   0  0  0  0  0  0  0  0  0  0  0  0
  130.5540  123.3520   58.8430 C   0  0  0  0  0  0  0  0  0  0  0  0
  131.7640  123.4560   59.5540 N   0  0  0  0  0  0  0  0  0  0  0  0
  133.0380  123.4290   59.1070 C   0  0  0  0  0  0  0  0  0  0  0  0
  133.3820  123.2740   57.9350 O   0  0  0  0  0  0  0  0  0  0  0  0
  134.1180  123.6070   60.1800 C   0  0  0  0  0  0  0  0  0  0  0  0
  134.2430  122.1880   61.3200 S   0  0  0  0  0  0  0  0  0  0  0  0
  132.6510  121.3820   61.4570 C   0  0  0  0  0  0  0  0  0  0  0  0
  131.6710  122.1110   62.0490 N   0  0  0  0  0  0  0  0  0  0  0  0
  130.4450  121.5600   62.1970 C   0  0  0  0  0  0  0  0  0  0  0  0
  129.4110  122.4250   62.8930 C   0  0  0  0  0  0  0  0  0  0  0  0
  130.1420  120.2740   61.7590 C   0  0  0  0  0  0  0  0  0  0  0  0
  131.1370  119.5060   61.1350 C   0  0  0  0  0  0  0  0  0  0  0  0
  130.7860  118.0850   60.6540 C   0  0  0  0  0  0  0  0  0  0  0  0
  131.1130  117.9420   59.3700 F   0  0  0  0  0  0  0  0  0  0  0  0
  131.4520  117.1820   61.3750 F   0  0  0  0  0  0  0  0  0  0  0  0
  129.4840  117.8100   60.7700 F   0  0  0  0  0  0  0  0  0  0  0  0
  132.4280  120.0710   60.9770 C   0  0  0  0  0  0  0  0  0  0  0  0
  133.5070  119.3110   60.3350 C   0  0  0  0  0  0  0  0  0  0  0  0
  134.3570  118.7110   59.8290 N   0  0  0  0  0  0  0  0  0  0  0  0
  130.1840  124.1620   57.7610 C   0  0  0  0  0  0  0  0  0  0  0  0
  128.9530  123.9740   57.1370 C   0  0  0  0  0  0  0  0  0  0  0  0
  1  2  1  0
  2  3  1  0
  3  4  1  0
  4  5  2  0
  4  6  1  0
  6  7  2  0
  7  8  1  0
  8  9  2  0
  9 10  1  0
 10 11  1  0
 11 12  2  0
 11 13  1  0
 13 14  1  0
 14 15  1  0
 15 16  2  0
 16 17  1  0
 17 18  1  0
 17 19  2  0
 19 20  1  0
 20 21  1  0
 21 22  1  0
 21 23  1  0
 21 24  1  0
 20 25  2  0
 25 26  1  0
 26 27  3  0
  9 28  1  0
 28 29  2  0
 29  6  1  0
 25 15  1  0
M  END
>  <Binding energies>  (16) 
[-7.95]

>  <Ligand effiencies>  (16) 
[-0.265]

>  <Interactions>  (16) 
["V-A:ASP:366:CG:3212, H-B:TYR:539:OH:9850, V-B:PRO:540:CB:9857, V-B:TYR:539:CZ:9849, V-B:ALA:541:CB:9864, H-B:TYR:531:OH:9767, V-B:PRO:540:N:9856, V-B:TYR:539:CD2:9846, V-B:LEU:363:CD1:8160, V-B:PRO:540:C:9853, V-B:TYR:539:CE2:9848, H-B:TYR:539:N:9842, V-B:PRO:540:CA:9855, V-B:ALA:541:CA:9862, V-B:MET:535:CE:9807, V-B:TYR:531:CE2:9765, V-A:LEU:475:CD1:4257, V-B:LEU:363:CA:8156, V-B:TYR:539:C:9839, V-B:LEU:363:CB:8158, V-A:ILE:369:CD1:3238, V-A:ILE:369:CG2:3236, V-A:SER:385:CA:3406, V-A:HIS:383:CE1:3392, V-B:TYR:539:CB:9843, V-A:PRO:482:CG:4326, V-A:ASP:366:CA:3209, V-A:ILE:369:CB:3235, V-B:TYR:539:CG:9844, H-A:HIS:383:NE2:3393, H-A:SER:385:OG:3409, V-A:PRO:482:CB:4325, V-A:PRO:482:CD:4327"]

$$$$
2b_Grossjean_2025
     RDKit          3D

 28 29  0  0  0  0  0  0  0  0999 V2000
  125.3110  121.6640   55.6950 C   0  0  0  0  0  0  0  0  0  0  0  0
  126.4630  121.9290   56.4830 O   0  0  0  0  0  0  0  0  0  0  0  0
  126.6980  123.1700   56.9820 C   0  0  0  0  0  0  0  0  0  0  0  0
  125.9010  124.1080   56.8770 O   0  0  0  0  0  0  0  0  0  0  0  0
  128.0270  123.2900   57.6710 C   0  0  0  0  0  0  0  0  0  0  0  0
  128.4740  122.3310   58.5920 C   0  0  0  0  0  0  0  0  0  0  0  0
  129.7110  122.4730   59.2150 C   0  0  0  0  0  0  0  0  0  0  0  0
  130.5260  123.5680   58.9280 C   0  0  0  0  0  0  0  0  0  0  0  0
  131.7530  123.6160   59.6190 N   0  0  0  0  0  0  0  0  0  0  0  0
  133.0100  123.4620   59.1530 C   0  0  0  0  0  0  0  0  0  0  0  0
  133.3130  123.2140   57.9850 O   0  0  0  0  0  0  0  0  0  0  0  0
  134.1170  123.5980   60.2040 C   0  0  0  0  0  0  0  0  0  0  0  0
  134.2280  122.1590   61.3180 S   0  0  0  0  0  0  0  0  0  0  0  0
  132.6360  121.3530   61.4350 C   0  0  0  0  0  0  0  0  0  0  0  0
  131.6460  122.0840   62.0080 N   0  0  0  0  0  0  0  0  0  0  0  0
  130.4180  121.5350   62.1340 C   0  0  0  0  0  0  0  0  0  0  0  0
  129.3710  122.4110   62.7960 C   0  0  0  0  0  0  0  0  0  0  0  0
  130.1210  120.2500   61.6910 C   0  0  0  0  0  0  0  0  0  0  0  0
  131.1260  119.4780   61.0890 C   0  0  0  0  0  0  0  0  0  0  0  0
  130.7800  118.0590   60.6000 C   0  0  0  0  0  0  0  0  0  0  0  0
  131.1300  117.9200   59.3200 F   0  0  0  0  0  0  0  0  0  0  0  0
  131.4320  117.1510   61.3280 F   0  0  0  0  0  0  0  0  0  0  0  0
  129.4770  117.7850   60.6910 F   0  0  0  0  0  0  0  0  0  0  0  0
  132.4220  120.0390   60.9560 C   0  0  0  0  0  0  0  0  0  0  0  0
  133.5130  119.2760   60.3400 C   0  0  0  0  0  0  0  0  0  0  0  0
  134.3730  118.6740   59.8540 N   0  0  0  0  0  0  0  0  0  0  0  0
  130.0830  124.5350   58.0140 C   0  0  0  0  0  0  0  0  0  0  0  0
  128.8460  124.3920   57.3930 C   0  0  0  0  0  0  0  0  0  0  0  0
  1  2  1  0
  2  3  1  0
  3  4  2  0
  3  5  1  0
  5  6  2  0
  6  7  1  0
  7  8  2  0
  8  9  1  0
  9 10  1  0
 10 11  2  0
 10 12  1  0
 12 13  1  0
 13 14  1  0
 14 15  2  0
 15 16  1  0
 16 17  1  0
 16 18  2  0
 18 19  1  0
 19 20  1  0
 20 21  1  0
 20 22  1  0
 20 23  1  0
 19 24  2  0
 24 25  1  0
 25 26  3  0
  8 27  1  0
 27 28  2  0
 28  5  1  0
 24 14  1  0
M  END
>  <Binding energies>  (17) 
[-7.62]

>  <Ligand effiencies>  (17) 
[-0.26275862068965516]

>  <Interactions>  (17) 
["V-A:ASP:366:CG:3212, H-B:TYR:539:OH:9850, V-B:TYR:539:CZ:9849, V-B:ALA:541:CB:9864, H-B:TYR:531:OH:9767, V-B:PRO:540:N:9856, V-B:TYR:539:CD2:9846, V-B:ILE:538:CG2:9835, V-B:LEU:363:CD1:8160, V-B:PRO:540:CD:9859, V-B:PRO:540:C:9853, V-B:TYR:539:CE2:9848, H-B:TYR:539:N:9842, V-B:PRO:540:CA:9855, V-B:ALA:541:CA:9862, V-B:MET:535:CE:9807, V-A:LEU:475:CD1:4257, V-B:TYR:539:C:9839, V-A:ILE:369:CD1:3238, V-A:ILE:369:CG2:3236, V-A:SER:385:CA:3406, V-A:HIS:383:CE1:3392, V-B:TYR:539:CB:9843, V-A:PRO:482:CG:4326, V-A:ASP:366:CA:3209, V-A:ILE:369:CB:3235, V-B:TYR:539:CG:9844, H-A:HIS:383:NE2:3393, H-A:SER:385:OG:3409, V-A:PRO:482:CB:4325, V-B:ILE:538:CA:9832, V-B:ILE:538:CB:9834, V-B:ILE:538:C:9830, V-B:ILE:538:CG1:9836, V-A:PRO:482:CD:4327"]

$$$$
2c_Grossjean_2025
     RDKit          3D

 26 27  0  0  0  0  0  0  0  0999 V2000
  132.7330  131.6450   61.7490 C   0  0  0  0  0  0  0  0  0  0  0  0
  133.4230  131.0180   60.6730 O   0  0  0  0  0  0  0  0  0  0  0  0
  132.8050  130.9230   59.4410 C   0  0  0  0  0  0  0  0  0  0  0  0
  131.4440  131.2220   59.4030 C   0  0  0  0  0  0  0  0  0  0  0  0
  130.7330  131.1540   58.2070 C   0  0  0  0  0  0  0  0  0  0  0  0
  131.3860  130.7700   57.0260 C   0  0  0  0  0  0  0  0  0  0  0  0
  130.7580  130.6900   55.7700 N   0  0  0  0  0  0  0  0  0  0  0  0
  129.8760  131.5480   55.2130 C   0  0  0  0  0  0  0  0  0  0  0  0
  129.4260  132.5510   55.7700 O   0  0  0  0  0  0  0  0  0  0  0  0
  129.4120  131.1690   53.7980 C   0  0  0  0  0  0  0  0  0  0  0  0
  128.7010  129.4950   53.6270 S   0  0  0  0  0  0  0  0  0  0  0  0
  128.3370  128.8340   55.2490 C   0  0  0  0  0  0  0  0  0  0  0  0
  127.4060  129.5150   55.9650 N   0  0  0  0  0  0  0  0  0  0  0  0
  127.0870  129.0790   57.2030 C   0  0  0  0  0  0  0  0  0  0  0  0
  126.0520  129.9030   57.9450 C   0  0  0  0  0  0  0  0  0  0  0  0
  127.6690  127.9500   57.7750 C   0  0  0  0  0  0  0  0  0  0  0  0
  128.6280  127.2270   57.0510 C   0  0  0  0  0  0  0  0  0  0  0  0
  129.2620  125.9790   57.6960 C   0  0  0  0  0  0  0  0  0  0  0  0
  128.9730  124.8960   56.9740 F   0  0  0  0  0  0  0  0  0  0  0  0
  130.5860  126.1180   57.7580 F   0  0  0  0  0  0  0  0  0  0  0  0
  128.8220  125.7620   58.9390 F   0  0  0  0  0  0  0  0  0  0  0  0
  128.9760  127.6770   55.7520 C   0  0  0  0  0  0  0  0  0  0  0  0
  129.9740  126.9600   54.9500 C   0  0  0  0  0  0  0  0  0  0  0  0
  130.7610  126.3950   54.3180 N   0  0  0  0  0  0  0  0  0  0  0  0
  132.7530  130.4860   57.0560 C   0  0  0  0  0  0  0  0  0  0  0  0
  133.4580  130.5560   58.2540 C   0  0  0  0  0  0  0  0  0  0  0  0
  1  2  1  0
  2  3  1  0
  3  4  2  0
  4  5  1  0
  5  6  2  0
  6  7  1  0
  7  8  1  0
  8  9  2  0
  8 10  1  0
 10 11  1  0
 11 12  1  0
 12 13  2  0
 13 14  1  0
 14 15  1  0
 14 16  2  0
 16 17  1  0
 17 18  1  0
 18 19  1  0
 18 20  1  0
 18 21  1  0
 17 22  2  0
 22 23  1  0
 23 24  3  0
  6 25  1  0
 25 26  2  0
 26  3  1  0
 22 12  1  0
M  END
>  <Binding energies>  (18) 
[-6.97]

>  <Ligand effiencies>  (18) 
[-0.2581481481481481]

>  <Interactions>  (18) 
["V-A:GLU:543:CD:4908, V-A:ASP:366:CB:3211, V-A:ASN:362:CB:3175, V-A:ILE:538:CA:4860, V-A:ALA:541:C:4888, V-A:PRO:540:C:4881, V-A:ILE:538:CG2:4863, V-A:ILE:538:CB:4862, V-A:TYR:539:CE1:4875, V-A:PRO:540:CB:4885, V-A:PRO:540:CA:4883, V-A:ASP:366:CG:3212, V-A:LEU:363:CD1:3188, H-A:TYR:531:OH:4795, H-B:TYR:531:OH:9767, V-B:MET:535:CE:9807, V-B:TYR:531:CZ:9766, H-B:LYS:534:NZ:9795, V-B:TYR:531:CE1:9764, H-A:TYR:539:N:4870, V-A:LEU:363:CA:3184, V-B:LYS:534:CE:9794, V-A:LEU:363:CB:3186"]

$$$$
2d_Ghoteimi_2023
     RDKit          3D

 38 42  0  0  0  0  0  0  0  0999 V2000
  122.2440  129.1730   66.9720 C   0  0  0  0  0  0  0  0  0  0  0  0
  123.6430  129.2290   67.2060 O   0  0  0  0  0  0  0  0  0  0  0  0
  124.5150  129.0630   66.1900 C   0  0  0  0  0  0  0  0  0  0  0  0
  124.4290  129.5910   65.0780 O   0  0  0  0  0  0  0  0  0  0  0  0
  125.6630  128.1220   66.5890 C   0  0  0  0  0  0  0  0  0  0  0  0
  127.2480  128.6730   65.8720 S   0  0  0  0  0  0  0  0  0  0  0  0
  126.9410  129.2580   64.2180 C   0  0  0  0  0  0  0  0  0  0  0  0
  126.8920  128.2630   63.2990 N   0  0  0  0  0  0  0  0  0  0  0  0
  126.6720  128.5650   61.9940 C   0  0  0  0  0  0  0  0  0  0  0  0
  126.6480  127.4170   61.0370 C   0  0  0  0  0  0  0  0  0  0  0  0
  126.7940  126.1040   61.4950 C   0  0  0  0  0  0  0  0  0  0  0  0
  126.7730  125.0300   60.6090 C   0  0  0  0  0  0  0  0  0  0  0  0
  126.5950  125.2310   59.2320 C   0  0  0  0  0  0  0  0  0  0  0  0
  126.5900  124.1650   58.3250 N   0  0  0  0  0  0  0  0  0  0  0  0
  127.5180  123.0260   58.4680 C   0  0  0  0  0  0  0  0  0  0  0  0
  127.6270  122.1540   57.2000 C   0  0  0  0  0  0  0  0  0  0  0  0
  126.3380  121.7090   56.8070 O   0  0  0  0  0  0  0  0  0  0  0  0
  125.4780  122.7970   56.5130 C   0  0  0  0  0  0  0  0  0  0  0  0
  125.3100  123.6930   57.7590 C   0  0  0  0  0  0  0  0  0  0  0  0
  126.4640  126.5500   58.7750 C   0  0  0  0  0  0  0  0  0  0  0  0
  126.4870  127.6230   59.6610 C   0  0  0  0  0  0  0  0  0  0  0  0
  126.4900  129.8870   61.5810 C   0  0  0  0  0  0  0  0  0  0  0  0
  126.5020  130.9310   62.5150 C   0  0  0  0  0  0  0  0  0  0  0  0
  126.2730  132.3160   62.0050 C   0  0  0  0  0  0  0  0  0  0  0  0
  127.3550  133.1150   61.6330 C   0  0  0  0  0  0  0  0  0  0  0  0
  127.1510  134.4030   61.1450 C   0  0  0  0  0  0  0  0  0  0  0  0
  125.8560  134.9300   61.0190 C   0  0  0  0  0  0  0  0  0  0  0  0
  125.6270  136.2150   60.5190 N   0  0  0  0  0  0  0  0  0  0  0  0
  124.3620  136.5650   59.8450 C   0  0  0  0  0  0  0  0  0  0  0  0
  124.1470  138.0850   59.6900 C   0  0  0  0  0  0  0  0  0  0  0  0
  125.2560  138.6670   59.0210 O   0  0  0  0  0  0  0  0  0  0  0  0
  126.4650  138.4630   59.7350 C   0  0  0  0  0  0  0  0  0  0  0  0
  126.7400  136.9510   59.8880 C   0  0  0  0  0  0  0  0  0  0  0  0
  124.7750  134.1140   61.3780 C   0  0  0  0  0  0  0  0  0  0  0  0
  124.9790  132.8260   61.8650 C   0  0  0  0  0  0  0  0  0  0  0  0
  126.7290  130.6140   63.8780 C   0  0  0  0  0  0  0  0  0  0  0  0
  126.7320  131.6690   64.8950 C   0  0  0  0  0  0  0  0  0  0  0  0
  126.7340  132.5060   65.6960 N   0  0  0  0  0  0  0  0  0  0  0  0
  1  2  1  0
  2  3  1  0
  3  4  2  0
  3  5  1  0
  5  6  1  0
  6  7  1  0
  7  8  2  0
  8  9  1  0
  9 10  1  0
 10 11  2  0
 11 12  1  0
 12 13  2  0
 13 14  1  0
 14 15  1  0
 15 16  1  0
 16 17  1  0
 17 18  1  0
 18 19  1  0
 13 20  1  0
 20 21  2  0
  9 22  2  0
 22 23  1  0
 23 24  1  0
 24 25  2  0
 25 26  1  0
 26 27  2  0
 27 28  1  0
 28 29  1  0
 29 30  1  0
 30 31  1  0
 31 32  1  0
 32 33  1  0
 27 34  1  0
 34 35  2  0
 23 36  2  0
 36 37  1  0
 37 38  3  0
 36  7  1  0
 21 10  1  0
 35 24  1  0
 19 14  1  0
 33 28  1  0
M  END
>  <Binding energies>  (19) 
[-9.53]

>  <Ligand effiencies>  (19) 
[-0.2507894736842105]

>  <Interactions>  (19) 
["V-A:TYR:539:C:4867, V-B:ASP:366:CG:8184, V-B:PRO:540:CB:9857, V-B:PRO:540:N:9856, V-A:TYR:539:CD1:4873, V-B:LEU:363:CD1:8160, H-B:TYR:539:N:9842, V-B:PRO:540:CA:9855, V-B:MET:535:CE:9807, H-B:ARG:545:NH2:9900, V-B:TYR:531:CE2:9765, V-A:TYR:539:CG:4872, V-B:ILE:369:CG2:8208, V-B:LEU:475:CD1:9229, V-A:ALA:541:CB:4892, V-B:GLY:454:CA:9020, V-B:ARG:545:CD:9895, V-B:ARG:545:CG:9894, V-B:ARG:545:CZ:9898, V-B:HIS:456:CE1:9041, V-B:TYR:484:CE2:9317, H-B:GLY:454:N:9021, H-B:ARG:545:NH1:9899, V-B:TYR:484:CZ:9318, V-A:TYR:539:CA:4869, H-B:TYR:484:OH:9319, V-B:GLY:453:C:9013, V-B:GLY:453:CA:9015, H-B:ARG:545:NE:9896, V-B:TYR:539:C:9839, V-A:TYR:539:CB:4871, V-A:VAL:344:CG1:3000, V-B:SER:385:CB:8380, V-B:LEU:373:CD1:8251, V-B:PRO:482:CG:9298, V-B:SER:385:CA:8378, V-B:LEU:373:CD2:8252, V-B:TYR:539:CA:9841, V-B:TYR:539:CG:9844, H-B:HIS:456:ND1:9038, V-B:VAL:384:C:8368, H-B:ILE:455:N:9026, V-B:ARG:545:CB:9893, V-B:ILE:455:C:9023, V-B:VAL:452:C:9005"]

$$$$
2d_Grossjean_2025
     RDKit          3D

 24 25  0  0  0  0  0  0  0  0999 V2000
  126.2150  129.9560   57.7070 C   0  0  0  0  0  0  0  0  0  0  0  0
  127.2570  129.0930   57.0200 C   0  0  0  0  0  0  0  0  0  0  0  0
  127.7550  127.9370   57.6170 C   0  0  0  0  0  0  0  0  0  0  0  0
  128.7140  127.1700   56.9390 C   0  0  0  0  0  0  0  0  0  0  0  0
  129.2460  125.8890   57.6100 C   0  0  0  0  0  0  0  0  0  0  0  0
  130.5690  125.9670   57.7590 F   0  0  0  0  0  0  0  0  0  0  0  0
  128.6840  125.7340   58.8100 F   0  0  0  0  0  0  0  0  0  0  0  0
  128.9860  124.7890   56.9010 F   0  0  0  0  0  0  0  0  0  0  0  0
  129.1530  127.6070   55.6630 C   0  0  0  0  0  0  0  0  0  0  0  0
  130.1190  126.8170   54.8950 C   0  0  0  0  0  0  0  0  0  0  0  0
  130.8810  126.1920   54.2880 N   0  0  0  0  0  0  0  0  0  0  0  0
  128.6110  128.8070   55.1470 C   0  0  0  0  0  0  0  0  0  0  0  0
  129.0720  129.5150   53.5780 S   0  0  0  0  0  0  0  0  0  0  0  0
  129.4890  131.2730   53.8270 C   0  0  0  0  0  0  0  0  0  0  0  0
  129.8900  131.5940   55.2700 C   0  0  0  0  0  0  0  0  0  0  0  0
  129.3640  132.5520   55.8390 O   0  0  0  0  0  0  0  0  0  0  0  0
  130.8370  130.7940   55.8050 N   0  0  0  0  0  0  0  0  0  0  0  0
  131.4070  130.8290   57.0910 C   0  0  0  0  0  0  0  0  0  0  0  0
  132.7850  130.6090   57.1580 C   0  0  0  0  0  0  0  0  0  0  0  0
  133.4390  130.6180   58.3870 C   0  0  0  0  0  0  0  0  0  0  0  0
  132.7100  130.8390   59.5540 C   0  0  0  0  0  0  0  0  0  0  0  0
  131.3350  131.0460   59.5020 C   0  0  0  0  0  0  0  0  0  0  0  0
  130.6780  131.0390   58.2750 C   0  0  0  0  0  0  0  0  0  0  0  0
  127.6680  129.5250   55.8060 N   0  0  0  0  0  0  0  0  0  0  0  0
  1  2  1  0
  2  3  2  0
  3  4  1  0
  4  5  1  0
  5  6  1  0
  5  7  1  0
  5  8  1  0
  4  9  2  0
  9 10  1  0
 10 11  3  0
  9 12  1  0
 12 13  1  0
 13 14  1  0
 14 15  1  0
 15 16  2  0
 15 17  1  0
 17 18  1  0
 18 19  2  0
 19 20  1  0
 20 21  2  0
 21 22  1  0
 22 23  2  0
 12 24  2  0
 24  2  1  0
 23 18  1  0
M  END
>  <Binding energies>  (20) 
[-6.98]

>  <Ligand effiencies>  (20) 
[-0.2792]

>  <Interactions>  (20) 
["V-A:TYR:539:CZ:4877, V-A:ASP:366:CB:3211, V-A:ILE:538:CA:4860, V-A:TYR:531:CZ:4794, V-A:ILE:538:CG2:4863, V-A:ILE:538:CB:4862, V-A:TYR:539:CE1:4875, V-A:PRO:540:CB:4885, V-A:PRO:540:CA:4883, V-A:ASP:366:CG:3212, V-A:LEU:363:CD1:3188, H-A:TYR:531:OH:4795, H-B:TYR:539:OH:9850, H-B:TYR:531:OH:9767, V-B:MET:535:CE:9807, V-B:TYR:531:CZ:9766, H-A:TYR:539:N:4870, V-A:LEU:363:CA:3184, V-A:LEU:363:CB:3186"]

$$$$
2e_Grossjean_2025
     RDKit          3D

 25 26  0  0  0  0  0  0  0  0999 V2000
  130.5520  131.3580   60.4720 C   0  0  0  0  0  0  0  0  0  0  0  0
  131.4010  131.0400   59.2570 C   0  0  0  0  0  0  0  0  0  0  0  0
  132.7510  130.7010   59.3760 C   0  0  0  0  0  0  0  0  0  0  0  0
  133.4680  130.4090   58.2140 C   0  0  0  0  0  0  0  0  0  0  0  0
  132.8250  130.4630   56.9750 C   0  0  0  0  0  0  0  0  0  0  0  0
  131.4720  130.8200   56.9270 C   0  0  0  0  0  0  0  0  0  0  0  0
  130.8650  130.8170   55.6590 N   0  0  0  0  0  0  0  0  0  0  0  0
  129.8690  131.6130   55.2100 C   0  0  0  0  0  0  0  0  0  0  0  0
  129.3720  132.5470   55.8420 O   0  0  0  0  0  0  0  0  0  0  0  0
  129.3150  131.2700   53.8240 C   0  0  0  0  0  0  0  0  0  0  0  0
  129.1810  129.4720   53.5680 S   0  0  0  0  0  0  0  0  0  0  0  0
  128.6560  128.8060   55.1320 C   0  0  0  0  0  0  0  0  0  0  0  0
  127.7850  129.5890   55.8160 N   0  0  0  0  0  0  0  0  0  0  0  0
  127.3690  129.1790   57.0360 C   0  0  0  0  0  0  0  0  0  0  0  0
  126.3950  130.1010   57.7440 C   0  0  0  0  0  0  0  0  0  0  0  0
  127.8050  127.9910   57.6200 C   0  0  0  0  0  0  0  0  0  0  0  0
  128.7140  127.1750   56.9300 C   0  0  0  0  0  0  0  0  0  0  0  0
  129.2030  125.8760   57.5970 C   0  0  0  0  0  0  0  0  0  0  0  0
  128.6970  125.7750   58.8270 F   0  0  0  0  0  0  0  0  0  0  0  0
  128.8140  124.8210   56.8810 F   0  0  0  0  0  0  0  0  0  0  0  0
  130.5330  125.8210   57.7050 F   0  0  0  0  0  0  0  0  0  0  0  0
  129.1550  127.5880   55.6480 C   0  0  0  0  0  0  0  0  0  0  0  0
  130.1270  126.7940   54.8890 C   0  0  0  0  0  0  0  0  0  0  0  0
  130.8940  126.1680   54.2900 N   0  0  0  0  0  0  0  0  0  0  0  0
  130.7630  131.0980   58.0590 N   0  0  0  0  0  0  0  0  0  0  0  0
  1  2  1  0
  2  3  2  0
  3  4  1  0
  4  5  2  0
  5  6  1  0
  6  7  1  0
  7  8  1  0
  8  9  2  0
  8 10  1  0
 10 11  1  0
 11 12  1  0
 12 13  2  0
 13 14  1  0
 14 15  1  0
 14 16  2  0
 16 17  1  0
 17 18  1  0
 18 19  1  0
 18 20  1  0
 18 21  1  0
 17 22  2  0
 22 23  1  0
 23 24  3  0
  6 25  2  0
 25  2  1  0
 22 12  1  0
M  END
>  <Binding energies>  (21) 
[-7.07]

>  <Ligand effiencies>  (21) 
[-0.27192307692307693]

>  <Interactions>  (21) 
["V-A:TYR:539:CZ:4877, V-A:ASP:366:CB:3211, V-A:ILE:538:CA:4860, V-A:TYR:531:CZ:4794, V-A:ILE:538:CG2:4863, V-A:ILE:538:CB:4862, V-A:TYR:539:CE1:4875, V-A:PRO:540:CB:4885, V-A:PRO:540:CA:4883, V-A:ASP:366:CG:3212, V-A:LEU:363:CD1:3188, H-A:TYR:531:OH:4795, H-B:TYR:539:OH:9850, H-B:TYR:531:OH:9767, V-B:MET:535:CE:9807, H-A:TYR:539:N:4870, V-A:LEU:363:CA:3184, V-B:LYS:534:CE:9794, V-A:LEU:363:CB:3186"]

$$$$
2f_Grossjean_2025
     RDKit          3D

 24 25  0  0  0  0  0  0  0  0999 V2000
  125.2890  129.0990   58.3030 C   0  0  0  0  0  0  0  0  0  0  0  0
  126.4930  129.8900   57.8280 C   0  0  0  0  0  0  0  0  0  0  0  0
  126.8770  129.9020   56.4900 C   0  0  0  0  0  0  0  0  0  0  0  0
  128.0040  130.6430   56.1010 C   0  0  0  0  0  0  0  0  0  0  0  0
  128.4200  130.6330   54.6180 C   0  0  0  0  0  0  0  0  0  0  0  0
  129.6240  130.0740   54.4830 F   0  0  0  0  0  0  0  0  0  0  0  0
  127.5370  129.9360   53.9020 F   0  0  0  0  0  0  0  0  0  0  0  0
  128.4870  131.8580   54.0910 F   0  0  0  0  0  0  0  0  0  0  0  0
  128.7140  131.3670   57.0930 C   0  0  0  0  0  0  0  0  0  0  0  0
  129.9290  132.1100   56.7470 C   0  0  0  0  0  0  0  0  0  0  0  0
  130.8880  132.6970   56.4730 N   0  0  0  0  0  0  0  0  0  0  0  0
  128.2350  131.3180   58.4240 C   0  0  0  0  0  0  0  0  0  0  0  0
  128.9930  132.1730   59.7910 S   0  0  0  0  0  0  0  0  0  0  0  0
  127.7030  132.4970   61.0410 C   0  0  0  0  0  0  0  0  0  0  0  0
  126.6070  133.4810   60.6060 C   0  0  0  0  0  0  0  0  0  0  0  0
  125.5040  133.0710   60.2430 O   0  0  0  0  0  0  0  0  0  0  0  0
  126.9740  134.7800   60.6430 N   0  0  0  0  0  0  0  0  0  0  0  0
  126.2270  135.9300   60.3260 C   0  0  0  0  0  0  0  0  0  0  0  0
  126.7560  137.2180   60.1260 C   0  0  0  0  0  0  0  0  0  0  0  0
  125.9010  138.2760   59.8100 C   0  0  0  0  0  0  0  0  0  0  0  0
  124.5350  138.0180   59.6960 C   0  0  0  0  0  0  0  0  0  0  0  0
  124.0000  136.7840   59.8760 N   0  0  0  0  0  0  0  0  0  0  0  0
  124.8440  135.7660   60.1820 C   0  0  0  0  0  0  0  0  0  0  0  0
  127.1580  130.5780   58.7840 N   0  0  0  0  0  0  0  0  0  0  0  0
  1  2  1  0
  2  3  2  0
  3  4  1  0
  4  5  1  0
  5  6  1  0
  5  7  1  0
  5  8  1  0
  4  9  2  0
  9 10  1  0
 10 11  3  0
  9 12  1  0
 12 13  1  0
 13 14  1  0
 14 15  1  0
 15 16  2  0
 15 17  1  0
 17 18  1  0
 18 19  2  0
 19 20  1  0
 20 21  2  0
 21 22  1  0
 22 23  2  0
 12 24  2  0
 24  2  1  0
 23 18  1  0
M  END
>  <Binding energies>  (22) 
[-7.27]

>  <Ligand effiencies>  (22) 
[-0.2908]

>  <Interactions>  (22) 
["V-A:TYR:539:CZ:4877, V-A:ILE:538:CA:4860, V-A:ILE:538:CG2:4863, V-A:TYR:539:CE1:4875, V-A:TYR:539:CE2:4876, V-A:TYR:539:C:4867, V-A:PRO:540:N:4884, V-B:ASP:366:CG:8184, V-B:ASP:366:CB:8183, V-A:TYR:539:CD1:4873, V-A:TYR:539:CG:4872, V-B:ILE:369:CG2:8208, V-A:ALA:541:CB:4892, V-B:TYR:531:CE1:9764, H-B:SER:385:OG:8381, H-A:TYR:539:O:4868, H-A:TYR:539:N:4870, V-A:TYR:539:CB:4871, V-B:SER:385:CB:8380, V-B:LEU:373:CD1:8251, V-B:PRO:482:CG:9298, V-B:LYS:534:CE:9794, V-B:LEU:373:CD2:8252, V-B:PRO:482:CB:9297, V-B:LYS:534:CD:9793"]

$$$$
2g_Grossjean_2025
     RDKit          3D

 25 26  0  0  0  0  0  0  0  0999 V2000
  129.3320  131.9670   60.4100 C   0  0  0  0  0  0  0  0  0  0  0  0
  128.9080  131.5360   59.0190 C   0  0  0  0  0  0  0  0  0  0  0  0
  129.6010  131.9510   57.8850 C   0  0  0  0  0  0  0  0  0  0  0  0
  129.1660  131.5300   56.6180 C   0  0  0  0  0  0  0  0  0  0  0  0
  129.9400  132.0070   55.3740 C   0  0  0  0  0  0  0  0  0  0  0  0
  129.1110  132.6000   54.5130 F   0  0  0  0  0  0  0  0  0  0  0  0
  130.8840  132.8770   55.7350 F   0  0  0  0  0  0  0  0  0  0  0  0
  130.5400  131.0070   54.7240 F   0  0  0  0  0  0  0  0  0  0  0  0
  128.0310  130.6840   56.5380 C   0  0  0  0  0  0  0  0  0  0  0  0
  127.5010  130.2630   55.2380 C   0  0  0  0  0  0  0  0  0  0  0  0
  127.0830  129.9310   54.2110 N   0  0  0  0  0  0  0  0  0  0  0  0
  127.4080  130.2890   57.7470 C   0  0  0  0  0  0  0  0  0  0  0  0
  125.9920  129.2130   57.8290 S   0  0  0  0  0  0  0  0  0  0  0  0
  124.5050  130.2690   57.8970 C   0  0  0  0  0  0  0  0  0  0  0  0
  124.2320  130.9070   59.2660 C   0  0  0  0  0  0  0  0  0  0  0  0
  123.1430  130.7800   59.8280 O   0  0  0  0  0  0  0  0  0  0  0  0
  125.2540  131.6080   59.7910 N   0  0  0  0  0  0  0  0  0  0  0  0
  125.2370  132.2960   61.0820 C   0  0  0  0  0  0  0  0  0  0  0  0
  125.6310  133.7680   61.0150 C   0  0  0  0  0  0  0  0  0  0  0  0
  126.7850  134.2100   61.6690 C   0  0  0  0  0  0  0  0  0  0  0  0
  127.1680  135.5460   61.5780 C   0  0  0  0  0  0  0  0  0  0  0  0
  126.4020  136.4330   60.8250 C   0  0  0  0  0  0  0  0  0  0  0  0
  125.2580  135.9960   60.1600 C   0  0  0  0  0  0  0  0  0  0  0  0
  124.8750  134.6610   60.2510 C   0  0  0  0  0  0  0  0  0  0  0  0
  127.8290  130.7230   58.9600 N   0  0  0  0  0  0  0  0  0  0  0  0
  1  2  1  0
  2  3  2  0
  3  4  1  0
  4  5  1  0
  5  6  1  0
  5  7  1  0
  5  8  1  0
  4  9  2  0
  9 10  1  0
 10 11  3  0
  9 12  1  0
 12 13  1  0
 13 14  1  0
 14 15  1  0
 15 16  2  0
 15 17  1  0
 17 18  1  0
 18 19  1  0
 19 20  2  0
 20 21  1  0
 21 22  2  0
 22 23  1  0
 23 24  2  0
 12 25  2  0
 25  2  1  0
 24 19  1  0
M  END
>  <Binding energies>  (23) 
[-7.28]

>  <Ligand effiencies>  (23) 
[-0.28]

>  <Interactions>  (23) 
["V-A:TYR:539:CZ:4877, V-A:ILE:538:CA:4860, V-A:PRO:540:CD:4887, V-A:TYR:531:CZ:4794, V-A:ILE:538:CG2:4863, V-A:ILE:538:C:4858, V-A:ILE:538:CB:4862, V-A:TYR:539:CE1:4875, V-A:TYR:539:CE2:4876, V-A:PRO:540:CA:4883, V-A:TYR:539:C:4867, V-A:PRO:540:N:4884, V-A:TYR:539:CD2:4874, H-B:TYR:531:OH:9767, V-B:ASP:366:CB:8183, V-B:ASP:366:CA:8181, V-A:TYR:539:CD1:4873, V-A:TYR:539:CG:4872, V-B:ILE:369:CG2:8208, H-A:TYR:539:OH:4878, H-B:LYS:534:NZ:9795, V-B:LEU:475:CD1:9229, V-A:ALA:541:CB:4892, V-B:TYR:531:CE1:9764, V-A:TYR:539:CA:4869, V-B:SER:385:CB:8380, V-B:LEU:373:CD1:8251, V-B:PRO:482:CG:9298, V-B:ILE:369:CB:8207, V-B:ASP:366:C:8179, V-B:PRO:482:CB:9297"]

$$$$
2h_Grossjean_2025
     RDKit          3D

 31 32  0  0  0  0  0  0  0  0999 V2000
  131.9280  132.9460   56.0630 C   0  0  0  0  0  0  0  0  0  0  0  0
  130.5760  132.8040   55.6410 O   0  0  0  0  0  0  0  0  0  0  0  0
  130.0860  131.5440   55.3470 C   0  0  0  0  0  0  0  0  0  0  0  0
  130.2390  130.9150   54.1010 C   0  0  0  0  0  0  0  0  0  0  0  0
  129.7240  129.6400   53.8810 C   0  0  0  0  0  0  0  0  0  0  0  0
  129.0470  128.9640   54.8980 C   0  0  0  0  0  0  0  0  0  0  0  0
  128.5090  127.5580   54.6400 C   0  0  0  0  0  0  0  0  0  0  0  0
  129.0080  126.5560   55.5830 N   0  0  0  0  0  0  0  0  0  0  0  0
  130.2270  125.9900   55.5320 C   0  0  0  0  0  0  0  0  0  0  0  0
  131.0320  126.2010   54.6230 O   0  0  0  0  0  0  0  0  0  0  0  0
  130.5710  125.0540   56.6990 C   0  0  0  0  0  0  0  0  0  0  0  0
  129.3790  123.7020   56.9800 S   0  0  0  0  0  0  0  0  0  0  0  0
  127.9870  124.4130   57.8290 C   0  0  0  0  0  0  0  0  0  0  0  0
  128.2660  125.5870   58.4480 N   0  0  0  0  0  0  0  0  0  0  0  0
  127.2830  126.2040   59.1400 C   0  0  0  0  0  0  0  0  0  0  0  0
  127.6700  127.5080   59.8120 C   0  0  0  0  0  0  0  0  0  0  0  0
  125.9930  125.6870   59.2380 C   0  0  0  0  0  0  0  0  0  0  0  0
  125.6790  124.4840   58.5880 C   0  0  0  0  0  0  0  0  0  0  0  0
  124.2450  123.9330   58.7010 C   0  0  0  0  0  0  0  0  0  0  0  0
  123.9010  123.8200   59.9840 F   0  0  0  0  0  0  0  0  0  0  0  0
  123.3410  124.7200   58.1130 F   0  0  0  0  0  0  0  0  0  0  0  0
  124.1680  122.7330   58.1250 F   0  0  0  0  0  0  0  0  0  0  0  0
  126.6980  123.8270   57.8510 C   0  0  0  0  0  0  0  0  0  0  0  0
  126.4070  122.6000   57.1060 C   0  0  0  0  0  0  0  0  0  0  0  0
  126.1740  121.6330   56.5160 N   0  0  0  0  0  0  0  0  0  0  0  0
  128.8660  129.5900   56.1410 C   0  0  0  0  0  0  0  0  0  0  0  0
  128.1980  128.9320   57.1460 O   0  0  0  0  0  0  0  0  0  0  0  0
  126.8140  129.2480   57.2340 C   0  0  0  0  0  0  0  0  0  0  0  0
  129.4030  130.8690   56.3660 C   0  0  0  0  0  0  0  0  0  0  0  0
  129.2440  131.4770   57.5890 O   0  0  0  0  0  0  0  0  0  0  0  0
  130.2180  131.1050   58.5540 C   0  0  0  0  0  0  0  0  0  0  0  0
  1  2  1  0
  2  3  1  0
  3  4  2  0
  4  5  1  0
  5  6  2  0
  6  7  1  0
  7  8  1  0
  8  9  1  0
  9 10  2  0
  9 11  1  0
 11 12  1  0
 12 13  1  0
 13 14  2  0
 14 15  1  0
 15 16  1  0
 15 17  2  0
 17 18  1  0
 18 19  1  0
 19 20  1  0
 19 21  1  0
 19 22  1  0
 18 23  2  0
 23 24  1  0
 24 25  3  0
  6 26  1  0
 26 27  1  0
 27 28  1  0
 26 29  2  0
 29 30  1  0
 30 31  1  0
 29  3  1  0
 23 13  1  0
M  END
>  <Binding energies>  (24) 
[-6.71]

>  <Ligand effiencies>  (24) 
[-0.2096875]

>  <Interactions>  (24) 
["V-A:ILE:538:CA:4860, V-A:PRO:540:CD:4887, V-A:TYR:531:CZ:4794, V-A:ILE:538:CG2:4863, V-A:ILE:538:C:4858, V-A:ILE:538:CB:4862, V-A:PRO:540:CB:4885, V-A:PRO:540:CA:4883, V-A:TYR:539:C:4867, V-A:PRO:540:N:4884, V-A:LEU:363:CD1:3188, H-A:TYR:531:OH:4795, H-B:TYR:539:OH:9850, V-A:PRO:540:CG:4886, V-B:ASP:366:CG:8184, V-B:PRO:540:CB:9857, V-B:TYR:539:CZ:9849, H-B:TYR:531:OH:9767, V-B:ASP:366:CB:8183, V-B:PRO:540:N:9856, V-B:PRO:540:CG:9858, V-B:LEU:363:CD1:8160, V-B:PRO:540:CD:9859, H-B:TYR:539:N:9842, V-B:PRO:540:CA:9855, V-B:MET:535:CE:9807, V-B:TYR:531:CE2:9765, V-B:TYR:531:CZ:9766, V-B:TYR:531:CE1:9764, H-A:TYR:539:N:4870, V-B:LEU:363:CA:8156, V-B:TYR:539:C:9839, V-B:LEU:363:CB:8158, H-B:MET:535:SD:9806, V-A:MET:535:CG:4833, V-B:ASN:362:C:8143, V-B:LEU:363:C:8154, V-B:LEU:363:CG:8159"]

$$$$
2i_Grossjean_2025
     RDKit          3D

 23 24  0  0  0  0  0  0  0  0999 V2000
  132.7540  131.8100   61.7290 C   0  0  0  0  0  0  0  0  0  0  0  0
  132.1380  130.9190   60.6650 C   0  0  0  0  0  0  0  0  0  0  0  0
  131.0450  130.1020   60.9410 C   0  0  0  0  0  0  0  0  0  0  0  0
  130.5110  129.2990   59.9220 C   0  0  0  0  0  0  0  0  0  0  0  0
  129.3020  128.4010   60.2440 C   0  0  0  0  0  0  0  0  0  0  0  0
  128.9740  128.5220   61.5310 F   0  0  0  0  0  0  0  0  0  0  0  0
  128.2560  128.7540   59.4960 F   0  0  0  0  0  0  0  0  0  0  0  0
  129.5420  127.1080   60.0110 F   0  0  0  0  0  0  0  0  0  0  0  0
  131.1090  129.3480   58.6370 C   0  0  0  0  0  0  0  0  0  0  0  0
  130.5900  128.5310   57.5360 C   0  0  0  0  0  0  0  0  0  0  0  0
  130.1810  127.8860   56.6660 N   0  0  0  0  0  0  0  0  0  0  0  0
  132.2180  130.2050   58.4460 C   0  0  0  0  0  0  0  0  0  0  0  0
  133.0550  130.3430   56.8750 S   0  0  0  0  0  0  0  0  0  0  0  0
  132.3530  131.7640   55.9840 C   0  0  0  0  0  0  0  0  0  0  0  0
  130.8230  131.7470   55.9780 C   0  0  0  0  0  0  0  0  0  0  0  0
  130.2120  132.6630   56.5310 O   0  0  0  0  0  0  0  0  0  0  0  0
  130.2490  130.6840   55.3740 N   0  0  0  0  0  0  0  0  0  0  0  0
  128.8920  130.4330   55.2550 C   0  0  0  0  0  0  0  0  0  0  0  0
  127.9680  129.9930   56.2130 C   0  0  0  0  0  0  0  0  0  0  0  0
  126.7710  129.9240   55.5380 C   0  0  0  0  0  0  0  0  0  0  0  0
  126.9640  130.3070   54.2530 O   0  0  0  0  0  0  0  0  0  0  0  0
  128.3120  130.6320   54.0910 N   0  0  0  0  0  0  0  0  0  0  0  0
  132.7190  130.9750   59.4460 N   0  0  0  0  0  0  0  0  0  0  0  0
  1  2  1  0
  2  3  2  0
  3  4  1  0
  4  5  1  0
  5  6  1  0
  5  7  1  0
  5  8  1  0
  4  9  2  0
  9 10  1  0
 10 11  3  0
  9 12  1  0
 12 13  1  0
 13 14  1  0
 14 15  1  0
 15 16  2  0
 15 17  1  0
 17 18  1  0
 18 19  1  0
 19 20  2  0
 20 21  1  0
 21 22  1  0
 12 23  2  0
 23  2  1  0
 22 18  2  0
M  END
>  <Binding energies>  (25) 
[-6.96]

>  <Ligand effiencies>  (25) 
[-0.29]

>  <Interactions>  (25) 
["V-A:TYR:539:CZ:4877, V-A:ASP:366:CB:3211, V-A:ASN:362:CB:3175, V-A:ALA:541:C:4888, V-A:PRO:540:C:4881, V-A:ILE:538:CB:4862, V-A:TYR:539:CE1:4875, V-A:PRO:540:CB:4885, V-A:PRO:540:CA:4883, V-A:ASP:366:CG:3212, V-A:LEU:363:CD1:3188, H-A:TYR:531:OH:4795, V-B:TYR:531:CZ:9766, H-A:TYR:539:OH:4878, H-B:LYS:534:NZ:9795, V-B:TYR:531:CE1:9764, H-A:TYR:539:N:4870, V-A:TYR:531:CE2:4793"]

$$$$
2k_Grossjean_2025
     RDKit          3D

 28 28  0  0  0  0  0  0  0  0999 V2000
  125.2440  121.6850   55.1800 C   0  0  0  0  0  0  0  0  0  0  0  0
  126.2770  121.3180   56.0810 O   0  0  0  0  0  0  0  0  0  0  0  0
  126.5960  122.3370   57.0210 C   0  0  0  0  0  0  0  0  0  0  0  0
  125.6550  123.5330   56.8280 C   0  0  0  0  0  0  0  0  0  0  0  0
  126.2180  124.6710   57.4640 O   0  0  0  0  0  0  0  0  0  0  0  0
  125.4650  125.1550   58.5700 C   0  0  0  0  0  0  0  0  0  0  0  0
  126.0250  126.5240   58.9760 C   0  0  0  0  0  0  0  0  0  0  0  0
  126.9850  126.9070   58.0040 O   0  0  0  0  0  0  0  0  0  0  0  0
  128.3400  126.7370   58.3930 C   0  0  0  0  0  0  0  0  0  0  0  0
  129.1900  126.4620   57.1390 C   0  0  0  0  0  0  0  0  0  0  0  0
  128.6760  127.1340   55.9420 N   0  0  0  0  0  0  0  0  0  0  0  0
  129.3430  127.2880   54.7820 C   0  0  0  0  0  0  0  0  0  0  0  0
  130.4760  126.8430   54.5880 O   0  0  0  0  0  0  0  0  0  0  0  0
  128.6110  128.0840   53.6920 C   0  0  0  0  0  0  0  0  0  0  0  0
  127.6940  129.5510   54.2780 S   0  0  0  0  0  0  0  0  0  0  0  0
  128.6580  130.3950   55.5250 C   0  0  0  0  0  0  0  0  0  0  0  0
  129.8420  130.9100   55.1070 N   0  0  0  0  0  0  0  0  0  0  0  0
  130.6250  131.5570   55.9980 C   0  0  0  0  0  0  0  0  0  0  0  0
  131.9350  132.0930   55.4560 C   0  0  0  0  0  0  0  0  0  0  0  0
  130.2610  131.7290   57.3310 C   0  0  0  0  0  0  0  0  0  0  0  0
  129.0380  131.2120   57.7840 C   0  0  0  0  0  0  0  0  0  0  0  0
  128.6480  131.4160   59.2610 C   0  0  0  0  0  0  0  0  0  0  0  0
  129.5890  132.0540   59.9600 F   0  0  0  0  0  0  0  0  0  0  0  0
  127.5300  132.1390   59.3430 F   0  0  0  0  0  0  0  0  0  0  0  0
  128.4440  130.2360   59.8470 F   0  0  0  0  0  0  0  0  0  0  0  0
  128.2100  130.5240   56.8610 C   0  0  0  0  0  0  0  0  0  0  0  0
  126.9230  129.9600   57.2810 C   0  0  0  0  0  0  0  0  0  0  0  0
  125.9070  129.5160   57.6130 N   0  0  0  0  0  0  0  0  0  0  0  0
  1  2  1  0
  2  3  1  0
  3  4  1  0
  4  5  1  0
  5  6  1  0
  6  7  1  0
  7  8  1  0
  8  9  1  0
  9 10  1  0
 10 11  1  0
 11 12  1  0
 12 13  2  0
 12 14  1  0
 14 15  1  0
 15 16  1  0
 16 17  2  0
 17 18  1  0
 18 19  1  0
 18 20  2  0
 20 21  1  0
 21 22  1  0
 22 23  1  0
 22 24  1  0
 22 25  1  0
 21 26  2  0
 26 27  1  0
 27 28  3  0
 26 16  1  0
M  END
>  <Binding energies>  (26) 
[-6.2]

>  <Ligand effiencies>  (26) 
[-0.21379310344827587]

>  <Interactions>  (26) 
["V-A:TYR:539:CZ:4877, V-A:PRO:540:C:4881, V-A:ILE:538:CG2:4863, V-A:ILE:538:CB:4862, V-A:TYR:539:CE1:4875, V-A:PRO:540:CA:4883, V-A:TYR:539:C:4867, V-A:PRO:540:N:4884, V-A:LEU:363:CD1:3188, H-A:TYR:531:OH:4795, V-B:ASP:366:CG:8184, V-B:PRO:540:CB:9857, H-B:TYR:531:OH:9767, V-B:ASP:366:CB:8183, V-B:PRO:540:N:9856, V-A:TYR:539:CD1:4873, V-B:ILE:538:CG2:9835, V-B:LEU:363:CD1:8160, V-B:PRO:540:CD:9859, H-B:TYR:539:N:9842, V-B:PRO:540:CA:9855, V-B:MET:535:CE:9807, V-B:TYR:531:CE2:9765, V-B:TYR:531:CZ:9766, H-B:LYS:534:NZ:9795, V-B:TYR:531:CE1:9764, V-B:TYR:539:C:9839, V-A:TYR:531:CE2:4793, V-B:ILE:538:CA:9832, V-B:ILE:538:CB:9834, V-B:ILE:538:C:9830, V-B:ILE:538:CG1:9836, V-B:MET:535:CG:9805"]

$$$$
3aa_Grossjean_2025
     RDKit          3D

 34 36  0  0  0  0  0  0  0  0999 V2000
  129.5130  132.1710   55.2110 C   0  0  0  0  0  0  0  0  0  0  0  0
  129.8240  131.3160   53.9780 C   0  0  0  0  0  0  0  0  0  0  0  0
  128.6310  130.6900   53.5220 O   0  0  0  0  0  0  0  0  0  0  0  0
  127.9490  129.8240   54.3140 C   0  0  0  0  0  0  0  0  0  0  0  0
  126.7400  129.9200   54.5440 O   0  0  0  0  0  0  0  0  0  0  0  0
  128.8170  128.7450   54.8990 C   0  0  0  0  0  0  0  0  0  0  0  0
  129.1850  128.7400   56.2520 C   0  0  0  0  0  0  0  0  0  0  0  0
  129.9870  127.7220   56.7630 C   0  0  0  0  0  0  0  0  0  0  0  0
  130.4290  126.6890   55.9360 C   0  0  0  0  0  0  0  0  0  0  0  0
  131.2310  125.7070   56.5530 N   0  0  0  0  0  0  0  0  0  0  0  0
  132.5460  125.4430   56.3890 C   0  0  0  0  0  0  0  0  0  0  0  0
  133.3020  126.0310   55.6140 O   0  0  0  0  0  0  0  0  0  0  0  0
  133.1000  124.3030   57.2450 C   0  0  0  0  0  0  0  0  0  0  0  0
  132.7570  124.5580   59.0120 S   0  0  0  0  0  0  0  0  0  0  0  0
  131.4920  123.3950   59.4700 C   0  0  0  0  0  0  0  0  0  0  0  0
  130.3180  123.5870   58.8220 N   0  0  0  0  0  0  0  0  0  0  0  0
  129.2650  122.7680   59.0800 C   0  0  0  0  0  0  0  0  0  0  0  0
  128.0060  123.0350   58.3120 C   0  0  0  0  0  0  0  0  0  0  0  0
  127.5530  122.1250   57.3440 C   0  0  0  0  0  0  0  0  0  0  0  0
  126.3830  122.3660   56.6270 C   0  0  0  0  0  0  0  0  0  0  0  0
  125.6500  123.5220   56.8700 C   0  0  0  0  0  0  0  0  0  0  0  0
  126.0760  124.4380   57.8260 C   0  0  0  0  0  0  0  0  0  0  0  0
  127.2440  124.1940   58.5430 C   0  0  0  0  0  0  0  0  0  0  0  0
  129.3770  121.7230   60.0020 C   0  0  0  0  0  0  0  0  0  0  0  0
  130.5780  121.5160   60.6990 C   0  0  0  0  0  0  0  0  0  0  0  0
  130.6580  120.3600   61.7140 C   0  0  0  0  0  0  0  0  0  0  0  0
  129.6380  119.5060   61.6090 F   0  0  0  0  0  0  0  0  0  0  0  0
  131.7800  119.6640   61.5310 F   0  0  0  0  0  0  0  0  0  0  0  0
  130.6490  120.8460   62.9560 F   0  0  0  0  0  0  0  0  0  0  0  0
  131.6670  122.3820   60.4380 C   0  0  0  0  0  0  0  0  0  0  0  0
  132.9260  122.2490   61.1780 C   0  0  0  0  0  0  0  0  0  0  0  0
  133.9200  122.1450   61.7620 N   0  0  0  0  0  0  0  0  0  0  0  0
  130.0750  126.6950   54.5780 C   0  0  0  0  0  0  0  0  0  0  0  0
  129.2770  127.7140   54.0700 C   0  0  0  0  0  0  0  0  0  0  0  0
  1  2  1  0
  2  3  1  0
  3  4  1  0
  4  5  2  0
  4  6  1  0
  6  7  2  0
  7  8  1  0
  8  9  2  0
  9 10  1  0
 10 11  1  0
 11 12  2  0
 11 13  1  0
 13 14  1  0
 14 15  1  0
 15 16  2  0
 16 17  1  0
 17 18  1  0
 18 19  2  0
 19 20  1  0
 20 21  2  0
 21 22  1  0
 22 23  2  0
 17 24  2  0
 24 25  1  0
 25 26  1  0
 26 27  1  0
 26 28  1  0
 26 29  1  0
 25 30  2  0
 30 31  1  0
 31 32  3  0
  9 33  1  0
 33 34  2  0
 34  6  1  0
 30 15  1  0
 23 18  1  0
M  END
>  <Binding energies>  (27) 
[-8.83]

>  <Ligand effiencies>  (27) 
[-0.2522857142857143]

>  <Interactions>  (27) 
["V-A:ASP:366:CB:3211, V-A:ILE:538:CA:4860, V-A:TYR:531:CZ:4794, V-A:ILE:538:CG2:4863, V-A:ILE:538:C:4858, V-A:ILE:538:CB:4862, H-A:TYR:531:OH:4795, H-B:TYR:539:OH:9850, V-A:ASP:366:C:3207, V-B:TYR:539:CZ:9849, V-B:ALA:541:CB:9864, H-B:TYR:531:OH:9767, V-B:PRO:540:N:9856, V-B:TYR:539:CD2:9846, V-A:MET:535:CE:4835, V-B:LEU:363:CD1:8160, V-B:PRO:540:CD:9859, V-B:PRO:540:C:9853, V-B:TYR:539:CE2:9848, V-B:PRO:540:CA:9855, V-B:ALA:541:CA:9862, V-B:MET:535:CE:9807, V-B:TYR:531:CE2:9765, V-B:TYR:531:CZ:9766, H-A:TYR:539:OH:4878, H-B:LYS:534:NZ:9795, V-B:TYR:531:CE1:9764, V-A:LEU:475:CD1:4257, V-B:TYR:539:C:9839, V-B:LYS:534:CE:9794, V-A:PRO:482:CG:4326, V-A:ASP:366:CA:3209, V-B:TYR:539:CA:9841, V-A:ASN:370:CB:3244"]

$$$$
3ad_Grossjean_2025
     RDKit          3D

 29 31  0  0  0  0  0  0  0  0999 V2000
  130.8490  126.2070   54.2130 N   0  0  0  0  0  0  0  0  0  0  0  0
  130.1280  126.8110   54.8870 C   0  0  0  0  0  0  0  0  0  0  0  0
  129.2140  127.5730   55.7440 C   0  0  0  0  0  0  0  0  0  0  0  0
  128.7920  127.0550   56.9930 C   0  0  0  0  0  0  0  0  0  0  0  0
  129.2880  125.7050   57.5450 C   0  0  0  0  0  0  0  0  0  0  0  0
  128.8190  125.4400   58.7660 F   0  0  0  0  0  0  0  0  0  0  0  0
  128.8990  124.7140   56.7400 F   0  0  0  0  0  0  0  0  0  0  0  0
  130.6200  125.7020   57.6210 F   0  0  0  0  0  0  0  0  0  0  0  0
  127.8800  127.8030   57.7540 C   0  0  0  0  0  0  0  0  0  0  0  0
  127.4020  129.0300   57.2810 C   0  0  0  0  0  0  0  0  0  0  0  0
  126.4160  129.8610   58.0470 C   0  0  0  0  0  0  0  0  0  0  0  0
  125.0620  129.8870   57.6790 C   0  0  0  0  0  0  0  0  0  0  0  0
  124.1410  130.6560   58.3850 C   0  0  0  0  0  0  0  0  0  0  0  0
  124.5650  131.4130   59.4740 C   0  0  0  0  0  0  0  0  0  0  0  0
  125.9010  131.4020   59.8600 C   0  0  0  0  0  0  0  0  0  0  0  0
  126.8180  130.6310   59.1510 C   0  0  0  0  0  0  0  0  0  0  0  0
  127.8060  129.5180   56.0810 N   0  0  0  0  0  0  0  0  0  0  0  0
  128.7000  128.8250   55.3380 C   0  0  0  0  0  0  0  0  0  0  0  0
  129.1230  129.6210   53.8040 S   0  0  0  0  0  0  0  0  0  0  0  0
  129.2640  131.4020   54.1410 C   0  0  0  0  0  0  0  0  0  0  0  0
  129.7580  131.6840   55.5620 C   0  0  0  0  0  0  0  0  0  0  0  0
  129.2320  132.5890   56.2100 O   0  0  0  0  0  0  0  0  0  0  0  0
  130.7600  130.8900   55.9950 N   0  0  0  0  0  0  0  0  0  0  0  0
  131.4260  130.8740   57.2350 C   0  0  0  0  0  0  0  0  0  0  0  0
  132.7920  130.5790   57.1860 C   0  0  0  0  0  0  0  0  0  0  0  0
  133.5440  130.5340   58.3570 C   0  0  0  0  0  0  0  0  0  0  0  0
  132.9290  130.7790   59.5810 C   0  0  0  0  0  0  0  0  0  0  0  0
  131.5690  131.0660   59.6460 C   0  0  0  0  0  0  0  0  0  0  0  0
  130.8120  131.1120   58.4770 C   0  0  0  0  0  0  0  0  0  0  0  0
  1  2  3  0
  2  3  1  0
  3  4  2  0
  4  5  1  0
  5  6  1  0
  5  7  1  0
  5  8  1  0
  4  9  1  0
  9 10  2  0
 10 11  1  0
 11 12  2  0
 12 13  1  0
 13 14  2  0
 14 15  1  0
 15 16  2  0
 10 17  1  0
 17 18  2  0
 18 19  1  0
 19 20  1  0
 20 21  1  0
 21 22  2  0
 21 23  1  0
 23 24  1  0
 24 25  2  0
 25 26  1  0
 26 27  2  0
 27 28  1  0
 28 29  2  0
 18  3  1  0
 29 24  1  0
 16 11  1  0
M  END
>  <Binding energies>  (28) 
[-8.22]

>  <Ligand effiencies>  (28) 
[-0.274]

>  <Interactions>  (28) 
["V-A:TYR:539:CZ:4877, V-A:ASP:366:CB:3211, V-A:ILE:538:CA:4860, V-A:TYR:531:CZ:4794, V-A:ILE:538:CG2:4863, V-A:ILE:538:CB:4862, V-A:TYR:539:CE1:4875, V-A:PRO:540:CB:4885, V-A:PRO:540:CA:4883, V-A:ASP:366:CG:3212, V-A:LEU:363:CD1:3188, H-A:TYR:531:OH:4795, H-B:TYR:539:OH:9850, H-B:TYR:531:OH:9767, V-B:ASP:366:CB:8183, V-B:ASP:366:CA:8181, V-A:TYR:539:CD1:4873, V-B:MET:535:CE:9807, V-B:ILE:369:CG2:8208, H-A:TYR:539:N:4870, V-A:LEU:363:CA:3184, V-B:ILE:369:CB:8207, V-B:ASP:366:C:8179, V-A:LEU:363:CB:3186"]

$$$$
3ai_Grossjean_2025
     RDKit          3D

 28 30  0  0  0  0  0  0  0  0999 V2000
  133.4820  126.2520   55.6030 N   0  0  0  0  0  0  0  0  0  0  0  0
  132.4340  125.9340   55.9770 C   0  0  0  0  0  0  0  0  0  0  0  0
  131.1070  125.5310   56.4510 C   0  0  0  0  0  0  0  0  0  0  0  0
  130.9620  124.7680   57.6360 C   0  0  0  0  0  0  0  0  0  0  0  0
  132.1620  124.3580   58.5120 C   0  0  0  0  0  0  0  0  0  0  0  0
  131.8450  123.4390   59.4260 F   0  0  0  0  0  0  0  0  0  0  0  0
  133.1300  123.8500   57.7490 F   0  0  0  0  0  0  0  0  0  0  0  0
  132.6370  125.4200   59.1640 F   0  0  0  0  0  0  0  0  0  0  0  0
  129.6750  124.3660   58.0220 C   0  0  0  0  0  0  0  0  0  0  0  0
  128.5630  124.7130   57.2470 C   0  0  0  0  0  0  0  0  0  0  0  0
  127.1670  124.3010   57.6060 C   0  0  0  0  0  0  0  0  0  0  0  0
  126.6400  123.0820   57.1500 C   0  0  0  0  0  0  0  0  0  0  0  0
  125.3460  122.6920   57.4830 C   0  0  0  0  0  0  0  0  0  0  0  0
  124.5600  123.5170   58.2810 C   0  0  0  0  0  0  0  0  0  0  0  0
  125.0590  124.7280   58.7480 C   0  0  0  0  0  0  0  0  0  0  0  0
  126.3530  125.1150   58.4130 C   0  0  0  0  0  0  0  0  0  0  0  0
  128.7070  125.4360   56.1080 N   0  0  0  0  0  0  0  0  0  0  0  0
  129.9370  125.8570   55.7270 C   0  0  0  0  0  0  0  0  0  0  0  0
  129.9270  126.8100   54.2230 S   0  0  0  0  0  0  0  0  0  0  0  0
  128.4390  127.8670   54.2410 C   0  0  0  0  0  0  0  0  0  0  0  0
  128.6940  129.3410   54.5870 C   0  0  0  0  0  0  0  0  0  0  0  0
  127.8820  130.2130   54.2680 O   0  0  0  0  0  0  0  0  0  0  0  0
  129.8510  129.5740   55.2460 N   0  0  0  0  0  0  0  0  0  0  0  0
  130.3350  130.7980   55.6880 C   0  0  0  0  0  0  0  0  0  0  0  0
  131.5560  130.9420   56.3470 C   0  0  0  0  0  0  0  0  0  0  0  0
  131.6630  132.2870   56.6140 C   0  0  0  0  0  0  0  0  0  0  0  0
  130.5640  132.9220   56.1410 O   0  0  0  0  0  0  0  0  0  0  0  0
  129.7300  131.9670   55.5560 N   0  0  0  0  0  0  0  0  0  0  0  0
  1  2  3  0
  2  3  1  0
  3  4  2  0
  4  5  1  0
  5  6  1  0
  5  7  1  0
  5  8  1  0
  4  9  1  0
  9 10  2  0
 10 11  1  0
 11 12  2  0
 12 13  1  0
 13 14  2  0
 14 15  1  0
 15 16  2  0
 10 17  1  0
 17 18  2  0
 18 19  1  0
 19 20  1  0
 20 21  1  0
 21 22  2  0
 21 23  1  0
 23 24  1  0
 24 25  1  0
 25 26  2  0
 26 27  1  0
 27 28  1  0
 18  3  1  0
 28 24  2  0
 16 11  1  0
M  END
>  <Binding energies>  (29) 
[-8.48]

>  <Ligand effiencies>  (29) 
[-0.2924137931034483]

>  <Interactions>  (29) 
["V-A:ASP:366:CB:3211, V-A:PRO:540:CD:4887, V-A:TYR:531:CZ:4794, V-A:PRO:540:CB:4885, V-A:PRO:540:CA:4883, V-A:ASP:366:CG:3212, V-A:TYR:539:C:4867, V-A:PRO:540:N:4884, V-A:LEU:363:CD1:3188, H-A:TYR:531:OH:4795, V-A:ASP:366:C:3207, V-B:ASP:366:CG:8184, V-B:PRO:540:CB:9857, V-B:TYR:539:CZ:9849, H-B:TYR:531:OH:9767, V-B:ASP:366:CB:8183, V-B:PRO:540:N:9856, V-B:PRO:540:CG:9858, V-B:LEU:363:CD1:8160, V-B:PRO:540:CD:9859, V-B:TYR:539:CE2:9848, V-B:PRO:540:CA:9855, V-B:MET:535:CE:9807, V-B:TYR:531:CZ:9766, H-B:LYS:534:NZ:9795, V-B:TYR:531:CE1:9764, H-A:TYR:539:N:4870, V-B:LEU:363:CA:8156, V-B:LEU:363:CB:8158, V-A:ILE:369:CG2:3236, V-A:ASP:366:CA:3209, V-A:TYR:531:CE1:4792, V-A:ASN:370:CB:3244, H-A:ALA:367:N:3219"]

$$$$
3aj_Grossjean_2025
     RDKit          3D

 28 30  0  0  0  0  0  0  0  0999 V2000
  130.8490  126.1660   54.1550 N   0  0  0  0  0  0  0  0  0  0  0  0
  130.1230  126.7580   54.8340 C   0  0  0  0  0  0  0  0  0  0  0  0
  129.2030  127.5050   55.6960 C   0  0  0  0  0  0  0  0  0  0  0  0
  128.7980  126.9820   56.9490 C   0  0  0  0  0  0  0  0  0  0  0  0
  129.3210  125.6400   57.4980 C   0  0  0  0  0  0  0  0  0  0  0  0
  130.6540  125.5890   57.5560 F   0  0  0  0  0  0  0  0  0  0  0  0
  128.8560  125.4400   58.7310 F   0  0  0  0  0  0  0  0  0  0  0  0
  128.9170  124.6390   56.7160 F   0  0  0  0  0  0  0  0  0  0  0  0
  127.8780  127.7150   57.7150 C   0  0  0  0  0  0  0  0  0  0  0  0
  127.3750  128.9310   57.2440 C   0  0  0  0  0  0  0  0  0  0  0  0
  126.3840  129.7480   58.0160 C   0  0  0  0  0  0  0  0  0  0  0  0
  126.7860  130.4850   59.1410 C   0  0  0  0  0  0  0  0  0  0  0  0
  125.8720  131.2500   59.8620 C   0  0  0  0  0  0  0  0  0  0  0  0
  124.5390  131.2860   59.4650 C   0  0  0  0  0  0  0  0  0  0  0  0
  124.1160  130.5650   58.3530 C   0  0  0  0  0  0  0  0  0  0  0  0
  125.0330  129.8040   57.6350 C   0  0  0  0  0  0  0  0  0  0  0  0
  127.7600  129.4250   56.0390 N   0  0  0  0  0  0  0  0  0  0  0  0
  128.6640  128.7480   55.2920 C   0  0  0  0  0  0  0  0  0  0  0  0
  129.0650  129.5580   53.7580 S   0  0  0  0  0  0  0  0  0  0  0  0
  129.3780  131.3190   54.1200 C   0  0  0  0  0  0  0  0  0  0  0  0
  130.0230  131.5970   55.4850 C   0  0  0  0  0  0  0  0  0  0  0  0
  129.6530  132.5500   56.1760 O   0  0  0  0  0  0  0  0  0  0  0  0
  130.9940  130.7260   55.8380 N   0  0  0  0  0  0  0  0  0  0  0  0
  131.7330  130.7390   57.0140 C   0  0  0  0  0  0  0  0  0  0  0  0
  133.0290  130.5660   57.1560 N   0  0  0  0  0  0  0  0  0  0  0  0
  133.3950  130.6470   58.4200 C   0  0  0  0  0  0  0  0  0  0  0  0
  132.3780  130.8910   59.3400 C   0  0  0  0  0  0  0  0  0  0  0  0
  130.8670  131.0180   58.4910 S   0  0  0  0  0  0  0  0  0  0  0  0
  1  2  3  0
  2  3  1  0
  3  4  2  0
  4  5  1  0
  5  6  1  0
  5  7  1  0
  5  8  1  0
  4  9  1  0
  9 10  2  0
 10 11  1  0
 11 12  2  0
 12 13  1  0
 13 14  2  0
 14 15  1  0
 15 16  2  0
 10 17  1  0
 17 18  2  0
 18 19  1  0
 19 20  1  0
 20 21  1  0
 21 22  2  0
 21 23  1  0
 23 24  1  0
 24 25  2  0
 25 26  1  0
 26 27  2  0
 27 28  1  0
 18  3  1  0
 28 24  1  0
 16 11  1  0
M  END
>  <Binding energies>  (30) 
[-7.75]

>  <Ligand effiencies>  (30) 
[-0.2672413793103448]

>  <Interactions>  (30) 
["V-A:TYR:539:CZ:4877, V-A:ASP:366:CB:3211, V-A:ILE:538:CA:4860, V-A:TYR:531:CZ:4794, V-A:ILE:538:CG2:4863, V-A:ILE:538:CB:4862, V-A:TYR:539:CE1:4875, V-A:PRO:540:CB:4885, V-A:PRO:540:CA:4883, V-A:ASP:366:CG:3212, V-A:LEU:363:CD1:3188, H-A:TYR:531:OH:4795, H-B:TYR:539:OH:9850, H-B:TYR:531:OH:9767, V-B:ASP:366:CB:8183, V-B:ASP:366:CA:8181, V-A:TYR:539:CD1:4873, V-B:MET:535:CE:9807, V-B:ILE:369:CG2:8208, H-A:TYR:539:N:4870, V-A:LEU:363:CA:3184, V-B:ILE:369:CB:8207, V-B:ASP:366:C:8179, V-A:LEU:363:CB:3186"]

$$$$
3ak_Grossjean_2025
     RDKit          3D

 33 34  0  0  0  0  0  0  0  0999 V2000
  129.6710  131.8950   57.2460 C   0  0  0  0  0  0  0  0  0  0  0  0
  130.0380  132.5510   56.0430 O   0  0  0  0  0  0  0  0  0  0  0  0
  129.2870  132.1250   54.9150 C   0  0  0  0  0  0  0  0  0  0  0  0
  128.2600  131.0780   55.3650 C   0  0  0  0  0  0  0  0  0  0  0  0
  127.8140  130.3490   54.2270 O   0  0  0  0  0  0  0  0  0  0  0  0
  128.6960  129.3290   53.7660 C   0  0  0  0  0  0  0  0  0  0  0  0
  129.2710  128.4500   54.8920 C   0  0  0  0  0  0  0  0  0  0  0  0
  128.9750  127.0880   54.6190 O   0  0  0  0  0  0  0  0  0  0  0  0
  128.9600  126.2580   55.7730 C   0  0  0  0  0  0  0  0  0  0  0  0
  129.8370  126.8720   56.8800 C   0  0  0  0  0  0  0  0  0  0  0  0
  130.9210  125.9930   57.3240 N   0  0  0  0  0  0  0  0  0  0  0  0
  131.9770  125.6050   56.5840 C   0  0  0  0  0  0  0  0  0  0  0  0
  132.1520  125.9790   55.4230 O   0  0  0  0  0  0  0  0  0  0  0  0
  133.0120  124.6550   57.2100 C   0  0  0  0  0  0  0  0  0  0  0  0
  132.9570  124.4720   59.0310 S   0  0  0  0  0  0  0  0  0  0  0  0
  131.6380  123.3450   59.4550 C   0  0  0  0  0  0  0  0  0  0  0  0
  130.4450  123.5890   58.8600 N   0  0  0  0  0  0  0  0  0  0  0  0
  129.3790  122.7900   59.1240 C   0  0  0  0  0  0  0  0  0  0  0  0
  128.0990  123.1320   58.4230 C   0  0  0  0  0  0  0  0  0  0  0  0
  127.5250  122.2410   57.5020 C   0  0  0  0  0  0  0  0  0  0  0  0
  126.3340  122.5520   56.8510 C   0  0  0  0  0  0  0  0  0  0  0  0
  125.6980  123.7610   57.1130 C   0  0  0  0  0  0  0  0  0  0  0  0
  126.2440  124.6600   58.0220 C   0  0  0  0  0  0  0  0  0  0  0  0
  127.4350  124.3460   58.6730 C   0  0  0  0  0  0  0  0  0  0  0  0
  129.4980  121.7010   59.9940 C   0  0  0  0  0  0  0  0  0  0  0  0
  130.7220  121.4250   60.6210 C   0  0  0  0  0  0  0  0  0  0  0  0
  130.8130  120.2170   61.5740 C   0  0  0  0  0  0  0  0  0  0  0  0
  130.8220  120.6350   62.8400 F   0  0  0  0  0  0  0  0  0  0  0  0
  129.7660  119.4110   61.3930 F   0  0  0  0  0  0  0  0  0  0  0  0
  131.9150  119.4890   61.3840 F   0  0  0  0  0  0  0  0  0  0  0  0
  131.8260  122.2680   60.3490 C   0  0  0  0  0  0  0  0  0  0  0  0
  133.1300  122.0280   60.9760 C   0  0  0  0  0  0  0  0  0  0  0  0
  134.1590  121.8390   61.4720 N   0  0  0  0  0  0  0  0  0  0  0  0
  1  2  1  0
  2  3  1  0
  3  4  1  0
  4  5  1  0
  5  6  1  0
  6  7  1  0
  7  8  1  0
  8  9  1  0
  9 10  1  0
 10 11  1  0
 11 12  1  0
 12 13  2  0
 12 14  1  0
 14 15  1  0
 15 16  1  0
 16 17  2  0
 17 18  1  0
 18 19  1  0
 19 20  2  0
 20 21  1  0
 21 22  2  0
 22 23  1  0
 23 24  2  0
 18 25  2  0
 25 26  1  0
 26 27  1  0
 27 28  1  0
 27 29  1  0
 27 30  1  0
 26 31  2  0
 31 32  1  0
 32 33  3  0
 31 16  1  0
 24 19  1  0
M  END
>  <Binding energies>  (31) 
[-7.44]

>  <Ligand effiencies>  (31) 
[-0.21882352941176472]

>  <Interactions>  (31) 
["V-A:TYR:539:CZ:4877, V-A:ASP:366:CB:3211, V-A:ILE:538:CA:4860, V-A:ILE:538:CG2:4863, V-A:ILE:538:C:4858, V-A:ILE:538:CB:4862, V-A:TYR:539:CE1:4875, V-A:TYR:539:C:4867, V-A:PRO:540:N:4884, H-A:TYR:531:OH:4795, H-B:TYR:539:OH:9850, V-A:ASP:366:C:3207, V-B:TYR:539:CZ:9849, V-B:ALA:541:CB:9864, H-B:TYR:531:OH:9767, V-B:PRO:540:N:9856, V-B:TYR:539:CD2:9846, V-A:TYR:539:CD1:4873, V-B:LEU:363:CD1:8160, V-B:PRO:540:C:9853, V-B:TYR:539:CE2:9848, V-B:PRO:540:CA:9855, V-B:ALA:541:CA:9862, V-B:MET:535:CE:9807, V-B:TYR:531:CE2:9765, V-B:TYR:531:CZ:9766, H-A:TYR:539:OH:4878, H-B:LYS:534:NZ:9795, H-A:TYR:539:N:4870, V-A:LEU:475:CD1:4257, V-B:TYR:539:C:9839, V-A:ILE:369:CG2:3236, V-B:LYS:534:CE:9794, V-A:PRO:482:CG:4326, V-A:ASP:366:CA:3209"]

$$$$
3bk_Grossjean_2025
     RDKit          3D

 30 31  0  0  0  0  0  0  0  0999 V2000
  126.8090  129.9180   55.4260 C   0  0  0  0  0  0  0  0  0  0  0  0
  127.5170  130.6200   54.4160 O   0  0  0  0  0  0  0  0  0  0  0  0
  128.9230  130.6410   54.6210 C   0  0  0  0  0  0  0  0  0  0  0  0
  129.4040  132.0930   54.7460 C   0  0  0  0  0  0  0  0  0  0  0  0
  130.0800  132.2610   55.9850 O   0  0  0  0  0  0  0  0  0  0  0  0
  131.4570  132.5840   55.8490 C   0  0  0  0  0  0  0  0  0  0  0  0
  132.3050  131.3900   56.3050 C   0  0  0  0  0  0  0  0  0  0  0  0
  131.7260  130.8180   57.4700 O   0  0  0  0  0  0  0  0  0  0  0  0
  132.2940  129.5680   57.8410 C   0  0  0  0  0  0  0  0  0  0  0  0
  131.3870  128.4300   57.3530 C   0  0  0  0  0  0  0  0  0  0  0  0
  131.9580  127.1080   57.6210 N   0  0  0  0  0  0  0  0  0  0  0  0
  132.0290  126.0960   56.7400 C   0  0  0  0  0  0  0  0  0  0  0  0
  131.6300  126.1720   55.5770 O   0  0  0  0  0  0  0  0  0  0  0  0
  132.6730  124.8010   57.2400 C   0  0  0  0  0  0  0  0  0  0  0  0
  132.6510  124.6860   59.0570 S   0  0  0  0  0  0  0  0  0  0  0  0
  131.4380  123.4730   59.5480 C   0  0  0  0  0  0  0  0  0  0  0  0
  130.2320  123.5550   58.9310 N   0  0  0  0  0  0  0  0  0  0  0  0
  129.2460  122.6740   59.2440 C   0  0  0  0  0  0  0  0  0  0  0  0
  127.9530  122.8220   58.5000 C   0  0  0  0  0  0  0  0  0  0  0  0
  127.6910  122.0520   57.3550 C   0  0  0  0  0  0  0  0  0  0  0  0
  126.4940  122.1900   56.6570 C   0  0  0  0  0  0  0  0  0  0  0  0
  125.5400  123.1010   57.0960 C   0  0  0  0  0  0  0  0  0  0  0  0
  125.7720  123.8730   58.2300 C   0  0  0  0  0  0  0  0  0  0  0  0
  126.9700  123.7310   58.9260 C   0  0  0  0  0  0  0  0  0  0  0  0
  129.4570  121.6700   60.1970 C   0  0  0  0  0  0  0  0  0  0  0  0
  130.6930  121.5710   60.8440 C   0  0  0  0  0  0  0  0  0  0  0  0
  130.8800  120.4620   61.8780 C   0  0  0  0  0  0  0  0  0  0  0  0
  131.7160  122.4880   60.5210 C   0  0  0  0  0  0  0  0  0  0  0  0
  133.0220  122.4070   61.1820 C   0  0  0  0  0  0  0  0  0  0  0  0
  134.0530  122.3440   61.7040 N   0  0  0  0  0  0  0  0  0  0  0  0
  1  2  1  0
  2  3  1  0
  3  4  1  0
  4  5  1  0
  5  6  1  0
  6  7  1  0
  7  8  1  0
  8  9  1  0
  9 10  1  0
 10 11  1  0
 11 12  1  0
 12 13  2  0
 12 14  1  0
 14 15  1  0
 15 16  1  0
 16 17  2  0
 17 18  1  0
 18 19  1  0
 19 20  2  0
 20 21  1  0
 21 22  2  0
 22 23  1  0
 23 24  2  0
 18 25  2  0
 25 26  1  0
 26 27  1  0
 26 28  2  0
 28 29  1  0
 29 30  3  0
 28 16  1  0
 24 19  1  0
M  END
>  <Binding energies>  (32) 
[-8.45]

>  <Ligand effiencies>  (32) 
[-0.2725806451612903]

>  <Interactions>  (32) 
["V-A:TYR:539:CZ:4877, H-A:ASP:366:OD2:3214, V-A:ASP:366:CB:3211, V-A:ILE:538:CA:4860, V-A:PRO:540:CD:4887, V-A:ILE:538:CG2:4863, V-A:ILE:538:C:4858, V-A:ILE:538:CB:4862, V-A:TYR:539:CE1:4875, H-A:ASP:366:OD1:3213, V-A:ASP:366:CG:3212, V-A:PRO:540:N:4884, V-A:LEU:363:CD1:3188, H-A:TYR:531:OH:4795, H-B:TYR:539:OH:9850, V-A:ASP:366:C:3207, V-B:PRO:540:CB:9857, V-B:TYR:539:CZ:9849, V-B:ALA:541:CB:9864, V-B:PRO:540:N:9856, V-B:TYR:539:CD2:9846, V-B:LEU:363:CD1:8160, V-B:PRO:540:CD:9859, V-B:TYR:539:CE2:9848, V-B:PRO:540:CA:9855, V-B:MET:535:CE:9807, V-B:TYR:531:CE2:9765, V-B:TYR:531:CZ:9766, H-A:TYR:539:OH:4878, H-B:LYS:534:NZ:9795, V-B:TYR:531:CE1:9764, H-A:TYR:539:N:4870, V-A:LEU:475:CD1:4257, V-B:TYR:539:C:9839, V-A:ASP:366:CA:3209, V-B:TYR:539:CA:9841, V-B:TYR:539:CG:9844"]

$$$$
3cb_Grossjean_2025
     RDKit          3D

 30 32  0  0  0  0  0  0  0  0999 V2000
  125.6160  139.7680   61.8990 C   0  0  0  0  0  0  0  0  0  0  0  0
  125.1910  139.6180   60.5530 O   0  0  0  0  0  0  0  0  0  0  0  0
  125.8610  138.8060   59.6940 C   0  0  0  0  0  0  0  0  0  0  0  0
  126.4920  139.2210   58.7180 O   0  0  0  0  0  0  0  0  0  0  0  0
  125.7540  137.3500   60.0500 C   0  0  0  0  0  0  0  0  0  0  0  0
  124.5630  136.6290   59.8820 C   0  0  0  0  0  0  0  0  0  0  0  0
  124.4990  135.2800   60.2190 C   0  0  0  0  0  0  0  0  0  0  0  0
  125.6180  134.6240   60.7330 C   0  0  0  0  0  0  0  0  0  0  0  0
  125.4430  133.2590   61.0360 N   0  0  0  0  0  0  0  0  0  0  0  0
  124.5860  132.6640   61.8950 C   0  0  0  0  0  0  0  0  0  0  0  0
  123.7530  133.2550   62.5830 O   0  0  0  0  0  0  0  0  0  0  0  0
  124.7040  131.1330   61.9520 C   0  0  0  0  0  0  0  0  0  0  0  0
  124.6680  130.2970   60.3300 S   0  0  0  0  0  0  0  0  0  0  0  0
  126.2300  130.5970   59.5290 C   0  0  0  0  0  0  0  0  0  0  0  0
  127.1710  131.1120   60.3570 N   0  0  0  0  0  0  0  0  0  0  0  0
  128.3980  131.3800   59.8570 C   0  0  0  0  0  0  0  0  0  0  0  0
  129.4030  131.9440   60.8430 C   0  0  0  0  0  0  0  0  0  0  0  0
  128.7310  131.1530   58.5250 C   0  0  0  0  0  0  0  0  0  0  0  0
  127.7700  130.6360   57.6470 C   0  0  0  0  0  0  0  0  0  0  0  0
  128.1740  130.4160   56.2240 C   0  0  0  0  0  0  0  0  0  0  0  0
  128.6220  131.4900   55.4450 C   0  0  0  0  0  0  0  0  0  0  0  0
  129.0120  131.2930   54.1230 C   0  0  0  0  0  0  0  0  0  0  0  0
  128.9590  130.0150   53.5730 C   0  0  0  0  0  0  0  0  0  0  0  0
  128.5240  128.9350   54.3350 C   0  0  0  0  0  0  0  0  0  0  0  0
  128.1360  129.1350   55.6580 C   0  0  0  0  0  0  0  0  0  0  0  0
  126.4730  130.3620   58.1530 C   0  0  0  0  0  0  0  0  0  0  0  0
  125.4020  129.9080   57.2590 C   0  0  0  0  0  0  0  0  0  0  0  0
  124.5570  129.5500   56.5550 N   0  0  0  0  0  0  0  0  0  0  0  0
  126.8150  135.3370   60.8990 C   0  0  0  0  0  0  0  0  0  0  0  0
  126.8780  136.6870   60.5620 C   0  0  0  0  0  0  0  0  0  0  0  0
  1  2  1  0
  2  3  1  0
  3  4  2  0
  3  5  1  0
  5  6  2  0
  6  7  1  0
  7  8  2  0
  8  9  1  0
  9 10  1  0
 10 11  2  0
 10 12  1  0
 12 13  1  0
 13 14  1  0
 14 15  2  0
 15 16  1  0
 16 17  1  0
 16 18  2  0
 18 19  1  0
 19 20  1  0
 20 21  2  0
 21 22  1  0
 22 23  2  0
 23 24  1  0
 24 25  2  0
 19 26  2  0
 26 27  1  0
 27 28  3  0
  8 29  1  0
 29 30  2  0
 30  5  1  0
 26 14  1  0
 25 20  1  0
M  END
>  <Binding energies>  (33) 
[-8.47]

>  <Ligand effiencies>  (33) 
[-0.27322580645161293]

>  <Interactions>  (33) 
["V-A:TYR:539:CZ:4877, V-A:ILE:538:CA:4860, V-A:PRO:540:C:4881, V-A:ILE:538:CG2:4863, V-A:TYR:539:CE1:4875, V-A:PRO:540:CA:4883, V-A:TYR:539:C:4867, H-B:TYR:531:OH:9767, V-A:TYR:539:CD1:4873, V-B:ILE:369:CG2:8208, H-A:TYR:539:OH:4878, V-B:LEU:475:CD1:9229, V-A:ALA:541:CB:4892, V-B:TYR:531:CE1:9764, H-B:SER:385:OG:8381, H-B:GLY:454:N:9021, V-B:ILE:369:CD1:8210, V-A:TYR:539:CB:4871, V-B:SER:385:CB:8380, V-B:LEU:373:CD1:8251, V-B:PRO:482:CG:9298, V-B:HIS:383:CD2:8363, V-B:LYS:534:CE:9794, V-A:MET:535:CG:4833, V-B:PRO:482:CB:9297"]

$$$$
3ch_Grossjean_2025
     RDKit          3D

 32 34  0  0  0  0  0  0  0  0999 V2000
  133.5900  131.0490   60.2620 C   0  0  0  0  0  0  0  0  0  0  0  0
  132.2880  131.4060   60.7130 O   0  0  0  0  0  0  0  0  0  0  0  0
  131.2260  131.3760   59.8270 C   0  0  0  0  0  0  0  0  0  0  0  0
  131.3480  131.0490   58.4670 C   0  0  0  0  0  0  0  0  0  0  0  0
  130.2240  131.0290   57.6290 C   0  0  0  0  0  0  0  0  0  0  0  0
  130.2450  130.7100   56.2580 N   0  0  0  0  0  0  0  0  0  0  0  0
  129.9080  131.4670   55.1910 C   0  0  0  0  0  0  0  0  0  0  0  0
  129.5150  132.6320   55.2370 O   0  0  0  0  0  0  0  0  0  0  0  0
  130.0820  130.7980   53.8270 C   0  0  0  0  0  0  0  0  0  0  0  0
  128.8320  129.5140   53.5280 S   0  0  0  0  0  0  0  0  0  0  0  0
  128.4630  128.8040   55.1180 C   0  0  0  0  0  0  0  0  0  0  0  0
  127.4810  129.4510   55.7940 N   0  0  0  0  0  0  0  0  0  0  0  0
  127.1310  128.9940   57.0180 C   0  0  0  0  0  0  0  0  0  0  0  0
  126.0310  129.7670   57.7210 C   0  0  0  0  0  0  0  0  0  0  0  0
  127.7380  127.8890   57.6090 C   0  0  0  0  0  0  0  0  0  0  0  0
  128.7490  127.2020   56.9230 C   0  0  0  0  0  0  0  0  0  0  0  0
  129.3790  126.0280   57.6010 C   0  0  0  0  0  0  0  0  0  0  0  0
  130.6040  126.1720   58.2630 C   0  0  0  0  0  0  0  0  0  0  0  0
  131.2010  125.0810   58.8890 C   0  0  0  0  0  0  0  0  0  0  0  0
  130.5750  123.8380   58.8520 C   0  0  0  0  0  0  0  0  0  0  0  0
  129.3600  123.6770   58.1920 C   0  0  0  0  0  0  0  0  0  0  0  0
  128.7660  124.7700   57.5660 C   0  0  0  0  0  0  0  0  0  0  0  0
  129.1150  127.6580   55.6300 C   0  0  0  0  0  0  0  0  0  0  0  0
  130.0980  126.9230   54.8290 C   0  0  0  0  0  0  0  0  0  0  0  0
  130.8750  126.3440   54.1960 N   0  0  0  0  0  0  0  0  0  0  0  0
  128.9750  131.3600   58.1590 C   0  0  0  0  0  0  0  0  0  0  0  0
  128.8280  131.6920   59.5150 C   0  0  0  0  0  0  0  0  0  0  0  0
  127.6190  132.0210   60.1040 O   0  0  0  0  0  0  0  0  0  0  0  0
  127.4340  133.3260   60.6410 C   0  0  0  0  0  0  0  0  0  0  0  0
  129.9620  131.6980   60.3370 C   0  0  0  0  0  0  0  0  0  0  0  0
  129.8290  132.0050   61.6710 O   0  0  0  0  0  0  0  0  0  0  0  0
  129.3860  130.9190   62.4740 C   0  0  0  0  0  0  0  0  0  0  0  0
  1  2  1  0
  2  3  1  0
  3  4  2  0
  4  5  1  0
  5  6  1  0
  6  7  1  0
  7  8  2  0
  7  9  1  0
  9 10  1  0
 10 11  1  0
 11 12  2  0
 12 13  1  0
 13 14  1  0
 13 15  2  0
 15 16  1  0
 16 17  1  0
 17 18  2  0
 18 19  1  0
 19 20  2  0
 20 21  1  0
 21 22  2  0
 16 23  2  0
 23 24  1  0
 24 25  3  0
  5 26  2  0
 26 27  1  0
 27 28  1  0
 28 29  1  0
 27 30  2  0
 30 31  1  0
 31 32  1  0
 30  3  1  0
 23 11  1  0
 22 17  1  0
M  END
>  <Binding energies>  (34) 
[-7.75]

>  <Ligand effiencies>  (34) 
[-0.23484848484848486]

>  <Interactions>  (34) 
["V-A:GLU:543:CD:4908, V-A:ASN:362:CB:3175, H-A:ALA:541:N:4891, V-A:TYR:531:CZ:4794, V-A:PRO:540:C:4881, V-A:ILE:538:CG2:4863, V-A:ILE:538:CB:4862, V-A:TYR:539:CE1:4875, V-A:PRO:540:CB:4885, V-A:PRO:540:CA:4883, V-A:ASP:366:CG:3212, H-A:TYR:531:OH:4795, V-B:TYR:539:CZ:9849, H-B:TYR:531:OH:9767, V-A:TYR:539:CD1:4873, V-B:TYR:539:CE2:9848, V-B:MET:535:CE:9807, V-A:GLU:543:CG:4907, V-B:TYR:531:CZ:9766, H-B:LYS:534:NZ:9795, V-A:ALA:541:CB:4892, H-A:TYR:539:N:4870, V-A:ASN:362:C:3171, V-A:LEU:363:CA:3184, V-A:MET:535:CB:4832, V-A:MET:535:CG:4833"]

$$$$
3ci_Grossjean_2025
     RDKit          3D

 25 27  0  0  0  0  0  0  0  0999 V2000
  134.6410  124.3420   62.1450 C   0  0  0  0  0  0  0  0  0  0  0  0
  133.2250  123.8370   61.9400 C   0  0  0  0  0  0  0  0  0  0  0  0
  132.9610  122.5050   61.6330 C   0  0  0  0  0  0  0  0  0  0  0  0
  131.6350  122.0820   61.4680 C   0  0  0  0  0  0  0  0  0  0  0  0
  131.3980  120.6410   61.1560 C   0  0  0  0  0  0  0  0  0  0  0  0
  132.2200  119.9610   60.2470 C   0  0  0  0  0  0  0  0  0  0  0  0
  131.9900  118.6190   59.9530 C   0  0  0  0  0  0  0  0  0  0  0  0
  130.9300  117.9530   60.5610 C   0  0  0  0  0  0  0  0  0  0  0  0
  130.0980  118.6170   61.4600 C   0  0  0  0  0  0  0  0  0  0  0  0
  130.3320  119.9580   61.7520 C   0  0  0  0  0  0  0  0  0  0  0  0
  130.5990  123.0410   61.6100 C   0  0  0  0  0  0  0  0  0  0  0  0
  129.1960  122.6670   61.4070 C   0  0  0  0  0  0  0  0  0  0  0  0
  128.0880  122.3700   61.2470 N   0  0  0  0  0  0  0  0  0  0  0  0
  130.9560  124.3740   61.9280 C   0  0  0  0  0  0  0  0  0  0  0  0
  129.7320  125.6590   62.1510 S   0  0  0  0  0  0  0  0  0  0  0  0
  129.3790  125.8600   63.9280 C   0  0  0  0  0  0  0  0  0  0  0  0
  130.4670  125.2740   64.8350 C   0  0  0  0  0  0  0  0  0  0  0  0
  130.2510  124.2140   65.4270 O   0  0  0  0  0  0  0  0  0  0  0  0
  131.6060  125.9960   64.9260 N   0  0  0  0  0  0  0  0  0  0  0  0
  132.7470  125.6780   65.6500 C   0  0  0  0  0  0  0  0  0  0  0  0
  132.8390  125.8360   67.0320 C   0  0  0  0  0  0  0  0  0  0  0  0
  134.1100  125.4190   67.3570 C   0  0  0  0  0  0  0  0  0  0  0  0
  134.7490  125.0290   66.2270 O   0  0  0  0  0  0  0  0  0  0  0  0
  133.8750  125.1990   65.1520 N   0  0  0  0  0  0  0  0  0  0  0  0
  132.2480  124.7590   62.0810 N   0  0  0  0  0  0  0  0  0  0  0  0
  1  2  1  0
  2  3  2  0
  3  4  1  0
  4  5  1  0
  5  6  2  0
  6  7  1  0
  7  8  2  0
  8  9  1  0
  9 10  2  0
  4 11  2  0
 11 12  1  0
 12 13  3  0
 11 14  1  0
 14 15  1  0
 15 16  1  0
 16 17  1  0
 17 18  2  0
 17 19  1  0
 19 20  1  0
 20 21  1  0
 21 22  2  0
 22 23  1  0
 23 24  1  0
 14 25  2  0
 25  2  1  0
 10  5  1  0
 24 20  2  0
M  END
>  <Binding energies>  (35) 
[-8.28]

>  <Ligand effiencies>  (35) 
[-0.31846153846153846]

>  <Interactions>  (35) 
["V-A:GLU:543:CD:4908, H-A:GLU:543:OE1:4909, V-A:ASP:366:CG:3212, H-A:GLU:543:OE2:4910, V-B:ALA:541:CB:9864, V-B:GLU:543:CD:9880, V-B:TYR:539:CD2:9846, V-B:PRO:540:C:9853, V-B:TYR:539:CE2:9848, V-B:ALA:541:CA:9862, V-A:GLY:453:C:4041, H-A:ARG:545:NH2:4928, V-A:GLY:453:CA:4043, V-A:LEU:475:CD1:4257, V-A:HIS:456:CE1:4069, H-A:ARG:545:NH1:4927, H-A:ARG:545:NE:4924, H-A:GLY:454:N:4049, V-A:ARG:545:CZ:4926, H-A:TYR:484:OH:4347, V-A:ARG:545:CG:4922, V-A:TYR:484:CZ:4346, V-A:ARG:545:CD:4923, V-A:ILE:369:CD1:3238, H-B:ALA:541:N:9863, V-A:PRO:482:CG:4326, V-A:ILE:455:C:4051, V-A:PRO:482:CB:4325, H-A:ILE:455:N:4054"]

$$$$
3ck_Grossjean_2025
     RDKit          3D

 30 31  0  0  0  0  0  0  0  0999 V2000
  125.2850  121.6590   55.1010 C   0  0  0  0  0  0  0  0  0  0  0  0
  126.3890  121.4130   55.9580 O   0  0  0  0  0  0  0  0  0  0  0  0
  126.6600  122.4830   56.8520 C   0  0  0  0  0  0  0  0  0  0  0  0
  125.4530  123.4290   56.9030 C   0  0  0  0  0  0  0  0  0  0  0  0
  125.8890  124.7290   57.2800 O   0  0  0  0  0  0  0  0  0  0  0  0
  126.0560  124.8970   58.6810 C   0  0  0  0  0  0  0  0  0  0  0  0
  126.7730  126.2270   58.9440 C   0  0  0  0  0  0  0  0  0  0  0  0
  127.5100  126.5750   57.7820 O   0  0  0  0  0  0  0  0  0  0  0  0
  128.6130  125.7270   57.4990 C   0  0  0  0  0  0  0  0  0  0  0  0
  129.2390  126.1280   56.1500 C   0  0  0  0  0  0  0  0  0  0  0  0
  128.6210  127.3100   55.5410 N   0  0  0  0  0  0  0  0  0  0  0  0
  128.8650  127.7710   54.3010 C   0  0  0  0  0  0  0  0  0  0  0  0
  129.6360  127.2180   53.5140 O   0  0  0  0  0  0  0  0  0  0  0  0
  128.1070  129.0500   53.9090 C   0  0  0  0  0  0  0  0  0  0  0  0
  128.7570  130.5960   54.6310 S   0  0  0  0  0  0  0  0  0  0  0  0
  128.8860  130.4070   56.4030 C   0  0  0  0  0  0  0  0  0  0  0  0
  127.7720  129.9460   57.0250 N   0  0  0  0  0  0  0  0  0  0  0  0
  127.7970  129.7820   58.3660 C   0  0  0  0  0  0  0  0  0  0  0  0
  126.5150  129.2660   58.9910 C   0  0  0  0  0  0  0  0  0  0  0  0
  128.9210  130.0690   59.1370 C   0  0  0  0  0  0  0  0  0  0  0  0
  130.0810  130.5520   58.5160 C   0  0  0  0  0  0  0  0  0  0  0  0
  131.2540  130.8680   59.3850 C   0  0  0  0  0  0  0  0  0  0  0  0
  132.5550  130.6570   58.9130 C   0  0  0  0  0  0  0  0  0  0  0  0
  133.6540  130.9400   59.7210 C   0  0  0  0  0  0  0  0  0  0  0  0
  133.4550  131.4300   61.0080 C   0  0  0  0  0  0  0  0  0  0  0  0
  132.1660  131.6380   61.4950 C   0  0  0  0  0  0  0  0  0  0  0  0
  131.0700  131.3540   60.6850 C   0  0  0  0  0  0  0  0  0  0  0  0
  130.0720  130.7170   57.1070 C   0  0  0  0  0  0  0  0  0  0  0  0
  131.2710  131.1790   56.3990 C   0  0  0  0  0  0  0  0  0  0  0  0
  132.2170  131.5440   55.8410 N   0  0  0  0  0  0  0  0  0  0  0  0
  1  2  1  0
  2  3  1  0
  3  4  1  0
  4  5  1  0
  5  6  1  0
  6  7  1  0
  7  8  1  0
  8  9  1  0
  9 10  1  0
 10 11  1  0
 11 12  1  0
 12 13  2  0
 12 14  1  0
 14 15  1  0
 15 16  1  0
 16 17  2  0
 17 18  1  0
 18 19  1  0
 18 20  2  0
 20 21  1  0
 21 22  1  0
 22 23  2  0
 23 24  1  0
 24 25  2  0
 25 26  1  0
 26 27  2  0
 21 28  2  0
 28 29  1  0
 29 30  3  0
 28 16  1  0
 27 22  1  0
M  END
>  <Binding energies>  (36) 
[-7.34]

>  <Ligand effiencies>  (36) 
[-0.23677419354838708]

>  <Interactions>  (36) 
["V-A:ASN:362:CB:3175, V-A:PRO:540:C:4881, V-A:PRO:540:CB:4885, V-A:PRO:540:CA:4883, V-A:ASP:366:CG:3212, H-A:TYR:531:OH:4795, H-B:TYR:531:OH:9767, V-B:PRO:540:N:9856, V-B:ILE:538:CG2:9835, V-B:LEU:363:CD1:8160, V-B:PRO:540:CD:9859, H-B:TYR:539:N:9842, V-B:MET:535:CE:9807, V-B:TYR:531:CE2:9765, V-B:TYR:531:CZ:9766, H-B:LYS:534:NZ:9795, V-B:TYR:531:CE1:9764, V-A:ASN:362:C:3171, V-A:LEU:363:CA:3184, V-B:TYR:539:C:9839, V-B:LYS:534:CE:9794, V-B:ILE:538:CA:9832, V-B:ILE:538:CB:9834, V-B:ILE:538:C:9830, V-B:ILE:538:CG1:9836, V-B:MET:535:CG:9805"]

$$$$
4aa_Grossjean_2025
     RDKit          3D

 26 28  0  0  0  0  0  0  0  0999 V2000
  124.2350  123.5260   58.7320 C   0  0  0  0  0  0  0  0  0  0  0  0
  124.8400  124.3980   57.6260 C   0  0  0  0  0  0  0  0  0  0  0  0
  125.4050  123.5640   56.6230 O   0  0  0  0  0  0  0  0  0  0  0  0
  126.4620  122.7560   56.8960 C   0  0  0  0  0  0  0  0  0  0  0  0
  126.6950  121.7090   56.2830 O   0  0  0  0  0  0  0  0  0  0  0  0
  127.3180  123.2590   58.0220 C   0  0  0  0  0  0  0  0  0  0  0  0
  127.5390  122.4350   59.1340 C   0  0  0  0  0  0  0  0  0  0  0  0
  128.3240  122.8750   60.1960 C   0  0  0  0  0  0  0  0  0  0  0  0
  128.9110  124.1410   60.1660 C   0  0  0  0  0  0  0  0  0  0  0  0
  129.6770  124.4870   61.2950 N   0  0  0  0  0  0  0  0  0  0  0  0
  129.2850  124.9240   62.5160 C   0  0  0  0  0  0  0  0  0  0  0  0
  128.1140  125.1400   62.8310 O   0  0  0  0  0  0  0  0  0  0  0  0
  130.3680  125.1590   63.4730 C   0  0  0  0  0  0  0  0  0  0  0  0
  132.0080  124.6130   63.1130 S   0  0  0  0  0  0  0  0  0  0  0  0
  132.5920  125.2000   64.6540 C   0  0  0  0  0  0  0  0  0  0  0  0
  133.8690  125.0780   65.0180 N   0  0  0  0  0  0  0  0  0  0  0  0
  134.1890  125.5710   66.2400 C   0  0  0  0  0  0  0  0  0  0  0  0
  135.6460  125.4170   66.6370 C   0  0  0  0  0  0  0  0  0  0  0  0
  133.2730  126.1800   67.0940 C   0  0  0  0  0  0  0  0  0  0  0  0
  131.9340  126.3080   66.7090 C   0  0  0  0  0  0  0  0  0  0  0  0
  130.9710  126.9800   67.6760 C   0  0  0  0  0  0  0  0  0  0  0  0
  131.5590  125.7990   65.4360 C   0  0  0  0  0  0  0  0  0  0  0  0
  130.3000  125.7580   64.7400 C   0  0  0  0  0  0  0  0  0  0  0  0
  129.1470  126.2680   65.2840 N   0  0  0  0  0  0  0  0  0  0  0  0
  128.6910  124.9740   59.0600 C   0  0  0  0  0  0  0  0  0  0  0  0
  127.9030  124.5340   57.9990 C   0  0  0  0  0  0  0  0  0  0  0  0
  1  2  1  0
  2  3  1  0
  3  4  1  0
  4  5  2  0
  4  6  1  0
  6  7  2  0
  7  8  1  0
  8  9  2  0
  9 10  1  0
 10 11  1  0
 11 12  2  0
 11 13  1  0
 13 14  1  0
 14 15  1  0
 15 16  2  0
 16 17  1  0
 17 18  1  0
 17 19  2  0
 19 20  1  0
 20 21  1  0
 20 22  2  0
 22 23  1  0
 23 24  1  0
  9 25  1  0
 25 26  2  0
 26  6  1  0
 23 13  2  0
 22 15  1  0
M  END
>  <Binding energies>  (37) 
[-7.33]

>  <Ligand effiencies>  (37) 
[-0.25275862068965516]

>  <Interactions>  (37) 
["V-A:GLU:543:CD:4908, H-A:GLU:543:OE1:4909, V-B:PRO:540:CB:9857, H-B:TYR:531:OH:9767, V-B:GLU:543:CD:9880, V-B:PRO:540:N:9856, V-B:LEU:363:CD1:8160, H-B:TYR:539:N:9842, V-B:PRO:540:CA:9855, V-B:MET:535:CE:9807, V-B:GLU:543:CG:9879, V-B:TYR:531:CE2:9765, H-B:GLU:543:OE2:9882, H-B:GLU:543:OE1:9881, V-B:TYR:531:CZ:9766, V-A:GLU:543:CB:4906, V-A:GLY:453:C:4041, H-A:ARG:545:NH2:4928, V-A:GLY:453:CA:4043, V-A:HIS:456:CE1:4069, H-A:ARG:545:NE:4924, H-A:GLY:454:N:4049, V-A:ARG:545:CZ:4926, H-A:TYR:484:OH:4347, V-A:ARG:545:CG:4922, V-A:ARG:545:CD:4923, V-B:LEU:363:CA:8156, V-B:TYR:539:C:9839, V-B:LEU:363:CB:8158, V-A:GLY:454:CA:4048, V-A:ILE:455:C:4051, V-B:LEU:363:CG:8159, V-A:GLY:454:C:4046, V-A:ARG:545:CB:4921, V-A:ILE:455:CA:4053, V-A:VAL:452:CG2:4039, V-A:VAL:452:C:4033"]

$$$$
4ab_Grossjean_2025
     RDKit          3D

 25 27  0  0  0  0  0  0  0  0999 V2000
  124.7160  124.4480   57.6610 C   0  0  0  0  0  0  0  0  0  0  0  0
  125.3030  123.6460   56.6450 O   0  0  0  0  0  0  0  0  0  0  0  0
  126.2880  122.7580   56.9370 C   0  0  0  0  0  0  0  0  0  0  0  0
  126.4150  121.6700   56.3660 O   0  0  0  0  0  0  0  0  0  0  0  0
  127.2030  123.2280   58.0310 C   0  0  0  0  0  0  0  0  0  0  0  0
  126.9310  122.8590   59.3550 C   0  0  0  0  0  0  0  0  0  0  0  0
  127.7600  123.2810   60.3920 C   0  0  0  0  0  0  0  0  0  0  0  0
  128.8800  124.0680   60.1260 C   0  0  0  0  0  0  0  0  0  0  0  0
  129.6430  124.4420   61.2480 N   0  0  0  0  0  0  0  0  0  0  0  0
  129.2750  125.0980   62.3760 C   0  0  0  0  0  0  0  0  0  0  0  0
  128.1420  125.5310   62.5870 O   0  0  0  0  0  0  0  0  0  0  0  0
  130.3410  125.2930   63.3600 C   0  0  0  0  0  0  0  0  0  0  0  0
  131.9880  124.7650   63.0060 S   0  0  0  0  0  0  0  0  0  0  0  0
  132.5450  125.2870   64.5800 C   0  0  0  0  0  0  0  0  0  0  0  0
  133.8150  125.1490   64.9610 N   0  0  0  0  0  0  0  0  0  0  0  0
  134.1150  125.5910   66.2060 C   0  0  0  0  0  0  0  0  0  0  0  0
  135.5640  125.4210   66.6220 C   0  0  0  0  0  0  0  0  0  0  0  0
  133.1840  126.1660   67.0700 C   0  0  0  0  0  0  0  0  0  0  0  0
  131.8510  126.3080   66.6670 C   0  0  0  0  0  0  0  0  0  0  0  0
  130.8730  126.9400   67.6450 C   0  0  0  0  0  0  0  0  0  0  0  0
  131.4970  125.8520   65.3680 C   0  0  0  0  0  0  0  0  0  0  0  0
  130.2510  125.8370   64.6510 C   0  0  0  0  0  0  0  0  0  0  0  0
  129.0880  126.3210   65.1960 N   0  0  0  0  0  0  0  0  0  0  0  0
  129.1580  124.4460   58.8040 C   0  0  0  0  0  0  0  0  0  0  0  0
  128.3260  124.0270   57.7690 C   0  0  0  0  0  0  0  0  0  0  0  0
  1  2  1  0
  2  3  1  0
  3  4  2  0
  3  5  1  0
  5  6  2  0
  6  7  1  0
  7  8  2  0
  8  9  1  0
  9 10  1  0
 10 11  2  0
 10 12  1  0
 12 13  1  0
 13 14  1  0
 14 15  2  0
 15 16  1  0
 16 17  1  0
 16 18  2  0
 18 19  1  0
 19 20  1  0
 19 21  2  0
 21 22  1  0
 22 23  1  0
  8 24  1  0
 24 25  2  0
 25  5  1  0
 22 12  2  0
 21 14  1  0
M  END
>  <Binding energies>  (38) 
[-7.46]

>  <Ligand effiencies>  (38) 
[-0.2664285714285714]

>  <Interactions>  (38) 
["V-A:GLU:543:CD:4908, H-A:GLU:543:OE1:4909, V-B:PRO:540:CB:9857, H-B:TYR:531:OH:9767, V-B:GLU:543:CD:9880, V-B:PRO:540:N:9856, V-B:LEU:363:CD1:8160, H-B:TYR:539:N:9842, V-B:PRO:540:CA:9855, V-B:MET:535:CE:9807, V-B:GLU:543:CG:9879, V-B:TYR:531:CE2:9765, H-B:GLU:543:OE2:9882, H-B:GLU:543:OE1:9881, V-B:TYR:531:CZ:9766, V-A:GLU:543:CB:4906, V-A:GLY:453:C:4041, H-A:ARG:545:NH2:4928, V-A:GLY:453:CA:4043, V-A:HIS:456:CE1:4069, H-A:ARG:545:NH1:4927, H-A:ARG:545:NE:4924, H-A:GLY:454:N:4049, V-A:ARG:545:CZ:4926, H-A:TYR:484:OH:4347, V-A:ARG:545:CG:4922, V-A:ARG:545:CD:4923, V-A:GLY:454:CA:4048, V-A:ILE:455:C:4051, V-A:GLY:454:C:4046, V-A:ARG:545:CB:4921, V-A:ILE:455:CA:4053"]

$$$$
4ac_Grossjean_2025
     RDKit          3D

 23 25  0  0  0  0  0  0  0  0999 V2000
  134.1010  125.4250   66.6790 C   0  0  0  0  0  0  0  0  0  0  0  0
  134.2680  125.2980   65.2710 O   0  0  0  0  0  0  0  0  0  0  0  0
  133.1690  125.0120   64.4840 C   0  0  0  0  0  0  0  0  0  0  0  0
  133.4280  124.4540   63.2330 C   0  0  0  0  0  0  0  0  0  0  0  0
  132.3840  124.1310   62.3710 C   0  0  0  0  0  0  0  0  0  0  0  0
  131.0610  124.3550   62.7550 C   0  0  0  0  0  0  0  0  0  0  0  0
  130.0730  124.0110   61.8140 N   0  0  0  0  0  0  0  0  0  0  0  0
  128.7750  123.6790   62.0160 C   0  0  0  0  0  0  0  0  0  0  0  0
  128.2510  123.5950   63.1280 O   0  0  0  0  0  0  0  0  0  0  0  0
  128.0000  123.4080   60.8030 C   0  0  0  0  0  0  0  0  0  0  0  0
  128.7220  122.5130   59.4650 S   0  0  0  0  0  0  0  0  0  0  0  0
  127.2520  122.6380   58.5250 C   0  0  0  0  0  0  0  0  0  0  0  0
  127.1470  122.1120   57.3050 N   0  0  0  0  0  0  0  0  0  0  0  0
  125.9540  122.2790   56.6850 C   0  0  0  0  0  0  0  0  0  0  0  0
  125.8550  121.6720   55.2970 C   0  0  0  0  0  0  0  0  0  0  0  0
  124.8750  122.9560   57.2500 C   0  0  0  0  0  0  0  0  0  0  0  0
  124.9880  123.5080   58.5320 C   0  0  0  0  0  0  0  0  0  0  0  0
  123.7830  124.2360   59.1060 C   0  0  0  0  0  0  0  0  0  0  0  0
  126.2250  123.3500   59.2140 C   0  0  0  0  0  0  0  0  0  0  0  0
  126.6770  123.7760   60.5110 C   0  0  0  0  0  0  0  0  0  0  0  0
  125.8730  124.4800   61.3710 N   0  0  0  0  0  0  0  0  0  0  0  0
  130.7930  124.9280   64.0070 C   0  0  0  0  0  0  0  0  0  0  0  0
  131.8400  125.2500   64.8660 C   0  0  0  0  0  0  0  0  0  0  0  0
  1  2  1  0
  2  3  1  0
  3  4  2  0
  4  5  1  0
  5  6  2  0
  6  7  1  0
  7  8  1  0
  8  9  2  0
  8 10  1  0
 10 11  1  0
 11 12  1  0
 12 13  2  0
 13 14  1  0
 14 15  1  0
 14 16  2  0
 16 17  1  0
 17 18  1  0
 17 19  2  0
 19 20  1  0
 20 21  1  0
  6 22  1  0
 22 23  2  0
 23  3  1  0
 20 10  2  0
 19 12  1  0
M  END
>  <Binding energies>  (39) 
[-6.97]

>  <Ligand effiencies>  (39) 
[-0.26807692307692305]

>  <Interactions>  (39) 
["V-B:ASP:366:CG:8184, V-B:PRO:540:CB:9857, V-B:GLU:543:CD:9880, V-B:ASP:366:CB:8183, V-B:PRO:540:N:9856, V-B:ILE:538:CG2:9835, V-B:LEU:363:CD1:8160, V-B:PRO:540:CD:9859, H-B:TYR:539:N:9842, V-B:PRO:540:CA:9855, H-B:ASP:366:OD1:8185, V-B:MET:535:CE:9807, V-B:TYR:531:CE2:9765, H-B:GLU:543:OE2:9882, H-B:GLU:543:OE1:9881, H-A:ARG:545:NH2:4928, H-A:ARG:545:NH1:4927, H-A:ARG:545:NE:4924, H-A:GLY:454:N:4049, V-A:ARG:545:CZ:4926, H-A:TYR:484:OH:4347, V-A:ARG:545:CG:4922, V-A:ARG:545:CD:4923, V-B:LEU:363:CA:8156, V-B:TYR:539:C:9839, V-B:LEU:363:CB:8158, V-B:ASN:362:C:8143, V-B:ILE:538:CA:9832, V-B:ILE:538:CB:9834, V-B:ILE:538:C:9830, V-B:LEU:363:CG:8159, V-B:ILE:538:CG1:9836, V-B:MET:535:CG:9805"]

$$$$
4ad_Grossjean_2025
     RDKit          3D

 21 23  0  0  0  0  0  0  0  0999 V2000
  124.8550  129.4660   65.5650 C   0  0  0  0  0  0  0  0  0  0  0  0
  125.4110  130.4550   64.5570 C   0  0  0  0  0  0  0  0  0  0  0  0
  126.7710  130.4850   64.2580 C   0  0  0  0  0  0  0  0  0  0  0  0
  127.2630  131.4080   63.3260 C   0  0  0  0  0  0  0  0  0  0  0  0
  128.7560  131.4050   63.0340 C   0  0  0  0  0  0  0  0  0  0  0  0
  126.3330  132.2910   62.7140 C   0  0  0  0  0  0  0  0  0  0  0  0
  126.4860  133.3360   61.7380 C   0  0  0  0  0  0  0  0  0  0  0  0
  127.7050  133.6570   61.1960 N   0  0  0  0  0  0  0  0  0  0  0  0
  125.2860  133.9830   61.4010 C   0  0  0  0  0  0  0  0  0  0  0  0
  125.0790  135.0900   60.4660 C   0  0  0  0  0  0  0  0  0  0  0  0
  124.5380  134.8980   59.3750 O   0  0  0  0  0  0  0  0  0  0  0  0
  125.5080  136.3020   60.8970 N   0  0  0  0  0  0  0  0  0  0  0  0
  125.4960  137.5440   60.2320 C   0  0  0  0  0  0  0  0  0  0  0  0
  124.2370  138.0310   59.8680 C   0  0  0  0  0  0  0  0  0  0  0  0
  124.1200  139.2550   59.2160 C   0  0  0  0  0  0  0  0  0  0  0  0
  125.2620  139.9990   58.9350 C   0  0  0  0  0  0  0  0  0  0  0  0
  126.5210  139.5320   59.3040 C   0  0  0  0  0  0  0  0  0  0  0  0
  126.6420  138.3080   59.9560 C   0  0  0  0  0  0  0  0  0  0  0  0
  123.9240  133.3010   62.2920 S   0  0  0  0  0  0  0  0  0  0  0  0
  124.9670  132.1590   63.1080 C   0  0  0  0  0  0  0  0  0  0  0  0
  124.4960  131.2810   63.9950 N   0  0  0  0  0  0  0  0  0  0  0  0
  1  2  1  0
  2  3  2  0
  3  4  1  0
  4  5  1  0
  4  6  2  0
  6  7  1  0
  7  8  1  0
  7  9  2  0
  9 10  1  0
 10 11  2  0
 10 12  1  0
 12 13  1  0
 13 14  2  0
 14 15  1  0
 15 16  2  0
 16 17  1  0
 17 18  2  0
  9 19  1  0
 19 20  1  0
 20 21  2  0
 21  2  1  0
 20  6  1  0
 18 13  1  0
M  END
>  <Binding energies>  (40) 
[-7.43]

>  <Ligand effiencies>  (40) 
[-0.3095833333333333]

>  <Interactions>  (40) 
["V-A:GLU:543:CD:4908, V-A:TYR:539:CD1:4873, V-A:GLU:543:CG:4907, V-B:ILE:369:CG2:8208, V-B:LEU:475:CD1:9229, V-A:ALA:541:CB:4892, V-B:GLY:454:CA:9020, H-B:SER:385:OG:8381, V-B:ARG:545:CZ:9898, H-B:GLY:454:N:9021, V-B:ILE:369:CD1:8210, H-A:TYR:539:O:4868, V-B:HIS:383:CE1:8365, V-A:TYR:539:CB:4871, V-A:VAL:344:CG1:3000, V-B:SER:385:CB:8380, V-B:LEU:373:CD1:8251, V-A:ILE:343:CG2:2991, V-B:PRO:482:CG:9298, V-B:HIS:383:CD2:8363, V-B:HIS:383:CG:8361, V-B:SER:385:CA:8378, V-B:LEU:373:CD2:8252, V-B:VAL:384:C:8368, V-B:LEU:373:CG:8250"]

$$$$
4ae_Grossjean_2025
     RDKit          3D

 22 24  0  0  0  0  0  0  0  0999 V2000
  127.8960  129.5520   67.1970 C   0  0  0  0  0  0  0  0  0  0  0  0
  127.1290  129.6970   65.8970 C   0  0  0  0  0  0  0  0  0  0  0  0
  125.7470  129.5000   65.8380 C   0  0  0  0  0  0  0  0  0  0  0  0
  125.1090  129.6420   64.6050 C   0  0  0  0  0  0  0  0  0  0  0  0
  125.8590  129.9720   63.4740 C   0  0  0  0  0  0  0  0  0  0  0  0
  127.2390  130.1640   63.6050 C   0  0  0  0  0  0  0  0  0  0  0  0
  127.9420  130.4740   62.4280 N   0  0  0  0  0  0  0  0  0  0  0  0
  129.0570  131.2340   62.2820 C   0  0  0  0  0  0  0  0  0  0  0  0
  129.6330  131.7940   63.2160 O   0  0  0  0  0  0  0  0  0  0  0  0
  129.5520  131.3620   60.9100 C   0  0  0  0  0  0  0  0  0  0  0  0
  128.4750  131.9010   59.6200 S   0  0  0  0  0  0  0  0  0  0  0  0
  129.7430  131.7420   58.4280 C   0  0  0  0  0  0  0  0  0  0  0  0
  129.5400  132.0220   57.1400 N   0  0  0  0  0  0  0  0  0  0  0  0
  130.6040  131.8520   56.3190 C   0  0  0  0  0  0  0  0  0  0  0  0
  130.3500  132.1700   54.8570 C   0  0  0  0  0  0  0  0  0  0  0  0
  131.8560  131.4160   56.7520 C   0  0  0  0  0  0  0  0  0  0  0  0
  132.0650  131.1240   58.1050 C   0  0  0  0  0  0  0  0  0  0  0  0
  133.4470  130.6470   58.5280 C   0  0  0  0  0  0  0  0  0  0  0  0
  130.9710  131.2880   58.9960 C   0  0  0  0  0  0  0  0  0  0  0  0
  130.8360  131.0810   60.4140 C   0  0  0  0  0  0  0  0  0  0  0  0
  131.8770  130.6460   61.1940 N   0  0  0  0  0  0  0  0  0  0  0  0
  127.8710  130.0200   64.8070 N   0  0  0  0  0  0  0  0  0  0  0  0
  1  2  1  0
  2  3  2  0
  3  4  1  0
  4  5  2  0
  5  6  1  0
  6  7  1  0
  7  8  1  0
  8  9  2  0
  8 10  1  0
 10 11  1  0
 11 12  1  0
 12 13  2  0
 13 14  1  0
 14 15  1  0
 14 16  2  0
 16 17  1  0
 17 18  1  0
 17 19  2  0
 19 20  1  0
 20 21  1  0
  6 22  2  0
 22  2  1  0
 20 10  2  0
 19 12  1  0
M  END
>  <Binding energies>  (41) 
[-6.98]

>  <Ligand effiencies>  (41) 
[-0.2792]

>  <Interactions>  (41) 
["V-A:GLU:543:CD:4908, H-A:ASP:366:OD2:3214, V-A:ASP:366:CB:3211, V-A:ILE:538:CA:4860, H-A:ALA:541:N:4891, V-A:ILE:538:CG2:4863, V-A:ILE:538:C:4858, H-A:ALA:541:O:4889, V-A:ILE:538:CB:4862, V-A:TYR:539:CE1:4875, V-A:PRO:540:CB:4885, V-A:PRO:540:CA:4883, V-A:ASP:366:CG:3212, V-A:TYR:539:C:4867, H-A:GLU:543:OE2:4910, V-A:PRO:540:N:4884, V-A:LEU:363:CD1:3188, V-A:TYR:539:CD1:4873, V-A:GLU:543:CG:4907, V-A:ALA:541:CB:4892, V-A:GLU:543:CB:4906, V-B:ARG:545:CZ:9898, V-B:HIS:456:CE1:9041, V-B:TYR:484:CE2:9317, V-B:TYR:484:CZ:9318, H-A:TYR:539:N:4870, V-A:LEU:363:CA:3184, V-A:LEU:363:CB:3186"]

$$$$
4af_Grossjean_2025
     RDKit          3D

 21 23  0  0  0  0  0  0  0  0999 V2000
  124.8950  129.5570   65.5730 C   0  0  0  0  0  0  0  0  0  0  0  0
  125.4350  130.5260   64.5370 C   0  0  0  0  0  0  0  0  0  0  0  0
  126.7870  130.5360   64.2000 C   0  0  0  0  0  0  0  0  0  0  0  0
  127.2640  131.4410   63.2430 C   0  0  0  0  0  0  0  0  0  0  0  0
  128.7470  131.4150   62.9110 C   0  0  0  0  0  0  0  0  0  0  0  0
  126.3280  132.3280   62.6460 C   0  0  0  0  0  0  0  0  0  0  0  0
  126.4690  133.3620   61.6550 C   0  0  0  0  0  0  0  0  0  0  0  0
  127.6770  133.6650   61.0800 N   0  0  0  0  0  0  0  0  0  0  0  0
  125.2680  134.0160   61.3390 C   0  0  0  0  0  0  0  0  0  0  0  0
  125.0510  135.1240   60.4070 C   0  0  0  0  0  0  0  0  0  0  0  0
  124.5480  134.9240   59.3010 O   0  0  0  0  0  0  0  0  0  0  0  0
  125.4260  136.3450   60.8610 N   0  0  0  0  0  0  0  0  0  0  0  0
  125.3970  137.5910   60.2070 C   0  0  0  0  0  0  0  0  0  0  0  0
  126.5230  138.3740   59.8930 C   0  0  0  0  0  0  0  0  0  0  0  0
  126.3540  139.6040   59.2550 C   0  0  0  0  0  0  0  0  0  0  0  0
  125.0590  140.0260   58.9490 C   0  0  0  0  0  0  0  0  0  0  0  0
  123.9570  139.2940   59.2490 N   0  0  0  0  0  0  0  0  0  0  0  0
  124.1380  138.1010   59.8690 C   0  0  0  0  0  0  0  0  0  0  0  0
  123.9210  133.3620   62.2750 S   0  0  0  0  0  0  0  0  0  0  0  0
  124.9730  132.2180   63.0770 C   0  0  0  0  0  0  0  0  0  0  0  0
  124.5150  131.3570   63.9870 N   0  0  0  0  0  0  0  0  0  0  0  0
  1  2  1  0
  2  3  2  0
  3  4  1  0
  4  5  1  0
  4  6  2  0
  6  7  1  0
  7  8  1  0
  7  9  2  0
  9 10  1  0
 10 11  2  0
 10 12  1  0
 12 13  1  0
 13 14  2  0
 14 15  1  0
 15 16  2  0
 16 17  1  0
 17 18  2  0
  9 19  1  0
 19 20  1  0
 20 21  2  0
 21  2  1  0
 20  6  1  0
 18 13  1  0
M  END
>  <Binding energies>  (42) 
[-7.08]

>  <Ligand effiencies>  (42) 
[-0.295]

>  <Interactions>  (42) 
["V-A:GLU:543:CD:4908, V-A:TYR:539:C:4867, V-A:TYR:539:CD1:4873, V-A:GLU:543:CG:4907, V-B:ILE:369:CG2:8208, V-B:LEU:475:CD1:9229, V-A:ALA:541:CB:4892, V-B:GLY:454:CA:9020, H-B:SER:385:OG:8381, V-B:ARG:545:CZ:9898, H-B:GLY:454:N:9021, V-B:ILE:369:CD1:8210, H-A:TYR:539:O:4868, V-B:HIS:383:CE1:8365, V-A:TYR:539:CB:4871, V-A:VAL:344:CG1:3000, V-B:SER:385:CB:8380, V-B:LEU:373:CD1:8251, V-A:ILE:343:CG2:2991, V-B:PRO:482:CG:9298, V-B:HIS:383:CD2:8363, V-B:HIS:383:CG:8361, V-B:SER:385:CA:8378, V-B:LEU:373:CD2:8252, V-B:VAL:384:C:8368"]

$$$$
4ag_Grossjean_2025
     RDKit          3D

 22 24  0  0  0  0  0  0  0  0999 V2000
  124.7200  129.5260   65.4850 C   0  0  0  0  0  0  0  0  0  0  0  0
  125.3940  130.4920   64.5270 C   0  0  0  0  0  0  0  0  0  0  0  0
  126.7480  130.3710   64.2220 C   0  0  0  0  0  0  0  0  0  0  0  0
  127.3490  131.2720   63.3360 C   0  0  0  0  0  0  0  0  0  0  0  0
  128.8300  131.0980   63.0330 C   0  0  0  0  0  0  0  0  0  0  0  0
  126.5350  132.2920   62.7740 C   0  0  0  0  0  0  0  0  0  0  0  0
  126.8170  133.3590   61.8530 C   0  0  0  0  0  0  0  0  0  0  0  0
  128.0670  133.5600   61.3220 N   0  0  0  0  0  0  0  0  0  0  0  0
  125.7070  134.1620   61.5550 C   0  0  0  0  0  0  0  0  0  0  0  0
  125.6330  135.3150   60.6580 C   0  0  0  0  0  0  0  0  0  0  0  0
  126.6080  135.6770   59.9950 O   0  0  0  0  0  0  0  0  0  0  0  0
  124.4490  135.9620   60.6170 N   0  0  0  0  0  0  0  0  0  0  0  0
  124.1440  137.1180   59.7760 C   0  0  0  0  0  0  0  0  0  0  0  0
  125.0820  138.3010   59.9850 C   0  0  0  0  0  0  0  0  0  0  0  0
  125.2600  138.8300   61.2670 C   0  0  0  0  0  0  0  0  0  0  0  0
  126.1350  139.8950   61.4640 C   0  0  0  0  0  0  0  0  0  0  0  0
  126.8390  140.4200   60.3820 C   0  0  0  0  0  0  0  0  0  0  0  0
  126.6780  139.8880   59.1050 C   0  0  0  0  0  0  0  0  0  0  0  0
  125.8030  138.8230   58.9070 C   0  0  0  0  0  0  0  0  0  0  0  0
  124.2670  133.6060   62.4090 S   0  0  0  0  0  0  0  0  0  0  0  0
  125.1630  132.3080   63.1670 C   0  0  0  0  0  0  0  0  0  0  0  0
  124.5870  131.4500   64.0100 N   0  0  0  0  0  0  0  0  0  0  0  0
  1  2  1  0
  2  3  2  0
  3  4  1  0
  4  5  1  0
  4  6  2  0
  6  7  1  0
  7  8  1  0
  7  9  2  0
  9 10  1  0
 10 11  2  0
 10 12  1  0
 12 13  1  0
 13 14  1  0
 14 15  2  0
 15 16  1  0
 16 17  2  0
 17 18  1  0
 18 19  2  0
  9 20  1  0
 20 21  1  0
 21 22  2  0
 22  2  1  0
 21  6  1  0
 19 14  1  0
M  END
>  <Binding energies>  (43) 
[-6.94]

>  <Ligand effiencies>  (43) 
[-0.2776]

>  <Interactions>  (43) 
["V-A:GLU:543:CD:4908, V-A:PRO:540:C:4881, V-A:TYR:539:C:4867, V-A:TYR:539:CD1:4873, V-A:GLU:543:CG:4907, V-B:ILE:369:CG2:8208, V-B:LEU:475:CD1:9229, V-A:ALA:541:CB:4892, V-B:GLY:454:CA:9020, V-A:ALA:541:CA:4890, H-B:SER:385:OG:8381, V-B:ARG:545:CZ:9898, H-B:GLY:454:N:9021, V-B:ILE:369:CD1:8210, H-A:TYR:539:O:4868, H-B:TYR:484:OH:9319, V-B:HIS:383:CE1:8365, V-A:TYR:539:CB:4871, V-A:VAL:344:CG1:3000, V-B:SER:385:CB:8380, V-B:LEU:373:CD1:8251, V-A:ILE:343:CG2:2991, V-B:PRO:482:CG:9298, V-B:HIS:383:CD2:8363, V-B:SER:385:CA:8378, V-B:PRO:482:CB:9297, V-A:ILE:343:CB:2990"]

$$$$
4ah_Grossjean_2025
     RDKit          3D

 28 30  0  0  0  0  0  0  0  0999 V2000
  126.4340  126.8160   59.4610 C   0  0  0  0  0  0  0  0  0  0  0  0
  126.5100  126.2430   58.1610 O   0  0  0  0  0  0  0  0  0  0  0  0
  127.2210  125.0700   57.9760 C   0  0  0  0  0  0  0  0  0  0  0  0
  128.5940  124.9360   58.2370 C   0  0  0  0  0  0  0  0  0  0  0  0
  129.2460  123.7200   58.0260 C   0  0  0  0  0  0  0  0  0  0  0  0
  130.7280  123.5810   58.3580 C   0  0  0  0  0  0  0  0  0  0  0  0
  131.0550  123.9430   59.7370 N   0  0  0  0  0  0  0  0  0  0  0  0
  132.2670  124.3430   60.1740 C   0  0  0  0  0  0  0  0  0  0  0  0
  133.2520  124.4050   59.4360 O   0  0  0  0  0  0  0  0  0  0  0  0
  132.3630  124.6610   61.5980 C   0  0  0  0  0  0  0  0  0  0  0  0
  133.8970  124.4720   62.4480 S   0  0  0  0  0  0  0  0  0  0  0  0
  133.1730  124.9740   63.9600 C   0  0  0  0  0  0  0  0  0  0  0  0
  133.8780  125.0520   65.0880 N   0  0  0  0  0  0  0  0  0  0  0  0
  133.1980  125.4560   66.1880 C   0  0  0  0  0  0  0  0  0  0  0  0
  134.0180  125.5350   67.4630 C   0  0  0  0  0  0  0  0  0  0  0  0
  131.8440  125.7820   66.1860 C   0  0  0  0  0  0  0  0  0  0  0  0
  131.1050  125.6970   65.0000 C   0  0  0  0  0  0  0  0  0  0  0  0
  129.6290  126.0620   65.0470 C   0  0  0  0  0  0  0  0  0  0  0  0
  131.7840  125.2740   63.8250 C   0  0  0  0  0  0  0  0  0  0  0  0
  131.3450  125.0750   62.4700 C   0  0  0  0  0  0  0  0  0  0  0  0
  130.0460  125.2860   62.0800 N   0  0  0  0  0  0  0  0  0  0  0  0
  128.5180  122.6180   57.5780 C   0  0  0  0  0  0  0  0  0  0  0  0
  127.1460  122.7230   57.3040 C   0  0  0  0  0  0  0  0  0  0  0  0
  126.3670  121.6770   56.8430 O   0  0  0  0  0  0  0  0  0  0  0  0
  125.6050  121.8460   55.6530 C   0  0  0  0  0  0  0  0  0  0  0  0
  126.5100  123.9570   57.5020 C   0  0  0  0  0  0  0  0  0  0  0  0
  125.1630  124.0710   57.2550 O   0  0  0  0  0  0  0  0  0  0  0  0
  124.3690  124.1910   58.4280 C   0  0  0  0  0  0  0  0  0  0  0  0
  1  2  1  0
  2  3  1  0
  3  4  2  0
  4  5  1  0
  5  6  1  0
  6  7  1  0
  7  8  1  0
  8  9  2  0
  8 10  1  0
 10 11  1  0
 11 12  1  0
 12 13  2  0
 13 14  1  0
 14 15  1  0
 14 16  2  0
 16 17  1  0
 17 18  1  0
 17 19  2  0
 19 20  1  0
 20 21  1  0
  5 22  2  0
 22 23  1  0
 23 24  1  0
 24 25  1  0
 23 26  2  0
 26 27  1  0
 27 28  1  0
 26  3  1  0
 20 10  2  0
 19 12  1  0
M  END
>  <Binding energies>  (44) 
[-6.91]

>  <Ligand effiencies>  (44) 
[-0.2229032258064516]

>  <Interactions>  (44) 
["V-A:ASP:366:CG:3212, V-B:ASP:366:CG:8184, V-B:TYR:539:CZ:9849, V-B:TYR:539:CE1:9847, H-B:TYR:531:OH:9767, V-B:GLU:543:CD:9880, V-B:ASP:366:CB:8183, V-B:PRO:540:N:9856, V-B:TYR:539:CD2:9846, V-B:ILE:538:CG2:9835, V-B:LEU:363:CD1:8160, V-B:PRO:540:CD:9859, V-B:TYR:539:CE2:9848, H-B:TYR:539:N:9842, V-B:PRO:540:CA:9855, V-B:MET:535:CE:9807, V-B:TYR:531:CE2:9765, H-A:ARG:545:NH2:4928, V-A:HIS:456:CE1:4069, H-A:ARG:545:NE:4924, H-A:GLY:454:N:4049, V-A:ARG:545:CZ:4926, H-A:TYR:484:OH:4347, V-A:ARG:545:CG:4922, V-A:TYR:484:CZ:4346, V-A:ARG:545:CD:4923, V-B:LEU:363:CA:8156, V-B:TYR:539:C:9839, V-B:LEU:363:CB:8158, V-A:ILE:455:C:4051, V-B:TYR:539:CG:9844, V-B:ILE:538:CA:9832, V-B:ILE:538:CB:9834"]

$$$$
4ai_Grossjean_2025
     RDKit          3D

 20 22  0  0  0  0  0  0  0  0999 V2000
  124.8520  129.7020   65.2790 C   0  0  0  0  0  0  0  0  0  0  0  0
  125.3900  130.6980   64.2670 C   0  0  0  0  0  0  0  0  0  0  0  0
  126.7340  130.6910   63.8990 C   0  0  0  0  0  0  0  0  0  0  0  0
  127.2080  131.6140   62.9600 C   0  0  0  0  0  0  0  0  0  0  0  0
  128.6820  131.5650   62.5890 C   0  0  0  0  0  0  0  0  0  0  0  0
  126.2780  132.5380   62.4120 C   0  0  0  0  0  0  0  0  0  0  0  0
  126.4170  133.5960   61.4480 C   0  0  0  0  0  0  0  0  0  0  0  0
  127.6190  133.8970   60.8580 N   0  0  0  0  0  0  0  0  0  0  0  0
  125.2200  134.2750   61.1690 C   0  0  0  0  0  0  0  0  0  0  0  0
  125.0020  135.3990   60.2560 C   0  0  0  0  0  0  0  0  0  0  0  0
  124.5200  135.2160   59.1360 O   0  0  0  0  0  0  0  0  0  0  0  0
  125.3480  136.6180   60.7410 N   0  0  0  0  0  0  0  0  0  0  0  0
  125.2390  137.8450   60.0990 C   0  0  0  0  0  0  0  0  0  0  0  0
  126.3440  138.5990   59.7040 C   0  0  0  0  0  0  0  0  0  0  0  0
  125.8170  139.7270   59.1190 C   0  0  0  0  0  0  0  0  0  0  0  0
  124.4650  139.6550   59.1570 O   0  0  0  0  0  0  0  0  0  0  0  0
  124.1100  138.4580   59.7800 N   0  0  0  0  0  0  0  0  0  0  0  0
  123.8840  133.6290   62.1240 S   0  0  0  0  0  0  0  0  0  0  0  0
  124.9300  132.4420   62.8720 C   0  0  0  0  0  0  0  0  0  0  0  0
  124.4760  131.5650   63.7670 N   0  0  0  0  0  0  0  0  0  0  0  0
  1  2  1  0
  2  3  2  0
  3  4  1  0
  4  5  1  0
  4  6  2  0
  6  7  1  0
  7  8  1  0
  7  9  2  0
  9 10  1  0
 10 11  2  0
 10 12  1  0
 12 13  1  0
 13 14  1  0
 14 15  2  0
 15 16  1  0
 16 17  1  0
  9 18  1  0
 18 19  1  0
 19 20  2  0
 20  2  1  0
 19  6  1  0
 17 13  2  0
M  END
>  <Binding energies>  (45) 
[-6.83]

>  <Ligand effiencies>  (45) 
[-0.29695652173913045]

>  <Interactions>  (45) 
["V-A:GLU:543:CD:4908, V-A:TYR:539:C:4867, V-A:TYR:539:CD1:4873, V-B:ILE:369:CG2:8208, V-B:LEU:475:CD1:9229, V-A:ALA:541:CB:4892, V-B:GLY:454:CA:9020, H-B:SER:385:OG:8381, V-B:ARG:545:CZ:9898, H-B:GLY:454:N:9021, V-B:ILE:369:CD1:8210, H-A:TYR:539:O:4868, V-B:HIS:383:CE1:8365, V-A:TYR:539:CB:4871, V-A:VAL:344:CG1:3000, V-B:SER:385:CB:8380, V-B:LEU:373:CD1:8251, V-A:ILE:343:CG2:2991, V-B:PRO:482:CG:9298, V-B:HIS:383:CD2:8363"]

$$$$
4aj_Grossjean_2025
     RDKit          3D

 20 22  0  0  0  0  0  0  0  0999 V2000
  124.8670  129.5930   65.2760 C   0  0  0  0  0  0  0  0  0  0  0  0
  125.4140  130.6020   64.2830 C   0  0  0  0  0  0  0  0  0  0  0  0
  126.7650  130.6170   63.9470 C   0  0  0  0  0  0  0  0  0  0  0  0
  127.2490  131.5600   63.0320 C   0  0  0  0  0  0  0  0  0  0  0  0
  128.7330  131.5360   62.6990 C   0  0  0  0  0  0  0  0  0  0  0  0
  126.3210  132.4780   62.4730 C   0  0  0  0  0  0  0  0  0  0  0  0
  126.4700  133.5530   61.5280 C   0  0  0  0  0  0  0  0  0  0  0  0
  127.6810  133.8770   60.9730 N   0  0  0  0  0  0  0  0  0  0  0  0
  125.2710  134.2210   61.2320 C   0  0  0  0  0  0  0  0  0  0  0  0
  125.0600  135.3560   60.3320 C   0  0  0  0  0  0  0  0  0  0  0  0
  124.6060  135.1850   59.1980 O   0  0  0  0  0  0  0  0  0  0  0  0
  125.3820  136.5710   60.8400 N   0  0  0  0  0  0  0  0  0  0  0  0
  125.2670  137.7990   60.2040 C   0  0  0  0  0  0  0  0  0  0  0  0
  124.1650  138.4270   59.8540 N   0  0  0  0  0  0  0  0  0  0  0  0
  124.4280  139.5800   59.2700 C   0  0  0  0  0  0  0  0  0  0  0  0
  125.7740  139.9080   59.1340 C   0  0  0  0  0  0  0  0  0  0  0  0
  126.7380  138.6300   59.8130 S   0  0  0  0  0  0  0  0  0  0  0  0
  123.9200  133.5390   62.1390 S   0  0  0  0  0  0  0  0  0  0  0  0
  124.9630  132.3570   62.8970 C   0  0  0  0  0  0  0  0  0  0  0  0
  124.4990  131.4610   63.7690 N   0  0  0  0  0  0  0  0  0  0  0  0
  1  2  1  0
  2  3  2  0
  3  4  1  0
  4  5  1  0
  4  6  2  0
  6  7  1  0
  7  8  1  0
  7  9  2  0
  9 10  1  0
 10 11  2  0
 10 12  1  0
 12 13  1  0
 13 14  2  0
 14 15  1  0
 15 16  2  0
 16 17  1  0
  9 18  1  0
 18 19  1  0
 19 20  2  0
 20  2  1  0
 19  6  1  0
 17 13  1  0
M  END
>  <Binding energies>  (46) 
[-6.96]

>  <Ligand effiencies>  (46) 
[-0.3026086956521739]

>  <Interactions>  (46) 
["V-A:GLU:543:CD:4908, V-A:TYR:539:C:4867, V-A:TYR:539:CD1:4873, V-A:GLU:543:CG:4907, V-B:ILE:369:CG2:8208, V-B:LEU:475:CD1:9229, V-A:ALA:541:CB:4892, V-B:GLY:454:CA:9020, H-B:SER:385:OG:8381, V-B:ARG:545:CZ:9898, H-B:GLY:454:N:9021, V-B:ILE:369:CD1:8210, H-A:TYR:539:O:4868, V-B:HIS:383:CE1:8365, V-A:TYR:539:CB:4871, V-A:VAL:344:CG1:3000, V-B:SER:385:CB:8380, V-B:LEU:373:CD1:8251, V-A:ILE:343:CG2:2991, V-B:PRO:482:CG:9298, V-B:HIS:383:CD2:8363, V-B:HIS:383:CG:8361, V-B:LEU:373:CD2:8252"]

$$$$
4ak_Grossjean_2025
     RDKit          3D

 25 26  0  0  0  0  0  0  0  0999 V2000
  129.2890  130.2640   58.4480 C   0  0  0  0  0  0  0  0  0  0  0  0
  130.1710  129.9790   57.3740 O   0  0  0  0  0  0  0  0  0  0  0  0
  131.2970  130.8450   57.3210 C   0  0  0  0  0  0  0  0  0  0  0  0
  131.3210  131.5720   55.9700 C   0  0  0  0  0  0  0  0  0  0  0  0
  130.2720  132.5300   55.9330 O   0  0  0  0  0  0  0  0  0  0  0  0
  129.0440  132.0180   55.4330 C   0  0  0  0  0  0  0  0  0  0  0  0
  129.3000  131.2890   54.1090 C   0  0  0  0  0  0  0  0  0  0  0  0
  128.2730  130.3300   53.8940 O   0  0  0  0  0  0  0  0  0  0  0  0
  128.1500  129.3750   54.9390 C   0  0  0  0  0  0  0  0  0  0  0  0
  129.1630  128.2390   54.7120 C   0  0  0  0  0  0  0  0  0  0  0  0
  129.7000  127.6760   55.9510 N   0  0  0  0  0  0  0  0  0  0  0  0
  130.6230  126.6960   56.0260 C   0  0  0  0  0  0  0  0  0  0  0  0
  131.1280  126.1850   55.0250 O   0  0  0  0  0  0  0  0  0  0  0  0
  131.0030  126.2730   57.3730 C   0  0  0  0  0  0  0  0  0  0  0  0
  130.0580  126.7910   58.7690 S   0  0  0  0  0  0  0  0  0  0  0  0
  131.1000  125.9070   59.8610 C   0  0  0  0  0  0  0  0  0  0  0  0
  130.9000  125.9030   61.1790 N   0  0  0  0  0  0  0  0  0  0  0  0
  131.7820  125.1810   61.9130 C   0  0  0  0  0  0  0  0  0  0  0  0
  131.5360  125.1870   63.4100 C   0  0  0  0  0  0  0  0  0  0  0  0
  132.8460  124.4690   61.3640 C   0  0  0  0  0  0  0  0  0  0  0  0
  133.0540  124.4750   59.9800 C   0  0  0  0  0  0  0  0  0  0  0  0
  134.2320  123.6860   59.4290 C   0  0  0  0  0  0  0  0  0  0  0  0
  132.1500  125.2230   59.1780 C   0  0  0  0  0  0  0  0  0  0  0  0
  132.0680  125.4430   57.7590 C   0  0  0  0  0  0  0  0  0  0  0  0
  132.9600  124.8880   56.8770 N   0  0  0  0  0  0  0  0  0  0  0  0
  1  2  1  0
  2  3  1  0
  3  4  1  0
  4  5  1  0
  5  6  1  0
  6  7  1  0
  7  8  1  0
  8  9  1  0
  9 10  1  0
 10 11  1  0
 11 12  1  0
 12 13  2  0
 12 14  1  0
 14 15  1  0
 15 16  1  0
 16 17  2  0
 17 18  1  0
 18 19  1  0
 18 20  2  0
 20 21  1  0
 21 22  1  0
 21 23  2  0
 23 24  1  0
 24 25  1  0
 24 14  2  0
 23 16  1  0
M  END
>  <Binding energies>  (47) 
[-5.52]

>  <Ligand effiencies>  (47) 
[-0.19714285714285712]

>  <Interactions>  (47) 
["V-A:TYR:539:CZ:4877, V-A:ASP:366:CB:3211, V-A:ILE:538:CA:4860, V-A:ILE:538:CG2:4863, V-A:TYR:539:CE1:4875, V-A:ASP:366:CG:3212, H-A:TYR:531:OH:4795, H-B:TYR:539:OH:9850, V-A:ASP:366:C:3207, V-B:TYR:539:CZ:9849, V-A:TYR:539:CD1:4873, H-B:LYS:534:NZ:9795, V-B:TYR:531:CE1:9764, H-A:TYR:539:N:4870, V-A:ILE:369:CD1:3238, V-A:ILE:369:CG2:3236, V-A:ASP:366:CA:3209, V-A:ILE:369:CB:3235, V-A:ASN:370:CB:3244, H-A:ASP:366:O:3208"]

$$$$
4al_Grossjean_2025
     RDKit          3D

 16 17  0  0  0  0  0  0  0  0999 V2000
  127.1360  129.8610   54.8600 C   0  0  0  0  0  0  0  0  0  0  0  0
  127.8060  131.0580   54.4960 O   0  0  0  0  0  0  0  0  0  0  0  0
  129.1540  131.1680   54.6190 C   0  0  0  0  0  0  0  0  0  0  0  0
  129.9300  131.2550   53.6640 O   0  0  0  0  0  0  0  0  0  0  0  0
  129.6050  131.1730   56.0280 C   0  0  0  0  0  0  0  0  0  0  0  0
  128.4400  131.4520   57.3250 S   0  0  0  0  0  0  0  0  0  0  0  0
  129.6920  131.3060   58.5370 C   0  0  0  0  0  0  0  0  0  0  0  0
  129.4310  131.4290   59.8390 N   0  0  0  0  0  0  0  0  0  0  0  0
  130.4900  131.2940   60.6750 C   0  0  0  0  0  0  0  0  0  0  0  0
  130.1710  131.4370   62.1510 C   0  0  0  0  0  0  0  0  0  0  0  0
  131.7910  131.0430   60.2420 C   0  0  0  0  0  0  0  0  0  0  0  0
  132.0620  130.9160   58.8760 C   0  0  0  0  0  0  0  0  0  0  0  0
  133.4960  130.6420   58.4520 C   0  0  0  0  0  0  0  0  0  0  0  0
  130.9750  131.0500   57.9700 C   0  0  0  0  0  0  0  0  0  0  0  0
  130.8940  130.9800   56.5370 C   0  0  0  0  0  0  0  0  0  0  0  0
  131.9890  130.7430   55.7460 N   0  0  0  0  0  0  0  0  0  0  0  0
  1  2  1  0
  2  3  1  0
  3  4  2  0
  3  5  1  0
  5  6  1  0
  6  7  1  0
  7  8  2  0
  8  9  1  0
  9 10  1  0
  9 11  2  0
 11 12  1  0
 12 13  1  0
 12 14  2  0
 14 15  1  0
 15 16  1  0
 15  5  2  0
 14  7  1  0
M  END
>  <Binding energies>  (48) 
[-5.39]

>  <Ligand effiencies>  (48) 
[-0.2994444444444444]

>  <Interactions>  (48) 
["V-A:GLU:543:CD:4908, V-A:TYR:539:CZ:4877, V-A:ASP:366:CB:3211, V-A:TYR:531:CZ:4794, V-A:TYR:539:CE1:4875, V-A:PRO:540:CB:4885, V-A:PRO:540:CA:4883, V-A:ASP:366:CG:3212, V-A:LEU:363:CD1:3188, H-A:TYR:531:OH:4795, V-A:TYR:539:CD1:4873, V-A:GLU:543:CG:4907, V-B:TYR:531:CZ:9766, H-A:TYR:539:OH:4878, H-B:LYS:534:NZ:9795, V-A:ALA:541:CB:4892, V-B:TYR:531:CE1:9764, V-A:ALA:541:CA:4890, V-A:LEU:363:CA:3184, V-A:LEU:363:CB:3186, V-A:TYR:531:CE2:4793"]

$$$$
4bc_Grossjean_2025
     RDKit          3D

 26 28  0  0  0  0  0  0  0  0999 V2000
  125.3240  122.1010   56.0860 C   0  0  0  0  0  0  0  0  0  0  0  0
  126.6330  121.6730   56.4490 O   0  0  0  0  0  0  0  0  0  0  0  0
  127.2310  122.2130   57.5710 C   0  0  0  0  0  0  0  0  0  0  0  0
  128.6130  122.0580   57.6750 C   0  0  0  0  0  0  0  0  0  0  0  0
  129.3030  122.5680   58.7710 C   0  0  0  0  0  0  0  0  0  0  0  0
  128.6180  123.2520   59.7770 C   0  0  0  0  0  0  0  0  0  0  0  0
  129.3960  123.7190   60.8530 N   0  0  0  0  0  0  0  0  0  0  0  0
  129.6350  124.9930   61.2480 C   0  0  0  0  0  0  0  0  0  0  0  0
  129.2040  125.9870   60.6620 O   0  0  0  0  0  0  0  0  0  0  0  0
  130.4690  125.1340   62.4460 C   0  0  0  0  0  0  0  0  0  0  0  0
  132.1990  124.8090   62.3660 S   0  0  0  0  0  0  0  0  0  0  0  0
  132.3930  125.1800   64.0630 C   0  0  0  0  0  0  0  0  0  0  0  0
  133.5850  125.1140   64.6570 N   0  0  0  0  0  0  0  0  0  0  0  0
  133.6100  125.4220   65.9740 C   0  0  0  0  0  0  0  0  0  0  0  0
  134.9760  125.3460   66.6300 C   0  0  0  0  0  0  0  0  0  0  0  0
  132.4820  125.7910   66.7050 C   0  0  0  0  0  0  0  0  0  0  0  0
  131.2250  125.8610   66.0850 C   0  0  0  0  0  0  0  0  0  0  0  0
  130.0140  126.2690   66.9310 C   0  0  0  0  0  0  0  0  0  0  0  0
  129.1550  127.0490   66.2710 F   0  0  0  0  0  0  0  0  0  0  0  0
  129.3500  125.1810   67.3180 F   0  0  0  0  0  0  0  0  0  0  0  0
  130.4210  126.9430   68.0070 F   0  0  0  0  0  0  0  0  0  0  0  0
  131.1640  125.5440   64.6950 C   0  0  0  0  0  0  0  0  0  0  0  0
  130.0820  125.5110   63.7420 C   0  0  0  0  0  0  0  0  0  0  0  0
  128.7890  125.8220   64.0790 N   0  0  0  0  0  0  0  0  0  0  0  0
  127.2260  123.4010   59.6860 C   0  0  0  0  0  0  0  0  0  0  0  0
  126.5390  122.8890   58.5900 C   0  0  0  0  0  0  0  0  0  0  0  0
  1  2  1  0
  2  3  1  0
  3  4  2  0
  4  5  1  0
  5  6  2  0
  6  7  1  0
  7  8  1  0
  8  9  2  0
  8 10  1  0
 10 11  1  0
 11 12  1  0
 12 13  2  0
 13 14  1  0
 14 15  1  0
 14 16  2  0
 16 17  1  0
 17 18  1  0
 18 19  1  0
 18 20  1  0
 18 21  1  0
 17 22  2  0
 22 23  1  0
 23 24  1  0
  6 25  1  0
 25 26  2  0
 26  3  1  0
 23 10  2  0
 22 12  1  0
M  END
>  <Binding energies>  (49) 
[-6.48]

>  <Ligand effiencies>  (49) 
[-0.22344827586206897]

>  <Interactions>  (49) 
["V-A:GLU:543:CD:4908, V-B:PRO:540:CB:9857, V-B:TYR:539:CZ:9849, V-B:TYR:539:CE1:9847, V-B:GLU:543:CD:9880, V-B:PRO:540:N:9856, V-B:TYR:539:CD2:9846, V-B:ILE:538:CG2:9835, V-B:LEU:363:CD1:8160, V-B:PRO:540:CD:9859, V-B:TYR:539:CE2:9848, H-B:TYR:539:N:9842, V-B:PRO:540:CA:9855, V-B:MET:535:CE:9807, V-B:GLU:543:CG:9879, H-B:GLU:543:OE2:9882, H-B:GLU:543:OE1:9881, V-A:GLU:543:CB:4906, V-A:TYR:484:CE2:4345, V-B:GLU:543:CB:9878, V-A:GLY:453:C:4041, H-A:ARG:545:NH2:4928, V-A:GLY:453:CA:4043, V-A:HIS:456:CE1:4069, H-A:ARG:545:NE:4924, H-A:GLY:454:N:4049, V-A:ARG:545:CZ:4926, H-A:TYR:484:OH:4347, V-A:ARG:545:CG:4922, V-A:TYR:484:CZ:4346, V-A:ARG:545:CD:4923, V-B:TYR:539:C:9839, V-A:GLY:454:CA:4048, V-A:ILE:455:C:4051, V-B:TYR:539:CG:9844, V-B:TYR:539:CD1:9845, V-B:GLU:543:CA:9876"]

$$$$
4bf_Grossjean_2025
     RDKit          3D

 24 26  0  0  0  0  0  0  0  0999 V2000
  124.5500  129.5860   65.6590 C   0  0  0  0  0  0  0  0  0  0  0  0
  125.2140  130.3600   64.5330 C   0  0  0  0  0  0  0  0  0  0  0  0
  124.5690  131.4340   63.9240 C   0  0  0  0  0  0  0  0  0  0  0  0
  125.1920  132.1380   62.8820 C   0  0  0  0  0  0  0  0  0  0  0  0
  124.4440  133.3110   62.2410 C   0  0  0  0  0  0  0  0  0  0  0  0
  125.1930  134.4120   62.1320 F   0  0  0  0  0  0  0  0  0  0  0  0
  124.0460  132.9770   61.0130 F   0  0  0  0  0  0  0  0  0  0  0  0
  123.3790  133.6250   62.9790 F   0  0  0  0  0  0  0  0  0  0  0  0
  126.4930  131.7050   62.4880 C   0  0  0  0  0  0  0  0  0  0  0  0
  127.4190  132.1670   61.4830 C   0  0  0  0  0  0  0  0  0  0  0  0
  127.1470  133.2300   60.6600 N   0  0  0  0  0  0  0  0  0  0  0  0
  128.6180  131.4380   61.4280 C   0  0  0  0  0  0  0  0  0  0  0  0
  129.7530  131.6130   60.5160 C   0  0  0  0  0  0  0  0  0  0  0  0
  130.8900  131.7870   60.9560 O   0  0  0  0  0  0  0  0  0  0  0  0
  129.4520  131.5540   59.1960 N   0  0  0  0  0  0  0  0  0  0  0  0
  130.2880  131.7290   58.0770 C   0  0  0  0  0  0  0  0  0  0  0  0
  131.6550  131.4060   58.0230 C   0  0  0  0  0  0  0  0  0  0  0  0
  132.3770  131.6450   56.8510 C   0  0  0  0  0  0  0  0  0  0  0  0
  131.7110  132.2070   55.7600 C   0  0  0  0  0  0  0  0  0  0  0  0
  130.3950  132.5330   55.7890 N   0  0  0  0  0  0  0  0  0  0  0  0
  129.7080  132.2950   56.9360 C   0  0  0  0  0  0  0  0  0  0  0  0
  128.6330  130.1440   62.6240 S   0  0  0  0  0  0  0  0  0  0  0  0
  127.0420  130.5900   63.1940 C   0  0  0  0  0  0  0  0  0  0  0  0
  126.4460  129.9250   64.1840 N   0  0  0  0  0  0  0  0  0  0  0  0
  1  2  1  0
  2  3  2  0
  3  4  1  0
  4  5  1  0
  5  6  1  0
  5  7  1  0
  5  8  1  0
  4  9  2  0
  9 10  1  0
 10 11  1  0
 10 12  2  0
 12 13  1  0
 13 14  2  0
 13 15  1  0
 15 16  1  0
 16 17  2  0
 17 18  1  0
 18 19  2  0
 19 20  1  0
 20 21  2  0
 12 22  1  0
 22 23  1  0
 23 24  2  0
 24  2  1  0
 23  9  1  0
 21 16  1  0
M  END
>  <Binding energies>  (50) 
[-6.55]

>  <Ligand effiencies>  (50) 
[-0.24259259259259258]

>  <Interactions>  (50) 
["V-A:GLU:543:CD:4908, V-A:PRO:540:CD:4887, H-A:ALA:541:N:4891, V-A:ILE:538:CG2:4863, V-A:ILE:538:CB:4862, V-A:TYR:539:CE1:4875, V-A:PRO:540:CB:4885, V-A:PRO:540:CA:4883, V-A:TYR:539:C:4867, V-A:PRO:540:N:4884, V-A:LEU:363:CD1:3188, V-A:TYR:539:CD1:4873, V-B:ILE:369:CG2:8208, V-B:LEU:475:CD1:9229, V-A:ALA:541:CB:4892, V-B:GLY:454:CA:9020, V-B:ARG:545:CZ:9898, V-B:ILE:369:CD1:8210, H-A:TYR:539:O:4868, H-A:TYR:539:N:4870, V-A:TYR:539:CA:4869, V-B:ILE:369:CB:8207, V-B:ILE:369:CG1:8209, V-B:SER:385:C:8376"]

$$$$
4bh_Grossjean_2025
     RDKit          3D

 31 33  0  0  0  0  0  0  0  0999 V2000
  123.5190  130.6940   61.7980 C   0  0  0  0  0  0  0  0  0  0  0  0
  123.6510  130.7390   63.2150 O   0  0  0  0  0  0  0  0  0  0  0  0
  124.8790  130.4740   63.7920 C   0  0  0  0  0  0  0  0  0  0  0  0
  126.0980  130.9660   63.3000 C   0  0  0  0  0  0  0  0  0  0  0  0
  127.3030  130.6560   63.9320 C   0  0  0  0  0  0  0  0  0  0  0  0
  128.6120  131.2360   63.4110 C   0  0  0  0  0  0  0  0  0  0  0  0
  128.7660  131.1200   61.9600 N   0  0  0  0  0  0  0  0  0  0  0  0
  129.8980  131.3730   61.2710 C   0  0  0  0  0  0  0  0  0  0  0  0
  130.9280  131.7760   61.8140 O   0  0  0  0  0  0  0  0  0  0  0  0
  129.8240  131.1840   59.8220 C   0  0  0  0  0  0  0  0  0  0  0  0
  129.3210  132.5150   58.7840 S   0  0  0  0  0  0  0  0  0  0  0  0
  129.4500  131.5100   57.3600 C   0  0  0  0  0  0  0  0  0  0  0  0
  129.1800  131.9870   56.1460 N   0  0  0  0  0  0  0  0  0  0  0  0
  129.3180  131.1140   55.1210 C   0  0  0  0  0  0  0  0  0  0  0  0
  129.0030  131.6780   53.7460 C   0  0  0  0  0  0  0  0  0  0  0  0
  129.7180  129.7900   55.2780 C   0  0  0  0  0  0  0  0  0  0  0  0
  130.0020  129.2810   56.5560 C   0  0  0  0  0  0  0  0  0  0  0  0
  130.4410  127.8180   56.6800 C   0  0  0  0  0  0  0  0  0  0  0  0
  131.6940  127.6830   57.1200 F   0  0  0  0  0  0  0  0  0  0  0  0
  129.6460  127.1800   57.5380 F   0  0  0  0  0  0  0  0  0  0  0  0
  130.3700  127.2240   55.4890 F   0  0  0  0  0  0  0  0  0  0  0  0
  129.8640  130.1740   57.6590 C   0  0  0  0  0  0  0  0  0  0  0  0
  130.0560  130.0160   59.0800 C   0  0  0  0  0  0  0  0  0  0  0  0
  130.4410  128.8300   59.6490 N   0  0  0  0  0  0  0  0  0  0  0  0
  127.2910  129.8700   65.0860 C   0  0  0  0  0  0  0  0  0  0  0  0
  126.0880  129.3580   65.5960 C   0  0  0  0  0  0  0  0  0  0  0  0
  126.0040  128.5620   66.7250 O   0  0  0  0  0  0  0  0  0  0  0  0
  127.1180  127.7560   67.0940 C   0  0  0  0  0  0  0  0  0  0  0  0
  124.8890  129.6630   64.9360 C   0  0  0  0  0  0  0  0  0  0  0  0
  123.7010  129.1830   65.4350 O   0  0  0  0  0  0  0  0  0  0  0  0
  123.4500  129.5540   66.7830 C   0  0  0  0  0  0  0  0  0  0  0  0
  1  2  1  0
  2  3  1  0
  3  4  2  0
  4  5  1  0
  5  6  1  0
  6  7  1  0
  7  8  1  0
  8  9  2  0
  8 10  1  0
 10 11  1  0
 11 12  1  0
 12 13  2  0
 13 14  1  0
 14 15  1  0
 14 16  2  0
 16 17  1  0
 17 18  1  0
 18 19  1  0
 18 20  1  0
 18 21  1  0
 17 22  2  0
 22 23  1  0
 23 24  1  0
  5 25  2  0
 25 26  1  0
 26 27  1  0
 27 28  1  0
 26 29  2  0
 29 30  1  0
 30 31  1  0
 29  3  1  0
 23 10  2  0
 22 12  1  0
M  END
>  <Binding energies>  (51) 
[-6.33]

>  <Ligand effiencies>  (51) 
[-0.1861764705882353]

>  <Interactions>  (51) 
["V-A:GLU:543:CD:4908, H-A:ASP:366:OD2:3214, V-A:ASP:366:CB:3211, V-A:ILE:538:CA:4860, H-A:ALA:541:N:4891, V-A:TYR:531:CZ:4794, V-A:ILE:538:CG2:4863, V-A:ILE:538:CB:4862, V-A:TYR:539:CE1:4875, V-A:PRO:540:CA:4883, V-A:TYR:539:C:4867, V-A:PRO:540:N:4884, V-B:ASP:366:CG:8184, V-A:TYR:539:CD1:4873, H-B:ARG:545:NH2:9900, V-A:GLU:543:CG:4907, V-A:ALA:541:CB:4892, V-B:GLY:454:CA:9020, V-B:ARG:545:CD:9895, V-B:ARG:545:CG:9894, V-B:ARG:545:CZ:9898, V-B:HIS:456:CE1:9041, H-B:GLY:454:N:9021, V-B:ILE:369:CD1:8210, H-B:ARG:545:NH1:9899, H-A:TYR:539:N:4870, H-B:TYR:484:OH:9319, V-B:GLY:453:C:9013, V-B:GLY:453:CA:9015, H-B:ARG:545:NE:9896, V-B:LYS:534:CE:9794, V-B:GLY:454:C:9018"]

$$$$
4bi_Grossjean_2025
     RDKit          3D

 23 25  0  0  0  0  0  0  0  0999 V2000
  124.8600  129.5620   65.5350 C   0  0  0  0  0  0  0  0  0  0  0  0
  125.4360  130.3520   64.3730 C   0  0  0  0  0  0  0  0  0  0  0  0
  124.7400  131.4220   63.8180 C   0  0  0  0  0  0  0  0  0  0  0  0
  125.2880  132.1470   62.7460 C   0  0  0  0  0  0  0  0  0  0  0  0
  124.4880  133.3220   62.1740 C   0  0  0  0  0  0  0  0  0  0  0  0
  123.4110  133.6240   62.9010 F   0  0  0  0  0  0  0  0  0  0  0  0
  125.2560  134.4100   62.1270 F   0  0  0  0  0  0  0  0  0  0  0  0
  124.0690  133.0260   60.9430 F   0  0  0  0  0  0  0  0  0  0  0  0
  126.5660  131.7330   62.2650 C   0  0  0  0  0  0  0  0  0  0  0  0
  127.4190  132.2180   61.2080 C   0  0  0  0  0  0  0  0  0  0  0  0
  127.0780  133.2770   60.4060 N   0  0  0  0  0  0  0  0  0  0  0  0
  128.6290  131.5150   61.0790 C   0  0  0  0  0  0  0  0  0  0  0  0
  129.7110  131.7280   60.1140 C   0  0  0  0  0  0  0  0  0  0  0  0
  130.8840  131.7950   60.4880 O   0  0  0  0  0  0  0  0  0  0  0  0
  129.3240  131.8220   58.8170 N   0  0  0  0  0  0  0  0  0  0  0  0
  130.1340  132.0090   57.7050 C   0  0  0  0  0  0  0  0  0  0  0  0
  131.4690  131.6100   57.6580 C   0  0  0  0  0  0  0  0  0  0  0  0
  131.9070  131.9700   56.4040 C   0  0  0  0  0  0  0  0  0  0  0  0
  130.8890  132.5560   55.7310 O   0  0  0  0  0  0  0  0  0  0  0  0
  129.7700  132.5750   56.5660 N   0  0  0  0  0  0  0  0  0  0  0  0
  128.7350  130.2080   62.2560 S   0  0  0  0  0  0  0  0  0  0  0  0
  127.1730  130.6200   62.9230 C   0  0  0  0  0  0  0  0  0  0  0  0
  126.6490  129.9370   63.9410 N   0  0  0  0  0  0  0  0  0  0  0  0
  1  2  1  0
  2  3  2  0
  3  4  1  0
  4  5  1  0
  5  6  1  0
  5  7  1  0
  5  8  1  0
  4  9  2  0
  9 10  1  0
 10 11  1  0
 10 12  2  0
 12 13  1  0
 13 14  2  0
 13 15  1  0
 15 16  1  0
 16 17  1  0
 17 18  2  0
 18 19  1  0
 19 20  1  0
 12 21  1  0
 21 22  1  0
 22 23  2  0
 23  2  1  0
 22  9  1  0
 20 16  2  0
M  END
>  <Binding energies>  (52) 
[-6.53]

>  <Ligand effiencies>  (52) 
[-0.25115384615384617]

>  <Interactions>  (52) 
["V-A:GLU:543:CD:4908, V-A:PRO:540:CD:4887, H-A:ALA:541:N:4891, V-A:TYR:539:CE1:4875, V-A:PRO:540:CB:4885, V-A:PRO:540:CA:4883, V-A:TYR:539:C:4867, V-A:PRO:540:N:4884, V-A:LEU:363:CD1:3188, V-A:TYR:539:CD1:4873, V-B:ILE:369:CG2:8208, V-B:LEU:475:CD1:9229, V-B:GLY:454:CA:9020, V-B:ARG:545:CZ:9898, V-B:ILE:369:CD1:8210, H-A:TYR:539:O:4868, H-A:TYR:539:N:4870, V-B:ILE:369:CB:8207, V-B:ILE:369:CG1:8209, V-B:SER:385:C:8376"]

$$$$
4bj_Grossjean_2025
     RDKit          3D

 23 25  0  0  0  0  0  0  0  0999 V2000
  124.7950  129.6470   65.2830 C   0  0  0  0  0  0  0  0  0  0  0  0
  125.3180  130.5640   64.1920 C   0  0  0  0  0  0  0  0  0  0  0  0
  126.5880  130.3820   63.6500 C   0  0  0  0  0  0  0  0  0  0  0  0
  127.0620  131.2410   62.6460 C   0  0  0  0  0  0  0  0  0  0  0  0
  128.4670  131.0030   62.0810 C   0  0  0  0  0  0  0  0  0  0  0  0
  129.2920  132.0320   62.2850 F   0  0  0  0  0  0  0  0  0  0  0  0
  129.0100  129.9330   62.6610 F   0  0  0  0  0  0  0  0  0  0  0  0
  128.3950  130.8030   60.7650 F   0  0  0  0  0  0  0  0  0  0  0  0
  126.1910  132.2870   62.2180 C   0  0  0  0  0  0  0  0  0  0  0  0
  126.3260  133.3390   61.2390 C   0  0  0  0  0  0  0  0  0  0  0  0
  127.4590  133.5080   60.4850 N   0  0  0  0  0  0  0  0  0  0  0  0
  125.1960  134.1640   61.1240 C   0  0  0  0  0  0  0  0  0  0  0  0
  124.9950  135.3200   60.2470 C   0  0  0  0  0  0  0  0  0  0  0  0
  124.5360  135.1790   59.1120 O   0  0  0  0  0  0  0  0  0  0  0  0
  125.3330  136.5200   60.7790 N   0  0  0  0  0  0  0  0  0  0  0  0
  125.2310  137.7620   60.1680 C   0  0  0  0  0  0  0  0  0  0  0  0
  124.1370  138.4300   59.8730 N   0  0  0  0  0  0  0  0  0  0  0  0
  124.4130  139.5840   59.2990 C   0  0  0  0  0  0  0  0  0  0  0  0
  125.7610  139.8730   59.1160 C   0  0  0  0  0  0  0  0  0  0  0  0
  126.7110  138.5530   59.7300 S   0  0  0  0  0  0  0  0  0  0  0  0
  123.9300  133.6740   62.2480 S   0  0  0  0  0  0  0  0  0  0  0  0
  124.9130  132.3600   62.8520 C   0  0  0  0  0  0  0  0  0  0  0  0
  124.4680  131.5440   63.8070 N   0  0  0  0  0  0  0  0  0  0  0  0
  1  2  1  0
  2  3  2  0
  3  4  1  0
  4  5  1  0
  5  6  1  0
  5  7  1  0
  5  8  1  0
  4  9  2  0
  9 10  1  0
 10 11  1  0
 10 12  2  0
 12 13  1  0
 13 14  2  0
 13 15  1  0
 15 16  1  0
 16 17  2  0
 17 18  1  0
 18 19  2  0
 19 20  1  0
 12 21  1  0
 21 22  1  0
 22 23  2  0
 23  2  1  0
 22  9  1  0
 20 16  1  0
M  END
>  <Binding energies>  (53) 
[-6.35]

>  <Ligand effiencies>  (53) 
[-0.24423076923076922]

>  <Interactions>  (53) 
["V-A:GLU:543:CD:4908, V-A:TYR:539:CE1:4875, V-A:TYR:539:C:4867, V-A:TYR:539:CD1:4873, V-A:GLU:543:CG:4907, V-B:ILE:369:CG2:8208, V-B:LEU:475:CD1:9229, V-A:ALA:541:CB:4892, V-B:GLY:454:CA:9020, V-A:ALA:541:CA:4890, H-B:SER:385:OG:8381, V-B:ARG:545:CZ:9898, H-B:GLY:454:N:9021, V-B:ILE:369:CD1:8210, H-A:TYR:539:O:4868, V-B:HIS:383:CE1:8365, V-A:TYR:539:CB:4871, V-A:VAL:344:CG1:3000, V-B:SER:385:CB:8380, V-B:LEU:373:CD1:8251, V-A:ILE:343:CG2:2991, V-B:PRO:482:CG:9298, V-B:HIS:383:CD2:8363, V-B:HIS:383:CG:8361, V-B:LEU:373:CD2:8252"]

$$$$
4bk_Grossjean_2025
     RDKit          3D

 28 29  0  0  0  0  0  0  0  0999 V2000
  127.7330  123.1590   62.0680 C   0  0  0  0  0  0  0  0  0  0  0  0
  128.5870  122.0510   61.8270 O   0  0  0  0  0  0  0  0  0  0  0  0
  129.7990  122.0990   62.5700 C   0  0  0  0  0  0  0  0  0  0  0  0
  130.5060  120.7400   62.4830 C   0  0  0  0  0  0  0  0  0  0  0  0
  130.1830  120.1180   61.2480 O   0  0  0  0  0  0  0  0  0  0  0  0
  129.7570  118.7680   61.3790 C   0  0  0  0  0  0  0  0  0  0  0  0
  130.8780  117.8320   60.9090 C   0  0  0  0  0  0  0  0  0  0  0  0
  131.8240  118.5740   60.1520 O   0  0  0  0  0  0  0  0  0  0  0  0
  133.1020  118.6770   60.7690 C   0  0  0  0  0  0  0  0  0  0  0  0
  133.3920  120.1510   61.0990 C   0  0  0  0  0  0  0  0  0  0  0  0
  132.5990  121.0960   60.3120 N   0  0  0  0  0  0  0  0  0  0  0  0
  132.8810  122.4060   60.1510 C   0  0  0  0  0  0  0  0  0  0  0  0
  133.8760  122.9330   60.6520 O   0  0  0  0  0  0  0  0  0  0  0  0
  131.9400  123.1720   59.3330 C   0  0  0  0  0  0  0  0  0  0  0  0
  132.4590  124.6610   58.5480 S   0  0  0  0  0  0  0  0  0  0  0  0
  130.8830  124.8830   57.8280 C   0  0  0  0  0  0  0  0  0  0  0  0
  130.6150  125.9300   57.0480 N   0  0  0  0  0  0  0  0  0  0  0  0
  129.3600  125.9930   56.5460 C   0  0  0  0  0  0  0  0  0  0  0  0
  129.0790  127.1920   55.6590 C   0  0  0  0  0  0  0  0  0  0  0  0
  128.3760  125.0430   56.8040 C   0  0  0  0  0  0  0  0  0  0  0  0
  128.6500  123.9380   57.6250 C   0  0  0  0  0  0  0  0  0  0  0  0
  127.5330  122.9210   57.8820 C   0  0  0  0  0  0  0  0  0  0  0  0
  126.3480  123.3160   57.4110 F   0  0  0  0  0  0  0  0  0  0  0  0
  127.8320  121.7640   57.2930 F   0  0  0  0  0  0  0  0  0  0  0  0
  127.3950  122.7240   59.1930 F   0  0  0  0  0  0  0  0  0  0  0  0
  129.9650  123.8410   58.1700 C   0  0  0  0  0  0  0  0  0  0  0  0
  130.6030  122.8750   59.0290 C   0  0  0  0  0  0  0  0  0  0  0  0
  129.9540  121.7650   59.5080 N   0  0  0  0  0  0  0  0  0  0  0  0
  1  2  1  0
  2  3  1  0
  3  4  1  0
  4  5  1  0
  5  6  1  0
  6  7  1  0
  7  8  1  0
  8  9  1  0
  9 10  1  0
 10 11  1  0
 11 12  1  0
 12 13  2  0
 12 14  1  0
 14 15  1  0
 15 16  1  0
 16 17  2  0
 17 18  1  0
 18 19  1  0
 18 20  2  0
 20 21  1  0
 21 22  1  0
 22 23  1  0
 22 24  1  0
 22 25  1  0
 21 26  2  0
 26 27  1  0
 27 28  1  0
 27 14  2  0
 26 16  1  0
M  END
>  <Binding energies>  (54) 
[-4.36]

>  <Ligand effiencies>  (54) 
[-0.1406451612903226]

>  <Interactions>  (54) 
["V-A:ASP:366:CB:3211, V-A:ASP:366:CG:3212, H-B:TYR:539:OH:9850, V-B:PRO:540:CB:9857, V-B:TYR:539:CZ:9849, V-B:TYR:539:CE1:9847, V-B:ALA:541:CB:9864, V-B:GLU:543:CD:9880, V-B:PRO:540:N:9856, V-B:TYR:539:CD2:9846, V-B:PRO:540:C:9853, V-B:TYR:539:CE2:9848, V-B:PRO:540:CA:9855, V-B:ALA:541:CA:9862, V-B:MET:535:CE:9807, V-A:LEU:475:CD1:4257, V-B:TYR:539:C:9839, V-A:ILE:369:CG2:3236, V-A:SER:385:CA:3406, H-B:ALA:541:N:9863, H-B:TYR:539:O:9840, V-A:PRO:482:CG:4326, V-A:ASP:366:CA:3209, V-B:TYR:539:CA:9841, V-B:TYR:539:CG:9844, V-B:TYR:539:CD1:9845, H-A:HIS:383:NE2:3393, V-A:PRO:482:CB:4325, V-A:SER:385:CB:3408"]

$$$$
4cd_Grossjean_2025
     RDKit          3D

 29 32  0  0  0  0  0  0  0  0999 V2000
  128.7660  129.2020   63.1860 N   0  0  0  0  0  0  0  0  0  0  0  0
  127.8420  130.1690   63.4910 C   0  0  0  0  0  0  0  0  0  0  0  0
  127.0550  130.1420   64.6530 C   0  0  0  0  0  0  0  0  0  0  0  0
  127.0320  129.1340   65.7170 C   0  0  0  0  0  0  0  0  0  0  0  0
  126.0060  128.4970   65.9570 O   0  0  0  0  0  0  0  0  0  0  0  0
  128.2000  128.9660   66.3830 N   0  0  0  0  0  0  0  0  0  0  0  0
  128.4970  128.1290   67.4760 C   0  0  0  0  0  0  0  0  0  0  0  0
  129.0130  128.7630   68.6090 C   0  0  0  0  0  0  0  0  0  0  0  0
  129.3260  128.0240   69.7460 C   0  0  0  0  0  0  0  0  0  0  0  0
  129.1160  126.6470   69.7530 C   0  0  0  0  0  0  0  0  0  0  0  0
  128.5910  126.0050   68.6350 C   0  0  0  0  0  0  0  0  0  0  0  0
  128.2770  126.7420   67.4960 C   0  0  0  0  0  0  0  0  0  0  0  0
  125.9870  131.5410   64.7300 S   0  0  0  0  0  0  0  0  0  0  0  0
  126.5930  132.1450   63.2070 C   0  0  0  0  0  0  0  0  0  0  0  0
  126.1320  133.2750   62.6750 N   0  0  0  0  0  0  0  0  0  0  0  0
  126.6550  133.6570   61.4800 C   0  0  0  0  0  0  0  0  0  0  0  0
  126.1150  134.9330   60.9040 C   0  0  0  0  0  0  0  0  0  0  0  0
  126.9180  136.0830   60.8240 C   0  0  0  0  0  0  0  0  0  0  0  0
  126.4230  137.2690   60.2900 C   0  0  0  0  0  0  0  0  0  0  0  0
  125.1130  137.3230   59.8260 C   0  0  0  0  0  0  0  0  0  0  0  0
  124.2980  136.1990   59.8900 C   0  0  0  0  0  0  0  0  0  0  0  0
  124.7970  135.0140   60.4220 C   0  0  0  0  0  0  0  0  0  0  0  0
  127.6500  132.9150   60.8370 C   0  0  0  0  0  0  0  0  0  0  0  0
  128.1460  131.7230   61.3920 C   0  0  0  0  0  0  0  0  0  0  0  0
  129.2340  130.9560   60.6320 C   0  0  0  0  0  0  0  0  0  0  0  0
  129.5450  131.5140   59.4590 F   0  0  0  0  0  0  0  0  0  0  0  0
  130.3490  130.9120   61.3610 F   0  0  0  0  0  0  0  0  0  0  0  0
  128.8200  129.7140   60.3840 F   0  0  0  0  0  0  0  0  0  0  0  0
  127.5960  131.3060   62.6380 C   0  0  0  0  0  0  0  0  0  0  0  0
  1  2  1  0
  2  3  2  0
  3  4  1  0
  4  5  2  0
  4  6  1  0
  6  7  1  0
  7  8  2  0
  8  9  1  0
  9 10  2  0
 10 11  1  0
 11 12  2  0
  3 13  1  0
 13 14  1  0
 14 15  2  0
 15 16  1  0
 16 17  1  0
 17 18  2  0
 18 19  1  0
 19 20  2  0
 20 21  1  0
 21 22  2  0
 16 23  2  0
 23 24  1  0
 24 25  1  0
 25 26  1  0
 25 27  1  0
 25 28  1  0
 24 29  2  0
 29  2  1  0
 12  7  1  0
 29 14  1  0
 22 17  1  0
M  END
>  <Binding energies>  (55) 
[-7.69]

>  <Ligand effiencies>  (55) 
[-0.2403125]

>  <Interactions>  (55) 
["V-A:GLU:543:CD:4908, H-A:GLU:543:OE1:4909, V-A:PRO:540:CA:4883, V-A:TYR:539:C:4867, H-A:GLU:543:OE2:4910, V-B:GLU:543:CD:9880, V-A:TYR:539:CD1:4873, H-B:ARG:545:NH2:9900, V-A:GLU:543:CG:4907, V-B:ILE:369:CG2:8208, V-B:LEU:475:CD1:9229, V-A:ALA:541:CB:4892, V-B:GLY:454:CA:9020, V-A:GLU:543:CB:4906, V-B:HIS:456:CE1:9041, V-B:TYR:484:CZ:9318, V-A:GLU:543:C:4902, V-B:GLU:543:CB:9878, V-A:GLU:543:CA:4904, V-A:HIS:456:CE1:4069, H-B:ARG:545:NE:9896, V-A:TYR:539:CB:4871, V-B:SER:385:CB:8380, V-B:LEU:373:CD1:8251, V-B:PRO:482:CG:9298, V-B:SER:385:CA:8378, V-B:PRO:482:CB:9297, V-B:GLU:543:C:9874"]

$$$$
4cg_Grossjean_2025
     RDKit          3D

 30 33  0  0  0  0  0  0  0  0999 V2000
  128.0230  127.9880   64.2660 N   0  0  0  0  0  0  0  0  0  0  0  0
  128.3720  128.8350   63.2460 C   0  0  0  0  0  0  0  0  0  0  0  0
  129.4240  128.5730   62.3570 C   0  0  0  0  0  0  0  0  0  0  0  0
  130.2920  127.3980   62.2920 C   0  0  0  0  0  0  0  0  0  0  0  0
  130.6820  126.9460   61.2130 O   0  0  0  0  0  0  0  0  0  0  0  0
  130.6020  126.8240   63.4740 N   0  0  0  0  0  0  0  0  0  0  0  0
  131.4680  125.6600   63.6500 C   0  0  0  0  0  0  0  0  0  0  0  0
  132.2180  125.6570   64.9770 C   0  0  0  0  0  0  0  0  0  0  0  0
  133.5400  125.2060   65.0260 C   0  0  0  0  0  0  0  0  0  0  0  0
  134.2400  125.2310   66.2300 C   0  0  0  0  0  0  0  0  0  0  0  0
  133.6180  125.7170   67.3780 C   0  0  0  0  0  0  0  0  0  0  0  0
  132.3060  126.1840   67.3320 C   0  0  0  0  0  0  0  0  0  0  0  0
  131.6070  126.1600   66.1280 C   0  0  0  0  0  0  0  0  0  0  0  0
  129.5870  129.8540   61.1590 S   0  0  0  0  0  0  0  0  0  0  0  0
  128.2590  130.7420   61.8690 C   0  0  0  0  0  0  0  0  0  0  0  0
  127.8580  131.9080   61.3700 N   0  0  0  0  0  0  0  0  0  0  0  0
  126.8150  132.5240   61.9850 C   0  0  0  0  0  0  0  0  0  0  0  0
  126.3880  133.8390   61.3980 C   0  0  0  0  0  0  0  0  0  0  0  0
  125.1790  133.9550   60.6920 C   0  0  0  0  0  0  0  0  0  0  0  0
  124.7800  135.1710   60.1450 C   0  0  0  0  0  0  0  0  0  0  0  0
  125.5870  136.2940   60.2960 C   0  0  0  0  0  0  0  0  0  0  0  0
  126.7900  136.2080   60.9870 C   0  0  0  0  0  0  0  0  0  0  0  0
  127.1860  134.9900   61.5320 C   0  0  0  0  0  0  0  0  0  0  0  0
  126.1930  131.9730   63.1110 C   0  0  0  0  0  0  0  0  0  0  0  0
  126.6080  130.7440   63.6470 C   0  0  0  0  0  0  0  0  0  0  0  0
  125.8830  130.1980   64.8820 C   0  0  0  0  0  0  0  0  0  0  0  0
  125.4870  128.9320   64.7400 F   0  0  0  0  0  0  0  0  0  0  0  0
  126.6940  130.2470   65.9390 F   0  0  0  0  0  0  0  0  0  0  0  0
  124.7970  130.9300   65.1270 F   0  0  0  0  0  0  0  0  0  0  0  0
  127.6920  130.0830   62.9990 C   0  0  0  0  0  0  0  0  0  0  0  0
  1  2  1  0
  2  3  2  0
  3  4  1  0
  4  5  2  0
  4  6  1  0
  6  7  1  0
  7  8  1  0
  8  9  2  0
  9 10  1  0
 10 11  2  0
 11 12  1  0
 12 13  2  0
  3 14  1  0
 14 15  1  0
 15 16  2  0
 16 17  1  0
 17 18  1  0
 18 19  2  0
 19 20  1  0
 20 21  2  0
 21 22  1  0
 22 23  2  0
 17 24  2  0
 24 25  1  0
 25 26  1  0
 26 27  1  0
 26 28  1  0
 26 29  1  0
 25 30  2  0
 30  2  1  0
 13  8  1  0
 30 15  1  0
 23 18  1  0
M  END
>  <Binding energies>  (56) 
[-7.86]

>  <Ligand effiencies>  (56) 
[-0.2381818181818182]

>  <Interactions>  (56) 
["V-A:GLU:543:CD:4908, H-A:GLU:543:OE1:4909, V-A:TYR:539:CE1:4875, H-A:GLU:543:OE2:4910, V-A:TYR:539:CD1:4873, H-B:GLU:543:OE2:9882, V-B:ILE:369:CG2:8208, V-B:LEU:475:CD1:9229, V-A:ALA:541:CB:4892, V-B:GLY:454:CA:9020, V-B:ARG:545:CZ:9898, V-B:TYR:484:CE2:9317, V-B:TYR:484:CZ:9318, V-A:GLY:453:C:4041, V-A:GLY:453:CA:4043, V-A:HIS:456:CE1:4069, V-A:ARG:545:CZ:4926, V-A:ARG:545:CG:4922, V-A:TYR:484:CZ:4346, V-A:ARG:545:CD:4923, V-A:GLY:454:CA:4048, V-A:TYR:539:CB:4871, V-B:SER:385:CB:8380, V-B:LEU:373:CD1:8251, V-B:PRO:482:CG:9298, V-B:PRO:482:CB:9297"]

$$$$
4ch_Grossjean_2025
     RDKit          3D

 36 39  0  0  0  0  0  0  0  0999 V2000
  132.0860  132.5740   55.7420 C   0  0  0  0  0  0  0  0  0  0  0  0
  130.6630  132.5810   55.6930 O   0  0  0  0  0  0  0  0  0  0  0  0
  129.9510  131.8030   56.5870 C   0  0  0  0  0  0  0  0  0  0  0  0
  130.3390  131.5840   57.9190 C   0  0  0  0  0  0  0  0  0  0  0  0
  129.5690  130.7870   58.7670 C   0  0  0  0  0  0  0  0  0  0  0  0
  130.0220  130.5380   60.2020 C   0  0  0  0  0  0  0  0  0  0  0  0
  130.3070  129.1360   60.5070 N   0  0  0  0  0  0  0  0  0  0  0  0
  129.3830  128.1670   60.6810 C   0  0  0  0  0  0  0  0  0  0  0  0
  128.1740  128.3770   60.5680 O   0  0  0  0  0  0  0  0  0  0  0  0
  129.9020  126.8320   60.9780 C   0  0  0  0  0  0  0  0  0  0  0  0
  129.5160  125.4790   59.9190 S   0  0  0  0  0  0  0  0  0  0  0  0
  130.4680  124.3870   60.8940 C   0  0  0  0  0  0  0  0  0  0  0  0
  130.5760  123.0960   60.5880 N   0  0  0  0  0  0  0  0  0  0  0  0
  131.3430  122.3250   61.4030 C   0  0  0  0  0  0  0  0  0  0  0  0
  131.4390  120.8730   61.0330 C   0  0  0  0  0  0  0  0  0  0  0  0
  132.5410  120.3860   60.3120 C   0  0  0  0  0  0  0  0  0  0  0  0
  132.6360  119.0400   59.9650 C   0  0  0  0  0  0  0  0  0  0  0  0
  131.6260  118.1600   60.3360 C   0  0  0  0  0  0  0  0  0  0  0  0
  130.5210  118.6160   61.0470 C   0  0  0  0  0  0  0  0  0  0  0  0
  130.4290  119.9620   61.3900 C   0  0  0  0  0  0  0  0  0  0  0  0
  131.9820  122.8500   62.5300 C   0  0  0  0  0  0  0  0  0  0  0  0
  131.8740  124.2100   62.8640 C   0  0  0  0  0  0  0  0  0  0  0  0
  132.6010  124.7200   64.1130 C   0  0  0  0  0  0  0  0  0  0  0  0
  131.7850  125.3090   64.9910 F   0  0  0  0  0  0  0  0  0  0  0  0
  133.1920  123.7030   64.7380 F   0  0  0  0  0  0  0  0  0  0  0  0
  133.5230  125.6170   63.7640 F   0  0  0  0  0  0  0  0  0  0  0  0
  131.0830  125.0300   62.0090 C   0  0  0  0  0  0  0  0  0  0  0  0
  130.7500  126.4340   62.0240 C   0  0  0  0  0  0  0  0  0  0  0  0
  131.2140  127.2990   62.9820 N   0  0  0  0  0  0  0  0  0  0  0  0
  128.4080  130.1860   58.2810 C   0  0  0  0  0  0  0  0  0  0  0  0
  127.9960  130.3860   56.9530 C   0  0  0  0  0  0  0  0  0  0  0  0
  126.8570  129.8240   56.4060 O   0  0  0  0  0  0  0  0  0  0  0  0
  125.7650  129.4900   57.2550 C   0  0  0  0  0  0  0  0  0  0  0  0
  128.7740  131.2020   56.1190 C   0  0  0  0  0  0  0  0  0  0  0  0
  128.3910  131.3940   54.8140 O   0  0  0  0  0  0  0  0  0  0  0  0
  129.1290  130.6250   53.8740 C   0  0  0  0  0  0  0  0  0  0  0  0
  1  2  1  0
  2  3  1  0
  3  4  2  0
  4  5  1  0
  5  6  1  0
  6  7  1  0
  7  8  1  0
  8  9  2  0
  8 10  1  0
 10 11  1  0
 11 12  1  0
 12 13  2  0
 13 14  1  0
 14 15  1  0
 15 16  2  0
 16 17  1  0
 17 18  2  0
 18 19  1  0
 19 20  2  0
 14 21  2  0
 21 22  1  0
 22 23  1  0
 23 24  1  0
 23 25  1  0
 23 26  1  0
 22 27  2  0
 27 28  1  0
 28 29  1  0
  5 30  2  0
 30 31  1  0
 31 32  1  0
 32 33  1  0
 31 34  2  0
 34 35  1  0
 35 36  1  0
 34  3  1  0
 28 10  2  0
 27 12  1  0
 20 15  1  0
M  END
>  <Binding energies>  (57) 
[-7.58]

>  <Ligand effiencies>  (57) 
[-0.19435897435897437]

>  <Interactions>  (57) 
["V-A:GLU:543:CD:4908, V-A:TYR:539:CZ:4877, H-A:ASP:366:OD2:3214, H-A:GLU:543:OE1:4909, V-A:ILE:538:CA:4860, V-A:PRO:540:CD:4887, V-A:ILE:538:CG2:4863, V-A:ILE:538:CB:4862, V-A:TYR:539:CE1:4875, V-A:PRO:540:CA:4883, V-A:TYR:539:C:4867, H-A:GLU:543:OE2:4910, V-A:PRO:540:N:4884, V-A:LEU:363:CD1:3188, V-B:ALA:541:CB:9864, H-B:TYR:531:OH:9767, V-B:TYR:539:CD2:9846, V-A:TYR:539:CD1:4873, V-B:TYR:539:CE2:9848, V-B:TYR:531:CZ:9766, H-A:TYR:539:OH:4878, H-B:LYS:534:NZ:9795, V-B:TYR:531:CE1:9764, H-A:TYR:539:N:4870, V-A:LEU:475:CD1:4257, V-A:ARG:545:CZ:4926, V-A:TYR:484:CZ:4346, V-A:ILE:369:CG2:3236, V-A:GLY:454:CA:4048, V-B:LYS:534:CE:9794, V-A:PRO:482:CG:4326, V-A:PRO:482:CB:4325"]

$$$$
4cj_Grossjean_2025
     RDKit          3D

 28 31  0  0  0  0  0  0  0  0999 V2000
  128.8720  128.9650   63.2490 N   0  0  0  0  0  0  0  0  0  0  0  0
  127.8740  129.8720   63.5030 C   0  0  0  0  0  0  0  0  0  0  0  0
  126.9940  129.7620   64.5920 C   0  0  0  0  0  0  0  0  0  0  0  0
  126.9510  128.7300   65.6310 C   0  0  0  0  0  0  0  0  0  0  0  0
  125.8730  128.3020   66.0510 O   0  0  0  0  0  0  0  0  0  0  0  0
  128.1580  128.3100   66.0850 N   0  0  0  0  0  0  0  0  0  0  0  0
  128.3940  127.3500   67.0590 C   0  0  0  0  0  0  0  0  0  0  0  0
  127.7760  127.2000   68.2110 N   0  0  0  0  0  0  0  0  0  0  0  0
  128.2580  126.1780   68.8900 C   0  0  0  0  0  0  0  0  0  0  0  0
  129.2920  125.4700   68.2860 C   0  0  0  0  0  0  0  0  0  0  0  0
  129.6460  126.1910   66.7430 S   0  0  0  0  0  0  0  0  0  0  0  0
  125.8490  131.1010   64.6230 S   0  0  0  0  0  0  0  0  0  0  0  0
  126.5540  131.7950   63.1820 C   0  0  0  0  0  0  0  0  0  0  0  0
  126.0890  132.9250   62.6570 N   0  0  0  0  0  0  0  0  0  0  0  0
  126.7050  133.3930   61.5410 C   0  0  0  0  0  0  0  0  0  0  0  0
  126.1630  134.6770   60.9810 C   0  0  0  0  0  0  0  0  0  0  0  0
  126.9200  135.8590   61.0320 C   0  0  0  0  0  0  0  0  0  0  0  0
  126.4220  137.0540   60.5200 C   0  0  0  0  0  0  0  0  0  0  0  0
  125.1520  137.0850   59.9510 C   0  0  0  0  0  0  0  0  0  0  0  0
  124.3810  135.9300   59.8900 C   0  0  0  0  0  0  0  0  0  0  0  0
  124.8840  134.7370   60.4020 C   0  0  0  0  0  0  0  0  0  0  0  0
  127.7700  132.7100   60.9440 C   0  0  0  0  0  0  0  0  0  0  0  0
  128.2680  131.5160   61.4890 C   0  0  0  0  0  0  0  0  0  0  0  0
  129.4400  130.8210   60.7860 C   0  0  0  0  0  0  0  0  0  0  0  0
  129.8440  131.4590   59.6860 F   0  0  0  0  0  0  0  0  0  0  0  0
  130.4820  130.7500   61.6130 F   0  0  0  0  0  0  0  0  0  0  0  0
  129.0820  129.5880   60.4240 F   0  0  0  0  0  0  0  0  0  0  0  0
  127.6410  131.0270   62.6710 C   0  0  0  0  0  0  0  0  0  0  0  0
  1  2  1  0
  2  3  2  0
  3  4  1  0
  4  5  2  0
  4  6  1  0
  6  7  1  0
  7  8  2  0
  8  9  1  0
  9 10  2  0
 10 11  1  0
  3 12  1  0
 12 13  1  0
 13 14  2  0
 14 15  1  0
 15 16  1  0
 16 17  2  0
 17 18  1  0
 18 19  2  0
 19 20  1  0
 20 21  2  0
 15 22  2  0
 22 23  1  0
 23 24  1  0
 24 25  1  0
 24 26  1  0
 24 27  1  0
 23 28  2  0
 28  2  1  0
 11  7  1  0
 28 13  1  0
 21 16  1  0
M  END
>  <Binding energies>  (58) 
[-7.16]

>  <Ligand effiencies>  (58) 
[-0.2309677419354839]

>  <Interactions>  (58) 
["V-A:GLU:543:CD:4908, H-A:GLU:543:OE1:4909, V-A:TYR:539:CE1:4875, V-A:PRO:540:CA:4883, H-A:GLU:543:OE2:4910, V-A:TYR:539:CD1:4873, H-B:ARG:545:NH2:9900, V-A:GLU:543:CG:4907, V-B:ILE:369:CG2:8208, V-B:LEU:475:CD1:9229, V-A:ALA:541:CB:4892, V-B:HIS:456:CE1:9041, V-A:TYR:484:CE2:4345, V-B:GLU:543:CB:9878, V-A:HIS:456:CE1:4069, H-B:ARG:545:NE:9896, V-A:TYR:539:CB:4871, V-B:SER:385:CB:8380, V-B:LEU:373:CD1:8251, V-B:PRO:482:CG:9298, V-B:PRO:482:CB:9297, V-B:GLU:543:C:9874, V-B:GLU:543:CA:9876"]

$$$$
4ck_Grossjean_2025
     RDKit          3D

 33 35  0  0  0  0  0  0  0  0999 V2000
  133.4020  130.4980   58.4620 C   0  0  0  0  0  0  0  0  0  0  0  0
  133.0630  131.5830   57.6110 O   0  0  0  0  0  0  0  0  0  0  0  0
  132.0770  131.2550   56.6430 C   0  0  0  0  0  0  0  0  0  0  0  0
  130.7020  131.7000   57.1570 C   0  0  0  0  0  0  0  0  0  0  0  0
  130.1000  132.5530   56.1930 O   0  0  0  0  0  0  0  0  0  0  0  0
  129.8530  131.9150   54.9470 C   0  0  0  0  0  0  0  0  0  0  0  0
  128.3790  132.1100   54.5660 C   0  0  0  0  0  0  0  0  0  0  0  0
  127.7820  130.8340   54.3790 O   0  0  0  0  0  0  0  0  0  0  0  0
  128.1590  129.8740   55.3580 C   0  0  0  0  0  0  0  0  0  0  0  0
  128.6490  128.5940   54.6630 C   0  0  0  0  0  0  0  0  0  0  0  0
  128.7480  127.4670   55.5910 N   0  0  0  0  0  0  0  0  0  0  0  0
  129.7280  127.2760   56.5000 C   0  0  0  0  0  0  0  0  0  0  0  0
  130.6520  128.0740   56.6600 O   0  0  0  0  0  0  0  0  0  0  0  0
  129.6250  126.0570   57.3030 C   0  0  0  0  0  0  0  0  0  0  0  0
  131.0400  125.0360   57.5450 S   0  0  0  0  0  0  0  0  0  0  0  0
  130.1330  123.9480   58.5690 C   0  0  0  0  0  0  0  0  0  0  0  0
  130.6980  122.8750   59.1160 N   0  0  0  0  0  0  0  0  0  0  0  0
  129.9130  122.0870   59.8960 C   0  0  0  0  0  0  0  0  0  0  0  0
  130.5860  120.8950   60.5140 C   0  0  0  0  0  0  0  0  0  0  0  0
  131.9390  120.6200   60.2570 C   0  0  0  0  0  0  0  0  0  0  0  0
  132.5690  119.5140   60.8250 C   0  0  0  0  0  0  0  0  0  0  0  0
  131.8510  118.6660   61.6620 C   0  0  0  0  0  0  0  0  0  0  0  0
  130.5110  118.9180   61.9370 C   0  0  0  0  0  0  0  0  0  0  0  0
  129.8860  120.0250   61.3680 C   0  0  0  0  0  0  0  0  0  0  0  0
  128.5670  122.3850   60.1290 C   0  0  0  0  0  0  0  0  0  0  0  0
  127.9600  123.5130   59.5560 C   0  0  0  0  0  0  0  0  0  0  0  0
  126.4780  123.7780   59.8500 C   0  0  0  0  0  0  0  0  0  0  0  0
  125.7130  123.7450   58.7570 F   0  0  0  0  0  0  0  0  0  0  0  0
  126.0130  122.8550   60.6910 F   0  0  0  0  0  0  0  0  0  0  0  0
  126.3370  124.9850   60.3990 F   0  0  0  0  0  0  0  0  0  0  0  0
  128.7730  124.3450   58.7340 C   0  0  0  0  0  0  0  0  0  0  0  0
  128.5130  125.5620   58.0030 C   0  0  0  0  0  0  0  0  0  0  0  0
  127.2870  126.1750   57.9920 N   0  0  0  0  0  0  0  0  0  0  0  0
  1  2  1  0
  2  3  1  0
  3  4  1  0
  4  5  1  0
  5  6  1  0
  6  7  1  0
  7  8  1  0
  8  9  1  0
  9 10  1  0
 10 11  1  0
 11 12  1  0
 12 13  2  0
 12 14  1  0
 14 15  1  0
 15 16  1  0
 16 17  2  0
 17 18  1  0
 18 19  1  0
 19 20  2  0
 20 21  1  0
 21 22  2  0
 22 23  1  0
 23 24  2  0
 18 25  2  0
 25 26  1  0
 26 27  1  0
 27 28  1  0
 27 29  1  0
 27 30  1  0
 26 31  2  0
 31 32  1  0
 32 33  1  0
 32 14  2  0
 31 16  1  0
 24 19  1  0
M  END
>  <Binding energies>  (59) 
[-7.16]

>  <Ligand effiencies>  (59) 
[-0.1988888888888889]

>  <Interactions>  (59) 
["V-A:TYR:539:CZ:4877, V-A:ASP:366:CB:3211, V-A:ILE:538:CA:4860, V-A:ILE:538:CG2:4863, V-A:ILE:538:CB:4862, V-A:TYR:539:CE1:4875, V-A:TYR:539:CE2:4876, V-A:PRO:540:CB:4885, V-A:PRO:540:CA:4883, V-A:ASP:366:CG:3212, V-A:PRO:540:N:4884, V-A:LEU:363:CD1:3188, V-A:TYR:539:CD2:4874, H-A:TYR:531:OH:4795, V-B:PRO:540:CB:9857, V-B:TYR:539:CZ:9849, V-B:ALA:541:CB:9864, H-B:TYR:531:OH:9767, V-B:TYR:539:CD2:9846, V-A:TYR:539:CD1:4873, V-B:PRO:540:C:9853, V-B:TYR:539:CE2:9848, V-B:PRO:540:CA:9855, V-B:ALA:541:CA:9862, H-B:ASP:366:OD1:8185, H-A:TYR:539:OH:4878, H-B:LYS:534:NZ:9795, H-A:TYR:539:N:4870, V-A:LEU:475:CD1:4257, V-A:LEU:363:CA:3184, H-B:MET:535:SD:9806, V-A:PRO:482:CG:4326, V-A:PRO:482:CB:4325"]

$$$$
4dd_Grossjean_2025
     RDKit          3D

 26 29  0  0  0  0  0  0  0  0999 V2000
  123.3500  130.2930   62.8620 C   0  0  0  0  0  0  0  0  0  0  0  0
  124.5210  131.2560   62.9880 C   0  0  0  0  0  0  0  0  0  0  0  0
  124.5230  132.4020   62.1830 C   0  0  0  0  0  0  0  0  0  0  0  0
  125.5710  133.3280   62.2520 C   0  0  0  0  0  0  0  0  0  0  0  0
  125.6020  134.5610   61.3980 C   0  0  0  0  0  0  0  0  0  0  0  0
  124.4940  134.9210   60.6140 C   0  0  0  0  0  0  0  0  0  0  0  0
  124.5140  136.0660   59.8210 C   0  0  0  0  0  0  0  0  0  0  0  0
  125.6490  136.8690   59.8000 C   0  0  0  0  0  0  0  0  0  0  0  0
  126.7600  136.5370   60.5680 C   0  0  0  0  0  0  0  0  0  0  0  0
  126.7350  135.3930   61.3610 C   0  0  0  0  0  0  0  0  0  0  0  0
  126.6320  133.1520   63.0860 N   0  0  0  0  0  0  0  0  0  0  0  0
  126.6280  132.0660   63.8570 C   0  0  0  0  0  0  0  0  0  0  0  0
  127.9190  131.7250   64.9880 S   0  0  0  0  0  0  0  0  0  0  0  0
  127.1300  130.2360   65.5130 C   0  0  0  0  0  0  0  0  0  0  0  0
  127.7380  129.4020   66.5520 C   0  0  0  0  0  0  0  0  0  0  0  0
  128.1360  129.9020   67.6050 O   0  0  0  0  0  0  0  0  0  0  0  0
  127.8130  128.0800   66.2640 N   0  0  0  0  0  0  0  0  0  0  0  0
  128.3800  127.0310   67.0110 C   0  0  0  0  0  0  0  0  0  0  0  0
  127.9600  126.9320   68.3410 C   0  0  0  0  0  0  0  0  0  0  0  0
  128.4520  125.9180   69.1590 C   0  0  0  0  0  0  0  0  0  0  0  0
  129.3600  124.9960   68.6440 C   0  0  0  0  0  0  0  0  0  0  0  0
  129.7770  125.0760   67.3180 C   0  0  0  0  0  0  0  0  0  0  0  0
  129.2870  126.0880   66.4980 C   0  0  0  0  0  0  0  0  0  0  0  0
  125.9250  130.0320   64.8230 C   0  0  0  0  0  0  0  0  0  0  0  0
  125.1030  128.9510   65.0240 N   0  0  0  0  0  0  0  0  0  0  0  0
  125.6140  131.0670   63.8720 C   0  0  0  0  0  0  0  0  0  0  0  0
  1  2  1  0
  2  3  2  0
  3  4  1  0
  4  5  1  0
  5  6  2  0
  6  7  1  0
  7  8  2  0
  8  9  1  0
  9 10  2  0
  4 11  2  0
 11 12  1  0
 12 13  1  0
 13 14  1  0
 14 15  1  0
 15 16  2  0
 15 17  1  0
 17 18  1  0
 18 19  2  0
 19 20  1  0
 20 21  2  0
 21 22  1  0
 22 23  2  0
 14 24  2  0
 24 25  1  0
 24 26  1  0
 26  2  1  0
 10  5  1  0
 26 12  2  0
 23 18  1  0
M  END
>  <Binding energies>  (60) 
[-8.05]

>  <Ligand effiencies>  (60) 
[-0.2775862068965517]

>  <Interactions>  (60) 
["V-A:GLU:543:CD:4908, H-A:GLU:543:OE1:4909, V-B:ASP:366:CG:8184, V-B:GLU:543:CD:9880, V-A:TYR:539:CD1:4873, V-B:GLU:543:CG:9879, H-B:GLU:543:OE2:9882, V-A:GLU:543:CG:4907, V-A:TYR:539:CG:4872, V-B:ILE:369:CG2:8208, V-B:LEU:475:CD1:9229, V-A:ALA:541:CB:4892, V-B:GLY:454:CA:9020, V-B:ARG:545:CZ:9898, V-B:HIS:456:CE1:9041, V-B:TYR:484:CE2:9317, V-B:ILE:369:CD1:8210, V-A:TYR:484:CE2:4345, V-B:GLU:543:CB:9878, H-B:TYR:484:OH:9319, V-A:HIS:456:CE1:4069, V-A:TYR:484:CZ:4346, V-B:GLY:453:C:9013, V-B:GLY:453:CA:9015, V-A:TYR:539:CB:4871, V-B:SER:385:CB:8380, V-B:LEU:373:CD1:8251, V-B:PRO:482:CG:9298, V-B:PRO:482:CB:9297, V-B:GLU:543:C:9874, V-A:TYR:484:CD2:4343, V-B:GLU:543:CA:9876"]

$$$$
4dg_Grossjean_2025
     RDKit          3D

 27 30  0  0  0  0  0  0  0  0999 V2000
  123.4300  129.9260   63.2280 C   0  0  0  0  0  0  0  0  0  0  0  0
  124.5940  130.9010   63.3200 C   0  0  0  0  0  0  0  0  0  0  0  0
  124.5730  132.0340   62.4980 C   0  0  0  0  0  0  0  0  0  0  0  0
  125.6140  132.9690   62.5350 C   0  0  0  0  0  0  0  0  0  0  0  0
  125.6180  134.1950   61.6660 C   0  0  0  0  0  0  0  0  0  0  0  0
  124.5230  134.4970   60.8400 C   0  0  0  0  0  0  0  0  0  0  0  0
  124.5240  135.6300   60.0290 C   0  0  0  0  0  0  0  0  0  0  0  0
  125.6230  136.4810   60.0330 C   0  0  0  0  0  0  0  0  0  0  0  0
  126.7240  136.2040   60.8390 C   0  0  0  0  0  0  0  0  0  0  0  0
  126.7190  135.0710   61.6460 C   0  0  0  0  0  0  0  0  0  0  0  0
  126.6740  132.8310   63.3770 N   0  0  0  0  0  0  0  0  0  0  0  0
  126.6960  131.7530   64.1600 C   0  0  0  0  0  0  0  0  0  0  0  0
  128.0020  131.4500   65.2810 S   0  0  0  0  0  0  0  0  0  0  0  0
  127.2440  129.9540   65.8270 C   0  0  0  0  0  0  0  0  0  0  0  0
  127.9070  129.1160   66.8250 C   0  0  0  0  0  0  0  0  0  0  0  0
  128.3950  129.6000   67.8480 O   0  0  0  0  0  0  0  0  0  0  0  0
  127.9810  127.8010   66.5340 N   0  0  0  0  0  0  0  0  0  0  0  0
  128.5770  126.7760   67.3910 C   0  0  0  0  0  0  0  0  0  0  0  0
  130.0060  126.4150   66.9990 C   0  0  0  0  0  0  0  0  0  0  0  0
  130.2390  125.6400   65.8590 C   0  0  0  0  0  0  0  0  0  0  0  0
  131.5430  125.3350   65.4810 C   0  0  0  0  0  0  0  0  0  0  0  0
  132.6110  125.8150   66.2370 C   0  0  0  0  0  0  0  0  0  0  0  0
  132.3870  126.6020   67.3640 C   0  0  0  0  0  0  0  0  0  0  0  0
  131.0820  126.9090   67.7420 C   0  0  0  0  0  0  0  0  0  0  0  0
  126.0420  129.7130   65.1450 C   0  0  0  0  0  0  0  0  0  0  0  0
  125.2500  128.6140   65.3600 N   0  0  0  0  0  0  0  0  0  0  0  0
  125.7000  130.7360   64.1930 C   0  0  0  0  0  0  0  0  0  0  0  0
  1  2  1  0
  2  3  2  0
  3  4  1  0
  4  5  1  0
  5  6  2  0
  6  7  1  0
  7  8  2  0
  8  9  1  0
  9 10  2  0
  4 11  2  0
 11 12  1  0
 12 13  1  0
 13 14  1  0
 14 15  1  0
 15 16  2  0
 15 17  1  0
 17 18  1  0
 18 19  1  0
 19 20  2  0
 20 21  1  0
 21 22  2  0
 22 23  1  0
 23 24  2  0
 14 25  2  0
 25 26  1  0
 25 27  1  0
 27  2  1  0
 10  5  1  0
 27 12  2  0
 24 19  1  0
M  END
>  <Binding energies>  (61) 
[-8.5]

>  <Ligand effiencies>  (61) 
[-0.2833333333333333]

>  <Interactions>  (61) 
["V-A:GLU:543:CD:4908, H-A:GLU:543:OE1:4909, V-B:ASP:366:CG:8184, V-A:TYR:539:CD1:4873, H-B:GLU:543:OE2:9882, V-A:GLU:543:CG:4907, V-A:TYR:539:CG:4872, V-B:ILE:369:CG2:8208, V-B:LEU:475:CD1:9229, V-A:ALA:541:CB:4892, V-B:GLY:454:CA:9020, V-A:GLU:543:CB:4906, V-B:ARG:545:CD:9895, V-B:ARG:545:CZ:9898, V-B:HIS:456:CE1:9041, V-B:TYR:484:CE2:9317, V-B:ILE:369:CD1:8210, V-B:GLU:543:CB:9878, V-A:HIS:456:CE1:4069, V-A:ARG:545:CZ:4926, V-A:ARG:545:CG:4922, V-B:GLY:453:C:9013, V-B:GLY:453:CA:9015, V-A:ARG:545:CD:4923, V-A:TYR:539:CB:4871, V-B:SER:385:CB:8380, V-B:LEU:373:CD1:8251, V-B:PRO:482:CG:9298, V-B:PRO:482:CB:9297"]

$$$$
4dj_Grossjean_2025
     RDKit          3D

 25 28  0  0  0  0  0  0  0  0999 V2000
  125.2610  129.2620   61.4910 C   0  0  0  0  0  0  0  0  0  0  0  0
  125.7810  130.5300   62.1520 C   0  0  0  0  0  0  0  0  0  0  0  0
  125.6180  131.7420   61.4720 C   0  0  0  0  0  0  0  0  0  0  0  0
  126.0760  132.9440   62.0250 C   0  0  0  0  0  0  0  0  0  0  0  0
  125.9110  134.2610   61.3210 C   0  0  0  0  0  0  0  0  0  0  0  0
  124.7360  134.5560   60.6100 C   0  0  0  0  0  0  0  0  0  0  0  0
  124.5760  135.7740   59.9560 C   0  0  0  0  0  0  0  0  0  0  0  0
  125.5970  136.7190   59.9990 C   0  0  0  0  0  0  0  0  0  0  0  0
  126.7730  136.4520   60.6910 C   0  0  0  0  0  0  0  0  0  0  0  0
  126.9270  135.2340   61.3450 C   0  0  0  0  0  0  0  0  0  0  0  0
  126.6780  132.9910   63.2450 N   0  0  0  0  0  0  0  0  0  0  0  0
  126.8340  131.8370   63.8930 C   0  0  0  0  0  0  0  0  0  0  0  0
  127.5990  131.7510   65.4640 S   0  0  0  0  0  0  0  0  0  0  0  0
  127.3770  130.0010   65.5280 C   0  0  0  0  0  0  0  0  0  0  0  0
  127.8500  129.2380   66.6840 C   0  0  0  0  0  0  0  0  0  0  0  0
  128.1520  129.8080   67.7350 O   0  0  0  0  0  0  0  0  0  0  0  0
  127.9320  127.8970   66.5030 N   0  0  0  0  0  0  0  0  0  0  0  0
  128.3490  126.9530   67.4310 C   0  0  0  0  0  0  0  0  0  0  0  0
  128.0470  126.8910   68.7110 N   0  0  0  0  0  0  0  0  0  0  0  0
  128.6220  125.8560   69.2940 C   0  0  0  0  0  0  0  0  0  0  0  0
  129.4110  125.0500   68.4800 C   0  0  0  0  0  0  0  0  0  0  0  0
  129.3940  125.6900   66.8640 S   0  0  0  0  0  0  0  0  0  0  0  0
  126.7410  129.5300   64.3700 C   0  0  0  0  0  0  0  0  0  0  0  0
  126.4440  128.2090   64.1460 N   0  0  0  0  0  0  0  0  0  0  0  0
  126.4170  130.5600   63.4200 C   0  0  0  0  0  0  0  0  0  0  0  0
  1  2  1  0
  2  3  2  0
  3  4  1  0
  4  5  1  0
  5  6  2  0
  6  7  1  0
  7  8  2  0
  8  9  1  0
  9 10  2  0
  4 11  2  0
 11 12  1  0
 12 13  1  0
 13 14  1  0
 14 15  1  0
 15 16  2  0
 15 17  1  0
 17 18  1  0
 18 19  2  0
 19 20  1  0
 20 21  2  0
 21 22  1  0
 14 23  2  0
 23 24  1  0
 23 25  1  0
 25  2  1  0
 10  5  1  0
 25 12  2  0
 22 18  1  0
M  END
>  <Binding energies>  (62) 
[-7.81]

>  <Ligand effiencies>  (62) 
[-0.2789285714285714]

>  <Interactions>  (62) 
["V-A:GLU:543:CD:4908, H-A:GLU:543:OE1:4909, V-B:ASP:366:CG:8184, V-B:GLU:543:CD:9880, V-B:ASP:366:CB:8183, V-A:TYR:539:CD1:4873, V-B:GLU:543:CG:9879, H-B:GLU:543:OE2:9882, H-B:GLU:543:OE1:9881, V-A:GLU:543:CG:4907, V-A:TYR:539:CG:4872, V-B:ILE:369:CG2:8208, V-B:LEU:475:CD1:9229, V-A:ALA:541:CB:4892, V-A:GLU:543:CB:4906, V-B:ARG:545:CZ:9898, V-B:HIS:456:CE1:9041, V-B:TYR:484:CE2:9317, V-B:TYR:484:CZ:9318, V-A:TYR:484:CE2:4345, V-B:GLU:543:CB:9878, H-B:TYR:484:OH:9319, V-A:HIS:456:CE1:4069, V-A:TYR:484:CZ:4346, V-A:TYR:539:CB:4871, V-B:SER:385:CB:8380, V-B:LEU:373:CD1:8251, V-B:PRO:482:CG:9298, V-B:PRO:482:CB:9297, V-B:GLU:543:C:9874, V-A:TYR:484:CD2:4343, V-B:GLU:543:CA:9876"]

$$$$
4ea_Grossjean_2025
     RDKit          3D

 31 34  0  0  0  0  0  0  0  0999 V2000
  124.0670  124.0230   58.7780 C   0  0  0  0  0  0  0  0  0  0  0  0
  124.9680  124.4620   57.6190 C   0  0  0  0  0  0  0  0  0  0  0  0
  125.2030  123.3560   56.7590 O   0  0  0  0  0  0  0  0  0  0  0  0
  126.3360  122.6140   56.8620 C   0  0  0  0  0  0  0  0  0  0  0  0
  126.5900  121.6540   56.1270 O   0  0  0  0  0  0  0  0  0  0  0  0
  127.2500  123.0770   57.9590 C   0  0  0  0  0  0  0  0  0  0  0  0
  126.9060  122.8140   59.2920 C   0  0  0  0  0  0  0  0  0  0  0  0
  127.7310  123.2310   60.3320 C   0  0  0  0  0  0  0  0  0  0  0  0
  128.9170  123.9170   60.0640 C   0  0  0  0  0  0  0  0  0  0  0  0
  129.6710  124.2880   61.1930 N   0  0  0  0  0  0  0  0  0  0  0  0
  129.4490  125.2520   62.1210 C   0  0  0  0  0  0  0  0  0  0  0  0
  128.4770  126.0080   62.1150 O   0  0  0  0  0  0  0  0  0  0  0  0
  130.4640  125.3530   63.1720 C   0  0  0  0  0  0  0  0  0  0  0  0
  132.1550  124.9860   62.8200 S   0  0  0  0  0  0  0  0  0  0  0  0
  132.6230  125.3280   64.4690 C   0  0  0  0  0  0  0  0  0  0  0  0
  133.8890  125.2250   64.8780 N   0  0  0  0  0  0  0  0  0  0  0  0
  134.1200  125.5180   66.1820 C   0  0  0  0  0  0  0  0  0  0  0  0
  135.5660  125.3940   66.6250 C   0  0  0  0  0  0  0  0  0  0  0  0
  133.1250  125.9080   67.0760 C   0  0  0  0  0  0  0  0  0  0  0  0
  131.8000  126.0150   66.6430 C   0  0  0  0  0  0  0  0  0  0  0  0
  130.7540  126.4300   67.6050 C   0  0  0  0  0  0  0  0  0  0  0  0
  130.7520  127.7290   68.1240 C   0  0  0  0  0  0  0  0  0  0  0  0
  129.7680  128.1210   69.0270 C   0  0  0  0  0  0  0  0  0  0  0  0
  128.7870  127.2120   69.4150 C   0  0  0  0  0  0  0  0  0  0  0  0
  128.7820  125.9140   68.9080 C   0  0  0  0  0  0  0  0  0  0  0  0
  129.7670  125.5240   68.0050 C   0  0  0  0  0  0  0  0  0  0  0  0
  131.5150  125.7160   65.2820 C   0  0  0  0  0  0  0  0  0  0  0  0
  130.2960  125.7210   64.5160 C   0  0  0  0  0  0  0  0  0  0  0  0
  129.0870  126.0590   65.0690 N   0  0  0  0  0  0  0  0  0  0  0  0
  129.2700  124.1840   58.7320 C   0  0  0  0  0  0  0  0  0  0  0  0
  128.4430  123.7670   57.6930 C   0  0  0  0  0  0  0  0  0  0  0  0
  1  2  1  0
  2  3  1  0
  3  4  1  0
  4  5  2  0
  4  6  1  0
  6  7  2  0
  7  8  1  0
  8  9  2  0
  9 10  1  0
 10 11  1  0
 11 12  2  0
 11 13  1  0
 13 14  1  0
 14 15  1  0
 15 16  2  0
 16 17  1  0
 17 18  1  0
 17 19  2  0
 19 20  1  0
 20 21  1  0
 21 22  2  0
 22 23  1  0
 23 24  2  0
 24 25  1  0
 25 26  2  0
 20 27  2  0
 27 28  1  0
 28 29  1  0
  9 30  1  0
 30 31  2  0
 31  6  1  0
 28 13  2  0
 27 15  1  0
 26 21  1  0
M  END
>  <Binding energies>  (63) 
[-9.15]

>  <Ligand effiencies>  (63) 
[-0.2691176470588235]

>  <Interactions>  (63) 
["V-A:GLU:543:CD:4908, H-A:GLU:543:OE1:4909, V-B:ASP:366:CG:8184, V-B:PRO:540:CB:9857, H-B:TYR:531:OH:9767, V-B:GLU:543:CD:9880, V-B:ASP:366:CB:8183, V-B:PRO:540:N:9856, V-B:LEU:363:CD1:8160, H-B:TYR:539:N:9842, V-B:PRO:540:CA:9855, V-B:MET:535:CE:9807, V-B:GLU:543:CG:9879, V-B:TYR:531:CE2:9765, H-B:GLU:543:OE2:9882, H-B:GLU:543:OE1:9881, V-B:TYR:531:CZ:9766, V-A:GLU:543:CB:4906, V-B:HIS:456:CE1:9041, V-A:TYR:484:CE2:4345, V-A:GLU:543:C:4902, V-B:GLU:543:CB:9878, V-A:GLY:453:C:4041, H-A:ARG:545:NH2:4928, V-A:GLY:453:CA:4043, V-A:HIS:456:CE1:4069, H-A:ARG:545:NH1:4927, H-A:ARG:545:NE:4924, H-A:GLY:454:N:4049, V-A:ARG:545:CZ:4926, H-A:TYR:484:OH:4347, V-A:ARG:545:CG:4922, V-A:TYR:484:CZ:4346, V-A:ARG:545:CD:4923, V-B:LEU:363:CA:8156, V-B:LEU:363:CB:8158, V-A:GLY:454:CA:4048, V-A:ILE:455:C:4051, V-B:GLU:543:C:9874, V-A:GLY:454:C:4046, V-A:ILE:455:CA:4053"]

$$$$
4eb_Grossjean_2025
     RDKit          3D

 30 33  0  0  0  0  0  0  0  0999 V2000
  124.7720  124.2870   57.3610 C   0  0  0  0  0  0  0  0  0  0  0  0
  125.4570  123.3990   56.4900 O   0  0  0  0  0  0  0  0  0  0  0  0
  126.2970  122.4490   56.9800 C   0  0  0  0  0  0  0  0  0  0  0  0
  126.4090  121.3230   56.4890 O   0  0  0  0  0  0  0  0  0  0  0  0
  127.0770  122.9090   58.1780 C   0  0  0  0  0  0  0  0  0  0  0  0
  128.4650  123.0700   58.0700 C   0  0  0  0  0  0  0  0  0  0  0  0
  129.2150  123.4940   59.1620 C   0  0  0  0  0  0  0  0  0  0  0  0
  128.5970  123.7660   60.3830 C   0  0  0  0  0  0  0  0  0  0  0  0
  129.4550  124.1880   61.4180 N   0  0  0  0  0  0  0  0  0  0  0  0
  129.6700  125.4240   61.9310 C   0  0  0  0  0  0  0  0  0  0  0  0
  129.1020  126.4450   61.5410 O   0  0  0  0  0  0  0  0  0  0  0  0
  130.6500  125.4880   63.0180 C   0  0  0  0  0  0  0  0  0  0  0  0
  132.3520  125.1420   62.7060 S   0  0  0  0  0  0  0  0  0  0  0  0
  132.7660  125.4220   64.3820 C   0  0  0  0  0  0  0  0  0  0  0  0
  134.0190  125.3080   64.8270 N   0  0  0  0  0  0  0  0  0  0  0  0
  134.2070  125.5510   66.1460 C   0  0  0  0  0  0  0  0  0  0  0  0
  135.6390  125.4150   66.6310 C   0  0  0  0  0  0  0  0  0  0  0  0
  133.1830  125.9020   67.0240 C   0  0  0  0  0  0  0  0  0  0  0  0
  131.8700  126.0200   66.5520 C   0  0  0  0  0  0  0  0  0  0  0  0
  130.7920  126.3940   67.4960 C   0  0  0  0  0  0  0  0  0  0  0  0
  129.8000  125.4680   67.8320 C   0  0  0  0  0  0  0  0  0  0  0  0
  128.7870  125.8180   68.7210 C   0  0  0  0  0  0  0  0  0  0  0  0
  128.7650  127.0970   69.2730 C   0  0  0  0  0  0  0  0  0  0  0  0
  129.7480  128.0280   68.9430 C   0  0  0  0  0  0  0  0  0  0  0  0
  130.7600  127.6760   68.0540 C   0  0  0  0  0  0  0  0  0  0  0  0
  131.6320  125.7730   65.1730 C   0  0  0  0  0  0  0  0  0  0  0  0
  130.4380  125.8030   64.3690 C   0  0  0  0  0  0  0  0  0  0  0  0
  129.2090  126.1150   64.8950 N   0  0  0  0  0  0  0  0  0  0  0  0
  127.2080  123.6080   60.5010 C   0  0  0  0  0  0  0  0  0  0  0  0
  126.4590  123.1830   59.4080 C   0  0  0  0  0  0  0  0  0  0  0  0
  1  2  1  0
  2  3  1  0
  3  4  2  0
  3  5  1  0
  5  6  2  0
  6  7  1  0
  7  8  2  0
  8  9  1  0
  9 10  1  0
 10 11  2  0
 10 12  1  0
 12 13  1  0
 13 14  1  0
 14 15  2  0
 15 16  1  0
 16 17  1  0
 16 18  2  0
 18 19  1  0
 19 20  1  0
 20 21  2  0
 21 22  1  0
 22 23  2  0
 23 24  1  0
 24 25  2  0
 19 26  2  0
 26 27  1  0
 27 28  1  0
  8 29  1  0
 29 30  2  0
 30  5  1  0
 27 12  2  0
 26 14  1  0
 25 20  1  0
M  END
>  <Binding energies>  (64) 
[-8.95]

>  <Ligand effiencies>  (64) 
[-0.2712121212121212]

>  <Interactions>  (64) 
["V-A:GLU:543:CD:4908, H-A:GLU:543:OE1:4909, V-B:PRO:540:CB:9857, H-B:TYR:531:OH:9767, V-B:GLU:543:CD:9880, V-B:PRO:540:N:9856, V-B:LEU:363:CD1:8160, V-B:PRO:540:CD:9859, V-B:TYR:539:CE2:9848, H-B:TYR:539:N:9842, V-B:PRO:540:CA:9855, V-B:MET:535:CE:9807, V-B:GLU:543:CG:9879, V-B:TYR:531:CE2:9765, H-B:GLU:543:OE2:9882, H-B:GLU:543:OE1:9881, V-B:TYR:531:CZ:9766, V-A:GLU:543:CB:4906, V-B:HIS:456:CE1:9041, V-A:TYR:484:CE2:4345, V-A:GLU:543:C:4902, V-B:GLU:543:CB:9878, V-A:GLY:453:C:4041, H-A:ARG:545:NH2:4928, V-A:GLY:453:CA:4043, V-A:HIS:456:CE1:4069, H-A:ARG:545:NH1:4927, H-A:ARG:545:NE:4924, H-A:GLY:454:N:4049, V-A:ARG:545:CZ:4926, H-A:TYR:484:OH:4347, V-A:ARG:545:CG:4922, V-A:TYR:484:CZ:4346, V-A:ARG:545:CD:4923, V-B:TYR:539:C:9839, V-A:GLY:454:CA:4048, V-A:ILE:455:C:4051, V-B:GLU:543:C:9874, V-A:GLY:454:C:4046, V-B:GLU:543:CA:9876, V-A:ARG:545:CB:4921, V-A:ILE:455:CA:4053, V-A:VAL:452:CG2:4039, V-A:VAL:452:C:4033"]

$$$$
8b_Ghoteimi_2023
     RDKit          3D

 34 38  0  0  0  0  0  0  0  0999 V2000
  124.8620  122.0610   54.6160 C   0  0  0  0  0  0  0  0  0  0  0  0
  125.6980  121.3720   55.5400 O   0  0  0  0  0  0  0  0  0  0  0  0
  126.1980  122.0540   56.6330 C   0  0  0  0  0  0  0  0  0  0  0  0
  125.2890  122.8170   57.3610 C   0  0  0  0  0  0  0  0  0  0  0  0
  125.7030  123.5390   58.4760 C   0  0  0  0  0  0  0  0  0  0  0  0
  127.0420  123.5150   58.8930 C   0  0  0  0  0  0  0  0  0  0  0  0
  127.4930  124.2900   60.0900 C   0  0  0  0  0  0  0  0  0  0  0  0
  126.9500  125.5400   60.4070 C   0  0  0  0  0  0  0  0  0  0  0  0
  127.3890  126.2440   61.5320 C   0  0  0  0  0  0  0  0  0  0  0  0
  126.7990  127.5690   61.8340 C   0  0  0  0  0  0  0  0  0  0  0  0
  126.6510  128.5190   60.8220 C   0  0  0  0  0  0  0  0  0  0  0  0
  126.0880  129.7610   61.1060 C   0  0  0  0  0  0  0  0  0  0  0  0
  125.6690  130.0710   62.4000 C   0  0  0  0  0  0  0  0  0  0  0  0
  125.1200  131.3260   62.5870 O   0  0  0  0  0  0  0  0  0  0  0  0
  124.5470  132.0060   61.4760 C   0  0  0  0  0  0  0  0  0  0  0  0
  125.8230  129.1150   63.4160 C   0  0  0  0  0  0  0  0  0  0  0  0
  126.3850  127.8740   63.1310 C   0  0  0  0  0  0  0  0  0  0  0  0
  128.3930  125.6500   62.3430 C   0  0  0  0  0  0  0  0  0  0  0  0
  129.0560  126.0790   63.5460 C   0  0  0  0  0  0  0  0  0  0  0  0
  128.7730  127.2750   64.1540 N   0  0  0  0  0  0  0  0  0  0  0  0
  130.0060  125.1640   64.0290 C   0  0  0  0  0  0  0  0  0  0  0  0
  130.8530  125.2730   65.2180 C   0  0  0  0  0  0  0  0  0  0  0  0
  130.3530  125.3220   66.3450 O   0  0  0  0  0  0  0  0  0  0  0  0
  132.1880  125.3160   64.9790 N   0  0  0  0  0  0  0  0  0  0  0  0
  133.2110  125.4120   65.9130 C   0  0  0  0  0  0  0  0  0  0  0  0
  132.9990  125.7840   67.2390 C   0  0  0  0  0  0  0  0  0  0  0  0
  134.2460  125.7630   67.8210 C   0  0  0  0  0  0  0  0  0  0  0  0
  135.1610  125.3960   66.8940 O   0  0  0  0  0  0  0  0  0  0  0  0
  134.4940  125.1740   65.6880 N   0  0  0  0  0  0  0  0  0  0  0  0
  130.0980  123.7370   62.9950 S   0  0  0  0  0  0  0  0  0  0  0  0
  128.8690  124.3730   61.9270 C   0  0  0  0  0  0  0  0  0  0  0  0
  128.4530  123.7030   60.8530 N   0  0  0  0  0  0  0  0  0  0  0  0
  127.9510  122.7430   58.1580 C   0  0  0  0  0  0  0  0  0  0  0  0
  127.5400  122.0210   57.0410 C   0  0  0  0  0  0  0  0  0  0  0  0
  1  2  1  0
  2  3  1  0
  3  4  2  0
  4  5  1  0
  5  6  2  0
  6  7  1  0
  7  8  2  0
  8  9  1  0
  9 10  1  0
 10 11  2  0
 11 12  1  0
 12 13  2  0
 13 14  1  0
 14 15  1  0
 13 16  1  0
 16 17  2  0
  9 18  2  0
 18 19  1  0
 19 20  1  0
 19 21  2  0
 21 22  1  0
 22 23  2  0
 22 24  1  0
 24 25  1  0
 25 26  1  0
 26 27  2  0
 27 28  1  0
 28 29  1  0
 21 30  1  0
 30 31  1  0
 31 32  2  0
  6 33  1  0
 33 34  2  0
 34  3  1  0
 32  7  1  0
 17 10  1  0
 31 18  1  0
 29 25  2  0
M  END
>  <Binding energies>  (65) 
[-8.38]

>  <Ligand effiencies>  (65) 
[-0.2264864864864865]

>  <Interactions>  (65) 
["V-A:GLU:543:CD:4908, H-A:GLU:543:OE1:4909, H-A:GLU:543:OE2:4910, V-B:ASP:366:CG:8184, V-B:PRO:540:CB:9857, V-B:GLU:543:CD:9880, V-B:PRO:540:N:9856, V-B:ILE:538:CG2:9835, V-B:LEU:363:CD1:8160, V-B:PRO:540:CD:9859, H-B:TYR:539:N:9842, V-B:PRO:540:CA:9855, V-B:MET:535:CE:9807, V-B:TYR:531:CE2:9765, H-B:GLU:543:OE2:9882, V-B:ILE:369:CG2:8208, V-B:ARG:545:CZ:9898, V-B:ILE:369:CD1:8210, V-A:HIS:456:CE1:4069, H-A:ARG:545:NH1:4927, H-A:ARG:545:NE:4924, H-A:GLY:454:N:4049, V-A:ARG:545:CZ:4926, H-A:TYR:484:OH:4347, V-A:ARG:545:CG:4922, V-A:TYR:484:CZ:4346, V-A:ARG:545:CD:4923, V-B:TYR:539:C:9839, V-A:ILE:455:C:4051, V-B:TYR:539:CA:9841, V-B:TYR:539:CG:9844, V-B:TYR:539:CD1:9845, H-A:ILE:455:N:4054, V-B:ILE:538:CA:9832, V-B:ILE:538:CB:9834, V-B:ILE:538:CG1:9836, V-B:MET:535:CG:9805, V-B:MET:535:CB:9804, V-A:ARG:545:CB:4921"]

$$$$
9d_Ghoteimi_2023
     RDKit          3D

 38 43  0  0  0  0  0  0  0  0999 V2000
  129.7080  128.0600   68.6080 C   0  0  0  0  0  0  0  0  0  0  0  0
  128.8230  128.8110   67.7900 O   0  0  0  0  0  0  0  0  0  0  0  0
  128.0060  128.1930   66.8970 C   0  0  0  0  0  0  0  0  0  0  0  0
  127.5790  127.0440   67.0340 O   0  0  0  0  0  0  0  0  0  0  0  0
  127.6820  129.0420   65.7290 C   0  0  0  0  0  0  0  0  0  0  0  0
  127.3640  130.7620   65.9550 S   0  0  0  0  0  0  0  0  0  0  0  0
  127.1250  130.9840   64.2380 C   0  0  0  0  0  0  0  0  0  0  0  0
  126.8610  132.1820   63.7200 N   0  0  0  0  0  0  0  0  0  0  0  0
  126.7100  132.2520   62.3710 C   0  0  0  0  0  0  0  0  0  0  0  0
  126.4400  133.6110   61.8090 C   0  0  0  0  0  0  0  0  0  0  0  0
  127.3620  134.6480   61.9860 C   0  0  0  0  0  0  0  0  0  0  0  0
  127.1200  135.9170   61.4690 C   0  0  0  0  0  0  0  0  0  0  0  0
  125.9500  136.1930   60.7430 C   0  0  0  0  0  0  0  0  0  0  0  0
  125.6840  137.4690   60.2320 N   0  0  0  0  0  0  0  0  0  0  0  0
  126.6590  138.1710   59.3740 C   0  0  0  0  0  0  0  0  0  0  0  0
  126.3630  139.6740   59.1930 C   0  0  0  0  0  0  0  0  0  0  0  0
  125.0410  139.8540   58.7130 O   0  0  0  0  0  0  0  0  0  0  0  0
  124.0840  139.3320   59.6200 C   0  0  0  0  0  0  0  0  0  0  0  0
  124.3090  137.8170   59.8170 C   0  0  0  0  0  0  0  0  0  0  0  0
  125.0220  135.1540   60.5820 C   0  0  0  0  0  0  0  0  0  0  0  0
  125.2630  133.8860   61.1020 C   0  0  0  0  0  0  0  0  0  0  0  0
  126.7880  131.1220   61.5530 C   0  0  0  0  0  0  0  0  0  0  0  0
  127.0450  129.8580   62.0950 C   0  0  0  0  0  0  0  0  0  0  0  0
  127.0910  128.6850   61.1820 C   0  0  0  0  0  0  0  0  0  0  0  0
  128.2190  127.8630   61.1330 C   0  0  0  0  0  0  0  0  0  0  0  0
  128.2500  126.7550   60.2900 C   0  0  0  0  0  0  0  0  0  0  0  0
  127.1450  126.4300   59.4860 C   0  0  0  0  0  0  0  0  0  0  0  0
  127.1550  125.3300   58.6260 N   0  0  0  0  0  0  0  0  0  0  0  0
  125.9180  124.5430   58.4550 C   0  0  0  0  0  0  0  0  0  0  0  0
  125.9480  123.6240   57.2150 C   0  0  0  0  0  0  0  0  0  0  0  0
  127.0860  122.7760   57.2640 O   0  0  0  0  0  0  0  0  0  0  0  0
  128.2950  123.5220   57.2900 C   0  0  0  0  0  0  0  0  0  0  0  0
  128.3230  124.4340   58.5350 C   0  0  0  0  0  0  0  0  0  0  0  0
  126.0180  127.2640   59.5440 C   0  0  0  0  0  0  0  0  0  0  0  0
  125.9890  128.3720   60.3850 C   0  0  0  0  0  0  0  0  0  0  0  0
  127.2490  129.7690   63.5000 C   0  0  0  0  0  0  0  0  0  0  0  0
  127.5870  128.6800   64.3800 C   0  0  0  0  0  0  0  0  0  0  0  0
  127.8190  127.4060   63.9310 N   0  0  0  0  0  0  0  0  0  0  0  0
  1  2  1  0
  2  3  1  0
  3  4  2  0
  3  5  1  0
  5  6  1  0
  6  7  1  0
  7  8  2  0
  8  9  1  0
  9 10  1  0
 10 11  2  0
 11 12  1  0
 12 13  2  0
 13 14  1  0
 14 15  1  0
 15 16  1  0
 16 17  1  0
 17 18  1  0
 18 19  1  0
 13 20  1  0
 20 21  2  0
  9 22  2  0
 22 23  1  0
 23 24  1  0
 24 25  2  0
 25 26  1  0
 26 27  2  0
 27 28  1  0
 28 29  1  0
 29 30  1  0
 30 31  1  0
 31 32  1  0
 32 33  1  0
 27 34  1  0
 34 35  2  0
 23 36  2  0
 36 37  1  0
 37 38  1  0
 37  5  2  0
 36  7  1  0
 21 10  1  0
 35 24  1  0
 19 14  1  0
 33 28  1  0
M  END
>  <Binding energies>  (66) 
[-8.36]

>  <Ligand effiencies>  (66) 
[-0.209]

>  <Interactions>  (66) 
["V-A:GLU:543:CD:4908, H-A:GLU:543:OE1:4909, V-B:ASP:366:CG:8184, V-B:TYR:539:CZ:9849, V-B:GLU:543:CD:9880, V-B:ASP:366:CB:8183, V-A:TYR:539:CD1:4873, V-B:LEU:363:CD1:8160, V-B:MET:535:CE:9807, V-B:TYR:531:CE2:9765, H-B:GLU:543:OE2:9882, H-B:GLU:543:OE1:9881, V-A:GLU:543:CG:4907, V-B:ILE:369:CG2:8208, V-B:LEU:475:CD1:9229, V-A:ALA:541:CB:4892, V-A:ALA:541:CA:4890, V-A:GLU:543:CB:4906, V-B:HIS:456:CE1:9041, V-B:TYR:484:CE2:9317, V-B:TYR:484:CZ:9318, V-A:HIS:456:CE1:4069, V-B:HIS:383:CE1:8365, V-A:TYR:539:CB:4871, V-A:VAL:344:CG1:3000, V-B:SER:385:CB:8380, V-B:LEU:373:CD1:8251, V-A:ILE:343:CG2:2991, V-B:PRO:482:CG:9298, V-B:HIS:383:CD2:8363, V-B:HIS:383:CG:8361, V-B:SER:385:CA:8378, V-B:LEU:373:CD2:8252, V-B:PRO:482:CB:9297, V-B:VAL:384:C:8368, H-B:HIS:383:ND1:8362"]

$$$$
RR10_Rahimova_2017
     RDKit          3D

 34 38  0  0  0  0  0  0  0  0999 V2000
  131.8580  131.4210   57.5580 C   0  0  0  0  0  0  0  0  0  0  0  0
  130.7060  131.1120   56.5860 C   0  0  1  0  0  0  0  0  0  0  0  0
  130.4730  129.5910   56.4340 C   0  0  0  0  0  0  0  0  0  0  0  0
  129.3350  129.3020   55.4280 C   0  0  0  0  0  0  0  0  0  0  0  0
  128.0040  129.9810   55.8410 C   0  0  1  0  0  0  0  0  0  0  0  0
  127.4610  129.3640   57.0590 N   0  0  0  0  0  0  0  0  0  0  0  0
  126.1530  129.2090   57.3380 C   0  0  0  0  0  0  0  0  0  0  0  0
  125.2560  129.5600   56.5680 O   0  0  0  0  0  0  0  0  0  0  0  0
  125.8050  128.5710   58.6990 C   0  0  1  0  0  0  0  0  0  0  0  0
  126.8970  127.5370   59.0770 C   0  0  0  0  0  0  0  0  0  0  0  0
  126.6010  126.9630   60.4840 C   0  0  0  0  0  0  0  0  0  0  0  0
  126.3900  128.0690   61.5430 C   0  0  0  0  0  0  0  0  0  0  0  0
  125.3770  129.0550   61.0780 N   0  0  0  0  0  0  0  0  0  0  0  0
  124.8360  130.1940   62.3220 S   0  0  0  0  0  0  0  0  0  0  0  0
  125.4550  129.8060   63.5960 O   0  0  0  0  0  0  0  0  0  0  0  0
  123.3770  130.3170   62.2180 O   0  0  0  0  0  0  0  0  0  0  0  0
  125.5570  131.7680   61.8580 C   0  0  0  0  0  0  0  0  0  0  0  0
  126.9430  131.9360   61.9340 C   0  0  0  0  0  0  0  0  0  0  0  0
  127.5670  133.1390   61.5890 C   0  0  0  0  0  0  0  0  0  0  0  0
  126.7330  134.1730   61.1590 C   0  0  0  0  0  0  0  0  0  0  0  0
  126.9530  135.4670   60.7500 N   0  0  0  0  0  0  0  0  0  0  0  0
  125.7320  136.0290   60.4400 C   0  0  0  0  0  0  0  0  0  0  0  0
  125.5640  137.4420   59.9620 C   0  0  0  0  0  0  0  0  0  0  0  0
  126.6850  138.2190   59.6380 C   0  0  0  0  0  0  0  0  0  0  0  0
  126.5320  139.5290   59.1910 C   0  0  0  0  0  0  0  0  0  0  0  0
  125.2550  140.0700   59.0670 C   0  0  0  0  0  0  0  0  0  0  0  0
  124.1310  139.3120   59.3840 C   0  0  0  0  0  0  0  0  0  0  0  0
  124.2860  138.0020   59.8310 C   0  0  0  0  0  0  0  0  0  0  0  0
  124.7410  135.1820   60.6170 N   0  0  0  0  0  0  0  0  0  0  0  0
  125.3280  134.0270   61.0640 C   0  0  0  0  0  0  0  0  0  0  0  0
  124.7310  132.8080   61.4140 C   0  0  0  0  0  0  0  0  0  0  0  0
  125.7150  129.6820   59.7750 C   0  0  0  0  0  0  0  0  0  0  0  0
  128.2570  131.5040   56.0070 C   0  0  0  0  0  0  0  0  0  0  0  0
  129.3880  131.7970   57.0180 C   0  0  0  0  0  0  0  0  0  0  0  0
  2  1  1  1
  2  3  1  0
  3  4  1  0
  4  5  1  0
  5  6  1  1
  6  7  1  0
  7  8  2  0
  9  7  1  6
  9 10  1  0
 10 11  1  0
 11 12  1  0
 12 13  1  0
 13 14  1  0
 14 15  2  0
 14 16  2  0
 14 17  1  0
 17 18  2  0
 18 19  1  0
 19 20  2  0
 20 21  1  0
 21 22  1  0
 22 23  1  0
 23 24  2  0
 24 25  1  0
 25 26  2  0
 26 27  1  0
 27 28  2  0
 22 29  2  0
 29 30  1  0
 30 31  2  0
 13 32  1  0
  5 33  1  0
 33 34  1  0
 34  2  1  0
 32  9  1  0
 31 17  1  0
 30 20  1  0
 28 23  1  0
M  END
>  <Binding energies>  (67) 
[-10.45]

>  <Ligand effiencies>  (67) 
[-0.29027777777777775]

>  <Interactions>  (67) 
["V-A:TYR:539:CZ:4877, V-A:TYR:539:CE1:4875, V-A:TYR:539:CE2:4876, V-A:PRO:540:CB:4885, V-A:PRO:540:CA:4883, V-A:TYR:539:C:4867, V-A:PRO:540:N:4884, V-B:ASP:366:CG:8184, H-B:TYR:531:OH:9767, V-B:ASP:366:CB:8183, V-A:TYR:539:CD1:4873, H-B:ARG:545:NH2:9900, V-B:TYR:531:CZ:9766, V-B:ILE:369:CG2:8208, H-A:TYR:539:OH:4878, V-A:ALA:541:CB:4892, V-B:TYR:531:CE1:9764, H-B:SER:385:OG:8381, H-B:GLY:454:N:9021, V-B:ILE:369:CD1:8210, H-A:TYR:539:O:4868, V-B:HIS:383:CE1:8365, V-A:TYR:539:CB:4871, V-A:VAL:344:CG1:3000, V-B:SER:385:CB:8380, V-B:LEU:373:CD1:8251, V-A:ILE:343:CG2:2991, V-B:PRO:482:CG:9298, V-B:HIS:383:CD2:8363, V-B:HIS:383:CG:8361, V-B:SER:385:CA:8378, V-B:LEU:373:CD2:8252, V-B:VAL:384:C:8368, V-A:ILE:343:CB:2990"]

$$$$
RR12_Rahimova_2017
     RDKit          3D

 26 28  0  0  0  0  0  0  0  0999 V2000
  126.6620  122.2290   56.8790 C   0  0  0  0  0  0  0  0  0  0  0  0
  128.0440  122.4100   57.5190 C   0  0  0  0  0  0  0  0  0  0  0  0
  128.2710  123.8400   58.0430 C   0  0  0  0  0  0  0  0  0  0  0  0
  129.6560  124.2560   57.8310 N   0  0  0  0  0  0  0  0  0  0  0  0
  130.1230  125.2180   56.9490 C   0  0  0  0  0  0  0  0  0  0  0  0
  129.2340  125.9910   55.9910 C   0  0  0  0  0  0  0  0  0  0  0  0
  129.9520  127.2080   55.3770 C   0  0  0  0  0  0  0  0  0  0  0  0
  128.9970  128.1320   54.5980 C   0  0  0  0  0  0  0  0  0  0  0  0
  129.4870  129.5020   54.4540 N   0  0  0  0  0  0  0  0  0  0  0  0
  128.7090  130.5880   54.2930 C   0  0  0  0  0  0  0  0  0  0  0  0
  127.4780  130.5350   54.2450 O   0  0  0  0  0  0  0  0  0  0  0  0
  129.4510  131.9250   54.1730 C   0  0  0  0  0  0  0  0  0  0  0  0
  129.5130  132.5520   55.4550 O   0  0  0  0  0  0  0  0  0  0  0  0
  130.3710  132.0490   56.4140 C   0  0  0  0  0  0  0  0  0  0  0  0
  129.8410  131.8830   57.6960 C   0  0  0  0  0  0  0  0  0  0  0  0
  130.6290  131.3800   58.7270 C   0  0  0  0  0  0  0  0  0  0  0  0
  131.9550  131.0390   58.4770 C   0  0  0  0  0  0  0  0  0  0  0  0
  132.5010  131.2000   57.2060 C   0  0  0  0  0  0  0  0  0  0  0  0
  131.7120  131.7040   56.1750 C   0  0  0  0  0  0  0  0  0  0  0  0
  131.4200  125.3890   57.0060 N   0  0  0  0  0  0  0  0  0  0  0  0
  131.8450  124.5290   57.9800 C   0  0  0  0  0  0  0  0  0  0  0  0
  133.1460  124.3120   58.4610 C   0  0  0  0  0  0  0  0  0  0  0  0
  133.3230  123.3740   59.4780 C   0  0  0  0  0  0  0  0  0  0  0  0
  132.2420  122.6680   60.0090 C   0  0  0  0  0  0  0  0  0  0  0  0
  130.9370  122.8600   59.5520 C   0  0  0  0  0  0  0  0  0  0  0  0
  130.7600  123.8010   58.5290 C   0  0  0  0  0  0  0  0  0  0  0  0
  1  2  1  0
  2  3  1  0
  3  4  1  0
  4  5  1  0
  5  6  1  0
  6  7  1  0
  7  8  1  0
  8  9  1  0
  9 10  1  0
 10 11  2  0
 10 12  1  0
 12 13  1  0
 13 14  1  0
 14 15  2  0
 15 16  1  0
 16 17  2  0
 17 18  1  0
 18 19  2  0
  5 20  2  0
 20 21  1  0
 21 22  2  0
 22 23  1  0
 23 24  2  0
 24 25  1  0
 25 26  2  0
 26  4  1  0
 19 14  1  0
 26 21  1  0
M  END
>  <Binding energies>  (68) 
[-7.96]

>  <Ligand effiencies>  (68) 
[-0.2948148148148148]

>  <Interactions>  (68) 
["V-A:ASP:366:CB:3211, V-A:ILE:538:CA:4860, V-A:ILE:538:CG2:4863, V-A:ILE:538:CB:4862, V-A:PRO:540:CB:4885, V-A:PRO:540:CA:4883, V-A:ASP:366:CG:3212, V-A:TYR:539:C:4867, V-A:PRO:540:N:4884, V-A:LEU:363:CD1:3188, H-A:TYR:531:OH:4795, H-B:TYR:539:OH:9850, V-A:ASP:366:C:3207, V-B:TYR:539:CZ:9849, V-B:PRO:540:N:9856, V-B:TYR:539:CD2:9846, V-A:TYR:539:CD1:4873, V-B:PRO:540:CD:9859, V-B:TYR:539:CE2:9848, V-B:PRO:540:CA:9855, V-B:MET:535:CE:9807, H-A:TYR:539:OH:4878, H-B:LYS:534:NZ:9795, H-A:TYR:539:N:4870, V-B:TYR:539:C:9839, V-A:ILE:369:CG2:3236, V-A:ASP:366:CA:3209, V-B:TYR:539:CG:9844"]

$$$$
RR13_Rahimova_2017
     RDKit          3D

 48 54  0  0  0  0  0  0  0  0999 V2000
  132.5530  131.4040   57.5860 Cl  0  0  0  0  0  0  0  0  0  0  0  0
  130.9740  131.2710   56.8870 C   0  0  0  0  0  0  0  0  0  0  0  0
  130.6990  132.0360   55.7520 C   0  0  0  0  0  0  0  0  0  0  0  0
  129.4420  131.9890   55.1560 C   0  0  0  0  0  0  0  0  0  0  0  0
  128.4480  131.1760   55.6940 C   0  0  0  0  0  0  0  0  0  0  0  0
  128.7150  130.4090   56.8260 C   0  0  0  0  0  0  0  0  0  0  0  0
  129.9810  130.4340   57.4350 C   0  0  0  0  0  0  0  0  0  0  0  0
  130.2440  129.5930   58.7040 C   0  0  1  0  0  0  0  0  0  0  0  0
  130.3770  130.4920   59.9430 C   0  0  0  0  0  0  0  0  0  0  0  0
  131.4020  130.5500   60.7640 N   0  0  0  0  0  0  0  0  0  0  0  0
  131.0560  131.4790   61.7410 N   0  0  0  0  0  0  0  0  0  0  0  0
  129.7870  131.9680   61.5010 N   0  0  0  0  0  0  0  0  0  0  0  0
  129.3790  131.3260   60.4010 N   0  0  0  0  0  0  0  0  0  0  0  0
  128.0760  131.6180   59.8170 C   0  0  0  0  0  0  0  0  0  0  0  0
  127.0210  130.6280   60.3440 C   0  0  0  0  0  0  0  0  0  0  0  0
  126.0920  130.1370   59.2440 C   0  0  0  0  0  0  0  0  0  0  0  0
  125.0010  130.9170   58.8520 C   0  0  0  0  0  0  0  0  0  0  0  0
  124.1480  130.4640   57.8500 C   0  0  0  0  0  0  0  0  0  0  0  0
  124.3880  129.2320   57.2440 C   0  0  0  0  0  0  0  0  0  0  0  0
  125.4730  128.4490   57.6310 C   0  0  0  0  0  0  0  0  0  0  0  0
  126.3270  128.9020   58.6340 C   0  0  0  0  0  0  0  0  0  0  0  0
  129.2620  128.5000   58.9020 N   0  0  0  0  0  0  0  0  0  0  0  0
  129.3730  127.9460   60.2640 C   0  0  0  0  0  0  0  0  0  0  0  0
  128.2660  126.8980   60.5230 C   0  0  0  0  0  0  0  0  0  0  0  0
  128.3860  125.7730   59.5810 N   0  0  0  0  0  0  0  0  0  0  0  0
  127.3950  124.7040   59.8450 C   0  0  1  0  0  0  0  0  0  0  0  0
  127.0580  123.7960   58.6420 C   0  0  0  0  0  0  0  0  0  0  0  0
  128.0560  122.9100   58.2100 C   0  0  0  0  0  0  0  0  0  0  0  0
  127.8340  122.0410   57.1430 C   0  0  0  0  0  0  0  0  0  0  0  0
  126.6080  122.0490   56.4840 C   0  0  0  0  0  0  0  0  0  0  0  0
  125.6100  122.9320   56.8860 C   0  0  0  0  0  0  0  0  0  0  0  0
  125.8230  123.8100   57.9530 C   0  0  0  0  0  0  0  0  0  0  0  0
  124.5460  124.9160   58.3320 Cl  0  0  0  0  0  0  0  0  0  0  0  0
  127.7410  123.8510   61.0670 C   0  0  0  0  0  0  0  0  0  0  0  0
  126.9330  122.9980   61.6540 N   0  0  0  0  0  0  0  0  0  0  0  0
  127.6620  122.4400   62.7000 N   0  0  0  0  0  0  0  0  0  0  0  0
  128.9370  122.9660   62.7220 N   0  0  0  0  0  0  0  0  0  0  0  0
  128.9700  123.8190   61.6910 N   0  0  0  0  0  0  0  0  0  0  0  0
  130.1800  124.5870   61.4170 C   0  0  0  0  0  0  0  0  0  0  0  0
  131.3390  123.6470   61.0410 C   0  0  0  0  0  0  0  0  0  0  0  0
  131.9550  124.0040   59.6970 C   0  0  0  0  0  0  0  0  0  0  0  0
  131.4340  125.0650   58.9510 C   0  0  0  0  0  0  0  0  0  0  0  0
  132.0020  125.3970   57.7240 C   0  0  0  0  0  0  0  0  0  0  0  0
  133.0880  124.6650   57.2460 C   0  0  0  0  0  0  0  0  0  0  0  0
  133.6120  123.6060   57.9860 C   0  0  0  0  0  0  0  0  0  0  0  0
  133.0450  123.2750   59.2130 C   0  0  0  0  0  0  0  0  0  0  0  0
  128.2700  126.3300   58.2210 C   0  0  0  0  0  0  0  0  0  0  0  0
  129.3850  127.3700   57.9660 C   0  0  0  0  0  0  0  0  0  0  0  0
  1  2  1  0
  2  3  2  0
  3  4  1  0
  4  5  2  0
  5  6  1  0
  6  7  2  0
  7  8  1  0
  8  9  1  0
  9 10  2  0
 10 11  1  0
 11 12  2  0
 12 13  1  0
 13 14  1  0
 14 15  1  0
 15 16  1  0
 16 17  2  0
 17 18  1  0
 18 19  2  0
 19 20  1  0
 20 21  2  0
  8 22  1  1
 22 23  1  0
 23 24  1  0
 24 25  1  0
 26 25  1  6
 26 27  1  0
 27 28  2  0
 28 29  1  0
 29 30  2  0
 30 31  1  0
 31 32  2  0
 32 33  1  0
 26 34  1  0
 34 35  2  0
 35 36  1  0
 36 37  2  0
 37 38  1  0
 38 39  1  0
 39 40  1  0
 40 41  1  0
 41 42  2  0
 42 43  1  0
 43 44  2  0
 44 45  1  0
 45 46  2  0
 25 47  1  0
 47 48  1  0
  7  2  1  0
 13  9  1  0
 21 16  1  0
 48 22  1  0
 32 27  1  0
 38 34  1  0
 46 41  1  0
M  END
>  <Binding energies>  (69) 
[-12.85]

>  <Ligand effiencies>  (69) 
[-0.2677083333333333]

>  <Interactions>  (69) 
["V-A:TYR:539:CZ:4877, V-A:ASP:366:CB:3211, V-A:ILE:538:CA:4860, H-A:ALA:541:N:4891, V-A:ILE:538:CG2:4863, V-A:ILE:538:CB:4862, V-A:TYR:539:CE1:4875, V-A:PRO:540:CB:4885, V-A:PRO:540:CA:4883, V-A:ASP:366:CG:3212, V-A:LEU:363:CD1:3188, V-A:ASP:366:C:3207, V-B:ASP:366:CG:8184, V-B:PRO:540:CB:9857, V-B:TYR:539:CZ:9849, V-B:TYR:539:CE1:9847, V-B:ASP:366:CB:8183, V-B:PRO:540:N:9856, V-B:TYR:539:CD2:9846, V-B:ASP:366:CA:8181, V-A:TYR:539:CD1:4873, V-B:LEU:363:CD1:8160, V-B:PRO:540:CD:9859, V-B:TYR:539:CE2:9848, V-B:PRO:540:CA:9855, V-B:MET:535:CE:9807, V-B:TYR:531:CE2:9765, V-B:TYR:531:CZ:9766, V-B:ILE:369:CG2:8208, V-B:TYR:531:CE1:9764, V-B:TYR:539:C:9839, V-A:ILE:369:CG2:3236, H-B:ALA:541:N:9863, V-B:ASP:366:C:8179, V-A:ASP:366:CA:3209, V-B:TYR:539:CA:9841, V-A:ILE:369:CB:3235, V-B:TYR:539:CG:9844, V-B:TYR:539:CD1:9845"]

$$$$
RR14_Rahimova_2017
     RDKit          3D

 39 43  0  0  0  0  0  0  0  0999 V2000
  132.8280  130.9660   61.2610 C   0  0  0  0  0  0  0  0  0  0  0  0
  131.4340  130.7970   61.0240 O   0  0  0  0  0  0  0  0  0  0  0  0
  130.9270  131.0730   59.7690 C   0  0  0  0  0  0  0  0  0  0  0  0
  131.5750  130.4710   58.6890 C   0  0  0  0  0  0  0  0  0  0  0  0
  131.1510  130.7090   57.3860 C   0  0  0  0  0  0  0  0  0  0  0  0
  130.0710  131.5630   57.1480 C   0  0  0  0  0  0  0  0  0  0  0  0
  129.6450  131.8780   55.7190 C   0  0  0  0  0  0  0  0  0  0  0  0
  128.6940  130.9110   55.1720 N   0  0  0  0  0  0  0  0  0  0  0  0
  128.4880  130.8370   53.8520 N   0  0  0  0  0  0  0  0  0  0  0  0
  127.5260  129.8580   53.7010 N   0  0  0  0  0  0  0  0  0  0  0  0
  127.1560  129.3550   54.9450 N   0  0  0  0  0  0  0  0  0  0  0  0
  127.8740  130.0140   55.8230 C   0  0  0  0  0  0  0  0  0  0  0  0
  127.8000  129.8280   57.3320 C   0  0  0  0  0  0  0  0  0  0  0  0
  128.2040  128.4770   57.7530 N   0  0  0  0  0  0  0  0  0  0  0  0
  127.0460  127.6030   57.9790 C   0  0  0  0  0  0  0  0  0  0  0  0
  127.4070  126.2750   58.6790 C   0  0  0  0  0  0  0  0  0  0  0  0
  126.3130  125.1930   58.5600 C   0  0  0  0  0  0  0  0  0  0  0  0
  126.5980  124.1900   57.5280 N   0  0  0  0  0  0  0  0  0  0  0  0
  125.3510  123.5780   57.0530 C   0  0  0  0  0  0  0  0  0  0  0  0
  125.6200  122.4790   56.0030 C   0  0  0  0  0  0  0  0  0  0  0  0
  126.5310  121.5170   56.5240 O   0  0  0  0  0  0  0  0  0  0  0  0
  127.7820  122.0940   56.8790 C   0  0  0  0  0  0  0  0  0  0  0  0
  127.5780  123.1800   57.9570 C   0  0  0  0  0  0  0  0  0  0  0  0
  129.1080  127.8860   56.7560 C   0  0  0  0  0  0  0  0  0  0  0  0
  130.1210  126.8720   57.2850 C   0  0  0  0  0  0  0  0  0  0  0  0
  130.3340  126.7270   58.6160 C   0  0  0  0  0  0  0  0  0  0  0  0
  131.3360  125.7830   59.1530 C   0  0  0  0  0  0  0  0  0  0  0  0
  131.5690  125.5930   60.5250 C   0  0  0  0  0  0  0  0  0  0  0  0
  130.7890  126.3630   61.5820 C   0  0  0  0  0  0  0  0  0  0  0  0
  132.5390  124.6710   60.9280 C   0  0  0  0  0  0  0  0  0  0  0  0
  133.2690  123.9480   59.9870 C   0  0  0  0  0  0  0  0  0  0  0  0
  133.0430  124.1280   58.6190 C   0  0  0  0  0  0  0  0  0  0  0  0
  133.8540  123.3210   57.6140 C   0  0  0  0  0  0  0  0  0  0  0  0
  132.0700  125.0510   58.2030 C   0  0  0  0  0  0  0  0  0  0  0  0
  131.8090  125.2680   56.8330 N   0  0  0  0  0  0  0  0  0  0  0  0
  130.9020  126.1230   56.2970 C   0  0  0  0  0  0  0  0  0  0  0  0
  130.7890  126.2250   55.0750 O   0  0  0  0  0  0  0  0  0  0  0  0
  129.3980  132.1470   58.2230 C   0  0  0  0  0  0  0  0  0  0  0  0
  129.8240  131.9080   59.5260 C   0  0  0  0  0  0  0  0  0  0  0  0
  1  2  1  0
  2  3  1  0
  3  4  2  0
  4  5  1  0
  5  6  2  0
  6  7  1  0
  7  8  1  0
  8  9  1  0
  9 10  2  0
 10 11  1  0
 11 12  2  0
 12 13  1  0
 13 14  1  0
 14 15  1  0
 15 16  1  0
 16 17  1  0
 17 18  1  0
 18 19  1  0
 19 20  1  0
 20 21  1  0
 21 22  1  0
 22 23  1  0
 14 24  1  0
 24 25  1  0
 25 26  2  0
 26 27  1  0
 27 28  2  0
 28 29  1  0
 28 30  1  0
 30 31  2  0
 31 32  1  0
 32 33  1  0
 32 34  2  0
 34 35  1  0
 35 36  1  0
 36 37  2  0
  6 38  1  0
 38 39  2  0
 39  3  1  0
 12  8  1  0
 23 18  1  0
 36 25  1  0
 34 27  1  0
M  END
>  <Binding energies>  (70) 
[-10.92]

>  <Ligand effiencies>  (70) 
[-0.273]

>  <Interactions>  (70) 
["V-A:TYR:539:CZ:4877, V-A:ASP:366:CB:3211, V-A:ASN:362:CB:3175, V-A:ILE:538:CA:4860, V-A:TYR:539:CE1:4875, V-A:PRO:540:CB:4885, V-A:PRO:540:CA:4883, V-A:ASP:366:CG:3212, V-A:TYR:539:C:4867, V-A:PRO:540:N:4884, H-A:TYR:531:OH:4795, H-B:TYR:539:OH:9850, V-A:ASP:366:C:3207, V-B:TYR:539:CZ:9849, V-B:TYR:539:CE1:9847, H-B:TYR:531:OH:9767, V-B:PRO:540:N:9856, V-B:TYR:539:CD2:9846, V-A:TYR:539:CD1:4873, V-B:LEU:363:CD1:8160, V-B:TYR:539:CE2:9848, H-B:TYR:539:N:9842, V-B:MET:535:CE:9807, V-B:TYR:531:CE2:9765, V-B:TYR:531:CZ:9766, H-A:TYR:539:OH:4878, H-B:LYS:534:NZ:9795, V-B:TYR:539:C:9839, V-A:ILE:369:CG2:3236, V-A:ASP:366:CA:3209, V-B:TYR:539:CA:9841, V-A:ILE:369:CB:3235, V-B:TYR:539:CG:9844, V-B:TYR:539:CD1:9845, H-A:ASP:366:O:3208, V-B:MET:535:CG:9805, V-A:ILE:369:C:3231"]

$$$$
RR15_Rahimova_2017
     RDKit          3D

 45 49  0  0  0  0  0  0  0  0999 V2000
  133.9840  120.4390   61.4000 C   0  0  0  0  0  0  0  0  0  0  0  0
  133.7400  121.8250   61.6220 O   0  0  0  0  0  0  0  0  0  0  0  0
  133.3140  122.6180   60.5710 C   0  0  0  0  0  0  0  0  0  0  0  0
  134.1550  123.4940   59.8670 C   0  0  0  0  0  0  0  0  0  0  0  0
  133.6610  124.2670   58.8190 C   0  0  0  0  0  0  0  0  0  0  0  0
  132.3160  124.1910   58.4460 C   0  0  0  0  0  0  0  0  0  0  0  0
  131.7810  125.0310   57.3190 C   0  0  0  0  0  0  0  0  0  0  0  0
  132.5260  125.4210   56.2940 N   0  0  0  0  0  0  0  0  0  0  0  0
  131.6990  126.1710   55.4840 N   0  0  0  0  0  0  0  0  0  0  0  0
  130.5190  126.1140   56.1010 N   0  0  0  0  0  0  0  0  0  0  0  0
  129.3770  126.9160   55.6650 C   0  0  0  0  0  0  0  0  0  0  0  0
  129.0760  128.1520   56.5490 C   0  0  0  0  0  0  0  0  0  0  0  0
  129.9800  128.9710   56.7320 O   0  0  0  0  0  0  0  0  0  0  0  0
  127.8240  128.3220   57.0730 N   0  0  0  0  0  0  0  0  0  0  0  0
  127.4400  127.7040   58.3580 C   0  0  0  0  0  0  0  0  0  0  0  0
  127.6960  126.1820   58.4120 C   0  0  0  0  0  0  0  0  0  0  0  0
  126.4440  125.3040   58.1710 C   0  0  0  0  0  0  0  0  0  0  0  0
  126.6850  124.1660   57.2780 N   0  0  0  0  0  0  0  0  0  0  0  0
  127.6650  123.2040   57.8050 C   0  0  0  0  0  0  0  0  0  0  0  0
  127.8170  121.9850   56.8700 C   0  0  0  0  0  0  0  0  0  0  0  0
  126.5470  121.3860   56.6320 O   0  0  0  0  0  0  0  0  0  0  0  0
  125.6270  122.2880   56.0260 C   0  0  0  0  0  0  0  0  0  0  0  0
  125.4130  123.5140   56.9400 C   0  0  0  0  0  0  0  0  0  0  0  0
  126.8210  129.2790   56.5140 C   0  0  2  0  0  0  0  0  0  0  0  0
  127.3620  130.1550   55.3420 C   0  0  0  0  0  0  0  0  0  0  0  0
  126.7610  130.2230   54.2700 O   0  0  0  0  0  0  0  0  0  0  0  0
  128.4860  130.8450   55.6020 N   0  0  0  0  0  0  0  0  0  0  0  0
  129.1160  131.8030   54.7000 C   0  0  0  0  0  0  0  0  0  0  0  0
  130.3030  132.5110   55.3800 C   0  0  2  0  0  0  0  0  0  0  0  0
  131.6430  131.7580   55.3190 C   0  0  0  0  0  0  0  0  0  0  0  0
  131.7860  131.1280   56.6830 C   0  0  0  0  0  0  0  0  0  0  0  0
  131.1140  132.1670   57.5650 C   0  0  0  0  0  0  0  0  0  0  0  0
  129.9920  132.5560   56.7790 O   0  0  0  0  0  0  0  0  0  0  0  0
  126.0740  129.9920   57.6360 C   0  0  0  0  0  0  0  0  0  0  0  0
  126.8260  130.6710   58.6020 C   0  0  0  0  0  0  0  0  0  0  0  0
  126.1980  131.3390   59.6490 C   0  0  0  0  0  0  0  0  0  0  0  0
  124.8090  131.3340   59.7370 C   0  0  0  0  0  0  0  0  0  0  0  0
  124.1990  131.9830   60.7540 F   0  0  0  0  0  0  0  0  0  0  0  0
  124.0440  130.6650   58.7850 C   0  0  0  0  0  0  0  0  0  0  0  0
  124.6730  129.9960   57.7390 C   0  0  0  0  0  0  0  0  0  0  0  0
  130.5310  125.4520   57.2640 N   0  0  0  0  0  0  0  0  0  0  0  0
  131.4790  123.3150   59.1490 C   0  0  0  0  0  0  0  0  0  0  0  0
  131.9630  122.5250   60.2060 C   0  0  0  0  0  0  0  0  0  0  0  0
  131.1770  121.6430   60.9280 O   0  0  0  0  0  0  0  0  0  0  0  0
  129.7640  121.6530   60.7500 C   0  0  0  0  0  0  0  0  0  0  0  0
  1  2  1  0
  2  3  1  0
  3  4  2  0
  4  5  1  0
  5  6  2  0
  6  7  1  0
  7  8  1  0
  8  9  2  0
  9 10  1  0
 10 11  1  0
 11 12  1  0
 12 13  2  0
 12 14  1  0
 14 15  1  0
 15 16  1  0
 16 17  1  0
 17 18  1  0
 18 19  1  0
 19 20  1  0
 20 21  1  0
 21 22  1  0
 22 23  1  0
 24 14  1  1
 24 25  1  0
 25 26  2  0
 25 27  1  0
 27 28  1  0
 29 28  1  6
 29 30  1  0
 30 31  1  0
 31 32  1  0
 32 33  1  0
 24 34  1  0
 34 35  2  0
 35 36  1  0
 36 37  2  0
 37 38  1  0
 37 39  1  0
 39 40  2  0
 10 41  1  0
  6 42  1  0
 42 43  2  0
 43 44  1  0
 44 45  1  0
 43  3  1  0
 41  7  2  0
 23 18  1  0
 33 29  1  0
 40 34  1  0
M  END
>  <Binding energies>  (71) 
[-11.21]

>  <Ligand effiencies>  (71) 
[-0.24369565217391306]

>  <Interactions>  (71) 
["V-A:TYR:539:CZ:4877, V-A:ASP:366:CB:3211, V-A:ILE:538:CA:4860, V-A:PRO:540:CD:4887, V-A:ILE:538:CG2:4863, V-A:ILE:538:C:4858, V-A:ILE:538:CB:4862, V-A:TYR:539:CE1:4875, V-A:PRO:540:CB:4885, V-A:PRO:540:CA:4883, V-A:ASP:366:CG:3212, V-A:TYR:539:C:4867, V-A:PRO:540:N:4884, V-A:LEU:363:CD1:3188, H-A:TYR:531:OH:4795, H-B:TYR:539:OH:9850, V-A:ASP:366:C:3207, V-B:TYR:539:CZ:9849, V-B:TYR:539:CE1:9847, H-B:TYR:531:OH:9767, V-B:ASP:366:CB:8183, V-B:PRO:540:N:9856, V-B:TYR:539:CD2:9846, V-B:ASP:366:CA:8181, V-A:TYR:539:CD1:4873, V-B:LEU:363:CD1:8160, V-B:PRO:540:CD:9859, V-B:TYR:539:CE2:9848, H-B:TYR:539:N:9842, V-B:MET:535:CE:9807, V-B:TYR:531:CE2:9765, V-B:TYR:531:CZ:9766, V-B:ILE:369:CG2:8208, H-A:TYR:539:OH:4878, H-B:LYS:534:NZ:9795, V-B:TYR:531:CE1:9764, V-B:ILE:369:CD1:8210, H-A:TYR:539:N:4870, V-A:LEU:475:CD1:4257, V-B:TYR:539:C:9839, V-A:ILE:369:CD1:3238, V-A:SER:385:C:3404, V-A:ILE:369:CG2:3236, V-B:ILE:369:CB:8207, V-B:ASP:366:C:8179, V-A:ASP:366:CA:3209, V-B:TYR:539:CA:9841, V-A:ILE:369:CB:3235, V-B:TYR:539:CG:9844, V-B:TYR:539:CD1:9845, V-A:TYR:531:CE2:4793"]

$$$$
RR17_Rahimova_2017
     RDKit          3D

 38 41  0  0  0  0  0  0  0  0999 V2000
  133.1150  131.6790   61.5630 C   0  0  0  0  0  0  0  0  0  0  0  0
  132.6130  130.9950   60.2870 C   0  0  0  0  0  0  0  0  0  0  0  0
  131.2220  131.2700   60.1380 O   0  0  0  0  0  0  0  0  0  0  0  0
  130.6990  131.4470   58.8700 C   0  0  0  0  0  0  0  0  0  0  0  0
  131.5050  131.0520   57.8040 C   0  0  0  0  0  0  0  0  0  0  0  0
  131.0640  131.1930   56.4920 C   0  0  0  0  0  0  0  0  0  0  0  0
  129.8000  131.7360   56.2180 C   0  0  0  0  0  0  0  0  0  0  0  0
  129.3500  131.8740   54.7930 C   0  0  0  0  0  0  0  0  0  0  0  0
  128.6310  132.8030   54.4140 O   0  0  0  0  0  0  0  0  0  0  0  0
  129.8160  130.7840   53.8020 C   0  0  0  0  0  0  0  0  0  0  0  0
  128.5370  129.5050   53.5340 S   0  0  0  0  0  0  0  0  0  0  0  0
  129.2890  128.1410   54.3780 C   0  0  0  0  0  0  0  0  0  0  0  0
  130.1220  127.2810   53.8400 N   0  0  0  0  0  0  0  0  0  0  0  0
  130.4910  126.3740   54.8250 N   0  0  0  0  0  0  0  0  0  0  0  0
  129.8700  126.7230   55.9230 C   0  0  0  0  0  0  0  0  0  0  0  0
  130.0010  126.0010   57.2560 C   0  0  0  0  0  0  0  0  0  0  0  0
  130.9900  124.9260   57.2510 N   0  0  0  0  0  0  0  0  0  0  0  0
  131.8570  124.6570   58.3250 C   0  0  0  0  0  0  0  0  0  0  0  0
  131.4510  125.0650   59.5960 C   0  0  0  0  0  0  0  0  0  0  0  0
  132.2640  124.8350   60.7020 C   0  0  0  0  0  0  0  0  0  0  0  0
  133.4940  124.1890   60.5500 C   0  0  0  0  0  0  0  0  0  0  0  0
  134.3770  123.9500   61.7740 C   0  0  0  0  0  0  0  0  0  0  0  0
  133.8980  124.5470   62.8680 F   0  0  0  0  0  0  0  0  0  0  0  0
  134.4760  122.6440   62.0290 F   0  0  0  0  0  0  0  0  0  0  0  0
  135.5960  124.4320   61.5340 F   0  0  0  0  0  0  0  0  0  0  0  0
  133.9000  123.7720   59.2780 C   0  0  0  0  0  0  0  0  0  0  0  0
  133.0860  124.0010   58.1730 C   0  0  0  0  0  0  0  0  0  0  0  0
  129.0790  127.8320   55.7060 N   0  0  0  0  0  0  0  0  0  0  0  0
  128.2720  128.5080   56.6340 C   0  0  0  0  0  0  0  0  0  0  0  0
  127.1330  129.1810   56.1920 C   0  0  0  0  0  0  0  0  0  0  0  0
  126.3350  129.8550   57.1120 C   0  0  0  0  0  0  0  0  0  0  0  0
  126.6730  129.8580   58.4750 C   0  0  0  0  0  0  0  0  0  0  0  0
  125.9420  130.4980   59.4570 O   0  0  0  0  0  0  0  0  0  0  0  0
  124.5300  130.6070   59.3120 C   0  0  0  0  0  0  0  0  0  0  0  0
  127.8190  129.1810   58.8980 C   0  0  0  0  0  0  0  0  0  0  0  0
  128.6210  128.5040   57.9840 C   0  0  0  0  0  0  0  0  0  0  0  0
  128.9900  132.1320   57.2920 C   0  0  0  0  0  0  0  0  0  0  0  0
  129.4330  131.9890   58.6050 C   0  0  0  0  0  0  0  0  0  0  0  0
  1  2  1  0
  2  3  1  0
  3  4  1  0
  4  5  2  0
  5  6  1  0
  6  7  2  0
  7  8  1  0
  8  9  2  0
  8 10  1  0
 10 11  1  0
 11 12  1  0
 12 13  2  0
 13 14  1  0
 14 15  2  0
 15 16  1  0
 16 17  1  0
 17 18  1  0
 18 19  2  0
 19 20  1  0
 20 21  2  0
 21 22  1  0
 22 23  1  0
 22 24  1  0
 22 25  1  0
 21 26  1  0
 26 27  2  0
 15 28  1  0
 28 29  1  0
 29 30  2  0
 30 31  1  0
 31 32  2  0
 32 33  1  0
 33 34  1  0
 32 35  1  0
 35 36  2  0
  7 37  1  0
 37 38  2  0
 38  4  1  0
 28 12  1  0
 36 29  1  0
 27 18  1  0
M  END
>  <Binding energies>  (72) 
[-8.81]

>  <Ligand effiencies>  (72) 
[-0.2258974358974359]

>  <Interactions>  (72) 
["V-A:TYR:539:CZ:4877, V-A:ASP:366:CB:3211, V-A:ASN:362:CB:3175, V-A:ILE:538:CA:4860, V-A:PRO:540:C:4881, V-A:ILE:538:CG2:4863, V-A:ILE:538:CB:4862, V-A:TYR:539:CE1:4875, V-A:PRO:540:CB:4885, V-A:PRO:540:CA:4883, V-A:ASP:366:CG:3212, V-A:TYR:539:C:4867, V-A:PRO:540:N:4884, H-A:TYR:531:OH:4795, H-B:TYR:539:OH:9850, V-A:ASP:366:C:3207, V-B:ASP:366:CG:8184, V-B:TYR:539:CZ:9849, V-B:ASP:366:CB:8183, V-B:ASP:366:CA:8181, V-A:TYR:539:CD1:4873, V-B:TYR:539:CE2:9848, V-B:TYR:531:CZ:9766, V-A:TYR:539:CG:4872, V-B:ILE:369:CG2:8208, H-B:LYS:534:NZ:9795, V-B:TYR:531:CE1:9764, H-A:TYR:539:N:4870, V-A:GLY:453:C:4041, V-A:GLY:453:CA:4043, V-A:ARG:545:CZ:4926, V-A:ILE:369:CD1:3238, V-A:ILE:369:CG2:3236, V-A:GLY:454:CA:4048, V-A:MET:535:CB:4832, V-A:MET:535:CG:4833, V-A:ASP:366:CA:3209, V-A:ILE:369:CB:3235"]

$$$$
RR19_Rahimova_2017
     RDKit          3D

 46 51  0  0  0  0  0  0  0  0999 V2000
  127.2500  126.0290   62.1230 O   0  0  0  0  0  0  0  0  0  0  0  0
  127.5600  126.4810   61.0170 C   0  0  0  0  0  0  0  0  0  0  0  0
  127.9400  127.7580   60.7570 N   0  0  0  0  0  0  0  0  0  0  0  0
  128.3000  128.8100   61.5630 C   0  0  0  0  0  0  0  0  0  0  0  0
  128.6110  128.7180   63.2240 S   0  0  0  0  0  0  0  0  0  0  0  0
  128.3670  129.9470   60.7970 N   0  0  0  0  0  0  0  0  0  0  0  0
  128.8020  131.2080   61.0490 C   0  0  0  0  0  0  0  0  0  0  0  0
  129.4350  131.5780   62.0410 O   0  0  0  0  0  0  0  0  0  0  0  0
  128.4160  132.2370   59.9570 C   0  0  2  0  0  0  0  0  0  0  0  0
  127.0760  132.9870   60.2120 C   0  0  0  0  0  0  0  0  0  0  0  0
  126.1210  132.2980   61.1740 C   0  0  0  0  0  0  0  0  0  0  0  0
  126.2800  132.4300   62.5700 C   0  0  0  0  0  0  0  0  0  0  0  0
  125.3530  131.8600   63.4320 C   0  0  0  0  0  0  0  0  0  0  0  0
  124.2560  131.1730   62.9260 C   0  0  0  0  0  0  0  0  0  0  0  0
  124.0710  131.0600   61.5540 C   0  0  0  0  0  0  0  0  0  0  0  0
  124.9850  131.6260   60.6750 C   0  0  0  0  0  0  0  0  0  0  0  0
  128.4510  131.6240   58.6010 N   0  0  0  0  0  0  0  0  0  0  0  0
  129.4990  131.8350   57.7550 C   0  0  0  0  0  0  0  0  0  0  0  0
  130.4910  132.5370   57.9560 O   0  0  0  0  0  0  0  0  0  0  0  0
  129.1950  131.0360   56.5420 C   0  0  0  0  0  0  0  0  0  0  0  0
  129.9060  130.8740   55.3520 C   0  0  0  0  0  0  0  0  0  0  0  0
  129.3750  130.0390   54.3630 C   0  0  0  0  0  0  0  0  0  0  0  0
  128.1550  129.3820   54.5730 C   0  0  0  0  0  0  0  0  0  0  0  0
  127.4580  129.5570   55.7740 C   0  0  0  0  0  0  0  0  0  0  0  0
  128.0040  130.3950   56.7470 C   0  0  0  0  0  0  0  0  0  0  0  0
  127.5140  130.7650   58.0980 C   0  0  0  0  0  0  0  0  0  0  0  0
  126.4850  130.3710   58.6490 O   0  0  0  0  0  0  0  0  0  0  0  0
  127.5150  125.5570   59.7710 C   0  0  2  0  0  0  0  0  0  0  0  0
  127.0350  124.1090   60.0780 C   0  0  0  0  0  0  0  0  0  0  0  0
  126.7310  123.2850   58.8400 C   0  0  0  0  0  0  0  0  0  0  0  0
  125.4770  123.4010   58.2030 C   0  0  0  0  0  0  0  0  0  0  0  0
  125.2370  122.7250   57.0130 C   0  0  0  0  0  0  0  0  0  0  0  0
  126.2360  121.9550   56.4310 C   0  0  0  0  0  0  0  0  0  0  0  0
  127.4880  121.8640   57.0260 C   0  0  0  0  0  0  0  0  0  0  0  0
  127.7480  122.5310   58.2160 C   0  0  0  0  0  0  0  0  0  0  0  0
  128.7840  125.5580   58.9890 N   0  0  0  0  0  0  0  0  0  0  0  0
  129.0320  126.4900   58.0270 C   0  0  0  0  0  0  0  0  0  0  0  0
  128.2900  127.4050   57.6650 O   0  0  0  0  0  0  0  0  0  0  0  0
  130.3850  126.1700   57.5090 C   0  0  0  0  0  0  0  0  0  0  0  0
  131.1510  126.7800   56.5140 C   0  0  0  0  0  0  0  0  0  0  0  0
  132.4180  126.2580   56.2300 C   0  0  0  0  0  0  0  0  0  0  0  0
  132.9000  125.1490   56.9370 C   0  0  0  0  0  0  0  0  0  0  0  0
  132.1170  124.5520   57.9320 C   0  0  0  0  0  0  0  0  0  0  0  0
  130.8550  125.0870   58.1990 C   0  0  0  0  0  0  0  0  0  0  0  0
  129.8160  124.6830   59.1770 C   0  0  0  0  0  0  0  0  0  0  0  0
  129.8730  123.7580   59.9870 O   0  0  0  0  0  0  0  0  0  0  0  0
  1  2  2  0
  2  3  1  0
  3  4  1  0
  4  5  2  0
  4  6  1  0
  6  7  1  0
  7  8  2  0
  7  9  1  0
  9 10  1  1
 10 11  1  0
 11 12  2  0
 12 13  1  0
 13 14  2  0
 14 15  1  0
 15 16  2  0
  9 17  1  0
 17 18  1  0
 18 19  2  0
 18 20  1  0
 20 21  2  0
 21 22  1  0
 22 23  2  0
 23 24  1  0
 24 25  2  0
 25 26  1  0
 26 27  2  0
  2 28  1  0
 28 29  1  1
 29 30  1  0
 30 31  2  0
 31 32  1  0
 32 33  2  0
 33 34  1  0
 34 35  2  0
 28 36  1  0
 36 37  1  0
 37 38  2  0
 37 39  1  0
 39 40  2  0
 40 41  1  0
 41 42  2  0
 42 43  1  0
 43 44  2  0
 44 45  1  0
 45 46  2  0
 16 11  1  0
 26 17  1  0
 35 30  1  0
 45 36  1  0
 25 20  1  0
 44 39  1  0
M  END
>  <Binding energies>  (73) 
[-9.83]

>  <Ligand effiencies>  (73) 
[-0.20479166666666668]

>  <Interactions>  (73) 
["V-A:GLU:543:CD:4908, V-A:TYR:539:CZ:4877, V-A:ASP:366:CB:3211, H-A:ALA:541:N:4891, V-A:TYR:531:CZ:4794, V-A:TYR:539:CE1:4875, V-A:PRO:540:CA:4883, V-A:TYR:539:C:4867, V-A:PRO:540:N:4884, V-A:ASP:366:C:3207, V-B:PRO:540:CB:9857, V-B:TYR:539:CZ:9849, H-B:TYR:531:OH:9767, V-B:PRO:540:N:9856, V-B:TYR:539:CD2:9846, V-A:TYR:539:CD1:4873, V-B:LEU:363:CD1:8160, V-B:PRO:540:CD:9859, V-B:TYR:539:CE2:9848, V-B:PRO:540:CA:9855, V-B:MET:535:CE:9807, H-B:ARG:545:NH2:9900, V-B:TYR:531:CZ:9766, V-B:ILE:369:CG2:8208, V-B:LEU:475:CD1:9229, V-B:GLY:454:CA:9020, V-B:TYR:531:CE1:9764, V-B:ILE:369:CD1:8210, H-A:TYR:539:N:4870, V-B:TYR:539:C:9839, V-A:ASP:366:CA:3209, V-B:TYR:539:CA:9841, V-B:TYR:539:CG:9844, V-B:TYR:539:CD1:9845, V-A:TYR:531:CE1:4792"]

$$$$
RR1_Rahimova_2017
     RDKit          3D

 41 44  0  0  0  0  0  0  0  0999 V2000
  125.0120  122.0200   54.9370 C   0  0  0  0  0  0  0  0  0  0  0  0
  126.0030  121.4310   55.7720 O   0  0  0  0  0  0  0  0  0  0  0  0
  126.4250  122.1090   56.8990 C   0  0  0  0  0  0  0  0  0  0  0  0
  127.7310  122.0590   57.4100 C   0  0  0  0  0  0  0  0  0  0  0  0
  128.0630  122.7720   58.5580 C   0  0  0  0  0  0  0  0  0  0  0  0
  127.1040  123.5490   59.2100 C   0  0  0  0  0  0  0  0  0  0  0  0
  127.5250  124.1950   60.3880 N   0  0  0  0  0  0  0  0  0  0  0  0
  127.7170  123.6830   61.6220 C   0  0  0  0  0  0  0  0  0  0  0  0
  127.4750  122.5190   61.9450 O   0  0  0  0  0  0  0  0  0  0  0  0
  128.2730  124.6820   62.6500 C   0  0  0  0  0  0  0  0  0  0  0  0
  129.8900  125.4200   62.2290 S   0  0  0  0  0  0  0  0  0  0  0  0
  130.5480  124.0590   61.3250 C   0  0  0  0  0  0  0  0  0  0  0  0
  130.5190  122.8170   61.7390 N   0  0  0  0  0  0  0  0  0  0  0  0
  131.1030  122.1400   60.7560 C   0  0  0  0  0  0  0  0  0  0  0  0
  131.2770  120.6480   60.8000 C   0  0  0  0  0  0  0  0  0  0  0  0
  130.3030  119.8120   61.3690 C   0  0  0  0  0  0  0  0  0  0  0  0
  130.4940  118.4290   61.3980 C   0  0  0  0  0  0  0  0  0  0  0  0
  131.6650  117.9090   60.8510 C   0  0  0  0  0  0  0  0  0  0  0  0
  132.6260  118.6870   60.2930 N   0  0  0  0  0  0  0  0  0  0  0  0
  132.4210  120.0290   60.2740 C   0  0  0  0  0  0  0  0  0  0  0  0
  131.5160  122.8680   59.7350 N   0  0  0  0  0  0  0  0  0  0  0  0
  131.1620  124.1040   60.1000 N   0  0  0  0  0  0  0  0  0  0  0  0
  131.4210  125.2420   59.2180 C   0  0  0  0  0  0  0  0  0  0  0  0
  130.2940  126.2880   59.1590 C   0  0  0  0  0  0  0  0  0  0  0  0
  129.1160  125.9420   59.0110 O   0  0  0  0  0  0  0  0  0  0  0  0
  130.6990  127.5670   59.2750 N   0  0  0  0  0  0  0  0  0  0  0  0
  129.7280  128.5540   59.3790 N   0  0  0  0  0  0  0  0  0  0  0  0
  130.0730  129.7170   59.9710 C   0  0  0  0  0  0  0  0  0  0  0  0
  131.2210  129.9970   60.3330 O   0  0  0  0  0  0  0  0  0  0  0  0
  128.9490  130.7170   60.1560 C   0  0  0  0  0  0  0  0  0  0  0  0
  129.1910  131.9260   60.8170 C   0  0  0  0  0  0  0  0  0  0  0  0
  128.1720  132.8530   61.0080 C   0  0  0  0  0  0  0  0  0  0  0  0
  126.8710  132.5940   60.5480 C   0  0  0  0  0  0  0  0  0  0  0  0
  125.8100  133.4660   60.7170 O   0  0  0  0  0  0  0  0  0  0  0  0
  126.0670  134.8360   61.0020 C   0  0  0  0  0  0  0  0  0  0  0  0
  126.6060  131.3860   59.8890 C   0  0  0  0  0  0  0  0  0  0  0  0
  125.3030  131.1710   59.4720 O   0  0  0  0  0  0  0  0  0  0  0  0
  124.9930  130.0170   58.6990 C   0  0  0  0  0  0  0  0  0  0  0  0
  127.6470  130.4610   59.6960 C   0  0  0  0  0  0  0  0  0  0  0  0
  125.7970  123.6020   58.7020 C   0  0  0  0  0  0  0  0  0  0  0  0
  125.4690  122.8880   57.5530 C   0  0  0  0  0  0  0  0  0  0  0  0
  1  2  1  0
  2  3  1  0
  3  4  2  0
  4  5  1  0
  5  6  2  0
  6  7  1  0
  7  8  1  0
  8  9  2  0
  8 10  1  0
 10 11  1  0
 11 12  1  0
 12 13  2  0
 13 14  1  0
 14 15  1  0
 15 16  2  0
 16 17  1  0
 17 18  2  0
 18 19  1  0
 19 20  2  0
 14 21  2  0
 21 22  1  0
 22 23  1  0
 23 24  1  0
 24 25  2  0
 24 26  1  0
 26 27  1  0
 27 28  1  0
 28 29  2  0
 28 30  1  0
 30 31  2  0
 31 32  1  0
 32 33  2  0
 33 34  1  0
 34 35  1  0
 33 36  1  0
 36 37  1  0
 37 38  1  0
 36 39  2  0
  6 40  1  0
 40 41  2  0
 41  3  1  0
 22 12  1  0
 39 30  1  0
 20 15  1  0
M  END
>  <Binding energies>  (74) 
[-8.6]

>  <Ligand effiencies>  (74) 
[-0.19545454545454544]

>  <Interactions>  (74) 
["H-A:ASP:366:OD2:3214, V-A:TYR:539:CE1:4875, V-A:PRO:540:CA:4883, V-A:ASP:366:CG:3212, V-B:ASP:366:CG:8184, V-B:PRO:540:CB:9857, V-B:ALA:541:CB:9864, V-B:GLU:543:CD:9880, V-B:ASP:366:CB:8183, V-B:PRO:540:N:9856, V-B:TYR:539:CD2:9846, V-B:ASP:366:CA:8181, V-A:TYR:539:CD1:4873, V-B:ILE:538:CG2:9835, V-B:LEU:363:CD1:8160, V-B:PRO:540:CD:9859, V-B:TYR:539:CE2:9848, H-B:TYR:539:N:9842, V-B:PRO:540:CA:9855, V-B:MET:535:CE:9807, V-B:GLU:543:CG:9879, V-A:ALA:541:CB:4892, V-A:LEU:475:CD1:4257, V-B:TYR:539:C:9839, V-A:ILE:369:CG2:3236, H-B:ALA:541:N:9863, V-A:HIS:383:CE1:3392, V-A:PRO:482:CG:4326, V-B:TYR:539:CA:9841, V-B:TYR:539:CG:9844, H-A:HIS:383:NE2:3393, H-A:SER:385:OG:3409, V-A:PRO:482:CB:4325, V-B:ILE:538:CA:9832, V-B:ILE:538:CB:9834, V-B:ILE:538:CG1:9836, V-B:MET:535:CG:9805, V-B:MET:535:CB:9804"]

$$$$
RR22_Rahimova_2017
     RDKit          3D

 31 36  0  0  0  0  0  0  0  0999 V2000
  123.7000  129.6560   55.7460 O   0  0  0  0  0  0  0  0  0  0  0  0
  124.6140  129.6590   56.5670 C   0  0  0  0  0  0  0  0  0  0  0  0
  124.5200  129.4700   57.9350 N   0  0  0  0  0  0  0  0  0  0  0  0
  125.6970  129.4420   58.7490 C   0  0  1  0  0  0  0  0  0  0  0  0
  125.4860  130.4450   59.7470 O   0  0  0  0  0  0  0  0  0  0  0  0
  125.4890  130.0580   61.0870 C   0  0  0  0  0  0  0  0  0  0  0  0
  124.9260  130.9540   61.9950 C   0  0  0  0  0  0  0  0  0  0  0  0
  124.9290  130.6540   63.3580 C   0  0  0  0  0  0  0  0  0  0  0  0
  125.5010  129.4650   63.8100 C   0  0  0  0  0  0  0  0  0  0  0  0
  126.0650  128.5680   62.9010 C   0  0  0  0  0  0  0  0  0  0  0  0
  126.0470  128.8430   61.5300 C   0  0  0  0  0  0  0  0  0  0  0  0
  126.6690  127.9600   60.4720 C   0  0  1  0  0  0  0  0  0  0  0  0
  126.7310  126.4520   60.6030 C   0  0  0  0  0  0  0  0  0  0  0  0
  126.6750  126.0580   59.1250 C   0  0  0  0  0  0  0  0  0  0  0  0
  127.0870  124.7260   58.6370 C   0  0  0  0  0  0  0  0  0  0  0  0
  128.4020  124.2750   58.8220 C   0  0  0  0  0  0  0  0  0  0  0  0
  128.7850  123.0180   58.3620 C   0  0  0  0  0  0  0  0  0  0  0  0
  127.8580  122.2060   57.7150 C   0  0  0  0  0  0  0  0  0  0  0  0
  126.5480  122.6390   57.5250 C   0  0  0  0  0  0  0  0  0  0  0  0
  126.1630  123.8950   57.9860 C   0  0  0  0  0  0  0  0  0  0  0  0
  126.2110  127.0120   58.4090 N   0  0  0  0  0  0  0  0  0  0  0  0
  125.9040  128.0820   59.2670 N   0  0  0  0  0  0  0  0  0  0  0  0
  126.8440  129.9210   57.8710 C   0  0  0  0  0  0  0  0  0  0  0  0
  128.0270  130.3490   58.3720 C   0  0  0  0  0  0  0  0  0  0  0  0
  129.2200  130.8160   57.6400 C   0  0  0  0  0  0  0  0  0  0  0  0
  130.4300  130.1080   57.6130 C   0  0  0  0  0  0  0  0  0  0  0  0
  131.5180  130.6130   56.9000 C   0  0  0  0  0  0  0  0  0  0  0  0
  131.3690  131.8270   56.2300 C   0  0  0  0  0  0  0  0  0  0  0  0
  130.2130  132.5380   56.2450 N   0  0  0  0  0  0  0  0  0  0  0  0
  129.1660  132.0300   56.9440 C   0  0  0  0  0  0  0  0  0  0  0  0
  126.3680  129.9260   56.1660 S   0  0  0  0  0  0  0  0  0  0  0  0
  1  2  2  0
  2  3  1  0
  4  3  1  6
  4  5  1  0
  5  6  1  0
  6  7  2  0
  7  8  1  0
  8  9  2  0
  9 10  1  0
 10 11  2  0
 11 12  1  0
 12 13  1  1
 13 14  1  0
 14 15  1  0
 15 16  2  0
 16 17  1  0
 17 18  2  0
 18 19  1  0
 19 20  2  0
 14 21  2  0
 21 22  1  0
  4 23  1  0
 23 24  2  0
 24 25  1  0
 25 26  2  0
 26 27  1  0
 27 28  2  0
 28 29  1  0
 29 30  2  0
 23 31  1  0
 31  2  1  0
 22  4  1  0
 30 25  1  0
 11  6  1  0
 22 12  1  0
 20 15  1  0
M  END
>  <Binding energies>  (75) 
[-9.13]

>  <Ligand effiencies>  (75) 
[-0.2853125]

>  <Interactions>  (75) 
["V-A:TYR:539:CZ:4877, V-A:TYR:539:CE1:4875, V-A:TYR:539:C:4867, V-B:ASP:366:CG:8184, V-B:PRO:540:CB:9857, H-B:TYR:531:OH:9767, V-B:ASP:366:CB:8183, V-B:PRO:540:N:9856, V-B:TYR:539:CD2:9846, V-B:ASP:366:CA:8181, V-A:TYR:539:CD1:4873, H-B:ASP:366:OD2:8186, H-B:ASP:366:O:8180, V-B:TYR:539:CE2:9848, V-B:PRO:540:CA:9855, V-B:MET:535:CE:9807, V-B:TYR:531:CZ:9766, V-A:TYR:539:CG:4872, H-A:TYR:539:OH:4878, V-B:TYR:531:CE1:9764, V-B:ARG:545:CZ:9898, H-A:TYR:539:N:4870, V-B:TYR:539:C:9839, V-B:ASP:366:C:8179, V-B:TYR:531:CD1:9762"]

$$$$
RR24_Rahimova_2017
     RDKit          3D

 43 49  0  0  0  0  0  0  0  0999 V2000
  128.6200  132.4720   54.9680 C   0  0  0  0  0  0  0  0  0  0  0  0
  129.5020  131.2180   55.0580 C   0  0  2  0  0  0  0  0  0  0  0  0
  128.7260  129.8990   54.7710 C   0  0  0  0  0  0  0  0  0  0  0  0
  127.4930  129.8420   54.8100 O   0  0  0  0  0  0  0  0  0  0  0  0
  129.5590  128.8500   54.5070 O   0  0  0  0  0  0  0  0  0  0  0  0
  129.5300  127.7390   55.3190 C   0  0  0  0  0  0  0  0  0  0  0  0
  130.1190  126.5520   54.8770 C   0  0  0  0  0  0  0  0  0  0  0  0
  130.1040  125.4250   55.6930 C   0  0  0  0  0  0  0  0  0  0  0  0
  129.5080  125.4800   56.9560 C   0  0  0  0  0  0  0  0  0  0  0  0
  129.4770  124.2290   57.8420 C   0  0  1  0  0  0  0  0  0  0  0  0
  130.7240  124.1360   58.7530 C   0  0  0  0  0  0  0  0  0  0  0  0
  130.6430  123.9360   60.0810 C   0  0  0  0  0  0  0  0  0  0  0  0
  129.4390  123.8020   60.7290 N   0  0  0  0  0  0  0  0  0  0  0  0
  128.2480  123.8670   60.0450 C   0  0  0  0  0  0  0  0  0  0  0  0
  127.1520  123.7060   60.8290 N   0  0  0  0  0  0  0  0  0  0  0  0
  125.8860  123.8180   60.3420 C   0  0  0  0  0  0  0  0  0  0  0  0
  124.9500  123.9810   61.1270 O   0  0  0  0  0  0  0  0  0  0  0  0
  125.8170  123.9000   58.9600 N   0  0  0  0  0  0  0  0  0  0  0  0
  124.4620  123.9310   58.3730 C   0  0  0  0  0  0  0  0  0  0  0  0
  126.8650  124.0680   58.0700 C   0  0  0  0  0  0  0  0  0  0  0  0
  126.7250  124.1860   56.8490 O   0  0  0  0  0  0  0  0  0  0  0  0
  128.1880  124.0710   58.7030 C   0  0  0  0  0  0  0  0  0  0  0  0
  131.9660  123.8920   60.6800 C   0  0  0  0  0  0  0  0  0  0  0  0
  132.4120  123.7170   61.9910 C   0  0  0  0  0  0  0  0  0  0  0  0
  133.7850  123.7240   62.2500 C   0  0  0  0  0  0  0  0  0  0  0  0
  134.6980  123.9020   61.2060 C   0  0  0  0  0  0  0  0  0  0  0  0
  134.2450  124.0760   59.8960 C   0  0  0  0  0  0  0  0  0  0  0  0
  132.8720  124.0700   59.6430 C   0  0  0  0  0  0  0  0  0  0  0  0
  132.1300  124.2270   58.3740 C   0  0  0  0  0  0  0  0  0  0  0  0
  132.5520  124.3970   57.2320 O   0  0  0  0  0  0  0  0  0  0  0  0
  128.9350  126.6750   57.4030 C   0  0  0  0  0  0  0  0  0  0  0  0
  128.9510  127.8040   56.5890 C   0  0  0  0  0  0  0  0  0  0  0  0
  130.2650  131.1610   56.3400 N   0  0  0  0  0  0  0  0  0  0  0  0
  131.6280  131.1370   56.3580 C   0  0  0  0  0  0  0  0  0  0  0  0
  132.3890  131.1490   55.3890 O   0  0  0  0  0  0  0  0  0  0  0  0
  132.0030  131.0920   57.7940 C   0  0  0  0  0  0  0  0  0  0  0  0
  133.2540  131.0520   58.4100 C   0  0  0  0  0  0  0  0  0  0  0  0
  133.3110  131.0180   59.8080 C   0  0  0  0  0  0  0  0  0  0  0  0
  132.1310  131.0260   60.5630 C   0  0  0  0  0  0  0  0  0  0  0  0
  130.8860  131.0670   59.9260 C   0  0  0  0  0  0  0  0  0  0  0  0
  130.8500  131.0990   58.5310 C   0  0  0  0  0  0  0  0  0  0  0  0
  129.7050  131.1480   57.5880 C   0  0  0  0  0  0  0  0  0  0  0  0
  128.5070  131.1770   57.8710 O   0  0  0  0  0  0  0  0  0  0  0  0
  2  1  1  1
  2  3  1  0
  3  4  2  0
  3  5  1  0
  5  6  1  0
  6  7  2  0
  7  8  1  0
  8  9  2  0
 10  9  1  1
 10 11  1  0
 11 12  2  0
 12 13  1  0
 13 14  1  0
 14 15  1  0
 15 16  1  0
 16 17  2  0
 16 18  1  0
 18 19  1  0
 18 20  1  0
 20 21  2  0
 20 22  1  0
 12 23  1  0
 23 24  2  0
 24 25  1  0
 25 26  2  0
 26 27  1  0
 27 28  2  0
 28 29  1  0
 29 30  2  0
  9 31  1  0
 31 32  2  0
  2 33  1  0
 33 34  1  0
 34 35  2  0
 34 36  1  0
 36 37  2  0
 37 38  1  0
 38 39  2  0
 39 40  1  0
 40 41  2  0
 41 42  1  0
 42 43  2  0
 32  6  1  0
 42 33  1  0
 22 10  1  0
 28 23  1  0
 41 36  1  0
 29 11  1  0
 22 14  2  0
M  END
>  <Binding energies>  (76) 
[-11.23]

>  <Ligand effiencies>  (76) 
[-0.24955555555555556]

>  <Interactions>  (76) 
["V-A:TYR:539:CZ:4877, V-A:ASP:366:CB:3211, V-A:ILE:538:CA:4860, V-A:ILE:538:C:4858, V-A:ILE:538:CB:4862, V-A:TYR:539:CE1:4875, V-A:TYR:539:CE2:4876, V-A:PRO:540:CB:4885, V-A:PRO:540:CA:4883, V-A:ASP:366:CG:3212, V-A:LEU:363:CD1:3188, V-A:TYR:539:CD2:4874, H-A:TYR:531:OH:4795, H-B:TYR:539:OH:9850, V-B:PRO:540:CB:9857, V-B:TYR:539:CZ:9849, H-B:TYR:531:OH:9767, V-A:TYR:539:CD1:4873, V-B:LEU:363:CD1:8160, V-B:TYR:539:CE2:9848, V-B:PRO:540:CA:9855, V-B:MET:535:CE:9807, H-B:ARG:545:NH2:9900, H-B:GLU:543:OE1:9881, V-A:TYR:539:CG:4872, H-A:TYR:539:OH:4878, H-B:LYS:534:NZ:9795, V-A:ASN:362:C:3171, V-A:LEU:363:CA:3184, V-B:LEU:363:CA:8156, V-B:LEU:363:CB:8158, V-A:ILE:369:CD1:3238, V-A:ILE:369:CG2:3236, V-A:LEU:363:CB:3186, V-A:ASP:366:CA:3209, V-A:ILE:369:CB:3235"]

$$$$
RR25_Rahimova_2017
     RDKit          3D

 39 44  0  0  0  0  0  0  0  0999 V2000
  126.8930  131.7340   65.4000 O   0  0  0  0  0  0  0  0  0  0  0  0
  126.9840  130.6020   65.8760 C   0  0  0  0  0  0  0  0  0  0  0  0
  128.1890  130.2820   66.4520 O   0  0  0  0  0  0  0  0  0  0  0  0
  128.3370  129.1500   67.2330 C   0  0  0  0  0  0  0  0  0  0  0  0
  129.3480  129.1780   68.1930 C   0  0  0  0  0  0  0  0  0  0  0  0
  129.5590  128.0690   69.0090 C   0  0  0  0  0  0  0  0  0  0  0  0
  128.7680  126.9180   68.8760 C   0  0  0  0  0  0  0  0  0  0  0  0
  128.9900  125.7410   69.7510 N   0  0  0  0  0  0  0  0  0  0  0  0
  128.7560  125.8500   70.9520 O   0  0  0  0  0  0  0  0  0  0  0  0
  129.3980  124.7000   69.2450 O   0  0  0  0  0  0  0  0  0  0  0  0
  127.7640  126.9050   67.8940 C   0  0  0  0  0  0  0  0  0  0  0  0
  127.5440  128.0060   67.0620 C   0  0  0  0  0  0  0  0  0  0  0  0
  126.4650  128.0460   65.9960 C   0  0  0  0  0  0  0  0  0  0  0  0
  125.8970  129.4880   65.8790 C   0  0  2  0  0  0  0  0  0  0  0  0
  124.8560  129.5890   64.7260 C   0  0  0  0  0  0  0  0  0  0  0  0
  123.6700  129.6290   65.0680 O   0  0  0  0  0  0  0  0  0  0  0  0
  125.2290  129.7540   63.4210 N   0  0  0  0  0  0  0  0  0  0  0  0
  126.5780  129.4090   62.9250 C   0  0  0  0  0  0  0  0  0  0  0  0
  126.9990  130.4400   61.8570 C   0  0  0  0  0  0  0  0  0  0  0  0
  126.0050  130.5350   60.7840 N   0  0  0  0  0  0  0  0  0  0  0  0
  126.4640  131.4150   59.7010 C   0  0  0  0  0  0  0  0  0  0  0  0
  127.6050  132.3700   60.1440 C   0  0  0  0  0  0  0  0  0  0  0  0
  128.9940  131.9150   59.8440 N   0  0  0  0  0  0  0  0  0  0  0  0
  129.2590  131.6690   58.5130 C   0  0  0  0  0  0  0  0  0  0  0  0
  128.4070  131.7770   57.6230 O   0  0  0  0  0  0  0  0  0  0  0  0
  130.6920  131.2720   58.2170 C   0  0  0  0  0  0  0  0  0  0  0  0
  131.0770  131.0230   56.8930 C   0  0  0  0  0  0  0  0  0  0  0  0
  132.3880  130.6640   56.5840 C   0  0  0  0  0  0  0  0  0  0  0  0
  133.3530  130.5440   57.5830 C   0  0  0  0  0  0  0  0  0  0  0  0
  133.0100  130.7850   58.9350 C   0  0  0  0  0  0  0  0  0  0  0  0
  133.9380  130.6840   59.9980 C   0  0  0  0  0  0  0  0  0  0  0  0
  133.5340  130.9380   61.3070 C   0  0  0  0  0  0  0  0  0  0  0  0
  132.2180  131.2940   61.5940 C   0  0  0  0  0  0  0  0  0  0  0  0
  131.2640  131.4060   60.5740 C   0  0  0  0  0  0  0  0  0  0  0  0
  131.6680  131.1500   59.2390 C   0  0  0  0  0  0  0  0  0  0  0  0
  129.8430  131.8040   60.9260 C   0  0  0  0  0  0  0  0  0  0  0  0
  129.4930  132.0240   62.0900 O   0  0  0  0  0  0  0  0  0  0  0  0
  124.7210  130.9770   61.3330 C   0  0  0  0  0  0  0  0  0  0  0  0
  124.1850  129.9910   62.3980 C   0  0  0  0  0  0  0  0  0  0  0  0
  1  2  2  0
  2  3  1  0
  3  4  1  0
  4  5  2  0
  5  6  1  0
  6  7  2  0
  7  8  1  0
  8  9  2  0
  8 10  1  0
  7 11  1  0
 11 12  2  0
 12 13  1  0
 13 14  1  0
 14 15  1  6
 15 16  2  0
 15 17  1  0
 17 18  1  0
 18 19  1  0
 19 20  1  0
 20 21  1  0
 21 22  1  0
 22 23  1  0
 23 24  1  0
 24 25  2  0
 24 26  1  0
 26 27  2  0
 27 28  1  0
 28 29  2  0
 29 30  1  0
 30 31  2  0
 31 32  1  0
 32 33  2  0
 33 34  1  0
 34 35  2  0
 34 36  1  0
 36 37  2  0
 20 38  1  0
 38 39  1  0
 14  2  1  0
 39 17  1  0
 12  4  1  0
 36 23  1  0
 35 26  1  0
 35 30  1  0
M  CHG  2   8   1  10  -1
M  END
>  <Binding energies>  (77) 
[-10.66]

>  <Ligand effiencies>  (77) 
[-0.2733333333333333]

>  <Interactions>  (77) 
["V-A:GLU:543:CD:4908, V-A:ASP:366:CB:3211, V-A:ASN:362:CB:3175, H-A:ALA:541:N:4891, V-A:TYR:531:CZ:4794, V-A:PRO:540:C:4881, V-A:TYR:539:CE1:4875, V-A:PRO:540:CB:4885, V-A:PRO:540:CA:4883, V-A:ASP:366:CG:3212, V-A:TYR:539:C:4867, V-A:PRO:540:N:4884, V-A:LEU:363:CD1:3188, V-B:ASP:366:CG:8184, V-B:GLU:543:CD:9880, V-A:TYR:539:CD1:4873, H-B:ARG:545:NH2:9900, V-A:GLU:543:CG:4907, V-A:ALA:541:CB:4892, V-A:GLU:543:CB:4906, V-B:ARG:545:CZ:9898, V-B:HIS:456:CE1:9041, V-B:TYR:484:CE2:9317, H-B:GLY:454:N:9021, H-B:ARG:545:NH1:9899, V-B:TYR:484:CZ:9318, V-A:GLU:543:C:4902, V-B:GLU:543:CB:9878, V-A:GLU:543:CA:4904, H-B:TYR:484:OH:9319, V-A:HIS:456:CE1:4069, H-B:ARG:545:NE:9896, V-A:ASN:362:C:3171, V-A:LEU:363:CA:3184, V-A:LEU:363:CB:3186, V-B:GLU:543:C:9874, V-A:ASN:362:CA:3173"]

$$$$
RR27_Rahimova_2017
     RDKit          3D

 39 44  0  0  0  0  0  0  0  0999 V2000
  130.2870  121.8960   59.1690 O   0  0  0  0  0  0  0  0  0  0  0  0
  129.3720  122.5790   59.6400 C   0  0  0  0  0  0  0  0  0  0  0  0
  128.7770  123.7210   58.7650 C   0  0  0  0  0  0  0  0  0  0  0  0
  127.5360  123.2850   57.9650 C   0  0  0  0  0  0  0  0  0  0  0  0
  127.5110  122.0900   57.2290 C   0  0  0  0  0  0  0  0  0  0  0  0
  126.3710  121.7250   56.5190 C   0  0  0  0  0  0  0  0  0  0  0  0
  125.2520  122.5520   56.5390 C   0  0  0  0  0  0  0  0  0  0  0  0
  125.2620  123.7420   57.2620 C   0  0  0  0  0  0  0  0  0  0  0  0
  126.4020  124.1070   57.9720 C   0  0  0  0  0  0  0  0  0  0  0  0
  129.8650  124.4340   57.9390 C   0  0  0  0  0  0  0  0  0  0  0  0
  131.1840  124.5440   58.3970 C   0  0  0  0  0  0  0  0  0  0  0  0
  132.1410  125.2060   57.6300 C   0  0  0  0  0  0  0  0  0  0  0  0
  131.7790  125.7640   56.4070 C   0  0  0  0  0  0  0  0  0  0  0  0
  130.4690  125.6710   55.9450 C   0  0  0  0  0  0  0  0  0  0  0  0
  129.5150  125.0110   56.7120 C   0  0  0  0  0  0  0  0  0  0  0  0
  128.7820  122.2620   60.8280 N   0  0  0  0  0  0  0  0  0  0  0  0
  127.8780  123.1680   61.5510 C   0  0  0  0  0  0  0  0  0  0  0  0
  128.7630  124.0630   62.4470 C   0  0  0  0  0  0  0  0  0  0  0  0
  129.6940  123.2380   63.3920 C   0  0  0  0  0  0  0  0  0  0  0  0
  130.6770  124.0800   64.2250 C   0  0  0  0  0  0  0  0  0  0  0  0
  131.9600  124.1500   63.7640 N   0  0  0  0  0  0  0  0  0  0  0  0
  132.8630  124.9030   64.4490 C   0  0  0  0  0  0  0  0  0  0  0  0
  134.1750  125.0540   64.0830 O   0  0  0  0  0  0  0  0  0  0  0  0
  132.4370  125.5790   65.6090 C   0  0  0  0  0  0  0  0  0  0  0  0
  133.0610  126.3990   66.5030 N   0  0  0  0  0  0  0  0  0  0  0  0
  132.1250  126.7590   67.4530 N   0  0  0  0  0  0  0  0  0  0  0  0
  130.9450  126.1790   67.1450 N   0  0  0  0  0  0  0  0  0  0  0  0
  129.7780  126.3710   68.0020 C   0  0  0  0  0  0  0  0  0  0  0  0
  128.9660  127.6140   67.6610 C   0  0  0  0  0  0  0  0  0  0  0  0
  129.0690  128.7610   68.4540 C   0  0  0  0  0  0  0  0  0  0  0  0
  128.3330  129.9040   68.1350 C   0  0  0  0  0  0  0  0  0  0  0  0
  127.4970  129.9070   67.0190 C   0  0  0  0  0  0  0  0  0  0  0  0
  127.3970  128.7690   66.2180 C   0  0  0  0  0  0  0  0  0  0  0  0
  126.3820  128.7790   64.8210 Cl  0  0  0  0  0  0  0  0  0  0  0  0
  128.1260  127.6240   66.5410 C   0  0  0  0  0  0  0  0  0  0  0  0
  131.0890  125.4210   65.9950 C   0  0  0  0  0  0  0  0  0  0  0  0
  130.1850  124.6830   65.3450 N   0  0  0  0  0  0  0  0  0  0  0  0
  130.3750  122.0500   62.6450 C   0  0  0  0  0  0  0  0  0  0  0  0
  129.4040  121.2730   61.7210 C   0  0  0  0  0  0  0  0  0  0  0  0
  1  2  2  0
  2  3  1  0
  3  4  1  0
  4  5  2  0
  5  6  1  0
  6  7  2  0
  7  8  1  0
  8  9  2  0
  3 10  1  0
 10 11  2  0
 11 12  1  0
 12 13  2  0
 13 14  1  0
 14 15  2  0
  2 16  1  0
 16 17  1  0
 17 18  1  0
 18 19  1  0
 19 20  1  0
 20 21  2  0
 21 22  1  0
 22 23  1  0
 22 24  2  0
 24 25  1  0
 25 26  2  0
 26 27  1  0
 27 28  1  0
 28 29  1  0
 29 30  2  0
 30 31  1  0
 31 32  2  0
 32 33  1  0
 33 34  1  0
 33 35  2  0
 27 36  1  0
 36 37  2  0
 19 38  1  0
 38 39  1  0
  9  4  1  0
 15 10  1  0
 39 16  1  0
 37 20  1  0
 36 24  1  0
 35 29  1  0
M  END
>  <Binding energies>  (78) 
[-11.13]

>  <Ligand effiencies>  (78) 
[-0.27825]

>  <Interactions>  (78) 
["V-A:ASP:366:CB:3211, H-A:ASP:366:OD1:3213, V-A:ASP:366:CG:3212, V-B:PRO:540:CB:9857, V-B:TYR:539:CZ:9849, V-B:ALA:541:CB:9864, V-B:GLU:543:CD:9880, V-B:PRO:540:N:9856, V-B:LEU:363:CD1:8160, V-B:PRO:540:CD:9859, V-B:PRO:540:C:9853, V-B:TYR:539:CE2:9848, V-B:PRO:540:CA:9855, V-B:ALA:541:CA:9862, V-B:MET:535:CE:9807, V-B:GLU:543:CG:9879, V-B:TYR:531:CE2:9765, V-A:GLU:543:CG:4907, V-B:TYR:531:CZ:9766, V-A:GLU:543:CB:4906, V-B:ARG:545:CZ:9898, V-B:HIS:456:CE1:9041, V-B:TYR:484:CE2:9317, V-B:TYR:484:CZ:9318, V-A:GLU:543:C:4902, V-A:GLU:543:CA:4904, H-A:ARG:545:NH2:4928, V-A:LEU:475:CD1:4257, V-A:HIS:456:CE1:4069, H-A:ARG:545:NH1:4927, H-A:ARG:545:NE:4924, H-A:GLY:454:N:4049, V-A:ARG:545:CZ:4926, H-A:TYR:484:OH:4347, V-A:TYR:484:CZ:4346, V-B:TYR:539:C:9839, V-B:TYR:539:CA:9841, V-B:TYR:539:CG:9844, V-B:TYR:484:CD2:9315"]

$$$$
RR28_Rahimova_2017
     RDKit          3D

 46 49  0  0  0  0  0  0  0  0999 V2000
  125.3290  131.4040   64.5010 C   0  0  0  0  0  0  0  0  0  0  0  0
  125.0590  131.9180   63.0910 C   0  0  0  0  0  0  0  0  0  0  0  0
  123.9530  132.3790   62.8140 O   0  0  0  0  0  0  0  0  0  0  0  0
  126.0810  131.8300   62.2170 N   0  0  0  0  0  0  0  0  0  0  0  0
  126.1080  132.2370   60.7940 C   0  0  0  0  0  0  0  0  0  0  0  0
  126.0140  133.7890   60.7310 C   0  0  0  0  0  0  0  0  0  0  0  0
  124.8650  134.3870   60.1910 C   0  0  0  0  0  0  0  0  0  0  0  0
  124.7480  135.7710   60.1140 C   0  0  0  0  0  0  0  0  0  0  0  0
  125.7790  136.5910   60.5760 C   0  0  0  0  0  0  0  0  0  0  0  0
  125.6340  138.1090   60.4800 C   0  0  0  0  0  0  0  0  0  0  0  0
  126.6230  138.6690   59.7780 F   0  0  0  0  0  0  0  0  0  0  0  0
  124.4810  138.4280   59.8920 F   0  0  0  0  0  0  0  0  0  0  0  0
  125.6490  138.6300   61.7070 F   0  0  0  0  0  0  0  0  0  0  0  0
  126.9290  136.0080   61.1150 C   0  0  0  0  0  0  0  0  0  0  0  0
  127.0450  134.6230   61.1900 C   0  0  0  0  0  0  0  0  0  0  0  0
  124.9770  131.5020   59.9900 C   0  0  0  0  0  0  0  0  0  0  0  0
  125.1850  129.9690   59.9010 C   0  0  0  0  0  0  0  0  0  0  0  0
  126.4890  129.7630   59.2510 N   0  0  0  0  0  0  0  0  0  0  0  0
  126.5660  129.5830   57.9040 C   0  0  0  0  0  0  0  0  0  0  0  0
  125.5610  129.4180   57.2080 O   0  0  0  0  0  0  0  0  0  0  0  0
  127.9590  129.4180   57.2490 C   0  0  0  0  0  0  0  0  0  0  0  0
  128.0060  128.5430   55.9660 C   0  0  0  0  0  0  0  0  0  0  0  0
  129.1380  127.4890   55.9320 C   0  0  0  0  0  0  0  0  0  0  0  0
  129.7730  127.3560   54.8830 O   0  0  0  0  0  0  0  0  0  0  0  0
  129.4930  126.8420   57.0780 N   0  0  0  0  0  0  0  0  0  0  0  0
  128.6080  126.7160   58.2420 C   0  0  0  0  0  0  0  0  0  0  0  0
  127.7170  125.4800   57.9880 C   0  0  0  0  0  0  0  0  0  0  0  0
  128.5030  124.1480   57.7280 C   0  0  0  0  0  0  0  0  0  0  0  0
  127.5910  123.1590   57.1140 N   0  0  0  0  0  0  0  0  0  0  0  0
  126.2740  123.2900   56.8570 C   0  0  0  0  0  0  0  0  0  0  0  0
  125.5850  122.0830   56.2290 C   0  0  0  0  0  0  0  0  0  0  0  0
  125.6220  124.3050   57.0990 O   0  0  0  0  0  0  0  0  0  0  0  0
  128.9410  123.5850   59.1190 C   0  0  0  0  0  0  0  0  0  0  0  0
  128.0270  123.2890   60.1440 C   0  0  0  0  0  0  0  0  0  0  0  0
  128.4590  122.7880   61.3680 C   0  0  0  0  0  0  0  0  0  0  0  0
  129.8190  122.5710   61.6020 C   0  0  0  0  0  0  0  0  0  0  0  0
  130.3080  122.0180   62.9400 C   0  0  0  0  0  0  0  0  0  0  0  0
  131.4700  122.5770   63.2830 F   0  0  0  0  0  0  0  0  0  0  0  0
  129.4080  122.2930   63.8820 F   0  0  0  0  0  0  0  0  0  0  0  0
  130.4850  120.6960   62.9020 F   0  0  0  0  0  0  0  0  0  0  0  0
  130.7410  122.8680   60.5970 C   0  0  0  0  0  0  0  0  0  0  0  0
  130.3050  123.3690   59.3740 C   0  0  0  0  0  0  0  0  0  0  0  0
  129.7190  124.4460   56.7680 C   0  0  0  0  0  0  0  0  0  0  0  0
  130.4910  125.7650   57.0370 C   0  0  0  0  0  0  0  0  0  0  0  0
  127.6220  130.2500   60.0510 C   0  0  0  0  0  0  0  0  0  0  0  0
  127.4690  131.7880   60.1680 C   0  0  0  0  0  0  0  0  0  0  0  0
  1  2  1  0
  2  3  2  0
  2  4  1  0
  4  5  1  0
  5  6  1  0
  6  7  2  0
  7  8  1  0
  8  9  2  0
  9 10  1  0
 10 11  1  0
 10 12  1  0
 10 13  1  0
  9 14  1  0
 14 15  2  0
  5 16  1  0
 16 17  1  0
 17 18  1  0
 18 19  1  0
 19 20  2  0
 19 21  1  0
 21 22  1  0
 22 23  1  0
 23 24  2  0
 23 25  1  0
 25 26  1  0
 26 27  1  0
 27 28  1  0
 28 29  1  0
 29 30  1  0
 30 31  1  0
 30 32  2  0
 28 33  1  0
 33 34  2  0
 34 35  1  0
 35 36  2  0
 36 37  1  0
 37 38  1  0
 37 39  1  0
 37 40  1  0
 36 41  1  0
 41 42  2  0
 28 43  1  0
 43 44  1  0
 18 45  1  0
 45 46  1  0
 46  5  1  0
 15  6  1  0
 44 25  1  0
 42 33  1  0
M  END
>  <Binding energies>  (79) 
[-9.53]

>  <Ligand effiencies>  (79) 
[-0.19854166666666664]

>  <Interactions>  (79) 
["V-A:TYR:539:CE1:4875, H-A:TYR:531:OH:4795, V-B:ASP:366:CG:8184, V-B:TYR:539:CZ:9849, V-B:ALA:541:CB:9864, H-B:TYR:531:OH:9767, V-B:ASP:366:CB:8183, V-B:PRO:540:N:9856, V-A:TYR:539:CD1:4873, V-B:LEU:363:CD1:8160, V-B:PRO:540:CD:9859, V-B:TYR:539:CE2:9848, V-B:PRO:540:CA:9855, V-B:ALA:541:CA:9862, V-B:MET:535:CE:9807, V-B:GLU:543:CG:9879, V-B:TYR:531:CZ:9766, V-B:ILE:369:CG2:8208, H-A:TYR:539:OH:4878, V-B:LEU:475:CD1:9229, V-A:ALA:541:CB:4892, V-B:GLY:454:CA:9020, V-B:TYR:531:CE1:9764, H-B:GLY:454:N:9021, V-A:LEU:475:CD1:4257, H-B:TYR:539:O:9840, V-A:TYR:539:CB:4871, V-A:VAL:344:CG1:3000, V-B:SER:385:CB:8380, V-B:LEU:373:CD1:8251, V-B:PRO:482:CG:9298, V-B:SER:385:CA:8378, V-B:PRO:482:CB:9297"]

$$$$
RR29_Rahimova_2017
     RDKit          3D

 18 19  0  0  0  0  0  0  0  0999 V2000
  133.4630  129.8070   57.0630 C   0  0  0  0  0  0  0  0  0  0  0  0
  133.2070  130.5480   58.3670 C   0  0  0  0  0  0  0  0  0  0  0  0
  131.8220  131.2320   58.4100 C   0  0  0  0  0  0  0  0  0  0  0  0
  131.6030  132.1530   57.1920 C   0  0  0  0  0  0  0  0  0  0  0  0
  130.4030  131.7310   56.3570 C   0  0  0  0  0  0  0  0  0  0  0  0
  130.3060  132.1330   55.0100 C   0  0  0  0  0  0  0  0  0  0  0  0
  129.2100  131.7540   54.2230 C   0  0  0  0  0  0  0  0  0  0  0  0
  128.2230  130.9810   54.8250 C   0  0  0  0  0  0  0  0  0  0  0  0
  128.3110  130.5900   56.1310 C   0  0  0  0  0  0  0  0  0  0  0  0
  129.3910  130.9420   56.9330 C   0  0  0  0  0  0  0  0  0  0  0  0
  127.2350  129.8200   56.4430 O   0  0  0  0  0  0  0  0  0  0  0  0
  126.3650  129.9230   55.3470 C   0  0  0  0  0  0  0  0  0  0  0  0
  127.0900  130.4680   54.2770 O   0  0  0  0  0  0  0  0  0  0  0  0
  134.1220  130.5470   59.2650 N   0  0  0  0  0  0  0  0  0  0  0  0
  133.9270  131.2870   60.4100 N   0  0  0  0  0  0  0  0  0  0  0  0
  133.0180  130.9880   61.3530 C   0  0  0  0  0  0  0  0  0  0  0  0
  132.2020  129.9340   61.3180 N   0  0  0  0  0  0  0  0  0  0  0  0
  132.9230  131.7990   62.3960 N   0  0  0  0  0  0  0  0  0  0  0  0
  1  2  1  0
  2  3  1  0
  3  4  1  0
  4  5  1  0
  5  6  2  0
  6  7  1  0
  7  8  2  0
  8  9  1  0
  9 10  2  0
  9 11  1  0
 11 12  1  0
 12 13  1  0
  2 14  2  0
 14 15  1  0
 15 16  1  0
 16 17  1  0
 16 18  2  0
 10  5  1  0
 13  8  1  0
M  CHG  1  18   1
M  END
>  <Binding energies>  (80) 
[-8.39]

>  <Ligand effiencies>  (80) 
[-0.3647826086956522]

>  <Interactions>  (80) 
["V-A:GLU:543:CD:4908, H-A:LEU:363:N:3185, V-A:TYR:539:CZ:4877, H-A:ASP:366:OD2:3214, V-A:ASP:366:CB:3211, V-A:ASN:362:CB:3175, H-A:GLU:543:OE1:4909, V-A:ILE:538:CA:4860, V-A:PRO:540:CD:4887, V-A:ALA:541:C:4888, V-A:TYR:531:CZ:4794, V-A:PRO:540:C:4881, V-A:ILE:538:CG2:4863, V-A:ILE:538:C:4858, H-A:ALA:541:O:4889, V-A:ILE:538:CB:4862, V-A:TYR:539:CE1:4875, V-A:PRO:540:CB:4885, V-A:PRO:540:CA:4883, V-A:ASP:366:CG:3212, V-A:TYR:539:C:4867, H-A:GLU:543:OE2:4910, V-A:PRO:540:N:4884, V-A:LEU:363:CD1:3188, V-A:PRO:540:CG:4886, H-B:TYR:531:OH:9767, V-B:TYR:531:CZ:9766, H-A:TYR:539:OH:4878, H-B:LYS:534:NZ:9795, V-B:TYR:531:CE1:9764, V-A:ALA:541:CA:4890, V-A:ASN:362:C:3171, V-A:LEU:363:CA:3184, V-A:ASN:362:CA:3173, V-A:ASN:362:CG:3176, H-A:ASN:359:O:3147"]

$$$$
RR30_Rahimova_2017
     RDKit          3D

 18 19  0  0  0  0  0  0  0  0999 V2000
  129.5540  131.7200   60.6960 C   0  0  0  0  0  0  0  0  0  0  0  0
  130.8430  131.2530   61.3890 C   0  0  0  0  0  0  0  0  0  0  0  0
  131.9720  131.0280   60.4070 C   0  0  0  0  0  0  0  0  0  0  0  0
  133.2610  131.0460   60.6380 N   0  0  0  0  0  0  0  0  0  0  0  0
  133.8720  130.7920   59.4120 N   0  0  0  0  0  0  0  0  0  0  0  0
  132.9010  130.6510   58.5460 C   0  0  0  0  0  0  0  0  0  0  0  0
  133.0380  130.3000   56.8230 S   0  0  0  0  0  0  0  0  0  0  0  0
  132.3650  131.8450   56.1340 C   0  0  0  0  0  0  0  0  0  0  0  0
  130.8350  131.8420   56.0940 C   0  0  0  0  0  0  0  0  0  0  0  0
  130.2200  132.8310   56.5000 O   0  0  0  0  0  0  0  0  0  0  0  0
  130.2580  130.7100   55.6340 N   0  0  0  0  0  0  0  0  0  0  0  0
  128.8970  130.4700   55.5070 C   0  0  0  0  0  0  0  0  0  0  0  0
  128.1520  130.5600   54.4290 N   0  0  0  0  0  0  0  0  0  0  0  0
  126.8220  130.2460   54.6790 N   0  0  0  0  0  0  0  0  0  0  0  0
  126.5880  129.9270   55.9310 C   0  0  0  0  0  0  0  0  0  0  0  0
  125.2190  129.5510   56.4480 C   0  0  0  0  0  0  0  0  0  0  0  0
  128.0190  129.9870   56.9240 S   0  0  0  0  0  0  0  0  0  0  0  0
  131.6710  130.7830   59.1070 O   0  0  0  0  0  0  0  0  0  0  0  0
  1  2  1  0
  2  3  1  0
  3  4  2  0
  4  5  1  0
  5  6  2  0
  6  7  1  0
  7  8  1  0
  8  9  1  0
  9 10  2  0
  9 11  1  0
 11 12  1  0
 12 13  2  0
 13 14  1  0
 14 15  2  0
 15 16  1  0
 15 17  1  0
  6 18  1  0
 18  3  1  0
 17 12  1  0
M  END
>  <Binding energies>  (81) 
[-7.0]

>  <Ligand effiencies>  (81) 
[-0.3684210526315789]

>  <Interactions>  (81) 
["V-A:GLU:543:CD:4908, H-A:LEU:363:N:3185, V-A:TYR:539:CZ:4877, V-A:ASP:366:CB:3211, V-A:PRO:540:CD:4887, V-A:ILE:538:CB:4862, V-A:TYR:539:CE1:4875, V-A:PRO:540:CB:4885, V-A:PRO:540:CA:4883, V-A:ASP:366:CG:3212, V-A:LEU:363:CD1:3188, H-A:TYR:531:OH:4795, V-B:TYR:531:CZ:9766, H-A:TYR:539:OH:4878, H-B:LYS:534:NZ:9795, V-B:TYR:531:CE1:9764, H-A:TYR:539:N:4870, V-A:LEU:363:CA:3184"]

$$$$
RR31_Rahimova_2017
     RDKit          3D

 18 19  0  0  0  0  0  0  0  0999 V2000
  125.6170  122.4720   56.5700 C   0  0  0  0  0  0  0  0  0  0  0  0
  126.3290  122.8230   57.8700 C   0  0  0  0  0  0  0  0  0  0  0  0
  127.6590  122.4380   58.0430 C   0  0  0  0  0  0  0  0  0  0  0  0
  128.3400  122.7470   59.2190 C   0  0  0  0  0  0  0  0  0  0  0  0
  127.7130  123.4590   60.2540 C   0  0  0  0  0  0  0  0  0  0  0  0
  128.3780  123.7680   61.4430 N   0  0  0  0  0  0  0  0  0  0  0  0
  128.5840  125.1610   61.8850 C   0  0  0  0  0  0  0  0  0  0  0  0
  129.6700  125.3230   62.9740 C   0  0  0  0  0  0  0  0  0  0  0  0
  129.3780  124.4790   64.1350 N   0  0  0  0  0  0  0  0  0  0  0  0
  130.3730  124.6380   65.2000 C   0  0  0  0  0  0  0  0  0  0  0  0
  129.7430  124.7330   66.6040 C   0  0  0  0  0  0  0  0  0  0  0  0
  129.3710  126.1760   66.9800 C   0  0  0  0  0  0  0  0  0  0  0  0
  128.6250  126.8440   65.8190 N   0  0  0  0  0  0  0  0  0  0  0  0
  129.3670  123.0900   63.6750 C   0  0  0  0  0  0  0  0  0  0  0  0
  128.2660  122.8730   62.6130 C   0  0  0  0  0  0  0  0  0  0  0  0
  126.3730  123.8320   60.0710 C   0  0  0  0  0  0  0  0  0  0  0  0
  125.6780  123.5270   58.8950 C   0  0  0  0  0  0  0  0  0  0  0  0
  124.2230  123.9580   58.7590 C   0  0  0  0  0  0  0  0  0  0  0  0
  1  2  1  0
  2  3  2  0
  3  4  1  0
  4  5  2  0
  5  6  1  0
  6  7  1  0
  7  8  1  0
  8  9  1  0
  9 10  1  0
 10 11  1  0
 11 12  1  0
 12 13  1  0
  9 14  1  0
 14 15  1  0
  5 16  1  0
 16 17  2  0
 17 18  1  0
 17  2  1  0
 15  6  1  0
M  CHG  1  13   1
M  END
>  <Binding energies>  (82) 
[-6.98]

>  <Ligand effiencies>  (82) 
[-0.3323809523809524]

>  <Interactions>  (82) 
["H-A:GLU:543:OE1:4909, V-B:PRO:540:CB:9857, V-B:ALA:541:CB:9864, V-B:GLU:543:CD:9880, V-B:ASP:366:CB:8183, V-B:PRO:540:N:9856, V-B:LEU:363:CD1:8160, V-B:PRO:540:CD:9859, V-B:PRO:540:CA:9855, V-B:MET:535:CE:9807, V-B:GLU:543:CG:9879, H-B:GLU:543:OE2:9882, V-A:TYR:484:CE2:4345, V-B:GLU:543:CB:9878, V-A:TYR:484:CZ:4346, V-B:LEU:363:CA:8156, V-B:TYR:539:C:9839, V-B:LEU:363:CB:8158"]

$$$$
RR32_Rahimova_2017
     RDKit          3D

 18 20  0  0  0  0  0  0  0  0999 V2000
  130.2260  131.6150   56.7470 C   0  0  0  0  0  0  0  0  0  0  0  0
  130.1850  131.6720   58.2700 C   0  0  0  0  0  0  0  0  0  0  0  0
  128.9780  132.0060   58.8860 C   0  0  0  0  0  0  0  0  0  0  0  0
  128.9020  132.0640   60.2740 C   0  0  0  0  0  0  0  0  0  0  0  0
  127.7030  132.3950   60.8810 N   0  0  0  0  0  0  0  0  0  0  0  0
  127.5080  133.8050   61.2650 C   0  0  0  0  0  0  0  0  0  0  0  0
  126.2230  134.0390   62.0940 C   0  0  0  0  0  0  0  0  0  0  0  0
  125.0490  133.5930   61.3450 N   0  0  0  0  0  0  0  0  0  0  0  0
  123.8350  133.8430   62.1130 C   0  0  0  0  0  0  0  0  0  0  0  0
  125.1980  132.1620   61.0840 C   0  0  0  0  0  0  0  0  0  0  0  0
  126.4690  131.8990   60.2430 C   0  0  0  0  0  0  0  0  0  0  0  0
  129.9680  131.8090   61.0770 N   0  0  0  0  0  0  0  0  0  0  0  0
  131.1590  131.4830   60.5060 C   0  0  0  0  0  0  0  0  0  0  0  0
  132.2540  131.2250   61.3670 C   0  0  0  0  0  0  0  0  0  0  0  0
  133.4950  130.8880   60.8400 C   0  0  0  0  0  0  0  0  0  0  0  0
  133.6770  130.8000   59.4660 C   0  0  0  0  0  0  0  0  0  0  0  0
  132.6220  131.0470   58.5920 C   0  0  0  0  0  0  0  0  0  0  0  0
  131.3320  131.3970   59.0870 C   0  0  0  0  0  0  0  0  0  0  0  0
  1  2  1  0
  2  3  2  0
  3  4  1  0
  4  5  1  0
  5  6  1  0
  6  7  1  0
  7  8  1  0
  8  9  1  0
  8 10  1  0
 10 11  1  0
  4 12  2  0
 12 13  1  0
 13 14  2  0
 14 15  1  0
 15 16  2  0
 16 17  1  0
 17 18  2  0
 18  2  1  0
 11  5  1  0
 18 13  1  0
M  END
>  <Binding energies>  (83) 
[-6.65]

>  <Ligand effiencies>  (83) 
[-0.36944444444444446]

>  <Interactions>  (83) 
["V-A:GLU:543:CD:4908, V-A:ASP:366:CB:3211, V-A:ASN:362:CB:3175, H-A:ALA:541:N:4891, V-A:PRO:540:C:4881, V-A:TYR:539:CE1:4875, V-A:PRO:540:CB:4885, V-A:PRO:540:CA:4883, V-A:ASP:366:CG:3212, V-A:TYR:539:C:4867, V-A:PRO:540:N:4884, V-A:TYR:539:CD1:4873, V-B:ILE:369:CG2:8208, V-B:LEU:475:CD1:9229, V-A:ALA:541:CB:4892, V-B:ILE:369:CD1:8210, V-A:ASN:362:C:3171, V-A:LEU:363:CA:3184, V-A:LEU:363:CB:3186"]

$$$$
RR5_Rahimova_2017
     RDKit          3D

 45 50  0  0  0  0  0  0  0  0999 V2000
  129.8060  128.3880   57.7070 O   0  0  0  0  0  0  0  0  0  0  0  0
  129.0780  127.7740   56.9300 C   0  0  0  0  0  0  0  0  0  0  0  0
  128.6200  128.4460   55.6210 C   0  0  0  0  0  0  0  0  0  0  0  0
  128.8030  130.0050   55.6060 C   0  0  2  0  0  0  0  0  0  0  0  0
  128.7040  130.6580   56.9270 N   0  0  0  0  0  0  0  0  0  0  0  0
  129.2260  131.9240   57.1540 C   0  0  0  0  0  0  0  0  0  0  0  0
  129.7680  132.6570   56.3230 O   0  0  0  0  0  0  0  0  0  0  0  0
  129.0550  132.2250   58.4530 O   0  0  0  0  0  0  0  0  0  0  0  0
  129.2390  131.2480   59.4730 C   0  0  0  0  0  0  0  0  0  0  0  0
  127.9410  131.0530   60.2870 C   0  0  0  0  0  0  0  0  0  0  0  0
  127.3000  132.3550   60.7330 C   0  0  0  0  0  0  0  0  0  0  0  0
  127.8320  133.3870   61.5120 C   0  0  0  0  0  0  0  0  0  0  0  0
  127.0630  134.5190   61.7840 C   0  0  0  0  0  0  0  0  0  0  0  0
  125.7640  134.6220   61.2820 C   0  0  0  0  0  0  0  0  0  0  0  0
  125.2300  133.5920   60.5060 C   0  0  0  0  0  0  0  0  0  0  0  0
  126.0010  132.4600   60.2350 C   0  0  0  0  0  0  0  0  0  0  0  0
  125.6960  131.2420   59.4680 C   0  0  0  0  0  0  0  0  0  0  0  0
  124.5420  130.8490   58.7870 C   0  0  0  0  0  0  0  0  0  0  0  0
  124.5060  129.6090   58.1470 C   0  0  0  0  0  0  0  0  0  0  0  0
  125.6210  128.7680   58.1860 C   0  0  0  0  0  0  0  0  0  0  0  0
  126.7730  129.1660   58.8640 C   0  0  0  0  0  0  0  0  0  0  0  0
  126.8140  130.4070   59.5030 C   0  0  0  0  0  0  0  0  0  0  0  0
  127.8070  130.6670   54.6220 C   0  0  0  0  0  0  0  0  0  0  0  0
  126.7460  130.1820   54.2810 O   0  0  0  0  0  0  0  0  0  0  0  0
  128.2940  131.8760   54.2180 O   0  0  0  0  0  0  0  0  0  0  0  0
  128.6510  126.5040   57.1120 N   0  0  0  0  0  0  0  0  0  0  0  0
  128.8480  125.5000   58.2000 C   0  0  0  0  0  0  0  0  0  0  0  0
  127.8610  124.3610   57.7770 C   0  0  0  0  0  0  0  0  0  0  0  0
  128.3110  123.0520   57.5390 C   0  0  0  0  0  0  0  0  0  0  0  0
  127.4240  122.0460   57.1640 C   0  0  0  0  0  0  0  0  0  0  0  0
  126.0730  122.3350   57.0100 C   0  0  0  0  0  0  0  0  0  0  0  0
  125.5990  123.6220   57.2400 C   0  0  0  0  0  0  0  0  0  0  0  0
  126.4850  124.6240   57.6250 C   0  0  0  0  0  0  0  0  0  0  0  0
  130.3460  125.0480   58.1530 C   0  0  0  0  0  0  0  0  0  0  0  0
  130.9060  124.2420   59.1570 C   0  0  0  0  0  0  0  0  0  0  0  0
  132.2460  123.8670   59.1040 C   0  0  0  0  0  0  0  0  0  0  0  0
  133.0440  124.2950   58.0480 C   0  0  0  0  0  0  0  0  0  0  0  0
  132.5110  125.0910   57.0400 C   0  0  0  0  0  0  0  0  0  0  0  0
  131.1700  125.4560   57.0890 C   0  0  0  0  0  0  0  0  0  0  0  0
  128.4230  126.2110   59.5290 C   0  0  0  0  0  0  0  0  0  0  0  0
  129.3030  127.0800   60.1990 C   0  0  0  0  0  0  0  0  0  0  0  0
  128.9330  127.7090   61.3850 C   0  0  0  0  0  0  0  0  0  0  0  0
  127.6710  127.4830   61.9210 C   0  0  0  0  0  0  0  0  0  0  0  0
  126.7740  126.6410   61.2750 C   0  0  0  0  0  0  0  0  0  0  0  0
  127.1470  126.0140   60.0890 C   0  0  0  0  0  0  0  0  0  0  0  0
  1  2  2  0
  2  3  1  0
  4  3  1  1
  4  5  1  0
  5  6  1  0
  6  7  2  0
  6  8  1  0
  8  9  1  0
  9 10  1  0
 10 11  1  0
 11 12  2  0
 12 13  1  0
 13 14  2  0
 14 15  1  0
 15 16  2  0
 16 17  1  0
 17 18  2  0
 18 19  1  0
 19 20  2  0
 20 21  1  0
 21 22  2  0
  4 23  1  0
 23 24  2  0
 23 25  1  0
  2 26  1  0
 26 27  1  0
 27 28  1  0
 28 29  2  0
 29 30  1  0
 30 31  2  0
 31 32  1  0
 32 33  2  0
 27 34  1  0
 34 35  2  0
 35 36  1  0
 36 37  2  0
 37 38  1  0
 38 39  2  0
 27 40  1  0
 40 41  2  0
 41 42  1  0
 42 43  2  0
 43 44  1  0
 44 45  2  0
 22 10  1  0
 33 28  1  0
 39 34  1  0
 45 40  1  0
 16 11  1  0
 22 17  1  0
M  END
>  <Binding energies>  (84) 
[-10.63]

>  <Ligand effiencies>  (84) 
[-0.22145833333333334]

>  <Interactions>  (84) 
["V-A:TYR:539:CZ:4877, V-A:ASP:366:CB:3211, V-A:TYR:539:CE1:4875, V-A:ASP:366:CG:3212, V-A:TYR:539:C:4867, V-A:ASP:366:C:3207, V-B:ASP:366:CG:8184, V-B:PRO:540:CB:9857, V-B:TYR:539:CZ:9849, H-B:TYR:531:OH:9767, V-B:ASP:366:CB:8183, V-B:PRO:540:N:9856, V-B:ASP:366:CA:8181, V-A:TYR:539:CD1:4873, V-B:LEU:363:CD1:8160, V-B:PRO:540:CD:9859, V-B:TYR:539:CE2:9848, V-B:PRO:540:CA:9855, V-B:MET:535:CE:9807, V-B:TYR:531:CE2:9765, V-B:TYR:531:CZ:9766, V-B:ILE:369:CG2:8208, H-A:TYR:539:OH:4878, H-B:LYS:534:NZ:9795, V-B:LEU:475:CD1:9229, V-A:ALA:541:CB:4892, V-A:ALA:541:CA:4890, H-A:TYR:539:N:4870, V-B:TYR:539:C:9839, H-B:MET:535:SD:9806, V-B:ASP:366:C:8179, V-B:LYS:534:CE:9794, V-A:ASP:366:CA:3209, V-B:TYR:539:CA:9841, V-B:TYR:539:CG:9844"]

$$$$
