1a_Grossjean_2025
     RDKit          3D

 45 46  0  0  0  0  0  0  0  0999 V2000
  129.2190  132.2510   72.9070 C   0  0  0  0  0  0  0  0  0  0  0  0
  129.1090  130.9790   73.7530 C   0  0  0  0  0  0  0  0  0  0  0  0
  129.8130  129.9220   73.1130 O   0  0  0  0  0  0  0  0  0  0  0  0
  129.2070  128.7340   72.8510 C   0  0  0  0  0  0  0  0  0  0  0  0
  128.4770  128.1510   73.6580 O   0  0  0  0  0  0  0  0  0  0  0  0
  129.5260  128.1940   71.4870 C   0  0  0  0  0  0  0  0  0  0  0  0
  128.5180  127.5590   70.7500 C   0  0  0  0  0  0  0  0  0  0  0  0
  128.7830  127.0440   69.4850 C   0  0  0  0  0  0  0  0  0  0  0  0
  130.0590  127.1500   68.9300 C   0  0  0  0  0  0  0  0  0  0  0  0
  130.2160  126.5920   67.6460 N   0  0  0  0  0  0  0  0  0  0  0  0
  129.9630  125.3410   67.2070 C   0  0  0  0  0  0  0  0  0  0  0  0
  129.5240  124.4170   67.8930 O   0  0  0  0  0  0  0  0  0  0  0  0
  130.2600  125.0930   65.7270 C   0  0  0  0  0  0  0  0  0  0  0  0
  130.1750  123.3290   65.2970 S   0  0  0  0  0  0  0  0  0  0  0  0
  130.8590  123.1440   63.6650 C   0  0  0  0  0  0  0  0  0  0  0  0
  130.0000  122.5950   62.7700 N   0  0  0  0  0  0  0  0  0  0  0  0
  130.4200  122.4030   61.4970 C   0  0  0  0  0  0  0  0  0  0  0  0
  129.4090  121.7730   60.5570 C   0  0  0  0  0  0  0  0  0  0  0  0
  131.6960  122.7570   61.0660 C   0  0  0  0  0  0  0  0  0  0  0  0
  132.5830  123.3430   61.9750 C   0  0  0  0  0  0  0  0  0  0  0  0
  133.9720  123.7370   61.4750 C   0  0  0  0  0  0  0  0  0  0  0  0
  132.1650  123.5560   63.3090 C   0  0  0  0  0  0  0  0  0  0  0  0
  133.0600  124.2120   64.2670 C   0  0  0  0  0  0  0  0  0  0  0  0
  133.7680  124.7310   65.0200 N   0  0  0  0  0  0  0  0  0  0  0  0
  131.0730  127.7910   69.6580 C   0  0  0  0  0  0  0  0  0  0  0  0
  130.8070  128.3060   70.9240 C   0  0  0  0  0  0  0  0  0  0  0  0
  129.2947  133.1262   73.5690 H   0  0  0  0  0  0  0  0  0  0  0  0
  130.1155  132.1928   72.2722 H   0  0  0  0  0  0  0  0  0  0  0  0
  128.3259  132.3475   72.2722 H   0  0  0  0  0  0  0  0  0  0  0  0
  129.5444  131.1607   74.7467 H   0  0  0  0  0  0  0  0  0  0  0  0
  128.0502  130.7014   73.8619 H   0  0  0  0  0  0  0  0  0  0  0  0
  127.5078  127.4667   71.1753 H   0  0  0  0  0  0  0  0  0  0  0  0
  127.9806  126.5495   68.9180 H   0  0  0  0  0  0  0  0  0  0  0  0
  130.5400  127.2480   66.9520 H   0  0  0  0  0  0  0  0  0  0  0  0
  129.5237  125.6414   65.1210 H   0  0  0  0  0  0  0  0  0  0  0  0
  131.2835  125.4414   65.5246 H   0  0  0  0  0  0  0  0  0  0  0  0
  128.6195  121.2810   61.1440 H   0  0  0  0  0  0  0  0  0  0  0  0
  128.9623  122.5529   59.9228 H   0  0  0  0  0  0  0  0  0  0  0  0
  129.9123  121.0284   59.9228 H   0  0  0  0  0  0  0  0  0  0  0  0
  132.0022  122.5782   60.0247 H   0  0  0  0  0  0  0  0  0  0  0  0
  134.6318  123.9242   62.3350 H   0  0  0  0  0  0  0  0  0  0  0  0
  134.3872  122.9212   60.8650 H   0  0  0  0  0  0  0  0  0  0  0  0
  133.8970  124.6493   60.8650 H   0  0  0  0  0  0  0  0  0  0  0  0
  132.0807  127.8869   69.2274 H   0  0  0  0  0  0  0  0  0  0  0  0
  131.6083  128.8054   71.4884 H   0  0  0  0  0  0  0  0  0  0  0  0
  1  2  1  0
  2  3  1  0
  3  4  1  0
  4  5  2  0
  4  6  1  0
  6  7  2  0
  7  8  1  0
  8  9  2  0
  9 10  1  0
 10 11  1  0
 11 12  2  0
 11 13  1  0
 13 14  1  0
 14 15  1  0
 15 16  2  0
 16 17  1  0
 17 18  1  0
 17 19  2  0
 19 20  1  0
 20 21  1  0
 20 22  2  0
 22 23  1  0
 23 24  3  0
  9 25  1  0
 25 26  2  0
 26  6  1  0
 22 15  1  0
  1 27  1  0
  1 28  1  0
  1 29  1  0
  2 30  1  0
  2 31  1  0
  7 32  1  0
  8 33  1  0
 10 34  1  0
 13 35  1  0
 13 36  1  0
 18 37  1  0
 18 38  1  0
 18 39  1  0
 19 40  1  0
 21 41  1  0
 21 42  1  0
 21 43  1  0
 25 44  1  0
 26 45  1  0
M  END
>  <Binding energies>  (1) 
[-7.87]

>  <Ligand effiencies>  (1) 
[-0.2914814814814815]

>  <Interactions>  (1) 
["V-B:PRO:540:CA:9855, V-A:GLY:454:CA:4049, V-B:HIS:456:CD2:9039, H-A:GLU:543:OE2:4910, V-A:GLU:543:C:4902, V-B:GLU:543:CB:9878, H-B:LYS:547:NZ:9923, V-B:TYR:539:CE2:9848, V-A:TYR:484:CE2:4346, V-A:GLY:544:CA:4914, V-B:GLU:543:CG:9879, V-A:GLY:544:C:4912, V-B:TYR:539:C:9839, V-A:GLU:543:CD:4908, V-B:TYR:484:CB:9312, V-B:HIS:456:CE1:9041, H-A:GLY:454:N:4050, V-A:HIS:456:CE1:4070, V-A:ILE:369:CD1:3239, V-B:TYR:539:CD2:9846, H-A:LYS:547:NZ:4951, H-A:ARG:545:NH2:4928, V-A:LEU:475:CD2:4259, H-A:GLU:543:OE1:4909, V-A:GLU:543:CB:4906, V-A:LYS:547:CE:4950, H-A:ARG:545:NE:4924, H-A:TYR:484:OH:4348"]

$$$$
1c_Ghoteimi_2023
     RDKit          3D

 54 57  0  0  0  0  0  0  0  0999 V2000
  127.8060  128.5770   74.3620 C   0  0  0  0  0  0  0  0  0  0  0  0
  128.4230  127.4540   73.7420 O   0  0  0  0  0  0  0  0  0  0  0  0
  128.5760  127.4400   72.3690 C   0  0  0  0  0  0  0  0  0  0  0  0
  127.4770  127.0260   71.6220 C   0  0  0  0  0  0  0  0  0  0  0  0
  127.5430  126.9770   70.2320 C   0  0  0  0  0  0  0  0  0  0  0  0
  128.7130  127.3410   69.5470 C   0  0  0  0  0  0  0  0  0  0  0  0
  128.7900  127.2860   68.0490 C   0  0  0  0  0  0  0  0  0  0  0  0
  128.2310  128.2700   67.2260 C   0  0  0  0  0  0  0  0  0  0  0  0
  128.3520  128.1890   65.8340 C   0  0  0  0  0  0  0  0  0  0  0  0
  127.7900  129.3080   65.0210 C   0  0  0  0  0  0  0  0  0  0  0  0
  126.4500  129.2970   64.6260 C   0  0  0  0  0  0  0  0  0  0  0  0
  125.9330  130.3290   63.8500 C   0  0  0  0  0  0  0  0  0  0  0  0
  126.7460  131.3890   63.4500 C   0  0  0  0  0  0  0  0  0  0  0  0
  126.1480  132.3700   62.6810 O   0  0  0  0  0  0  0  0  0  0  0  0
  126.9610  133.3740   62.0820 C   0  0  0  0  0  0  0  0  0  0  0  0
  128.0950  131.4010   63.8390 C   0  0  0  0  0  0  0  0  0  0  0  0
  128.6090  130.3660   64.6150 C   0  0  0  0  0  0  0  0  0  0  0  0
  129.0260  127.0750   65.2800 C   0  0  0  0  0  0  0  0  0  0  0  0
  129.1580  126.9150   63.8270 C   0  0  0  0  0  0  0  0  0  0  0  0
  129.2610  126.7900   62.6810 N   0  0  0  0  0  0  0  0  0  0  0  0
  129.5810  126.1300   66.1670 C   0  0  0  0  0  0  0  0  0  0  0  0
  130.5960  124.7750   65.6190 S   0  0  0  0  0  0  0  0  0  0  0  0
  132.2580  125.4940   65.4090 C   0  0  0  0  0  0  0  0  0  0  0  0
  132.8640  125.1590   64.0410 C   0  0  0  0  0  0  0  0  0  0  0  0
  133.9390  124.5610   63.9830 O   0  0  0  0  0  0  0  0  0  0  0  0
  132.1180  125.5260   62.9760 N   0  0  0  0  0  0  0  0  0  0  0  0
  132.3580  125.2090   61.6480 C   0  0  0  0  0  0  0  0  0  0  0  0
  131.9240  125.8370   60.5770 N   0  0  0  0  0  0  0  0  0  0  0  0
  132.3830  125.2820   59.4720 C   0  0  0  0  0  0  0  0  0  0  0  0
  133.2120  124.1770   59.6370 C   0  0  0  0  0  0  0  0  0  0  0  0
  133.3930  123.8530   61.3360 S   0  0  0  0  0  0  0  0  0  0  0  0
  129.4720  126.2390   67.5130 N   0  0  0  0  0  0  0  0  0  0  0  0
  129.8120  127.7630   70.3100 C   0  0  0  0  0  0  0  0  0  0  0  0
  129.7510  127.8110   71.7000 C   0  0  0  0  0  0  0  0  0  0  0  0
  127.8646  128.4704   75.4553 H   0  0  0  0  0  0  0  0  0  0  0  0
  128.3255  129.4967   74.0549 H   0  0  0  0  0  0  0  0  0  0  0  0
  126.7511  128.6317   74.0549 H   0  0  0  0  0  0  0  0  0  0  0  0
  126.5481  126.7349   72.1342 H   0  0  0  0  0  0  0  0  0  0  0  0
  126.6628  126.6472   69.6606 H   0  0  0  0  0  0  0  0  0  0  0  0
  127.6912  129.1154   67.6775 H   0  0  0  0  0  0  0  0  0  0  0  0
  125.7983  128.4651   64.9313 H   0  0  0  0  0  0  0  0  0  0  0  0
  124.8750  130.3089   63.5496 H   0  0  0  0  0  0  0  0  0  0  0  0
  127.4449  133.9715   62.8686 H   0  0  0  0  0  0  0  0  0  0  0  0
  127.7311  132.8978   61.4573 H   0  0  0  0  0  0  0  0  0  0  0  0
  126.3351  134.0282   61.4573 H   0  0  0  0  0  0  0  0  0  0  0  0
  128.7476  132.2307   63.5296 H   0  0  0  0  0  0  0  0  0  0  0  0
  129.6683  130.3806   64.9113 H   0  0  0  0  0  0  0  0  0  0  0  0
  132.1862  126.5873   65.5068 H   0  0  0  0  0  0  0  0  0  0  0  0
  132.9121  125.0656   66.1827 H   0  0  0  0  0  0  0  0  0  0  0  0
  131.2580  126.0190   63.1600 H   0  0  0  0  0  0  0  0  0  0  0  0
  132.1248  125.6710   58.4760 H   0  0  0  0  0  0  0  0  0  0  0  0
  133.6779  123.6011   58.8238 H   0  0  0  0  0  0  0  0  0  0  0  0
  130.7398  128.0617   69.8002 H   0  0  0  0  0  0  0  0  0  0  0  0
  130.6282  128.1413   72.2757 H   0  0  0  0  0  0  0  0  0  0  0  0
  1  2  1  0
  2  3  1  0
  3  4  2  0
  4  5  1  0
  5  6  2  0
  6  7  1  0
  7  8  2  0
  8  9  1  0
  9 10  1  0
 10 11  2  0
 11 12  1  0
 12 13  2  0
 13 14  1  0
 14 15  1  0
 13 16  1  0
 16 17  2  0
  9 18  2  0
 18 19  1  0
 19 20  3  0
 18 21  1  0
 21 22  1  0
 22 23  1  0
 23 24  1  0
 24 25  2  0
 24 26  1  0
 26 27  1  0
 27 28  2  0
 28 29  1  0
 29 30  2  0
 30 31  1  0
 21 32  2  0
  6 33  1  0
 33 34  2  0
 34  3  1  0
 32  7  1  0
 17 10  1  0
 31 27  1  0
  1 35  1  0
  1 36  1  0
  1 37  1  0
  4 38  1  0
  5 39  1  0
  8 40  1  0
 11 41  1  0
 12 42  1  0
 15 43  1  0
 15 44  1  0
 15 45  1  0
 16 46  1  0
 17 47  1  0
 23 48  1  0
 23 49  1  0
 26 50  1  0
 29 51  1  0
 30 52  1  0
 33 53  1  0
 34 54  1  0
M  END
>  <Binding energies>  (1) 
[-7.84]

>  <Ligand effiencies>  (1) 
[-0.224]

>  <Interactions>  (1) 
["V-A:ILE:369:CG2:3237, V-B:GLU:543:C:9874, H-A:GLU:543:OE2:4910, V-B:HIS:456:CD2:9039, V-B:GLU:543:CB:9878, H-B:LYS:547:NZ:9923, V-B:TYR:539:CE2:9848, V-B:LEU:475:CD2:9230, V-B:GLU:543:CG:9879, V-A:ASP:366:CG:3213, V-A:GLU:543:CD:4908, V-B:HIS:456:CE1:9041, H-A:GLY:454:N:4050, V-A:HIS:456:CE1:4070, V-B:GLY:544:C:9884, V-B:GLY:544:CA:9886, V-A:GLU:543:CG:4907, V-B:GLU:543:CD:9880, V-A:ASP:366:CB:3212, H-A:ARG:545:NH2:4928, V-A:ARG:545:CZ:4926, H-A:GLU:543:OE1:4909, V-A:GLU:543:CB:4906, H-A:TYR:484:OH:4348"]

$$$$
1d_Ghoteimi_2023
     RDKit          3D

 50 52  0  0  0  0  0  0  0  0999 V2000
  130.2160  131.5470   62.2790 C   0  0  0  0  0  0  0  0  0  0  0  0
  129.7160  132.1640   63.4560 O   0  0  0  0  0  0  0  0  0  0  0  0
  128.6770  131.6220   64.1240 C   0  0  0  0  0  0  0  0  0  0  0  0
  127.9990  132.1760   64.9910 O   0  0  0  0  0  0  0  0  0  0  0  0
  128.3990  130.1830   63.6970 C   0  0  0  0  0  0  0  0  0  0  0  0
  127.3650  129.4200   64.9820 S   0  0  0  0  0  0  0  0  0  0  0  0
  128.3370  128.1360   65.7380 C   0  0  0  0  0  0  0  0  0  0  0  0
  128.3050  128.1520   67.0920 N   0  0  0  0  0  0  0  0  0  0  0  0
  129.0060  127.2290   67.7980 C   0  0  0  0  0  0  0  0  0  0  0  0
  128.9120  127.3130   69.2940 C   0  0  0  0  0  0  0  0  0  0  0  0
  127.7290  126.9740   69.9700 C   0  0  0  0  0  0  0  0  0  0  0  0
  127.6420  127.0590   71.3560 C   0  0  0  0  0  0  0  0  0  0  0  0
  128.7320  127.4860   72.1100 C   0  0  0  0  0  0  0  0  0  0  0  0
  128.5540  127.5430   73.4790 O   0  0  0  0  0  0  0  0  0  0  0  0
  127.6220  128.4740   74.0190 C   0  0  0  0  0  0  0  0  0  0  0  0
  129.9200  127.8290   71.4500 C   0  0  0  0  0  0  0  0  0  0  0  0
  130.0040  127.7420   70.0630 C   0  0  0  0  0  0  0  0  0  0  0  0
  129.7570  126.2480   67.1390 C   0  0  0  0  0  0  0  0  0  0  0  0
  129.8210  126.2170   65.7410 C   0  0  0  0  0  0  0  0  0  0  0  0
  130.6480  125.1480   65.1030 C   0  0  0  0  0  0  0  0  0  0  0  0
  131.9730  125.4060   64.7390 C   0  0  0  0  0  0  0  0  0  0  0  0
  132.7500  124.4150   64.1450 C   0  0  0  0  0  0  0  0  0  0  0  0
  132.2210  123.1470   63.9070 C   0  0  0  0  0  0  0  0  0  0  0  0
  133.0610  122.2290   63.3070 O   0  0  0  0  0  0  0  0  0  0  0  0
  133.9780  122.6730   62.3130 C   0  0  0  0  0  0  0  0  0  0  0  0
  130.8950  122.8790   64.2820 C   0  0  0  0  0  0  0  0  0  0  0  0
  130.1210  123.8720   64.8770 C   0  0  0  0  0  0  0  0  0  0  0  0
  129.1080  127.2000   65.0110 C   0  0  0  0  0  0  0  0  0  0  0  0
  129.2220  127.2790   63.5510 C   0  0  0  0  0  0  0  0  0  0  0  0
  129.3130  127.3390   62.3990 N   0  0  0  0  0  0  0  0  0  0  0  0
  130.8864  130.7197   62.5551 H   0  0  0  0  0  0  0  0  0  0  0  0
  129.3767  131.1562   61.6850 H   0  0  0  0  0  0  0  0  0  0  0  0
  130.7723  132.2871   61.6850 H   0  0  0  0  0  0  0  0  0  0  0  0
  127.8684  130.1733   62.7335 H   0  0  0  0  0  0  0  0  0  0  0  0
  129.3402  129.6265   63.5769 H   0  0  0  0  0  0  0  0  0  0  0  0
  126.8555  126.6352   69.3936 H   0  0  0  0  0  0  0  0  0  0  0  0
  126.7035  126.7864   71.8608 H   0  0  0  0  0  0  0  0  0  0  0  0
  127.6603  128.4358   75.1177 H   0  0  0  0  0  0  0  0  0  0  0  0
  127.8776  129.4882   73.6783 H   0  0  0  0  0  0  0  0  0  0  0  0
  126.6081  128.2173   73.6783 H   0  0  0  0  0  0  0  0  0  0  0  0
  130.7903  128.1686   72.0308 H   0  0  0  0  0  0  0  0  0  0  0  0
  130.9440  128.0147   69.5609 H   0  0  0  0  0  0  0  0  0  0  0  0
  130.3022  125.4941   67.7258 H   0  0  0  0  0  0  0  0  0  0  0  0
  132.4054  126.4005   64.9235 H   0  0  0  0  0  0  0  0  0  0  0  0
  133.7899  124.6342   63.8611 H   0  0  0  0  0  0  0  0  0  0  0  0
  134.8661  123.1030   62.7993 H   0  0  0  0  0  0  0  0  0  0  0  0
  134.2797  121.8212   61.6858 H   0  0  0  0  0  0  0  0  0  0  0  0
  133.4969  123.4379   61.6858 H   0  0  0  0  0  0  0  0  0  0  0  0
  130.4661  121.8816   64.1053 H   0  0  0  0  0  0  0  0  0  0  0  0
  129.0847  123.6508   65.1723 H   0  0  0  0  0  0  0  0  0  0  0  0
  1  2  1  0
  2  3  1  0
  3  4  2  0
  3  5  1  0
  5  6  1  0
  6  7  1  0
  7  8  2  0
  8  9  1  0
  9 10  1  0
 10 11  2  0
 11 12  1  0
 12 13  2  0
 13 14  1  0
 14 15  1  0
 13 16  1  0
 16 17  2  0
  9 18  2  0
 18 19  1  0
 19 20  1  0
 20 21  2  0
 21 22  1  0
 22 23  2  0
 23 24  1  0
 24 25  1  0
 23 26  1  0
 26 27  2  0
 19 28  2  0
 28 29  1  0
 29 30  3  0
 28  7  1  0
 17 10  1  0
 27 20  1  0
  1 31  1  0
  1 32  1  0
  1 33  1  0
  5 34  1  0
  5 35  1  0
 11 36  1  0
 12 37  1  0
 15 38  1  0
 15 39  1  0
 15 40  1  0
 16 41  1  0
 17 42  1  0
 18 43  1  0
 21 44  1  0
 22 45  1  0
 25 46  1  0
 25 47  1  0
 25 48  1  0
 26 49  1  0
 27 50  1  0
M  END
>  <Binding energies>  (1) 
[-7.34]

>  <Ligand effiencies>  (1) 
[-0.24466666666666667]

>  <Interactions>  (1) 
["V-A:GLY:454:CA:4049, V-B:GLU:543:C:9874, V-B:HIS:456:CD2:9039, H-A:ALA:541:N:4891, V-B:GLU:543:CB:9878, H-B:LYS:547:NZ:9923, V-A:TYR:484:CE2:4346, V-B:GLU:543:CG:9879, V-A:ALA:541:CB:4892, V-A:GLU:543:CD:4908, H-B:TYR:484:OH:9319, V-B:HIS:456:CE1:9041, H-A:GLY:454:N:4050, V-A:HIS:456:CE1:4070, V-A:ILE:369:CD1:3239, V-B:GLY:544:C:9884, V-A:GLU:543:CG:4907, V-B:GLU:543:CD:9880, V-B:HIS:456:CG:9037, V-A:LEU:475:CD2:4259, V-A:ARG:545:CZ:4926, V-A:GLU:543:CB:4906"]

$$$$
1g_Grossjean_2025
     RDKit          3D

 39 40  0  0  0  0  0  0  0  0999 V2000
  129.4180  121.7010   60.7410 C   0  0  0  0  0  0  0  0  0  0  0  0
  130.4460  122.4000   61.6100 C   0  0  0  0  0  0  0  0  0  0  0  0
  131.6770  122.8080   61.1000 C   0  0  0  0  0  0  0  0  0  0  0  0
  132.5920  123.4330   61.9520 C   0  0  0  0  0  0  0  0  0  0  0  0
  133.9420  123.8580   61.3740 C   0  0  0  0  0  0  0  0  0  0  0  0
  132.2450  123.6440   63.3060 C   0  0  0  0  0  0  0  0  0  0  0  0
  133.2070  124.2500   64.2290 C   0  0  0  0  0  0  0  0  0  0  0  0
  133.9700  124.7280   64.9570 N   0  0  0  0  0  0  0  0  0  0  0  0
  130.9630  123.2210   63.7310 C   0  0  0  0  0  0  0  0  0  0  0  0
  130.3590  123.4170   65.3930 S   0  0  0  0  0  0  0  0  0  0  0  0
  130.8240  125.0860   65.9430 C   0  0  0  0  0  0  0  0  0  0  0  0
  129.8550  125.6330   66.9930 C   0  0  0  0  0  0  0  0  0  0  0  0
  129.4920  124.9190   67.9280 O   0  0  0  0  0  0  0  0  0  0  0  0
  129.4430  126.9000   66.8190 N   0  0  0  0  0  0  0  0  0  0  0  0
  128.5670  127.6400   67.7270 C   0  0  0  0  0  0  0  0  0  0  0  0
  128.9920  127.5850   69.1920 C   0  0  0  0  0  0  0  0  0  0  0  0
  130.2320  128.1030   69.5800 C   0  0  0  0  0  0  0  0  0  0  0  0
  130.6190  128.0530   70.9160 C   0  0  0  0  0  0  0  0  0  0  0  0
  129.7630  127.4900   71.8620 C   0  0  0  0  0  0  0  0  0  0  0  0
  128.5250  126.9770   71.4830 C   0  0  0  0  0  0  0  0  0  0  0  0
  128.1370  127.0250   70.1460 C   0  0  0  0  0  0  0  0  0  0  0  0
  130.0900  122.5940   62.9020 N   0  0  0  0  0  0  0  0  0  0  0  0
  128.6781  121.1979   61.3809 H   0  0  0  0  0  0  0  0  0  0  0  0
  128.9101  122.4418   60.1059 H   0  0  0  0  0  0  0  0  0  0  0  0
  129.9202  120.9564   60.1059 H   0  0  0  0  0  0  0  0  0  0  0  0
  131.9252  122.6405   60.0415 H   0  0  0  0  0  0  0  0  0  0  0  0
  134.6398  124.0777   62.1955 H   0  0  0  0  0  0  0  0  0  0  0  0
  134.3485  123.0444   60.7553 H   0  0  0  0  0  0  0  0  0  0  0  0
  133.8091  124.7578   60.7553 H   0  0  0  0  0  0  0  0  0  0  0  0
  131.8341  125.0486   66.3769 H   0  0  0  0  0  0  0  0  0  0  0  0
  130.7913  125.7536   65.0693 H   0  0  0  0  0  0  0  0  0  0  0  0
  129.8080  127.4210   66.0340 H   0  0  0  0  0  0  0  0  0  0  0  0
  128.5541  128.6936   67.4112 H   0  0  0  0  0  0  0  0  0  0  0  0
  127.5769  127.1643   67.6677 H   0  0  0  0  0  0  0  0  0  0  0  0
  130.9009  128.5496   68.8297 H   0  0  0  0  0  0  0  0  0  0  0  0
  131.5952  128.4556   71.2241 H   0  0  0  0  0  0  0  0  0  0  0  0
  130.0686  127.4507   72.9180 H   0  0  0  0  0  0  0  0  0  0  0  0
  127.8561  126.5356   72.2365 H   0  0  0  0  0  0  0  0  0  0  0  0
  127.1595  126.6230   69.8413 H   0  0  0  0  0  0  0  0  0  0  0  0
  1  2  1  0
  2  3  2  0
  3  4  1  0
  4  5  1  0
  4  6  2  0
  6  7  1  0
  7  8  3  0
  6  9  1  0
  9 10  1  0
 10 11  1  0
 11 12  1  0
 12 13  2  0
 12 14  1  0
 14 15  1  0
 15 16  1  0
 16 17  2  0
 17 18  1  0
 18 19  2  0
 19 20  1  0
 20 21  2  0
  9 22  2  0
 22  2  1  0
 21 16  1  0
  1 23  1  0
  1 24  1  0
  1 25  1  0
  3 26  1  0
  5 27  1  0
  5 28  1  0
  5 29  1  0
 11 30  1  0
 11 31  1  0
 14 32  1  0
 15 33  1  0
 15 34  1  0
 17 35  1  0
 18 36  1  0
 19 37  1  0
 20 38  1  0
 21 39  1  0
M  END
>  <Binding energies>  (1) 
[-6.97]

>  <Ligand effiencies>  (1) 
[-0.3030434782608696]

>  <Interactions>  (1) 
["V-B:PRO:540:CA:9855, V-A:GLY:454:CA:4049, V-B:GLU:543:C:9874, H-A:GLU:543:OE2:4910, V-A:GLU:543:C:4902, V-B:GLU:543:CB:9878, V-B:TYR:539:CE2:9848, V-B:GLU:543:CG:9879, V-A:GLY:544:C:4912, V-B:TYR:539:C:9839, V-A:TYR:484:CZ:4347, V-A:GLU:543:CD:4908, V-B:HIS:456:CE1:9041, H-A:GLY:454:N:4050, V-A:ILE:369:CD1:3239, V-A:HIS:456:CE1:4070, V-B:TYR:539:CD2:9846, V-B:GLU:543:CD:9880, V-A:LEU:475:CD2:4259, H-A:ARG:545:NH2:4928, V-A:ARG:545:CZ:4926, H-A:GLU:543:OE1:4909, V-A:GLU:543:CB:4906, H-A:ARG:545:NE:4924, H-A:TYR:484:OH:4348"]

$$$$
1j_Grossjean_2025
     RDKit          3D

 32 33  0  0  0  0  0  0  0  0999 V2000
  129.3250  121.7190   60.6540 C   0  0  0  0  0  0  0  0  0  0  0  0
  130.3550  122.3540   61.5700 C   0  0  0  0  0  0  0  0  0  0  0  0
  131.6320  122.6760   61.1170 C   0  0  0  0  0  0  0  0  0  0  0  0
  132.5360  123.2720   62.0030 C   0  0  0  0  0  0  0  0  0  0  0  0
  133.9260  123.6330   61.4780 C   0  0  0  0  0  0  0  0  0  0  0  0
  132.1350  123.5240   63.3340 C   0  0  0  0  0  0  0  0  0  0  0  0
  133.0470  124.1960   64.2630 C   0  0  0  0  0  0  0  0  0  0  0  0
  133.7700  124.7270   64.9950 N   0  0  0  0  0  0  0  0  0  0  0  0
  130.8270  123.1400   63.7140 C   0  0  0  0  0  0  0  0  0  0  0  0
  130.1580  123.3790   65.3460 S   0  0  0  0  0  0  0  0  0  0  0  0
  130.2870  125.1480   65.7420 C   0  0  0  0  0  0  0  0  0  0  0  0
  129.9840  125.4300   67.2150 C   0  0  0  0  0  0  0  0  0  0  0  0
  129.5310  124.5280   67.9220 O   0  0  0  0  0  0  0  0  0  0  0  0
  130.2480  126.6860   67.6340 N   0  0  0  0  0  0  0  0  0  0  0  0
  130.0560  127.1910   68.9120 C   0  0  0  0  0  0  0  0  0  0  0  0
  130.9390  127.7840   69.6870 N   0  0  0  0  0  0  0  0  0  0  0  0
  130.4080  128.1380   70.8410 C   0  0  0  0  0  0  0  0  0  0  0  0
  129.0620  127.8340   71.0190 C   0  0  0  0  0  0  0  0  0  0  0  0
  128.4670  127.0410   69.5920 S   0  0  0  0  0  0  0  0  0  0  0  0
  129.9510  122.5820   62.8420 N   0  0  0  0  0  0  0  0  0  0  0  0
  128.5433  121.2371   61.2596 H   0  0  0  0  0  0  0  0  0  0  0  0
  128.8712  122.4944   60.0192 H   0  0  0  0  0  0  0  0  0  0  0  0
  129.8139  120.9653   60.0192 H   0  0  0  0  0  0  0  0  0  0  0  0
  131.9255  122.4649   60.0781 H   0  0  0  0  0  0  0  0  0  0  0  0
  134.6040  123.8091   62.3262 H   0  0  0  0  0  0  0  0  0  0  0  0
  134.3128  122.8055   60.8651 H   0  0  0  0  0  0  0  0  0  0  0  0
  133.8612  124.5441   60.8651 H   0  0  0  0  0  0  0  0  0  0  0  0
  131.3089  125.4883   65.5183 H   0  0  0  0  0  0  0  0  0  0  0  0
  129.5457  125.6869   65.1338 H   0  0  0  0  0  0  0  0  0  0  0  0
  130.5940  127.3440   66.9500 H   0  0  0  0  0  0  0  0  0  0  0  0
  130.9965  128.6454   71.6196 H   0  0  0  0  0  0  0  0  0  0  0  0
  128.4699  128.0594   71.9182 H   0  0  0  0  0  0  0  0  0  0  0  0
  1  2  1  0
  2  3  2  0
  3  4  1  0
  4  5  1  0
  4  6  2  0
  6  7  1  0
  7  8  3  0
  6  9  1  0
  9 10  1  0
 10 11  1  0
 11 12  1  0
 12 13  2  0
 12 14  1  0
 14 15  1  0
 15 16  2  0
 16 17  1  0
 17 18  2  0
 18 19  1  0
  9 20  2  0
 20  2  1  0
 19 15  1  0
  1 21  1  0
  1 22  1  0
  1 23  1  0
  3 24  1  0
  5 25  1  0
  5 26  1  0
  5 27  1  0
 11 28  1  0
 11 29  1  0
 14 30  1  0
 17 31  1  0
 18 32  1  0
M  END
>  <Binding energies>  (1) 
[-6.44]

>  <Ligand effiencies>  (1) 
[-0.3066666666666667]

>  <Interactions>  (1) 
["V-B:PRO:540:CA:9855, V-A:GLY:454:CA:4049, V-B:GLU:543:C:9874, H-A:GLU:543:OE2:4910, V-A:GLU:543:C:4902, V-B:HIS:456:CD2:9039, V-B:GLU:543:CB:9878, V-B:TYR:539:CE2:9848, V-B:GLU:543:CG:9879, V-A:GLY:544:C:4912, V-B:TYR:539:C:9839, V-A:GLU:543:CD:4908, V-B:HIS:456:CE1:9041, H-A:GLY:454:N:4050, V-A:ILE:369:CD1:3239, V-A:HIS:456:CE1:4070, V-B:TYR:539:CD2:9846, V-A:LEU:475:CD2:4259, H-A:ARG:545:NH2:4928, H-A:GLU:543:OE1:4909, V-A:GLU:543:CB:4906, H-A:ARG:545:NE:4924, H-A:TYR:484:OH:4348"]

$$$$
1k_Grossjean_2025
     RDKit          3D

 50 50  0  0  0  0  0  0  0  0999 V2000
  134.6120  126.9260   74.7810 C   0  0  0  0  0  0  0  0  0  0  0  0
  133.2470  127.3040   74.8560 O   0  0  0  0  0  0  0  0  0  0  0  0
  132.3560  126.3040   74.3780 C   0  0  0  0  0  0  0  0  0  0  0  0
  130.9270  126.8640   74.3480 C   0  0  0  0  0  0  0  0  0  0  0  0
  130.8380  127.8780   73.3560 O   0  0  0  0  0  0  0  0  0  0  0  0
  130.6250  127.3760   72.0430 C   0  0  0  0  0  0  0  0  0  0  0  0
  129.4220  128.0900   71.4130 C   0  0  0  0  0  0  0  0  0  0  0  0
  128.4860  127.1240   70.9530 O   0  0  0  0  0  0  0  0  0  0  0  0
  128.3700  127.0690   69.5370 C   0  0  0  0  0  0  0  0  0  0  0  0
  129.6880  127.5390   68.8930 C   0  0  0  0  0  0  0  0  0  0  0  0
  129.9530  126.9490   67.5800 N   0  0  0  0  0  0  0  0  0  0  0  0
  129.8720  125.6390   67.2880 C   0  0  0  0  0  0  0  0  0  0  0  0
  129.5530  124.7840   68.1170 O   0  0  0  0  0  0  0  0  0  0  0  0
  130.2110  125.2610   65.8380 C   0  0  0  0  0  0  0  0  0  0  0  0
  130.0990  123.4820   65.4380 S   0  0  0  0  0  0  0  0  0  0  0  0
  130.6670  123.2200   63.7640 C   0  0  0  0  0  0  0  0  0  0  0  0
  129.7740  122.6410   62.9190 N   0  0  0  0  0  0  0  0  0  0  0  0
  130.1430  122.4050   61.6390 C   0  0  0  0  0  0  0  0  0  0  0  0
  129.0950  121.7490   60.7610 C   0  0  0  0  0  0  0  0  0  0  0  0
  131.4020  122.7400   61.1470 C   0  0  0  0  0  0  0  0  0  0  0  0
  132.3280  123.3430   62.0040 C   0  0  0  0  0  0  0  0  0  0  0  0
  133.7030  123.7010   61.4440 C   0  0  0  0  0  0  0  0  0  0  0  0
  131.9640  123.5940   63.3460 C   0  0  0  0  0  0  0  0  0  0  0  0
  132.9160  124.2210   64.2680 C   0  0  0  0  0  0  0  0  0  0  0  0
  133.6680  124.7170   64.9950 N   0  0  0  0  0  0  0  0  0  0  0  0
  135.0177  126.8136   75.7973 H   0  0  0  0  0  0  0  0  0  0  0  0
  134.6988  125.9700   74.2438 H   0  0  0  0  0  0  0  0  0  0  0  0
  135.1781  127.7012   74.2438 H   0  0  0  0  0  0  0  0  0  0  0  0
  132.6533  126.0030   73.3626 H   0  0  0  0  0  0  0  0  0  0  0  0
  132.3935  125.4302   75.0451 H   0  0  0  0  0  0  0  0  0  0  0  0
  130.2207  126.0549   74.1102 H   0  0  0  0  0  0  0  0  0  0  0  0
  130.6783  127.2893   75.3315 H   0  0  0  0  0  0  0  0  0  0  0  0
  131.5209  127.5572   71.4311 H   0  0  0  0  0  0  0  0  0  0  0  0
  130.4269  126.2950   72.0907 H   0  0  0  0  0  0  0  0  0  0  0  0
  128.9437  128.7354   72.1645 H   0  0  0  0  0  0  0  0  0  0  0  0
  129.7620  128.7039   70.5659 H   0  0  0  0  0  0  0  0  0  0  0  0
  128.1590  126.0350   69.2267 H   0  0  0  0  0  0  0  0  0  0  0  0
  127.5494  127.7253   69.2115 H   0  0  0  0  0  0  0  0  0  0  0  0
  129.6465  128.6323   68.7789 H   0  0  0  0  0  0  0  0  0  0  0  0
  130.5011  127.2129   69.5582 H   0  0  0  0  0  0  0  0  0  0  0  0
  130.2220  127.5910   66.8490 H   0  0  0  0  0  0  0  0  0  0  0  0
  129.5171  125.8007   65.1767 H   0  0  0  0  0  0  0  0  0  0  0  0
  131.2666  125.5352   65.6950 H   0  0  0  0  0  0  0  0  0  0  0  0
  128.3326  121.2718   61.3943 H   0  0  0  0  0  0  0  0  0  0  0  0
  128.6195  122.5110   60.1259 H   0  0  0  0  0  0  0  0  0  0  0  0
  129.5726  120.9884   60.1259 H   0  0  0  0  0  0  0  0  0  0  0  0
  131.6644  122.5332   60.0990 H   0  0  0  0  0  0  0  0  0  0  0  0
  134.4011  123.8828   62.2744 H   0  0  0  0  0  0  0  0  0  0  0  0
  134.0754  122.8699   60.8271 H   0  0  0  0  0  0  0  0  0  0  0  0
  133.6228  124.6082   60.8271 H   0  0  0  0  0  0  0  0  0  0  0  0
  1  2  1  0
  2  3  1  0
  3  4  1  0
  4  5  1  0
  5  6  1  0
  6  7  1  0
  7  8  1  0
  8  9  1  0
  9 10  1  0
 10 11  1  0
 11 12  1  0
 12 13  2  0
 12 14  1  0
 14 15  1  0
 15 16  1  0
 16 17  2  0
 17 18  1  0
 18 19  1  0
 18 20  2  0
 20 21  1  0
 21 22  1  0
 21 23  2  0
 23 24  1  0
 24 25  3  0
 23 16  1  0
  1 26  1  0
  1 27  1  0
  1 28  1  0
  3 29  1  0
  3 30  1  0
  4 31  1  0
  4 32  1  0
  6 33  1  0
  6 34  1  0
  7 35  1  0
  7 36  1  0
  9 37  1  0
  9 38  1  0
 10 39  1  0
 10 40  1  0
 11 41  1  0
 14 42  1  0
 14 43  1  0
 19 44  1  0
 19 45  1  0
 19 46  1  0
 20 47  1  0
 22 48  1  0
 22 49  1  0
 22 50  1  0
M  END
>  <Binding energies>  (1) 
[-6.26]

>  <Ligand effiencies>  (1) 
[-0.24076923076923076]

>  <Interactions>  (1) 
["V-B:PRO:540:CA:9855, V-A:GLY:454:CA:4049, V-B:GLU:543:C:9874, H-A:GLU:543:OE2:4910, V-B:HIS:456:CD2:9039, V-B:GLU:543:CB:9878, V-B:TYR:539:CE2:9848, V-B:GLU:543:CG:9879, V-A:GLY:544:C:4912, V-B:TYR:539:C:9839, V-A:HIS:456:CD2:4068, V-A:LYS:547:CG:4948, V-A:LYS:547:CB:4947, V-A:HIS:456:CB:4065, V-A:GLU:543:CD:4908, V-B:HIS:456:CE1:9041, H-A:GLY:454:N:4050, V-A:HIS:456:CE1:4070, V-A:ILE:369:CD1:3239, V-B:TYR:539:CD2:9846, H-A:LYS:547:NZ:4951, H-A:ARG:545:NH2:4928, V-A:LEU:475:CD2:4259, H-A:GLU:543:OE1:4909, V-A:ARG:545:C:4917, V-A:GLU:543:CB:4906, V-A:HIS:456:CG:4066, H-A:ARG:545:NE:4924, V-B:PRO:540:C:9853, H-A:TYR:484:OH:4348"]

$$$$
1l_Grossjean_2025
     RDKit          3D

 30 30  0  0  0  0  0  0  0  0999 V2000
  132.5680  125.0950   64.8790 C   0  0  0  0  0  0  0  0  0  0  0  0
  133.8660  124.7530   64.4120 O   0  0  0  0  0  0  0  0  0  0  0  0
  133.9300  124.9100   63.0280 N   0  0  0  0  0  0  0  0  0  0  0  0
  134.1070  123.8220   62.2550 C   0  0  0  0  0  0  0  0  0  0  0  0
  133.9910  122.6640   62.6670 O   0  0  0  0  0  0  0  0  0  0  0  0
  134.4550  124.1140   60.7890 C   0  0  0  0  0  0  0  0  0  0  0  0
  133.1810  123.6190   59.5790 S   0  0  0  0  0  0  0  0  0  0  0  0
  131.8740  122.7830   60.4600 C   0  0  0  0  0  0  0  0  0  0  0  0
  130.9530  123.5870   61.0540 N   0  0  0  0  0  0  0  0  0  0  0  0
  129.9340  123.0180   61.7410 C   0  0  0  0  0  0  0  0  0  0  0  0
  128.9480  123.9810   62.3740 C   0  0  0  0  0  0  0  0  0  0  0  0
  129.7890  121.6380   61.8630 C   0  0  0  0  0  0  0  0  0  0  0  0
  130.7290  120.8000   61.2550 C   0  0  0  0  0  0  0  0  0  0  0  0
  130.5490  119.2900   61.4020 C   0  0  0  0  0  0  0  0  0  0  0  0
  131.8010  121.3720   60.5350 C   0  0  0  0  0  0  0  0  0  0  0  0
  132.8010  120.5170   59.8880 C   0  0  0  0  0  0  0  0  0  0  0  0
  133.5890  119.8410   59.3780 N   0  0  0  0  0  0  0  0  0  0  0  0
  132.5627  125.0964   65.9790 H   0  0  0  0  0  0  0  0  0  0  0  0
  132.2972  126.0952   64.5097 H   0  0  0  0  0  0  0  0  0  0  0  0
  131.8395  124.3581   64.5097 H   0  0  0  0  0  0  0  0  0  0  0  0
  134.2190  125.8410   62.7630 H   0  0  0  0  0  0  0  0  0  0  0  0
  134.6200  125.1967   60.6868 H   0  0  0  0  0  0  0  0  0  0  0  0
  135.3467  123.5121   60.5594 H   0  0  0  0  0  0  0  0  0  0  0  0
  129.0193  123.9114   63.4695 H   0  0  0  0  0  0  0  0  0  0  0  0
  129.1823  125.0076   62.0558 H   0  0  0  0  0  0  0  0  0  0  0  0
  127.9272  123.7225   62.0558 H   0  0  0  0  0  0  0  0  0  0  0  0
  128.9471  121.2135   62.4295 H   0  0  0  0  0  0  0  0  0  0  0  0
  130.5176  119.0267   62.4696 H   0  0  0  0  0  0  0  0  0  0  0  0
  129.6081  118.9844   60.9211 H   0  0  0  0  0  0  0  0  0  0  0  0
  131.3917  118.7717   60.9211 H   0  0  0  0  0  0  0  0  0  0  0  0
  1  2  1  0
  2  3  1  0
  3  4  1  0
  4  5  2  0
  4  6  1  0
  6  7  1  0
  7  8  1  0
  8  9  2  0
  9 10  1  0
 10 11  1  0
 10 12  2  0
 12 13  1  0
 13 14  1  0
 13 15  2  0
 15 16  1  0
 16 17  3  0
 15  8  1  0
  1 18  1  0
  1 19  1  0
  1 20  1  0
  3 21  1  0
  6 22  1  0
  6 23  1  0
 11 24  1  0
 11 25  1  0
 11 26  1  0
 12 27  1  0
 14 28  1  0
 14 29  1  0
 14 30  1  0
M  END
>  <Binding energies>  (1) 
[-5.39]

>  <Ligand effiencies>  (1) 
[-0.2994444444444444]

>  <Interactions>  (1) 
["V-A:ILE:369:CG2:3237, V-A:ASP:366:CA:3210, V-A:ILE:369:CD1:3239, V-A:GLY:453:CA:4044, V-A:ILE:369:CB:3236, V-B:TYR:539:CD2:9846, H-A:ARG:545:NE:4924, H-A:SER:385:OG:3410, V-B:ALA:541:CB:9864, V-B:TYR:539:CE2:9848, V-A:LEU:475:CG:4257, V-A:LEU:475:CD2:4259, H-A:ARG:545:NH2:4928, V-A:ARG:545:CZ:4926, H-A:GLY:454:N:4050, V-A:ASP:366:CG:3213, H-A:TYR:484:OH:4348, H-A:ASP:366:OD1:3214"]

$$$$
1q_Grossjean_2025
     RDKit          3D

 38 38  0  0  0  0  0  0  0  0999 V2000
  131.9270  126.2740   58.3010 C   0  0  0  0  0  0  0  0  0  0  0  0
  132.0840  124.9540   58.8010 O   0  0  0  0  0  0  0  0  0  0  0  0
  133.3140  124.3930   58.8890 C   0  0  0  0  0  0  0  0  0  0  0  0
  133.9740  123.9620   57.9410 O   0  0  0  0  0  0  0  0  0  0  0  0
  133.8570  124.2910   60.3300 C   0  0  0  0  0  0  0  0  0  0  0  0
  132.8910  124.7460   61.3410 N   0  0  0  0  0  0  0  0  0  0  0  0
  133.1050  124.7980   62.6700 C   0  0  0  0  0  0  0  0  0  0  0  0
  134.1680  124.4620   63.1950 O   0  0  0  0  0  0  0  0  0  0  0  0
  131.9380  125.3240   63.5190 C   0  0  0  0  0  0  0  0  0  0  0  0
  132.0790  125.0500   65.0290 C   0  0  0  0  0  0  0  0  0  0  0  0
  130.5310  124.5180   65.8190 S   0  0  0  0  0  0  0  0  0  0  0  0
  129.7340  125.9470   66.5250 C   0  0  0  0  0  0  0  0  0  0  0  0
  129.8150  125.9950   67.8790 N   0  0  0  0  0  0  0  0  0  0  0  0
  129.2430  127.0350   68.5300 C   0  0  0  0  0  0  0  0  0  0  0  0
  129.3600  127.0100   70.0420 C   0  0  0  0  0  0  0  0  0  0  0  0
  128.5830  128.0660   67.8650 C   0  0  0  0  0  0  0  0  0  0  0  0
  128.5160  128.0410   66.4690 C   0  0  0  0  0  0  0  0  0  0  0  0
  127.8030  129.1930   65.7630 C   0  0  0  0  0  0  0  0  0  0  0  0
  129.1070  126.9660   65.7670 C   0  0  0  0  0  0  0  0  0  0  0  0
  129.0960  126.9520   64.3030 C   0  0  0  0  0  0  0  0  0  0  0  0
  129.0850  126.9450   63.1450 N   0  0  0  0  0  0  0  0  0  0  0  0
  131.8433  126.9773   59.1426 H   0  0  0  0  0  0  0  0  0  0  0  0
  132.7999  126.5396   57.6866 H   0  0  0  0  0  0  0  0  0  0  0  0
  131.0162  126.3274   57.6866 H   0  0  0  0  0  0  0  0  0  0  0  0
  134.1110  123.2406   60.5354 H   0  0  0  0  0  0  0  0  0  0  0  0
  134.7375  124.9468   60.3973 H   0  0  0  0  0  0  0  0  0  0  0  0
  131.9820  125.0160   60.9940 H   0  0  0  0  0  0  0  0  0  0  0  0
  131.8672  126.4117   63.3713 H   0  0  0  0  0  0  0  0  0  0  0  0
  131.0378  124.7879   63.1840 H   0  0  0  0  0  0  0  0  0  0  0  0
  132.8311  124.2599   65.1704 H   0  0  0  0  0  0  0  0  0  0  0  0
  132.3741  125.9978   65.5029 H   0  0  0  0  0  0  0  0  0  0  0  0
  128.3772  127.2200   70.4893 H   0  0  0  0  0  0  0  0  0  0  0  0
  129.7061  126.0176   70.3666 H   0  0  0  0  0  0  0  0  0  0  0  0
  130.0815  127.7743   70.3666 H   0  0  0  0  0  0  0  0  0  0  0  0
  128.1209  128.8885   68.4307 H   0  0  0  0  0  0  0  0  0  0  0  0
  127.3796  129.8770   66.5133 H   0  0  0  0  0  0  0  0  0  0  0  0
  128.5217  129.7384   65.1337 H   0  0  0  0  0  0  0  0  0  0  0  0
  126.9943  128.7931   65.1337 H   0  0  0  0  0  0  0  0  0  0  0  0
  1  2  1  0
  2  3  1  0
  3  4  2  0
  3  5  1  0
  5  6  1  0
  6  7  1  0
  7  8  2  0
  7  9  1  0
  9 10  1  0
 10 11  1  0
 11 12  1  0
 12 13  2  0
 13 14  1  0
 14 15  1  0
 14 16  2  0
 16 17  1  0
 17 18  1  0
 17 19  2  0
 19 20  1  0
 20 21  3  0
 19 12  1  0
  1 22  1  0
  1 23  1  0
  1 24  1  0
  5 25  1  0
  5 26  1  0
  6 27  1  0
  9 28  1  0
  9 29  1  0
 10 30  1  0
 10 31  1  0
 15 32  1  0
 15 33  1  0
 15 34  1  0
 16 35  1  0
 18 36  1  0
 18 37  1  0
 18 38  1  0
M  END
>  <Binding energies>  (1) 
[-5.58]

>  <Ligand effiencies>  (1) 
[-0.25363636363636366]

>  <Interactions>  (1) 
["V-A:ILE:369:CG2:3237, V-A:ASP:366:CA:3210, V-B:GLU:543:CB:9878, V-B:TYR:539:CE2:9848, V-B:GLU:543:CG:9879, V-A:ASP:366:CG:3213, H-A:ASN:370:N:3244, H-B:TYR:539:OH:9850, V-A:GLU:543:CD:4908, V-B:HIS:456:CE1:9041, H-A:GLY:454:N:4050, V-A:HIS:456:CE1:4070, V-A:ILE:369:CD1:3239, V-A:GLU:543:CG:4907, V-B:GLU:543:CD:9880, V-A:ASP:366:CB:3212, H-A:ARG:545:NH2:4928, V-A:ARG:545:CZ:4926, V-A:GLU:543:CB:4906, H-A:TYR:484:OH:4348"]

$$$$
2a_Ghoteimi_2023
     RDKit          3D

 85 90  0  0  0  0  0  0  0  0999 V2000
  134.2510  122.4450   62.3410 C   0  0  0  0  0  0  0  0  0  0  0  0
  133.7940  122.3300   60.8840 C   0  0  0  0  0  0  0  0  0  0  0  0
  134.4840  123.2910   60.0960 O   0  0  0  0  0  0  0  0  0  0  0  0
  133.8400  124.0100   59.1410 C   0  0  0  0  0  0  0  0  0  0  0  0
  133.9480  123.7850   57.9320 O   0  0  0  0  0  0  0  0  0  0  0  0
  132.9750  125.1020   59.7030 C   0  0  0  0  0  0  0  0  0  0  0  0
  132.8270  125.2940   61.0850 C   0  0  0  0  0  0  0  0  0  0  0  0
  132.0190  126.3170   61.5730 C   0  0  0  0  0  0  0  0  0  0  0  0
  131.3470  127.1700   60.6950 C   0  0  0  0  0  0  0  0  0  0  0  0
  130.5550  128.1660   61.2970 N   0  0  0  0  0  0  0  0  0  0  0  0
  129.9680  129.2530   60.7500 C   0  0  0  0  0  0  0  0  0  0  0  0
  130.0740  129.5980   59.5720 O   0  0  0  0  0  0  0  0  0  0  0  0
  129.1500  130.1120   61.7230 C   0  0  0  0  0  0  0  0  0  0  0  0
  127.6610  129.2940   62.3810 S   0  0  0  0  0  0  0  0  0  0  0  0
  128.2410  127.8300   63.2060 C   0  0  0  0  0  0  0  0  0  0  0  0
  128.3860  127.9760   64.5430 N   0  0  0  0  0  0  0  0  0  0  0  0
  128.8320  126.9310   65.2840 C   0  0  0  0  0  0  0  0  0  0  0  0
  128.9770  127.1680   66.7530 C   0  0  0  0  0  0  0  0  0  0  0  0
  129.3460  126.1340   67.6220 C   0  0  0  0  0  0  0  0  0  0  0  0
  129.4680  126.3570   68.9900 C   0  0  0  0  0  0  0  0  0  0  0  0
  129.2330  127.6250   69.5410 C   0  0  0  0  0  0  0  0  0  0  0  0
  129.3300  127.8280   70.9220 N   0  0  0  0  0  0  0  0  0  0  0  0
  130.5090  127.3710   71.6870 C   0  0  0  0  0  0  0  0  0  0  0  0
  130.6130  127.9880   73.0970 C   0  0  0  0  0  0  0  0  0  0  0  0
  129.4160  127.7520   73.8210 O   0  0  0  0  0  0  0  0  0  0  0  0
  128.2970  128.3380   73.1750 C   0  0  0  0  0  0  0  0  0  0  0  0
  128.1210  127.7330   71.7660 C   0  0  0  0  0  0  0  0  0  0  0  0
  128.8520  128.6560   68.6670 C   0  0  0  0  0  0  0  0  0  0  0  0
  128.7320  128.4330   67.2990 C   0  0  0  0  0  0  0  0  0  0  0  0
  129.1320  125.7010   64.6920 C   0  0  0  0  0  0  0  0  0  0  0  0
  128.9890  125.5260   63.3080 C   0  0  0  0  0  0  0  0  0  0  0  0
  129.3330  124.1880   62.7400 C   0  0  0  0  0  0  0  0  0  0  0  0
  128.3740  123.4560   62.0350 C   0  0  0  0  0  0  0  0  0  0  0  0
  128.6780  122.2000   61.5190 C   0  0  0  0  0  0  0  0  0  0  0  0
  129.9530  121.6390   61.6890 C   0  0  0  0  0  0  0  0  0  0  0  0
  130.2730  120.3710   61.1940 N   0  0  0  0  0  0  0  0  0  0  0  0
  129.8200  119.1730   61.9280 C   0  0  0  0  0  0  0  0  0  0  0  0
  129.8950  117.8790   61.0890 C   0  0  0  0  0  0  0  0  0  0  0  0
  131.2120  117.6980   60.5920 O   0  0  0  0  0  0  0  0  0  0  0  0
  131.6160  118.7800   59.7670 C   0  0  0  0  0  0  0  0  0  0  0  0
  131.5820  120.0970   60.5690 C   0  0  0  0  0  0  0  0  0  0  0  0
  130.9060  122.3750   62.4070 C   0  0  0  0  0  0  0  0  0  0  0  0
  130.6010  123.6300   62.9250 C   0  0  0  0  0  0  0  0  0  0  0  0
  128.5250  126.6190   62.5360 C   0  0  0  0  0  0  0  0  0  0  0  0
  128.3020  126.4800   61.0940 C   0  0  0  0  0  0  0  0  0  0  0  0
  128.1280  126.3680   59.9550 N   0  0  0  0  0  0  0  0  0  0  0  0
  131.4850  126.9790   59.3120 C   0  0  0  0  0  0  0  0  0  0  0  0
  132.2940  125.9560   58.8250 C   0  0  0  0  0  0  0  0  0  0  0  0
  133.4035  122.2317   63.0090 H   0  0  0  0  0  0  0  0  0  0  0  0
  135.0581  121.7219   62.5303 H   0  0  0  0  0  0  0  0  0  0  0  0
  134.6197  123.4639   62.5303 H   0  0  0  0  0  0  0  0  0  0  0  0
  134.0154  121.3201   60.5084 H   0  0  0  0  0  0  0  0  0  0  0  0
  132.7111  122.5135   60.8228 H   0  0  0  0  0  0  0  0  0  0  0  0
  133.3533  124.6314   61.7878 H   0  0  0  0  0  0  0  0  0  0  0  0
  131.9089  126.4546   62.6588 H   0  0  0  0  0  0  0  0  0  0  0  0
  130.4360  128.0520   62.2920 H   0  0  0  0  0  0  0  0  0  0  0  0
  129.7969  130.3822   62.5706 H   0  0  0  0  0  0  0  0  0  0  0  0
  128.8018  130.9861   61.1532 H   0  0  0  0  0  0  0  0  0  0  0  0
  129.5424  125.1303   67.2171 H   0  0  0  0  0  0  0  0  0  0  0  0
  129.7535  125.5248   69.6503 H   0  0  0  0  0  0  0  0  0  0  0  0
  130.4530  126.2773   71.7902 H   0  0  0  0  0  0  0  0  0  0  0  0
  131.3992  127.6958   71.1284 H   0  0  0  0  0  0  0  0  0  0  0  0
  131.4584  127.5315   73.6326 H   0  0  0  0  0  0  0  0  0  0  0  0
  130.7707  129.0728   73.0050 H   0  0  0  0  0  0  0  0  0  0  0  0
  127.3917  128.1453   73.7694 H   0  0  0  0  0  0  0  0  0  0  0  0
  128.4610  129.4218   73.0835 H   0  0  0  0  0  0  0  0  0  0  0  0
  127.8565  126.6709   71.8750 H   0  0  0  0  0  0  0  0  0  0  0  0
  127.3328  128.3132   71.2639 H   0  0  0  0  0  0  0  0  0  0  0  0
  128.6447  129.6578   69.0712 H   0  0  0  0  0  0  0  0  0  0  0  0
  128.4406  129.2622   66.6376 H   0  0  0  0  0  0  0  0  0  0  0  0
  129.4824  124.8652   65.3154 H   0  0  0  0  0  0  0  0  0  0  0  0
  127.3686  123.8769   61.8864 H   0  0  0  0  0  0  0  0  0  0  0  0
  127.9077  121.6387   60.9699 H   0  0  0  0  0  0  0  0  0  0  0  0
  130.4533  119.0489   62.8188 H   0  0  0  0  0  0  0  0  0  0  0  0
  128.7634  119.3311   62.1899 H   0  0  0  0  0  0  0  0  0  0  0  0
  129.6224  117.0198   61.7195 H   0  0  0  0  0  0  0  0  0  0  0  0
  129.1972  117.9569   60.2422 H   0  0  0  0  0  0  0  0  0  0  0  0
  132.6392  118.6001   59.4056 H   0  0  0  0  0  0  0  0  0  0  0  0
  130.9270  118.8596   58.9132 H   0  0  0  0  0  0  0  0  0  0  0  0
  132.3420  120.0415   61.3623 H   0  0  0  0  0  0  0  0  0  0  0  0
  131.7795  120.9138   59.8592 H   0  0  0  0  0  0  0  0  0  0  0  0
  131.9102  121.9540   62.5633 H   0  0  0  0  0  0  0  0  0  0  0  0
  131.3653  124.1883   63.4855 H   0  0  0  0  0  0  0  0  0  0  0  0
  130.9529  127.6389   58.6110 H   0  0  0  0  0  0  0  0  0  0  0  0
  132.3999  125.8165   57.7390 H   0  0  0  0  0  0  0  0  0  0  0  0
  1  2  1  0
  2  3  1  0
  3  4  1  0
  4  5  2  0
  4  6  1  0
  6  7  2  0
  7  8  1  0
  8  9  2  0
  9 10  1  0
 10 11  1  0
 11 12  2  0
 11 13  1  0
 13 14  1  0
 14 15  1  0
 15 16  2  0
 16 17  1  0
 17 18  1  0
 18 19  2  0
 19 20  1  0
 20 21  2  0
 21 22  1  0
 22 23  1  0
 23 24  1  0
 24 25  1  0
 25 26  1  0
 26 27  1  0
 21 28  1  0
 28 29  2  0
 17 30  2  0
 30 31  1  0
 31 32  1  0
 32 33  2  0
 33 34  1  0
 34 35  2  0
 35 36  1  0
 36 37  1  0
 37 38  1  0
 38 39  1  0
 39 40  1  0
 40 41  1  0
 35 42  1  0
 42 43  2  0
 31 44  2  0
 44 45  1  0
 45 46  3  0
  9 47  1  0
 47 48  2  0
 48  6  1  0
 44 15  1  0
 29 18  1  0
 43 32  1  0
 27 22  1  0
 41 36  1  0
  1 49  1  0
  1 50  1  0
  1 51  1  0
  2 52  1  0
  2 53  1  0
  7 54  1  0
  8 55  1  0
 10 56  1  0
 13 57  1  0
 13 58  1  0
 19 59  1  0
 20 60  1  0
 23 61  1  0
 23 62  1  0
 24 63  1  0
 24 64  1  0
 26 65  1  0
 26 66  1  0
 27 67  1  0
 27 68  1  0
 28 69  1  0
 29 70  1  0
 30 71  1  0
 33 72  1  0
 34 73  1  0
 37 74  1  0
 37 75  1  0
 38 76  1  0
 38 77  1  0
 40 78  1  0
 40 79  1  0
 41 80  1  0
 41 81  1  0
 42 82  1  0
 43 83  1  0
 47 84  1  0
 48 85  1  0
M  END
>  <Binding energies>  (1) 
[-8.9]

>  <Ligand effiencies>  (1) 
[-0.1816326530612245]

>  <Interactions>  (1) 
["V-A:ILE:369:CG2:3237, V-A:ASP:366:CA:3210, V-B:PRO:540:CA:9855, V-A:GLY:454:CA:4049, V-B:HIS:456:CD2:9039, V-A:ILE:369:CB:3236, V-B:GLU:543:CB:9878, H-B:LYS:547:NZ:9923, V-B:ALA:541:CB:9864, V-B:TYR:539:CE2:9848, V-A:LEU:475:CG:4257, V-B:GLU:543:CG:9879, V-A:GLY:544:C:4912, V-B:TYR:539:C:9839, V-A:HIS:456:CD2:4068, V-A:ASP:366:CG:3213, H-A:ASN:370:N:3244, H-B:TYR:539:OH:9850, V-A:LEU:475:CD1:4258, V-B:TYR:539:CB:9843, V-A:GLU:543:CD:4908, V-B:GLU:543:CA:9876, V-B:HIS:456:CE1:9041, V-A:HIS:456:CE1:4070, V-A:ILE:369:CD1:3239, V-A:PRO:482:CB:4326, V-B:TYR:539:CD2:9846, V-A:GLU:543:CG:4907, H-A:SER:385:OG:3410, V-B:GLU:543:CD:9880, V-B:HIS:456:CG:9037, V-A:ASP:366:CB:3212, H-A:LYS:547:NZ:4951, V-A:LEU:475:CD2:4259, H-A:GLU:543:OE1:4909, V-B:TYR:539:CG:9844, V-A:GLU:543:CB:4906, H-A:HIS:383:HE2:3395, V-B:PRO:540:C:9853, V-A:HIS:383:NE2:3394"]

$$$$
2b_Grossjean_2025
     RDKit          3D

 42 43  0  0  0  0  0  0  0  0999 V2000
  127.1570  128.4330   74.0390 C   0  0  0  0  0  0  0  0  0  0  0  0
  128.3810  127.8730   73.5850 O   0  0  0  0  0  0  0  0  0  0  0  0
  129.2560  128.6060   72.8490 C   0  0  0  0  0  0  0  0  0  0  0  0
  129.8180  129.6200   73.2730 O   0  0  0  0  0  0  0  0  0  0  0  0
  129.4690  128.0620   71.4660 C   0  0  0  0  0  0  0  0  0  0  0  0
  128.4550  127.3880   70.7690 C   0  0  0  0  0  0  0  0  0  0  0  0
  128.6850  126.8950   69.4880 C   0  0  0  0  0  0  0  0  0  0  0  0
  129.9260  127.0670   68.8770 C   0  0  0  0  0  0  0  0  0  0  0  0
  130.0530  126.5230   67.5840 N   0  0  0  0  0  0  0  0  0  0  0  0
  129.9280  125.2440   67.1710 C   0  0  0  0  0  0  0  0  0  0  0  0
  129.6930  124.2790   67.8990 O   0  0  0  0  0  0  0  0  0  0  0  0
  130.1190  125.0230   65.6670 C   0  0  0  0  0  0  0  0  0  0  0  0
  130.1020  123.2620   65.1940 S   0  0  0  0  0  0  0  0  0  0  0  0
  130.5490  123.0890   63.4710 C   0  0  0  0  0  0  0  0  0  0  0  0
  129.6010  122.5390   62.6700 N   0  0  0  0  0  0  0  0  0  0  0  0
  129.8730  122.3730   61.3560 C   0  0  0  0  0  0  0  0  0  0  0  0
  128.7670  121.7410   60.5320 C   0  0  0  0  0  0  0  0  0  0  0  0
  131.0850  122.7510   60.7860 C   0  0  0  0  0  0  0  0  0  0  0  0
  132.0770  123.3280   61.5940 C   0  0  0  0  0  0  0  0  0  0  0  0
  133.4110  123.7450   60.9470 C   0  0  0  0  0  0  0  0  0  0  0  0
  134.4260  123.1430   61.5670 F   0  0  0  0  0  0  0  0  0  0  0  0
  133.4240  123.3970   59.6590 F   0  0  0  0  0  0  0  0  0  0  0  0
  133.6260  125.0610   61.0080 F   0  0  0  0  0  0  0  0  0  0  0  0
  131.8080  123.5020   62.9760 C   0  0  0  0  0  0  0  0  0  0  0  0
  132.8100  124.0940   63.8680 C   0  0  0  0  0  0  0  0  0  0  0  0
  133.6000  124.5610   64.5720 N   0  0  0  0  0  0  0  0  0  0  0  0
  130.9490  127.7320   69.5690 C   0  0  0  0  0  0  0  0  0  0  0  0
  130.7170  128.2240   70.8500 C   0  0  0  0  0  0  0  0  0  0  0  0
  127.1425  128.4396   75.1389 H   0  0  0  0  0  0  0  0  0  0  0  0
  127.0640  129.4632   73.6648 H   0  0  0  0  0  0  0  0  0  0  0  0
  126.3167  127.8298   73.6648 H   0  0  0  0  0  0  0  0  0  0  0  0
  127.4702  127.2481   71.2388 H   0  0  0  0  0  0  0  0  0  0  0  0
  127.8819  126.3660   68.9540 H   0  0  0  0  0  0  0  0  0  0  0  0
  130.3240  127.1930   66.8790 H   0  0  0  0  0  0  0  0  0  0  0  0
  129.3069  125.5369   65.1319 H   0  0  0  0  0  0  0  0  0  0  0  0
  131.1076  125.4245   65.3998 H   0  0  0  0  0  0  0  0  0  0  0  0
  128.0106  121.3088   61.2036 H   0  0  0  0  0  0  0  0  0  0  0  0
  128.2986  122.5078   59.8975 H   0  0  0  0  0  0  0  0  0  0  0  0
  129.1898  120.9482   59.8975 H   0  0  0  0  0  0  0  0  0  0  0  0
  131.2640  122.5989   59.7114 H   0  0  0  0  0  0  0  0  0  0  0  0
  131.9347  127.8646   69.0991 H   0  0  0  0  0  0  0  0  0  0  0  0
  131.5234  128.7465   71.3855 H   0  0  0  0  0  0  0  0  0  0  0  0
  1  2  1  0
  2  3  1  0
  3  4  2  0
  3  5  1  0
  5  6  2  0
  6  7  1  0
  7  8  2  0
  8  9  1  0
  9 10  1  0
 10 11  2  0
 10 12  1  0
 12 13  1  0
 13 14  1  0
 14 15  2  0
 15 16  1  0
 16 17  1  0
 16 18  2  0
 18 19  1  0
 19 20  1  0
 20 21  1  0
 20 22  1  0
 20 23  1  0
 19 24  2  0
 24 25  1  0
 25 26  3  0
  8 27  1  0
 27 28  2  0
 28  5  1  0
 24 14  1  0
  1 29  1  0
  1 30  1  0
  1 31  1  0
  6 32  1  0
  7 33  1  0
  9 34  1  0
 12 35  1  0
 12 36  1  0
 17 37  1  0
 17 38  1  0
 17 39  1  0
 18 40  1  0
 27 41  1  0
 28 42  1  0
M  END
>  <Binding energies>  (1) 
[-7.37]

>  <Ligand effiencies>  (1) 
[-0.2541379310344828]

>  <Interactions>  (1) 
["V-A:ILE:369:CG2:3237, V-A:ASP:366:CA:3210, V-B:PRO:540:CA:9855, V-B:GLU:543:C:9874, H-A:GLU:543:OE2:4910, V-A:ILE:369:CB:3236, V-A:GLU:543:C:4902, V-B:HIS:456:CD2:9039, V-B:GLU:543:CB:9878, H-B:LYS:547:NZ:9923, V-B:HIS:456:CB:9036, V-B:TYR:539:CE2:9848, V-A:TYR:484:CE2:4346, V-B:GLU:543:CG:9879, V-A:GLY:544:C:4912, V-B:TYR:539:C:9839, V-A:ASP:366:CG:3213, V-A:GLU:543:CD:4908, V-B:GLU:543:CA:9876, H-A:GLY:454:N:4050, V-B:HIS:456:CE1:9041, V-B:PRO:540:N:9856, V-A:HIS:456:CE1:4070, V-A:ILE:369:CD1:3239, V-B:TYR:539:CD2:9846, V-B:GLU:543:CD:9880, V-B:HIS:456:CG:9037, V-A:ASP:366:CB:3212, H-A:LYS:547:NZ:4951, H-A:ARG:545:NH2:4928, V-A:LEU:475:CD2:4259, H-A:GLU:543:OE1:4909, V-A:GLU:543:CB:4906, H-A:ARG:545:NE:4924, V-B:PRO:540:C:9853, H-A:TYR:484:OH:4348"]

$$$$
2c_Grossjean_2025
     RDKit          3D

 40 41  0  0  0  0  0  0  0  0999 V2000
  128.9160  129.1700   73.2940 C   0  0  0  0  0  0  0  0  0  0  0  0
  130.1770  128.8030   72.7440 O   0  0  0  0  0  0  0  0  0  0  0  0
  130.2260  128.2550   71.4770 C   0  0  0  0  0  0  0  0  0  0  0  0
  129.0680  127.6220   71.0270 C   0  0  0  0  0  0  0  0  0  0  0  0
  129.0200  127.0390   69.7640 C   0  0  0  0  0  0  0  0  0  0  0  0
  130.1500  127.0750   68.9340 C   0  0  0  0  0  0  0  0  0  0  0  0
  130.1920  126.5310   67.6370 N   0  0  0  0  0  0  0  0  0  0  0  0
  129.9260  125.2660   67.2450 C   0  0  0  0  0  0  0  0  0  0  0  0
  129.6440  124.3410   68.0080 O   0  0  0  0  0  0  0  0  0  0  0  0
  130.0360  125.0210   65.7330 C   0  0  0  0  0  0  0  0  0  0  0  0
  130.0020  123.2690   65.2170 S   0  0  0  0  0  0  0  0  0  0  0  0
  130.5080  123.1430   63.5060 C   0  0  0  0  0  0  0  0  0  0  0  0
  129.5560  122.7010   62.6430 N   0  0  0  0  0  0  0  0  0  0  0  0
  129.8700  122.5720   61.3350 C   0  0  0  0  0  0  0  0  0  0  0  0
  128.7600  122.0580   60.4400 C   0  0  0  0  0  0  0  0  0  0  0  0
  131.1310  122.8830   60.8310 C   0  0  0  0  0  0  0  0  0  0  0  0
  132.1260  123.3480   61.7020 C   0  0  0  0  0  0  0  0  0  0  0  0
  133.5160  123.6900   61.1290 C   0  0  0  0  0  0  0  0  0  0  0  0
  134.4020  122.7640   61.4980 F   0  0  0  0  0  0  0  0  0  0  0  0
  133.4640  123.7340   59.7970 F   0  0  0  0  0  0  0  0  0  0  0  0
  133.9710  124.8720   61.5520 F   0  0  0  0  0  0  0  0  0  0  0  0
  131.8130  123.4840   63.0780 C   0  0  0  0  0  0  0  0  0  0  0  0
  132.8160  123.9630   64.0350 C   0  0  0  0  0  0  0  0  0  0  0  0
  133.6070  124.3420   64.7900 N   0  0  0  0  0  0  0  0  0  0  0  0
  131.3070  127.7210   69.3720 C   0  0  0  0  0  0  0  0  0  0  0  0
  131.3490  128.3040   70.6360 C   0  0  0  0  0  0  0  0  0  0  0  0
  128.9759  129.1526   74.3922 H   0  0  0  0  0  0  0  0  0  0  0  0
  128.6499  130.1828   72.9573 H   0  0  0  0  0  0  0  0  0  0  0  0
  128.1480  128.4581   72.9573 H   0  0  0  0  0  0  0  0  0  0  0  0
  128.1820  127.5829   71.6777 H   0  0  0  0  0  0  0  0  0  0  0  0
  128.0972  126.5508   69.4174 H   0  0  0  0  0  0  0  0  0  0  0  0
  130.5250  127.1630   66.9240 H   0  0  0  0  0  0  0  0  0  0  0  0
  129.1952  125.5349   65.2442 H   0  0  0  0  0  0  0  0  0  0  0  0
  131.0229  125.4049   65.4354 H   0  0  0  0  0  0  0  0  0  0  0  0
  127.9358  121.6763   61.0605 H   0  0  0  0  0  0  0  0  0  0  0  0
  128.3919  122.8773   59.8050 H   0  0  0  0  0  0  0  0  0  0  0  0
  129.1467  121.2473   59.8050 H   0  0  0  0  0  0  0  0  0  0  0  0
  131.3441  122.7646   59.7584 H   0  0  0  0  0  0  0  0  0  0  0  0
  132.1889  127.7698   68.7164 H   0  0  0  0  0  0  0  0  0  0  0  0
  132.2667  128.8054   70.9772 H   0  0  0  0  0  0  0  0  0  0  0  0
  1  2  1  0
  2  3  1  0
  3  4  2  0
  4  5  1  0
  5  6  2  0
  6  7  1  0
  7  8  1  0
  8  9  2  0
  8 10  1  0
 10 11  1  0
 11 12  1  0
 12 13  2  0
 13 14  1  0
 14 15  1  0
 14 16  2  0
 16 17  1  0
 17 18  1  0
 18 19  1  0
 18 20  1  0
 18 21  1  0
 17 22  2  0
 22 23  1  0
 23 24  3  0
  6 25  1  0
 25 26  2  0
 26  3  1  0
 22 12  1  0
  1 27  1  0
  1 28  1  0
  1 29  1  0
  4 30  1  0
  5 31  1  0
  7 32  1  0
 10 33  1  0
 10 34  1  0
 15 35  1  0
 15 36  1  0
 15 37  1  0
 16 38  1  0
 25 39  1  0
 26 40  1  0
M  END
>  <Binding energies>  (1) 
[-6.7]

>  <Ligand effiencies>  (1) 
[-0.24814814814814815]

>  <Interactions>  (1) 
["V-A:ILE:369:CG2:3237, V-B:PRO:540:CA:9855, V-A:ARG:545:CA:4919, V-A:GLY:454:CA:4049, V-B:HIS:456:CD2:9039, H-A:GLU:543:OE2:4910, V-A:ILE:369:CB:3236, V-A:GLU:543:C:4902, V-B:GLU:543:CB:9878, V-B:TYR:539:CE2:9848, V-A:TYR:484:CE2:4346, V-A:GLY:544:CA:4914, V-B:GLU:543:CG:9879, V-A:GLY:544:C:4912, V-B:TYR:539:C:9839, V-A:ASP:366:CG:3213, V-A:GLU:543:CD:4908, V-B:GLU:543:CA:9876, H-A:GLY:454:N:4050, V-A:ARG:545:CG:4922, V-B:HIS:456:CE1:9041, V-B:PRO:540:N:9856, V-A:ILE:369:CD1:3239, V-A:HIS:456:CE1:4070, V-B:TYR:539:CD2:9846, V-B:GLU:543:CD:9880, H-A:LYS:547:NZ:4951, V-A:LEU:475:CD2:4259, H-A:GLU:543:OE1:4909, V-A:GLU:543:CB:4906, V-B:PRO:540:C:9853, H-A:TYR:484:OH:4348"]

$$$$
2d_Grossjean_2025
     RDKit          3D

 36 37  0  0  0  0  0  0  0  0999 V2000
  131.8200  125.4690   65.9060 C   0  0  0  0  0  0  0  0  0  0  0  0
  131.9100  124.5850   64.6770 C   0  0  0  0  0  0  0  0  0  0  0  0
  133.0480  124.5660   63.8730 C   0  0  0  0  0  0  0  0  0  0  0  0
  133.0850  123.7280   62.7500 C   0  0  0  0  0  0  0  0  0  0  0  0
  134.3560  123.7130   61.8790 C   0  0  0  0  0  0  0  0  0  0  0  0
  134.1080  124.2840   60.7000 F   0  0  0  0  0  0  0  0  0  0  0  0
  135.3350  124.3850   62.4870 F   0  0  0  0  0  0  0  0  0  0  0  0
  134.8050  122.4790   61.6410 F   0  0  0  0  0  0  0  0  0  0  0  0
  131.9500  122.9270   62.4630 C   0  0  0  0  0  0  0  0  0  0  0  0
  131.9560  122.0010   61.3280 C   0  0  0  0  0  0  0  0  0  0  0  0
  131.9620  121.2690   60.4320 N   0  0  0  0  0  0  0  0  0  0  0  0
  130.8290  123.0310   63.3210 C   0  0  0  0  0  0  0  0  0  0  0  0
  129.3120  122.1230   63.0910 S   0  0  0  0  0  0  0  0  0  0  0  0
  127.9250  123.3060   63.0290 C   0  0  0  0  0  0  0  0  0  0  0  0
  127.0640  123.1540   61.7720 C   0  0  0  0  0  0  0  0  0  0  0  0
  125.8640  122.9070   61.8950 O   0  0  0  0  0  0  0  0  0  0  0  0
  127.7180  123.2770   60.5980 N   0  0  0  0  0  0  0  0  0  0  0  0
  127.2130  123.1960   59.2870 C   0  0  0  0  0  0  0  0  0  0  0  0
  125.9880  123.8290   59.0610 C   0  0  0  0  0  0  0  0  0  0  0  0
  125.4040  123.7980   57.7970 C   0  0  0  0  0  0  0  0  0  0  0  0
  126.0430  123.1240   56.7590 C   0  0  0  0  0  0  0  0  0  0  0  0
  127.2570  122.4780   56.9750 C   0  0  0  0  0  0  0  0  0  0  0  0
  127.8440  122.5080   58.2360 C   0  0  0  0  0  0  0  0  0  0  0  0
  130.8180  123.8310   64.4150 N   0  0  0  0  0  0  0  0  0  0  0  0
  131.8834  124.8466   66.8108 H   0  0  0  0  0  0  0  0  0  0  0  0
  132.6492  126.1918   65.8993 H   0  0  0  0  0  0  0  0  0  0  0  0
  130.8622  126.0098   65.8993 H   0  0  0  0  0  0  0  0  0  0  0  0
  133.9104  125.2035   64.1177 H   0  0  0  0  0  0  0  0  0  0  0  0
  127.2881  123.1458   63.9115 H   0  0  0  0  0  0  0  0  0  0  0  0
  128.3563  124.3178   63.0117 H   0  0  0  0  0  0  0  0  0  0  0  0
  128.7200  123.3900   60.6530 H   0  0  0  0  0  0  0  0  0  0  0  0
  125.4827  124.3541   59.8850 H   0  0  0  0  0  0  0  0  0  0  0  0
  124.4431  124.3032   57.6194 H   0  0  0  0  0  0  0  0  0  0  0  0
  125.5842  123.1020   55.7595 H   0  0  0  0  0  0  0  0  0  0  0  0
  127.7515  121.9446   56.1498 H   0  0  0  0  0  0  0  0  0  0  0  0
  128.8007  121.9940   58.4104 H   0  0  0  0  0  0  0  0  0  0  0  0
  1  2  1  0
  2  3  2  0
  3  4  1  0
  4  5  1  0
  5  6  1  0
  5  7  1  0
  5  8  1  0
  4  9  2  0
  9 10  1  0
 10 11  3  0
  9 12  1  0
 12 13  1  0
 13 14  1  0
 14 15  1  0
 15 16  2  0
 15 17  1  0
 17 18  1  0
 18 19  2  0
 19 20  1  0
 20 21  2  0
 21 22  1  0
 22 23  2  0
 12 24  2  0
 24  2  1  0
 23 18  1  0
  1 25  1  0
  1 26  1  0
  1 27  1  0
  3 28  1  0
 14 29  1  0
 14 30  1  0
 17 31  1  0
 19 32  1  0
 20 33  1  0
 21 34  1  0
 22 35  1  0
 23 36  1  0
M  END
>  <Binding energies>  (1) 
[-6.2]

>  <Ligand effiencies>  (1) 
[-0.248]

>  <Interactions>  (1) 
["V-A:ILE:369:CG2:3237, V-A:ASP:366:CA:3210, V-B:PRO:540:CA:9855, V-B:TYR:539:CA:9841, V-A:GLY:454:CA:4049, V-A:ILE:369:CB:3236, V-B:ALA:541:CB:9864, V-B:TYR:539:CE2:9848, V-B:GLU:543:CG:9879, V-B:TYR:539:C:9839, V-A:ASP:366:CG:3213, V-B:TYR:539:CZ:9849, H-B:ALA:541:N:9863, V-A:GLU:543:CD:4908, V-B:PRO:540:CB:9857, V-A:SER:385:C:3405, V-A:GLY:453:C:4042, V-B:PRO:540:N:9856, V-A:ILE:369:CD1:3239, V-B:TYR:539:CD2:9846, V-B:PRO:540:CD:9859, V-B:GLU:543:CD:9880, V-A:ILE:369:CG1:3238, V-A:LEU:475:CD2:4259, V-A:ARG:545:CZ:4926, V-B:TYR:539:CG:9844, V-B:TYR:539:CD1:9845, V-B:LEU:363:CD1:8160, V-A:GLY:453:CA:4044, V-B:PRO:540:C:9853, V-B:MET:535:CE:9807, V-B:TYR:539:CE1:9847, H-A:TYR:484:OH:4348"]

$$$$
2h_Grossjean_2025
     RDKit          3D

 51 52  0  0  0  0  0  0  0  0999 V2000
  128.1680  128.1410   74.4660 C   0  0  0  0  0  0  0  0  0  0  0  0
  128.3980  127.0180   73.6230 O   0  0  0  0  0  0  0  0  0  0  0  0
  128.4680  127.2010   72.2530 C   0  0  0  0  0  0  0  0  0  0  0  0
  127.4680  126.7930   71.3560 C   0  0  0  0  0  0  0  0  0  0  0  0
  127.6060  127.0190   69.9890 C   0  0  0  0  0  0  0  0  0  0  0  0
  128.7420  127.6550   69.4870 C   0  0  0  0  0  0  0  0  0  0  0  0
  128.8610  127.9100   67.9850 C   0  0  0  0  0  0  0  0  0  0  0  0
  129.6960  126.9310   67.2880 N   0  0  0  0  0  0  0  0  0  0  0  0
  129.8610  125.6510   67.6670 C   0  0  0  0  0  0  0  0  0  0  0  0
  129.3830  125.1860   68.7030 O   0  0  0  0  0  0  0  0  0  0  0  0
  130.6890  124.7790   66.7120 C   0  0  0  0  0  0  0  0  0  0  0  0
  132.3160  125.4660   66.2550 S   0  0  0  0  0  0  0  0  0  0  0  0
  132.4400  125.3600   64.4830 C   0  0  0  0  0  0  0  0  0  0  0  0
  133.5850  124.7770   64.0510 N   0  0  0  0  0  0  0  0  0  0  0  0
  133.7910  124.6620   62.7200 C   0  0  0  0  0  0  0  0  0  0  0  0
  135.0960  124.0070   62.3090 C   0  0  0  0  0  0  0  0  0  0  0  0
  132.8720  125.1120   61.7750 C   0  0  0  0  0  0  0  0  0  0  0  0
  131.6720  125.6990   62.2030 C   0  0  0  0  0  0  0  0  0  0  0  0
  130.6630  126.1830   61.1430 C   0  0  0  0  0  0  0  0  0  0  0  0
  130.4210  127.4840   61.3060 F   0  0  0  0  0  0  0  0  0  0  0  0
  131.1040  126.0120   59.8950 F   0  0  0  0  0  0  0  0  0  0  0  0
  129.5170  125.5120   61.2600 F   0  0  0  0  0  0  0  0  0  0  0  0
  131.4370  125.8210   63.5970 C   0  0  0  0  0  0  0  0  0  0  0  0
  130.1750  126.3720   64.0960 C   0  0  0  0  0  0  0  0  0  0  0  0
  129.1760  126.8050   64.4880 N   0  0  0  0  0  0  0  0  0  0  0  0
  129.7600  128.0470   70.3690 C   0  0  0  0  0  0  0  0  0  0  0  0
  130.8840  128.6710   69.8820 O   0  0  0  0  0  0  0  0  0  0  0  0
  131.9020  127.7840   69.4360 C   0  0  0  0  0  0  0  0  0  0  0  0
  129.6110  127.8350   71.7500 C   0  0  0  0  0  0  0  0  0  0  0  0
  130.5980  128.2350   72.6190 O   0  0  0  0  0  0  0  0  0  0  0  0
  131.3290  127.1630   73.2000 C   0  0  0  0  0  0  0  0  0  0  0  0
  128.2320  127.8285   75.5187 H   0  0  0  0  0  0  0  0  0  0  0  0
  128.9270  128.9116   74.2655 H   0  0  0  0  0  0  0  0  0  0  0  0
  127.1672  128.5511   74.2655 H   0  0  0  0  0  0  0  0  0  0  0  0
  126.5669  126.2900   71.7368 H   0  0  0  0  0  0  0  0  0  0  0  0
  126.8132  126.6936   69.2994 H   0  0  0  0  0  0  0  0  0  0  0  0
  127.8525  127.8815   67.5466 H   0  0  0  0  0  0  0  0  0  0  0  0
  129.3436  128.8908   67.8620 H   0  0  0  0  0  0  0  0  0  0  0  0
  130.0920  127.2290   66.4080 H   0  0  0  0  0  0  0  0  0  0  0  0
  130.8537  123.8049   67.1957 H   0  0  0  0  0  0  0  0  0  0  0  0
  130.1109  124.7113   65.7786 H   0  0  0  0  0  0  0  0  0  0  0  0
  135.6626  123.7226   63.2080 H   0  0  0  0  0  0  0  0  0  0  0  0
  134.8830  123.1090   61.7105 H   0  0  0  0  0  0  0  0  0  0  0  0
  135.6888  124.7144   61.7105 H   0  0  0  0  0  0  0  0  0  0  0  0
  133.0857  125.0078   60.7010 H   0  0  0  0  0  0  0  0  0  0  0  0
  132.4097  127.3416   70.3058 H   0  0  0  0  0  0  0  0  0  0  0  0
  131.4519  126.9850   68.8286 H   0  0  0  0  0  0  0  0  0  0  0  0
  132.6319  128.3393   68.8286 H   0  0  0  0  0  0  0  0  0  0  0  0
  131.2788  127.2367   74.2964 H   0  0  0  0  0  0  0  0  0  0  0  0
  130.8949  126.2054   72.8766 H   0  0  0  0  0  0  0  0  0  0  0  0
  132.3790  127.2174   72.8766 H   0  0  0  0  0  0  0  0  0  0  0  0
  1  2  1  0
  2  3  1  0
  3  4  2  0
  4  5  1  0
  5  6  2  0
  6  7  1  0
  7  8  1  0
  8  9  1  0
  9 10  2  0
  9 11  1  0
 11 12  1  0
 12 13  1  0
 13 14  2  0
 14 15  1  0
 15 16  1  0
 15 17  2  0
 17 18  1  0
 18 19  1  0
 19 20  1  0
 19 21  1  0
 19 22  1  0
 18 23  2  0
 23 24  1  0
 24 25  3  0
  6 26  1  0
 26 27  1  0
 27 28  1  0
 26 29  2  0
 29 30  1  0
 30 31  1  0
 29  3  1  0
 23 13  1  0
  1 32  1  0
  1 33  1  0
  1 34  1  0
  4 35  1  0
  5 36  1  0
  7 37  1  0
  7 38  1  0
  8 39  1  0
 11 40  1  0
 11 41  1  0
 16 42  1  0
 16 43  1  0
 16 44  1  0
 17 45  1  0
 28 46  1  0
 28 47  1  0
 28 48  1  0
 31 49  1  0
 31 50  1  0
 31 51  1  0
M  END
>  <Binding energies>  (1) 
[-5.73]

>  <Ligand effiencies>  (1) 
[-0.1790625]

>  <Interactions>  (1) 
["V-A:ARG:545:CA:4919, V-A:GLY:454:CA:4049, V-B:GLU:543:C:9874, H-A:GLU:543:OE2:4910, V-A:GLU:543:C:4902, V-B:GLU:543:CB:9878, H-B:LYS:547:NZ:9923, V-A:TYR:484:CE2:4346, V-B:GLU:543:CG:9879, V-A:GLY:544:C:4912, V-A:ASP:366:CG:3213, H-A:ARG:545:N:4920, V-A:HIS:456:CD2:4068, V-A:GLU:543:CD:4908, V-A:TYR:484:CZ:4347, V-B:HIS:456:CE1:9041, H-A:GLY:454:N:4050, V-A:ARG:545:CG:4922, V-A:GLY:453:C:4042, V-A:HIS:456:CE1:4070, V-A:ILE:369:CD1:3239, V-B:GLY:544:C:9884, V-B:GLY:544:CA:9886, V-A:ARG:545:CB:4921, H-A:LYS:547:NZ:4951, H-A:ARG:545:NH2:4928, V-A:ARG:545:CZ:4926, H-A:GLU:543:OE1:4909, V-A:GLU:543:CB:4906, V-A:HIS:456:CG:4066, V-A:GLY:453:CA:4044, H-A:ARG:545:NE:4924, H-A:GLY:544:N:4915, H-A:TYR:484:OH:4348"]

$$$$
2i_Grossjean_2025
     RDKit          3D

 32 33  0  0  0  0  0  0  0  0999 V2000
  128.4520  122.1060   62.1370 C   0  0  0  0  0  0  0  0  0  0  0  0
  129.6260  122.7660   62.8350 C   0  0  0  0  0  0  0  0  0  0  0  0
  129.4460  123.6110   63.9270 C   0  0  0  0  0  0  0  0  0  0  0  0
  130.5650  124.1950   64.5390 C   0  0  0  0  0  0  0  0  0  0  0  0
  130.3470  125.1290   65.7450 C   0  0  0  0  0  0  0  0  0  0  0  0
  129.4850  124.5750   66.6000 F   0  0  0  0  0  0  0  0  0  0  0  0
  131.5030  125.3430   66.3740 F   0  0  0  0  0  0  0  0  0  0  0  0
  129.8550  126.3190   65.3950 F   0  0  0  0  0  0  0  0  0  0  0  0
  131.8510  123.9020   64.0200 C   0  0  0  0  0  0  0  0  0  0  0  0
  133.0550  124.4840   64.6220 C   0  0  0  0  0  0  0  0  0  0  0  0
  134.0050  124.9430   65.0970 N   0  0  0  0  0  0  0  0  0  0  0  0
  131.9430  123.0350   62.9070 C   0  0  0  0  0  0  0  0  0  0  0  0
  133.5070  122.6000   62.1630 S   0  0  0  0  0  0  0  0  0  0  0  0
  133.1990  122.1250   60.4360 C   0  0  0  0  0  0  0  0  0  0  0  0
  132.7980  120.6540   60.3020 C   0  0  0  0  0  0  0  0  0  0  0  0
  133.5660  119.8730   59.7360 O   0  0  0  0  0  0  0  0  0  0  0  0
  131.5890  120.3260   60.8050 N   0  0  0  0  0  0  0  0  0  0  0  0
  130.9990  119.0730   60.7910 C   0  0  0  0  0  0  0  0  0  0  0  0
  130.0430  118.5150   61.6510 C   0  0  0  0  0  0  0  0  0  0  0  0
  129.8250  117.2490   61.1580 C   0  0  0  0  0  0  0  0  0  0  0  0
  130.5980  117.0610   60.0620 O   0  0  0  0  0  0  0  0  0  0  0  0
  131.3320  118.2280   59.8390 N   0  0  0  0  0  0  0  0  0  0  0  0
  130.8470  122.4790   62.3290 N   0  0  0  0  0  0  0  0  0  0  0  0
  127.7522  121.7126   62.8891 H   0  0  0  0  0  0  0  0  0  0  0  0
  127.9361  122.8463   61.5079 H   0  0  0  0  0  0  0  0  0  0  0  0
  128.8163  121.2805   61.5079 H   0  0  0  0  0  0  0  0  0  0  0  0
  128.4347  123.8189   64.3066 H   0  0  0  0  0  0  0  0  0  0  0  0
  132.3876  122.7509   60.0361 H   0  0  0  0  0  0  0  0  0  0  0  0
  134.1332  122.2721   59.8743 H   0  0  0  0  0  0  0  0  0  0  0  0
  131.0330  121.0650   61.2100 H   0  0  0  0  0  0  0  0  0  0  0  0
  129.5713  118.9852   62.5265 H   0  0  0  0  0  0  0  0  0  0  0  0
  129.1335  116.5081   61.5857 H   0  0  0  0  0  0  0  0  0  0  0  0
  1  2  1  0
  2  3  2  0
  3  4  1  0
  4  5  1  0
  5  6  1  0
  5  7  1  0
  5  8  1  0
  4  9  2  0
  9 10  1  0
 10 11  3  0
  9 12  1  0
 12 13  1  0
 13 14  1  0
 14 15  1  0
 15 16  2  0
 15 17  1  0
 17 18  1  0
 18 19  1  0
 19 20  2  0
 20 21  1  0
 21 22  1  0
 12 23  2  0
 23  2  1  0
 22 18  2  0
  1 24  1  0
  1 25  1  0
  1 26  1  0
  3 27  1  0
 14 28  1  0
 14 29  1  0
 17 30  1  0
 19 31  1  0
 20 32  1  0
M  END
>  <Binding energies>  (1) 
[-6.42]

>  <Ligand effiencies>  (1) 
[-0.2675]

>  <Interactions>  (1) 
["V-A:ILE:369:CG2:3237, V-B:PRO:540:CA:9855, V-A:GLY:454:CA:4049, V-B:GLU:543:CB:9878, V-B:ALA:541:CB:9864, H-A:ARG:545:NH1:4927, V-A:TYR:484:CE2:4346, V-B:TYR:539:CE2:9848, V-A:LEU:475:CG:4257, V-B:GLU:543:CG:9879, V-A:LEU:475:CD1:4258, V-A:TYR:484:CZ:4347, V-A:GLU:543:CD:4908, V-B:GLU:543:CA:9876, H-A:GLY:454:N:4050, V-A:HIS:456:CE1:4070, V-A:PRO:482:CB:4326, V-B:TYR:539:CD2:9846, V-A:SER:385:CB:3409, H-A:SER:385:OG:3410, V-B:GLU:543:CD:9880, V-A:LEU:475:CD2:4259, H-A:ARG:545:NH2:4928, V-A:ARG:545:CZ:4926, H-A:HIS:383:HE2:3395, V-A:PRO:482:CG:4327, H-A:ARG:545:NE:4924, V-B:PRO:540:C:9853, V-B:ALA:541:CA:9862, V-A:HIS:383:NE2:3394, H-A:TYR:484:OH:4348"]

$$$$
3ab_Grossjean_2025
     RDKit          3D

 49 51  0  0  0  0  0  0  0  0999 V2000
  130.6200  126.6270   73.4620 C   0  0  0  0  0  0  0  0  0  0  0  0
  129.9210  127.8490   73.6540 O   0  0  0  0  0  0  0  0  0  0  0  0
  129.8870  128.7950   72.6810 C   0  0  0  0  0  0  0  0  0  0  0  0
  129.8010  130.0050   72.9100 O   0  0  0  0  0  0  0  0  0  0  0  0
  129.9680  128.2230   71.2950 C   0  0  0  0  0  0  0  0  0  0  0  0
  131.1470  128.2780   70.5360 C   0  0  0  0  0  0  0  0  0  0  0  0
  131.1930  127.7380   69.2530 C   0  0  0  0  0  0  0  0  0  0  0  0
  130.0520  127.1310   68.7040 C   0  0  0  0  0  0  0  0  0  0  0  0
  129.9860  126.5500   67.4240 N   0  0  0  0  0  0  0  0  0  0  0  0
  129.7830  125.2640   67.0650 C   0  0  0  0  0  0  0  0  0  0  0  0
  129.6250  124.3220   67.8410 O   0  0  0  0  0  0  0  0  0  0  0  0
  129.7580  125.0000   65.5580 C   0  0  0  0  0  0  0  0  0  0  0  0
  131.3590  125.3560   64.7740 S   0  0  0  0  0  0  0  0  0  0  0  0
  131.2360  124.8740   63.0640 C   0  0  0  0  0  0  0  0  0  0  0  0
  129.9600  124.7320   62.6330 N   0  0  0  0  0  0  0  0  0  0  0  0
  129.7180  124.3730   61.3460 C   0  0  0  0  0  0  0  0  0  0  0  0
  128.2780  124.2390   60.9470 C   0  0  0  0  0  0  0  0  0  0  0  0
  127.4230  123.3560   61.6250 C   0  0  0  0  0  0  0  0  0  0  0  0
  126.0860  123.2280   61.2590 C   0  0  0  0  0  0  0  0  0  0  0  0
  125.5830  123.9850   60.2060 C   0  0  0  0  0  0  0  0  0  0  0  0
  126.4090  124.8650   59.5140 C   0  0  0  0  0  0  0  0  0  0  0  0
  127.7460  124.9890   59.8830 C   0  0  0  0  0  0  0  0  0  0  0  0
  130.7730  124.1250   60.4610 C   0  0  0  0  0  0  0  0  0  0  0  0
  132.1030  124.2470   60.8890 C   0  0  0  0  0  0  0  0  0  0  0  0
  133.2360  123.9600   59.8850 C   0  0  0  0  0  0  0  0  0  0  0  0
  132.7950  123.8300   58.6310 F   0  0  0  0  0  0  0  0  0  0  0  0
  134.1220  124.9570   59.8940 F   0  0  0  0  0  0  0  0  0  0  0  0
  133.8580  122.8270   60.2120 F   0  0  0  0  0  0  0  0  0  0  0  0
  132.3500  124.6250   62.2330 C   0  0  0  0  0  0  0  0  0  0  0  0
  133.7190  124.7110   62.7470 C   0  0  0  0  0  0  0  0  0  0  0  0
  134.8020  124.7790   63.1500 N   0  0  0  0  0  0  0  0  0  0  0  0
  128.8800  127.0700   69.4590 C   0  0  0  0  0  0  0  0  0  0  0  0
  128.8360  127.6120   70.7400 C   0  0  0  0  0  0  0  0  0  0  0  0
  130.8700  126.1900   74.4400 H   0  0  0  0  0  0  0  0  0  0  0  0
  129.9860  125.9265   72.8987 H   0  0  0  0  0  0  0  0  0  0  0  0
  131.5452  126.8184   72.8987 H   0  0  0  0  0  0  0  0  0  0  0  0
  132.0446  128.7528   70.9589 H   0  0  0  0  0  0  0  0  0  0  0  0
  132.1240  127.7871   68.6692 H   0  0  0  0  0  0  0  0  0  0  0  0
  130.1510  127.2000   66.6690 H   0  0  0  0  0  0  0  0  0  0  0  0
  129.5069  123.9427   65.3874 H   0  0  0  0  0  0  0  0  0  0  0  0
  129.0062  125.6664   65.1101 H   0  0  0  0  0  0  0  0  0  0  0  0
  127.8157  122.7556   62.4588 H   0  0  0  0  0  0  0  0  0  0  0  0
  125.4297  122.5308   61.8005 H   0  0  0  0  0  0  0  0  0  0  0  0
  124.5257  123.8873   59.9187 H   0  0  0  0  0  0  0  0  0  0  0  0
  126.0081  125.4596   58.6799 H   0  0  0  0  0  0  0  0  0  0  0  0
  128.3967  125.6850   59.3332 H   0  0  0  0  0  0  0  0  0  0  0  0
  130.5578  123.8324   59.4227 H   0  0  0  0  0  0  0  0  0  0  0  0
  127.9841  126.5899   69.0384 H   0  0  0  0  0  0  0  0  0  0  0  0
  127.9040  127.5602   71.3220 H   0  0  0  0  0  0  0  0  0  0  0  0
  1  2  1  0
  2  3  1  0
  3  4  2  0
  3  5  1  0
  5  6  2  0
  6  7  1  0
  7  8  2  0
  8  9  1  0
  9 10  1  0
 10 11  2  0
 10 12  1  0
 12 13  1  0
 13 14  1  0
 14 15  2  0
 15 16  1  0
 16 17  1  0
 17 18  2  0
 18 19  1  0
 19 20  2  0
 20 21  1  0
 21 22  2  0
 16 23  2  0
 23 24  1  0
 24 25  1  0
 25 26  1  0
 25 27  1  0
 25 28  1  0
 24 29  2  0
 29 30  1  0
 30 31  3  0
  8 32  1  0
 32 33  2  0
 33  5  1  0
 29 14  1  0
 22 17  1  0
  1 34  1  0
  1 35  1  0
  1 36  1  0
  6 37  1  0
  7 38  1  0
  9 39  1  0
 12 40  1  0
 12 41  1  0
 18 42  1  0
 19 43  1  0
 20 44  1  0
 21 45  1  0
 22 46  1  0
 23 47  1  0
 32 48  1  0
 33 49  1  0
M  END
>  <Binding energies>  (1) 
[-7.7]

>  <Ligand effiencies>  (1) 
[-0.22647058823529412]

>  <Interactions>  (1) 
["V-A:ILE:369:CG2:3237, V-A:ASP:366:CA:3210, V-B:PRO:540:CA:9855, H-A:GLU:543:OE2:4910, V-A:ILE:369:CB:3236, V-A:GLU:543:C:4902, V-B:GLU:543:CB:9878, H-A:ARG:545:NH1:4927, V-A:TYR:484:CE2:4346, V-B:TYR:539:CE2:9848, V-A:GLY:544:CA:4914, V-B:GLU:543:CG:9879, V-A:GLY:544:C:4912, V-A:ASP:366:CG:3213, V-A:HIS:456:CD2:4068, V-B:TYR:539:CZ:9849, V-A:GLU:543:CD:4908, V-B:PRO:540:CB:9857, V-B:GLU:543:CA:9876, H-A:GLY:454:N:4050, V-A:ARG:545:CG:4922, V-B:HIS:456:CE1:9041, V-A:HIS:456:CE1:4070, V-A:ILE:369:CD1:3239, V-A:ASP:366:C:3208, V-B:GLU:543:CD:9880, V-A:ASP:366:CB:3212, H-A:LYS:547:NZ:4951, H-A:ARG:545:NH2:4928, V-A:ARG:545:CZ:4926, H-A:GLU:543:OE1:4909, V-A:GLU:543:CB:4906, V-A:HIS:456:CG:4066, V-B:PRO:540:C:9853, H-A:TYR:484:OH:4348"]

$$$$
3ad_Grossjean_2025
     RDKit          3D

 43 45  0  0  0  0  0  0  0  0999 V2000
  129.4080  126.8880   63.0940 N   0  0  0  0  0  0  0  0  0  0  0  0
  129.2770  126.9830   64.2400 C   0  0  0  0  0  0  0  0  0  0  0  0
  129.1070  127.1060   65.6920 C   0  0  0  0  0  0  0  0  0  0  0  0
  128.3400  128.1600   66.2440 C   0  0  0  0  0  0  0  0  0  0  0  0
  127.6080  129.2010   65.3750 C   0  0  0  0  0  0  0  0  0  0  0  0
  127.3220  128.7470   64.1530 F   0  0  0  0  0  0  0  0  0  0  0  0
  126.4570  129.5480   65.9540 F   0  0  0  0  0  0  0  0  0  0  0  0
  128.3640  130.2900   65.2290 F   0  0  0  0  0  0  0  0  0  0  0  0
  128.2470  128.2610   67.6400 C   0  0  0  0  0  0  0  0  0  0  0  0
  128.9050  127.3390   68.4610 C   0  0  0  0  0  0  0  0  0  0  0  0
  128.8520  127.4090   69.9590 C   0  0  0  0  0  0  0  0  0  0  0  0
  127.7120  126.9810   70.6570 C   0  0  0  0  0  0  0  0  0  0  0  0
  127.6570  127.0420   72.0470 C   0  0  0  0  0  0  0  0  0  0  0  0
  128.7460  127.5340   72.7590 C   0  0  0  0  0  0  0  0  0  0  0  0
  129.8880  127.9620   72.0920 C   0  0  0  0  0  0  0  0  0  0  0  0
  129.9400  127.8980   70.7010 C   0  0  0  0  0  0  0  0  0  0  0  0
  129.6450  126.3340   67.9270 N   0  0  0  0  0  0  0  0  0  0  0  0
  129.7310  126.2040   66.5820 C   0  0  0  0  0  0  0  0  0  0  0  0
  130.7300  124.8270   66.0610 S   0  0  0  0  0  0  0  0  0  0  0  0
  132.4060  125.4610   65.7550 C   0  0  0  0  0  0  0  0  0  0  0  0
  132.9200  125.0880   64.3630 C   0  0  0  0  0  0  0  0  0  0  0  0
  133.9730  124.4590   64.2620 O   0  0  0  0  0  0  0  0  0  0  0  0
  132.1480  125.4950   63.3330 N   0  0  0  0  0  0  0  0  0  0  0  0
  132.3210  125.3090   61.9490 C   0  0  0  0  0  0  0  0  0  0  0  0
  133.1550  124.2480   61.5800 C   0  0  0  0  0  0  0  0  0  0  0  0
  133.3980  123.9790   60.2360 C   0  0  0  0  0  0  0  0  0  0  0  0
  132.8100  124.7740   59.2560 C   0  0  0  0  0  0  0  0  0  0  0  0
  131.9830  125.8370   59.6090 C   0  0  0  0  0  0  0  0  0  0  0  0
  131.7380  126.1100   60.9520 C   0  0  0  0  0  0  0  0  0  0  0  0
  127.6535  129.0696   68.0916 H   0  0  0  0  0  0  0  0  0  0  0  0
  126.8488  126.5914   70.0974 H   0  0  0  0  0  0  0  0  0  0  0  0
  126.7564  126.7026   72.5797 H   0  0  0  0  0  0  0  0  0  0  0  0
  128.7032  127.5847   73.8570 H   0  0  0  0  0  0  0  0  0  0  0  0
  130.7468  128.3495   72.6597 H   0  0  0  0  0  0  0  0  0  0  0  0
  130.8461  128.2353   70.1764 H   0  0  0  0  0  0  0  0  0  0  0  0
  132.3920  126.5572   65.8454 H   0  0  0  0  0  0  0  0  0  0  0  0
  133.0795  125.0066   66.4966 H   0  0  0  0  0  0  0  0  0  0  0  0
  131.3390  126.0490   63.5750 H   0  0  0  0  0  0  0  0  0  0  0  0
  133.6211  123.6231   62.3560 H   0  0  0  0  0  0  0  0  0  0  0  0
  134.0517  123.1420   59.9495 H   0  0  0  0  0  0  0  0  0  0  0  0
  133.0004  124.5605   58.1938 H   0  0  0  0  0  0  0  0  0  0  0  0
  131.5237  126.4604   58.8277 H   0  0  0  0  0  0  0  0  0  0  0  0
  131.0885  126.9522   61.2327 H   0  0  0  0  0  0  0  0  0  0  0  0
  1  2  3  0
  2  3  1  0
  3  4  2  0
  4  5  1  0
  5  6  1  0
  5  7  1  0
  5  8  1  0
  4  9  1  0
  9 10  2  0
 10 11  1  0
 11 12  2  0
 12 13  1  0
 13 14  2  0
 14 15  1  0
 15 16  2  0
 10 17  1  0
 17 18  2  0
 18 19  1  0
 19 20  1  0
 20 21  1  0
 21 22  2  0
 21 23  1  0
 23 24  1  0
 24 25  2  0
 25 26  1  0
 26 27  2  0
 27 28  1  0
 28 29  2  0
 18  3  1  0
 29 24  1  0
 16 11  1  0
  9 30  1  0
 12 31  1  0
 13 32  1  0
 14 33  1  0
 15 34  1  0
 16 35  1  0
 20 36  1  0
 20 37  1  0
 23 38  1  0
 25 39  1  0
 26 40  1  0
 27 41  1  0
 28 42  1  0
 29 43  1  0
M  END
>  <Binding energies>  (1) 
[-7.69]

>  <Ligand effiencies>  (1) 
[-0.25633333333333336]

>  <Interactions>  (1) 
["V-A:ILE:369:CG2:3237, V-A:ASP:366:CA:3210, V-B:GLU:543:C:9874, H-A:GLU:543:OE2:4910, V-B:HIS:456:CD2:9039, V-B:GLU:543:CB:9878, V-B:TYR:539:CE2:9848, V-B:GLU:543:CG:9879, V-A:ASP:366:CG:3213, V-A:GLU:543:CD:4908, V-B:HIS:456:CE1:9041, H-A:GLY:454:N:4050, V-B:TYR:484:CZ:9318, V-A:HIS:456:CE1:4070, V-B:GLY:544:C:9884, V-A:GLU:543:CG:4907, V-B:GLU:543:CD:9880, V-A:ASP:366:CB:3212, H-A:ARG:545:NH2:4928, V-A:ARG:545:CZ:4926, H-A:GLU:543:OE1:4909, V-A:GLU:543:CB:4906, H-A:TYR:484:OH:4348"]

$$$$
3ai_Grossjean_2025
     RDKit          3D

 39 41  0  0  0  0  0  0  0  0999 V2000
  129.5200  126.5280   63.7200 N   0  0  0  0  0  0  0  0  0  0  0  0
  129.3380  126.7270   64.8460 C   0  0  0  0  0  0  0  0  0  0  0  0
  129.1070  126.9800   66.2710 C   0  0  0  0  0  0  0  0  0  0  0  0
  128.3480  128.0980   66.6940 C   0  0  0  0  0  0  0  0  0  0  0  0
  127.6890  129.0790   65.7050 C   0  0  0  0  0  0  0  0  0  0  0  0
  128.3410  130.2400   65.6160 F   0  0  0  0  0  0  0  0  0  0  0  0
  127.6580  128.5410   64.4850 F   0  0  0  0  0  0  0  0  0  0  0  0
  126.4430  129.3510   66.0900 F   0  0  0  0  0  0  0  0  0  0  0  0
  128.1960  128.3230   68.0710 C   0  0  0  0  0  0  0  0  0  0  0  0
  128.7860  127.4590   68.9990 C   0  0  0  0  0  0  0  0  0  0  0  0
  128.6650  127.6570   70.4800 C   0  0  0  0  0  0  0  0  0  0  0  0
  129.6050  128.4320   71.1780 C   0  0  0  0  0  0  0  0  0  0  0  0
  129.4970  128.6240   72.5520 C   0  0  0  0  0  0  0  0  0  0  0  0
  128.4420  128.0440   73.2490 C   0  0  0  0  0  0  0  0  0  0  0  0
  127.4960  127.2740   72.5810 C   0  0  0  0  0  0  0  0  0  0  0  0
  127.6070  127.0840   71.2070 C   0  0  0  0  0  0  0  0  0  0  0  0
  129.5200  126.3930   68.5890 N   0  0  0  0  0  0  0  0  0  0  0  0
  129.6610  126.1410   67.2650 C   0  0  0  0  0  0  0  0  0  0  0  0
  130.6350  124.6910   66.9190 S   0  0  0  0  0  0  0  0  0  0  0  0
  129.8650  123.8230   65.5100 C   0  0  0  0  0  0  0  0  0  0  0  0
  130.7660  123.6610   64.2770 C   0  0  0  0  0  0  0  0  0  0  0  0
  130.2860  123.3700   63.1790 O   0  0  0  0  0  0  0  0  0  0  0  0
  132.0830  123.8620   64.5100 N   0  0  0  0  0  0  0  0  0  0  0  0
  133.1210  123.7900   63.5900 C   0  0  0  0  0  0  0  0  0  0  0  0
  133.2110  122.7930   62.6200 C   0  0  0  0  0  0  0  0  0  0  0  0
  134.3650  123.0720   61.9250 C   0  0  0  0  0  0  0  0  0  0  0  0
  134.9400  124.1810   62.4480 O   0  0  0  0  0  0  0  0  0  0  0  0
  134.1420  124.6270   63.5030 N   0  0  0  0  0  0  0  0  0  0  0  0
  127.6091  129.1844   68.4225 H   0  0  0  0  0  0  0  0  0  0  0  0
  130.4395  128.8944   70.6304 H   0  0  0  0  0  0  0  0  0  0  0  0
  130.2429  129.2320   73.0849 H   0  0  0  0  0  0  0  0  0  0  0  0
  128.3555  128.1953   74.3351 H   0  0  0  0  0  0  0  0  0  0  0  0
  126.6636  126.8171   73.1364 H   0  0  0  0  0  0  0  0  0  0  0  0
  126.8555  126.4762   70.6818 H   0  0  0  0  0  0  0  0  0  0  0  0
  129.5667  122.8199   65.8489 H   0  0  0  0  0  0  0  0  0  0  0  0
  129.0166  124.4464   65.1912 H   0  0  0  0  0  0  0  0  0  0  0  0
  132.3560  124.0950   65.4540 H   0  0  0  0  0  0  0  0  0  0  0  0
  132.5106  121.9625   62.4475 H   0  0  0  0  0  0  0  0  0  0  0  0
  134.7578  122.4878   61.0798 H   0  0  0  0  0  0  0  0  0  0  0  0
  1  2  3  0
  2  3  1  0
  3  4  2  0
  4  5  1  0
  5  6  1  0
  5  7  1  0
  5  8  1  0
  4  9  1  0
  9 10  2  0
 10 11  1  0
 11 12  2  0
 12 13  1  0
 13 14  2  0
 14 15  1  0
 15 16  2  0
 10 17  1  0
 17 18  2  0
 18 19  1  0
 19 20  1  0
 20 21  1  0
 21 22  2  0
 21 23  1  0
 23 24  1  0
 24 25  1  0
 25 26  2  0
 26 27  1  0
 27 28  1  0
 18  3  1  0
 28 24  2  0
 16 11  1  0
  9 29  1  0
 12 30  1  0
 13 31  1  0
 14 32  1  0
 15 33  1  0
 16 34  1  0
 20 35  1  0
 20 36  1  0
 23 37  1  0
 25 38  1  0
 26 39  1  0
M  END
>  <Binding energies>  (1) 
[-7.1]

>  <Ligand effiencies>  (1) 
[-0.24482758620689654]

>  <Interactions>  (1) 
["V-A:GLY:454:CA:4049, V-B:HIS:456:CD2:9039, V-A:GLU:543:C:4902, V-B:GLU:543:CB:9878, H-A:ARG:545:NH1:4927, V-A:TYR:484:CE2:4346, V-B:GLU:543:CG:9879, V-B:TYR:484:CE2:9317, V-B:LYS:547:CE:9922, V-A:GLU:543:CD:4908, V-A:TYR:484:CZ:4347, V-B:HIS:456:CE1:9041, H-A:GLY:454:N:4050, V-A:HIS:456:CE1:4070, V-B:TYR:484:CZ:9318, V-A:ILE:369:CD1:3239, V-B:GLY:544:C:9884, V-A:GLU:543:CG:4907, V-B:GLU:543:CD:9880, V-B:HIS:456:CG:9037, V-A:LEU:475:CD2:4259, H-A:ARG:545:NH2:4928, V-A:GLU:543:CB:4906, H-A:TYR:484:OH:4348"]

$$$$
3bf_Grossjean_2025
     RDKit          3D

 42 44  0  0  0  0  0  0  0  0999 V2000
  127.6290  129.1960   65.4850 C   0  0  0  0  0  0  0  0  0  0  0  0
  128.3590  128.1780   66.3580 C   0  0  0  0  0  0  0  0  0  0  0  0
  128.2650  128.3140   67.7470 C   0  0  0  0  0  0  0  0  0  0  0  0
  128.9060  127.3940   68.5850 C   0  0  0  0  0  0  0  0  0  0  0  0
  128.8270  127.4710   70.0800 C   0  0  0  0  0  0  0  0  0  0  0  0
  129.8730  128.0380   70.8240 C   0  0  0  0  0  0  0  0  0  0  0  0
  129.8060  128.1120   72.2130 C   0  0  0  0  0  0  0  0  0  0  0  0
  128.6880  127.6190   72.8770 C   0  0  0  0  0  0  0  0  0  0  0  0
  127.6390  127.0510   72.1630 C   0  0  0  0  0  0  0  0  0  0  0  0
  127.7100  126.9770   70.7740 C   0  0  0  0  0  0  0  0  0  0  0  0
  129.6250  126.3630   68.0670 N   0  0  0  0  0  0  0  0  0  0  0  0
  129.7460  126.2320   66.7220 C   0  0  0  0  0  0  0  0  0  0  0  0
  130.7260  124.8310   66.2280 S   0  0  0  0  0  0  0  0  0  0  0  0
  132.4040  125.4270   65.8300 C   0  0  0  0  0  0  0  0  0  0  0  0
  132.9000  125.0840   64.4170 C   0  0  0  0  0  0  0  0  0  0  0  0
  133.9590  124.4740   64.2530 O   0  0  0  0  0  0  0  0  0  0  0  0
  132.0760  125.4750   63.4210 N   0  0  0  0  0  0  0  0  0  0  0  0
  132.2390  125.3260   62.0310 C   0  0  0  0  0  0  0  0  0  0  0  0
  131.5970  126.2590   61.2090 C   0  0  0  0  0  0  0  0  0  0  0  0
  131.7310  126.1730   59.8220 C   0  0  0  0  0  0  0  0  0  0  0  0
  132.5150  125.1490   59.2910 C   0  0  0  0  0  0  0  0  0  0  0  0
  133.1570  124.2370   60.0630 N   0  0  0  0  0  0  0  0  0  0  0  0
  133.0180  124.3330   61.4110 C   0  0  0  0  0  0  0  0  0  0  0  0
  129.1100  127.1120   65.8180 C   0  0  0  0  0  0  0  0  0  0  0  0
  129.1800  126.9220   64.3670 C   0  0  0  0  0  0  0  0  0  0  0  0
  129.2360  126.7750   63.2200 N   0  0  0  0  0  0  0  0  0  0  0  0
  127.1082  129.9223   66.1262 H   0  0  0  0  0  0  0  0  0  0  0  0
  128.3563  129.7229   64.8499 H   0  0  0  0  0  0  0  0  0  0  0  0
  126.8966  128.6761   64.8499 H   0  0  0  0  0  0  0  0  0  0  0  0
  127.6875  129.1437   68.1807 H   0  0  0  0  0  0  0  0  0  0  0  0
  130.7588  128.4297   70.3025 H   0  0  0  0  0  0  0  0  0  0  0  0
  130.6342  128.5587   72.7827 H   0  0  0  0  0  0  0  0  0  0  0  0
  128.6333  127.6788   73.9740 H   0  0  0  0  0  0  0  0  0  0  0  0
  126.7570  126.6618   72.6927 H   0  0  0  0  0  0  0  0  0  0  0  0
  126.8792  126.5251   70.2122 H   0  0  0  0  0  0  0  0  0  0  0  0
  132.4110  126.5218   65.9371 H   0  0  0  0  0  0  0  0  0  0  0  0
  133.0841  124.9141   66.5260 H   0  0  0  0  0  0  0  0  0  0  0  0
  131.2000  125.8920   63.6980 H   0  0  0  0  0  0  0  0  0  0  0  0
  130.9877  127.0589   61.6550 H   0  0  0  0  0  0  0  0  0  0  0  0
  131.2294  126.8967   59.1627 H   0  0  0  0  0  0  0  0  0  0  0  0
  132.6172  125.0778   58.1981 H   0  0  0  0  0  0  0  0  0  0  0  0
  133.5383  123.6009   62.0461 H   0  0  0  0  0  0  0  0  0  0  0  0
  1  2  1  0
  2  3  2  0
  3  4  1  0
  4  5  1  0
  5  6  2  0
  6  7  1  0
  7  8  2  0
  8  9  1  0
  9 10  2  0
  4 11  2  0
 11 12  1  0
 12 13  1  0
 13 14  1  0
 14 15  1  0
 15 16  2  0
 15 17  1  0
 17 18  1  0
 18 19  2  0
 19 20  1  0
 20 21  2  0
 21 22  1  0
 22 23  2  0
 12 24  2  0
 24 25  1  0
 25 26  3  0
 24  2  1  0
 10  5  1  0
 23 18  1  0
  1 27  1  0
  1 28  1  0
  1 29  1  0
  3 30  1  0
  6 31  1  0
  7 32  1  0
  8 33  1  0
  9 34  1  0
 10 35  1  0
 14 36  1  0
 14 37  1  0
 17 38  1  0
 19 39  1  0
 20 40  1  0
 21 41  1  0
 23 42  1  0
M  END
>  <Binding energies>  (1) 
[-7.49]

>  <Ligand effiencies>  (1) 
[-0.27740740740740744]

>  <Interactions>  (1) 
["V-B:GLU:543:C:9874, H-A:GLU:543:OE2:4910, V-A:GLU:543:C:4902, V-B:HIS:456:CD2:9039, V-B:GLU:543:CB:9878, V-B:GLU:543:CG:9879, V-A:ASP:366:CG:3213, V-A:GLU:543:CD:4908, V-B:HIS:456:CE1:9041, H-A:GLY:454:N:4050, V-A:HIS:456:CE1:4070, V-B:GLY:544:C:9884, V-A:GLU:543:CG:4907, V-B:GLU:543:CD:9880, V-A:ASP:366:CB:3212, H-A:ARG:545:NH2:4928, V-A:ARG:545:CZ:4926, H-A:GLU:543:OE1:4909, V-A:GLU:543:CB:4906, H-A:TYR:484:OH:4348"]

$$$$
3bg_Grossjean_2025
     RDKit          3D

 46 48  0  0  0  0  0  0  0  0999 V2000
  130.6160  124.8870   66.3870 C   0  0  0  0  0  0  0  0  0  0  0  0
  129.8210  126.0520   66.9750 C   0  0  0  0  0  0  0  0  0  0  0  0
  129.8210  126.2190   68.3630 C   0  0  0  0  0  0  0  0  0  0  0  0
  129.1120  127.2790   68.9430 C   0  0  0  0  0  0  0  0  0  0  0  0
  129.0800  127.5210   70.4270 C   0  0  0  0  0  0  0  0  0  0  0  0
  130.1680  128.1170   71.0870 C   0  0  0  0  0  0  0  0  0  0  0  0
  130.1350  128.3590   72.4570 C   0  0  0  0  0  0  0  0  0  0  0  0
  129.0100  128.0050   73.1940 C   0  0  0  0  0  0  0  0  0  0  0  0
  127.9230  127.4030   72.5700 C   0  0  0  0  0  0  0  0  0  0  0  0
  127.9620  127.1610   71.2000 C   0  0  0  0  0  0  0  0  0  0  0  0
  128.4340  128.1640   68.1650 N   0  0  0  0  0  0  0  0  0  0  0  0
  128.4270  128.0190   66.8150 C   0  0  0  0  0  0  0  0  0  0  0  0
  127.5280  129.2670   65.9070 S   0  0  0  0  0  0  0  0  0  0  0  0
  128.3500  129.5050   64.2970 C   0  0  0  0  0  0  0  0  0  0  0  0
  128.3620  130.9780   63.8760 C   0  0  0  0  0  0  0  0  0  0  0  0
  127.4570  131.7280   64.2420 O   0  0  0  0  0  0  0  0  0  0  0  0
  129.3800  131.3660   63.0890 N   0  0  0  0  0  0  0  0  0  0  0  0
  129.4920  132.6650   62.4250 C   0  0  0  0  0  0  0  0  0  0  0  0
  129.8770  132.5200   60.9570 C   0  0  0  0  0  0  0  0  0  0  0  0
  129.0660  133.0760   59.9620 C   0  0  0  0  0  0  0  0  0  0  0  0
  129.4120  132.9350   58.6220 C   0  0  0  0  0  0  0  0  0  0  0  0
  130.5760  132.2480   58.2790 C   0  0  0  0  0  0  0  0  0  0  0  0
  131.3990  131.7090   59.2640 C   0  0  0  0  0  0  0  0  0  0  0  0
  131.0520  131.8500   60.6060 C   0  0  0  0  0  0  0  0  0  0  0  0
  129.1050  126.9640   66.1700 C   0  0  0  0  0  0  0  0  0  0  0  0
  129.0930  126.8200   64.7120 C   0  0  0  0  0  0  0  0  0  0  0  0
  129.0840  126.7050   63.5610 N   0  0  0  0  0  0  0  0  0  0  0  0
  131.0317  124.2778   67.2031 H   0  0  0  0  0  0  0  0  0  0  0  0
  129.9524  124.2660   65.7673 H   0  0  0  0  0  0  0  0  0  0  0  0
  131.4362  125.2785   65.7673 H   0  0  0  0  0  0  0  0  0  0  0  0
  130.3785  125.5171   69.0006 H   0  0  0  0  0  0  0  0  0  0  0  0
  131.0618  128.3973   70.5104 H   0  0  0  0  0  0  0  0  0  0  0  0
  130.9958  128.8287   72.9553 H   0  0  0  0  0  0  0  0  0  0  0  0
  128.9800  128.2022   74.2758 H   0  0  0  0  0  0  0  0  0  0  0  0
  127.0365  127.1194   73.1563 H   0  0  0  0  0  0  0  0  0  0  0  0
  127.1018  126.6789   70.7126 H   0  0  0  0  0  0  0  0  0  0  0  0
  129.3876  129.1474   64.3708 H   0  0  0  0  0  0  0  0  0  0  0  0
  127.7890  128.9377   63.5397 H   0  0  0  0  0  0  0  0  0  0  0  0
  130.0750  130.6800   62.8350 H   0  0  0  0  0  0  0  0  0  0  0  0
  128.5234  133.1824   62.4895 H   0  0  0  0  0  0  0  0  0  0  0  0
  130.2821  133.2399   62.9302 H   0  0  0  0  0  0  0  0  0  0  0  0
  128.1541  133.6251   60.2394 H   0  0  0  0  0  0  0  0  0  0  0  0
  128.7709  133.3631   57.8373 H   0  0  0  0  0  0  0  0  0  0  0  0
  130.8467  132.1308   57.2193 H   0  0  0  0  0  0  0  0  0  0  0  0
  132.3187  131.1744   58.9842 H   0  0  0  0  0  0  0  0  0  0  0  0
  131.7029  131.4340   61.3891 H   0  0  0  0  0  0  0  0  0  0  0  0
  1  2  1  0
  2  3  2  0
  3  4  1  0
  4  5  1  0
  5  6  2  0
  6  7  1  0
  7  8  2  0
  8  9  1  0
  9 10  2  0
  4 11  2  0
 11 12  1  0
 12 13  1  0
 13 14  1  0
 14 15  1  0
 15 16  2  0
 15 17  1  0
 17 18  1  0
 18 19  1  0
 19 20  2  0
 20 21  1  0
 21 22  2  0
 22 23  1  0
 23 24  2  0
 12 25  2  0
 25 26  1  0
 26 27  3  0
 25  2  1  0
 10  5  1  0
 24 19  1  0
  1 28  1  0
  1 29  1  0
  1 30  1  0
  3 31  1  0
  6 32  1  0
  7 33  1  0
  8 34  1  0
  9 35  1  0
 10 36  1  0
 14 37  1  0
 14 38  1  0
 17 39  1  0
 18 40  1  0
 18 41  1  0
 20 42  1  0
 21 43  1  0
 22 44  1  0
 23 45  1  0
 24 46  1  0
M  END
>  <Binding energies>  (1) 
[-8.21]

>  <Ligand effiencies>  (1) 
[-0.29321428571428576]

>  <Interactions>  (1) 
["V-B:HIS:456:CD2:9039, V-A:GLU:543:C:4902, V-B:GLU:543:CB:9878, V-A:PRO:540:C:4881, V-A:TYR:484:CE2:4346, V-A:GLY:544:C:4912, V-B:GLU:543:CG:9879, V-A:TYR:539:CD1:4873, V-A:ALA:541:CB:4892, V-A:GLU:543:CD:4908, V-A:TYR:484:CZ:4347, H-B:TYR:484:OH:9319, V-B:HIS:456:CE1:9041, V-A:HIS:456:CE1:4070, V-A:ALA:541:CA:4890, V-A:GLU:543:CG:4907, V-B:GLU:543:CD:9880, V-A:TYR:539:C:4867, H-A:GLU:543:OE1:4909, V-A:GLU:543:CB:4906, V-A:PRO:540:N:4884, V-A:PRO:540:CB:4885, V-A:PRO:540:CA:4883"]

$$$$
3ck_Grossjean_2025
     RDKit          3D

 57 58  0  0  0  0  0  0  0  0999 V2000
  134.2110  126.8270   74.7470 C   0  0  0  0  0  0  0  0  0  0  0  0
  132.8470  127.2170   74.7290 O   0  0  0  0  0  0  0  0  0  0  0  0
  132.1020  126.6240   73.6740 C   0  0  0  0  0  0  0  0  0  0  0  0
  130.6660  127.1630   73.6920 C   0  0  0  0  0  0  0  0  0  0  0  0
  130.6260  128.4160   73.0190 O   0  0  0  0  0  0  0  0  0  0  0  0
  129.3600  128.7260   72.4540 C   0  0  0  0  0  0  0  0  0  0  0  0
  128.9050  127.5580   71.5710 C   0  0  0  0  0  0  0  0  0  0  0  0
  128.9430  127.9800   70.2160 O   0  0  0  0  0  0  0  0  0  0  0  0
  128.6410  126.9670   69.2680 C   0  0  0  0  0  0  0  0  0  0  0  0
  127.3650  127.3480   68.4940 C   0  0  0  0  0  0  0  0  0  0  0  0
  127.6260  127.9240   67.1720 N   0  0  0  0  0  0  0  0  0  0  0  0
  128.1380  129.1460   66.9350 C   0  0  0  0  0  0  0  0  0  0  0  0
  128.4740  129.9220   67.8310 O   0  0  0  0  0  0  0  0  0  0  0  0
  128.2880  129.5240   65.4530 C   0  0  0  0  0  0  0  0  0  0  0  0
  127.9920  128.1700   64.2650 S   0  0  0  0  0  0  0  0  0  0  0  0
  129.1990  126.8800   64.5340 C   0  0  0  0  0  0  0  0  0  0  0  0
  129.1780  126.3060   65.7640 N   0  0  0  0  0  0  0  0  0  0  0  0
  130.0670  125.3260   66.0390 C   0  0  0  0  0  0  0  0  0  0  0  0
  129.9850  124.7340   67.4320 C   0  0  0  0  0  0  0  0  0  0  0  0
  131.0050  124.8820   65.1110 C   0  0  0  0  0  0  0  0  0  0  0  0
  131.0490  125.4640   63.8370 C   0  0  0  0  0  0  0  0  0  0  0  0
  132.0870  124.9720   62.8820 C   0  0  0  0  0  0  0  0  0  0  0  0
  131.7270  124.6020   61.5810 C   0  0  0  0  0  0  0  0  0  0  0  0
  132.6890  124.1330   60.6890 C   0  0  0  0  0  0  0  0  0  0  0  0
  134.0150  124.0270   61.0980 C   0  0  0  0  0  0  0  0  0  0  0  0
  134.3870  124.3830   62.3920 C   0  0  0  0  0  0  0  0  0  0  0  0
  133.4250  124.8520   63.2810 C   0  0  0  0  0  0  0  0  0  0  0  0
  130.1130  126.4860   63.5310 C   0  0  0  0  0  0  0  0  0  0  0  0
  130.0860  127.1030   62.2000 C   0  0  0  0  0  0  0  0  0  0  0  0
  130.0640  127.5890   61.1500 N   0  0  0  0  0  0  0  0  0  0  0  0
  134.5509  126.7298   75.7887 H   0  0  0  0  0  0  0  0  0  0  0  0
  134.3229  125.8609   74.2331 H   0  0  0  0  0  0  0  0  0  0  0  0
  134.8167  127.5879   74.2331 H   0  0  0  0  0  0  0  0  0  0  0  0
  132.5729  126.8690   72.7106 H   0  0  0  0  0  0  0  0  0  0  0  0
  132.0842  125.5323   73.8081 H   0  0  0  0  0  0  0  0  0  0  0  0
  129.9998  126.4510   73.1829 H   0  0  0  0  0  0  0  0  0  0  0  0
  130.3339  127.2927   74.7326 H   0  0  0  0  0  0  0  0  0  0  0  0
  128.6271  128.8869   73.2584 H   0  0  0  0  0  0  0  0  0  0  0  0
  129.4388  129.6403   71.8475 H   0  0  0  0  0  0  0  0  0  0  0  0
  129.5795  126.7006   71.7122 H   0  0  0  0  0  0  0  0  0  0  0  0
  127.8838  127.2532   71.8437 H   0  0  0  0  0  0  0  0  0  0  0  0
  129.4794  126.8632   68.5634 H   0  0  0  0  0  0  0  0  0  0  0  0
  128.4798  126.0130   69.7914 H   0  0  0  0  0  0  0  0  0  0  0  0
  126.7548  126.4421   68.3635 H   0  0  0  0  0  0  0  0  0  0  0  0
  126.8502  128.1203   69.0844 H   0  0  0  0  0  0  0  0  0  0  0  0
  127.3910  127.3420   66.3810 H   0  0  0  0  0  0  0  0  0  0  0  0
  127.5719  130.3298   65.2343 H   0  0  0  0  0  0  0  0  0  0  0  0
  129.3395  129.8186   65.3206 H   0  0  0  0  0  0  0  0  0  0  0  0
  130.0959  125.5349   68.1779 H   0  0  0  0  0  0  0  0  0  0  0  0
  129.0101  124.2420   67.5645 H   0  0  0  0  0  0  0  0  0  0  0  0
  130.7894  123.9955   67.5645 H   0  0  0  0  0  0  0  0  0  0  0  0
  131.7079  124.0786   65.3764 H   0  0  0  0  0  0  0  0  0  0  0  0
  130.6777  124.6820   61.2607 H   0  0  0  0  0  0  0  0  0  0  0  0
  132.4018  123.8478   59.6662 H   0  0  0  0  0  0  0  0  0  0  0  0
  134.7754  123.6590   60.3935 H   0  0  0  0  0  0  0  0  0  0  0  0
  135.4364  124.2938   62.7097 H   0  0  0  0  0  0  0  0  0  0  0  0
  133.7168  125.1306   64.3044 H   0  0  0  0  0  0  0  0  0  0  0  0
  1  2  1  0
  2  3  1  0
  3  4  1  0
  4  5  1  0
  5  6  1  0
  6  7  1  0
  7  8  1  0
  8  9  1  0
  9 10  1  0
 10 11  1  0
 11 12  1  0
 12 13  2  0
 12 14  1  0
 14 15  1  0
 15 16  1  0
 16 17  2  0
 17 18  1  0
 18 19  1  0
 18 20  2  0
 20 21  1  0
 21 22  1  0
 22 23  2  0
 23 24  1  0
 24 25  2  0
 25 26  1  0
 26 27  2  0
 21 28  2  0
 28 29  1  0
 29 30  3  0
 28 16  1  0
 27 22  1  0
  1 31  1  0
  1 32  1  0
  1 33  1  0
  3 34  1  0
  3 35  1  0
  4 36  1  0
  4 37  1  0
  6 38  1  0
  6 39  1  0
  7 40  1  0
  7 41  1  0
  9 42  1  0
  9 43  1  0
 10 44  1  0
 10 45  1  0
 11 46  1  0
 14 47  1  0
 14 48  1  0
 19 49  1  0
 19 50  1  0
 19 51  1  0
 20 52  1  0
 23 53  1  0
 24 54  1  0
 25 55  1  0
 26 56  1  0
 27 57  1  0
M  END
>  <Binding energies>  (1) 
[-6.05]

>  <Ligand effiencies>  (1) 
[-0.19516129032258064]

>  <Interactions>  (1) 
["V-B:GLU:543:C:9874, V-B:HIS:456:CD2:9039, V-B:GLU:543:CB:9878, V-A:TYR:484:CE2:4346, V-B:GLU:543:CG:9879, V-A:HIS:456:CD2:4068, H-B:GLU:543:OE1:9881, V-A:LYS:547:CG:4948, V-A:HIS:456:CB:4065, V-A:GLU:543:CD:4908, V-A:TYR:484:CZ:4347, H-B:TYR:484:OH:9319, V-B:HIS:456:CE1:9041, V-B:GLU:543:CA:9876, V-A:GLY:453:C:4042, V-A:HIS:456:CE1:4070, V-A:ILE:369:CD1:3239, V-A:GLU:543:CG:4907, V-B:GLU:543:CD:9880, H-A:LYS:547:NZ:4951, V-A:ARG:545:CZ:4926, V-A:ARG:545:C:4917, V-A:GLU:543:CB:4906, V-A:HIS:456:CG:4066, H-B:GLU:543:OE2:9882, V-A:GLY:453:CA:4044"]

$$$$
4aa_Grossjean_2025
     RDKit          3D

 45 47  0  0  0  0  0  0  0  0999 V2000
  126.8360  129.1320   74.7730 C   0  0  0  0  0  0  0  0  0  0  0  0
  126.8590  128.0960   73.6440 C   0  0  0  0  0  0  0  0  0  0  0  0
  128.1910  127.6400   73.4490 O   0  0  0  0  0  0  0  0  0  0  0  0
  129.0960  128.3900   72.7690 C   0  0  0  0  0  0  0  0  0  0  0  0
  129.6550  129.3820   73.2490 O   0  0  0  0  0  0  0  0  0  0  0  0
  129.3490  127.8960   71.3750 C   0  0  0  0  0  0  0  0  0  0  0  0
  130.5940  128.1360   70.7780 C   0  0  0  0  0  0  0  0  0  0  0  0
  130.8570  127.6950   69.4840 C   0  0  0  0  0  0  0  0  0  0  0  0
  129.8860  126.9980   68.7640 C   0  0  0  0  0  0  0  0  0  0  0  0
  130.2550  126.6060   67.4620 N   0  0  0  0  0  0  0  0  0  0  0  0
  130.1600  125.4000   66.8540 C   0  0  0  0  0  0  0  0  0  0  0  0
  129.7450  124.3780   67.4020 O   0  0  0  0  0  0  0  0  0  0  0  0
  130.6180  125.3640   65.4630 C   0  0  0  0  0  0  0  0  0  0  0  0
  129.4530  125.4610   64.1400 S   0  0  0  0  0  0  0  0  0  0  0  0
  130.7240  125.3120   62.9480 C   0  0  0  0  0  0  0  0  0  0  0  0
  130.4680  125.3180   61.6390 N   0  0  0  0  0  0  0  0  0  0  0  0
  131.5420  125.1910   60.8220 C   0  0  0  0  0  0  0  0  0  0  0  0
  131.2290  125.1950   59.3370 C   0  0  0  0  0  0  0  0  0  0  0  0
  132.8520  125.0630   61.2790 C   0  0  0  0  0  0  0  0  0  0  0  0
  133.1170  125.0590   62.6530 C   0  0  0  0  0  0  0  0  0  0  0  0
  134.5640  124.9170   63.1030 C   0  0  0  0  0  0  0  0  0  0  0  0
  132.0160  125.1860   63.5410 C   0  0  0  0  0  0  0  0  0  0  0  0
  131.9260  125.2140   64.9770 C   0  0  0  0  0  0  0  0  0  0  0  0
  133.0320  125.1060   65.7810 N   0  0  0  0  0  0  0  0  0  0  0  0
  128.6350  126.7570   69.3490 C   0  0  0  0  0  0  0  0  0  0  0  0
  128.3720  127.2020   70.6430 C   0  0  0  0  0  0  0  0  0  0  0  0
  126.8475  128.6160   75.7444 H   0  0  0  0  0  0  0  0  0  0  0  0
  127.7199  129.7817   74.6925 H   0  0  0  0  0  0  0  0  0  0  0  0
  125.9241  129.7419   74.6925 H   0  0  0  0  0  0  0  0  0  0  0  0
  126.2156  127.2454   73.9132 H   0  0  0  0  0  0  0  0  0  0  0  0
  126.4883  128.5556   72.7159 H   0  0  0  0  0  0  0  0  0  0  0  0
  131.3708  128.6780   71.3372 H   0  0  0  0  0  0  0  0  0  0  0  0
  131.8365  127.8973   69.0262 H   0  0  0  0  0  0  0  0  0  0  0  0
  130.6660  127.3460   66.9100 H   0  0  0  0  0  0  0  0  0  0  0  0
  130.1387  125.2089   59.1921 H   0  0  0  0  0  0  0  0  0  0  0  0
  131.6722  126.0876   58.8713 H   0  0  0  0  0  0  0  0  0  0  0  0
  131.6493  124.2914   58.8713 H   0  0  0  0  0  0  0  0  0  0  0  0
  133.6782  124.9651   60.5594 H   0  0  0  0  0  0  0  0  0  0  0  0
  134.6074  124.9127   64.2021 H   0  0  0  0  0  0  0  0  0  0  0  0
  134.9775  123.9740   62.7160 H   0  0  0  0  0  0  0  0  0  0  0  0
  135.1529  125.7617   62.7160 H   0  0  0  0  0  0  0  0  0  0  0  0
  133.8470  125.6870   65.6470 H   0  0  0  0  0  0  0  0  0  0  0  0
  133.0700  124.4350   66.5360 H   0  0  0  0  0  0  0  0  0  0  0  0
  127.8602  126.2160   68.7859 H   0  0  0  0  0  0  0  0  0  0  0  0
  127.3886  127.0076   71.0959 H   0  0  0  0  0  0  0  0  0  0  0  0
  1  2  1  0
  2  3  1  0
  3  4  1  0
  4  5  2  0
  4  6  1  0
  6  7  2  0
  7  8  1  0
  8  9  2  0
  9 10  1  0
 10 11  1  0
 11 12  2  0
 11 13  1  0
 13 14  1  0
 14 15  1  0
 15 16  2  0
 16 17  1  0
 17 18  1  0
 17 19  2  0
 19 20  1  0
 20 21  1  0
 20 22  2  0
 22 23  1  0
 23 24  1  0
  9 25  1  0
 25 26  2  0
 26  6  1  0
 23 13  2  0
 22 15  1  0
  1 27  1  0
  1 28  1  0
  1 29  1  0
  2 30  1  0
  2 31  1  0
  7 32  1  0
  8 33  1  0
 10 34  1  0
 18 35  1  0
 18 36  1  0
 18 37  1  0
 19 38  1  0
 21 39  1  0
 21 40  1  0
 21 41  1  0
 24 42  1  0
 24 43  1  0
 25 44  1  0
 26 45  1  0
M  END
>  <Binding energies>  (1) 
[-6.99]

>  <Ligand effiencies>  (1) 
[-0.2410344827586207]

>  <Interactions>  (1) 
["V-B:GLU:543:C:9874, H-A:GLU:543:OE2:4910, V-A:GLU:543:C:4902, V-B:HIS:456:CD2:9039, V-B:GLU:543:CB:9878, H-B:LYS:547:NZ:9923, V-B:HIS:456:CB:9036, V-B:TYR:539:CE2:9848, V-B:GLU:543:CG:9879, V-A:GLY:544:C:4912, V-A:ASP:366:CG:3213, V-B:LYS:547:CE:9922, V-A:GLU:543:CD:4908, V-A:TYR:484:CZ:4347, V-B:HIS:456:CE1:9041, V-A:GLY:453:C:4042, V-A:HIS:456:CE1:4070, V-B:GLU:543:CD:9880, V-B:HIS:456:CG:9037, V-A:ARG:545:CD:4923, H-A:LYS:547:NZ:4951, V-A:ARG:545:CZ:4926, H-A:GLU:543:OE1:4909, V-A:GLU:543:CB:4906, V-A:GLY:453:CA:4044, H-A:TYR:484:OH:4348"]

$$$$
4af_Grossjean_2025
     RDKit          3D

 35 37  0  0  0  0  0  0  0  0999 V2000
  132.6040  120.9730   60.1890 C   0  0  0  0  0  0  0  0  0  0  0  0
  132.5800  121.9580   61.3440 C   0  0  0  0  0  0  0  0  0  0  0  0
  133.6130  122.8750   61.5260 C   0  0  0  0  0  0  0  0  0  0  0  0
  133.5720  123.7720   62.6000 C   0  0  0  0  0  0  0  0  0  0  0  0
  134.7230  124.7520   62.7580 C   0  0  0  0  0  0  0  0  0  0  0  0
  132.4550  123.7060   63.4760 C   0  0  0  0  0  0  0  0  0  0  0  0
  132.0990  124.4560   64.6510 C   0  0  0  0  0  0  0  0  0  0  0  0
  132.8900  125.4630   65.1440 N   0  0  0  0  0  0  0  0  0  0  0  0
  130.8830  124.0620   65.2330 C   0  0  0  0  0  0  0  0  0  0  0  0
  130.2400  124.5830   66.4410 C   0  0  0  0  0  0  0  0  0  0  0  0
  129.4620  123.8810   67.0890 O   0  0  0  0  0  0  0  0  0  0  0  0
  130.5770  125.8520   66.7760 N   0  0  0  0  0  0  0  0  0  0  0  0
  130.1090  126.6530   67.8350 C   0  0  0  0  0  0  0  0  0  0  0  0
  128.7590  126.8260   68.1910 C   0  0  0  0  0  0  0  0  0  0  0  0
  128.4280  127.6660   69.2550 C   0  0  0  0  0  0  0  0  0  0  0  0
  129.4560  128.3180   69.9380 C   0  0  0  0  0  0  0  0  0  0  0  0
  130.7640  128.1730   69.6100 N   0  0  0  0  0  0  0  0  0  0  0  0
  131.0700  127.3540   68.5730 C   0  0  0  0  0  0  0  0  0  0  0  0
  130.1450  122.7370   64.3290 S   0  0  0  0  0  0  0  0  0  0  0  0
  131.4640  122.7230   63.1800 C   0  0  0  0  0  0  0  0  0  0  0  0
  131.5000  121.8670   62.1580 N   0  0  0  0  0  0  0  0  0  0  0  0
  132.6290  119.9463   60.5831 H   0  0  0  0  0  0  0  0  0  0  0  0
  131.7023  121.1076   59.5735 H   0  0  0  0  0  0  0  0  0  0  0  0
  133.4981  121.1514   59.5735 H   0  0  0  0  0  0  0  0  0  0  0  0
  134.4610  122.8942   60.8256 H   0  0  0  0  0  0  0  0  0  0  0  0
  134.9186  124.9185   63.8276 H   0  0  0  0  0  0  0  0  0  0  0  0
  135.6240  124.3395   62.2804 H   0  0  0  0  0  0  0  0  0  0  0  0
  134.4595  125.7072   62.2804 H   0  0  0  0  0  0  0  0  0  0  0  0
  132.4970  126.3090   65.5330 H   0  0  0  0  0  0  0  0  0  0  0  0
  133.8980  125.3890   65.1380 H   0  0  0  0  0  0  0  0  0  0  0  0
  131.2700  126.2970   66.1920 H   0  0  0  0  0  0  0  0  0  0  0  0
  127.9686  126.3019   67.6336 H   0  0  0  0  0  0  0  0  0  0  0  0
  127.3782  127.8114   69.5495 H   0  0  0  0  0  0  0  0  0  0  0  0
  129.1940  128.9777   70.7783 H   0  0  0  0  0  0  0  0  0  0  0  0
  132.1282  127.2344   68.2976 H   0  0  0  0  0  0  0  0  0  0  0  0
  1  2  1  0
  2  3  2  0
  3  4  1  0
  4  5  1  0
  4  6  2  0
  6  7  1  0
  7  8  1  0
  7  9  2  0
  9 10  1  0
 10 11  2  0
 10 12  1  0
 12 13  1  0
 13 14  2  0
 14 15  1  0
 15 16  2  0
 16 17  1  0
 17 18  2  0
  9 19  1  0
 19 20  1  0
 20 21  2  0
 21  2  1  0
 20  6  1  0
 18 13  1  0
  1 22  1  0
  1 23  1  0
  1 24  1  0
  3 25  1  0
  5 26  1  0
  5 27  1  0
  5 28  1  0
  8 29  1  0
  8 30  1  0
 12 31  1  0
 14 32  1  0
 15 33  1  0
 16 34  1  0
 18 35  1  0
M  END
>  <Binding energies>  (1) 
[-6.35]

>  <Ligand effiencies>  (1) 
[-0.26458333333333334]

>  <Interactions>  (1) 
["V-A:ILE:369:CG2:3237, H-A:GLU:543:OE2:4910, V-A:GLU:543:C:4902, V-B:GLU:543:CB:9878, V-B:ALA:541:CB:9864, V-B:TYR:539:CE2:9848, V-A:TYR:484:CE2:4346, V-B:GLU:543:CG:9879, V-A:TYR:484:CZ:4347, V-A:GLU:543:CD:4908, V-A:ARG:545:CG:4922, V-B:HIS:456:CE1:9041, V-A:GLY:453:C:4042, V-A:ILE:369:CD1:3239, V-A:HIS:456:CE1:4070, V-B:TYR:539:CD2:9846, V-A:ARG:545:CD:4923, V-A:LEU:475:CD2:4259, V-A:ARG:545:CZ:4926, H-A:GLU:543:OE1:4909, V-A:GLU:543:CB:4906, V-A:GLY:453:CA:4044, H-A:TYR:484:OH:4348"]

$$$$
4aj_Grossjean_2025
     RDKit          3D

 32 34  0  0  0  0  0  0  0  0999 V2000
  131.4360  121.1310   60.5830 C   0  0  0  0  0  0  0  0  0  0  0  0
  131.6270  122.1140   61.7230 C   0  0  0  0  0  0  0  0  0  0  0  0
  132.7340  122.9570   61.7650 C   0  0  0  0  0  0  0  0  0  0  0  0
  132.8940  123.8530   62.8290 C   0  0  0  0  0  0  0  0  0  0  0  0
  134.1200  124.7520   62.8280 C   0  0  0  0  0  0  0  0  0  0  0  0
  131.8970  123.8640   63.8410 C   0  0  0  0  0  0  0  0  0  0  0  0
  131.7480  124.6350   65.0460 C   0  0  0  0  0  0  0  0  0  0  0  0
  132.6650  125.5800   65.4290 N   0  0  0  0  0  0  0  0  0  0  0  0
  130.5870  124.3330   65.7750 C   0  0  0  0  0  0  0  0  0  0  0  0
  130.1300  124.9120   67.0400 C   0  0  0  0  0  0  0  0  0  0  0  0
  129.4900  124.2340   67.8480 O   0  0  0  0  0  0  0  0  0  0  0  0
  130.4720  126.2080   67.2450 N   0  0  0  0  0  0  0  0  0  0  0  0
  130.1750  126.9820   68.3580 C   0  0  0  0  0  0  0  0  0  0  0  0
  131.0050  127.6940   69.0910 N   0  0  0  0  0  0  0  0  0  0  0  0
  130.3770  128.3120   70.0730 C   0  0  0  0  0  0  0  0  0  0  0  0
  129.0020  128.1030   70.1510 C   0  0  0  0  0  0  0  0  0  0  0  0
  128.5180  127.0410   68.8630 S   0  0  0  0  0  0  0  0  0  0  0  0
  129.6510  123.0620   64.9860 S   0  0  0  0  0  0  0  0  0  0  0  0
  130.8100  122.9530   63.6810 C   0  0  0  0  0  0  0  0  0  0  0  0
  130.6560  122.0980   62.6690 N   0  0  0  0  0  0  0  0  0  0  0  0
  131.2412  120.1286   60.9920 H   0  0  0  0  0  0  0  0  0  0  0  0
  130.5825  121.4472   59.9653 H   0  0  0  0  0  0  0  0  0  0  0  0
  132.3458  121.1046   59.9653 H   0  0  0  0  0  0  0  0  0  0  0  0
  133.4840  122.9192   60.9612 H   0  0  0  0  0  0  0  0  0  0  0  0
  134.4162  124.9692   63.8648 H   0  0  0  0  0  0  0  0  0  0  0  0
  134.9465  124.2443   62.3092 H   0  0  0  0  0  0  0  0  0  0  0  0
  133.8843  125.6929   62.3092 H   0  0  0  0  0  0  0  0  0  0  0  0
  133.5710  125.3260   65.7940 H   0  0  0  0  0  0  0  0  0  0  0  0
  132.4620  126.5680   65.3600 H   0  0  0  0  0  0  0  0  0  0  0  0
  131.0030  126.6660   66.5190 H   0  0  0  0  0  0  0  0  0  0  0  0
  130.9088  128.9555   70.7892 H   0  0  0  0  0  0  0  0  0  0  0  0
  128.3311  128.5394   70.9056 H   0  0  0  0  0  0  0  0  0  0  0  0
  1  2  1  0
  2  3  2  0
  3  4  1  0
  4  5  1  0
  4  6  2  0
  6  7  1  0
  7  8  1  0
  7  9  2  0
  9 10  1  0
 10 11  2  0
 10 12  1  0
 12 13  1  0
 13 14  2  0
 14 15  1  0
 15 16  2  0
 16 17  1  0
  9 18  1  0
 18 19  1  0
 19 20  2  0
 20  2  1  0
 19  6  1  0
 17 13  1  0
  1 21  1  0
  1 22  1  0
  1 23  1  0
  3 24  1  0
  5 25  1  0
  5 26  1  0
  5 27  1  0
  8 28  1  0
  8 29  1  0
 12 30  1  0
 15 31  1  0
 16 32  1  0
M  END
>  <Binding energies>  (1) 
[-6.18]

>  <Ligand effiencies>  (1) 
[-0.26869565217391306]

>  <Interactions>  (1) 
["V-A:GLU:543:CA:4904, V-B:HIS:456:CD2:9039, H-A:GLU:543:OE2:4910, V-A:GLU:543:C:4902, V-B:GLU:543:CB:9878, V-B:TYR:539:CE2:9848, V-A:TYR:484:CE2:4346, V-A:GLY:544:C:4912, V-B:GLU:543:CG:9879, V-A:TYR:484:CZ:4347, V-A:GLU:543:CD:4908, V-B:HIS:456:CE1:9041, V-B:GLU:543:CA:9876, V-A:HIS:456:CE1:4070, V-B:TYR:539:CD2:9846, V-A:ARG:545:CD:4923, V-A:LEU:475:CD2:4259, V-A:ARG:545:CZ:4926, H-A:GLU:543:OE1:4909, V-A:GLU:543:CB:4906, V-A:GLY:453:CA:4044, H-A:TYR:484:OH:4348"]

$$$$
4ak_Grossjean_2025
     RDKit          3D

 50 51  0  0  0  0  0  0  0  0999 V2000
  127.6050  126.2330   72.1480 C   0  0  0  0  0  0  0  0  0  0  0  0
  128.6560  126.3130   73.0970 O   0  0  0  0  0  0  0  0  0  0  0  0
  129.9340  126.5290   72.5100 C   0  0  0  0  0  0  0  0  0  0  0  0
  130.6140  127.7230   73.1920 C   0  0  0  0  0  0  0  0  0  0  0  0
  130.3230  128.9090   72.4650 O   0  0  0  0  0  0  0  0  0  0  0  0
  129.1420  128.8250   71.6790 C   0  0  0  0  0  0  0  0  0  0  0  0
  129.5220  128.8100   70.1940 C   0  0  0  0  0  0  0  0  0  0  0  0
  130.2570  127.6270   69.9090 O   0  0  0  0  0  0  0  0  0  0  0  0
  129.5270  126.6610   69.1650 C   0  0  0  0  0  0  0  0  0  0  0  0
  129.2560  127.2060   67.7510 C   0  0  0  0  0  0  0  0  0  0  0  0
  129.8120  126.3730   66.6850 N   0  0  0  0  0  0  0  0  0  0  0  0
  129.8930  125.0270   66.7080 C   0  0  0  0  0  0  0  0  0  0  0  0
  129.4720  124.3570   67.6520 O   0  0  0  0  0  0  0  0  0  0  0  0
  130.5050  124.4000   65.5390 C   0  0  0  0  0  0  0  0  0  0  0  0
  129.6780  123.0890   64.6980 S   0  0  0  0  0  0  0  0  0  0  0  0
  130.9780  122.9540   63.5350 C   0  0  0  0  0  0  0  0  0  0  0  0
  130.9520  122.0560   62.5490 N   0  0  0  0  0  0  0  0  0  0  0  0
  132.0230  122.0550   61.7170 C   0  0  0  0  0  0  0  0  0  0  0  0
  131.9740  121.0270   60.6010 C   0  0  0  0  0  0  0  0  0  0  0  0
  133.1060  122.9210   61.8470 C   0  0  0  0  0  0  0  0  0  0  0  0
  133.1300  123.8630   62.8830 C   0  0  0  0  0  0  0  0  0  0  0  0
  134.3350  124.7840   62.9860 C   0  0  0  0  0  0  0  0  0  0  0  0
  132.0250  123.8930   63.7760 C   0  0  0  0  0  0  0  0  0  0  0  0
  131.7270  124.7100   64.9210 C   0  0  0  0  0  0  0  0  0  0  0  0
  132.5740  125.6960   65.3600 N   0  0  0  0  0  0  0  0  0  0  0  0
  126.6414  126.1597   72.6734 H   0  0  0  0  0  0  0  0  0  0  0  0
  127.6111  127.1342   71.5173 H   0  0  0  0  0  0  0  0  0  0  0  0
  127.7474  125.3431   71.5173 H   0  0  0  0  0  0  0  0  0  0  0  0
  130.5543  125.6300   72.6405 H   0  0  0  0  0  0  0  0  0  0  0  0
  129.8142  126.7388   71.4369 H   0  0  0  0  0  0  0  0  0  0  0  0
  130.2377  127.8214   74.2209 H   0  0  0  0  0  0  0  0  0  0  0  0
  131.7021  127.5630   73.2148 H   0  0  0  0  0  0  0  0  0  0  0  0
  128.5992  127.9014   71.9288 H   0  0  0  0  0  0  0  0  0  0  0  0
  128.4989  129.6931   71.8861 H   0  0  0  0  0  0  0  0  0  0  0  0
  128.6090  128.8320   69.5809 H   0  0  0  0  0  0  0  0  0  0  0  0
  130.1381  129.6914   69.9624 H   0  0  0  0  0  0  0  0  0  0  0  0
  130.1122  125.7323   69.0949 H   0  0  0  0  0  0  0  0  0  0  0  0
  128.5716  126.4529   69.6689 H   0  0  0  0  0  0  0  0  0  0  0  0
  128.1675  127.2737   67.6073 H   0  0  0  0  0  0  0  0  0  0  0  0
  129.7492  128.1870   67.6838 H   0  0  0  0  0  0  0  0  0  0  0  0
  130.1710  126.8630   65.8780 H   0  0  0  0  0  0  0  0  0  0  0  0
  131.9259  120.0172   61.0345 H   0  0  0  0  0  0  0  0  0  0  0  0
  131.0832  121.2022   59.9799 H   0  0  0  0  0  0  0  0  0  0  0  0
  132.8774  121.1167   59.9799 H   0  0  0  0  0  0  0  0  0  0  0  0
  133.9430  122.8650   61.1355 H   0  0  0  0  0  0  0  0  0  0  0  0
  134.5698  124.9635   64.0456 H   0  0  0  0  0  0  0  0  0  0  0  0
  135.1990  124.3139   62.4935 H   0  0  0  0  0  0  0  0  0  0  0  0
  134.1082  125.7411   62.4935 H   0  0  0  0  0  0  0  0  0  0  0  0
  133.5770  125.6110   65.2820 H   0  0  0  0  0  0  0  0  0  0  0  0
  132.2180  126.5470   65.7730 H   0  0  0  0  0  0  0  0  0  0  0  0
  1  2  1  0
  2  3  1  0
  3  4  1  0
  4  5  1  0
  5  6  1  0
  6  7  1  0
  7  8  1  0
  8  9  1  0
  9 10  1  0
 10 11  1  0
 11 12  1  0
 12 13  2  0
 12 14  1  0
 14 15  1  0
 15 16  1  0
 16 17  2  0
 17 18  1  0
 18 19  1  0
 18 20  2  0
 20 21  1  0
 21 22  1  0
 21 23  2  0
 23 24  1  0
 24 25  1  0
 24 14  2  0
 23 16  1  0
  1 26  1  0
  1 27  1  0
  1 28  1  0
  3 29  1  0
  3 30  1  0
  4 31  1  0
  4 32  1  0
  6 33  1  0
  6 34  1  0
  7 35  1  0
  7 36  1  0
  9 37  1  0
  9 38  1  0
 10 39  1  0
 10 40  1  0
 11 41  1  0
 19 42  1  0
 19 43  1  0
 19 44  1  0
 20 45  1  0
 22 46  1  0
 22 47  1  0
 22 48  1  0
 25 49  1  0
 25 50  1  0
M  END
>  <Binding energies>  (1) 
[-5.31]

>  <Ligand effiencies>  (1) 
[-0.18964285714285714]

>  <Interactions>  (1) 
["V-A:GLU:543:CA:4904, V-B:HIS:456:CD2:9039, H-A:GLU:543:OE2:4910, V-A:GLU:543:C:4902, V-B:GLU:543:C:9874, V-B:GLU:543:CB:9878, H-B:LYS:547:NZ:9923, V-B:ALA:541:CB:9864, V-B:TYR:539:CE2:9848, V-A:TYR:484:CE2:4346, V-B:GLU:543:CG:9879, V-A:GLY:544:C:4912, V-A:HIS:456:CD2:4068, V-B:LYS:547:CE:9922, V-A:GLU:543:CD:4908, V-A:TYR:484:CZ:4347, V-B:GLU:543:CA:9876, V-B:HIS:456:CE1:9041, V-A:GLY:453:C:4042, V-A:HIS:456:CE1:4070, V-B:GLY:544:C:9884, V-B:TYR:539:CD2:9846, V-B:GLY:544:CA:9886, V-A:ARG:545:CD:4923, H-A:LYS:547:NZ:4951, V-A:LEU:475:CD2:4259, V-A:ARG:545:CZ:4926, H-A:GLU:543:OE1:4909, V-A:GLU:543:CB:4906, V-A:GLY:453:CA:4044, H-A:TYR:484:OH:4348"]

$$$$
4bb_Grossjean_2025
     RDKit          3D

 41 43  0  0  0  0  0  0  0  0999 V2000
  128.2340  128.2480   72.8640 C   0  0  0  0  0  0  0  0  0  0  0  0
  129.4980  128.5880   72.0720 C   0  0  0  0  0  0  0  0  0  0  0  0
  130.2660  129.4320   72.5370 O   0  0  0  0  0  0  0  0  0  0  0  0
  129.7310  127.8830   70.7690 C   0  0  0  0  0  0  0  0  0  0  0  0
  130.9320  128.0920   70.0800 C   0  0  0  0  0  0  0  0  0  0  0  0
  131.1730  127.4510   68.8680 C   0  0  0  0  0  0  0  0  0  0  0  0
  130.2230  126.5830   68.3260 C   0  0  0  0  0  0  0  0  0  0  0  0
  130.5680  125.9910   67.0950 N   0  0  0  0  0  0  0  0  0  0  0  0
  130.2020  124.7950   66.5710 C   0  0  0  0  0  0  0  0  0  0  0  0
  129.4840  123.9780   67.1470 O   0  0  0  0  0  0  0  0  0  0  0  0
  130.7520  124.5010   65.2450 C   0  0  0  0  0  0  0  0  0  0  0  0
  132.1720  125.3650   64.6620 S   0  0  0  0  0  0  0  0  0  0  0  0
  132.1220  124.5130   63.1360 C   0  0  0  0  0  0  0  0  0  0  0  0
  133.0220  124.7430   62.1810 N   0  0  0  0  0  0  0  0  0  0  0  0
  132.8800  124.0230   61.0450 C   0  0  0  0  0  0  0  0  0  0  0  0
  133.9160  124.2990   59.9710 C   0  0  0  0  0  0  0  0  0  0  0  0
  131.8680  123.0880   60.8420 C   0  0  0  0  0  0  0  0  0  0  0  0
  130.9180  122.8410   61.8440 C   0  0  0  0  0  0  0  0  0  0  0  0
  129.8230  121.8020   61.5750 C   0  0  0  0  0  0  0  0  0  0  0  0
  129.8390  120.7900   62.4460 F   0  0  0  0  0  0  0  0  0  0  0  0
  128.6240  122.3800   61.6560 F   0  0  0  0  0  0  0  0  0  0  0  0
  129.9820  121.2840   60.3580 F   0  0  0  0  0  0  0  0  0  0  0  0
  131.0390  123.5840   63.0570 C   0  0  0  0  0  0  0  0  0  0  0  0
  130.2710  123.6040   64.2770 C   0  0  0  0  0  0  0  0  0  0  0  0
  129.1710  122.8090   64.4720 N   0  0  0  0  0  0  0  0  0  0  0  0
  129.0140  126.3750   69.0080 C   0  0  0  0  0  0  0  0  0  0  0  0
  128.7750  127.0190   70.2190 C   0  0  0  0  0  0  0  0  0  0  0  0
  128.4495  128.3060   73.9411 H   0  0  0  0  0  0  0  0  0  0  0  0
  127.4385  128.9641   72.6102 H   0  0  0  0  0  0  0  0  0  0  0  0
  127.9051  127.2295   72.6102 H   0  0  0  0  0  0  0  0  0  0  0  0
  131.6912  128.7682   70.4999 H   0  0  0  0  0  0  0  0  0  0  0  0
  132.1179  127.6294   68.3339 H   0  0  0  0  0  0  0  0  0  0  0  0
  131.2020  126.5420   66.5360 H   0  0  0  0  0  0  0  0  0  0  0  0
  134.8755  124.5546   60.4442 H   0  0  0  0  0  0  0  0  0  0  0  0
  134.0429  123.4033   59.3452 H   0  0  0  0  0  0  0  0  0  0  0  0
  133.5805  125.1391   59.3452 H   0  0  0  0  0  0  0  0  0  0  0  0
  131.8133  122.5398   59.8899 H   0  0  0  0  0  0  0  0  0  0  0  0
  128.7300  122.7180   65.3760 H   0  0  0  0  0  0  0  0  0  0  0  0
  128.7610  122.2820   63.7120 H   0  0  0  0  0  0  0  0  0  0  0  0
  128.2538  125.7019   68.5849 H   0  0  0  0  0  0  0  0  0  0  0  0
  127.8265  126.8478   70.7491 H   0  0  0  0  0  0  0  0  0  0  0  0
  1  2  1  0
  2  3  2  0
  2  4  1  0
  4  5  2  0
  5  6  1  0
  6  7  2  0
  7  8  1  0
  8  9  1  0
  9 10  2  0
  9 11  1  0
 11 12  1  0
 12 13  1  0
 13 14  2  0
 14 15  1  0
 15 16  1  0
 15 17  2  0
 17 18  1  0
 18 19  1  0
 19 20  1  0
 19 21  1  0
 19 22  1  0
 18 23  2  0
 23 24  1  0
 24 25  1  0
  7 26  1  0
 26 27  2  0
 27  4  1  0
 24 11  2  0
 23 13  1  0
  1 28  1  0
  1 29  1  0
  1 30  1  0
  5 31  1  0
  6 32  1  0
  8 33  1  0
 16 34  1  0
 16 35  1  0
 16 36  1  0
 17 37  1  0
 25 38  1  0
 25 39  1  0
 26 40  1  0
 27 41  1  0
M  END
>  <Binding energies>  (1) 
[-6.88]

>  <Ligand effiencies>  (1) 
[-0.22933333333333333]

>  <Interactions>  (1) 
["V-A:ILE:369:CG2:3237, V-A:ASP:366:CA:3210, V-B:PRO:540:CA:9855, V-B:GLU:543:C:9874, H-A:GLU:543:OE2:4910, V-A:ILE:369:CB:3236, V-A:GLU:543:C:4902, V-B:HIS:456:CD2:9039, V-B:GLU:543:CB:9878, V-B:ALA:541:CB:9864, V-B:TYR:539:CE2:9848, V-A:TYR:484:CE2:4346, V-B:GLU:543:CG:9879, V-A:GLY:544:C:4912, V-B:TYR:539:C:9839, V-A:ASP:366:CG:3213, V-A:TYR:484:CZ:4347, V-A:GLU:543:CD:4908, V-A:ARG:545:CG:4922, V-B:HIS:456:CE1:9041, V-A:HIS:456:CE1:4070, V-A:ILE:369:CD1:3239, V-B:TYR:539:CD2:9846, V-B:HIS:456:CG:9037, V-A:ASP:366:CB:3212, H-A:LYS:547:NZ:4951, H-A:ARG:545:NH2:4928, V-A:ARG:545:CZ:4926, V-A:LEU:475:CD2:4259, V-A:GLU:543:CB:4906, H-A:TYR:484:OH:4348"]

$$$$
4bc_Grossjean_2025
     RDKit          3D

 40 42  0  0  0  0  0  0  0  0999 V2000
  127.0070  127.7320   73.1910 C   0  0  0  0  0  0  0  0  0  0  0  0
  128.4100  127.6600   72.9610 O   0  0  0  0  0  0  0  0  0  0  0  0
  128.8750  127.5270   71.6660 C   0  0  0  0  0  0  0  0  0  0  0  0
  128.0030  126.9390   70.7500 C   0  0  0  0  0  0  0  0  0  0  0  0
  128.3840  126.7630   69.4220 C   0  0  0  0  0  0  0  0  0  0  0  0
  129.6430  127.1820   68.9900 C   0  0  0  0  0  0  0  0  0  0  0  0
  129.9450  126.9490   67.6360 N   0  0  0  0  0  0  0  0  0  0  0  0
  129.8480  125.8010   66.9210 C   0  0  0  0  0  0  0  0  0  0  0  0
  129.4900  124.7230   67.3980 O   0  0  0  0  0  0  0  0  0  0  0  0
  130.2090  125.9090   65.5050 C   0  0  0  0  0  0  0  0  0  0  0  0
  129.1480  126.7550   64.3810 S   0  0  0  0  0  0  0  0  0  0  0  0
  130.2300  126.4350   63.0460 C   0  0  0  0  0  0  0  0  0  0  0  0
  129.9590  126.8610   61.8130 N   0  0  0  0  0  0  0  0  0  0  0  0
  130.8710  126.5500   60.8630 C   0  0  0  0  0  0  0  0  0  0  0  0
  130.5450  127.0490   59.4670 C   0  0  0  0  0  0  0  0  0  0  0  0
  132.0360  125.8300   61.1140 C   0  0  0  0  0  0  0  0  0  0  0  0
  132.3270  125.3790   62.4110 C   0  0  0  0  0  0  0  0  0  0  0  0
  133.6210  124.5870   62.6370 C   0  0  0  0  0  0  0  0  0  0  0  0
  134.4020  125.1240   63.5760 F   0  0  0  0  0  0  0  0  0  0  0  0
  133.3270  123.3460   63.0210 F   0  0  0  0  0  0  0  0  0  0  0  0
  134.3270  124.5440   61.5070 F   0  0  0  0  0  0  0  0  0  0  0  0
  131.3860  125.6910   63.4370 C   0  0  0  0  0  0  0  0  0  0  0  0
  131.3460  125.4080   64.8510 C   0  0  0  0  0  0  0  0  0  0  0  0
  132.3360  124.7090   65.4950 N   0  0  0  0  0  0  0  0  0  0  0  0
  130.5310  127.7630   69.9090 C   0  0  0  0  0  0  0  0  0  0  0  0
  130.1470  127.9370   71.2360 C   0  0  0  0  0  0  0  0  0  0  0  0
  126.8130  127.7420   74.2737 H   0  0  0  0  0  0  0  0  0  0  0  0
  126.6080  128.6518   72.7385 H   0  0  0  0  0  0  0  0  0  0  0  0
  126.5159  126.8579   72.7385 H   0  0  0  0  0  0  0  0  0  0  0  0
  127.0058  126.6115   71.0792 H   0  0  0  0  0  0  0  0  0  0  0  0
  127.6897  126.2918   68.7108 H   0  0  0  0  0  0  0  0  0  0  0  0
  130.3140  127.7500   67.1460 H   0  0  0  0  0  0  0  0  0  0  0  0
  129.9446  127.9680   59.5370 H   0  0  0  0  0  0  0  0  0  0  0  0
  131.4790  127.2615   58.9262 H   0  0  0  0  0  0  0  0  0  0  0  0
  129.9752  126.2791   58.9262 H   0  0  0  0  0  0  0  0  0  0  0  0
  132.7327  125.6133   60.2908 H   0  0  0  0  0  0  0  0  0  0  0  0
  133.0260  124.1720   64.9910 H   0  0  0  0  0  0  0  0  0  0  0  0
  132.4090  124.7130   66.5030 H   0  0  0  0  0  0  0  0  0  0  0  0
  131.5314  128.0812   69.5804 H   0  0  0  0  0  0  0  0  0  0  0  0
  130.8440  128.3982   71.9512 H   0  0  0  0  0  0  0  0  0  0  0  0
  1  2  1  0
  2  3  1  0
  3  4  2  0
  4  5  1  0
  5  6  2  0
  6  7  1  0
  7  8  1  0
  8  9  2  0
  8 10  1  0
 10 11  1  0
 11 12  1  0
 12 13  2  0
 13 14  1  0
 14 15  1  0
 14 16  2  0
 16 17  1  0
 17 18  1  0
 18 19  1  0
 18 20  1  0
 18 21  1  0
 17 22  2  0
 22 23  1  0
 23 24  1  0
  6 25  1  0
 25 26  2  0
 26  3  1  0
 23 10  2  0
 22 12  1  0
  1 27  1  0
  1 28  1  0
  1 29  1  0
  4 30  1  0
  5 31  1  0
  7 32  1  0
 15 33  1  0
 15 34  1  0
 15 35  1  0
 16 36  1  0
 24 37  1  0
 24 38  1  0
 25 39  1  0
 26 40  1  0
M  END
>  <Binding energies>  (1) 
[-5.76]

>  <Ligand effiencies>  (1) 
[-0.1986206896551724]

>  <Interactions>  (1) 
["V-A:GLY:454:CA:4049, V-B:GLU:543:C:9874, H-A:GLU:543:OE2:4910, V-A:GLU:543:C:4902, V-B:HIS:456:CD2:9039, V-B:GLU:543:CB:9878, H-B:LYS:547:NZ:9923, V-B:GLU:543:CG:9879, V-A:ASP:366:CG:3213, V-B:LYS:547:CE:9922, V-A:GLU:543:CD:4908, V-A:TYR:484:CZ:4347, V-B:HIS:456:CE1:9041, V-A:GLY:453:C:4042, V-A:HIS:456:CE1:4070, V-A:ILE:369:CD1:3239, V-B:GLY:544:C:9884, V-B:GLU:543:CD:9880, V-B:HIS:456:CG:9037, V-A:ARG:545:CZ:4926, H-A:GLU:543:OE1:4909, V-A:GLU:543:CB:4906, V-A:GLY:453:CA:4044, H-A:TYR:484:OH:4348"]

$$$$
4be_Grossjean_2025
     RDKit          3D

 38 40  0  0  0  0  0  0  0  0999 V2000
  127.0280  126.9620   70.2550 C   0  0  0  0  0  0  0  0  0  0  0  0
  128.4490  127.1680   69.7670 C   0  0  0  0  0  0  0  0  0  0  0  0
  129.3510  127.9760   70.4640 C   0  0  0  0  0  0  0  0  0  0  0  0
  130.6420  128.1230   69.9550 C   0  0  0  0  0  0  0  0  0  0  0  0
  130.9960  127.4660   68.7740 C   0  0  0  0  0  0  0  0  0  0  0  0
  130.0450  126.6670   68.1290 C   0  0  0  0  0  0  0  0  0  0  0  0
  130.4630  126.0390   66.9420 N   0  0  0  0  0  0  0  0  0  0  0  0
  130.1900  124.7860   66.4990 C   0  0  0  0  0  0  0  0  0  0  0  0
  129.4910  123.9780   67.1140 O   0  0  0  0  0  0  0  0  0  0  0  0
  130.8080  124.4210   65.2210 C   0  0  0  0  0  0  0  0  0  0  0  0
  132.2930  125.2150   64.6980 S   0  0  0  0  0  0  0  0  0  0  0  0
  132.3100  124.3010   63.2080 C   0  0  0  0  0  0  0  0  0  0  0  0
  133.2750  124.4620   62.3050 N   0  0  0  0  0  0  0  0  0  0  0  0
  133.1830  123.6970   61.1930 C   0  0  0  0  0  0  0  0  0  0  0  0
  134.2900  123.8980   60.1750 C   0  0  0  0  0  0  0  0  0  0  0  0
  132.1580  122.7820   60.9670 C   0  0  0  0  0  0  0  0  0  0  0  0
  131.1380  122.6060   61.9150 C   0  0  0  0  0  0  0  0  0  0  0  0
  130.0340  121.5850   61.6240 C   0  0  0  0  0  0  0  0  0  0  0  0
  129.8510  120.7150   62.6210 F   0  0  0  0  0  0  0  0  0  0  0  0
  128.8760  122.2150   61.4290 F   0  0  0  0  0  0  0  0  0  0  0  0
  130.3430  120.8840   60.5330 F   0  0  0  0  0  0  0  0  0  0  0  0
  131.2040  123.4020   63.0980 C   0  0  0  0  0  0  0  0  0  0  0  0
  130.3570  123.5020   64.2620 C   0  0  0  0  0  0  0  0  0  0  0  0
  129.2160  122.7570   64.4140 N   0  0  0  0  0  0  0  0  0  0  0  0
  128.7790  126.5230   68.6190 N   0  0  0  0  0  0  0  0  0  0  0  0
  127.0147  126.9601   71.3549 H   0  0  0  0  0  0  0  0  0  0  0  0
  126.3904  127.7771   69.8820 H   0  0  0  0  0  0  0  0  0  0  0  0
  126.6481  125.9994   69.8820 H   0  0  0  0  0  0  0  0  0  0  0  0
  129.0505  128.4843   71.3921 H   0  0  0  0  0  0  0  0  0  0  0  0
  131.3760  128.7519   70.4801 H   0  0  0  0  0  0  0  0  0  0  0  0
  132.0080  127.5751   68.3569 H   0  0  0  0  0  0  0  0  0  0  0  0
  131.0820  126.5930   66.3680 H   0  0  0  0  0  0  0  0  0  0  0  0
  135.2421  124.0709   60.6980 H   0  0  0  0  0  0  0  0  0  0  0  0
  134.3757  123.0007   59.5445 H   0  0  0  0  0  0  0  0  0  0  0  0
  134.0548  124.7681   59.5445 H   0  0  0  0  0  0  0  0  0  0  0  0
  132.1476  122.1925   60.0383 H   0  0  0  0  0  0  0  0  0  0  0  0
  128.7390  122.6850   65.3010 H   0  0  0  0  0  0  0  0  0  0  0  0
  128.8160  122.2460   63.6390 H   0  0  0  0  0  0  0  0  0  0  0  0
  1  2  1  0
  2  3  2  0
  3  4  1  0
  4  5  2  0
  5  6  1  0
  6  7  1  0
  7  8  1  0
  8  9  2  0
  8 10  1  0
 10 11  1  0
 11 12  1  0
 12 13  2  0
 13 14  1  0
 14 15  1  0
 14 16  2  0
 16 17  1  0
 17 18  1  0
 18 19  1  0
 18 20  1  0
 18 21  1  0
 17 22  2  0
 22 23  1  0
 23 24  1  0
  6 25  2  0
 25  2  1  0
 23 10  2  0
 22 12  1  0
  1 26  1  0
  1 27  1  0
  1 28  1  0
  3 29  1  0
  4 30  1  0
  5 31  1  0
  7 32  1  0
 15 33  1  0
 15 34  1  0
 15 35  1  0
 16 36  1  0
 24 37  1  0
 24 38  1  0
M  END
>  <Binding energies>  (1) 
[-5.96]

>  <Ligand effiencies>  (1) 
[-0.21285714285714286]

>  <Interactions>  (1) 
["V-A:ILE:369:CG2:3237, V-A:ASP:366:CA:3210, V-B:PRO:540:CA:9855, V-B:GLU:543:C:9874, H-A:GLU:543:OE2:4910, V-A:ILE:369:CB:3236, V-A:GLU:543:C:4902, V-B:GLU:543:CB:9878, V-B:ALA:541:CB:9864, V-B:TYR:539:CE2:9848, V-A:TYR:484:CE2:4346, V-A:LEU:475:CG:4257, V-B:GLU:543:CG:9879, V-A:GLY:544:C:4912, V-A:LEU:475:CD1:4258, V-A:TYR:484:CZ:4347, V-A:GLU:543:CD:4908, V-A:ARG:545:CG:4922, V-B:HIS:456:CE1:9041, V-A:ILE:369:CD1:3239, V-A:HIS:456:CE1:4070, V-B:GLY:544:C:9884, V-B:GLY:544:CA:9886, V-B:TYR:539:CD2:9846, V-A:ILE:369:CG1:3238, V-A:LEU:475:CD2:4259, V-A:ARG:545:CZ:4926, H-A:GLU:543:OE1:4909, V-A:GLU:543:CB:4906, V-B:ALA:541:CA:9862, H-A:TYR:484:OH:4348"]

$$$$
4bh_Grossjean_2025
     RDKit          3D

 51 53  0  0  0  0  0  0  0  0999 V2000
  129.0230  132.5260   56.4660 C   0  0  0  0  0  0  0  0  0  0  0  0
  129.5450  133.2950   57.5440 O   0  0  0  0  0  0  0  0  0  0  0  0
  129.6820  132.7120   58.7910 C   0  0  0  0  0  0  0  0  0  0  0  0
  128.6400  132.6060   59.7250 C   0  0  0  0  0  0  0  0  0  0  0  0
  128.8500  132.0060   60.9670 C   0  0  0  0  0  0  0  0  0  0  0  0
  127.6960  131.8590   61.9510 C   0  0  0  0  0  0  0  0  0  0  0  0
  127.9700  130.9190   63.0380 N   0  0  0  0  0  0  0  0  0  0  0  0
  127.1390  129.9420   63.4560 C   0  0  0  0  0  0  0  0  0  0  0  0
  126.0190  129.7720   62.9700 O   0  0  0  0  0  0  0  0  0  0  0  0
  127.6240  129.1140   64.5600 C   0  0  0  0  0  0  0  0  0  0  0  0
  127.2330  129.5430   66.2220 S   0  0  0  0  0  0  0  0  0  0  0  0
  128.1570  128.1910   66.8340 C   0  0  0  0  0  0  0  0  0  0  0  0
  128.2530  127.9490   68.1410 N   0  0  0  0  0  0  0  0  0  0  0  0
  128.9920  126.8720   68.4930 C   0  0  0  0  0  0  0  0  0  0  0  0
  129.0900  126.6160   69.9860 C   0  0  0  0  0  0  0  0  0  0  0  0
  129.6300  126.0380   67.5790 C   0  0  0  0  0  0  0  0  0  0  0  0
  129.5340  126.2880   66.2010 C   0  0  0  0  0  0  0  0  0  0  0  0
  130.2510  125.3410   65.2330 C   0  0  0  0  0  0  0  0  0  0  0  0
  131.3810  125.8540   64.7390 F   0  0  0  0  0  0  0  0  0  0  0  0
  130.5690  124.2100   65.8600 F   0  0  0  0  0  0  0  0  0  0  0  0
  129.4540  125.0640   64.2010 F   0  0  0  0  0  0  0  0  0  0  0  0
  128.7640  127.4180   65.7960 C   0  0  0  0  0  0  0  0  0  0  0  0
  128.4510  127.9810   64.5050 C   0  0  0  0  0  0  0  0  0  0  0  0
  128.9160  127.4480   63.3300 N   0  0  0  0  0  0  0  0  0  0  0  0
  130.1070  131.4790   61.2720 C   0  0  0  0  0  0  0  0  0  0  0  0
  131.1690  131.5770   60.3610 C   0  0  0  0  0  0  0  0  0  0  0  0
  132.4410  131.0900   60.6020 O   0  0  0  0  0  0  0  0  0  0  0  0
  133.1720  131.5740   61.7240 C   0  0  0  0  0  0  0  0  0  0  0  0
  130.9450  132.2010   59.1250 C   0  0  0  0  0  0  0  0  0  0  0  0
  131.9720  132.2880   58.2150 O   0  0  0  0  0  0  0  0  0  0  0  0
  132.3080  131.0500   57.6030 C   0  0  0  0  0  0  0  0  0  0  0  0
  128.4474  131.6780   56.8655 H   0  0  0  0  0  0  0  0  0  0  0  0
  128.3660  133.1573   55.8497 H   0  0  0  0  0  0  0  0  0  0  0  0
  129.8522  132.1484   55.8497 H   0  0  0  0  0  0  0  0  0  0  0  0
  127.6445  133.0012   59.4746 H   0  0  0  0  0  0  0  0  0  0  0  0
  127.4847  132.8456   62.3892 H   0  0  0  0  0  0  0  0  0  0  0  0
  126.8399  131.4599   61.3872 H   0  0  0  0  0  0  0  0  0  0  0  0
  128.9040  130.9480   63.4240 H   0  0  0  0  0  0  0  0  0  0  0  0
  128.7490  127.5068   70.5339 H   0  0  0  0  0  0  0  0  0  0  0  0
  128.4572  125.7568   70.2530 H   0  0  0  0  0  0  0  0  0  0  0  0
  130.1348  126.3989   70.2530 H   0  0  0  0  0  0  0  0  0  0  0  0
  130.2131  125.1775   67.9389 H   0  0  0  0  0  0  0  0  0  0  0  0
  128.3310  126.8790   62.7330 H   0  0  0  0  0  0  0  0  0  0  0  0
  129.8660  127.6010   63.0230 H   0  0  0  0  0  0  0  0  0  0  0  0
  130.2662  130.9805   62.2395 H   0  0  0  0  0  0  0  0  0  0  0  0
  132.6789  131.2475   62.6515 H   0  0  0  0  0  0  0  0  0  0  0  0
  134.1968  131.1753   61.6937 H   0  0  0  0  0  0  0  0  0  0  0  0
  133.2051  132.6731   61.6937 H   0  0  0  0  0  0  0  0  0  0  0  0
  132.5116  130.2997   58.3811 H   0  0  0  0  0  0  0  0  0  0  0  0
  131.4694  130.7109   56.9771 H   0  0  0  0  0  0  0  0  0  0  0  0
  133.2030  131.1814   56.9771 H   0  0  0  0  0  0  0  0  0  0  0  0
  1  2  1  0
  2  3  1  0
  3  4  2  0
  4  5  1  0
  5  6  1  0
  6  7  1  0
  7  8  1  0
  8  9  2  0
  8 10  1  0
 10 11  1  0
 11 12  1  0
 12 13  2  0
 13 14  1  0
 14 15  1  0
 14 16  2  0
 16 17  1  0
 17 18  1  0
 18 19  1  0
 18 20  1  0
 18 21  1  0
 17 22  2  0
 22 23  1  0
 23 24  1  0
  5 25  2  0
 25 26  1  0
 26 27  1  0
 27 28  1  0
 26 29  2  0
 29 30  1  0
 30 31  1  0
 29  3  1  0
 23 10  2  0
 22 12  1  0
  1 32  1  0
  1 33  1  0
  1 34  1  0
  4 35  1  0
  6 36  1  0
  6 37  1  0
  7 38  1  0
 15 39  1  0
 15 40  1  0
 15 41  1  0
 16 42  1  0
 24 43  1  0
 24 44  1  0
 25 45  1  0
 28 46  1  0
 28 47  1  0
 28 48  1  0
 31 49  1  0
 31 50  1  0
 31 51  1  0
M  END
>  <Binding energies>  (1) 
[-5.51]

>  <Ligand effiencies>  (1) 
[-0.16205882352941176]

>  <Interactions>  (1) 
["V-B:GLU:543:C:9874, H-A:GLU:543:OE2:4910, V-B:GLU:543:CB:9878, V-A:TYR:484:CE2:4346, V-B:GLU:543:CG:9879, V-A:ASN:362:CB:3176, V-A:TYR:539:CD1:4873, V-A:LEU:363:CD1:3189, H-B:GLU:543:OE1:9881, V-A:TYR:531:CE2:4793, V-A:GLU:543:CD:4908, V-A:TYR:484:CZ:4347, V-B:HIS:456:CE1:9041, V-B:TYR:484:CZ:9318, V-A:HIS:456:CE1:4070, V-B:GLU:543:CD:9880, V-A:MET:535:CE:4835, V-A:TYR:539:C:4867, V-A:ARG:545:CZ:4926, H-A:GLU:543:OE1:4909, V-A:PRO:540:N:4884, H-A:TYR:539:N:4870, H-B:GLU:543:OE2:9882, V-A:PRO:540:CA:4883, V-A:PRO:540:CB:4885"]

$$$$
4cb_Grossjean_2025
     RDKit          3D

 49 52  0  0  0  0  0  0  0  0999 V2000
  131.9210  133.2670   56.8150 C   0  0  0  0  0  0  0  0  0  0  0  0
  130.7160  132.5290   56.6620 O   0  0  0  0  0  0  0  0  0  0  0  0
  129.5800  132.9070   57.3030 C   0  0  0  0  0  0  0  0  0  0  0  0
  128.7840  133.7350   56.8480 O   0  0  0  0  0  0  0  0  0  0  0  0
  129.3850  132.2150   58.6230 C   0  0  0  0  0  0  0  0  0  0  0  0
  130.2330  131.1560   58.9710 C   0  0  0  0  0  0  0  0  0  0  0  0
  130.0830  130.5000   60.1900 C   0  0  0  0  0  0  0  0  0  0  0  0
  129.0810  130.8850   61.0810 C   0  0  0  0  0  0  0  0  0  0  0  0
  129.0290  130.1640   62.2900 N   0  0  0  0  0  0  0  0  0  0  0  0
  127.9880  129.5320   62.8850 C   0  0  0  0  0  0  0  0  0  0  0  0
  126.8590  129.4480   62.3980 O   0  0  0  0  0  0  0  0  0  0  0  0
  128.2890  128.9110   64.1780 C   0  0  0  0  0  0  0  0  0  0  0  0
  127.8440  129.7240   65.6770 S   0  0  0  0  0  0  0  0  0  0  0  0
  128.4650  128.4000   66.6340 C   0  0  0  0  0  0  0  0  0  0  0  0
  128.4120  128.4170   67.9630 N   0  0  0  0  0  0  0  0  0  0  0  0
  128.9100  127.3380   68.6200 C   0  0  0  0  0  0  0  0  0  0  0  0
  128.8310  127.3850   70.1180 C   0  0  0  0  0  0  0  0  0  0  0  0
  129.9210  127.8350   70.8800 C   0  0  0  0  0  0  0  0  0  0  0  0
  129.8560  127.8780   72.2710 C   0  0  0  0  0  0  0  0  0  0  0  0
  128.6960  127.4690   72.9210 C   0  0  0  0  0  0  0  0  0  0  0  0
  127.6020  127.0160   72.1890 C   0  0  0  0  0  0  0  0  0  0  0  0
  127.6730  126.9730   70.8000 C   0  0  0  0  0  0  0  0  0  0  0  0
  129.4780  126.2560   67.9380 C   0  0  0  0  0  0  0  0  0  0  0  0
  129.5420  126.2290   66.5370 C   0  0  0  0  0  0  0  0  0  0  0  0
  130.1770  125.0110   65.8540 C   0  0  0  0  0  0  0  0  0  0  0  0
  129.4980  124.6020   64.7800 F   0  0  0  0  0  0  0  0  0  0  0  0
  131.4120  125.3120   65.4540 F   0  0  0  0  0  0  0  0  0  0  0  0
  130.2260  123.9890   66.7080 F   0  0  0  0  0  0  0  0  0  0  0  0
  129.0080  127.3490   65.8370 C   0  0  0  0  0  0  0  0  0  0  0  0
  128.8890  127.6670   64.4350 C   0  0  0  0  0  0  0  0  0  0  0  0
  129.3260  126.8250   63.4450 N   0  0  0  0  0  0  0  0  0  0  0  0
  128.2290  131.9470   60.7410 C   0  0  0  0  0  0  0  0  0  0  0  0
  128.3820  132.6020   59.5230 C   0  0  0  0  0  0  0  0  0  0  0  0
  132.1367  133.3991   57.8855 H   0  0  0  0  0  0  0  0  0  0  0  0
  132.7486  132.7206   56.3389 H   0  0  0  0  0  0  0  0  0  0  0  0
  131.8104  134.2525   56.3389 H   0  0  0  0  0  0  0  0  0  0  0  0
  131.0243  130.8398   58.2754 H   0  0  0  0  0  0  0  0  0  0  0  0
  130.7590  129.6728   60.4522 H   0  0  0  0  0  0  0  0  0  0  0  0
  129.9120  130.1090   62.7750 H   0  0  0  0  0  0  0  0  0  0  0  0
  130.8407  128.1587   70.3707 H   0  0  0  0  0  0  0  0  0  0  0  0
  130.7187  128.2340   72.8532 H   0  0  0  0  0  0  0  0  0  0  0  0
  128.6430  127.5037   74.0192 H   0  0  0  0  0  0  0  0  0  0  0  0
  126.6861  126.6937   72.7060 H   0  0  0  0  0  0  0  0  0  0  0  0
  126.8078  126.6103   70.2256 H   0  0  0  0  0  0  0  0  0  0  0  0
  129.8825  125.4095   68.5123 H   0  0  0  0  0  0  0  0  0  0  0  0
  128.7430  126.0880   63.0750 H   0  0  0  0  0  0  0  0  0  0  0  0
  130.2500  126.9160   63.0460 H   0  0  0  0  0  0  0  0  0  0  0  0
  127.4390  132.2621   61.4385 H   0  0  0  0  0  0  0  0  0  0  0  0
  127.7088  133.4323   59.2634 H   0  0  0  0  0  0  0  0  0  0  0  0
  1  2  1  0
  2  3  1  0
  3  4  2  0
  3  5  1  0
  5  6  2  0
  6  7  1  0
  7  8  2  0
  8  9  1  0
  9 10  1  0
 10 11  2  0
 10 12  1  0
 12 13  1  0
 13 14  1  0
 14 15  2  0
 15 16  1  0
 16 17  1  0
 17 18  2  0
 18 19  1  0
 19 20  2  0
 20 21  1  0
 21 22  2  0
 16 23  2  0
 23 24  1  0
 24 25  1  0
 25 26  1  0
 25 27  1  0
 25 28  1  0
 24 29  2  0
 29 30  1  0
 30 31  1  0
  8 32  1  0
 32 33  2  0
 33  5  1  0
 30 12  2  0
 29 14  1  0
 22 17  1  0
  1 34  1  0
  1 35  1  0
  1 36  1  0
  6 37  1  0
  7 38  1  0
  9 39  1  0
 18 40  1  0
 19 41  1  0
 20 42  1  0
 21 43  1  0
 22 44  1  0
 23 45  1  0
 31 46  1  0
 31 47  1  0
 32 48  1  0
 33 49  1  0
M  END
>  <Binding energies>  (1) 
[-7.6]

>  <Ligand effiencies>  (1) 
[-0.2111111111111111]

>  <Interactions>  (1) 
["V-A:PRO:540:CG:4886, V-B:GLU:543:C:9874, H-A:GLU:543:OE2:4910, V-B:HIS:456:CD2:9039, V-B:GLU:543:CB:9878, V-A:ILE:538:CB:4862, V-A:TYR:484:CE2:4346, V-B:GLU:543:CG:9879, V-A:ILE:538:CG2:4863, V-A:TYR:539:CD1:4873, V-A:LEU:363:CD1:3189, V-A:ILE:538:CA:4860, H-B:GLU:543:OE1:9881, V-B:LYS:547:CE:9922, V-A:GLU:543:CD:4908, V-A:TYR:484:CZ:4347, V-B:HIS:456:CE1:9041, V-B:GLU:543:CA:9876, V-A:TYR:484:CD2:4344, V-B:TYR:484:CZ:9318, V-A:HIS:456:CE1:4070, V-B:GLY:544:C:9884, V-A:GLU:543:CG:4907, V-B:GLU:543:CD:9880, V-A:TYR:539:C:4867, H-A:GLU:543:OE1:4909, V-A:GLU:543:CB:4906, V-A:PRO:540:N:4884, H-A:TYR:539:N:4870, V-A:PRO:540:CB:4885, V-A:PRO:540:CA:4883, V-A:PRO:540:CD:4887"]

$$$$
4cc_Grossjean_2025
     RDKit          3D

 47 50  0  0  0  0  0  0  0  0999 V2000
  130.7150  132.7960   56.6380 C   0  0  0  0  0  0  0  0  0  0  0  0
  129.8060  133.3570   57.5790 O   0  0  0  0  0  0  0  0  0  0  0  0
  129.5490  132.6780   58.7550 C   0  0  0  0  0  0  0  0  0  0  0  0
  130.4600  131.6840   59.1120 C   0  0  0  0  0  0  0  0  0  0  0  0
  130.2850  130.9480   60.2810 C   0  0  0  0  0  0  0  0  0  0  0  0
  129.1860  131.1920   61.1070 C   0  0  0  0  0  0  0  0  0  0  0  0
  129.1020  130.4100   62.2740 N   0  0  0  0  0  0  0  0  0  0  0  0
  128.0420  129.7330   62.7770 C   0  0  0  0  0  0  0  0  0  0  0  0
  126.9410  129.6700   62.2270 O   0  0  0  0  0  0  0  0  0  0  0  0
  128.2780  129.0500   64.0530 C   0  0  0  0  0  0  0  0  0  0  0  0
  127.9020  129.8570   65.5740 S   0  0  0  0  0  0  0  0  0  0  0  0
  128.4270  128.4670   66.4930 C   0  0  0  0  0  0  0  0  0  0  0  0
  128.3840  128.4570   67.8230 N   0  0  0  0  0  0  0  0  0  0  0  0
  128.8040  127.3270   68.4500 C   0  0  0  0  0  0  0  0  0  0  0  0
  128.7460  127.3460   69.9500 C   0  0  0  0  0  0  0  0  0  0  0  0
  129.8660  127.7280   70.7070 C   0  0  0  0  0  0  0  0  0  0  0  0
  129.8200  127.7460   72.0990 C   0  0  0  0  0  0  0  0  0  0  0  0
  128.6500  127.3800   72.7560 C   0  0  0  0  0  0  0  0  0  0  0  0
  127.5280  126.9940   72.0300 C   0  0  0  0  0  0  0  0  0  0  0  0
  127.5780  126.9760   70.6390 C   0  0  0  0  0  0  0  0  0  0  0  0
  129.2810  126.2220   67.7390 C   0  0  0  0  0  0  0  0  0  0  0  0
  129.3330  126.2230   66.3360 C   0  0  0  0  0  0  0  0  0  0  0  0
  129.8620  124.9740   65.6210 C   0  0  0  0  0  0  0  0  0  0  0  0
  129.1500  124.6470   64.5400 F   0  0  0  0  0  0  0  0  0  0  0  0
  131.1180  125.1800   65.2240 F   0  0  0  0  0  0  0  0  0  0  0  0
  129.8290  123.9320   66.4510 F   0  0  0  0  0  0  0  0  0  0  0  0
  128.8860  127.3980   65.6680 C   0  0  0  0  0  0  0  0  0  0  0  0
  128.7930  127.7630   64.2760 C   0  0  0  0  0  0  0  0  0  0  0  0
  129.1730  126.9210   63.2620 N   0  0  0  0  0  0  0  0  0  0  0  0
  128.2730  132.1990   60.7620 C   0  0  0  0  0  0  0  0  0  0  0  0
  128.4520  132.9330   59.5930 C   0  0  0  0  0  0  0  0  0  0  0  0
  131.5325  132.2915   57.1738 H   0  0  0  0  0  0  0  0  0  0  0  0
  130.1857  132.0672   56.0065 H   0  0  0  0  0  0  0  0  0  0  0  0
  131.1291  133.5958   56.0065 H   0  0  0  0  0  0  0  0  0  0  0  0
  131.3250  131.4796   58.4639 H   0  0  0  0  0  0  0  0  0  0  0  0
  131.0149  130.1719   60.5546 H   0  0  0  0  0  0  0  0  0  0  0  0
  129.9670  130.3270   62.7860 H   0  0  0  0  0  0  0  0  0  0  0  0
  130.7940  128.0175   70.1923 H   0  0  0  0  0  0  0  0  0  0  0  0
  130.7059  128.0486   72.6767 H   0  0  0  0  0  0  0  0  0  0  0  0
  128.6117  127.3959   73.8552 H   0  0  0  0  0  0  0  0  0  0  0  0
  126.6048  126.7041   72.5531 H   0  0  0  0  0  0  0  0  0  0  0  0
  126.6889  126.6672   70.0697 H   0  0  0  0  0  0  0  0  0  0  0  0
  129.6226  125.3334   68.2901 H   0  0  0  0  0  0  0  0  0  0  0  0
  130.0430  127.0430   62.7630 H   0  0  0  0  0  0  0  0  0  0  0  0
  128.5900  126.1460   62.9770 H   0  0  0  0  0  0  0  0  0  0  0  0
  127.4141  132.4091   61.4163 H   0  0  0  0  0  0  0  0  0  0  0  0
  127.7295  133.7177   59.3242 H   0  0  0  0  0  0  0  0  0  0  0  0
  1  2  1  0
  2  3  1  0
  3  4  2  0
  4  5  1  0
  5  6  2  0
  6  7  1  0
  7  8  1  0
  8  9  2  0
  8 10  1  0
 10 11  1  0
 11 12  1  0
 12 13  2  0
 13 14  1  0
 14 15  1  0
 15 16  2  0
 16 17  1  0
 17 18  2  0
 18 19  1  0
 19 20  2  0
 14 21  2  0
 21 22  1  0
 22 23  1  0
 23 24  1  0
 23 25  1  0
 23 26  1  0
 22 27  2  0
 27 28  1  0
 28 29  1  0
  6 30  1  0
 30 31  2  0
 31  3  1  0
 28 10  2  0
 27 12  1  0
 20 15  1  0
  1 32  1  0
  1 33  1  0
  1 34  1  0
  4 35  1  0
  5 36  1  0
  7 37  1  0
 16 38  1  0
 17 39  1  0
 18 40  1  0
 19 41  1  0
 20 42  1  0
 21 43  1  0
 29 44  1  0
 29 45  1  0
 30 46  1  0
 31 47  1  0
M  END
>  <Binding energies>  (1) 
[-7.46]

>  <Ligand effiencies>  (1) 
[-0.21941176470588236]

>  <Interactions>  (1) 
["V-B:GLU:543:C:9874, V-B:HIS:456:CD2:9039, V-B:GLU:543:CB:9878, V-A:ILE:538:CB:4862, V-A:TYR:484:CE2:4346, V-B:GLU:543:CG:9879, V-A:TYR:539:CD1:4873, V-A:ILE:538:CA:4860, H-B:GLU:543:OE1:9881, V-A:GLU:543:CD:4908, V-A:TYR:484:CZ:4347, V-B:HIS:456:CE1:9041, V-B:GLU:543:CA:9876, V-B:TYR:484:CZ:9318, V-A:HIS:456:CE1:4070, V-B:GLY:544:C:9884, V-B:GLY:544:CA:9886, V-A:GLU:543:CG:4907, V-B:GLU:543:CD:9880, V-A:TYR:539:C:4867, H-A:GLU:543:OE1:4909, V-A:GLU:543:CB:4906, V-A:PRO:540:N:4884, H-A:TYR:539:N:4870, H-B:GLU:543:OE2:9882, V-A:PRO:540:CA:4883, V-A:TYR:539:CE1:4875"]

$$$$
4cd_Grossjean_2025
     RDKit          3D

 43 46  0  0  0  0  0  0  0  0999 V2000
  129.0120  127.3140   63.7640 N   0  0  0  0  0  0  0  0  0  0  0  0
  129.3740  126.5900   64.8710 C   0  0  0  0  0  0  0  0  0  0  0  0
  130.0390  125.3550   64.8000 C   0  0  0  0  0  0  0  0  0  0  0  0
  130.4490  124.6060   63.6080 C   0  0  0  0  0  0  0  0  0  0  0  0
  129.8800  124.7800   62.5300 O   0  0  0  0  0  0  0  0  0  0  0  0
  131.4790  123.7440   63.7900 N   0  0  0  0  0  0  0  0  0  0  0  0
  132.0730  122.8510   62.8790 C   0  0  0  0  0  0  0  0  0  0  0  0
  131.1960  122.1650   62.0350 C   0  0  0  0  0  0  0  0  0  0  0  0
  131.6870  121.2690   61.0900 C   0  0  0  0  0  0  0  0  0  0  0  0
  133.0600  121.0640   60.9830 C   0  0  0  0  0  0  0  0  0  0  0  0
  133.9460  121.7510   61.8080 C   0  0  0  0  0  0  0  0  0  0  0  0
  133.4580  122.6480   62.7550 C   0  0  0  0  0  0  0  0  0  0  0  0
  130.3580  124.7110   66.4090 S   0  0  0  0  0  0  0  0  0  0  0  0
  129.5930  126.0900   67.1620 C   0  0  0  0  0  0  0  0  0  0  0  0
  129.5040  126.1970   68.4860 N   0  0  0  0  0  0  0  0  0  0  0  0
  128.8790  127.2990   68.9780 C   0  0  0  0  0  0  0  0  0  0  0  0
  128.7920  127.3920   70.4740 C   0  0  0  0  0  0  0  0  0  0  0  0
  129.8650  127.8940   71.2270 C   0  0  0  0  0  0  0  0  0  0  0  0
  129.7900  127.9840   72.6150 C   0  0  0  0  0  0  0  0  0  0  0  0
  128.6360  127.5700   73.2710 C   0  0  0  0  0  0  0  0  0  0  0  0
  127.5570  127.0720   72.5490 C   0  0  0  0  0  0  0  0  0  0  0  0
  127.6350  126.9860   71.1620 C   0  0  0  0  0  0  0  0  0  0  0  0
  128.3660  128.2950   68.1420 C   0  0  0  0  0  0  0  0  0  0  0  0
  128.4590  128.1920   66.7440 C   0  0  0  0  0  0  0  0  0  0  0  0
  127.8710  129.3190   65.8850 C   0  0  0  0  0  0  0  0  0  0  0  0
  128.4840  129.4520   64.7060 F   0  0  0  0  0  0  0  0  0  0  0  0
  126.5840  129.0750   65.6410 F   0  0  0  0  0  0  0  0  0  0  0  0
  127.9860  130.4810   66.5270 F   0  0  0  0  0  0  0  0  0  0  0  0
  129.1000  127.0360   66.2160 C   0  0  0  0  0  0  0  0  0  0  0  0
  128.2000  127.0760   63.2120 H   0  0  0  0  0  0  0  0  0  0  0  0
  129.5470  128.1160   63.4620 H   0  0  0  0  0  0  0  0  0  0  0  0
  131.9010  123.7430   64.7080 H   0  0  0  0  0  0  0  0  0  0  0  0
  130.1122  122.3339   62.1178 H   0  0  0  0  0  0  0  0  0  0  0  0
  130.9939  120.7256   60.4310 H   0  0  0  0  0  0  0  0  0  0  0  0
  133.4483  120.3524   60.2395 H   0  0  0  0  0  0  0  0  0  0  0  0
  135.0293  121.5858   61.7122 H   0  0  0  0  0  0  0  0  0  0  0  0
  134.1556  123.1967   63.4049 H   0  0  0  0  0  0  0  0  0  0  0  0
  130.7803  128.2218   70.7124 H   0  0  0  0  0  0  0  0  0  0  0  0
  130.6399  128.3808   73.1896 H   0  0  0  0  0  0  0  0  0  0  0  0
  128.5763  127.6368   74.3673 H   0  0  0  0  0  0  0  0  0  0  0  0
  126.6454  126.7473   73.0720 H   0  0  0  0  0  0  0  0  0  0  0  0
  126.7777  126.5941   70.5950 H   0  0  0  0  0  0  0  0  0  0  0  0
  127.8804  129.1759   68.5871 H   0  0  0  0  0  0  0  0  0  0  0  0
  1  2  1  0
  2  3  2  0
  3  4  1  0
  4  5  2  0
  4  6  1  0
  6  7  1  0
  7  8  2  0
  8  9  1  0
  9 10  2  0
 10 11  1  0
 11 12  2  0
  3 13  1  0
 13 14  1  0
 14 15  2  0
 15 16  1  0
 16 17  1  0
 17 18  2  0
 18 19  1  0
 19 20  2  0
 20 21  1  0
 21 22  2  0
 16 23  2  0
 23 24  1  0
 24 25  1  0
 25 26  1  0
 25 27  1  0
 25 28  1  0
 24 29  2  0
 29  2  1  0
 12  7  1  0
 29 14  1  0
 22 17  1  0
  1 30  1  0
  1 31  1  0
  6 32  1  0
  8 33  1  0
  9 34  1  0
 10 35  1  0
 11 36  1  0
 12 37  1  0
 18 38  1  0
 19 39  1  0
 20 40  1  0
 21 41  1  0
 22 42  1  0
 23 43  1  0
M  END
>  <Binding energies>  (1) 
[-7.24]

>  <Ligand effiencies>  (1) 
[-0.22625]

>  <Interactions>  (1) 
["V-A:ILE:369:CG2:3237, V-A:GLY:454:CA:4049, V-B:GLU:543:C:9874, H-A:GLU:543:OE2:4910, V-B:HIS:456:CD2:9039, V-B:GLU:543:CB:9878, V-B:TYR:539:CE2:9848, V-A:TYR:484:CE2:4346, V-B:GLU:543:CG:9879, V-B:TYR:484:CE2:9317, H-B:GLU:543:OE1:9881, V-B:LYS:547:CE:9922, V-A:GLU:543:CD:4908, V-A:TYR:484:CZ:4347, V-B:HIS:456:CE1:9041, V-A:SER:385:C:3405, V-A:HIS:456:CE1:4070, V-A:ILE:369:CD1:3239, V-B:TYR:484:CZ:9318, V-B:GLY:544:C:9884, V-B:TYR:539:CD2:9846, V-A:GLU:543:CG:4907, V-A:SER:385:CB:3409, V-B:GLU:543:CD:9880, V-A:LEU:475:CD2:4259, H-A:GLU:543:OE1:4909, V-A:GLU:543:CB:4906, H-B:GLU:543:OE2:9882, H-A:TYR:484:OH:4348"]

$$$$
4ch_Grossjean_2025
     RDKit          3D

 58 61  0  0  0  0  0  0  0  0999 V2000
  125.8210  122.5950   56.8430 C   0  0  0  0  0  0  0  0  0  0  0  0
  127.1350  122.1060   57.0930 O   0  0  0  0  0  0  0  0  0  0  0  0
  127.9310  122.7490   58.0230 C   0  0  0  0  0  0  0  0  0  0  0  0
  128.2830  122.1990   59.2670 C   0  0  0  0  0  0  0  0  0  0  0  0
  129.0930  122.9040   60.1580 C   0  0  0  0  0  0  0  0  0  0  0  0
  129.4420  122.3030   61.5150 C   0  0  0  0  0  0  0  0  0  0  0  0
  129.3150  123.2360   62.6350 N   0  0  0  0  0  0  0  0  0  0  0  0
  130.1960  124.2080   62.9500 C   0  0  0  0  0  0  0  0  0  0  0  0
  131.2100  124.4250   62.2830 O   0  0  0  0  0  0  0  0  0  0  0  0
  129.8600  125.0240   64.1170 C   0  0  0  0  0  0  0  0  0  0  0  0
  130.2490  124.4520   65.7360 S   0  0  0  0  0  0  0  0  0  0  0  0
  129.5990  125.9060   66.4540 C   0  0  0  0  0  0  0  0  0  0  0  0
  129.5940  126.0880   67.7720 N   0  0  0  0  0  0  0  0  0  0  0  0
  129.0720  127.2520   68.2380 C   0  0  0  0  0  0  0  0  0  0  0  0
  129.0770  127.4240   69.7300 C   0  0  0  0  0  0  0  0  0  0  0  0
  130.1750  128.0080   70.3830 C   0  0  0  0  0  0  0  0  0  0  0  0
  130.1860  128.1690   71.7660 C   0  0  0  0  0  0  0  0  0  0  0  0
  129.0950  127.7470   72.5190 C   0  0  0  0  0  0  0  0  0  0  0  0
  127.9970  127.1620   71.8980 C   0  0  0  0  0  0  0  0  0  0  0  0
  127.9910  127.0010   70.5150 C   0  0  0  0  0  0  0  0  0  0  0  0
  128.5420  128.2200   67.3790 C   0  0  0  0  0  0  0  0  0  0  0  0
  128.5400  128.0380   65.9860 C   0  0  0  0  0  0  0  0  0  0  0  0
  127.9430  129.1380   65.1020 C   0  0  0  0  0  0  0  0  0  0  0  0
  126.6840  128.8900   64.7340 F   0  0  0  0  0  0  0  0  0  0  0  0
  127.9440  130.2960   65.7600 F   0  0  0  0  0  0  0  0  0  0  0  0
  128.6650  129.2650   63.9890 F   0  0  0  0  0  0  0  0  0  0  0  0
  129.0970  126.8260   65.4860 C   0  0  0  0  0  0  0  0  0  0  0  0
  129.2710  126.2980   64.1550 C   0  0  0  0  0  0  0  0  0  0  0  0
  128.8850  126.9790   63.0290 N   0  0  0  0  0  0  0  0  0  0  0  0
  129.5460  124.1790   59.8150 C   0  0  0  0  0  0  0  0  0  0  0  0
  129.2090  124.7540   58.5790 C   0  0  0  0  0  0  0  0  0  0  0  0
  129.6220  126.0100   58.1740 O   0  0  0  0  0  0  0  0  0  0  0  0
  130.9600  126.4220   58.4320 C   0  0  0  0  0  0  0  0  0  0  0  0
  128.4060  124.0250   57.6900 C   0  0  0  0  0  0  0  0  0  0  0  0
  128.0560  124.5820   56.4840 O   0  0  0  0  0  0  0  0  0  0  0  0
  127.2210  125.7260   56.5940 C   0  0  0  0  0  0  0  0  0  0  0  0
  125.3121  122.7844   57.7996 H   0  0  0  0  0  0  0  0  0  0  0  0
  125.8813  123.5309   56.2681 H   0  0  0  0  0  0  0  0  0  0  0  0
  125.2548  121.8474   56.2681 H   0  0  0  0  0  0  0  0  0  0  0  0
  127.9152  121.1995   59.5422 H   0  0  0  0  0  0  0  0  0  0  0  0
  128.7706  121.4511   61.6979 H   0  0  0  0  0  0  0  0  0  0  0  0
  130.5008  122.0087   61.4674 H   0  0  0  0  0  0  0  0  0  0  0  0
  128.5340  123.0800   63.2560 H   0  0  0  0  0  0  0  0  0  0  0  0
  131.0401  128.3436   69.7923 H   0  0  0  0  0  0  0  0  0  0  0  0
  131.0542  128.6282   72.2614 H   0  0  0  0  0  0  0  0  0  0  0  0
  129.1010  127.8768   73.6113 H   0  0  0  0  0  0  0  0  0  0  0  0
  127.1369  126.8279   72.4968 H   0  0  0  0  0  0  0  0  0  0  0  0
  127.1214  126.5348   70.0287 H   0  0  0  0  0  0  0  0  0  0  0  0
  128.1182  129.1425   67.8026 H   0  0  0  0  0  0  0  0  0  0  0  0
  128.0340  126.7520   62.5320 H   0  0  0  0  0  0  0  0  0  0  0  0
  129.4390  127.7390   62.6590 H   0  0  0  0  0  0  0  0  0  0  0  0
  130.1748  124.7403   60.5217 H   0  0  0  0  0  0  0  0  0  0  0  0
  131.1250  126.4728   59.5184 H   0  0  0  0  0  0  0  0  0  0  0  0
  131.6588  125.6974   57.9885 H   0  0  0  0  0  0  0  0  0  0  0  0
  131.1301  127.4141   57.9885 H   0  0  0  0  0  0  0  0  0  0  0  0
  127.0528  125.9564   57.6564 H   0  0  0  0  0  0  0  0  0  0  0  0
  127.7073  126.5832   56.1054 H   0  0  0  0  0  0  0  0  0  0  0  0
  126.2563  125.5242   56.1054 H   0  0  0  0  0  0  0  0  0  0  0  0
  1  2  1  0
  2  3  1  0
  3  4  2  0
  4  5  1  0
  5  6  1  0
  6  7  1  0
  7  8  1  0
  8  9  2  0
  8 10  1  0
 10 11  1  0
 11 12  1  0
 12 13  2  0
 13 14  1  0
 14 15  1  0
 15 16  2  0
 16 17  1  0
 17 18  2  0
 18 19  1  0
 19 20  2  0
 14 21  2  0
 21 22  1  0
 22 23  1  0
 23 24  1  0
 23 25  1  0
 23 26  1  0
 22 27  2  0
 27 28  1  0
 28 29  1  0
  5 30  2  0
 30 31  1  0
 31 32  1  0
 32 33  1  0
 31 34  2  0
 34 35  1  0
 35 36  1  0
 34  3  1  0
 28 10  2  0
 27 12  1  0
 20 15  1  0
  1 37  1  0
  1 38  1  0
  1 39  1  0
  4 40  1  0
  6 41  1  0
  6 42  1  0
  7 43  1  0
 16 44  1  0
 17 45  1  0
 18 46  1  0
 19 47  1  0
 20 48  1  0
 21 49  1  0
 29 50  1  0
 29 51  1  0
 30 52  1  0
 33 53  1  0
 33 54  1  0
 33 55  1  0
 36 56  1  0
 36 57  1  0
 36 58  1  0
M  END
>  <Binding energies>  (1) 
[-6.86]

>  <Ligand effiencies>  (1) 
[-0.1758974358974359]

>  <Interactions>  (1) 
["V-B:PRO:540:CA:9855, V-B:GLU:543:C:9874, V-B:HIS:456:CD2:9039, V-A:GLU:543:C:4902, V-B:GLU:543:CB:9878, V-B:TYR:539:CE2:9848, V-A:TYR:484:CE2:4346, H-B:TYR:539:N:9842, V-A:GLY:544:C:4912, V-B:GLU:543:CG:9879, V-B:TYR:539:C:9839, V-B:TYR:484:CE2:9317, V-B:TYR:539:CZ:9849, H-B:GLU:543:OE1:9881, V-A:GLU:543:CD:4908, V-A:TYR:484:CZ:4347, V-B:PRO:540:CB:9857, V-B:HIS:456:CE1:9041, V-B:PRO:540:N:9856, V-B:TYR:484:CZ:9318, V-A:HIS:456:CE1:4070, V-B:TYR:539:CD2:9846, V-A:GLU:543:CG:4907, V-B:PRO:540:CD:9859, V-B:GLU:543:CD:9880, H-A:GLU:543:OE1:4909, V-B:TYR:539:CG:9844, V-A:GLU:543:CB:4906, H-B:GLU:543:OE2:9882, V-B:MET:535:CE:9807"]

$$$$
4ci_Grossjean_2025
     RDKit          3D

 39 42  0  0  0  0  0  0  0  0999 V2000
  128.7330  127.2630   63.7330 N   0  0  0  0  0  0  0  0  0  0  0  0
  129.1350  126.5060   64.8030 C   0  0  0  0  0  0  0  0  0  0  0  0
  129.6380  125.2010   64.6760 C   0  0  0  0  0  0  0  0  0  0  0  0
  129.8430  124.4150   63.4560 C   0  0  0  0  0  0  0  0  0  0  0  0
  130.9810  124.1300   63.0750 O   0  0  0  0  0  0  0  0  0  0  0  0
  128.7130  124.0530   62.7990 N   0  0  0  0  0  0  0  0  0  0  0  0
  128.6160  123.3150   61.6260 C   0  0  0  0  0  0  0  0  0  0  0  0
  128.0800  123.8270   60.4450 C   0  0  0  0  0  0  0  0  0  0  0  0
  128.1640  122.7980   59.5370 C   0  0  0  0  0  0  0  0  0  0  0  0
  128.7230  121.7210   60.1390 O   0  0  0  0  0  0  0  0  0  0  0  0
  129.0050  122.0620   61.4630 N   0  0  0  0  0  0  0  0  0  0  0  0
  130.0680  124.5290   66.2470 S   0  0  0  0  0  0  0  0  0  0  0  0
  129.5640  125.9920   67.0610 C   0  0  0  0  0  0  0  0  0  0  0  0
  129.6490  126.1170   68.3840 N   0  0  0  0  0  0  0  0  0  0  0  0
  129.2360  127.2920   68.9260 C   0  0  0  0  0  0  0  0  0  0  0  0
  129.3390  127.4000   70.4200 C   0  0  0  0  0  0  0  0  0  0  0  0
  128.2890  126.9700   71.2480 C   0  0  0  0  0  0  0  0  0  0  0  0
  128.3790  127.0670   72.6340 C   0  0  0  0  0  0  0  0  0  0  0  0
  129.5250  127.6000   73.2150 C   0  0  0  0  0  0  0  0  0  0  0  0
  130.5780  128.0380   72.4200 C   0  0  0  0  0  0  0  0  0  0  0  0
  130.4830  127.9400   71.0350 C   0  0  0  0  0  0  0  0  0  0  0  0
  128.7250  128.3290   68.1380 C   0  0  0  0  0  0  0  0  0  0  0  0
  128.6320  128.2080   66.7420 C   0  0  0  0  0  0  0  0  0  0  0  0
  128.0630  129.3840   65.9410 C   0  0  0  0  0  0  0  0  0  0  0  0
  128.6060  129.5040   64.7280 F   0  0  0  0  0  0  0  0  0  0  0  0
  126.7500  129.2210   65.7750 F   0  0  0  0  0  0  0  0  0  0  0  0
  128.2860  130.5250   66.5930 F   0  0  0  0  0  0  0  0  0  0  0  0
  129.0740  126.9850   66.1630 C   0  0  0  0  0  0  0  0  0  0  0  0
  127.8330  127.1290   63.2910 H   0  0  0  0  0  0  0  0  0  0  0  0
  129.3230  127.9900   63.3520 H   0  0  0  0  0  0  0  0  0  0  0  0
  127.8350  124.3490   63.1980 H   0  0  0  0  0  0  0  0  0  0  0  0
  127.6769  124.8365   60.2762 H   0  0  0  0  0  0  0  0  0  0  0  0
  127.8307  122.8423   58.4896 H   0  0  0  0  0  0  0  0  0  0  0  0
  127.3799  126.5493   70.7935 H   0  0  0  0  0  0  0  0  0  0  0  0
  127.5474  126.7236   73.2669 H   0  0  0  0  0  0  0  0  0  0  0  0
  129.5985  127.6754   74.3100 H   0  0  0  0  0  0  0  0  0  0  0  0
  131.4820  128.4600   72.8834 H   0  0  0  0  0  0  0  0  0  0  0  0
  131.3174  128.2911   70.4101 H   0  0  0  0  0  0  0  0  0  0  0  0
  128.3892  129.2581   68.6218 H   0  0  0  0  0  0  0  0  0  0  0  0
  1  2  1  0
  2  3  2  0
  3  4  1  0
  4  5  2  0
  4  6  1  0
  6  7  1  0
  7  8  1  0
  8  9  2  0
  9 10  1  0
 10 11  1  0
  3 12  1  0
 12 13  1  0
 13 14  2  0
 14 15  1  0
 15 16  1  0
 16 17  2  0
 17 18  1  0
 18 19  2  0
 19 20  1  0
 20 21  2  0
 15 22  2  0
 22 23  1  0
 23 24  1  0
 24 25  1  0
 24 26  1  0
 24 27  1  0
 23 28  2  0
 28  2  1  0
 11  7  2  0
 28 13  1  0
 21 16  1  0
  1 29  1  0
  1 30  1  0
  6 31  1  0
  8 32  1  0
  9 33  1  0
 17 34  1  0
 18 35  1  0
 19 36  1  0
 20 37  1  0
 21 38  1  0
 22 39  1  0
M  END
>  <Binding energies>  (1) 
[-6.7]

>  <Ligand effiencies>  (1) 
[-0.2161290322580645]

>  <Interactions>  (1) 
["V-B:PRO:540:CA:9855, V-A:GLU:543:CA:4904, H-A:GLU:543:OE2:4910, V-A:GLU:543:C:4902, V-B:GLU:543:CB:9878, V-B:TYR:539:CE2:9848, V-A:TYR:484:CE2:4346, V-B:GLU:543:CG:9879, V-A:GLY:544:C:4912, V-B:TYR:539:C:9839, V-B:TYR:484:CE2:9317, H-B:GLU:543:OE1:9881, H-B:ALA:541:N:9863, V-A:GLU:543:CD:4908, V-A:TYR:484:CZ:4347, V-B:HIS:456:CE1:9041, V-B:PRO:540:N:9856, V-A:HIS:456:CE1:4070, V-B:TYR:484:CZ:9318, V-B:TYR:539:CD2:9846, V-A:GLU:543:CG:4907, V-B:GLU:543:CD:9880, H-A:GLU:543:OE1:4909, V-A:GLU:543:CB:4906, H-B:GLU:543:OE2:9882"]

$$$$
4eb_Grossjean_2025
     RDKit          3D

 49 52  0  0  0  0  0  0  0  0999 V2000
  129.2350  131.1760   73.2870 C   0  0  0  0  0  0  0  0  0  0  0  0
  129.6020  129.8050   73.3510 O   0  0  0  0  0  0  0  0  0  0  0  0
  128.7570  128.8350   72.9160 C   0  0  0  0  0  0  0  0  0  0  0  0
  127.7330  128.5040   73.5220 O   0  0  0  0  0  0  0  0  0  0  0  0
  129.1920  128.2050   71.6240 C   0  0  0  0  0  0  0  0  0  0  0  0
  130.5340  128.2990   71.2360 C   0  0  0  0  0  0  0  0  0  0  0  0
  130.9690  127.7260   70.0440 C   0  0  0  0  0  0  0  0  0  0  0  0
  130.0730  127.0480   69.2170 C   0  0  0  0  0  0  0  0  0  0  0  0
  130.6230  126.5100   68.0380 N   0  0  0  0  0  0  0  0  0  0  0  0
  130.3490  125.3510   67.3910 C   0  0  0  0  0  0  0  0  0  0  0  0
  129.5120  124.5290   67.7640 O   0  0  0  0  0  0  0  0  0  0  0  0
  131.1310  125.1140   66.1740 C   0  0  0  0  0  0  0  0  0  0  0  0
  132.8220  125.6130   66.0890 S   0  0  0  0  0  0  0  0  0  0  0  0
  132.9670  125.0100   64.4540 C   0  0  0  0  0  0  0  0  0  0  0  0
  134.1090  125.0970   63.7690 N   0  0  0  0  0  0  0  0  0  0  0  0
  134.0900  124.5930   62.5120 C   0  0  0  0  0  0  0  0  0  0  0  0
  135.4000  124.7030   61.7510 C   0  0  0  0  0  0  0  0  0  0  0  0
  132.9690  124.0080   61.9280 C   0  0  0  0  0  0  0  0  0  0  0  0
  131.7730  123.9180   62.6500 C   0  0  0  0  0  0  0  0  0  0  0  0
  130.5890  123.2940   62.0160 C   0  0  0  0  0  0  0  0  0  0  0  0
  129.5880  124.0940   61.4560 C   0  0  0  0  0  0  0  0  0  0  0  0
  128.4750  123.5070   60.8580 C   0  0  0  0  0  0  0  0  0  0  0  0
  128.3630  122.1200   60.8230 C   0  0  0  0  0  0  0  0  0  0  0  0
  129.3540  121.3140   61.3800 C   0  0  0  0  0  0  0  0  0  0  0  0
  130.4650  121.9020   61.9780 C   0  0  0  0  0  0  0  0  0  0  0  0
  131.7520  124.4360   63.9730 C   0  0  0  0  0  0  0  0  0  0  0  0
  130.7210  124.5090   64.9750 C   0  0  0  0  0  0  0  0  0  0  0  0
  129.4550  124.0250   64.7600 N   0  0  0  0  0  0  0  0  0  0  0  0
  128.7260  126.9490   69.5970 C   0  0  0  0  0  0  0  0  0  0  0  0
  128.2930  127.5230   70.7900 C   0  0  0  0  0  0  0  0  0  0  0  0
  129.1282  131.5750   74.3065 H   0  0  0  0  0  0  0  0  0  0  0  0
  130.0139  131.7395   72.7525 H   0  0  0  0  0  0  0  0  0  0  0  0
  128.2787  131.2750   72.7525 H   0  0  0  0  0  0  0  0  0  0  0  0
  131.2512  128.8304   71.8788 H   0  0  0  0  0  0  0  0  0  0  0  0
  132.0264  127.8084   69.7523 H   0  0  0  0  0  0  0  0  0  0  0  0
  131.3350  127.0880   67.6170 H   0  0  0  0  0  0  0  0  0  0  0  0
  136.2340  124.7730   62.4649 H   0  0  0  0  0  0  0  0  0  0  0  0
  135.5325  123.8128   61.1185 H   0  0  0  0  0  0  0  0  0  0  0  0
  135.3822  125.6028   61.1185 H   0  0  0  0  0  0  0  0  0  0  0  0
  133.0233  123.6173   60.9011 H   0  0  0  0  0  0  0  0  0  0  0  0
  129.6796  125.1897   61.4877 H   0  0  0  0  0  0  0  0  0  0  0  0
  127.6887  124.1364   60.4157 H   0  0  0  0  0  0  0  0  0  0  0  0
  127.4843  121.6559   60.3514 H   0  0  0  0  0  0  0  0  0  0  0  0
  129.2588  120.2186   61.3473 H   0  0  0  0  0  0  0  0  0  0  0  0
  131.2478  121.2695   62.4220 H   0  0  0  0  0  0  0  0  0  0  0  0
  129.0340  124.0310   63.8420 H   0  0  0  0  0  0  0  0  0  0  0  0
  128.9000  123.6460   65.5150 H   0  0  0  0  0  0  0  0  0  0  0  0
  128.0110  126.4174   68.9519 H   0  0  0  0  0  0  0  0  0  0  0  0
  127.2355  127.4408   71.0813 H   0  0  0  0  0  0  0  0  0  0  0  0
  1  2  1  0
  2  3  1  0
  3  4  2  0
  3  5  1  0
  5  6  2  0
  6  7  1  0
  7  8  2  0
  8  9  1  0
  9 10  1  0
 10 11  2  0
 10 12  1  0
 12 13  1  0
 13 14  1  0
 14 15  2  0
 15 16  1  0
 16 17  1  0
 16 18  2  0
 18 19  1  0
 19 20  1  0
 20 21  2  0
 21 22  1  0
 22 23  2  0
 23 24  1  0
 24 25  2  0
 19 26  2  0
 26 27  1  0
 27 28  1  0
  8 29  1  0
 29 30  2  0
 30  5  1  0
 27 12  2  0
 26 14  1  0
 25 20  1  0
  1 31  1  0
  1 32  1  0
  1 33  1  0
  6 34  1  0
  7 35  1  0
  9 36  1  0
 17 37  1  0
 17 38  1  0
 17 39  1  0
 18 40  1  0
 21 41  1  0
 22 42  1  0
 23 43  1  0
 24 44  1  0
 25 45  1  0
 28 46  1  0
 28 47  1  0
 29 48  1  0
 30 49  1  0
M  END
>  <Binding energies>  (1) 
[-7.76]

>  <Ligand effiencies>  (1) 
[-0.23515151515151514]

>  <Interactions>  (1) 
["V-A:ASP:366:CA:3210, V-B:PRO:540:CA:9855, V-B:HIS:456:CD2:9039, H-A:GLU:543:OE2:4910, V-A:GLU:543:C:4902, V-B:GLU:543:CB:9878, V-B:ALA:541:CB:9864, H-A:ARG:545:NH1:4927, V-A:TYR:484:CE2:4346, V-A:GLY:544:C:4912, V-B:GLU:543:CG:9879, V-B:TYR:539:C:9839, V-A:ASP:366:CG:3213, H-B:GLU:543:OE1:9881, V-A:TYR:484:CZ:4347, V-A:ARG:545:CG:4922, V-B:HIS:456:CE1:9041, H-A:GLY:454:N:4050, V-A:GLY:453:C:4042, V-B:PRO:540:N:9856, V-A:HIS:456:CE1:4070, V-A:ILE:369:CD1:3239, V-B:TYR:539:CD2:9846, V-B:GLU:543:CD:9880, V-A:ARG:545:CD:4923, H-A:LYS:547:NZ:4951, H-A:ARG:545:NH2:4928, V-A:ARG:545:CZ:4926, V-A:LEU:475:CD2:4259, V-A:GLU:543:CB:4906, V-A:GLY:453:CA:4044, H-A:ARG:545:NE:4924, V-B:PRO:540:C:9853"]

$$$$
8b_Ghoteimi_2023
     RDKit          3D

 54 58  0  0  0  0  0  0  0  0999 V2000
  130.9740  126.8890   73.9030 C   0  0  0  0  0  0  0  0  0  0  0  0
  130.2710  127.9540   73.2710 O   0  0  0  0  0  0  0  0  0  0  0  0
  129.9390  127.8410   71.9340 C   0  0  0  0  0  0  0  0  0  0  0  0
  130.9560  128.0950   71.0160 C   0  0  0  0  0  0  0  0  0  0  0  0
  130.7140  128.0070   69.6490 C   0  0  0  0  0  0  0  0  0  0  0  0
  129.4440  127.6610   69.1630 C   0  0  0  0  0  0  0  0  0  0  0  0
  129.1770  127.5670   67.6940 C   0  0  0  0  0  0  0  0  0  0  0  0
  128.5500  128.6010   66.9910 C   0  0  0  0  0  0  0  0  0  0  0  0
  128.3130  128.4880   65.6180 C   0  0  0  0  0  0  0  0  0  0  0  0
  127.6370  129.5970   64.9050 C   0  0  0  0  0  0  0  0  0  0  0  0
  128.3540  130.7380   64.5410 C   0  0  0  0  0  0  0  0  0  0  0  0
  127.7200  131.7750   63.8620 C   0  0  0  0  0  0  0  0  0  0  0  0
  126.3650  131.6900   63.5410 C   0  0  0  0  0  0  0  0  0  0  0  0
  125.8210  132.7660   62.8660 O   0  0  0  0  0  0  0  0  0  0  0  0
  126.5960  133.4250   61.8700 C   0  0  0  0  0  0  0  0  0  0  0  0
  125.6460  130.5430   63.9130 C   0  0  0  0  0  0  0  0  0  0  0  0
  126.2810  129.5060   64.5910 C   0  0  0  0  0  0  0  0  0  0  0  0
  128.7330  127.3000   64.9620 C   0  0  0  0  0  0  0  0  0  0  0  0
  128.6560  126.8610   63.5930 C   0  0  0  0  0  0  0  0  0  0  0  0
  128.0940  127.6300   62.6060 N   0  0  0  0  0  0  0  0  0  0  0  0
  129.2070  125.5890   63.3730 C   0  0  0  0  0  0  0  0  0  0  0  0
  129.3030  124.8430   62.1160 C   0  0  0  0  0  0  0  0  0  0  0  0
  130.4000  124.6260   61.5950 O   0  0  0  0  0  0  0  0  0  0  0  0
  128.1210  124.4280   61.5940 N   0  0  0  0  0  0  0  0  0  0  0  0
  127.9200  123.7050   60.4260 C   0  0  0  0  0  0  0  0  0  0  0  0
  127.1900  124.1950   59.3440 C   0  0  0  0  0  0  0  0  0  0  0  0
  127.2230  123.1880   58.4060 C   0  0  0  0  0  0  0  0  0  0  0  0
  127.9380  122.1480   58.8960 O   0  0  0  0  0  0  0  0  0  0  0  0
  128.3760  122.4880   60.1770 N   0  0  0  0  0  0  0  0  0  0  0  0
  129.8410  124.9010   64.8690 S   0  0  0  0  0  0  0  0  0  0  0  0
  129.3650  126.3170   65.7770 C   0  0  0  0  0  0  0  0  0  0  0  0
  129.5900  126.4220   67.0860 N   0  0  0  0  0  0  0  0  0  0  0  0
  128.4270  127.4040   70.0920 C   0  0  0  0  0  0  0  0  0  0  0  0
  128.6660  127.4930   71.4610 C   0  0  0  0  0  0  0  0  0  0  0  0
  130.9014  126.9989   74.9951 H   0  0  0  0  0  0  0  0  0  0  0  0
  130.5322  125.9279   73.6011 H   0  0  0  0  0  0  0  0  0  0  0  0
  132.0314  126.9175   73.6011 H   0  0  0  0  0  0  0  0  0  0  0  0
  131.9592  128.3676   71.3755 H   0  0  0  0  0  0  0  0  0  0  0  0
  131.5293  128.2114   68.9394 H   0  0  0  0  0  0  0  0  0  0  0  0
  128.2403  129.5121   67.5239 H   0  0  0  0  0  0  0  0  0  0  0  0
  129.4222  130.8180   64.7912 H   0  0  0  0  0  0  0  0  0  0  0  0
  128.2927  132.6695   63.5760 H   0  0  0  0  0  0  0  0  0  0  0  0
  127.3483  134.0647   62.3545 H   0  0  0  0  0  0  0  0  0  0  0  0
  127.1010  132.6755   61.2430 H   0  0  0  0  0  0  0  0  0  0  0  0
  125.9374  134.0439   61.2430 H   0  0  0  0  0  0  0  0  0  0  0  0
  124.5766  130.4633   63.6678 H   0  0  0  0  0  0  0  0  0  0  0  0
  125.7108  128.6109   64.8804 H   0  0  0  0  0  0  0  0  0  0  0  0
  127.1330  127.5010   62.3230 H   0  0  0  0  0  0  0  0  0  0  0  0
  128.6200  128.3480   62.1280 H   0  0  0  0  0  0  0  0  0  0  0  0
  127.2860  124.6640   62.1080 H   0  0  0  0  0  0  0  0  0  0  0  0
  126.6952  125.1737   59.2584 H   0  0  0  0  0  0  0  0  0  0  0  0
  126.7447  123.2228   57.4161 H   0  0  0  0  0  0  0  0  0  0  0  0
  127.4242  127.1276   69.7343 H   0  0  0  0  0  0  0  0  0  0  0  0
  127.8532  127.2896   72.1737 H   0  0  0  0  0  0  0  0  0  0  0  0
  1  2  1  0
  2  3  1  0
  3  4  2  0
  4  5  1  0
  5  6  2  0
  6  7  1  0
  7  8  2  0
  8  9  1  0
  9 10  1  0
 10 11  2  0
 11 12  1  0
 12 13  2  0
 13 14  1  0
 14 15  1  0
 13 16  1  0
 16 17  2  0
  9 18  2  0
 18 19  1  0
 19 20  1  0
 19 21  2  0
 21 22  1  0
 22 23  2  0
 22 24  1  0
 24 25  1  0
 25 26  1  0
 26 27  2  0
 27 28  1  0
 28 29  1  0
 21 30  1  0
 30 31  1  0
 31 32  2  0
  6 33  1  0
 33 34  2  0
 34  3  1  0
 32  7  1  0
 17 10  1  0
 31 18  1  0
 29 25  2  0
  1 35  1  0
  1 36  1  0
  1 37  1  0
  4 38  1  0
  5 39  1  0
  8 40  1  0
 11 41  1  0
 12 42  1  0
 15 43  1  0
 15 44  1  0
 15 45  1  0
 16 46  1  0
 17 47  1  0
 20 48  1  0
 20 49  1  0
 24 50  1  0
 26 51  1  0
 27 52  1  0
 33 53  1  0
 34 54  1  0
M  END
>  <Binding energies>  (1) 
[-7.43]

>  <Ligand effiencies>  (1) 
[-0.2008108108108108]

>  <Interactions>  (1) 
["V-B:PRO:540:CA:9855, V-B:HIS:456:CD2:9039, V-A:GLU:543:C:4902, V-B:GLU:543:CB:9878, V-A:GLY:544:CA:4914, V-A:GLY:544:C:4912, V-B:LEU:475:CD2:9230, V-B:GLU:543:CG:9879, V-A:HIS:456:CD2:4068, H-B:GLU:543:OE1:9881, V-A:GLU:543:CD:4908, V-B:PRO:540:CB:9857, V-B:HIS:456:CE1:9041, V-B:PRO:540:N:9856, V-A:HIS:456:CE1:4070, V-A:GLU:543:CG:4907, V-B:GLU:543:CD:9880, H-A:LYS:547:NZ:4951, H-A:GLU:543:OE1:4909, V-A:GLU:543:CB:4906, H-B:GLU:543:OE2:9882"]

$$$$
9a_Ghoteimi_2023
     RDKit          3D

 85 91  0  0  0  0  0  0  0  0999 V2000
  129.2160  129.5340   56.5500 C   0  0  0  0  0  0  0  0  0  0  0  0
  128.0040  130.4720   56.5300 C   0  0  0  0  0  0  0  0  0  0  0  0
  128.3290  131.6800   57.2080 O   0  0  0  0  0  0  0  0  0  0  0  0
  129.4800  131.7970   57.9180 C   0  0  0  0  0  0  0  0  0  0  0  0
  130.3680  132.6110   57.6440 O   0  0  0  0  0  0  0  0  0  0  0  0
  129.5710  130.8340   59.0660 C   0  0  0  0  0  0  0  0  0  0  0  0
  128.4300  130.1200   59.4540 C   0  0  0  0  0  0  0  0  0  0  0  0
  128.4820  129.2210   60.5150 C   0  0  0  0  0  0  0  0  0  0  0  0
  129.6740  129.0160   61.2110 C   0  0  0  0  0  0  0  0  0  0  0  0
  129.6090  128.0850   62.2650 N   0  0  0  0  0  0  0  0  0  0  0  0
  129.1010  128.2090   63.5170 C   0  0  0  0  0  0  0  0  0  0  0  0
  128.5790  129.2350   63.9530 O   0  0  0  0  0  0  0  0  0  0  0  0
  129.2040  127.0110   64.3560 C   0  0  0  0  0  0  0  0  0  0  0  0
  128.7990  127.0880   66.0710 S   0  0  0  0  0  0  0  0  0  0  0  0
  129.1500  125.3880   66.2760 C   0  0  0  0  0  0  0  0  0  0  0  0
  129.0040  124.7820   67.4540 N   0  0  0  0  0  0  0  0  0  0  0  0
  129.2930  123.4540   67.5040 C   0  0  0  0  0  0  0  0  0  0  0  0
  129.1110  122.7930   68.8320 C   0  0  0  0  0  0  0  0  0  0  0  0
  128.2120  121.7300   68.9800 C   0  0  0  0  0  0  0  0  0  0  0  0
  128.0380  121.1070   70.2130 C   0  0  0  0  0  0  0  0  0  0  0  0
  128.7660  121.5150   71.3410 C   0  0  0  0  0  0  0  0  0  0  0  0
  128.5870  120.9120   72.5910 N   0  0  0  0  0  0  0  0  0  0  0  0
  129.5850  121.0590   73.6690 C   0  0  0  0  0  0  0  0  0  0  0  0
  129.4080  120.0510   74.8240 C   0  0  0  0  0  0  0  0  0  0  0  0
  128.0890  120.1260   75.3370 O   0  0  0  0  0  0  0  0  0  0  0  0
  127.1250  119.8210   74.3410 C   0  0  0  0  0  0  0  0  0  0  0  0
  127.2330  120.8280   73.1780 C   0  0  0  0  0  0  0  0  0  0  0  0
  129.6540  122.5900   71.1910 C   0  0  0  0  0  0  0  0  0  0  0  0
  129.8260  123.2140   69.9590 C   0  0  0  0  0  0  0  0  0  0  0  0
  129.7520  122.7480   66.3900 C   0  0  0  0  0  0  0  0  0  0  0  0
  129.9260  123.3860   65.1570 C   0  0  0  0  0  0  0  0  0  0  0  0
  130.4510  122.5960   64.0130 C   0  0  0  0  0  0  0  0  0  0  0  0
  131.8090  122.6330   63.6860 C   0  0  0  0  0  0  0  0  0  0  0  0
  132.3010  121.8830   62.6230 C   0  0  0  0  0  0  0  0  0  0  0  0
  131.4510  121.0590   61.8680 C   0  0  0  0  0  0  0  0  0  0  0  0
  131.9200  120.3050   60.7900 N   0  0  0  0  0  0  0  0  0  0  0  0
  132.8660  120.9210   59.8390 C   0  0  0  0  0  0  0  0  0  0  0  0
  133.5860  119.8920   58.9410 C   0  0  0  0  0  0  0  0  0  0  0  0
  132.6340  119.0900   58.2600 O   0  0  0  0  0  0  0  0  0  0  0  0
  131.8060  118.3760   59.1650 C   0  0  0  0  0  0  0  0  0  0  0  0
  131.0390  119.3650   60.0690 C   0  0  0  0  0  0  0  0  0  0  0  0
  130.0900  121.0270   62.2070 C   0  0  0  0  0  0  0  0  0  0  0  0
  129.5970  121.7810   63.2670 C   0  0  0  0  0  0  0  0  0  0  0  0
  129.5940  124.7680   65.0720 C   0  0  0  0  0  0  0  0  0  0  0  0
  129.5920  125.7150   63.9840 C   0  0  0  0  0  0  0  0  0  0  0  0
  129.9270  125.3650   62.7010 N   0  0  0  0  0  0  0  0  0  0  0  0
  130.8240  129.7240   60.8280 C   0  0  0  0  0  0  0  0  0  0  0  0
  130.7700  130.6240   59.7660 C   0  0  0  0  0  0  0  0  0  0  0  0
  129.4952  129.3179   57.5918 H   0  0  0  0  0  0  0  0  0  0  0  0
  128.9616  128.5952   56.0363 H   0  0  0  0  0  0  0  0  0  0  0  0
  130.0610  130.0157   56.0363 H   0  0  0  0  0  0  0  0  0  0  0  0
  127.7320  130.6977   55.4883 H   0  0  0  0  0  0  0  0  0  0  0  0
  127.1552  129.9857   57.0330 H   0  0  0  0  0  0  0  0  0  0  0  0
  127.4834  130.2714   58.9146 H   0  0  0  0  0  0  0  0  0  0  0  0
  127.5771  128.6681   60.8071 H   0  0  0  0  0  0  0  0  0  0  0  0
  130.0030  127.1830   62.0410 H   0  0  0  0  0  0  0  0  0  0  0  0
  127.6352  121.3822   68.1103 H   0  0  0  0  0  0  0  0  0  0  0  0
  127.3175  120.2808   70.3044 H   0  0  0  0  0  0  0  0  0  0  0  0
  130.5863  120.9179   73.2361 H   0  0  0  0  0  0  0  0  0  0  0  0
  129.4487  122.0632   74.0968 H   0  0  0  0  0  0  0  0  0  0  0  0
  129.5962  119.0334   74.4511 H   0  0  0  0  0  0  0  0  0  0  0  0
  130.1209  120.2931   75.6260 H   0  0  0  0  0  0  0  0  0  0  0  0
  127.3031  118.8044   73.9606 H   0  0  0  0  0  0  0  0  0  0  0  0
  126.1187  119.8832   74.7808 H   0  0  0  0  0  0  0  0  0  0  0  0
  126.5301  120.5239   72.3884 H   0  0  0  0  0  0  0  0  0  0  0  0
  126.9975  121.8210   73.5885 H   0  0  0  0  0  0  0  0  0  0  0  0
  130.2242  122.9460   72.0618 H   0  0  0  0  0  0  0  0  0  0  0  0
  130.5345  124.0506   69.8697 H   0  0  0  0  0  0  0  0  0  0  0  0
  129.9798  121.6759   66.4831 H   0  0  0  0  0  0  0  0  0  0  0  0
  132.4947  123.2605   64.2742 H   0  0  0  0  0  0  0  0  0  0  0  0
  133.3703  121.9361   62.3704 H   0  0  0  0  0  0  0  0  0  0  0  0
  132.3095  121.6177   59.1948 H   0  0  0  0  0  0  0  0  0  0  0  0
  133.6382  121.4322   60.4326 H   0  0  0  0  0  0  0  0  0  0  0  0
  134.2076  120.4230   58.2051 H   0  0  0  0  0  0  0  0  0  0  0  0
  134.2185  119.2465   59.5681 H   0  0  0  0  0  0  0  0  0  0  0  0
  131.0864  117.7671   58.5980 H   0  0  0  0  0  0  0  0  0  0  0  0
  132.4327  117.7244   59.7917 H   0  0  0  0  0  0  0  0  0  0  0  0
  130.3477  119.9467   59.4415 H   0  0  0  0  0  0  0  0  0  0  0  0
  130.5106  118.7687   60.8274 H   0  0  0  0  0  0  0  0  0  0  0  0
  129.4019  120.3958   61.6255 H   0  0  0  0  0  0  0  0  0  0  0  0
  128.5273  121.7349   63.5192 H   0  0  0  0  0  0  0  0  0  0  0  0
  130.6390  124.6750   62.5050 H   0  0  0  0  0  0  0  0  0  0  0  0
  129.4710  125.7890   61.9040 H   0  0  0  0  0  0  0  0  0  0  0  0
  131.7698  129.5678   61.3675 H   0  0  0  0  0  0  0  0  0  0  0  0
  131.6755  131.1755   59.4729 H   0  0  0  0  0  0  0  0  0  0  0  0
  1  2  1  0
  2  3  1  0
  3  4  1  0
  4  5  2  0
  4  6  1  0
  6  7  2  0
  7  8  1  0
  8  9  2  0
  9 10  1  0
 10 11  1  0
 11 12  2  0
 11 13  1  0
 13 14  1  0
 14 15  1  0
 15 16  2  0
 16 17  1  0
 17 18  1  0
 18 19  2  0
 19 20  1  0
 20 21  2  0
 21 22  1  0
 22 23  1  0
 23 24  1  0
 24 25  1  0
 25 26  1  0
 26 27  1  0
 21 28  1  0
 28 29  2  0
 17 30  2  0
 30 31  1  0
 31 32  1  0
 32 33  2  0
 33 34  1  0
 34 35  2  0
 35 36  1  0
 36 37  1  0
 37 38  1  0
 38 39  1  0
 39 40  1  0
 40 41  1  0
 35 42  1  0
 42 43  2  0
 31 44  2  0
 44 45  1  0
 45 46  1  0
  9 47  1  0
 47 48  2  0
 48  6  1  0
 45 13  2  0
 44 15  1  0
 29 18  1  0
 43 32  1  0
 27 22  1  0
 41 36  1  0
  1 49  1  0
  1 50  1  0
  1 51  1  0
  2 52  1  0
  2 53  1  0
  7 54  1  0
  8 55  1  0
 10 56  1  0
 19 57  1  0
 20 58  1  0
 23 59  1  0
 23 60  1  0
 24 61  1  0
 24 62  1  0
 26 63  1  0
 26 64  1  0
 27 65  1  0
 27 66  1  0
 28 67  1  0
 29 68  1  0
 30 69  1  0
 33 70  1  0
 34 71  1  0
 37 72  1  0
 37 73  1  0
 38 74  1  0
 38 75  1  0
 40 76  1  0
 40 77  1  0
 41 78  1  0
 41 79  1  0
 42 80  1  0
 43 81  1  0
 46 82  1  0
 46 83  1  0
 47 84  1  0
 48 85  1  0
M  END
>  <Binding energies>  (1) 
[59.37]

>  <Ligand effiencies>  (1) 
[1.1641176470588235]

>  <Interactions>  (1) 
["V-A:ILE:369:CG2:3237, V-B:GLU:543:C:9874, V-B:GLU:543:CB:9878, V-B:ALA:541:CB:9864, V-B:TYR:539:CE2:9848, V-A:TYR:484:CE2:4346, V-B:GLU:543:CG:9879, V-B:TYR:539:C:9839, V-A:HIS:456:CD2:4068, V-B:TYR:539:CB:9843, V-A:GLU:543:CD:4908, V-A:TYR:484:CZ:4347, V-A:TYR:484:CD1:4343, V-B:GLU:543:CA:9876, V-A:TYR:484:CD2:4344, V-A:HIS:456:CE1:4070, V-A:TYR:484:CG:4342, V-B:TYR:539:CD2:9846, V-B:GLY:544:CA:9886, V-A:SER:385:CB:3409, H-A:SER:385:OG:3410, V-B:GLU:543:CD:9880, V-A:MET:535:CE:4835, V-A:LEU:475:CD2:4259, H-A:GLU:543:OE1:4909, V-B:TYR:539:CG:9844, V-A:TYR:484:CB:4341, V-A:TYR:484:CE1:4345, V-B:VAL:542:C:9866, H-A:HIS:383:HE2:3395, V-A:HIS:383:CD2:3392, V-A:HIS:456:CG:4066, V-A:SER:385:CA:3407, V-A:HIS:383:NE2:3394"]

$$$$
RR11_Rahimova_2017-again1
     RDKit          3D

 56 61  0  0  0  0  0  0  0  0999 V2000
  129.2070  128.8900   71.4420 N   0  0  0  0  0  0  0  0  0  0  0  0
  129.4590  128.0880   70.3300 C   0  0  0  0  0  0  0  0  0  0  0  0
  128.4740  127.2210   69.8620 C   0  0  0  0  0  0  0  0  0  0  0  0
  128.7290  126.4180   68.7530 C   0  0  0  0  0  0  0  0  0  0  0  0
  129.9690  126.4740   68.1040 C   0  0  0  0  0  0  0  0  0  0  0  0
  130.2460  125.6020   66.9140 C   0  0  0  0  0  0  0  0  0  0  0  0
  129.5270  124.5540   66.5790 N   0  0  0  0  0  0  0  0  0  0  0  0
  130.1310  124.0430   65.4600 C   0  0  0  0  0  0  0  0  0  0  0  0
  129.7800  122.9240   64.6940 C   0  0  0  0  0  0  0  0  0  0  0  0
  130.5770  122.6020   63.5950 C   0  0  0  0  0  0  0  0  0  0  0  0
  131.7000  123.3630   63.2550 C   0  0  0  0  0  0  0  0  0  0  0  0
  132.5380  122.9640   62.0480 C   0  0  0  0  0  0  0  0  0  0  0  0
  132.4960  124.0030   60.9360 C   0  0  0  0  0  0  0  0  0  0  0  0
  132.9940  123.6790   59.6690 C   0  0  0  0  0  0  0  0  0  0  0  0
  132.9850  124.5900   58.6110 C   0  0  0  0  0  0  0  0  0  0  0  0
  132.4450  125.8520   58.8760 C   0  0  0  0  0  0  0  0  0  0  0  0
  132.2910  126.9800   58.0790 N   0  0  0  0  0  0  0  0  0  0  0  0
  131.7050  127.9920   58.8030 C   0  0  0  0  0  0  0  0  0  0  0  0
  131.3820  129.3700   58.3210 C   0  0  0  0  0  0  0  0  0  0  0  0
  132.4100  130.2930   58.0940 C   0  0  0  0  0  0  0  0  0  0  0  0
  132.1160  131.5750   57.6370 C   0  0  0  0  0  0  0  0  0  0  0  0
  130.7910  131.9400   57.4060 C   0  0  0  0  0  0  0  0  0  0  0  0
  130.4980  133.2230   56.9450 N   0  0  0  0  0  0  0  0  0  0  0  0
  129.7600  131.0290   57.6310 C   0  0  0  0  0  0  0  0  0  0  0  0
  130.0540  129.7480   58.0870 C   0  0  0  0  0  0  0  0  0  0  0  0
  131.4820  127.4900   60.0640 N   0  0  0  0  0  0  0  0  0  0  0  0
  131.9300  126.1790   60.1420 C   0  0  0  0  0  0  0  0  0  0  0  0
  131.9370  125.2610   61.1950 C   0  0  0  0  0  0  0  0  0  0  0  0
  132.0580  124.5010   63.9910 C   0  0  0  0  0  0  0  0  0  0  0  0
  131.2610  124.8130   65.0950 C   0  0  0  0  0  0  0  0  0  0  0  0
  131.2980  125.8060   66.0460 N   0  0  0  0  0  0  0  0  0  0  0  0
  130.9510  127.3520   68.5860 C   0  0  0  0  0  0  0  0  0  0  0  0
  130.6970  128.1560   69.6940 C   0  0  0  0  0  0  0  0  0  0  0  0
  129.1830  129.8940   71.3350 H   0  0  0  0  0  0  0  0  0  0  0  0
  129.0910  128.4600   72.3490 H   0  0  0  0  0  0  0  0  0  0  0  0
  127.4980  127.1708   70.3668 H   0  0  0  0  0  0  0  0  0  0  0  0
  127.9504  125.7343   68.3838 H   0  0  0  0  0  0  0  0  0  0  0  0
  128.9003  122.3159   64.9518 H   0  0  0  0  0  0  0  0  0  0  0  0
  130.3155  121.7278   62.9807 H   0  0  0  0  0  0  0  0  0  0  0  0
  133.5817  122.8356   62.3708 H   0  0  0  0  0  0  0  0  0  0  0  0
  132.1193  122.0294   61.6463 H   0  0  0  0  0  0  0  0  0  0  0  0
  133.4063  122.6731   59.5010 H   0  0  0  0  0  0  0  0  0  0  0  0
  133.3826  124.3281   57.6194 H   0  0  0  0  0  0  0  0  0  0  0  0
  132.5590  127.0900   57.1120 H   0  0  0  0  0  0  0  0  0  0  0  0
  133.4553  130.0039   58.2776 H   0  0  0  0  0  0  0  0  0  0  0  0
  132.9266  132.2970   57.4590 H   0  0  0  0  0  0  0  0  0  0  0  0
  131.1690  133.9660   57.0800 H   0  0  0  0  0  0  0  0  0  0  0  0
  129.6070  133.4020   56.5050 H   0  0  0  0  0  0  0  0  0  0  0  0
  128.7158  131.3226   57.4483 H   0  0  0  0  0  0  0  0  0  0  0  0
  129.2403  129.0293   58.2644 H   0  0  0  0  0  0  0  0  0  0  0  0
  131.0570  128.0390   60.7960 H   0  0  0  0  0  0  0  0  0  0  0  0
  131.5227  125.5144   62.1820 H   0  0  0  0  0  0  0  0  0  0  0  0
  132.9247  125.1185   63.7127 H   0  0  0  0  0  0  0  0  0  0  0  0
  131.9590  126.5630   66.1430 H   0  0  0  0  0  0  0  0  0  0  0  0
  131.9288  127.4057   68.0850 H   0  0  0  0  0  0  0  0  0  0  0  0
  131.4714  128.8429   70.0662 H   0  0  0  0  0  0  0  0  0  0  0  0
  1  2  1  0
  2  3  2  0
  3  4  1  0
  4  5  2  0
  5  6  1  0
  6  7  2  0
  7  8  1  0
  8  9  2  0
  9 10  1  0
 10 11  2  0
 11 12  1  0
 12 13  1  0
 13 14  2  0
 14 15  1  0
 15 16  2  0
 16 17  1  0
 17 18  1  0
 18 19  1  0
 19 20  2  0
 20 21  1  0
 21 22  2  0
 22 23  1  0
 22 24  1  0
 24 25  2  0
 18 26  2  0
 26 27  1  0
 27 28  2  0
 11 29  1  0
 29 30  2  0
 30 31  1  0
  5 32  1  0
 32 33  2  0
 33  2  1  0
 31  6  1  0
 30  8  1  0
 28 13  1  0
 27 16  1  0
 25 19  1  0
  1 34  1  0
  1 35  1  0
  3 36  1  0
  4 37  1  0
  9 38  1  0
 10 39  1  0
 12 40  1  0
 12 41  1  0
 14 42  1  0
 15 43  1  0
 17 44  1  0
 20 45  1  0
 21 46  1  0
 23 47  1  0
 23 48  1  0
 24 49  1  0
 25 50  1  0
 26 51  1  0
 28 52  1  0
 29 53  1  0
 31 54  1  0
 32 55  1  0
 33 56  1  0
M  CHG  1  26   1
M  END
>  <Binding energies>  (1) 
[-9.26]

>  <Ligand effiencies>  (1) 
[-0.23149999999999998]

>  <Interactions>  (1) 
["V-A:ILE:369:CG2:3237, V-A:ASP:366:CA:3210, V-A:ILE:538:C:4858, V-A:GLU:543:CA:4904, V-B:GLU:543:C:9874, H-A:GLU:543:OE2:4910, V-A:GLU:543:C:4902, V-B:HIS:456:CD2:9039, V-B:GLU:543:CB:9878, V-A:ILE:538:CB:4862, V-B:ALA:541:CB:9864, H-A:TYR:531:OH:4795, V-A:TYR:484:CE2:4346, V-B:TYR:539:CE2:9848, V-A:GLY:544:C:4912, V-B:GLU:543:CG:9879, V-A:ASP:366:CG:3213, V-A:LEU:363:CD1:3189, V-B:TYR:539:CZ:9849, V-A:ILE:538:CA:4860, V-A:TYR:531:CE2:4793, V-A:TYR:539:CA:4869, V-A:GLU:543:CD:4908, V-A:TYR:484:CZ:4347, V-B:HIS:456:CE1:9041, V-B:GLU:543:CA:9876, V-A:ARG:545:CG:4922, V-A:HIS:456:CE1:4070, H-B:HIS:456:NE2:9042, V-A:TYR:531:CZ:4794, V-A:TYR:539:C:4867, V-A:ASP:366:CB:3212, V-A:LEU:475:CD2:4259, H-A:GLU:543:OE1:4909, H-A:ASP:366:O:3209, V-A:GLU:543:CB:4906, V-A:PRO:540:N:4884, V-A:PRO:540:CB:4885, V-A:PRO:540:CA:4883, H-A:ASP:366:OD2:3215, V-A:PRO:540:CD:4887, H-A:TYR:484:OH:4348, H-A:GLU:543:O:4903"]

$$$$
RR11_Rahimova_2017-again2
     RDKit          3D

 57 62  0  0  0  0  0  0  0  0999 V2000
  129.1100  128.9500   71.5140 N   0  0  0  0  0  0  0  0  0  0  0  0
  129.4070  128.1410   70.4180 C   0  0  0  0  0  0  0  0  0  0  0  0
  130.6900  128.1510   69.8760 C   0  0  0  0  0  0  0  0  0  0  0  0
  130.9840  127.3470   68.7770 C   0  0  0  0  0  0  0  0  0  0  0  0
  129.9970  126.5280   68.2160 C   0  0  0  0  0  0  0  0  0  0  0  0
  130.3090  125.6730   67.0310 C   0  0  0  0  0  0  0  0  0  0  0  0
  131.3710  125.8190   66.1670 N   0  0  0  0  0  0  0  0  0  0  0  0
  131.3390  124.8220   65.2010 C   0  0  0  0  0  0  0  0  0  0  0  0
  132.1890  124.5410   64.1280 C   0  0  0  0  0  0  0  0  0  0  0  0
  131.8730  123.4250   63.3440 C   0  0  0  0  0  0  0  0  0  0  0  0
  132.7650  123.0650   62.1630 C   0  0  0  0  0  0  0  0  0  0  0  0
  132.6520  124.0580   61.0150 C   0  0  0  0  0  0  0  0  0  0  0  0
  133.0840  123.6860   59.7360 C   0  0  0  0  0  0  0  0  0  0  0  0
  133.0070  124.5540   58.6440 C   0  0  0  0  0  0  0  0  0  0  0  0
  132.4690  125.8200   58.8870 C   0  0  0  0  0  0  0  0  0  0  0  0
  132.2580  126.9100   58.0530 N   0  0  0  0  0  0  0  0  0  0  0  0
  131.6990  127.9470   58.7630 C   0  0  0  0  0  0  0  0  0  0  0  0
  131.3340  129.2990   58.2400 C   0  0  0  0  0  0  0  0  0  0  0  0
  132.2710  130.3380   58.2540 C   0  0  0  0  0  0  0  0  0  0  0  0
  131.9360  131.5940   57.7570 C   0  0  0  0  0  0  0  0  0  0  0  0
  130.6600  131.8180   57.2430 C   0  0  0  0  0  0  0  0  0  0  0  0
  130.3250  133.0740   56.7400 N   0  0  0  0  0  0  0  0  0  0  0  0
  129.7170  130.7910   57.2280 C   0  0  0  0  0  0  0  0  0  0  0  0
  130.0540  129.5350   57.7240 C   0  0  0  0  0  0  0  0  0  0  0  0
  131.5500  127.4970   60.0540 N   0  0  0  0  0  0  0  0  0  0  0  0
  132.0190  126.1950   60.1640 C   0  0  0  0  0  0  0  0  0  0  0  0
  132.0940  125.3210   61.2520 C   0  0  0  0  0  0  0  0  0  0  0  0
  130.7390  122.6490   63.6120 C   0  0  0  0  0  0  0  0  0  0  0  0
  129.8820  122.9290   64.6790 C   0  0  0  0  0  0  0  0  0  0  0  0
  130.2100  124.0320   65.4720 C   0  0  0  0  0  0  0  0  0  0  0  0
  129.6010  124.5770   66.5950 N   0  0  0  0  0  0  0  0  0  0  0  0
  128.7110  126.5230   68.7720 C   0  0  0  0  0  0  0  0  0  0  0  0
  128.4170  127.3270   69.8700 C   0  0  0  0  0  0  0  0  0  0  0  0
  129.1050  129.9540   71.4040 H   0  0  0  0  0  0  0  0  0  0  0  0
  128.9680  128.5280   72.4210 H   0  0  0  0  0  0  0  0  0  0  0  0
  131.4690  128.7920   70.3145 H   0  0  0  0  0  0  0  0  0  0  0  0
  131.9968  127.3557   68.3479 H   0  0  0  0  0  0  0  0  0  0  0  0
  132.0510  126.5570   66.2680 H   0  0  0  0  0  0  0  0  0  0  0  0
  133.0661  125.1679   63.9094 H   0  0  0  0  0  0  0  0  0  0  0  0
  133.8099  123.0415   62.5060 H   0  0  0  0  0  0  0  0  0  0  0  0
  132.4372  122.0847   61.7868 H   0  0  0  0  0  0  0  0  0  0  0  0
  133.4974  122.6777   59.5862 H   0  0  0  0  0  0  0  0  0  0  0  0
  133.3526  124.2555   57.6433 H   0  0  0  0  0  0  0  0  0  0  0  0
  132.4710  126.9820   57.0690 H   0  0  0  0  0  0  0  0  0  0  0  0
  133.2779  130.1611   58.6600 H   0  0  0  0  0  0  0  0  0  0  0  0
  132.6762  132.4076   57.7698 H   0  0  0  0  0  0  0  0  0  0  0  0
  131.0340  133.7890   56.6720 H   0  0  0  0  0  0  0  0  0  0  0  0
  129.3630  133.2760   56.5110 H   0  0  0  0  0  0  0  0  0  0  0  0
  128.7097  130.9729   56.8253 H   0  0  0  0  0  0  0  0  0  0  0  0
  129.3111  128.7238   57.7106 H   0  0  0  0  0  0  0  0  0  0  0  0
  131.1580  128.0730   60.7860 H   0  0  0  0  0  0  0  0  0  0  0  0
  131.7314  125.6116   62.2490 H   0  0  0  0  0  0  0  0  0  0  0  0
  130.5156  121.7908   62.9611 H   0  0  0  0  0  0  0  0  0  0  0  0
  128.9943  122.3128   64.8845 H   0  0  0  0  0  0  0  0  0  0  0  0
  128.7670  124.2530   67.0610 H   0  0  0  0  0  0  0  0  0  0  0  0
  127.9299  125.8808   68.3390 H   0  0  0  0  0  0  0  0  0  0  0  0
  127.4062  127.3199   70.3039 H   0  0  0  0  0  0  0  0  0  0  0  0
  1  2  1  0
  2  3  2  0
  3  4  1  0
  4  5  2  0
  5  6  1  0
  6  7  1  0
  7  8  1  0
  8  9  2  0
  9 10  1  0
 10 11  1  0
 11 12  1  0
 12 13  2  0
 13 14  1  0
 14 15  2  0
 15 16  1  0
 16 17  1  0
 17 18  1  0
 18 19  2  0
 19 20  1  0
 20 21  2  0
 21 22  1  0
 21 23  1  0
 23 24  2  0
 17 25  2  0
 25 26  1  0
 26 27  2  0
 10 28  2  0
 28 29  1  0
 29 30  2  0
 30 31  1  0
  5 32  1  0
 32 33  2  0
 33  2  1  0
 31  6  2  0
 30  8  1  0
 27 12  1  0
 26 15  1  0
 24 18  1  0
  1 34  1  0
  1 35  1  0
  3 36  1  0
  4 37  1  0
  7 38  1  0
  9 39  1  0
 11 40  1  0
 11 41  1  0
 13 42  1  0
 14 43  1  0
 16 44  1  0
 19 45  1  0
 20 46  1  0
 22 47  1  0
 22 48  1  0
 23 49  1  0
 24 50  1  0
 25 51  1  0
 27 52  1  0
 28 53  1  0
 29 54  1  0
 31 55  1  0
 32 56  1  0
 33 57  1  0
M  CHG  2  25   1  31   1
M  END
>  <Binding energies>  (1) 
[-9.74]

>  <Ligand effiencies>  (1) 
[-0.23756097560975611]

>  <Interactions>  (1) 
["V-A:ILE:369:CG2:3237, V-A:ASP:366:CA:3210, V-A:ILE:538:C:4858, V-A:GLU:543:CA:4904, V-B:GLU:543:C:9874, H-A:GLU:543:OE2:4910, H-B:GLU:543:O:9875, V-A:GLU:543:C:4902, V-B:HIS:456:CD2:9039, V-B:GLU:543:CB:9878, V-A:ILE:538:CB:4862, V-B:ALA:541:CB:9864, H-A:TYR:531:OH:4795, V-A:TYR:484:CE2:4346, V-B:TYR:539:CE2:9848, V-B:GLU:543:CG:9879, V-A:GLY:544:C:4912, V-A:ASP:366:CG:3213, V-A:LEU:363:CD1:3189, V-B:TYR:539:CZ:9849, V-A:ILE:538:CA:4860, H-B:TYR:539:OH:9850, V-A:GLU:543:CD:4908, V-A:TYR:484:CZ:4347, V-B:HIS:456:CE1:9041, V-B:GLU:543:CA:9876, V-A:ARG:545:CG:4922, V-A:HIS:456:CE1:4070, H-B:HIS:456:NE2:9042, V-A:TYR:531:CZ:4794, V-B:GLU:543:CD:9880, V-A:MET:535:CE:4835, V-A:ASP:366:CB:3212, V-A:LEU:475:CD2:4259, H-A:GLU:543:OE1:4909, V-A:GLU:543:CB:4906, V-A:PRO:540:N:4884, V-A:PRO:540:CB:4885, H-A:ASP:366:OD2:3215, H-A:GLU:543:O:4903"]

$$$$
RR12_Rahimova_2017
     RDKit          3D

 51 53  0  0  0  0  0  0  0  0999 V2000
  129.8660  120.6890   61.6150 C   0  0  0  0  0  0  0  0  0  0  0  0
  129.4420  122.0530   61.0530 C   0  0  0  0  0  0  0  0  0  0  0  0
  129.4660  123.1650   62.1170 C   0  0  0  0  0  0  0  0  0  0  0  0
  130.8400  123.5030   62.4820 N   0  0  0  0  0  0  0  0  0  0  0  0
  131.3790  123.5800   63.7570 C   0  0  0  0  0  0  0  0  0  0  0  0
  130.5800  123.3620   65.0300 C   0  0  0  0  0  0  0  0  0  0  0  0
  130.0670  124.6820   65.6350 C   0  0  0  0  0  0  0  0  0  0  0  0
  130.2210  124.7350   67.1670 C   0  0  0  0  0  0  0  0  0  0  0  0
  129.1940  125.5330   67.8360 N   0  0  0  0  0  0  0  0  0  0  0  0
  128.7410  126.7240   67.4070 C   0  0  0  0  0  0  0  0  0  0  0  0
  129.1570  127.2780   66.3870 O   0  0  0  0  0  0  0  0  0  0  0  0
  127.6510  127.3710   68.2730 C   0  0  0  0  0  0  0  0  0  0  0  0
  127.6070  126.7230   69.5450 O   0  0  0  0  0  0  0  0  0  0  0  0
  128.5150  127.0870   70.5220 C   0  0  0  0  0  0  0  0  0  0  0  0
  128.1870  126.7390   71.8340 C   0  0  0  0  0  0  0  0  0  0  0  0
  129.0410  127.0590   72.8850 C   0  0  0  0  0  0  0  0  0  0  0  0
  130.2320  127.7310   72.6250 C   0  0  0  0  0  0  0  0  0  0  0  0
  130.5740  128.0880   71.3220 C   0  0  0  0  0  0  0  0  0  0  0  0
  129.7180  127.7670   70.2710 C   0  0  0  0  0  0  0  0  0  0  0  0
  132.6540  123.8810   63.7640 N   0  0  0  0  0  0  0  0  0  0  0  0
  132.9980  123.9850   62.4450 C   0  0  0  0  0  0  0  0  0  0  0  0
  134.2480  124.2770   61.8790 C   0  0  0  0  0  0  0  0  0  0  0  0
  134.3460  124.3210   60.4880 C   0  0  0  0  0  0  0  0  0  0  0  0
  133.2360  124.0810   59.6760 C   0  0  0  0  0  0  0  0  0  0  0  0
  131.9790  123.7900   60.2090 C   0  0  0  0  0  0  0  0  0  0  0  0
  131.8810  123.7470   61.6060 C   0  0  0  0  0  0  0  0  0  0  0  0
  129.8546  120.7258   62.7143 H   0  0  0  0  0  0  0  0  0  0  0  0
  129.1660  119.9153   61.2667 H   0  0  0  0  0  0  0  0  0  0  0  0
  130.8813  120.4485   61.2667 H   0  0  0  0  0  0  0  0  0  0  0  0
  130.1300  122.3284   60.2401 H   0  0  0  0  0  0  0  0  0  0  0  0
  128.4067  121.9580   60.6937 H   0  0  0  0  0  0  0  0  0  0  0  0
  128.9689  124.0601   61.7148 H   0  0  0  0  0  0  0  0  0  0  0  0
  128.9404  122.8064   63.0143 H   0  0  0  0  0  0  0  0  0  0  0  0
  129.7169  122.7201   64.7997 H   0  0  0  0  0  0  0  0  0  0  0  0
  131.2468  122.8919   65.7679 H   0  0  0  0  0  0  0  0  0  0  0  0
  130.6356  125.5147   65.1954 H   0  0  0  0  0  0  0  0  0  0  0  0
  128.9935  124.7563   65.4068 H   0  0  0  0  0  0  0  0  0  0  0  0
  130.1703  123.7075   67.5565 H   0  0  0  0  0  0  0  0  0  0  0  0
  131.1876  125.2169   67.3755 H   0  0  0  0  0  0  0  0  0  0  0  0
  128.8030  125.1400   68.6810 H   0  0  0  0  0  0  0  0  0  0  0  0
  127.8788  128.4380   68.4127 H   0  0  0  0  0  0  0  0  0  0  0  0
  126.6761  127.2667   67.7742 H   0  0  0  0  0  0  0  0  0  0  0  0
  127.2458  126.2076   72.0383 H   0  0  0  0  0  0  0  0  0  0  0  0
  128.7762  126.7823   73.9162 H   0  0  0  0  0  0  0  0  0  0  0  0
  130.9088  127.9823   73.4549 H   0  0  0  0  0  0  0  0  0  0  0  0
  131.5158  128.6209   71.1244 H   0  0  0  0  0  0  0  0  0  0  0  0
  129.9850  128.0470   69.2413 H   0  0  0  0  0  0  0  0  0  0  0  0
  135.1261  124.4659   62.5140 H   0  0  0  0  0  0  0  0  0  0  0  0
  135.3161  124.5491   60.0223 H   0  0  0  0  0  0  0  0  0  0  0  0
  133.3555  124.1224   58.5833 H   0  0  0  0  0  0  0  0  0  0  0  0
  131.1079  123.6035   59.5637 H   0  0  0  0  0  0  0  0  0  0  0  0
  1  2  1  0
  2  3  1  0
  3  4  1  0
  4  5  1  0
  5  6  1  0
  6  7  1  0
  7  8  1  0
  8  9  1  0
  9 10  1  0
 10 11  2  0
 10 12  1  0
 12 13  1  0
 13 14  1  0
 14 15  2  0
 15 16  1  0
 16 17  2  0
 17 18  1  0
 18 19  2  0
  5 20  2  0
 20 21  1  0
 21 22  2  0
 22 23  1  0
 23 24  2  0
 24 25  1  0
 25 26  2  0
 26  4  1  0
 19 14  1  0
 26 21  1  0
  1 27  1  0
  1 28  1  0
  1 29  1  0
  2 30  1  0
  2 31  1  0
  3 32  1  0
  3 33  1  0
  6 34  1  0
  6 35  1  0
  7 36  1  0
  7 37  1  0
  8 38  1  0
  8 39  1  0
  9 40  1  0
 12 41  1  0
 12 42  1  0
 15 43  1  0
 16 44  1  0
 17 45  1  0
 18 46  1  0
 19 47  1  0
 22 48  1  0
 23 49  1  0
 24 50  1  0
 25 51  1  0
M  END
>  <Binding energies>  (1) 
[-5.78]

>  <Ligand effiencies>  (1) 
[-0.21407407407407408]

>  <Interactions>  (1) 
["V-A:ILE:369:CG2:3237, V-A:ASP:366:CA:3210, V-B:GLU:543:C:9874, V-A:ILE:369:CB:3236, H-B:GLU:543:O:9875, V-A:GLU:543:C:4902, V-B:GLU:543:CB:9878, V-B:ALA:541:CB:9864, V-B:TYR:539:CE2:9848, V-A:TYR:484:CE2:4346, V-B:GLU:543:CG:9879, V-A:GLY:544:C:4912, V-A:ASP:366:CG:3213, V-A:TYR:484:CZ:4347, V-B:HIS:456:CE1:9041, V-B:GLU:543:CA:9876, V-A:HIS:456:CE1:4070, V-A:ILE:369:CD1:3239, V-B:TYR:539:CD2:9846, V-B:GLU:543:CD:9880, V-A:ASP:366:CB:3212, V-A:LEU:475:CD2:4259, H-A:HIS:456:NE2:4071, H-A:TYR:484:OH:4348"]

$$$$
RR15_Rahimova_2017
     RDKit          3D

 85 89  0  0  0  0  0  0  0  0999 V2000
  126.7780  128.4380   74.1270 C   0  0  0  0  0  0  0  0  0  0  0  0
  128.0940  128.1300   73.6810 O   0  0  0  0  0  0  0  0  0  0  0  0
  128.2950  127.7330   72.3700 C   0  0  0  0  0  0  0  0  0  0  0  0
  127.2570  127.3470   71.5070 C   0  0  0  0  0  0  0  0  0  0  0  0
  127.5280  126.9560   70.1980 C   0  0  0  0  0  0  0  0  0  0  0  0
  128.8400  126.9360   69.7140 C   0  0  0  0  0  0  0  0  0  0  0  0
  129.1330  126.5070   68.3030 C   0  0  0  0  0  0  0  0  0  0  0  0
  129.8580  125.4360   68.0110 N   0  0  0  0  0  0  0  0  0  0  0  0
  129.9130  125.3760   66.6340 N   0  0  0  0  0  0  0  0  0  0  0  0
  129.1680  126.4120   66.2440 N   0  0  0  0  0  0  0  0  0  0  0  0
  129.0860  126.8230   64.8440 C   0  0  0  0  0  0  0  0  0  0  0  0
  130.2450  126.3170   63.9490 C   0  0  0  0  0  0  0  0  0  0  0  0
  131.2860  125.9470   64.4980 O   0  0  0  0  0  0  0  0  0  0  0  0
  130.0800  126.2620   62.5920 N   0  0  0  0  0  0  0  0  0  0  0  0
  128.9870  125.4770   61.9830 C   0  0  0  0  0  0  0  0  0  0  0  0
  129.4140  124.0590   61.5470 C   0  0  0  0  0  0  0  0  0  0  0  0
  130.3100  123.3100   62.5610 C   0  0  0  0  0  0  0  0  0  0  0  0
  131.5850  122.8550   61.9980 N   0  0  0  0  0  0  0  0  0  0  0  0
  132.6270  122.6260   63.0110 C   0  0  0  0  0  0  0  0  0  0  0  0
  133.9180  122.0670   62.3770 C   0  0  0  0  0  0  0  0  0  0  0  0
  133.6290  120.8930   61.6260 O   0  0  0  0  0  0  0  0  0  0  0  0
  132.6980  121.1350   60.5770 C   0  0  0  0  0  0  0  0  0  0  0  0
  131.3710  121.6660   61.1630 C   0  0  0  0  0  0  0  0  0  0  0  0
  130.8420  127.1220   61.6350 C   0  0  2  0  0  0  0  0  0  0  0  0
  130.0120  128.3010   61.0390 C   0  0  0  0  0  0  0  0  0  0  0  0
  129.1600  128.1050   60.1730 O   0  0  0  0  0  0  0  0  0  0  0  0
  130.2650  129.5140   61.5630 N   0  0  0  0  0  0  0  0  0  0  0  0
  129.5460  130.7400   61.2390 C   0  0  0  0  0  0  0  0  0  0  0  0
  130.5050  131.9410   61.1490 C   0  0  2  0  0  0  0  0  0  0  0  0
  131.4620  131.9330   59.9440 C   0  0  0  0  0  0  0  0  0  0  0  0
  132.7800  131.4640   60.5100 C   0  0  0  0  0  0  0  0  0  0  0  0
  132.7320  132.0550   61.9090 C   0  0  0  0  0  0  0  0  0  0  0  0
  131.3750  131.8430   62.2850 O   0  0  0  0  0  0  0  0  0  0  0  0
  131.6420  126.2640   60.6610 C   0  0  0  0  0  0  0  0  0  0  0  0
  132.6870  125.4860   61.1730 C   0  0  0  0  0  0  0  0  0  0  0  0
  133.4520  124.6840   60.3310 C   0  0  0  0  0  0  0  0  0  0  0  0
  133.1750  124.6540   58.9670 C   0  0  0  0  0  0  0  0  0  0  0  0
  133.9180  123.8740   58.1490 F   0  0  0  0  0  0  0  0  0  0  0  0
  132.1390  125.4200   58.4400 C   0  0  0  0  0  0  0  0  0  0  0  0
  131.3760  126.2220   59.2830 C   0  0  0  0  0  0  0  0  0  0  0  0
  128.6970  127.1650   67.2450 N   0  0  0  0  0  0  0  0  0  0  0  0
  129.8730  127.3240   70.5770 C   0  0  0  0  0  0  0  0  0  0  0  0
  129.6160  127.7250   71.8990 C   0  0  0  0  0  0  0  0  0  0  0  0
  130.6010  128.1200   72.7870 O   0  0  0  0  0  0  0  0  0  0  0  0
  131.3020  127.1370   73.5420 C   0  0  0  0  0  0  0  0  0  0  0  0
  126.7554  128.4433   75.2268 H   0  0  0  0  0  0  0  0  0  0  0  0
  126.4854  129.4289   73.7495 H   0  0  0  0  0  0  0  0  0  0  0  0
  126.0761  127.6799   73.7495 H   0  0  0  0  0  0  0  0  0  0  0  0
  126.2182  127.3535   71.8687 H   0  0  0  0  0  0  0  0  0  0  0  0
  126.7003  126.6594   69.5370 H   0  0  0  0  0  0  0  0  0  0  0  0
  128.1416  126.4401   64.4298 H   0  0  0  0  0  0  0  0  0  0  0  0
  129.1484  127.9212   64.8397 H   0  0  0  0  0  0  0  0  0  0  0  0
  128.1736  125.3849   62.7178 H   0  0  0  0  0  0  0  0  0  0  0  0
  128.6717  126.0126   61.0754 H   0  0  0  0  0  0  0  0  0  0  0  0
  128.5042  123.4616   61.3880 H   0  0  0  0  0  0  0  0  0  0  0  0
  130.0165  124.1841   60.6352 H   0  0  0  0  0  0  0  0  0  0  0  0
  130.5234  123.9865   63.4017 H   0  0  0  0  0  0  0  0  0  0  0  0
  129.7584  122.4114   62.8746 H   0  0  0  0  0  0  0  0  0  0  0  0
  132.8571  123.5794   63.5091 H   0  0  0  0  0  0  0  0  0  0  0  0
  132.2496  121.8879   63.7340 H   0  0  0  0  0  0  0  0  0  0  0  0
  134.3538  122.8262   61.7109 H   0  0  0  0  0  0  0  0  0  0  0  0
  134.6303  121.8151   63.1765 H   0  0  0  0  0  0  0  0  0  0  0  0
  133.1150  121.8808   59.8843 H   0  0  0  0  0  0  0  0  0  0  0  0
  132.5057  120.1946   60.0397 H   0  0  0  0  0  0  0  0  0  0  0  0
  130.6952  121.9280   60.3356 H   0  0  0  0  0  0  0  0  0  0  0  0
  130.9339  120.8776   61.7934 H   0  0  0  0  0  0  0  0  0  0  0  0
  131.6030  127.6846   62.1957 H   0  0  0  0  0  0  0  0  0  0  0  0
  130.9600  129.5870   62.2920 H   0  0  0  0  0  0  0  0  0  0  0  0
  129.0382  130.6131   60.2715 H   0  0  0  0  0  0  0  0  0  0  0  0
  128.8156  130.9367   62.0377 H   0  0  0  0  0  0  0  0  0  0  0  0
  129.8698  132.8363   61.0783 H   0  0  0  0  0  0  0  0  0  0  0  0
  131.1039  131.2406   59.1679 H   0  0  0  0  0  0  0  0  0  0  0  0
  131.5403  132.9206   59.4660 H   0  0  0  0  0  0  0  0  0  0  0  0
  132.8377  130.3659   60.5388 H   0  0  0  0  0  0  0  0  0  0  0  0
  133.6572  131.7712   59.9216 H   0  0  0  0  0  0  0  0  0  0  0  0
  133.4196  131.5284   62.5871 H   0  0  0  0  0  0  0  0  0  0  0  0
  133.0395  133.1103   61.9507 H   0  0  0  0  0  0  0  0  0  0  0  0
  132.9057  125.5086   62.2508 H   0  0  0  0  0  0  0  0  0  0  0  0
  134.2720  124.0765   60.7416 H   0  0  0  0  0  0  0  0  0  0  0  0
  131.9244  125.3914   57.3615 H   0  0  0  0  0  0  0  0  0  0  0  0
  130.5579  126.8280   58.8665 H   0  0  0  0  0  0  0  0  0  0  0  0
  130.9103  127.3145   70.2110 H   0  0  0  0  0  0  0  0  0  0  0  0
  131.1632  127.3316   74.6157 H   0  0  0  0  0  0  0  0  0  0  0  0
  130.9109  126.1386   73.2968 H   0  0  0  0  0  0  0  0  0  0  0  0
  132.3734  127.1815   73.2968 H   0  0  0  0  0  0  0  0  0  0  0  0
  1  2  1  0
  2  3  1  0
  3  4  2  0
  4  5  1  0
  5  6  2  0
  6  7  1  0
  7  8  1  0
  8  9  2  0
  9 10  1  0
 10 11  1  0
 11 12  1  0
 12 13  2  0
 12 14  1  0
 14 15  1  0
 15 16  1  0
 16 17  1  0
 17 18  1  0
 18 19  1  0
 19 20  1  0
 20 21  1  0
 21 22  1  0
 22 23  1  0
 14 24  1  0
 24 25  1  0
 25 26  2  0
 25 27  1  0
 27 28  1  0
 28 29  1  0
 29 30  1  0
 30 31  1  0
 31 32  1  0
 32 33  1  0
 24 34  1  0
 34 35  2  0
 35 36  1  0
 36 37  2  0
 37 38  1  0
 37 39  1  0
 39 40  2  0
 10 41  1  0
  6 42  1  0
 42 43  2  0
 43 44  1  0
 44 45  1  0
 43  3  1  0
 41  7  2  0
 23 18  1  0
 33 29  1  0
 40 34  1  0
  1 46  1  0
  1 47  1  0
  1 48  1  0
  4 49  1  0
  5 50  1  0
 11 51  1  0
 11 52  1  0
 15 53  1  0
 15 54  1  0
 16 55  1  0
 16 56  1  0
 17 57  1  0
 17 58  1  0
 19 59  1  0
 19 60  1  0
 20 61  1  0
 20 62  1  0
 22 63  1  0
 22 64  1  0
 23 65  1  0
 23 66  1  0
 24 67  1  1
 27 68  1  0
 28 69  1  0
 28 70  1  0
 29 71  1  1
 30 72  1  0
 30 73  1  0
 31 74  1  0
 31 75  1  0
 32 76  1  0
 32 77  1  0
 35 78  1  0
 36 79  1  0
 39 80  1  0
 40 81  1  0
 42 82  1  0
 45 83  1  0
 45 84  1  0
 45 85  1  0
M  END
>  <Binding energies>  (1) 
[-8.58]

>  <Ligand effiencies>  (1) 
[-0.1865217391304348]

>  <Interactions>  (1) 
["V-A:ILE:369:CG2:3237, V-A:ASP:366:CA:3210, V-A:GLY:454:CA:4049, V-B:GLU:543:C:9874, V-A:ILE:369:CB:3236, V-B:HIS:456:CD2:9039, H-A:ALA:541:N:4891, V-A:PRO:540:C:4881, H-B:LYS:547:NZ:9923, V-B:GLU:543:CB:9878, V-B:HIS:456:CB:9036, V-B:TYR:539:CE2:9848, V-B:GLU:543:CG:9879, V-A:ASP:366:CG:3213, V-A:ASN:362:CB:3176, V-A:HIS:456:CD2:4068, V-B:TYR:539:CZ:9849, V-A:GLU:543:CD:4908, V-B:HIS:456:CE1:9041, V-A:ILE:369:CD1:3239, V-A:HIS:456:CE1:4070, V-A:ASP:366:C:3208, V-B:GLY:544:C:9884, V-B:TYR:539:CD2:9846, H-A:SER:385:OG:3410, V-B:GLU:543:CD:9880, V-B:HIS:456:CG:9037, V-A:ASP:366:CB:3212, H-A:LYS:547:NZ:4951, H-A:ARG:545:NH2:4928, V-A:LEU:475:CD2:4259, H-A:GLU:543:OE1:4909, V-A:HIS:456:CG:4066, V-A:PRO:540:CB:4885, V-A:PRO:540:CA:4883, H-A:ASP:366:OD2:3215"]

$$$$
RR19_Rahimova_2017-again1
     RDKit          3D

 71 76  0  0  0  0  0  0  0  0999 V2000
  127.9810  128.4330   66.6900 O   0  0  0  0  0  0  0  0  0  0  0  0
  128.7830  127.5990   66.2610 C   0  0  0  0  0  0  0  0  0  0  0  0
  128.9450  127.2500   64.9630 N   0  0  0  0  0  0  0  0  0  0  0  0
  128.4430  127.7550   63.7960 C   0  0  0  0  0  0  0  0  0  0  0  0
  127.3090  128.9680   63.5380 S   0  0  0  0  0  0  0  0  0  0  0  0
  129.1170  127.1200   62.7680 N   0  0  0  0  0  0  0  0  0  0  0  0
  130.3340  126.6860   62.7340 C   0  0  0  0  0  0  0  0  0  0  0  0
  131.2020  126.6410   63.6290 O   0  0  0  0  0  0  0  0  0  0  0  0
  130.8140  126.1400   61.3470 C   0  0  2  0  0  0  0  0  0  0  0  0
  130.0630  126.8410   60.1670 C   0  0  0  0  0  0  0  0  0  0  0  0
  130.6380  128.1970   59.7650 C   0  0  0  0  0  0  0  0  0  0  0  0
  130.3860  129.3230   60.5540 C   0  0  0  0  0  0  0  0  0  0  0  0
  130.9230  130.5570   60.1970 C   0  0  0  0  0  0  0  0  0  0  0  0
  131.7080  130.6620   59.0490 C   0  0  0  0  0  0  0  0  0  0  0  0
  131.9600  129.5440   58.2560 C   0  0  0  0  0  0  0  0  0  0  0  0
  131.4220  128.3110   58.6130 C   0  0  0  0  0  0  0  0  0  0  0  0
  130.8410  124.6420   61.2680 N   0  0  0  0  0  0  0  0  0  0  0  0
  131.9740  123.9650   60.9260 C   0  0  0  0  0  0  0  0  0  0  0  0
  133.0720  124.4430   60.6360 O   0  0  0  0  0  0  0  0  0  0  0  0
  131.6040  122.5280   60.9750 C   0  0  0  0  0  0  0  0  0  0  0  0
  132.3570  121.3810   60.7170 C   0  0  0  0  0  0  0  0  0  0  0  0
  131.7380  120.1330   60.8430 C   0  0  0  0  0  0  0  0  0  0  0  0
  130.3920  120.0460   61.2240 C   0  0  0  0  0  0  0  0  0  0  0  0
  129.6550  121.2070   61.4780 C   0  0  0  0  0  0  0  0  0  0  0  0
  130.2900  122.4430   61.3450 C   0  0  0  0  0  0  0  0  0  0  0  0
  129.7820  123.8210   61.5440 C   0  0  0  0  0  0  0  0  0  0  0  0
  128.6480  124.1510   61.8860 O   0  0  0  0  0  0  0  0  0  0  0  0
  129.7160  126.8460   67.2560 C   0  0  2  0  0  0  0  0  0  0  0  0
  129.7370  125.3040   67.0490 C   0  0  0  0  0  0  0  0  0  0  0  0
  130.8490  124.8190   66.1360 C   0  0  0  0  0  0  0  0  0  0  0  0
  130.5870  123.8270   65.1680 C   0  0  0  0  0  0  0  0  0  0  0  0
  131.5780  123.4550   64.2680 C   0  0  0  0  0  0  0  0  0  0  0  0
  132.8210  124.0750   64.3000 C   0  0  0  0  0  0  0  0  0  0  0  0
  133.0800  125.0800   65.2230 C   0  0  0  0  0  0  0  0  0  0  0  0
  132.1030  125.4670   66.1300 C   0  0  0  0  0  0  0  0  0  0  0  0
  129.5060  127.2170   68.6880 N   0  0  0  0  0  0  0  0  0  0  0  0
  128.3100  127.0160   69.3100 C   0  0  0  0  0  0  0  0  0  0  0  0
  127.2650  126.6040   68.8050 O   0  0  0  0  0  0  0  0  0  0  0  0
  128.5340  127.3880   70.7280 C   0  0  0  0  0  0  0  0  0  0  0  0
  127.6720  127.3710   71.8260 C   0  0  0  0  0  0  0  0  0  0  0  0
  128.1690  127.7630   73.0740 C   0  0  0  0  0  0  0  0  0  0  0  0
  129.5050  128.1650   73.2080 C   0  0  0  0  0  0  0  0  0  0  0  0
  130.3530  128.1780   72.0950 C   0  0  0  0  0  0  0  0  0  0  0  0
  129.8390  127.7800   70.8600 C   0  0  0  0  0  0  0  0  0  0  0  0
  130.4860  127.6620   69.5300 C   0  0  0  0  0  0  0  0  0  0  0  0
  131.6600  127.9020   69.2500 O   0  0  0  0  0  0  0  0  0  0  0  0
  129.6370  126.5300   64.8180 H   0  0  0  0  0  0  0  0  0  0  0  0
  131.8728  126.4179   61.2384 H   0  0  0  0  0  0  0  0  0  0  0  0
  130.1047  126.1771   59.2909 H   0  0  0  0  0  0  0  0  0  0  0  0
  129.0373  127.0284   60.5173 H   0  0  0  0  0  0  0  0  0  0  0  0
  129.7636  129.2342   61.4567 H   0  0  0  0  0  0  0  0  0  0  0  0
  130.7291  131.4446   60.8172 H   0  0  0  0  0  0  0  0  0  0  0  0
  132.1324  131.6368   58.7667 H   0  0  0  0  0  0  0  0  0  0  0  0
  132.5809  129.6356   57.3526 H   0  0  0  0  0  0  0  0  0  0  0  0
  131.6137  127.4259   57.9886 H   0  0  0  0  0  0  0  0  0  0  0  0
  133.4137  121.4570   60.4212 H   0  0  0  0  0  0  0  0  0  0  0  0
  132.3104  119.2154   60.6421 H   0  0  0  0  0  0  0  0  0  0  0  0
  129.9134  119.0606   61.3236 H   0  0  0  0  0  0  0  0  0  0  0  0
  128.5978  121.1476   61.7761 H   0  0  0  0  0  0  0  0  0  0  0  0
  130.7227  127.2058   66.9970 H   0  0  0  0  0  0  0  0  0  0  0  0
  129.8620  124.8247   68.0312 H   0  0  0  0  0  0  0  0  0  0  0  0
  128.7869  125.0348   66.5644 H   0  0  0  0  0  0  0  0  0  0  0  0
  129.5978  123.3478   65.1257 H   0  0  0  0  0  0  0  0  0  0  0  0
  131.3778  122.6667   63.5274 H   0  0  0  0  0  0  0  0  0  0  0  0
  133.6039  123.7684   63.5908 H   0  0  0  0  0  0  0  0  0  0  0  0
  134.0640  125.5716   65.2353 H   0  0  0  0  0  0  0  0  0  0  0  0
  132.3060  126.2787   66.8441 H   0  0  0  0  0  0  0  0  0  0  0  0
  126.6242  127.0561   71.7125 H   0  0  0  0  0  0  0  0  0  0  0  0
  127.5084  127.7556   73.9535 H   0  0  0  0  0  0  0  0  0  0  0  0
  129.8885  128.4716   74.1923 H   0  0  0  0  0  0  0  0  0  0  0  0
  131.4019  128.4950   72.1914 H   0  0  0  0  0  0  0  0  0  0  0  0
  1  2  2  0
  2  3  1  0
  3  4  1  0
  4  5  2  0
  4  6  1  0
  6  7  2  0
  7  8  1  0
  7  9  1  0
  9 10  1  0
 10 11  1  0
 11 12  2  0
 12 13  1  0
 13 14  2  0
 14 15  1  0
 15 16  2  0
  9 17  1  0
 17 18  1  0
 18 19  2  0
 18 20  1  0
 20 21  2  0
 21 22  1  0
 22 23  2  0
 23 24  1  0
 24 25  2  0
 25 26  1  0
 26 27  2  0
  2 28  1  0
 28 29  1  0
 29 30  1  0
 30 31  2  0
 31 32  1  0
 32 33  2  0
 33 34  1  0
 34 35  2  0
 28 36  1  0
 36 37  1  0
 37 38  2  0
 37 39  1  0
 39 40  2  0
 40 41  1  0
 41 42  2  0
 42 43  1  0
 43 44  2  0
 44 45  1  0
 45 46  2  0
 16 11  1  0
 26 17  1  0
 35 30  1  0
 45 36  1  0
 25 20  1  0
 44 39  1  0
  3 47  1  0
  9 48  1  6
 10 49  1  0
 10 50  1  0
 12 51  1  0
 13 52  1  0
 14 53  1  0
 15 54  1  0
 16 55  1  0
 21 56  1  0
 22 57  1  0
 23 58  1  0
 24 59  1  0
 28 60  1  6
 29 61  1  0
 29 62  1  0
 31 63  1  0
 32 64  1  0
 33 65  1  0
 34 66  1  0
 35 67  1  0
 40 68  1  0
 41 69  1  0
 42 70  1  0
 43 71  1  0
M  CHG  1   8  -1
M  END
>  <Binding energies>  (1) 
[-8.3]

>  <Ligand effiencies>  (1) 
[-0.17659574468085107]

>  <Interactions>  (1) 
["V-A:ILE:369:CG2:3237, V-A:GLY:454:CA:4049, V-B:GLU:543:C:9874, H-A:GLU:543:OE2:4910, V-B:HIS:456:CD2:9039, V-B:GLU:543:CB:9878, V-B:ALA:541:CB:9864, V-B:TYR:539:CE2:9848, V-A:TYR:484:CE2:4346, V-B:GLU:543:CG:9879, V-A:GLY:544:C:4912, V-A:ASP:366:CG:3213, H-A:ARG:545:N:4920, V-A:GLU:543:CD:4908, V-A:TYR:484:CZ:4347, V-B:GLU:543:CA:9876, V-B:HIS:456:CE1:9041, V-A:HIS:456:CE1:4070, V-B:GLY:544:C:9884, V-B:TYR:539:CD2:9846, V-A:GLU:543:CG:4907, V-B:GLU:543:CD:9880, V-B:HIS:456:CG:9037, V-A:ASP:366:CB:3212, V-A:ARG:545:CD:4923, V-A:LEU:475:CD2:4259, H-A:ARG:545:NH2:4928, V-A:ARG:545:CZ:4926, H-A:GLU:543:OE1:4909, V-A:GLU:543:CB:4906"]

$$$$
RR20_Rahimova_2017
     RDKit          3D

 68 73  0  0  0  0  0  0  0  0999 V2000
  130.1070  117.2540   60.9270 C   0  0  0  0  0  0  0  0  0  0  0  0
  130.5830  118.6950   60.9320 C   0  0  0  0  0  0  0  0  0  0  0  0
  131.7190  119.0530   60.2050 C   0  0  0  0  0  0  0  0  0  0  0  0
  132.1520  120.3760   60.2000 C   0  0  0  0  0  0  0  0  0  0  0  0
  131.4610  121.3490   60.9320 C   0  0  0  0  0  0  0  0  0  0  0  0
  131.9360  122.7850   60.8970 C   0  0  0  0  0  0  0  0  0  0  0  0
  131.9490  123.3560   59.8040 O   0  0  0  0  0  0  0  0  0  0  0  0
  132.3150  123.3930   62.0590 N   0  0  0  0  0  0  0  0  0  0  0  0
  133.6970  123.8520   62.2750 C   0  0  0  0  0  0  0  0  0  0  0  0
  133.6980  124.6040   63.5950 C   0  0  0  0  0  0  0  0  0  0  0  0
  132.2390  124.8400   63.8450 C   0  0  0  0  0  0  0  0  0  0  0  0
  131.6290  125.5610   64.8710 C   0  0  0  0  0  0  0  0  0  0  0  0
  130.2380  125.5330   65.0340 C   0  0  0  0  0  0  0  0  0  0  0  0
  129.5790  126.3180   66.1340 C   0  0  0  0  0  0  0  0  0  0  0  0
  129.7710  125.9300   67.3850 N   0  0  0  0  0  0  0  0  0  0  0  0
  129.1690  126.6960   68.2590 C   0  0  0  0  0  0  0  0  0  0  0  0
  129.1670  126.5780   69.6400 N   0  0  0  0  0  0  0  0  0  0  0  0
  129.8140  127.3730   70.5270 C   0  0  0  0  0  0  0  0  0  0  0  0
  130.4940  128.3510   70.2070 O   0  0  0  0  0  0  0  0  0  0  0  0
  129.6700  127.0510   72.0330 C   0  0  0  0  0  0  0  0  0  0  0  0
  128.9840  128.1160   72.7870 N   0  0  0  0  0  0  0  0  0  0  0  0
  128.7380  127.7440   74.1880 C   0  0  0  0  0  0  0  0  0  0  0  0
  127.7920  128.7690   74.8540 C   0  0  0  0  0  0  0  0  0  0  0  0
  128.1800  130.2180   74.5590 C   0  0  0  0  0  0  0  0  0  0  0  0
  127.6160  131.2760   75.2810 C   0  0  0  0  0  0  0  0  0  0  0  0
  127.9390  132.5980   74.9860 C   0  0  0  0  0  0  0  0  0  0  0  0
  128.8380  132.8790   73.9620 C   0  0  0  0  0  0  0  0  0  0  0  0
  129.4140  131.8350   73.2420 C   0  0  0  0  0  0  0  0  0  0  0  0
  129.0970  130.5020   73.5260 C   0  0  0  0  0  0  0  0  0  0  0  0
  129.7720  129.3550   72.7750 C   0  0  0  0  0  0  0  0  0  0  0  0
  128.2750  127.9940   67.5700 S   0  0  0  0  0  0  0  0  0  0  0  0
  128.7500  127.4500   65.9790 C   0  0  0  0  0  0  0  0  0  0  0  0
  128.2490  128.1640   64.7430 C   0  0  0  0  0  0  0  0  0  0  0  0
  129.4800  124.7190   64.1770 C   0  0  0  0  0  0  0  0  0  0  0  0
  130.0900  123.9820   63.1630 C   0  0  0  0  0  0  0  0  0  0  0  0
  131.4720  124.0860   62.9570 C   0  0  0  0  0  0  0  0  0  0  0  0
  130.3050  120.9880   61.6350 C   0  0  0  0  0  0  0  0  0  0  0  0
  129.8710  119.6640   61.6400 C   0  0  0  0  0  0  0  0  0  0  0  0
  129.9909  116.9026   61.9629 H   0  0  0  0  0  0  0  0  0  0  0  0
  129.1397  117.1892   60.4072 H   0  0  0  0  0  0  0  0  0  0  0  0
  130.8453  116.6257   60.4072 H   0  0  0  0  0  0  0  0  0  0  0  0
  132.2718  118.2906   59.6365 H   0  0  0  0  0  0  0  0  0  0  0  0
  133.0416  120.6584   59.6179 H   0  0  0  0  0  0  0  0  0  0  0  0
  134.3800  122.9913   62.3270 H   0  0  0  0  0  0  0  0  0  0  0  0
  134.0372  124.4947   61.4497 H   0  0  0  0  0  0  0  0  0  0  0  0
  134.1440  123.9967   64.3964 H   0  0  0  0  0  0  0  0  0  0  0  0
  134.2902  125.5306   63.5674 H   0  0  0  0  0  0  0  0  0  0  0  0
  132.2461  126.1575   65.5590 H   0  0  0  0  0  0  0  0  0  0  0  0
  128.6300  125.8100   70.0190 H   0  0  0  0  0  0  0  0  0  0  0  0
  129.0939  126.1199   72.1388 H   0  0  0  0  0  0  0  0  0  0  0  0
  130.6845  126.9557   72.4474 H   0  0  0  0  0  0  0  0  0  0  0  0
  128.2758  126.7465   74.2233 H   0  0  0  0  0  0  0  0  0  0  0  0
  129.6951  127.7337   74.7301 H   0  0  0  0  0  0  0  0  0  0  0  0
  126.7710  128.5968   74.4827 H   0  0  0  0  0  0  0  0  0  0  0  0
  127.8626  128.6240   75.9421 H   0  0  0  0  0  0  0  0  0  0  0  0
  126.9069  131.0600   76.0937 H   0  0  0  0  0  0  0  0  0  0  0  0
  127.4845  133.4181   75.5612 H   0  0  0  0  0  0  0  0  0  0  0  0
  129.0929  133.9218   73.7219 H   0  0  0  0  0  0  0  0  0  0  0  0
  130.1292  132.0619   72.4376 H   0  0  0  0  0  0  0  0  0  0  0  0
  129.9247  129.6627   71.7300 H   0  0  0  0  0  0  0  0  0  0  0  0
  130.7233  129.1437   73.2853 H   0  0  0  0  0  0  0  0  0  0  0  0
  127.6409  129.0307   65.0414 H   0  0  0  0  0  0  0  0  0  0  0  0
  129.1061  128.5061   64.1444 H   0  0  0  0  0  0  0  0  0  0  0  0
  127.6357  127.4744   64.1444 H   0  0  0  0  0  0  0  0  0  0  0  0
  128.3893  124.6620   64.3076 H   0  0  0  0  0  0  0  0  0  0  0  0
  129.4868  123.3193   62.5251 H   0  0  0  0  0  0  0  0  0  0  0  0
  129.7373  121.7527   62.1854 H   0  0  0  0  0  0  0  0  0  0  0  0
  128.9679  119.3828   62.2016 H   0  0  0  0  0  0  0  0  0  0  0  0
  1  2  1  0
  2  3  2  0
  3  4  1  0
  4  5  2  0
  5  6  1  0
  6  7  2  0
  6  8  1  0
  8  9  1  0
  9 10  1  0
 10 11  1  0
 11 12  2  0
 12 13  1  0
 13 14  1  0
 14 15  1  0
 15 16  2  0
 16 17  1  0
 17 18  1  0
 18 19  2  0
 18 20  1  0
 20 21  1  0
 21 22  1  0
 22 23  1  0
 23 24  1  0
 24 25  2  0
 25 26  1  0
 26 27  2  0
 27 28  1  0
 28 29  2  0
 29 30  1  0
 16 31  1  0
 31 32  1  0
 32 33  1  0
 13 34  2  0
 34 35  1  0
 35 36  2  0
  5 37  1  0
 37 38  2  0
 38  2  1  0
 36  8  1  0
 36 11  1  0
 32 14  2  0
 30 21  1  0
 29 24  1  0
  1 39  1  0
  1 40  1  0
  1 41  1  0
  3 42  1  0
  4 43  1  0
  9 44  1  0
  9 45  1  0
 10 46  1  0
 10 47  1  0
 12 48  1  0
 17 49  1  0
 20 50  1  0
 20 51  1  0
 22 52  1  0
 22 53  1  0
 23 54  1  0
 23 55  1  0
 25 56  1  0
 26 57  1  0
 27 58  1  0
 28 59  1  0
 30 60  1  0
 30 61  1  0
 33 62  1  0
 33 63  1  0
 33 64  1  0
 34 65  1  0
 35 66  1  0
 37 67  1  0
 38 68  1  0
M  END
>  <Binding energies>  (1) 
[-9.39]

>  <Ligand effiencies>  (1) 
[-0.2407692307692308]

>  <Interactions>  (1) 
["V-A:GLY:454:CA:4049, V-B:GLU:543:C:9874, V-B:HIS:456:CD2:9039, H-B:GLU:543:O:9875, V-A:GLU:543:C:4902, V-B:GLU:543:CB:9878, V-B:ALA:541:CB:9864, V-B:TYR:539:CE2:9848, V-B:GLU:543:CG:9879, V-A:HIS:456:CD2:4068, V-A:GLU:543:CD:4908, V-B:TYR:484:CB:9312, V-B:HIS:456:CE1:9041, V-A:HIS:456:CE1:4070, V-A:PRO:482:CB:4326, V-B:TYR:539:CD2:9846, V-A:SER:385:CB:3409, V-B:GLU:543:CD:9880, V-A:LEU:475:CD2:4259, V-A:ARG:545:CZ:4926, V-A:GLU:543:CB:4906, V-A:PRO:482:CG:4327, V-A:LYS:547:CE:4950, V-A:HIS:383:NE2:3394, H-A:HIS:456:NE2:4071"]

$$$$
RR24_Rahimova_2017
     RDKit          3D

 65 71  0  0  0  0  0  0  0  0999 V2000
  131.0910  131.8770   63.1600 C   0  0  0  0  0  0  0  0  0  0  0  0
  129.8320  132.4940   62.5340 C   0  0  2  0  0  0  0  0  0  0  0  0
  128.5100  131.8940   63.0970 C   0  0  0  0  0  0  0  0  0  0  0  0
  128.1240  132.1210   64.2480 O   0  0  0  0  0  0  0  0  0  0  0  0
  127.8730  131.0930   62.1930 O   0  0  0  0  0  0  0  0  0  0  0  0
  128.0380  129.7280   62.2590 C   0  0  0  0  0  0  0  0  0  0  0  0
  128.4760  129.0360   61.1280 C   0  0  0  0  0  0  0  0  0  0  0  0
  128.6560  127.6570   61.1860 C   0  0  0  0  0  0  0  0  0  0  0  0
  128.4070  126.9660   62.3750 C   0  0  0  0  0  0  0  0  0  0  0  0
  128.5890  125.4440   62.4280 C   0  0  1  0  0  0  0  0  0  0  0  0
  128.0520  124.7540   61.1520 C   0  0  0  0  0  0  0  0  0  0  0  0
  128.7800  123.8770   60.4370 C   0  0  0  0  0  0  0  0  0  0  0  0
  130.0610  123.5300   60.7890 N   0  0  0  0  0  0  0  0  0  0  0  0
  130.6670  124.0680   61.9000 C   0  0  0  0  0  0  0  0  0  0  0  0
  131.9290  123.6150   62.1140 N   0  0  0  0  0  0  0  0  0  0  0  0
  132.7130  124.0930   63.1180 C   0  0  0  0  0  0  0  0  0  0  0  0
  133.9290  123.8950   63.0800 O   0  0  0  0  0  0  0  0  0  0  0  0
  132.0470  124.9150   64.0140 N   0  0  0  0  0  0  0  0  0  0  0  0
  132.8290  125.3890   65.1740 C   0  0  0  0  0  0  0  0  0  0  0  0
  130.7700  125.4360   63.8920 C   0  0  0  0  0  0  0  0  0  0  0  0
  130.2560  126.2090   64.7070 O   0  0  0  0  0  0  0  0  0  0  0  0
  130.0470  124.9700   62.7040 C   0  0  0  0  0  0  0  0  0  0  0  0
  128.0260  123.3900   59.2940 C   0  0  0  0  0  0  0  0  0  0  0  0
  128.3270  122.4920   58.2680 C   0  0  0  0  0  0  0  0  0  0  0  0
  127.3650  122.2260   57.2910 C   0  0  0  0  0  0  0  0  0  0  0  0
  126.1160  122.8520   57.3440 C   0  0  0  0  0  0  0  0  0  0  0  0
  125.8200  123.7490   58.3740 C   0  0  0  0  0  0  0  0  0  0  0  0
  126.7860  124.0130   59.3460 C   0  0  0  0  0  0  0  0  0  0  0  0
  126.7410  124.9000   60.5270 C   0  0  0  0  0  0  0  0  0  0  0  0
  125.8320  125.6200   60.9360 O   0  0  0  0  0  0  0  0  0  0  0  0
  127.9860  127.6650   63.5120 C   0  0  0  0  0  0  0  0  0  0  0  0
  127.8080  129.0440   63.4550 C   0  0  0  0  0  0  0  0  0  0  0  0
  129.8780  132.4700   61.0420 N   0  0  0  0  0  0  0  0  0  0  0  0
  128.9390  133.1100   60.2900 C   0  0  0  0  0  0  0  0  0  0  0  0
  127.9690  133.7550   60.6930 O   0  0  0  0  0  0  0  0  0  0  0  0
  129.3300  132.8650   58.8790 C   0  0  0  0  0  0  0  0  0  0  0  0
  128.7380  133.2750   57.6830 C   0  0  0  0  0  0  0  0  0  0  0  0
  129.3360  132.8930   56.4760 C   0  0  0  0  0  0  0  0  0  0  0  0
  130.5020  132.1190   56.4800 C   0  0  0  0  0  0  0  0  0  0  0  0
  131.0800  131.7180   57.6890 C   0  0  0  0  0  0  0  0  0  0  0  0
  130.4690  132.1070   58.8820 C   0  0  0  0  0  0  0  0  0  0  0  0
  130.8390  131.8460   60.2950 C   0  0  0  0  0  0  0  0  0  0  0  0
  131.8090  131.2080   60.7060 O   0  0  0  0  0  0  0  0  0  0  0  0
  131.0120  131.9157   64.2565 H   0  0  0  0  0  0  0  0  0  0  0  0
  131.1862  130.8301   62.8360 H   0  0  0  0  0  0  0  0  0  0  0  0
  131.9767  132.4431   62.8360 H   0  0  0  0  0  0  0  0  0  0  0  0
  129.8297  133.5515   62.8370 H   0  0  0  0  0  0  0  0  0  0  0  0
  128.6783  129.5795   60.1933 H   0  0  0  0  0  0  0  0  0  0  0  0
  128.9950  127.1098   60.2940 H   0  0  0  0  0  0  0  0  0  0  0  0
  127.9899  125.1356   63.2975 H   0  0  0  0  0  0  0  0  0  0  0  0
  130.5700  122.8640   60.2250 H   0  0  0  0  0  0  0  0  0  0  0  0
  132.3390  122.9190   61.5090 H   0  0  0  0  0  0  0  0  0  0  0  0
  132.3266  125.0845   66.1040 H   0  0  0  0  0  0  0  0  0  0  0  0
  133.8369  124.9497   65.1409 H   0  0  0  0  0  0  0  0  0  0  0  0
  132.9058  126.4858   65.1409 H   0  0  0  0  0  0  0  0  0  0  0  0
  129.3101  121.9999   58.2296 H   0  0  0  0  0  0  0  0  0  0  0  0
  127.5908  121.5215   56.4770 H   0  0  0  0  0  0  0  0  0  0  0  0
  125.3629  122.6375   56.5715 H   0  0  0  0  0  0  0  0  0  0  0  0
  124.8372  124.2411   58.4181 H   0  0  0  0  0  0  0  0  0  0  0  0
  127.7958  127.1243   64.4509 H   0  0  0  0  0  0  0  0  0  0  0  0
  127.4864  129.5950   64.3511 H   0  0  0  0  0  0  0  0  0  0  0  0
  127.8223  133.8845   57.6888 H   0  0  0  0  0  0  0  0  0  0  0  0
  128.8874  133.2026   55.5205 H   0  0  0  0  0  0  0  0  0  0  0  0
  130.9664  131.8244   55.5273 H   0  0  0  0  0  0  0  0  0  0  0  0
  131.9962  131.1093   57.6993 H   0  0  0  0  0  0  0  0  0  0  0  0
  1  2  1  0
  2  3  1  0
  3  4  2  0
  3  5  1  0
  5  6  1  0
  6  7  2  0
  7  8  1  0
  8  9  2  0
  9 10  1  0
 10 11  1  0
 11 12  2  0
 12 13  1  0
 13 14  1  0
 14 15  1  0
 15 16  1  0
 16 17  2  0
 16 18  1  0
 18 19  1  0
 18 20  1  0
 20 21  2  0
 20 22  1  0
 12 23  1  0
 23 24  2  0
 24 25  1  0
 25 26  2  0
 26 27  1  0
 27 28  2  0
 28 29  1  0
 29 30  2  0
  9 31  1  0
 31 32  2  0
  2 33  1  0
 33 34  1  0
 34 35  2  0
 34 36  1  0
 36 37  2  0
 37 38  1  0
 38 39  2  0
 39 40  1  0
 40 41  2  0
 41 42  1  0
 42 43  2  0
 32  6  1  0
 42 33  1  0
 22 10  1  0
 28 23  1  0
 41 36  1  0
 29 11  1  0
 22 14  2  0
  1 44  1  0
  1 45  1  0
  1 46  1  0
  2 47  1  6
  7 48  1  0
  8 49  1  0
 10 50  1  1
 13 51  1  0
 15 52  1  0
 19 53  1  0
 19 54  1  0
 19 55  1  0
 24 56  1  0
 25 57  1  0
 26 58  1  0
 27 59  1  0
 31 60  1  0
 32 61  1  0
 37 62  1  0
 38 63  1  0
 39 64  1  0
 40 65  1  0
M  END
>  <Binding energies>  (1) 
[-8.96]

>  <Ligand effiencies>  (1) 
[-0.19911111111111113]

>  <Interactions>  (1) 
["V-B:TYR:539:CA:9841, V-B:PRO:540:CA:9855, V-A:ALA:541:C:4888, V-A:PRO:540:C:4881, V-B:TYR:539:CE2:9848, V-B:TYR:539:C:9839, V-A:TYR:539:CE1:4875, V-A:TYR:539:CD1:4873, V-B:TYR:539:CZ:9849, V-A:ILE:538:CA:4860, V-A:ALA:541:CB:4892, V-A:TYR:539:CA:4869, V-A:GLU:543:CD:4908, V-B:PRO:540:CB:9857, H-B:TYR:484:OH:9319, H-A:GLY:454:N:4050, V-B:PRO:540:N:9856, V-A:ALA:541:CA:4890, V-B:TYR:539:CD2:9846, V-B:PRO:540:CD:9859, V-A:GLU:543:CG:4907, V-B:GLU:543:CD:9880, V-A:MET:535:CE:4835, V-A:TYR:539:C:4867, V-A:ARG:545:CD:4923, V-A:ARG:545:CZ:4926, V-B:TYR:539:CG:9844, H-B:ARG:545:NH2:9900, V-B:TYR:539:CD1:9845, V-A:PRO:540:N:4884, V-A:TYR:539:CG:4872, V-A:PRO:540:CB:4885, V-A:PRO:540:CA:4883, V-B:TYR:539:CE1:9847"]

$$$$
RR27_Rahimova_2017
     RDKit          3D

 66 71  0  0  0  0  0  0  0  0999 V2000
  127.1810  122.8910   62.1010 O   0  0  0  0  0  0  0  0  0  0  0  0
  128.3540  123.2660   62.0190 C   0  0  0  0  0  0  0  0  0  0  0  0
  129.4300  122.5090   62.8520 C   0  0  0  0  0  0  0  0  0  0  0  0
  130.2310  123.4340   63.7870 C   0  0  0  0  0  0  0  0  0  0  0  0
  131.6340  123.4760   63.7640 C   0  0  0  0  0  0  0  0  0  0  0  0
  132.3260  124.3250   64.6220 C   0  0  0  0  0  0  0  0  0  0  0  0
  131.6210  125.1360   65.5070 C   0  0  0  0  0  0  0  0  0  0  0  0
  130.2300  125.1040   65.5430 C   0  0  0  0  0  0  0  0  0  0  0  0
  129.5380  124.2540   64.6850 C   0  0  0  0  0  0  0  0  0  0  0  0
  130.2860  121.5790   61.9700 C   0  0  0  0  0  0  0  0  0  0  0  0
  131.4500  122.0310   61.3350 C   0  0  0  0  0  0  0  0  0  0  0  0
  132.1940  121.1670   60.5350 C   0  0  0  0  0  0  0  0  0  0  0  0
  131.7730  119.8510   60.3640 C   0  0  0  0  0  0  0  0  0  0  0  0
  130.6120  119.3910   60.9800 C   0  0  0  0  0  0  0  0  0  0  0  0
  129.8690  120.2560   61.7770 C   0  0  0  0  0  0  0  0  0  0  0  0
  128.7420  124.2120   61.1170 N   0  0  0  0  0  0  0  0  0  0  0  0
  130.0560  124.8720   61.1480 C   0  0  0  0  0  0  0  0  0  0  0  0
  129.9210  126.0930   62.0850 C   0  0  0  0  0  0  0  0  0  0  0  0
  128.7610  127.0500   61.6660 C   0  0  0  0  0  0  0  0  0  0  0  0
  128.5110  128.2240   62.6310 C   0  0  0  0  0  0  0  0  0  0  0  0
  128.1380  127.8960   63.9020 N   0  0  0  0  0  0  0  0  0  0  0  0
  127.9310  128.8960   64.8030 C   0  0  0  0  0  0  0  0  0  0  0  0
  127.5590  128.6930   66.1060 O   0  0  0  0  0  0  0  0  0  0  0  0
  128.1090  130.2290   64.3850 C   0  0  0  0  0  0  0  0  0  0  0  0
  127.9940  131.4350   65.0120 N   0  0  0  0  0  0  0  0  0  0  0  0
  128.2880  132.4120   64.0810 N   0  0  0  0  0  0  0  0  0  0  0  0
  128.5870  131.8180   62.9060 N   0  0  0  0  0  0  0  0  0  0  0  0
  128.9160  132.6220   61.7310 C   0  0  0  0  0  0  0  0  0  0  0  0
  130.2240  132.2230   61.0620 C   0  0  0  0  0  0  0  0  0  0  0  0
  131.3260  131.8490   61.8380 C   0  0  0  0  0  0  0  0  0  0  0  0
  132.5220  131.4720   61.2240 C   0  0  0  0  0  0  0  0  0  0  0  0
  132.6200  131.4630   59.8340 C   0  0  0  0  0  0  0  0  0  0  0  0
  131.5220  131.8270   59.0530 C   0  0  0  0  0  0  0  0  0  0  0  0
  131.6330  131.7900   57.3300 Cl  0  0  0  0  0  0  0  0  0  0  0  0
  130.3290  132.2100   59.6660 C   0  0  0  0  0  0  0  0  0  0  0  0
  128.4850  130.4440   63.0420 C   0  0  0  0  0  0  0  0  0  0  0  0
  128.6860  129.4830   62.1370 N   0  0  0  0  0  0  0  0  0  0  0  0
  127.4640  126.2660   61.2970 C   0  0  0  0  0  0  0  0  0  0  0  0
  127.7340  125.0210   60.4150 C   0  0  0  0  0  0  0  0  0  0  0  0
  128.8978  121.8399   63.5441 H   0  0  0  0  0  0  0  0  0  0  0  0
  132.1892  122.8343   63.0640 H   0  0  0  0  0  0  0  0  0  0  0  0
  133.4254  124.3553   64.6011 H   0  0  0  0  0  0  0  0  0  0  0  0
  132.1683  125.8083   66.1841 H   0  0  0  0  0  0  0  0  0  0  0  0
  129.6803  125.7472   66.2459 H   0  0  0  0  0  0  0  0  0  0  0  0
  128.4387  124.2265   64.7129 H   0  0  0  0  0  0  0  0  0  0  0  0
  131.7778  123.0725   61.4687 H   0  0  0  0  0  0  0  0  0  0  0  0
  133.1100  121.5228   60.0406 H   0  0  0  0  0  0  0  0  0  0  0  0
  132.3635  119.1677   59.7359 H   0  0  0  0  0  0  0  0  0  0  0  0
  130.2845  118.3506   60.8374 H   0  0  0  0  0  0  0  0  0  0  0  0
  128.9473  119.8982   62.2591 H   0  0  0  0  0  0  0  0  0  0  0  0
  130.8182  124.1799   61.5354 H   0  0  0  0  0  0  0  0  0  0  0  0
  130.3658  125.1815   60.1389 H   0  0  0  0  0  0  0  0  0  0  0  0
  129.7283  125.7329   63.1064 H   0  0  0  0  0  0  0  0  0  0  0  0
  130.8598  126.6631   62.0244 H   0  0  0  0  0  0  0  0  0  0  0  0
  129.1110  127.5432   60.7471 H   0  0  0  0  0  0  0  0  0  0  0  0
  126.8930  128.0080   66.1990 H   0  0  0  0  0  0  0  0  0  0  0  0
  128.1036  132.5132   60.9974 H   0  0  0  0  0  0  0  0  0  0  0  0
  129.0350  133.6599   62.0753 H   0  0  0  0  0  0  0  0  0  0  0  0
  131.2502  131.8519   62.9354 H   0  0  0  0  0  0  0  0  0  0  0  0
  133.3874  131.1819   61.8379 H   0  0  0  0  0  0  0  0  0  0  0  0
  133.5638  131.1687   59.3517 H   0  0  0  0  0  0  0  0  0  0  0  0
  129.4665  132.5033   59.0495 H   0  0  0  0  0  0  0  0  0  0  0  0
  126.9778  125.9368   62.2272 H   0  0  0  0  0  0  0  0  0  0  0  0
  126.8248  126.9465   60.7154 H   0  0  0  0  0  0  0  0  0  0  0  0
  126.8080  124.4418   60.2842 H   0  0  0  0  0  0  0  0  0  0  0  0
  128.0900  125.3149   59.4166 H   0  0  0  0  0  0  0  0  0  0  0  0
  1  2  2  0
  2  3  1  0
  3  4  1  0
  4  5  2  0
  5  6  1  0
  6  7  2  0
  7  8  1  0
  8  9  2  0
  3 10  1  0
 10 11  2  0
 11 12  1  0
 12 13  2  0
 13 14  1  0
 14 15  2  0
  2 16  1  0
 16 17  1  0
 17 18  1  0
 18 19  1  0
 19 20  1  0
 20 21  2  0
 21 22  1  0
 22 23  1  0
 22 24  2  0
 24 25  1  0
 25 26  2  0
 26 27  1  0
 27 28  1  0
 28 29  1  0
 29 30  2  0
 30 31  1  0
 31 32  2  0
 32 33  1  0
 33 34  1  0
 33 35  2  0
 27 36  1  0
 36 37  2  0
 19 38  1  0
 38 39  1  0
  9  4  1  0
 15 10  1  0
 39 16  1  0
 37 20  1  0
 36 24  1  0
 35 29  1  0
  3 40  1  0
  5 41  1  0
  6 42  1  0
  7 43  1  0
  8 44  1  0
  9 45  1  0
 11 46  1  0
 12 47  1  0
 13 48  1  0
 14 49  1  0
 15 50  1  0
 17 51  1  0
 17 52  1  0
 18 53  1  0
 18 54  1  0
 19 55  1  0
 23 56  1  0
 28 57  1  0
 28 58  1  0
 30 59  1  0
 31 60  1  0
 32 61  1  0
 35 62  1  0
 38 63  1  0
 38 64  1  0
 39 65  1  0
 39 66  1  0
M  END
>  <Binding energies>  (1) 
[-10.07]

>  <Ligand effiencies>  (1) 
[-0.25175000000000003]

>  <Interactions>  (1) 
["V-A:PRO:540:N:4884, V-A:LEU:363:CD1:3189, H-B:GLU:543:OE2:9882, V-A:PRO:540:CA:4883, V-A:PRO:540:CB:4885, V-B:GLU:543:CB:9878, V-B:TYR:539:CD2:9846, V-A:GLU:543:CG:4907, V-A:PRO:540:C:4881, H-B:ALA:541:N:9863, V-B:GLU:543:CD:9880, V-B:ALA:541:CB:9864, V-A:GLU:543:CD:4908, V-B:TYR:539:CE2:9848, H-B:TYR:484:OH:9319, V-A:LEU:475:CD2:4259, V-B:GLU:543:CG:9879"]

$$$$
RR27_Rahimova_2017-again1
     RDKit          3D

 66 71  0  0  0  0  0  0  0  0999 V2000
  127.0380  122.8730   62.7300 O   0  0  0  0  0  0  0  0  0  0  0  0
  128.2010  123.1390   62.4130 C   0  0  0  0  0  0  0  0  0  0  0  0
  129.3550  122.4660   63.2160 C   0  0  0  0  0  0  0  0  0  0  0  0
  130.0300  123.4350   64.2050 C   0  0  0  0  0  0  0  0  0  0  0  0
  131.0900  124.2710   63.8230 C   0  0  0  0  0  0  0  0  0  0  0  0
  131.6730  125.1350   64.7460 C   0  0  0  0  0  0  0  0  0  0  0  0
  131.2000  125.1680   66.0550 C   0  0  0  0  0  0  0  0  0  0  0  0
  130.1490  124.3470   66.4490 C   0  0  0  0  0  0  0  0  0  0  0  0
  129.5650  123.4830   65.5260 C   0  0  0  0  0  0  0  0  0  0  0  0
  130.3480  121.7310   62.2950 C   0  0  0  0  0  0  0  0  0  0  0  0
  131.6370  122.2320   62.0610 C   0  0  0  0  0  0  0  0  0  0  0  0
  132.5090  121.5610   61.2080 C   0  0  0  0  0  0  0  0  0  0  0  0
  132.0990  120.3840   60.5880 C   0  0  0  0  0  0  0  0  0  0  0  0
  130.8230  119.8750   60.8100 C   0  0  0  0  0  0  0  0  0  0  0  0
  129.9470  120.5500   61.6560 C   0  0  0  0  0  0  0  0  0  0  0  0
  128.4800  123.8680   61.2930 N   0  0  0  0  0  0  0  0  0  0  0  0
  129.7980  124.4530   61.0090 C   0  0  0  0  0  0  0  0  0  0  0  0
  129.8700  125.8210   61.7260 C   0  0  0  0  0  0  0  0  0  0  0  0
  128.5960  126.7210   61.6010 C   0  0  0  0  0  0  0  0  0  0  0  0
  128.4360  127.7160   62.7550 C   0  0  0  0  0  0  0  0  0  0  0  0
  128.4660  127.3090   63.9850 N   0  0  0  0  0  0  0  0  0  0  0  0
  128.3070  128.2790   64.9280 C   0  0  0  0  0  0  0  0  0  0  0  0
  128.1190  129.6320   64.6910 C   0  0  0  0  0  0  0  0  0  0  0  0
  127.9910  130.2870   65.8320 N   0  0  0  0  0  0  0  0  0  0  0  0
  128.0980  129.3560   66.8600 N   0  0  0  0  0  0  0  0  0  0  0  0
  128.3050  128.1550   66.2930 N   0  0  0  0  0  0  0  0  0  0  0  0
  128.4380  126.9540   67.1080 C   0  0  0  0  0  0  0  0  0  0  0  0
  128.9680  127.2310   68.5070 C   0  0  0  0  0  0  0  0  0  0  0  0
  130.2820  127.6790   68.6840 C   0  0  0  0  0  0  0  0  0  0  0  0
  130.7730  127.9240   69.9670 C   0  0  0  0  0  0  0  0  0  0  0  0
  129.9540  127.7250   71.0780 C   0  0  0  0  0  0  0  0  0  0  0  0
  128.6420  127.2840   70.9080 C   0  0  0  0  0  0  0  0  0  0  0  0
  127.6310  127.0340   72.2830 Cl  0  0  0  0  0  0  0  0  0  0  0  0
  128.1490  127.0390   69.6260 C   0  0  0  0  0  0  0  0  0  0  0  0
  128.0890  130.1190   63.3110 C   0  0  0  0  0  0  0  0  0  0  0  0
  127.9390  131.2700   62.9070 O   0  0  0  0  0  0  0  0  0  0  0  0
  128.2620  129.0610   62.4430 N   0  0  0  0  0  0  0  0  0  0  0  0
  127.2620  125.9780   61.2730 C   0  0  0  0  0  0  0  0  0  0  0  0
  127.4030  124.5900   60.6010 C   0  0  0  0  0  0  0  0  0  0  0  0
  128.8984  121.6870   63.8442 H   0  0  0  0  0  0  0  0  0  0  0  0
  131.4626  124.2437   62.7884 H   0  0  0  0  0  0  0  0  0  0  0  0
  132.5038  125.7888   64.4423 H   0  0  0  0  0  0  0  0  0  0  0  0
  131.6619  125.8498   66.7843 H   0  0  0  0  0  0  0  0  0  0  0  0
  129.7806  124.3799   67.4850 H   0  0  0  0  0  0  0  0  0  0  0  0
  128.7329  122.8338   65.8361 H   0  0  0  0  0  0  0  0  0  0  0  0
  131.9608  123.1604   62.5543 H   0  0  0  0  0  0  0  0  0  0  0  0
  133.5179  121.9593   61.0247 H   0  0  0  0  0  0  0  0  0  0  0  0
  132.7894  119.8519   59.9170 H   0  0  0  0  0  0  0  0  0  0  0  0
  130.5075  118.9427   60.3188 H   0  0  0  0  0  0  0  0  0  0  0  0
  128.9345  120.1540   61.8237 H   0  0  0  0  0  0  0  0  0  0  0  0
  130.5910  123.7904   61.3859 H   0  0  0  0  0  0  0  0  0  0  0  0
  129.9382  124.5784   59.9252 H   0  0  0  0  0  0  0  0  0  0  0  0
  130.0474  125.6331   62.7952 H   0  0  0  0  0  0  0  0  0  0  0  0
  130.6794  126.3769   61.2302 H   0  0  0  0  0  0  0  0  0  0  0  0
  128.8064  127.3058   60.6934 H   0  0  0  0  0  0  0  0  0  0  0  0
  127.4488  126.4811   67.1968 H   0  0  0  0  0  0  0  0  0  0  0  0
  129.1670  126.2999   66.6073 H   0  0  0  0  0  0  0  0  0  0  0  0
  130.9296  127.8384   67.8092 H   0  0  0  0  0  0  0  0  0  0  0  0
  131.8069  128.2744   70.1021 H   0  0  0  0  0  0  0  0  0  0  0  0
  130.3431  127.9160   72.0890 H   0  0  0  0  0  0  0  0  0  0  0  0
  127.1130  126.6937   69.4940 H   0  0  0  0  0  0  0  0  0  0  0  0
  128.2520  129.3110   61.4650 H   0  0  0  0  0  0  0  0  0  0  0  0
  126.7131  125.8405   62.2163 H   0  0  0  0  0  0  0  0  0  0  0  0
  126.7441  126.6112   60.5376 H   0  0  0  0  0  0  0  0  0  0  0  0
  126.4593  124.0321   60.6912 H   0  0  0  0  0  0  0  0  0  0  0  0
  127.6372  124.7006   59.5319 H   0  0  0  0  0  0  0  0  0  0  0  0
  1  2  2  0
  2  3  1  0
  3  4  1  0
  4  5  2  0
  5  6  1  0
  6  7  2  0
  7  8  1  0
  8  9  2  0
  3 10  1  0
 10 11  2  0
 11 12  1  0
 12 13  2  0
 13 14  1  0
 14 15  2  0
  2 16  1  0
 16 17  1  0
 17 18  1  0
 18 19  1  0
 19 20  1  0
 20 21  2  0
 21 22  1  0
 22 23  2  0
 23 24  1  0
 24 25  2  0
 25 26  1  0
 26 27  1  0
 27 28  1  0
 28 29  2  0
 29 30  1  0
 30 31  2  0
 31 32  1  0
 32 33  1  0
 32 34  2  0
 23 35  1  0
 35 36  2  0
 35 37  1  0
 19 38  1  0
 38 39  1  0
  9  4  1  0
 15 10  1  0
 39 16  1  0
 37 20  1  0
 26 22  1  0
 34 28  1  0
  3 40  1  0
  5 41  1  0
  6 42  1  0
  7 43  1  0
  8 44  1  0
  9 45  1  0
 11 46  1  0
 12 47  1  0
 13 48  1  0
 14 49  1  0
 15 50  1  0
 17 51  1  0
 17 52  1  0
 18 53  1  0
 18 54  1  0
 19 55  1  0
 27 56  1  0
 27 57  1  0
 29 58  1  0
 30 59  1  0
 31 60  1  0
 34 61  1  0
 37 62  1  0
 38 63  1  0
 38 64  1  0
 39 65  1  0
 39 66  1  0
M  END
>  <Binding energies>  (1) 
[-9.74]

>  <Ligand effiencies>  (1) 
[-0.2435]

>  <Interactions>  (1) 
["V-B:GLU:543:C:9874, V-B:HIS:456:CD2:9039, V-A:GLU:543:C:4902, V-B:GLU:543:CB:9878, V-B:ALA:541:CB:9864, V-B:TYR:539:CE2:9848, V-A:TYR:484:CE2:4346, V-B:GLU:543:CG:9879, V-A:GLY:544:C:4912, V-B:LYS:547:CE:9922, H-B:ALA:541:N:9863, V-A:GLU:543:CD:4908, V-A:TYR:484:CZ:4347, H-B:TYR:484:OH:9319, V-B:HIS:456:CE1:9041, V-B:GLU:543:CA:9876, V-A:HIS:456:CE1:4070, V-B:GLY:544:C:9884, V-B:TYR:539:CD2:9846, V-A:GLU:543:CG:4907, V-B:GLU:543:CD:9880, V-A:LEU:475:CD2:4259, V-A:GLU:543:CB:4906"]

$$$$
RR29_Rahimova_2017
     RDKit          3D

 35 36  0  0  0  0  0  0  0  0999 V2000
  129.7950  124.7330   67.6370 C   0  0  0  0  0  0  0  0  0  0  0  0
  129.8560  125.8440   66.5990 C   0  0  0  0  0  0  0  0  0  0  0  0
  129.2510  127.1730   67.1020 C   0  0  0  0  0  0  0  0  0  0  0  0
  128.3520  126.9600   68.3380 C   0  0  0  0  0  0  0  0  0  0  0  0
  129.0920  127.2220   69.6410 C   0  0  0  0  0  0  0  0  0  0  0  0
  130.2290  128.0530   69.6490 C   0  0  0  0  0  0  0  0  0  0  0  0
  130.9250  128.3090   70.8400 C   0  0  0  0  0  0  0  0  0  0  0  0
  130.4570  127.7040   72.0000 C   0  0  0  0  0  0  0  0  0  0  0  0
  129.3550  126.8950   71.9970 C   0  0  0  0  0  0  0  0  0  0  0  0
  128.6400  126.6320   70.8340 C   0  0  0  0  0  0  0  0  0  0  0  0
  129.1060  126.4710   73.2650 O   0  0  0  0  0  0  0  0  0  0  0  0
  130.2160  126.8700   74.0230 C   0  0  0  0  0  0  0  0  0  0  0  0
  130.9320  127.8130   73.2690 O   0  0  0  0  0  0  0  0  0  0  0  0
  130.3700  125.5860   65.4530 N   0  0  0  0  0  0  0  0  0  0  0  0
  130.3490  126.5640   64.4830 N   0  0  0  0  0  0  0  0  0  0  0  0
  129.5850  126.5120   63.3800 C   0  0  0  0  0  0  0  0  0  0  0  0
  128.7380  125.5250   63.0850 N   0  0  0  0  0  0  0  0  0  0  0  0
  129.6780  127.5140   62.5180 N   0  0  0  0  0  0  0  0  0  0  0  0
  129.8191  125.1717   68.6455 H   0  0  0  0  0  0  0  0  0  0  0  0
  128.8641  124.1613   67.5080 H   0  0  0  0  0  0  0  0  0  0  0  0
  130.6577  124.0629   67.5080 H   0  0  0  0  0  0  0  0  0  0  0  0
  130.0689  127.8580   67.3700 H   0  0  0  0  0  0  0  0  0  0  0  0
  128.6317  127.5941   66.2964 H   0  0  0  0  0  0  0  0  0  0  0  0
  127.4942  127.6457   68.2741 H   0  0  0  0  0  0  0  0  0  0  0  0
  128.0265  125.9093   68.3408 H   0  0  0  0  0  0  0  0  0  0  0  0
  130.5759  128.5073   68.7092 H   0  0  0  0  0  0  0  0  0  0  0  0
  131.8084  128.9643   70.8549 H   0  0  0  0  0  0  0  0  0  0  0  0
  127.7510  125.9843   70.8470 H   0  0  0  0  0  0  0  0  0  0  0  0
  129.8810  127.3225   74.9680 H   0  0  0  0  0  0  0  0  0  0  0  0
  130.8516  126.0041   74.2601 H   0  0  0  0  0  0  0  0  0  0  0  0
  130.9740  127.3470   64.6150 H   0  0  0  0  0  0  0  0  0  0  0  0
  127.9840  125.6810   62.4320 H   0  0  0  0  0  0  0  0  0  0  0  0
  128.8500  124.6250   63.5280 H   0  0  0  0  0  0  0  0  0  0  0  0
  130.4980  128.1030   62.5140 H   0  0  0  0  0  0  0  0  0  0  0  0
  128.9290  127.6840   61.8620 H   0  0  0  0  0  0  0  0  0  0  0  0
  1  2  1  0
  2  3  1  0
  3  4  1  0
  4  5  1  0
  5  6  2  0
  6  7  1  0
  7  8  2  0
  8  9  1  0
  9 10  2  0
  9 11  1  0
 11 12  1  0
 12 13  1  0
  2 14  2  0
 14 15  1  0
 15 16  1  0
 16 17  1  0
 16 18  2  0
 10  5  1  0
 13  8  1  0
  1 19  1  0
  1 20  1  0
  1 21  1  0
  3 22  1  0
  3 23  1  0
  4 24  1  0
  4 25  1  0
  6 26  1  0
  7 27  1  0
 10 28  1  0
 12 29  1  0
 12 30  1  0
 15 31  1  0
 17 32  1  0
 17 33  1  0
 18 34  1  0
 18 35  1  0
M  CHG  1  18   1
M  END
>  <Binding energies>  (1) 
[-6.95]

>  <Ligand effiencies>  (1) 
[-0.3021739130434783]

>  <Interactions>  (1) 
["V-B:GLU:543:C:9874, H-A:GLU:543:OE2:4910, V-A:GLU:543:C:4902, V-B:GLU:543:CB:9878, H-B:LYS:547:NZ:9923, V-A:TYR:484:CE2:4346, V-A:GLY:544:CA:4914, V-A:GLY:544:C:4912, V-B:GLU:543:CG:9879, V-A:HIS:456:CD2:4068, H-B:GLU:543:OE1:9881, V-A:TYR:484:CZ:4347, V-A:GLU:543:CD:4908, V-B:HIS:456:CE1:9041, V-B:GLU:543:CA:9876, V-A:HIS:456:CE1:4070, V-B:GLU:543:CD:9880, H-A:LYS:547:NZ:4951, H-A:GLU:543:OE1:4909, V-A:GLU:543:CB:4906"]

$$$$
RR2_Rahimova_2017
     RDKit          3D

 76 80  0  0  0  0  0  0  0  0999 V2000
  127.9460  132.9370   64.1690 C   0  0  0  0  0  0  0  0  0  0  0  0
  128.0730  131.6370   64.7340 O   0  0  0  0  0  0  0  0  0  0  0  0
  128.2890  130.5570   63.8990 C   0  0  0  0  0  0  0  0  0  0  0  0
  128.0160  129.2250   64.2410 C   0  0  0  0  0  0  0  0  0  0  0  0
  128.2700  128.2000   63.3340 C   0  0  0  0  0  0  0  0  0  0  0  0
  128.8040  128.4790   62.0690 C   0  0  0  0  0  0  0  0  0  0  0  0
  129.0780  127.3440   61.1020 C   0  0  0  0  0  0  0  0  0  0  0  0
  128.1420  126.7010   60.6140 O   0  0  0  0  0  0  0  0  0  0  0  0
  130.3820  127.0940   60.8400 N   0  0  0  0  0  0  0  0  0  0  0  0
  130.6920  126.0040   60.0330 N   0  0  0  0  0  0  0  0  0  0  0  0
  131.8880  125.4040   60.2030 C   0  0  0  0  0  0  0  0  0  0  0  0
  132.8080  125.8490   60.8940 O   0  0  0  0  0  0  0  0  0  0  0  0
  132.0620  124.0610   59.4820 C   0  0  0  0  0  0  0  0  0  0  0  0
  133.0730  122.8260   60.3780 S   0  0  0  0  0  0  0  0  0  0  0  0
  132.9880  123.4670   62.0230 C   0  0  0  0  0  0  0  0  0  0  0  0
  134.0490  123.7800   62.7230 N   0  0  0  0  0  0  0  0  0  0  0  0
  133.6170  124.1770   63.9800 N   0  0  0  0  0  0  0  0  0  0  0  0
  132.3060  124.1180   63.9840 C   0  0  0  0  0  0  0  0  0  0  0  0
  131.4700  124.4880   65.1660 C   0  0  0  0  0  0  0  0  0  0  0  0
  131.9050  125.4900   66.0370 C   0  0  0  0  0  0  0  0  0  0  0  0
  131.1370  125.8370   67.1440 C   0  0  0  0  0  0  0  0  0  0  0  0
  129.9160  125.1960   67.3820 C   0  0  0  0  0  0  0  0  0  0  0  0
  129.1060  125.4970   68.4870 N   0  0  0  0  0  0  0  0  0  0  0  0
  128.4140  127.0990   68.8280 S   0  0  0  0  0  0  0  0  0  0  0  0
  126.9670  126.9660   68.6210 O   0  0  0  0  0  0  0  0  0  0  0  0
  129.1910  128.0980   68.0860 O   0  0  0  0  0  0  0  0  0  0  0  0
  128.6630  127.3520   70.5840 C   0  0  0  0  0  0  0  0  0  0  0  0
  127.6280  127.1130   71.4910 C   0  0  0  0  0  0  0  0  0  0  0  0
  127.8370  127.3310   72.8500 C   0  0  0  0  0  0  0  0  0  0  0  0
  129.0800  127.7820   73.3010 C   0  0  0  0  0  0  0  0  0  0  0  0
  129.3010  128.0340   74.7820 C   0  0  0  0  0  0  0  0  0  0  0  0
  130.1110  128.0240   72.3910 C   0  0  0  0  0  0  0  0  0  0  0  0
  129.9030  127.8080   71.0320 C   0  0  0  0  0  0  0  0  0  0  0  0
  129.4810  124.1980   66.5090 C   0  0  0  0  0  0  0  0  0  0  0  0
  130.2520  123.8460   65.4050 C   0  0  0  0  0  0  0  0  0  0  0  0
  131.8360  123.6660   62.7620 N   0  0  0  0  0  0  0  0  0  0  0  0
  130.5030  123.4210   62.3710 C   0  0  0  0  0  0  0  0  0  0  0  0
  129.5480  124.4320   62.4820 C   0  0  0  0  0  0  0  0  0  0  0  0
  128.2350  124.1850   62.0900 C   0  0  0  0  0  0  0  0  0  0  0  0
  127.8660  122.9360   61.5900 C   0  0  0  0  0  0  0  0  0  0  0  0
  126.5410  122.7860   61.2290 O   0  0  0  0  0  0  0  0  0  0  0  0
  125.7290  123.9450   61.0640 C   0  0  0  0  0  0  0  0  0  0  0  0
  128.8340  121.9240   61.4820 C   0  0  0  0  0  0  0  0  0  0  0  0
  130.1480  122.1670   61.8700 C   0  0  0  0  0  0  0  0  0  0  0  0
  129.0700  129.8160   61.7320 C   0  0  0  0  0  0  0  0  0  0  0  0
  128.8140  130.8390   62.6400 C   0  0  0  0  0  0  0  0  0  0  0  0
  127.8732  133.6817   64.9753 H   0  0  0  0  0  0  0  0  0  0  0  0
  128.8272  133.1544   63.5475 H   0  0  0  0  0  0  0  0  0  0  0  0
  127.0394  132.9797   63.5475 H   0  0  0  0  0  0  0  0  0  0  0  0
  127.5990  128.9887   65.2311 H   0  0  0  0  0  0  0  0  0  0  0  0
  128.0490  127.1593   63.6135 H   0  0  0  0  0  0  0  0  0  0  0  0
  131.1020  127.2660   61.5280 H   0  0  0  0  0  0  0  0  0  0  0  0
  129.8760  125.5280   59.6730 H   0  0  0  0  0  0  0  0  0  0  0  0
  131.0633  123.6300   59.3181 H   0  0  0  0  0  0  0  0  0  0  0  0
  132.6018  124.2810   58.5491 H   0  0  0  0  0  0  0  0  0  0  0  0
  132.8576  126.0062   65.8470 H   0  0  0  0  0  0  0  0  0  0  0  0
  131.4905  126.6173   67.8340 H   0  0  0  0  0  0  0  0  0  0  0  0
  128.8780  124.7450   69.1210 H   0  0  0  0  0  0  0  0  0  0  0  0
  126.6518  126.7540   71.1330 H   0  0  0  0  0  0  0  0  0  0  0  0
  127.0241  127.1483   73.5682 H   0  0  0  0  0  0  0  0  0  0  0  0
  128.6874  127.3344   75.3685 H   0  0  0  0  0  0  0  0  0  0  0  0
  130.3631  127.8829   75.0252 H   0  0  0  0  0  0  0  0  0  0  0  0
  129.0126  129.0673   75.0252 H   0  0  0  0  0  0  0  0  0  0  0  0
  131.0868  128.3851   72.7480 H   0  0  0  0  0  0  0  0  0  0  0  0
  130.7140  127.9963   70.3131 H   0  0  0  0  0  0  0  0  0  0  0  0
  128.5245  123.6873   66.6942 H   0  0  0  0  0  0  0  0  0  0  0  0
  129.9018  123.0606   64.7190 H   0  0  0  0  0  0  0  0  0  0  0  0
  129.8308  125.4189   62.8771 H   0  0  0  0  0  0  0  0  0  0  0  0
  127.4817  124.9820   62.1753 H   0  0  0  0  0  0  0  0  0  0  0  0
  125.4511  124.3416   62.0516 H   0  0  0  0  0  0  0  0  0  0  0  0
  126.2901  124.7094   60.5065 H   0  0  0  0  0  0  0  0  0  0  0  0
  124.8189  123.6787   60.5065 H   0  0  0  0  0  0  0  0  0  0  0  0
  128.5523  120.9358   61.0893 H   0  0  0  0  0  0  0  0  0  0  0  0
  130.9048  121.3736   61.7823 H   0  0  0  0  0  0  0  0  0  0  0  0
  129.4843  130.0567   60.7418 H   0  0  0  0  0  0  0  0  0  0  0  0
  129.0285  131.8811   62.3606 H   0  0  0  0  0  0  0  0  0  0  0  0
  1  2  1  0
  2  3  1  0
  3  4  2  0
  4  5  1  0
  5  6  2  0
  6  7  1  0
  7  8  2  0
  7  9  1  0
  9 10  1  0
 10 11  1  0
 11 12  2  0
 11 13  1  0
 13 14  1  0
 14 15  1  0
 15 16  2  0
 16 17  1  0
 17 18  2  0
 18 19  1  0
 19 20  2  0
 20 21  1  0
 21 22  2  0
 22 23  1  0
 23 24  1  0
 24 25  2  0
 24 26  2  0
 24 27  1  0
 27 28  2  0
 28 29  1  0
 29 30  2  0
 30 31  1  0
 30 32  1  0
 32 33  2  0
 22 34  1  0
 34 35  2  0
 18 36  1  0
 36 37  1  0
 37 38  2  0
 38 39  1  0
 39 40  2  0
 40 41  1  0
 41 42  1  0
 40 43  1  0
 43 44  2  0
  6 45  1  0
 45 46  2  0
 46  3  1  0
 36 15  1  0
 44 37  1  0
 35 19  1  0
 33 27  1  0
  1 47  1  0
  1 48  1  0
  1 49  1  0
  4 50  1  0
  5 51  1  0
  9 52  1  0
 10 53  1  0
 13 54  1  0
 13 55  1  0
 20 56  1  0
 21 57  1  0
 23 58  1  0
 28 59  1  0
 29 60  1  0
 31 61  1  0
 31 62  1  0
 31 63  1  0
 32 64  1  0
 33 65  1  0
 34 66  1  0
 35 67  1  0
 38 68  1  0
 39 69  1  0
 42 70  1  0
 42 71  1  0
 42 72  1  0
 43 73  1  0
 44 74  1  0
 45 75  1  0
 46 76  1  0
M  END
>  <Binding energies>  (1) 
[-9.69]

>  <Ligand effiencies>  (1) 
[-0.1977551020408163]

>  <Interactions>  (1) 
["V-B:PRO:540:CA:9855, V-B:GLU:543:C:9874, V-B:HIS:456:CD2:9039, H-B:GLU:543:O:9875, V-B:GLU:543:CB:9878, V-B:ALA:541:CB:9864, V-B:TYR:539:CE2:9848, V-A:TYR:484:CE2:4346, V-B:GLU:543:CG:9879, V-B:LEU:475:CD2:9230, V-A:ASP:366:CG:3213, V-B:TYR:484:CE2:9317, V-B:TYR:539:CZ:9849, V-A:ALA:541:CB:4892, V-B:LYS:547:CE:9922, H-B:ALA:541:N:9863, V-A:TYR:484:CZ:4347, V-A:GLU:543:CD:4908, V-B:PRO:540:CB:9857, H-B:TYR:484:OH:9319, V-B:HIS:456:CE1:9041, V-B:GLU:543:CA:9876, H-A:GLY:454:N:4050, V-A:HIS:456:CE1:4070, V-B:TYR:484:CZ:9318, V-B:GLY:544:C:9884, V-A:GLU:543:CG:4907, V-B:GLU:543:CD:9880, V-A:LEU:475:CD2:4259, H-A:ARG:545:NH2:4928, H-A:GLU:543:OE1:4909, V-B:PRO:540:C:9853, H-A:ASP:366:OD2:3215, H-A:HIS:456:NE2:4071, H-A:TYR:484:OH:4348"]

$$$$
RR30_Rahimova_2017
     RDKit          3D

 29 30  0  0  0  0  0  0  0  0999 V2000
  128.9440  127.7990   72.6180 C   0  0  0  0  0  0  0  0  0  0  0  0
  130.2460  128.4510   72.1290 C   0  0  0  0  0  0  0  0  0  0  0  0
  130.5620  128.0940   70.6940 C   0  0  0  0  0  0  0  0  0  0  0  0
  131.7270  128.0950   70.0960 N   0  0  0  0  0  0  0  0  0  0  0  0
  131.4840  127.7010   68.7830 N   0  0  0  0  0  0  0  0  0  0  0  0
  130.1930  127.5050   68.6970 C   0  0  0  0  0  0  0  0  0  0  0  0
  129.2760  126.9790   67.2850 S   0  0  0  0  0  0  0  0  0  0  0  0
  129.5400  125.1800   67.3930 C   0  0  0  0  0  0  0  0  0  0  0  0
  130.4120  124.6540   66.2500 C   0  0  0  0  0  0  0  0  0  0  0  0
  130.1100  123.5910   65.7030 O   0  0  0  0  0  0  0  0  0  0  0  0
  131.4970  125.4000   65.9420 N   0  0  0  0  0  0  0  0  0  0  0  0
  132.4300  125.1270   64.9530 C   0  0  0  0  0  0  0  0  0  0  0  0
  133.7310  124.9900   65.0770 N   0  0  0  0  0  0  0  0  0  0  0  0
  134.3520  124.7200   63.8640 N   0  0  0  0  0  0  0  0  0  0  0  0
  133.5160  124.6590   62.8530 C   0  0  0  0  0  0  0  0  0  0  0  0
  133.9520  124.3810   61.4330 C   0  0  0  0  0  0  0  0  0  0  0  0
  131.8600  124.9310   63.3250 S   0  0  0  0  0  0  0  0  0  0  0  0
  129.5470  127.7300   69.8700 O   0  0  0  0  0  0  0  0  0  0  0  0
  128.9284  127.7912   73.7179 H   0  0  0  0  0  0  0  0  0  0  0  0
  128.0834  128.3725   72.2432 H   0  0  0  0  0  0  0  0  0  0  0  0
  128.8877  126.7664   72.2432 H   0  0  0  0  0  0  0  0  0  0  0  0
  130.1460  129.5436   72.2081 H   0  0  0  0  0  0  0  0  0  0  0  0
  131.0671  128.0765   72.7579 H   0  0  0  0  0  0  0  0  0  0  0  0
  130.0333  124.9511   68.3492 H   0  0  0  0  0  0  0  0  0  0  0  0
  128.5579  124.6896   67.3218 H   0  0  0  0  0  0  0  0  0  0  0  0
  131.6570  126.2380   66.4820 H   0  0  0  0  0  0  0  0  0  0  0  0
  134.8795  123.7896   61.4433 H   0  0  0  0  0  0  0  0  0  0  0  0
  133.1641  123.8182   60.9110 H   0  0  0  0  0  0  0  0  0  0  0  0
  134.1298  125.3328   60.9110 H   0  0  0  0  0  0  0  0  0  0  0  0
  1  2  1  0
  2  3  1  0
  3  4  2  0
  4  5  1  0
  5  6  2  0
  6  7  1  0
  7  8  1  0
  8  9  1  0
  9 10  2  0
  9 11  1  0
 11 12  1  0
 12 13  2  0
 13 14  1  0
 14 15  2  0
 15 16  1  0
 15 17  1  0
  6 18  1  0
 18  3  1  0
 17 12  1  0
  1 19  1  0
  1 20  1  0
  1 21  1  0
  2 22  1  0
  2 23  1  0
  8 24  1  0
  8 25  1  0
 11 26  1  0
 16 27  1  0
 16 28  1  0
 16 29  1  0
M  END
>  <Binding energies>  (1) 
[-6.31]

>  <Ligand effiencies>  (1) 
[-0.33210526315789474]

>  <Interactions>  (1) 
["V-B:GLU:543:C:9874, H-A:GLU:543:OE2:4910, V-A:GLU:543:C:4902, V-B:HIS:456:CD2:9039, V-B:GLU:543:CB:9878, H-A:ARG:545:NH1:4927, V-A:TYR:484:CE2:4346, V-B:GLU:543:CG:9879, V-A:GLY:544:C:4912, V-A:ASP:366:CG:3213, H-A:ARG:545:N:4920, V-A:TYR:484:CZ:4347, V-A:GLU:543:CD:4908, V-B:GLU:543:CA:9876, H-A:GLY:454:N:4050, V-A:HIS:456:CE1:4070, V-A:ILE:369:CD1:3239, H-A:ARG:545:NH2:4928, V-A:ARG:545:CZ:4926, V-A:GLU:543:CB:4906, H-A:ARG:545:NE:4924, H-A:TYR:484:OH:4348"]

$$$$
RR32_Rahimova_2017-again1
     RDKit          3D

 38 40  0  0  0  0  0  0  0  0999 V2000
  129.4280  131.9340   58.1980 C   0  0  0  0  0  0  0  0  0  0  0  0
  129.8810  132.0110   59.6490 C   0  0  0  0  0  0  0  0  0  0  0  0
  128.9530  132.2470   60.6640 C   0  0  0  0  0  0  0  0  0  0  0  0
  129.3700  132.3120   61.9970 C   0  0  0  0  0  0  0  0  0  0  0  0
  128.4590  132.5580   63.0300 N   0  0  0  0  0  0  0  0  0  0  0  0
  127.0500  132.8710   62.7230 C   0  0  0  0  0  0  0  0  0  0  0  0
  126.1820  131.6010   62.5580 C   0  0  0  0  0  0  0  0  0  0  0  0
  126.2060  130.8130   63.8820 N   0  0  0  0  0  0  0  0  0  0  0  0
  125.3690  129.5250   63.7690 C   0  0  0  0  0  0  0  0  0  0  0  0
  127.6710  130.4820   64.2330 C   0  0  0  0  0  0  0  0  0  0  0  0
  128.4730  131.8040   64.3020 C   0  0  0  0  0  0  0  0  0  0  0  0
  130.6820  132.1750   62.3360 N   0  0  0  0  0  0  0  0  0  0  0  0
  131.6100  131.9410   61.3690 C   0  0  0  0  0  0  0  0  0  0  0  0
  132.9620  131.7890   61.7590 C   0  0  0  0  0  0  0  0  0  0  0  0
  133.9440  131.5460   60.8020 C   0  0  0  0  0  0  0  0  0  0  0  0
  133.6090  131.4500   59.4550 C   0  0  0  0  0  0  0  0  0  0  0  0
  132.2880  131.5970   59.0400 C   0  0  0  0  0  0  0  0  0  0  0  0
  131.2570  131.8460   59.9880 C   0  0  0  0  0  0  0  0  0  0  0  0
  128.3442  131.7498   58.1615 H   0  0  0  0  0  0  0  0  0  0  0  0
  129.6557  132.8837   57.6919 H   0  0  0  0  0  0  0  0  0  0  0  0
  129.9567  131.1128   57.6919 H   0  0  0  0  0  0  0  0  0  0  0  0
  127.8902  132.3823   60.4147 H   0  0  0  0  0  0  0  0  0  0  0  0
  126.6366  133.4764   63.5431 H   0  0  0  0  0  0  0  0  0  0  0  0
  127.0297  133.4155   61.7674 H   0  0  0  0  0  0  0  0  0  0  0  0
  125.1479  131.8878   62.3163 H   0  0  0  0  0  0  0  0  0  0  0  0
  126.5790  130.9780   61.7430 H   0  0  0  0  0  0  0  0  0  0  0  0
  125.8270  131.4010   64.6110 H   0  0  0  0  0  0  0  0  0  0  0  0
  125.1283  129.1546   64.7764 H   0  0  0  0  0  0  0  0  0  0  0  0
  124.4374  129.7397   63.2250 H   0  0  0  0  0  0  0  0  0  0  0  0
  125.9436  128.7609   63.2250 H   0  0  0  0  0  0  0  0  0  0  0  0
  127.7126  129.9720   65.2068 H   0  0  0  0  0  0  0  0  0  0  0  0
  128.1011  129.8211   63.4660 H   0  0  0  0  0  0  0  0  0  0  0  0
  128.0374  132.4371   65.0891 H   0  0  0  0  0  0  0  0  0  0  0  0
  129.5196  131.5419   64.5165 H   0  0  0  0  0  0  0  0  0  0  0  0
  133.2379  131.8630   62.8213 H   0  0  0  0  0  0  0  0  0  0  0  0
  134.9925  131.4291   61.1134 H   0  0  0  0  0  0  0  0  0  0  0  0
  134.3954  131.2561   58.7107 H   0  0  0  0  0  0  0  0  0  0  0  0
  132.0398  131.5200   57.9711 H   0  0  0  0  0  0  0  0  0  0  0  0
  1  2  1  0
  2  3  2  0
  3  4  1  0
  4  5  1  0
  5  6  1  0
  6  7  1  0
  7  8  1  0
  8  9  1  0
  8 10  1  0
 10 11  1  0
  4 12  2  0
 12 13  1  0
 13 14  2  0
 14 15  1  0
 15 16  2  0
 16 17  1  0
 17 18  2  0
 18  2  1  0
 11  5  1  0
 18 13  1  0
  1 19  1  0
  1 20  1  0
  1 21  1  0
  3 22  1  0
  6 23  1  0
  6 24  1  0
  7 25  1  0
  7 26  1  0
  8 27  1  0
  9 28  1  0
  9 29  1  0
  9 30  1  0
 10 31  1  0
 10 32  1  0
 11 33  1  0
 11 34  1  0
 14 35  1  0
 15 36  1  0
 16 37  1  0
 17 38  1  0
M  CHG  1   8   1
M  END
>  <Binding energies>  (1) 
[-5.9]

>  <Ligand effiencies>  (1) 
[-0.3105263157894737]

>  <Interactions>  (1) 
["V-A:LEU:363:CB:3187, V-A:LEU:363:CD1:3189, V-B:TYR:484:CE2:9317, V-A:PRO:540:CB:4885, V-A:PRO:540:CA:4883, V-A:LEU:363:CA:3185, H-A:ALA:541:N:4891, V-A:ALA:541:CB:4892, V-A:PRO:540:C:4881, V-A:GLU:543:CG:4907, V-B:ARG:545:CZ:9898, V-A:GLU:543:CD:4908, H-B:TYR:484:OH:9319, V-A:ASN:362:C:3172, V-B:LEU:475:CD2:9230, V-A:ASP:366:CG:3213, V-A:ASN:362:CB:3176"]

$$$$
RR33_Rahimova_2017
     RDKit          3D

 36 37  0  0  0  0  0  0  0  0999 V2000
  132.1790  126.5990   74.1890 C   0  0  0  0  0  0  0  0  0  0  0  0
  130.7040  126.4890   74.5850 C   0  0  0  0  0  0  0  0  0  0  0  0
  129.9910  127.5750   74.0000 O   0  0  0  0  0  0  0  0  0  0  0  0
  129.7050  127.5490   72.6480 C   0  0  0  0  0  0  0  0  0  0  0  0
  130.6690  128.0930   71.7990 C   0  0  0  0  0  0  0  0  0  0  0  0
  130.4680  128.1140   70.4220 C   0  0  0  0  0  0  0  0  0  0  0  0
  129.2950  127.5890   69.8710 C   0  0  0  0  0  0  0  0  0  0  0  0
  129.0790  127.6140   68.3920 C   0  0  0  0  0  0  0  0  0  0  0  0
  129.5860  126.7990   67.4940 N   0  0  0  0  0  0  0  0  0  0  0  0
  129.1080  127.2180   66.3320 C   0  0  0  0  0  0  0  0  0  0  0  0
  129.4650  126.5090   65.0430 C   0  0  0  0  0  0  0  0  0  0  0  0
  130.7530  125.8410   65.1640 N   0  0  0  0  0  0  0  0  0  0  0  0
  130.5720  124.4150   65.3770 C   0  0  0  0  0  0  0  0  0  0  0  0
  128.2880  128.3200   66.5360 C   0  0  0  0  0  0  0  0  0  0  0  0
  127.4670  129.2260   65.6500 C   0  0  0  0  0  0  0  0  0  0  0  0
  128.2740  128.5720   67.8650 O   0  0  0  0  0  0  0  0  0  0  0  0
  128.3280  127.0400   70.7190 C   0  0  0  0  0  0  0  0  0  0  0  0
  128.5280  127.0190   72.0970 C   0  0  0  0  0  0  0  0  0  0  0  0
  132.7997  126.6453   75.0960 H   0  0  0  0  0  0  0  0  0  0  0  0
  132.4653  125.7197   73.5933 H   0  0  0  0  0  0  0  0  0  0  0  0
  132.3317  127.5110   73.5933 H   0  0  0  0  0  0  0  0  0  0  0  0
  130.2927  125.5366   74.2193 H   0  0  0  0  0  0  0  0  0  0  0  0
  130.6067  126.5238   75.6801 H   0  0  0  0  0  0  0  0  0  0  0  0
  131.5957  128.5088   72.2214 H   0  0  0  0  0  0  0  0  0  0  0  0
  131.2361  128.5459   69.7636 H   0  0  0  0  0  0  0  0  0  0  0  0
  128.6905  125.7618   64.8152 H   0  0  0  0  0  0  0  0  0  0  0  0
  129.5264  127.2529   64.2350 H   0  0  0  0  0  0  0  0  0  0  0  0
  131.2560  126.2290   65.9500 H   0  0  0  0  0  0  0  0  0  0  0  0
  130.5455  124.2060   66.4566 H   0  0  0  0  0  0  0  0  0  0  0  0
  129.6258  124.0929   64.9178 H   0  0  0  0  0  0  0  0  0  0  0  0
  131.4078  123.8667   64.9178 H   0  0  0  0  0  0  0  0  0  0  0  0
  126.8590  129.8970   66.2746 H   0  0  0  0  0  0  0  0  0  0  0  0
  128.1375  129.8236   65.0150 H   0  0  0  0  0  0  0  0  0  0  0  0
  126.8064  128.6174   65.0150 H   0  0  0  0  0  0  0  0  0  0  0  0
  127.4032  126.6220   70.2947 H   0  0  0  0  0  0  0  0  0  0  0  0
  127.7610  126.5856   72.7557 H   0  0  0  0  0  0  0  0  0  0  0  0
  1  2  1  0
  2  3  1  0
  3  4  1  0
  4  5  2  0
  5  6  1  0
  6  7  2  0
  7  8  1  0
  8  9  2  0
  9 10  1  0
 10 11  1  0
 11 12  1  0
 12 13  1  0
 10 14  2  0
 14 15  1  0
 14 16  1  0
  7 17  1  0
 17 18  2  0
 18  4  1  0
 16  8  1  0
  1 19  1  0
  1 20  1  0
  1 21  1  0
  2 22  1  0
  2 23  1  0
  5 24  1  0
  6 25  1  0
 11 26  1  0
 11 27  1  0
 12 28  1  0
 13 29  1  0
 13 30  1  0
 13 31  1  0
 15 32  1  0
 15 33  1  0
 15 34  1  0
 17 35  1  0
 18 36  1  0
M  END
>  <Binding energies>  (1) 
[-4.77]

>  <Ligand effiencies>  (1) 
[-0.25105263157894736]

>  <Interactions>  (1) 
["H-A:GLU:543:OE2:4910, V-A:GLU:543:C:4902, V-B:GLU:543:CB:9878, H-B:LYS:547:NZ:9923, V-A:TYR:484:CE2:4346, V-B:GLU:543:CG:9879, V-A:GLY:544:C:4912, V-A:HIS:456:CD2:4068, V-A:HIS:456:CB:4065, V-A:GLU:543:CD:4908, V-A:TYR:484:CZ:4347, V-B:HIS:456:CE1:9041, V-A:HIS:456:CE1:4070, V-A:GLU:543:CG:4907, V-B:GLU:543:CD:9880, H-A:LYS:547:NZ:4951, H-A:GLU:543:OE1:4909, V-A:HIS:456:CG:4066, V-A:GLU:543:CB:4906"]

$$$$
RR33_Rahimova_2017-again1
     RDKit          3D

 37 38  0  0  0  0  0  0  0  0999 V2000
  131.1640  126.5890   74.1130 C   0  0  0  0  0  0  0  0  0  0  0  0
  129.8590  127.3790   73.9720 C   0  0  0  0  0  0  0  0  0  0  0  0
  128.9730  126.6530   73.1270 O   0  0  0  0  0  0  0  0  0  0  0  0
  128.9550  126.9210   71.7710 C   0  0  0  0  0  0  0  0  0  0  0  0
  127.7410  126.7270   71.1130 C   0  0  0  0  0  0  0  0  0  0  0  0
  127.6260  126.9710   69.7480 C   0  0  0  0  0  0  0  0  0  0  0  0
  128.7320  127.4160   69.0160 C   0  0  0  0  0  0  0  0  0  0  0  0
  128.6120  127.6810   67.5500 C   0  0  0  0  0  0  0  0  0  0  0  0
  129.0810  126.9510   66.5610 N   0  0  0  0  0  0  0  0  0  0  0  0
  128.7260  127.5860   65.4550 C   0  0  0  0  0  0  0  0  0  0  0  0
  129.1010  127.0490   64.0870 C   0  0  0  0  0  0  0  0  0  0  0  0
  130.5760  126.6130   64.1050 N   0  0  0  0  0  0  0  0  0  0  0  0
  130.8150  125.2300   63.4830 C   0  0  0  0  0  0  0  0  0  0  0  0
  128.0270  128.7410   65.7870 C   0  0  0  0  0  0  0  0  0  0  0  0
  127.3790  129.8640   65.0160 C   0  0  0  0  0  0  0  0  0  0  0  0
  127.9560  128.7950   67.1380 O   0  0  0  0  0  0  0  0  0  0  0  0
  129.9520  127.6120   69.6720 C   0  0  0  0  0  0  0  0  0  0  0  0
  130.0650  127.3680   71.0380 C   0  0  0  0  0  0  0  0  0  0  0  0
  131.3947  126.4494   75.1794 H   0  0  0  0  0  0  0  0  0  0  0  0
  131.0520  125.6069   73.6304 H   0  0  0  0  0  0  0  0  0  0  0  0
  131.9823  127.1435   73.6304 H   0  0  0  0  0  0  0  0  0  0  0  0
  129.3990  127.5130   74.9622 H   0  0  0  0  0  0  0  0  0  0  0  0
  130.0655  128.3676   73.5361 H   0  0  0  0  0  0  0  0  0  0  0  0
  126.8650  126.3774   71.6790 H   0  0  0  0  0  0  0  0  0  0  0  0
  126.6618  126.8134   69.2425 H   0  0  0  0  0  0  0  0  0  0  0  0
  128.4646  126.1856   63.8430 H   0  0  0  0  0  0  0  0  0  0  0  0
  128.9551  127.8322   63.3285 H   0  0  0  0  0  0  0  0  0  0  0  0
  131.1240  127.2970   63.6050 H   0  0  0  0  0  0  0  0  0  0  0  0
  130.8950  126.5990   65.0640 H   0  0  0  0  0  0  0  0  0  0  0  0
  130.9436  124.4856   64.2826 H   0  0  0  0  0  0  0  0  0  0  0  0
  129.9513  124.9538   62.8604 H   0  0  0  0  0  0  0  0  0  0  0  0
  131.7213  125.2596   62.8604 H   0  0  0  0  0  0  0  0  0  0  0  0
  126.9566  130.5961   65.7200 H   0  0  0  0  0  0  0  0  0  0  0  0
  128.1319  130.3563   64.3829 H   0  0  0  0  0  0  0  0  0  0  0  0
  126.5760  129.4585   64.3829 H   0  0  0  0  0  0  0  0  0  0  0  0
  130.8275  127.9611   69.1049 H   0  0  0  0  0  0  0  0  0  0  0  0
  131.0284  127.5263   71.5448 H   0  0  0  0  0  0  0  0  0  0  0  0
  1  2  1  0
  2  3  1  0
  3  4  1  0
  4  5  2  0
  5  6  1  0
  6  7  2  0
  7  8  1  0
  8  9  2  0
  9 10  1  0
 10 11  1  0
 11 12  1  0
 12 13  1  0
 10 14  2  0
 14 15  1  0
 14 16  1  0
  7 17  1  0
 17 18  2  0
 18  4  1  0
 16  8  1  0
  1 19  1  0
  1 20  1  0
  1 21  1  0
  2 22  1  0
  2 23  1  0
  5 24  1  0
  6 25  1  0
 11 26  1  0
 11 27  1  0
 12 28  1  0
 12 29  1  0
 13 30  1  0
 13 31  1  0
 13 32  1  0
 15 33  1  0
 15 34  1  0
 15 35  1  0
 17 36  1  0
 18 37  1  0
M  CHG  1  12   1
M  END
>  <Binding energies>  (1) 
[-6.08]

>  <Ligand effiencies>  (1) 
[-0.304]

>  <Interactions>  (1) 
["V-A:HIS:456:CE1:4070, V-B:GLY:544:C:9884, V-B:GLU:543:C:9874, H-A:GLU:543:OE2:4910, V-B:GLU:543:CB:9878, H-B:LYS:547:NZ:9923, V-B:GLY:544:CA:9886, V-A:GLU:543:CG:4907, V-B:GLU:543:CD:9880, V-A:HIS:456:CG:4066, V-A:GLU:543:CD:4908, V-B:GLU:543:CG:9879, H-A:GLU:543:OE1:4909, V-B:HIS:456:CE1:9041, V-A:HIS:456:CD2:4068, V-A:GLU:543:CB:4906"]

$$$$
RR5_Rahimova_2017
     RDKit          3D

 77 82  0  0  0  0  0  0  0  0999 V2000
  129.0430  132.6380   61.1890 O   0  0  0  0  0  0  0  0  0  0  0  0
  128.6810  131.4710   61.3280 C   0  0  0  0  0  0  0  0  0  0  0  0
  127.6490  131.1160   62.4150 C   0  0  0  0  0  0  0  0  0  0  0  0
  127.9800  129.8000   63.2050 C   0  0  2  0  0  0  0  0  0  0  0  0
  127.2540  128.5980   62.7470 N   0  0  0  0  0  0  0  0  0  0  0  0
  127.8280  127.6950   61.8630 C   0  0  0  0  0  0  0  0  0  0  0  0
  128.9720  127.7400   61.4040 O   0  0  0  0  0  0  0  0  0  0  0  0
  126.9160  126.7510   61.5710 O   0  0  0  0  0  0  0  0  0  0  0  0
  126.7970  126.2150   60.2560 C   0  0  0  0  0  0  0  0  0  0  0  0
  126.5340  124.6940   60.3050 C   0  0  0  0  0  0  0  0  0  0  0  0
  126.3260  124.0670   58.9380 C   0  0  0  0  0  0  0  0  0  0  0  0
  125.3780  124.3690   57.9560 C   0  0  0  0  0  0  0  0  0  0  0  0
  125.3840  123.6720   56.7470 C   0  0  0  0  0  0  0  0  0  0  0  0
  126.3320  122.6740   56.5170 C   0  0  0  0  0  0  0  0  0  0  0  0
  127.2790  122.3690   57.4970 C   0  0  0  0  0  0  0  0  0  0  0  0
  127.2710  123.0670   58.7050 C   0  0  0  0  0  0  0  0  0  0  0  0
  128.1290  122.9520   59.8960 C   0  0  0  0  0  0  0  0  0  0  0  0
  129.2030  122.1040   60.1760 C   0  0  0  0  0  0  0  0  0  0  0  0
  129.8420  122.1860   61.4130 C   0  0  0  0  0  0  0  0  0  0  0  0
  129.4120  123.1140   62.3650 C   0  0  0  0  0  0  0  0  0  0  0  0
  128.3410  123.9610   62.0790 C   0  0  0  0  0  0  0  0  0  0  0  0
  127.7000  123.8840   60.8400 C   0  0  0  0  0  0  0  0  0  0  0  0
  127.7520  129.9990   64.7240 C   0  0  0  0  0  0  0  0  0  0  0  0
  128.2860  130.8580   65.3970 O   0  0  0  0  0  0  0  0  0  0  0  0
  126.8520  129.0780   65.1780 O   0  0  0  0  0  0  0  0  0  0  0  0
  129.1000  130.4370   60.5630 N   0  0  0  0  0  0  0  0  0  0  0  0
  130.0620  130.3240   59.4260 C   0  0  0  0  0  0  0  0  0  0  0  0
  129.4170  131.2680   58.3570 C   0  0  0  0  0  0  0  0  0  0  0  0
  130.2010  132.1340   57.5750 C   0  0  0  0  0  0  0  0  0  0  0  0
  129.6160  132.9680   56.6260 C   0  0  0  0  0  0  0  0  0  0  0  0
  128.2370  132.9600   56.4510 C   0  0  0  0  0  0  0  0  0  0  0  0
  127.4370  132.1130   57.2090 C   0  0  0  0  0  0  0  0  0  0  0  0
  128.0230  131.2720   58.1500 C   0  0  0  0  0  0  0  0  0  0  0  0
  131.4480  130.8460   59.9330 C   0  0  0  0  0  0  0  0  0  0  0  0
  131.6620  131.1830   61.2790 C   0  0  0  0  0  0  0  0  0  0  0  0
  132.8980  131.6650   61.7040 C   0  0  0  0  0  0  0  0  0  0  0  0
  133.9350  131.8170   60.7890 C   0  0  0  0  0  0  0  0  0  0  0  0
  133.7480  131.4860   59.4510 C   0  0  0  0  0  0  0  0  0  0  0  0
  132.5150  130.9970   59.0300 C   0  0  0  0  0  0  0  0  0  0  0  0
  130.0490  128.8180   58.9950 C   0  0  0  0  0  0  0  0  0  0  0  0
  131.1090  127.9580   59.3370 C   0  0  0  0  0  0  0  0  0  0  0  0
  131.1070  126.6210   58.9490 C   0  0  0  0  0  0  0  0  0  0  0  0
  130.0390  126.1170   58.2160 C   0  0  0  0  0  0  0  0  0  0  0  0
  128.9710  126.9380   57.8750 C   0  0  0  0  0  0  0  0  0  0  0  0
  128.9770  128.2750   58.2640 C   0  0  0  0  0  0  0  0  0  0  0  0
  127.6029  131.9481   63.1330 H   0  0  0  0  0  0  0  0  0  0  0  0
  126.6914  130.9462   61.9011 H   0  0  0  0  0  0  0  0  0  0  0  0
  129.0428  129.6088   62.9954 H   0  0  0  0  0  0  0  0  0  0  0  0
  126.2670  128.5310   62.9480 H   0  0  0  0  0  0  0  0  0  0  0  0
  125.9608  126.7090   59.7396 H   0  0  0  0  0  0  0  0  0  0  0  0
  127.7390  126.3925   59.7165 H   0  0  0  0  0  0  0  0  0  0  0  0
  125.6431  124.6518   60.9488 H   0  0  0  0  0  0  0  0  0  0  0  0
  124.6290  125.1543   58.1359 H   0  0  0  0  0  0  0  0  0  0  0  0
  124.6394  123.9099   55.9731 H   0  0  0  0  0  0  0  0  0  0  0  0
  126.3333  122.1270   55.5627 H   0  0  0  0  0  0  0  0  0  0  0  0
  128.0271  121.5828   57.3175 H   0  0  0  0  0  0  0  0  0  0  0  0
  129.5429  121.3756   59.4251 H   0  0  0  0  0  0  0  0  0  0  0  0
  130.6865  121.5185   61.6397 H   0  0  0  0  0  0  0  0  0  0  0  0
  129.9179  123.1767   63.3398 H   0  0  0  0  0  0  0  0  0  0  0  0
  128.0010  124.6899   62.8294 H   0  0  0  0  0  0  0  0  0  0  0  0
  126.8870  128.2590   64.6800 H   0  0  0  0  0  0  0  0  0  0  0  0
  128.7770  129.5340   60.8790 H   0  0  0  0  0  0  0  0  0  0  0  0
  131.2919  132.1530   57.7148 H   0  0  0  0  0  0  0  0  0  0  0  0
  130.2445  133.6327   56.0152 H   0  0  0  0  0  0  0  0  0  0  0  0
  127.7762  133.6279   55.7083 H   0  0  0  0  0  0  0  0  0  0  0  0
  126.3464  132.1076   57.0657 H   0  0  0  0  0  0  0  0  0  0  0  0
  127.3869  130.5983   58.7429 H   0  0  0  0  0  0  0  0  0  0  0  0
  130.8448  131.0652   62.0059 H   0  0  0  0  0  0  0  0  0  0  0  0
  133.0539  131.9250   62.7614 H   0  0  0  0  0  0  0  0  0  0  0  0
  134.9090  132.2014   61.1259 H   0  0  0  0  0  0  0  0  0  0  0  0
  134.5696  131.6100   58.7302 H   0  0  0  0  0  0  0  0  0  0  0  0
  132.3729  130.7243   57.9739 H   0  0  0  0  0  0  0  0  0  0  0  0
  131.9546  128.3493   59.9216 H   0  0  0  0  0  0  0  0  0  0  0  0
  131.9475  125.9659   59.2215 H   0  0  0  0  0  0  0  0  0  0  0  0
  130.0392  125.0622   57.9040 H   0  0  0  0  0  0  0  0  0  0  0  0
  128.1247  126.5336   57.3004 H   0  0  0  0  0  0  0  0  0  0  0  0
  128.1269  128.9190   57.9944 H   0  0  0  0  0  0  0  0  0  0  0  0
  1  2  2  0
  2  3  1  0
  3  4  1  0
  4  5  1  0
  5  6  1  0
  6  7  2  0
  6  8  1  0
  8  9  1  0
  9 10  1  0
 10 11  1  0
 11 12  2  0
 12 13  1  0
 13 14  2  0
 14 15  1  0
 15 16  2  0
 16 17  1  0
 17 18  2  0
 18 19  1  0
 19 20  2  0
 20 21  1  0
 21 22  2  0
  4 23  1  0
 23 24  2  0
 23 25  1  0
  2 26  1  0
 26 27  1  0
 27 28  1  0
 28 29  2  0
 29 30  1  0
 30 31  2  0
 31 32  1  0
 32 33  2  0
 27 34  1  0
 34 35  2  0
 35 36  1  0
 36 37  2  0
 37 38  1  0
 38 39  2  0
 27 40  1  0
 40 41  2  0
 41 42  1  0
 42 43  2  0
 43 44  1  0
 44 45  2  0
 22 10  1  0
 33 28  1  0
 39 34  1  0
 45 40  1  0
 16 11  1  0
 22 17  1  0
  3 46  1  0
  3 47  1  0
  4 48  1  1
  5 49  1  0
  9 50  1  0
  9 51  1  0
 10 52  1  0
 12 53  1  0
 13 54  1  0
 14 55  1  0
 15 56  1  0
 18 57  1  0
 19 58  1  0
 20 59  1  0
 21 60  1  0
 25 61  1  0
 26 62  1  0
 29 63  1  0
 30 64  1  0
 31 65  1  0
 32 66  1  0
 33 67  1  0
 35 68  1  0
 36 69  1  0
 37 70  1  0
 38 71  1  0
 39 72  1  0
 41 73  1  0
 42 74  1  0
 43 75  1  0
 44 76  1  0
 45 77  1  0
M  END
>  <Binding energies>  (1) 
[-9.33]

>  <Ligand effiencies>  (1) 
[-0.194375]

>  <Interactions>  (1) 
["V-B:TYR:539:CA:9841, V-B:PRO:540:CA:9855, V-B:TYR:539:CE2:9848, V-A:TYR:539:CE2:4876, V-B:TYR:539:C:9839, V-A:ASP:366:CG:3213, V-A:ASN:362:CB:3176, V-A:TYR:539:CD1:4873, V-A:LEU:363:CB:3187, V-A:LEU:363:CD1:3189, V-A:ILE:538:CA:4860, H-B:GLU:543:OE1:9881, V-A:TYR:539:CZ:4877, V-A:GLU:543:CD:4908, V-B:PRO:540:CB:9857, H-B:TYR:484:OH:9319, V-B:PRO:540:N:9856, V-B:PRO:540:CD:9859, V-B:TYR:539:CD2:9846, V-A:GLU:543:CG:4907, V-A:MET:535:CE:4835, V-B:GLU:543:CD:9880, V-A:ASN:362:C:3172, V-B:TYR:539:CG:9844, H-B:ARG:545:NH2:9900, V-B:TYR:539:CD1:9845, V-A:TYR:539:CG:4872, V-B:LEU:363:CD1:8160, H-B:GLU:543:OE2:9882, V-A:PRO:540:CB:4885, V-A:PRO:540:CA:4883, V-A:LEU:363:CA:3185, V-A:TYR:539:CD2:4874, V-B:MET:535:CE:9807, V-A:TYR:539:CE1:4875"]

$$$$
