1a_Ghoteimi_2023
     RDKit          3D

 40 43  0  0  0  0  0  0  0  0999 V2000
  124.7850  124.6430   57.0180 C   0  0  0  0  0  0  0  0  0  0  0  0
  125.2510  123.4710   56.1490 C   0  0  0  0  0  0  0  0  0  0  0  0
  125.7170  122.4200   56.9860 O   0  0  0  0  0  0  0  0  0  0  0  0
  127.0400  122.2690   57.2510 C   0  0  0  0  0  0  0  0  0  0  0  0
  127.8610  121.8740   56.4170 O   0  0  0  0  0  0  0  0  0  0  0  0
  127.4080  122.6360   58.6600 C   0  0  0  0  0  0  0  0  0  0  0  0
  126.4760  123.1920   59.5490 C   0  0  0  0  0  0  0  0  0  0  0  0
  126.8470  123.5260   60.8490 C   0  0  0  0  0  0  0  0  0  0  0  0
  128.1610  123.3030   61.2860 C   0  0  0  0  0  0  0  0  0  0  0  0
  128.6450  123.6060   62.5730 N   0  0  0  0  0  0  0  0  0  0  0  0
  129.5580  122.9570   63.3290 C   0  0  0  0  0  0  0  0  0  0  0  0
  130.1700  121.9420   62.9990 O   0  0  0  0  0  0  0  0  0  0  0  0
  129.8310  123.5730   64.7010 C   0  0  0  0  0  0  0  0  0  0  0  0
  130.6390  125.1940   64.5630 S   0  0  0  0  0  0  0  0  0  0  0  0
  129.5570  126.3570   65.3620 C   0  0  0  0  0  0  0  0  0  0  0  0
  129.6740  126.3790   66.7110 N   0  0  0  0  0  0  0  0  0  0  0  0
  128.9050  127.2290   67.4420 C   0  0  0  0  0  0  0  0  0  0  0  0
  129.1080  127.2080   68.9290 C   0  0  0  0  0  0  0  0  0  0  0  0
  130.2010  127.8580   69.5260 C   0  0  0  0  0  0  0  0  0  0  0  0
  130.3860  127.8380   70.9050 C   0  0  0  0  0  0  0  0  0  0  0  0
  129.4870  127.1670   71.7310 C   0  0  0  0  0  0  0  0  0  0  0  0
  129.7480  127.2020   73.0880 O   0  0  0  0  0  0  0  0  0  0  0  0
  128.6620  127.3260   74.0000 C   0  0  0  0  0  0  0  0  0  0  0  0
  128.3940  126.5100   71.1510 C   0  0  0  0  0  0  0  0  0  0  0  0
  128.2120  126.5320   69.7710 C   0  0  0  0  0  0  0  0  0  0  0  0
  127.9910  128.0820   66.8120 C   0  0  0  0  0  0  0  0  0  0  0  0
  127.8350  128.0600   65.4200 C   0  0  0  0  0  0  0  0  0  0  0  0
  126.8180  128.9760   64.8200 C   0  0  0  0  0  0  0  0  0  0  0  0
  125.4970  128.9800   65.2790 C   0  0  0  0  0  0  0  0  0  0  0  0
  124.5590  129.8470   64.7250 C   0  0  0  0  0  0  0  0  0  0  0  0
  124.9230  130.7300   63.7090 C   0  0  0  0  0  0  0  0  0  0  0  0
  123.9260  131.5520   63.2210 O   0  0  0  0  0  0  0  0  0  0  0  0
  124.2360  132.4810   62.1880 C   0  0  0  0  0  0  0  0  0  0  0  0
  126.2490  130.7340   63.2510 C   0  0  0  0  0  0  0  0  0  0  0  0
  127.1860  129.8660   63.8060 C   0  0  0  0  0  0  0  0  0  0  0  0
  128.6420  127.1760   64.6650 C   0  0  0  0  0  0  0  0  0  0  0  0
  128.5350  127.1180   63.2030 C   0  0  0  0  0  0  0  0  0  0  0  0
  128.4500  127.0740   62.0500 N   0  0  0  0  0  0  0  0  0  0  0  0
  129.0910  122.7540   60.4030 C   0  0  0  0  0  0  0  0  0  0  0  0
  128.7190  122.4210   59.1030 C   0  0  0  0  0  0  0  0  0  0  0  0
  1  2  1  0
  2  3  1  0
  3  4  1  0
  4  5  2  0
  4  6  1  0
  6  7  2  0
  7  8  1  0
  8  9  2  0
  9 10  1  0
 10 11  1  0
 11 12  2  0
 11 13  1  0
 13 14  1  0
 14 15  1  0
 15 16  2  0
 16 17  1  0
 17 18  1  0
 18 19  2  0
 19 20  1  0
 20 21  2  0
 21 22  1  0
 22 23  1  0
 21 24  1  0
 24 25  2  0
 17 26  2  0
 26 27  1  0
 27 28  1  0
 28 29  2  0
 29 30  1  0
 30 31  2  0
 31 32  1  0
 32 33  1  0
 31 34  1  0
 34 35  2  0
 27 36  2  0
 36 37  1  0
 37 38  3  0
  9 39  1  0
 39 40  2  0
 40  6  1  0
 36 15  1  0
 25 18  1  0
 35 28  1  0
M  END
>  <Binding energies>  (1) 
[-10.98]

>  <Ligand effiencies>  (1) 
[-0.2678048780487805]

>  <Interactions>  (1) 
["V-B:GLU:543:CG:9876, V-B:HIS:456:CE1:9038, V-B:ARG:545:CZ:9895, V-B:GLU:543:CD:9877, H-B:GLU:543:OE1:9878, V-A:GLU:543:CD:4905, V-B:GLU:543:CB:9875, H-B:GLU:543:OE2:9879, H-B:GLY:454:N:9018, V-B:GLY:454:CA:9017, V-A:HIS:456:CE1:4066, V-B:PRO:540:N:9853, V-B:LEU:363:CD1:8157, V-B:PRO:540:CD:9856, H-B:TYR:539:N:9839, V-B:PRO:540:CB:9854, V-B:PRO:540:CA:9852, V-B:TYR:539:CZ:9846, V-B:TYR:539:CE2:9845, V-B:TYR:531:CE2:9762, V-B:TYR:539:C:9836, V-B:TYR:531:CZ:9763, V-B:ALA:541:CB:9861, V-B:TYR:539:CD2:9843, V-B:ILE:369:CD1:8207, V-A:TYR:484:CE1:4341, V-A:GLU:543:C:4899, V-B:LYS:547:CE:9919, V-B:HIS:456:CD2:9036, V-A:LYS:547:CE:4947, H-A:LYS:547:NZ:4948, V-A:HIS:456:CD2:4064, V-A:GLY:544:C:4909"]

$$$$
1b_Ghoteimi_2023
     RDKit          3D

 34 37  0  0  0  0  0  0  0  0999 V2000
  128.6310  127.3770   74.1440 C   0  0  0  0  0  0  0  0  0  0  0  0
  129.7320  126.9840   73.3340 O   0  0  0  0  0  0  0  0  0  0  0  0
  129.6210  127.0700   71.9590 C   0  0  0  0  0  0  0  0  0  0  0  0
  128.4830  126.5050   71.3870 C   0  0  0  0  0  0  0  0  0  0  0  0
  128.2870  126.5440   70.0100 C   0  0  0  0  0  0  0  0  0  0  0  0
  129.2230  127.1530   69.1610 C   0  0  0  0  0  0  0  0  0  0  0  0
  129.0090  127.1900   67.6740 C   0  0  0  0  0  0  0  0  0  0  0  0
  128.1100  128.0660   67.0560 C   0  0  0  0  0  0  0  0  0  0  0  0
  127.9500  128.0640   65.6650 C   0  0  0  0  0  0  0  0  0  0  0  0
  126.9690  129.0230   65.0750 C   0  0  0  0  0  0  0  0  0  0  0  0
  125.5960  128.8280   65.2540 C   0  0  0  0  0  0  0  0  0  0  0  0
  124.6770  129.7140   64.6990 C   0  0  0  0  0  0  0  0  0  0  0  0
  125.1110  130.8090   63.9510 C   0  0  0  0  0  0  0  0  0  0  0  0
  124.1290  131.6340   63.4380 O   0  0  0  0  0  0  0  0  0  0  0  0
  123.7860  131.5320   62.0600 C   0  0  0  0  0  0  0  0  0  0  0  0
  126.4870  131.0040   63.7610 C   0  0  0  0  0  0  0  0  0  0  0  0
  127.4030  130.1150   64.3170 C   0  0  0  0  0  0  0  0  0  0  0  0
  128.7290  127.1630   64.8980 C   0  0  0  0  0  0  0  0  0  0  0  0
  128.6690  127.1870   63.4330 C   0  0  0  0  0  0  0  0  0  0  0  0
  128.6220  127.2070   62.2770 N   0  0  0  0  0  0  0  0  0  0  0  0
  129.6020  126.2910   65.5860 C   0  0  0  0  0  0  0  0  0  0  0  0
  130.6490  125.0900   64.7890 S   0  0  0  0  0  0  0  0  0  0  0  0
  132.3820  125.5170   65.1670 C   0  0  0  0  0  0  0  0  0  0  0  0
  133.4080  125.0490   64.1250 C   0  0  0  0  0  0  0  0  0  0  0  0
  134.6160  125.0940   64.3660 O   0  0  0  0  0  0  0  0  0  0  0  0
  132.8720  124.6040   62.9660 N   0  0  0  0  0  0  0  0  0  0  0  0
  133.5530  124.1210   61.8550 C   0  0  0  0  0  0  0  0  0  0  0  0
  132.9170  123.7700   60.6650 C   0  0  0  0  0  0  0  0  0  0  0  0
  133.9260  123.3480   59.8310 C   0  0  0  0  0  0  0  0  0  0  0  0
  135.1090  123.4430   60.4840 O   0  0  0  0  0  0  0  0  0  0  0  0
  134.8600  123.9340   61.7650 N   0  0  0  0  0  0  0  0  0  0  0  0
  129.7470  126.3240   66.9320 N   0  0  0  0  0  0  0  0  0  0  0  0
  130.3670  127.7170   69.7480 C   0  0  0  0  0  0  0  0  0  0  0  0
  130.5680  127.6800   71.1240 C   0  0  0  0  0  0  0  0  0  0  0  0
  1  2  1  0
  2  3  1  0
  3  4  2  0
  4  5  1  0
  5  6  2  0
  6  7  1  0
  7  8  2  0
  8  9  1  0
  9 10  1  0
 10 11  2  0
 11 12  1  0
 12 13  2  0
 13 14  1  0
 14 15  1  0
 13 16  1  0
 16 17  2  0
  9 18  2  0
 18 19  1  0
 19 20  3  0
 18 21  1  0
 21 22  1  0
 22 23  1  0
 23 24  1  0
 24 25  2  0
 24 26  1  0
 26 27  1  0
 27 28  1  0
 28 29  2  0
 29 30  1  0
 30 31  1  0
 21 32  2  0
  6 33  1  0
 33 34  2  0
 34  3  1  0
 32  7  1  0
 17 10  1  0
 31 27  2  0
M  END
>  <Binding energies>  (2) 
[-9.66]

>  <Ligand effiencies>  (2) 
[-0.276]

>  <Interactions>  (2) 
["V-B:HIS:456:CE1:9038, V-B:ARG:545:CZ:9895, V-B:GLU:543:CD:9877, V-A:GLU:543:CD:4905, V-A:GLU:543:CG:4904, H-B:GLY:454:N:9018, V-A:HIS:456:CE1:4066, V-A:ASP:366:CG:3209, V-B:TYR:539:CZ:9846, V-B:TYR:539:CE2:9845, V-A:ASP:366:CB:3208, H-A:ARG:545:NH2:4925, V-B:ILE:369:CD1:8207, V-B:ASP:366:CG:8181, V-B:LYS:547:CE:9919, V-A:LYS:547:CE:4947, H-A:LYS:547:NZ:4948, H-A:GLY:454:N:4046, V-A:ARG:545:CZ:4923, H-A:TYR:484:OH:4344, V-A:HIS:456:CD2:4064, H-A:ARG:545:NE:4921, V-A:ILE:369:CG2:3233, V-A:ASP:366:CA:3206, V-A:ILE:369:CG1:3234, V-A:ILE:369:CB:3232, H-A:ARG:545:NH1:4924, V-A:GLY:544:C:4909"]

$$$$
1c_Ghoteimi_2023
     RDKit          3D

 34 37  0  0  0  0  0  0  0  0999 V2000
  130.1950  125.6540   73.6150 C   0  0  0  0  0  0  0  0  0  0  0  0
  129.8190  126.9130   73.0660 O   0  0  0  0  0  0  0  0  0  0  0  0
  129.5180  126.9990   71.7200 C   0  0  0  0  0  0  0  0  0  0  0  0
  130.4040  127.7230   70.9260 C   0  0  0  0  0  0  0  0  0  0  0  0
  130.1770  127.8650   69.5600 C   0  0  0  0  0  0  0  0  0  0  0  0
  129.0550  127.2870   68.9460 C   0  0  0  0  0  0  0  0  0  0  0  0
  128.8040  127.4420   67.4740 C   0  0  0  0  0  0  0  0  0  0  0  0
  127.9790  128.4410   66.9480 C   0  0  0  0  0  0  0  0  0  0  0  0
  127.7960  128.5630   65.5660 C   0  0  0  0  0  0  0  0  0  0  0  0
  126.9560  129.6940   65.0720 C   0  0  0  0  0  0  0  0  0  0  0  0
  125.6090  129.4940   64.7560 C   0  0  0  0  0  0  0  0  0  0  0  0
  124.8330  130.5440   64.2750 C   0  0  0  0  0  0  0  0  0  0  0  0
  125.3890  131.8110   64.0960 C   0  0  0  0  0  0  0  0  0  0  0  0
  124.5440  132.7930   63.6140 O   0  0  0  0  0  0  0  0  0  0  0  0
  124.1020  132.7270   62.2620 C   0  0  0  0  0  0  0  0  0  0  0  0
  126.7420  132.0140   64.4050 C   0  0  0  0  0  0  0  0  0  0  0  0
  127.5170  130.9620   64.8860 C   0  0  0  0  0  0  0  0  0  0  0  0
  128.4430  127.6330   64.7170 C   0  0  0  0  0  0  0  0  0  0  0  0
  128.2650  127.6860   63.2620 C   0  0  0  0  0  0  0  0  0  0  0  0
  128.1250  127.7300   62.1140 N   0  0  0  0  0  0  0  0  0  0  0  0
  129.2740  126.6620   65.3120 C   0  0  0  0  0  0  0  0  0  0  0  0
  130.2770  125.5420   64.3610 S   0  0  0  0  0  0  0  0  0  0  0  0
  131.8710  125.4800   65.2430 C   0  0  0  0  0  0  0  0  0  0  0  0
  133.0280  125.0810   64.3200 C   0  0  0  0  0  0  0  0  0  0  0  0
  134.1690  125.0020   64.7750 O   0  0  0  0  0  0  0  0  0  0  0  0
  132.6760  124.7980   63.0460 N   0  0  0  0  0  0  0  0  0  0  0  0
  133.4940  124.2710   62.0590 C   0  0  0  0  0  0  0  0  0  0  0  0
  134.7980  124.1010   62.0960 N   0  0  0  0  0  0  0  0  0  0  0  0
  135.2420  123.5310   60.9920 C   0  0  0  0  0  0  0  0  0  0  0  0
  134.2860  123.2250   60.0290 C   0  0  0  0  0  0  0  0  0  0  0  0
  132.7220  123.7150   60.6090 S   0  0  0  0  0  0  0  0  0  0  0  0
  129.4550  126.5770   66.6520 N   0  0  0  0  0  0  0  0  0  0  0  0
  128.1730  126.5550   69.7540 C   0  0  0  0  0  0  0  0  0  0  0  0
  128.3950  126.4120   71.1210 C   0  0  0  0  0  0  0  0  0  0  0  0
  1  2  1  0
  2  3  1  0
  3  4  2  0
  4  5  1  0
  5  6  2  0
  6  7  1  0
  7  8  2  0
  8  9  1  0
  9 10  1  0
 10 11  2  0
 11 12  1  0
 12 13  2  0
 13 14  1  0
 14 15  1  0
 13 16  1  0
 16 17  2  0
  9 18  2  0
 18 19  1  0
 19 20  3  0
 18 21  1  0
 21 22  1  0
 22 23  1  0
 23 24  1  0
 24 25  2  0
 24 26  1  0
 26 27  1  0
 27 28  2  0
 28 29  1  0
 29 30  2  0
 30 31  1  0
 21 32  2  0
  6 33  1  0
 33 34  2  0
 34  3  1  0
 32  7  1  0
 17 10  1  0
 31 27  1  0
M  END
>  <Binding energies>  (3) 
[-9.5]

>  <Ligand effiencies>  (3) 
[-0.2714285714285714]

>  <Interactions>  (3) 
["V-B:HIS:456:CE1:9038, V-B:ARG:545:CZ:9895, V-B:TYR:484:CZ:9315, V-B:GLU:543:CD:9877, V-A:GLU:543:CD:4905, V-A:GLU:543:CG:4904, H-B:GLY:454:N:9018, V-B:GLY:454:CA:9017, V-A:HIS:456:CE1:4066, V-A:ASP:366:CG:3209, V-B:TYR:539:CE2:9845, V-B:TYR:484:CE1:9313, V-B:ILE:369:CD1:8207, V-A:GLU:543:C:4899, V-B:LYS:547:CE:9919, H-A:LYS:547:NZ:4948, H-A:GLY:454:N:4046, V-A:ARG:545:CZ:4923, H-A:TYR:484:OH:4344, V-A:GLY:453:C:4038, V-A:GLY:453:CA:4040, V-A:HIS:456:CD2:4064, H-A:ARG:545:NE:4921, V-A:ILE:369:CG2:3233, V-A:ASP:366:CA:3206, V-A:ILE:369:CG1:3234, V-A:ILE:369:CB:3232, H-A:ARG:545:NH1:4924, V-A:GLY:544:C:4909"]

$$$$
1d_Ghoteimi_2023
     RDKit          3D

 30 32  0  0  0  0  0  0  0  0999 V2000
  124.4780  129.9360   63.1860 C   0  0  0  0  0  0  0  0  0  0  0  0
  124.5040  130.6000   64.4400 O   0  0  0  0  0  0  0  0  0  0  0  0
  124.2810  129.9180   65.5820 C   0  0  0  0  0  0  0  0  0  0  0  0
  123.3820  130.1350   66.3970 O   0  0  0  0  0  0  0  0  0  0  0  0
  125.2930  128.7960   65.7950 C   0  0  0  0  0  0  0  0  0  0  0  0
  126.9240  129.4300   65.3040 S   0  0  0  0  0  0  0  0  0  0  0  0
  128.1350  128.2720   65.9020 C   0  0  0  0  0  0  0  0  0  0  0  0
  128.2110  128.2100   67.2530 N   0  0  0  0  0  0  0  0  0  0  0  0
  129.0970  127.3690   67.8440 C   0  0  0  0  0  0  0  0  0  0  0  0
  129.1140  127.3570   69.3460 C   0  0  0  0  0  0  0  0  0  0  0  0
  130.1000  128.0480   70.0690 C   0  0  0  0  0  0  0  0  0  0  0  0
  130.1170  128.0300   71.4600 C   0  0  0  0  0  0  0  0  0  0  0  0
  129.1530  127.3220   72.1730 C   0  0  0  0  0  0  0  0  0  0  0  0
  129.2500  127.3570   73.5500 O   0  0  0  0  0  0  0  0  0  0  0  0
  128.1330  127.8010   74.3130 C   0  0  0  0  0  0  0  0  0  0  0  0
  128.1620  126.6260   71.4650 C   0  0  0  0  0  0  0  0  0  0  0  0
  128.1480  126.6470   70.0730 C   0  0  0  0  0  0  0  0  0  0  0  0
  129.9300  126.5530   67.0700 C   0  0  0  0  0  0  0  0  0  0  0  0
  129.8840  126.6070   65.6720 C   0  0  0  0  0  0  0  0  0  0  0  0
  130.8060  125.7130   64.9070 C   0  0  0  0  0  0  0  0  0  0  0  0
  132.1820  125.9650   64.8960 C   0  0  0  0  0  0  0  0  0  0  0  0
  133.0470  125.1370   64.1860 C   0  0  0  0  0  0  0  0  0  0  0  0
  132.5570  124.0400   63.4790 C   0  0  0  0  0  0  0  0  0  0  0  0
  133.4870  123.2780   62.7980 O   0  0  0  0  0  0  0  0  0  0  0  0
  133.8790  123.6680   61.4860 C   0  0  0  0  0  0  0  0  0  0  0  0
  131.1790  123.7750   63.4970 C   0  0  0  0  0  0  0  0  0  0  0  0
  130.3160  124.6040   64.2080 C   0  0  0  0  0  0  0  0  0  0  0  0
  128.9750  127.5070   65.0610 C   0  0  0  0  0  0  0  0  0  0  0  0
  128.9570  127.6800   63.6060 C   0  0  0  0  0  0  0  0  0  0  0  0
  128.9440  127.8160   62.4570 N   0  0  0  0  0  0  0  0  0  0  0  0
  1  2  1  0
  2  3  1  0
  3  4  2  0
  3  5  1  0
  5  6  1  0
  6  7  1  0
  7  8  2  0
  8  9  1  0
  9 10  1  0
 10 11  2  0
 11 12  1  0
 12 13  2  0
 13 14  1  0
 14 15  1  0
 13 16  1  0
 16 17  2  0
  9 18  2  0
 18 19  1  0
 19 20  1  0
 20 21  2  0
 21 22  1  0
 22 23  2  0
 23 24  1  0
 24 25  1  0
 23 26  1  0
 26 27  2  0
 19 28  2  0
 28 29  1  0
 29 30  3  0
 28  7  1  0
 17 10  1  0
 27 20  1  0
M  END
>  <Binding energies>  (4) 
[-8.7]

>  <Ligand effiencies>  (4) 
[-0.29]

>  <Interactions>  (4) 
["V-B:HIS:456:CE1:9038, V-B:ARG:545:CZ:9895, V-B:GLU:543:CD:9877, V-A:GLU:543:CD:4905, H-B:GLY:454:N:9018, H-B:TYR:484:OH:9316, V-B:ARG:545:CD:9892, V-B:ARG:545:CG:9891, V-A:HIS:456:CE1:4066, V-A:ASP:366:CG:3209, V-B:ASP:366:CG:8181, V-A:GLU:543:C:4899, H-B:ILE:455:N:9023, V-B:LYS:547:CE:9919, V-B:HIS:456:CD2:9036, V-A:LYS:547:CE:4947, H-A:LYS:547:NZ:4948, H-B:HIS:456:ND1:9035, H-A:GLY:454:N:4046, V-A:ARG:545:CZ:4923"]

$$$$
1j_Grossjean_2025
     RDKit          3D

 20 21  0  0  0  0  0  0  0  0999 V2000
  128.9530  121.7250   59.8700 C   0  0  0  0  0  0  0  0  0  0  0  0
  127.7600  122.5080   59.3530 C   0  0  0  0  0  0  0  0  0  0  0  0
  126.9750  123.2860   60.2010 C   0  0  0  0  0  0  0  0  0  0  0  0
  125.8960  123.9970   59.6660 C   0  0  0  0  0  0  0  0  0  0  0  0
  125.0610  124.8570   60.6140 C   0  0  0  0  0  0  0  0  0  0  0  0
  125.6240  123.9020   58.2830 C   0  0  0  0  0  0  0  0  0  0  0  0
  124.5310  124.6790   57.6930 C   0  0  0  0  0  0  0  0  0  0  0  0
  123.6680  125.2950   57.2300 N   0  0  0  0  0  0  0  0  0  0  0  0
  126.4570  123.0670   57.5020 C   0  0  0  0  0  0  0  0  0  0  0  0
  126.2580  122.8290   55.7490 S   0  0  0  0  0  0  0  0  0  0  0  0
  127.7940  122.0940   55.1140 C   0  0  0  0  0  0  0  0  0  0  0  0
  128.8760  123.1470   54.8670 C   0  0  0  0  0  0  0  0  0  0  0  0
  129.1970  123.4240   53.7110 O   0  0  0  0  0  0  0  0  0  0  0  0
  129.4050  123.7090   55.9760 N   0  0  0  0  0  0  0  0  0  0  0  0
  130.3990  124.6770   56.0200 C   0  0  0  0  0  0  0  0  0  0  0  0
  131.5460  124.6860   55.3760 N   0  0  0  0  0  0  0  0  0  0  0  0
  132.2480  125.7660   55.6540 C   0  0  0  0  0  0  0  0  0  0  0  0
  131.6680  126.6660   56.5430 C   0  0  0  0  0  0  0  0  0  0  0  0
  130.1180  126.0540   57.0350 S   0  0  0  0  0  0  0  0  0  0  0  0
  127.5150  122.3990   58.0260 N   0  0  0  0  0  0  0  0  0  0  0  0
  1  2  1  0
  2  3  2  0
  3  4  1  0
  4  5  1  0
  4  6  2  0
  6  7  1  0
  7  8  3  0
  6  9  1  0
  9 10  1  0
 10 11  1  0
 11 12  1  0
 12 13  2  0
 12 14  1  0
 14 15  1  0
 15 16  2  0
 16 17  1  0
 17 18  2  0
 18 19  1  0
  9 20  2  0
 20  2  1  0
 19 15  1  0
M  END
>  <Binding energies>  (5) 
[-6.81]

>  <Ligand effiencies>  (5) 
[-0.3242857142857143]

>  <Interactions>  (5) 
["V-B:TYR:539:CD1:9842, V-B:ILE:538:CB:9831, V-B:PRO:540:N:9853, V-B:LEU:363:CD1:8157, V-B:MET:535:CE:9804, V-B:PRO:540:CB:9854, V-B:ILE:538:CG2:9832, V-B:PRO:540:CA:9852, V-B:TYR:539:CE1:9844, V-B:TYR:539:CZ:9846, V-B:TYR:539:CE2:9845, V-B:TYR:539:C:9836, V-B:ALA:541:CB:9861, V-B:TYR:539:CD2:9843, V-A:ASP:366:CB:3208, H-B:TYR:539:OH:9847, H-B:TYR:531:OH:9764, V-B:TYR:539:CG:9841, V-B:ILE:538:CA:9829, V-A:TYR:531:CE1:4789, V-B:ILE:538:C:9827"]

$$$$
1o_Grossjean_2025
     RDKit          3D

 26 27  0  0  0  0  0  0  0  0999 V2000
  128.1800  122.0620   58.9630 C   0  0  0  0  0  0  0  0  0  0  0  0
  128.1150  121.7790   57.5720 O   0  0  0  0  0  0  0  0  0  0  0  0
  127.2030  122.3940   56.7760 C   0  0  0  0  0  0  0  0  0  0  0  0
  126.6790  121.8520   55.7980 O   0  0  0  0  0  0  0  0  0  0  0  0
  126.8910  123.7990   57.2040 C   0  0  0  0  0  0  0  0  0  0  0  0
  127.8710  124.8030   57.2270 C   0  0  0  0  0  0  0  0  0  0  0  0
  127.5480  126.0970   57.6270 C   0  0  0  0  0  0  0  0  0  0  0  0
  126.2460  126.4130   58.0170 C   0  0  0  0  0  0  0  0  0  0  0  0
  126.0290  127.7530   58.3940 N   0  0  0  0  0  0  0  0  0  0  0  0
  126.5400  128.8920   57.8770 C   0  0  0  0  0  0  0  0  0  0  0  0
  127.2930  128.9540   56.9050 O   0  0  0  0  0  0  0  0  0  0  0  0
  126.0980  130.1890   58.5690 C   0  0  0  0  0  0  0  0  0  0  0  0
  127.1430  130.7390   59.5610 C   0  0  0  0  0  0  0  0  0  0  0  0
  127.9490  132.2710   59.0100 S   0  0  0  0  0  0  0  0  0  0  0  0
  129.6660  131.9210   58.6880 C   0  0  0  0  0  0  0  0  0  0  0  0
  130.3580  131.5470   59.7940 N   0  0  0  0  0  0  0  0  0  0  0  0
  131.6720  131.2470   59.6690 C   0  0  0  0  0  0  0  0  0  0  0  0
  132.3740  130.8220   60.9450 C   0  0  0  0  0  0  0  0  0  0  0  0
  132.3470  131.3190   58.4530 C   0  0  0  0  0  0  0  0  0  0  0  0
  131.6500  131.7280   57.3120 C   0  0  0  0  0  0  0  0  0  0  0  0
  132.4170  131.8130   55.9930 C   0  0  0  0  0  0  0  0  0  0  0  0
  130.2780  132.0510   57.4180 C   0  0  0  0  0  0  0  0  0  0  0  0
  129.5470  132.5390   56.2460 C   0  0  0  0  0  0  0  0  0  0  0  0
  128.9710  132.9230   55.3180 N   0  0  0  0  0  0  0  0  0  0  0  0
  125.2600  125.4160   57.9920 C   0  0  0  0  0  0  0  0  0  0  0  0
  125.5840  124.1230   57.5910 C   0  0  0  0  0  0  0  0  0  0  0  0
  1  2  1  0
  2  3  1  0
  3  4  2  0
  3  5  1  0
  5  6  2  0
  6  7  1  0
  7  8  2  0
  8  9  1  0
  9 10  1  0
 10 11  2  0
 10 12  1  0
 12 13  1  0
 13 14  1  0
 14 15  1  0
 15 16  2  0
 16 17  1  0
 17 18  1  0
 17 19  2  0
 19 20  1  0
 20 21  1  0
 20 22  2  0
 22 23  1  0
 23 24  3  0
  8 25  1  0
 25 26  2  0
 26  5  1  0
 22 15  1  0
M  END
>  <Binding energies>  (6) 
[-8.57]

>  <Ligand effiencies>  (6) 
[-0.3174074074074074]

>  <Interactions>  (6) 
["V-A:GLU:543:CD:4905, V-A:ILE:538:CG2:4860, V-A:PRO:540:CA:4880, V-A:PRO:540:CB:4882, V-A:LEU:363:CD1:3185, V-A:ILE:538:CD1:4862, H-A:TYR:539:N:4867, V-A:ASN:362:CB:3172, V-A:TYR:539:C:4864, V-A:PRO:540:N:4881, V-B:TYR:539:CD1:9842, V-B:PRO:540:N:9853, V-B:MET:535:CE:9804, H-B:TYR:539:N:9839, V-B:PRO:540:CA:9852, V-B:TYR:539:CZ:9846, V-B:TYR:539:CE2:9845, V-B:TYR:539:C:9836, V-B:ASP:366:CB:8180, V-B:TYR:539:CD2:9843, V-A:TYR:531:CE2:4790, V-A:TYR:531:CZ:4791, H-B:ASP:366:OD1:8182, V-B:ASP:366:CG:8181, H-B:TYR:531:OH:9764, V-B:TYR:539:CG:9841"]

$$$$
1p_Grossjean_2025
     RDKit          3D

 21 22  0  0  0  0  0  0  0  0999 V2000
  129.6290  131.1180   59.7320 C   0  0  0  0  0  0  0  0  0  0  0  0
  128.4590  132.0740   59.8700 C   0  0  0  0  0  0  0  0  0  0  0  0
  128.5960  133.3050   60.5100 C   0  0  0  0  0  0  0  0  0  0  0  0
  127.4800  134.1410   60.6190 C   0  0  0  0  0  0  0  0  0  0  0  0
  127.6490  135.4790   61.3370 C   0  0  0  0  0  0  0  0  0  0  0  0
  126.2460  133.7230   60.0720 C   0  0  0  0  0  0  0  0  0  0  0  0
  125.0530  134.5590   60.2160 C   0  0  0  0  0  0  0  0  0  0  0  0
  124.1100  135.2210   60.3300 N   0  0  0  0  0  0  0  0  0  0  0  0
  126.2050  132.4670   59.4200 C   0  0  0  0  0  0  0  0  0  0  0  0
  124.7400  131.7960   58.6690 S   0  0  0  0  0  0  0  0  0  0  0  0
  125.2700  130.3970   57.6380 C   0  0  0  0  0  0  0  0  0  0  0  0
  125.1780  130.6710   56.1250 C   0  0  0  0  0  0  0  0  0  0  0  0
  126.5140  131.0920   55.4950 C   0  0  0  0  0  0  0  0  0  0  0  0
  126.6300  131.1040   54.2680 O   0  0  0  0  0  0  0  0  0  0  0  0
  127.4860  131.4420   56.3670 N   0  0  0  0  0  0  0  0  0  0  0  0
  128.7760  131.8590   56.0640 C   0  0  0  0  0  0  0  0  0  0  0  0
  129.9080  131.0880   56.3280 C   0  0  0  0  0  0  0  0  0  0  0  0
  130.9680  131.8460   55.8850 C   0  0  0  0  0  0  0  0  0  0  0  0
  130.5000  133.0120   55.3830 O   0  0  0  0  0  0  0  0  0  0  0  0
  129.1090  133.0100   55.5030 N   0  0  0  0  0  0  0  0  0  0  0  0
  127.2880  131.6540   59.3370 N   0  0  0  0  0  0  0  0  0  0  0  0
  1  2  1  0
  2  3  2  0
  3  4  1  0
  4  5  1  0
  4  6  2  0
  6  7  1  0
  7  8  3  0
  6  9  1  0
  9 10  1  0
 10 11  1  0
 11 12  1  0
 12 13  1  0
 13 14  2  0
 13 15  1  0
 15 16  1  0
 16 17  1  0
 17 18  2  0
 18 19  1  0
 19 20  1  0
  9 21  2  0
 21  2  1  0
 20 16  2  0
M  END
>  <Binding energies>  (7) 
[-7.16]

>  <Ligand effiencies>  (7) 
[-0.32545454545454544]

>  <Interactions>  (7) 
["V-A:TYR:539:CE2:4873, H-B:LYS:534:NZ:9792, V-A:ILE:538:CG2:4860, V-A:PRO:540:CA:4880, H-A:TYR:539:OH:4875, V-A:TYR:539:CD2:4871, V-A:ILE:538:CD1:4862, V-A:TYR:539:CZ:4874, H-A:TYR:539:N:4867, V-A:TYR:539:C:4864, V-B:LEU:475:CD2:9227, V-A:ALA:541:CB:4889, V-B:TRP:381:CH2:8340, V-A:PRO:540:C:4878, V-B:TYR:531:CZ:9763, V-B:ASP:366:CB:8180, V-A:ALA:541:CA:4887, V-B:ILE:369:CG2:8205, V-B:TYR:531:CE1:9761, V-B:PRO:482:CB:9294, V-B:PRO:482:CG:9295"]

$$$$
2a_Ghoteimi_2023
     RDKit          3D

 48 53  0  0  0  0  0  0  0  0999 V2000
  132.4130  132.1400   56.5700 C   0  0  0  0  0  0  0  0  0  0  0  0
  131.1680  132.1580   55.6780 C   0  0  0  0  0  0  0  0  0  0  0  0
  130.1810  132.9970   56.2620 O   0  0  0  0  0  0  0  0  0  0  0  0
  128.9720  132.5040   56.6370 C   0  0  0  0  0  0  0  0  0  0  0  0
  128.0570  132.2700   55.8410 O   0  0  0  0  0  0  0  0  0  0  0  0
  128.8620  132.2650   58.1160 C   0  0  0  0  0  0  0  0  0  0  0  0
  127.6860  132.5440   58.8280 C   0  0  0  0  0  0  0  0  0  0  0  0
  127.6170  132.3090   60.1970 C   0  0  0  0  0  0  0  0  0  0  0  0
  128.7160  131.7870   60.8830 C   0  0  0  0  0  0  0  0  0  0  0  0
  128.5370  131.5940   62.2670 N   0  0  0  0  0  0  0  0  0  0  0  0
  127.4190  131.2870   62.9600 C   0  0  0  0  0  0  0  0  0  0  0  0
  126.2940  131.1650   62.4730 O   0  0  0  0  0  0  0  0  0  0  0  0
  127.6130  131.1290   64.4730 C   0  0  0  0  0  0  0  0  0  0  0  0
  126.6440  129.7790   65.2210 S   0  0  0  0  0  0  0  0  0  0  0  0
  127.8280  128.5290   65.6650 C   0  0  0  0  0  0  0  0  0  0  0  0
  127.9630  128.3520   67.0000 N   0  0  0  0  0  0  0  0  0  0  0  0
  128.8440  127.4310   67.4640 C   0  0  0  0  0  0  0  0  0  0  0  0
  128.9470  127.2970   68.9500 C   0  0  0  0  0  0  0  0  0  0  0  0
  127.9840  126.5930   69.6840 C   0  0  0  0  0  0  0  0  0  0  0  0
  128.0790  126.4820   71.0680 C   0  0  0  0  0  0  0  0  0  0  0  0
  129.1440  127.0620   71.7710 C   0  0  0  0  0  0  0  0  0  0  0  0
  129.2100  126.9680   73.1650 N   0  0  0  0  0  0  0  0  0  0  0  0
  129.7910  125.7840   73.8290 C   0  0  0  0  0  0  0  0  0  0  0  0
  130.1110  126.0020   75.3230 C   0  0  0  0  0  0  0  0  0  0  0  0
  128.9520  126.4520   76.0080 O   0  0  0  0  0  0  0  0  0  0  0  0
  128.4850  127.6830   75.4810 C   0  0  0  0  0  0  0  0  0  0  0  0
  128.1150  127.5180   73.9920 C   0  0  0  0  0  0  0  0  0  0  0  0
  130.1010  127.7770   71.0310 C   0  0  0  0  0  0  0  0  0  0  0  0
  130.0070  127.8860   69.6470 C   0  0  0  0  0  0  0  0  0  0  0  0
  129.6040  126.6520   66.5880 C   0  0  0  0  0  0  0  0  0  0  0  0
  129.4810  126.8170   65.2020 C   0  0  0  0  0  0  0  0  0  0  0  0
  130.3290  125.9560   64.3230 C   0  0  0  0  0  0  0  0  0  0  0  0
  129.7330  125.0690   63.4220 C   0  0  0  0  0  0  0  0  0  0  0  0
  130.5130  124.2480   62.6130 C   0  0  0  0  0  0  0  0  0  0  0  0
  131.9140  124.2920   62.6790 C   0  0  0  0  0  0  0  0  0  0  0  0
  132.7160  123.4630   61.8890 N   0  0  0  0  0  0  0  0  0  0  0  0
  132.7580  122.0140   62.1720 C   0  0  0  0  0  0  0  0  0  0  0  0
  133.3510  121.1840   61.0130 C   0  0  0  0  0  0  0  0  0  0  0  0
  134.6410  121.6700   60.6770 O   0  0  0  0  0  0  0  0  0  0  0  0
  134.6000  123.0280   60.2660 C   0  0  0  0  0  0  0  0  0  0  0  0
  134.0370  123.9060   61.4020 C   0  0  0  0  0  0  0  0  0  0  0  0
  132.5040  125.1760   63.5940 C   0  0  0  0  0  0  0  0  0  0  0  0
  131.7240  125.9950   64.4040 C   0  0  0  0  0  0  0  0  0  0  0  0
  128.5620  127.7800   64.7180 C   0  0  0  0  0  0  0  0  0  0  0  0
  128.3480  127.9590   63.2790 C   0  0  0  0  0  0  0  0  0  0  0  0
  128.1820  128.1000   62.1420 N   0  0  0  0  0  0  0  0  0  0  0  0
  129.8980  131.5140   60.1800 C   0  0  0  0  0  0  0  0  0  0  0  0
  129.9650  131.7480   58.8090 C   0  0  0  0  0  0  0  0  0  0  0  0
  1  2  1  0
  2  3  1  0
  3  4  1  0
  4  5  2  0
  4  6  1  0
  6  7  2  0
  7  8  1  0
  8  9  2  0
  9 10  1  0
 10 11  1  0
 11 12  2  0
 11 13  1  0
 13 14  1  0
 14 15  1  0
 15 16  2  0
 16 17  1  0
 17 18  1  0
 18 19  2  0
 19 20  1  0
 20 21  2  0
 21 22  1  0
 22 23  1  0
 23 24  1  0
 24 25  1  0
 25 26  1  0
 26 27  1  0
 21 28  1  0
 28 29  2  0
 17 30  2  0
 30 31  1  0
 31 32  1  0
 32 33  2  0
 33 34  1  0
 34 35  2  0
 35 36  1  0
 36 37  1  0
 37 38  1  0
 38 39  1  0
 39 40  1  0
 40 41  1  0
 35 42  1  0
 42 43  2  0
 31 44  2  0
 44 45  1  0
 45 46  3  0
  9 47  1  0
 47 48  2  0
 48  6  1  0
 44 15  1  0
 29 18  1  0
 43 32  1  0
 27 22  1  0
 41 36  1  0
M  END
>  <Binding energies>  (8) 
[-11.42]

>  <Ligand effiencies>  (8) 
[-0.2330612244897959]

>  <Interactions>  (8) 
["V-B:GLU:543:CG:9876, V-B:GLY:544:C:9881, V-B:HIS:456:CE1:9038, V-B:GLU:543:CD:9877, V-A:GLU:543:CD:4905, V-A:GLU:543:CG:4904, H-B:TYR:484:OH:9316, V-A:HIS:456:CE1:4066, V-A:TYR:539:CE2:4873, V-A:ILE:538:CG2:4860, V-A:PRO:540:CA:4880, V-A:PRO:540:CB:4882, V-A:TYR:539:CD2:4871, V-A:LEU:363:CD1:3185, V-A:ILE:538:CD1:4862, V-A:ASP:366:CG:3209, H-A:TYR:539:N:4867, V-A:PRO:540:CD:4884, V-A:TYR:539:C:4864, V-A:PRO:540:N:4881, V-A:TYR:539:CG:4869, V-A:ALA:541:CB:4889, V-B:TYR:539:CE2:9845, V-A:LEU:475:CD1:4254, V-A:GLY:454:CA:4045, H-A:GLU:543:OE2:4907, V-A:GLU:543:C:4899, V-B:LYS:547:CE:9919, V-B:HIS:456:CD2:9036, V-A:LYS:547:CE:4947, V-A:ARG:545:CZ:4923, V-A:ILE:369:CG2:3233, V-A:ASP:366:CA:3206, V-A:ILE:369:CG1:3234, V-A:ILE:369:CB:3232"]

$$$$
2aa_Ghoteimi_2023
     RDKit          3D

 48 53  0  0  0  0  0  0  0  0999 V2000
  125.3570  123.7430   56.7260 C   0  0  0  0  0  0  0  0  0  0  0  0
  125.5810  122.3520   56.1250 C   0  0  0  0  0  0  0  0  0  0  0  0
  126.8060  121.8200   56.6120 O   0  0  0  0  0  0  0  0  0  0  0  0
  127.8790  122.6220   56.8390 C   0  0  0  0  0  0  0  0  0  0  0  0
  128.5660  123.1110   55.9360 O   0  0  0  0  0  0  0  0  0  0  0  0
  128.1370  122.8680   58.2970 C   0  0  0  0  0  0  0  0  0  0  0  0
  127.2200  122.4840   59.2870 C   0  0  0  0  0  0  0  0  0  0  0  0
  127.4900  122.7210   60.6310 C   0  0  0  0  0  0  0  0  0  0  0  0
  128.6750  123.3540   61.0140 C   0  0  0  0  0  0  0  0  0  0  0  0
  128.8470  123.5410   62.3990 N   0  0  0  0  0  0  0  0  0  0  0  0
  129.9040  123.2470   63.1870 C   0  0  0  0  0  0  0  0  0  0  0  0
  130.9670  122.7610   62.7940 O   0  0  0  0  0  0  0  0  0  0  0  0
  129.7100  123.5890   64.6700 C   0  0  0  0  0  0  0  0  0  0  0  0
  130.4050  124.8020   64.9790 O   0  0  0  0  0  0  0  0  0  0  0  0
  129.7270  125.8630   65.5660 C   0  0  0  0  0  0  0  0  0  0  0  0
  129.7120  125.9380   66.9260 N   0  0  0  0  0  0  0  0  0  0  0  0
  129.0630  126.9640   67.5320 C   0  0  0  0  0  0  0  0  0  0  0  0
  129.0850  126.9790   69.0280 C   0  0  0  0  0  0  0  0  0  0  0  0
  130.0990  127.6480   69.7210 C   0  0  0  0  0  0  0  0  0  0  0  0
  130.1200  127.6710   71.1130 C   0  0  0  0  0  0  0  0  0  0  0  0
  129.1190  127.0360   71.8650 C   0  0  0  0  0  0  0  0  0  0  0  0
  129.1330  127.0380   73.2650 N   0  0  0  0  0  0  0  0  0  0  0  0
  127.9960  127.5700   74.0450 C   0  0  0  0  0  0  0  0  0  0  0  0
  128.3250  127.8200   75.5310 C   0  0  0  0  0  0  0  0  0  0  0  0
  128.8350  126.6360   76.1220 O   0  0  0  0  0  0  0  0  0  0  0  0
  130.0270  126.2080   75.4810 C   0  0  0  0  0  0  0  0  0  0  0  0
  129.7490  125.9090   73.9920 C   0  0  0  0  0  0  0  0  0  0  0  0
  128.1170  126.3480   71.1660 C   0  0  0  0  0  0  0  0  0  0  0  0
  128.0980  126.3230   69.7740 C   0  0  0  0  0  0  0  0  0  0  0  0
  128.3940  127.9370   66.7850 C   0  0  0  0  0  0  0  0  0  0  0  0
  128.3840  127.8770   65.3860 C   0  0  0  0  0  0  0  0  0  0  0  0
  127.6300  128.9310   64.6420 C   0  0  0  0  0  0  0  0  0  0  0  0
  127.7860  130.2790   64.9770 C   0  0  0  0  0  0  0  0  0  0  0  0
  127.0720  131.2650   64.3020 C   0  0  0  0  0  0  0  0  0  0  0  0
  126.1690  130.9300   63.2810 C   0  0  0  0  0  0  0  0  0  0  0  0
  125.4440  131.9030   62.5870 N   0  0  0  0  0  0  0  0  0  0  0  0
  125.9130  132.4340   61.2920 C   0  0  0  0  0  0  0  0  0  0  0  0
  124.8300  133.2160   60.5200 C   0  0  0  0  0  0  0  0  0  0  0  0
  124.3100  134.2560   61.3350 O   0  0  0  0  0  0  0  0  0  0  0  0
  123.7210  133.7460   62.5210 C   0  0  0  0  0  0  0  0  0  0  0  0
  124.7750  132.9790   63.3460 C   0  0  0  0  0  0  0  0  0  0  0  0
  126.0250  129.5760   62.9470 C   0  0  0  0  0  0  0  0  0  0  0  0
  126.7390  128.5910   63.6210 C   0  0  0  0  0  0  0  0  0  0  0  0
  129.0830  126.8180   64.7600 C   0  0  0  0  0  0  0  0  0  0  0  0
  129.1690  126.7020   63.3020 C   0  0  0  0  0  0  0  0  0  0  0  0
  129.2360  126.6120   62.1510 N   0  0  0  0  0  0  0  0  0  0  0  0
  129.5990  123.7340   60.0310 C   0  0  0  0  0  0  0  0  0  0  0  0
  129.3290  123.4920   58.6870 C   0  0  0  0  0  0  0  0  0  0  0  0
  1  2  1  0
  2  3  1  0
  3  4  1  0
  4  5  2  0
  4  6  1  0
  6  7  2  0
  7  8  1  0
  8  9  2  0
  9 10  1  0
 10 11  1  0
 11 12  2  0
 11 13  1  0
 13 14  1  0
 14 15  1  0
 15 16  2  0
 16 17  1  0
 17 18  1  0
 18 19  2  0
 19 20  1  0
 20 21  2  0
 21 22  1  0
 22 23  1  0
 23 24  1  0
 24 25  1  0
 25 26  1  0
 26 27  1  0
 21 28  1  0
 28 29  2  0
 17 30  2  0
 30 31  1  0
 31 32  1  0
 32 33  2  0
 33 34  1  0
 34 35  2  0
 35 36  1  0
 36 37  1  0
 37 38  1  0
 38 39  1  0
 39 40  1  0
 40 41  1  0
 35 42  1  0
 42 43  2  0
 31 44  2  0
 44 45  1  0
 45 46  3  0
  9 47  1  0
 47 48  2  0
 48  6  1  0
 44 15  1  0
 29 18  1  0
 43 32  1  0
 27 22  1  0
 41 36  1  0
M  END
>  <Binding energies>  (9) 
[-10.93]

>  <Ligand effiencies>  (9) 
[-0.2230612244897959]

>  <Interactions>  (9) 
["V-B:GLU:543:CG:9876, V-B:GLY:544:C:9881, V-B:HIS:456:CE1:9038, V-B:GLU:543:CD:9877, V-A:GLU:543:CD:4905, V-B:GLU:543:CB:9875, V-A:GLU:543:CG:4904, V-B:GLU:543:C:9871, H-B:GLU:543:OE2:9879, V-B:GLY:454:CA:9017, V-A:HIS:456:CE1:4066, V-B:LEU:475:CD2:9227, V-B:TYR:539:CD1:9842, V-B:PRO:540:C:9850, V-B:ILE:538:CB:9831, V-B:PRO:540:N:9853, V-B:LEU:363:CD1:8157, V-B:PRO:540:CD:9856, H-B:TYR:539:N:9839, V-B:PRO:540:CB:9854, V-B:ILE:538:CG2:9832, V-B:PRO:540:CA:9852, V-B:TYR:539:CE1:9844, V-B:TYR:539:CZ:9846, V-B:TYR:539:CE2:9845, V-B:TYR:539:C:9836, V-B:ALA:541:CB:9861, V-B:ILE:369:CD1:8207, V-A:TYR:484:CE1:4341, V-B:LYS:547:CE:9919, V-A:LYS:547:CE:4947, V-B:ILE:369:CG2:8205, H-A:TYR:484:OH:4344, V-A:HIS:456:CD2:4064"]

$$$$
2b_Ghoteimi_2023
     RDKit          3D

 42 47  0  0  0  0  0  0  0  0999 V2000
  129.9240  122.6750   64.7570 N   0  0  0  0  0  0  0  0  0  0  0  0
  129.9050  123.5840   64.0410 C   0  0  0  0  0  0  0  0  0  0  0  0
  129.8820  124.7400   63.1390 C   0  0  0  0  0  0  0  0  0  0  0  0
  129.7190  126.0510   63.6530 C   0  0  0  0  0  0  0  0  0  0  0  0
  129.5650  126.3600   65.1050 C   0  0  0  0  0  0  0  0  0  0  0  0
  128.7170  127.3890   65.5200 C   0  0  0  0  0  0  0  0  0  0  0  0
  128.5700  127.6820   66.8720 C   0  0  0  0  0  0  0  0  0  0  0  0
  129.2810  126.9660   67.8470 C   0  0  0  0  0  0  0  0  0  0  0  0
  129.1410  127.2330   69.2100 N   0  0  0  0  0  0  0  0  0  0  0  0
  128.3320  126.3200   70.0420 C   0  0  0  0  0  0  0  0  0  0  0  0
  127.9470  126.9190   71.4110 C   0  0  0  0  0  0  0  0  0  0  0  0
  129.1110  127.3440   72.1030 O   0  0  0  0  0  0  0  0  0  0  0  0
  129.8230  128.3330   71.3750 C   0  0  0  0  0  0  0  0  0  0  0  0
  130.2620  127.7640   70.0100 C   0  0  0  0  0  0  0  0  0  0  0  0
  130.1330  125.9370   67.4210 C   0  0  0  0  0  0  0  0  0  0  0  0
  130.2770  125.6410   66.0690 C   0  0  0  0  0  0  0  0  0  0  0  0
  129.7080  127.1230   62.7530 C   0  0  0  0  0  0  0  0  0  0  0  0
  129.8870  126.9000   61.3840 C   0  0  0  0  0  0  0  0  0  0  0  0
  129.9130  128.0130   60.3850 C   0  0  0  0  0  0  0  0  0  0  0  0
  129.7350  129.3410   60.7910 C   0  0  0  0  0  0  0  0  0  0  0  0
  129.7750  130.3830   59.8690 C   0  0  0  0  0  0  0  0  0  0  0  0
  129.9810  130.1360   58.5020 C   0  0  0  0  0  0  0  0  0  0  0  0
  130.0530  131.1760   57.5680 N   0  0  0  0  0  0  0  0  0  0  0  0
  131.3220  131.4420   56.8600 C   0  0  0  0  0  0  0  0  0  0  0  0
  131.3690  132.8240   56.1740 C   0  0  0  0  0  0  0  0  0  0  0  0
  130.2590  132.9730   55.3030 O   0  0  0  0  0  0  0  0  0  0  0  0
  129.0310  132.8820   56.0060 C   0  0  0  0  0  0  0  0  0  0  0  0
  128.9130  131.5030   56.6890 C   0  0  0  0  0  0  0  0  0  0  0  0
  130.1650  128.8050   58.1010 C   0  0  0  0  0  0  0  0  0  0  0  0
  130.1290  127.7640   59.0240 C   0  0  0  0  0  0  0  0  0  0  0  0
  130.0430  125.6440   60.8940 N   0  0  0  0  0  0  0  0  0  0  0  0
  130.0240  124.5880   61.7410 C   0  0  0  0  0  0  0  0  0  0  0  0
  130.2390  123.0190   60.9290 S   0  0  0  0  0  0  0  0  0  0  0  0
  128.6460  122.1450   60.9960 C   0  0  0  0  0  0  0  0  0  0  0  0
  127.8030  122.3880   59.7430 C   0  0  0  0  0  0  0  0  0  0  0  0
  126.6400  122.7780   59.8640 O   0  0  0  0  0  0  0  0  0  0  0  0
  128.4230  122.1420   58.5680 N   0  0  0  0  0  0  0  0  0  0  0  0
  127.8980  122.2890   57.2920 C   0  0  0  0  0  0  0  0  0  0  0  0
  128.4720  123.1120   56.3240 C   0  0  0  0  0  0  0  0  0  0  0  0
  127.6640  122.9810   55.2190 C   0  0  0  0  0  0  0  0  0  0  0  0
  126.6570  122.1240   55.5060 O   0  0  0  0  0  0  0  0  0  0  0  0
  126.8170  121.6890   56.8240 N   0  0  0  0  0  0  0  0  0  0  0  0
  1  2  3  0
  2  3  1  0
  3  4  2  0
  4  5  1  0
  5  6  2  0
  6  7  1  0
  7  8  2  0
  8  9  1  0
  9 10  1  0
 10 11  1  0
 11 12  1  0
 12 13  1  0
 13 14  1  0
  8 15  1  0
 15 16  2  0
  4 17  1  0
 17 18  2  0
 18 19  1  0
 19 20  2  0
 20 21  1  0
 21 22  2  0
 22 23  1  0
 23 24  1  0
 24 25  1  0
 25 26  1  0
 26 27  1  0
 27 28  1  0
 22 29  1  0
 29 30  2  0
 18 31  1  0
 31 32  2  0
 32 33  1  0
 33 34  1  0
 34 35  1  0
 35 36  2  0
 35 37  1  0
 37 38  1  0
 38 39  1  0
 39 40  2  0
 40 41  1  0
 41 42  1  0
 32  3  1  0
 42 38  2  0
 16  5  1  0
 30 19  1  0
 14  9  1  0
 28 23  1  0
M  END
>  <Binding energies>  (10) 
[-11.33]

>  <Ligand effiencies>  (10) 
[-0.2634883720930233]

>  <Interactions>  (10) 
["V-B:GLU:543:CG:9876, V-B:HIS:456:CE1:9038, V-B:GLU:543:CD:9877, V-A:GLU:543:CD:4905, V-A:HIS:456:CE1:4066, V-A:TYR:539:CE2:4873, V-A:ILE:538:CG2:4860, V-A:PRO:540:CA:4880, V-A:PRO:540:CB:4882, V-A:TYR:539:CD2:4871, V-A:ILE:538:CD1:4862, V-A:TYR:539:CZ:4874, H-A:TYR:539:N:4867, V-A:PRO:540:CD:4884, V-A:TYR:539:C:4864, V-A:PRO:540:N:4881, V-A:TYR:539:CG:4869, V-A:TYR:539:CA:4866, V-A:TYR:539:CD1:4870, V-B:TYR:539:CD1:9842, V-B:PRO:540:C:9850, V-B:ILE:538:CB:9831, V-B:PRO:540:N:9853, H-B:ALA:541:N:9860, V-B:MET:535:CE:9804, H-B:TYR:539:N:9839, V-B:ILE:538:CG2:9832, V-B:PRO:540:CA:9852, V-B:TYR:539:CE1:9844, V-B:TYR:539:CZ:9846, V-B:TYR:539:CE2:9845, V-B:TYR:539:C:9836, V-B:ALA:541:CB:9861, V-B:TYR:539:CD2:9843, H-B:TYR:539:OH:9847, V-B:HIS:456:CD2:9036, H-A:LYS:547:NZ:4948, H-B:TYR:539:O:9837, H-A:TYR:484:OH:4344, V-B:TYR:539:CG:9841, V-A:HIS:456:CD2:4064, V-B:ILE:538:CA:9829"]

$$$$
2c_Ghoteimi_2023
     RDKit          3D

 42 47  0  0  0  0  0  0  0  0999 V2000
  130.4700  122.4400   65.0880 N   0  0  0  0  0  0  0  0  0  0  0  0
  130.4570  123.3250   64.3430 C   0  0  0  0  0  0  0  0  0  0  0  0
  130.4400  124.4510   63.4040 C   0  0  0  0  0  0  0  0  0  0  0  0
  130.2690  125.7780   63.8700 C   0  0  0  0  0  0  0  0  0  0  0  0
  130.0930  126.1370   65.3100 C   0  0  0  0  0  0  0  0  0  0  0  0
  131.0350  126.9420   65.9530 C   0  0  0  0  0  0  0  0  0  0  0  0
  130.8760  127.2850   67.2930 C   0  0  0  0  0  0  0  0  0  0  0  0
  129.7760  126.8200   68.0320 C   0  0  0  0  0  0  0  0  0  0  0  0
  129.5860  127.1690   69.3710 N   0  0  0  0  0  0  0  0  0  0  0  0
  128.8110  126.2690   70.2480 C   0  0  0  0  0  0  0  0  0  0  0  0
  128.3540  126.9420   71.5600 C   0  0  0  0  0  0  0  0  0  0  0  0
  129.4740  127.4780   72.2480 O   0  0  0  0  0  0  0  0  0  0  0  0
  130.1500  128.4530   71.4690 C   0  0  0  0  0  0  0  0  0  0  0  0
  130.6530  127.8210   70.1540 C   0  0  0  0  0  0  0  0  0  0  0  0
  128.8370  126.0100   67.3780 C   0  0  0  0  0  0  0  0  0  0  0  0
  128.9960  125.6690   66.0370 C   0  0  0  0  0  0  0  0  0  0  0  0
  130.2640  126.8190   62.9330 C   0  0  0  0  0  0  0  0  0  0  0  0
  130.4500  126.5490   61.5740 C   0  0  0  0  0  0  0  0  0  0  0  0
  130.4700  127.6260   60.5370 C   0  0  0  0  0  0  0  0  0  0  0  0
  130.4410  127.3070   59.1760 C   0  0  0  0  0  0  0  0  0  0  0  0
  130.4530  128.3060   58.2050 C   0  0  0  0  0  0  0  0  0  0  0  0
  130.5080  129.6630   58.5610 C   0  0  0  0  0  0  0  0  0  0  0  0
  130.4960  130.6790   57.6000 N   0  0  0  0  0  0  0  0  0  0  0  0
  129.3570  131.6180   57.5360 C   0  0  0  0  0  0  0  0  0  0  0  0
  129.2880  132.4180   56.2180 C   0  0  0  0  0  0  0  0  0  0  0  0
  130.5130  133.0970   55.9970 O   0  0  0  0  0  0  0  0  0  0  0  0
  131.5990  132.1890   55.8940 C   0  0  0  0  0  0  0  0  0  0  0  0
  131.7360  131.3760   57.1990 C   0  0  0  0  0  0  0  0  0  0  0  0
  130.5250  129.9780   59.9270 C   0  0  0  0  0  0  0  0  0  0  0  0
  130.5100  128.9780   60.8970 C   0  0  0  0  0  0  0  0  0  0  0  0
  130.6170  125.2770   61.1300 N   0  0  0  0  0  0  0  0  0  0  0  0
  130.5940  124.2510   62.0130 C   0  0  0  0  0  0  0  0  0  0  0  0
  130.8150  122.6560   61.2570 S   0  0  0  0  0  0  0  0  0  0  0  0
  129.1670  122.0290   60.8150 C   0  0  0  0  0  0  0  0  0  0  0  0
  128.6240  122.6860   59.5440 C   0  0  0  0  0  0  0  0  0  0  0  0
  128.9920  123.8240   59.2490 O   0  0  0  0  0  0  0  0  0  0  0  0
  127.7540  121.9410   58.8290 N   0  0  0  0  0  0  0  0  0  0  0  0
  127.1380  122.2990   57.6400 C   0  0  0  0  0  0  0  0  0  0  0  0
  127.5340  122.0360   56.4130 N   0  0  0  0  0  0  0  0  0  0  0  0
  126.6990  122.5260   55.5180 C   0  0  0  0  0  0  0  0  0  0  0  0
  125.5930  123.2070   56.0170 C   0  0  0  0  0  0  0  0  0  0  0  0
  125.6590  123.1990   57.7540 S   0  0  0  0  0  0  0  0  0  0  0  0
  1  2  3  0
  2  3  1  0
  3  4  2  0
  4  5  1  0
  5  6  2  0
  6  7  1  0
  7  8  2  0
  8  9  1  0
  9 10  1  0
 10 11  1  0
 11 12  1  0
 12 13  1  0
 13 14  1  0
  8 15  1  0
 15 16  2  0
  4 17  1  0
 17 18  2  0
 18 19  1  0
 19 20  2  0
 20 21  1  0
 21 22  2  0
 22 23  1  0
 23 24  1  0
 24 25  1  0
 25 26  1  0
 26 27  1  0
 27 28  1  0
 22 29  1  0
 29 30  2  0
 18 31  1  0
 31 32  2  0
 32 33  1  0
 33 34  1  0
 34 35  1  0
 35 36  2  0
 35 37  1  0
 37 38  1  0
 38 39  2  0
 39 40  1  0
 40 41  2  0
 41 42  1  0
 32  3  1  0
 42 38  1  0
 16  5  1  0
 30 19  1  0
 14  9  1  0
 28 23  1  0
M  END
>  <Binding energies>  (11) 
[-11.49]

>  <Ligand effiencies>  (11) 
[-0.2672093023255814]

>  <Interactions>  (11) 
["V-B:GLU:543:CG:9876, V-B:GLU:543:CD:9877, V-A:GLU:543:CD:4905, V-B:GLU:543:CB:9875, V-A:GLU:543:CB:4903, V-A:HIS:456:CE1:4066, V-A:ILE:538:CG2:4860, V-A:PRO:540:CA:4880, V-A:PRO:540:CB:4882, V-A:TYR:539:CD2:4871, V-A:LEU:363:CD1:3185, V-A:ILE:538:CD1:4862, V-A:ASP:366:CG:3209, H-A:TYR:539:N:4867, V-A:TYR:539:C:4864, V-A:PRO:540:N:4881, V-B:PRO:540:C:9850, V-B:ILE:538:CB:9831, V-B:PRO:540:N:9853, V-B:LEU:363:CD1:8157, V-B:MET:535:CE:9804, V-B:PRO:540:CD:9856, H-B:TYR:539:N:9839, V-B:PRO:540:CB:9854, V-B:ILE:538:CG2:9832, V-B:PRO:540:CA:9852, V-B:TYR:539:CZ:9846, V-B:TYR:539:CE2:9845, V-B:TYR:539:C:9836, V-B:ALA:541:CB:9861, V-B:TYR:539:CD2:9843, V-A:TYR:484:CE1:4341, V-A:GLU:543:C:4899, V-B:HIS:456:CD2:9036, H-A:LYS:547:NZ:4948, H-B:TYR:539:O:9837, H-A:TYR:484:OH:4344, V-B:TYR:539:CG:9841, V-A:HIS:456:CD2:4064, V-B:ILE:538:CA:9829, V-A:GLY:544:C:4909"]

$$$$
2j_Grossjean_2025
     RDKit          3D

 23 24  0  0  0  0  0  0  0  0999 V2000
  124.1160  131.4210   57.2480 C   0  0  0  0  0  0  0  0  0  0  0  0
  125.3710  130.6480   56.8860 C   0  0  0  0  0  0  0  0  0  0  0  0
  125.9240  129.7080   57.7520 C   0  0  0  0  0  0  0  0  0  0  0  0
  127.0830  129.0170   57.3710 C   0  0  0  0  0  0  0  0  0  0  0  0
  127.6810  127.9790   58.3400 C   0  0  0  0  0  0  0  0  0  0  0  0
  128.9390  128.3060   58.6400 F   0  0  0  0  0  0  0  0  0  0  0  0
  126.9650  127.9390   59.4650 F   0  0  0  0  0  0  0  0  0  0  0  0
  127.6970  126.7460   57.8310 F   0  0  0  0  0  0  0  0  0  0  0  0
  127.6580  129.3030   56.1070 C   0  0  0  0  0  0  0  0  0  0  0  0
  128.8700  128.6110   55.6570 C   0  0  0  0  0  0  0  0  0  0  0  0
  129.8260  128.0640   55.3030 N   0  0  0  0  0  0  0  0  0  0  0  0
  127.0300  130.2740   55.2910 C   0  0  0  0  0  0  0  0  0  0  0  0
  127.6640  130.7140   53.6790 S   0  0  0  0  0  0  0  0  0  0  0  0
  128.6520  132.2400   53.8470 C   0  0  0  0  0  0  0  0  0  0  0  0
  129.4240  132.3670   55.1680 C   0  0  0  0  0  0  0  0  0  0  0  0
  129.1820  133.2860   55.9530 O   0  0  0  0  0  0  0  0  0  0  0  0
  130.3650  131.4170   55.3670 N   0  0  0  0  0  0  0  0  0  0  0  0
  131.2000  131.2950   56.4700 C   0  0  0  0  0  0  0  0  0  0  0  0
  132.5160  131.3090   56.4910 N   0  0  0  0  0  0  0  0  0  0  0  0
  132.9830  131.1700   57.7160 C   0  0  0  0  0  0  0  0  0  0  0  0
  132.0340  131.0390   58.7260 C   0  0  0  0  0  0  0  0  0  0  0  0
  130.4470  131.1020   58.0200 S   0  0  0  0  0  0  0  0  0  0  0  0
  125.9060  130.9310   55.6770 N   0  0  0  0  0  0  0  0  0  0  0  0
  1  2  1  0
  2  3  2  0
  3  4  1  0
  4  5  1  0
  5  6  1  0
  5  7  1  0
  5  8  1  0
  4  9  2  0
  9 10  1  0
 10 11  3  0
  9 12  1  0
 12 13  1  0
 13 14  1  0
 14 15  1  0
 15 16  2  0
 15 17  1  0
 17 18  1  0
 18 19  2  0
 19 20  1  0
 20 21  2  0
 21 22  1  0
 12 23  2  0
 23  2  1  0
 22 18  1  0
M  END
>  <Binding energies>  (12) 
[-6.18]

>  <Ligand effiencies>  (12) 
[-0.2575]

>  <Interactions>  (12) 
["V-A:TYR:539:CE2:4873, H-B:LYS:534:NZ:9792, V-A:PRO:540:CA:4880, V-A:PRO:540:CB:4882, H-A:TYR:539:OH:4875, V-A:LEU:363:CD1:3185, V-A:TYR:539:CE1:4872, V-A:ILE:538:CD1:4862, V-A:TYR:539:CZ:4874, H-A:TYR:539:N:4867, V-A:LEU:363:CA:3181, V-A:ILE:538:CA:4857, V-B:MET:535:CE:9804, V-B:ASP:366:CB:8180, H-A:TYR:531:OH:4792, H-B:TYR:531:OH:9764, V-B:ILE:369:CG2:8205, V-B:ASP:366:C:8176"]

$$$$
3ab_Grossjean_2025
     RDKit          3D

 33 35  0  0  0  0  0  0  0  0999 V2000
  128.0930  122.6940   54.9660 C   0  0  0  0  0  0  0  0  0  0  0  0
  127.6890  121.8160   56.0070 O   0  0  0  0  0  0  0  0  0  0  0  0
  126.6350  122.1180   56.8070 C   0  0  0  0  0  0  0  0  0  0  0  0
  125.4600  122.0620   56.4340 O   0  0  0  0  0  0  0  0  0  0  0  0
  127.0400  122.5260   58.1940 C   0  0  0  0  0  0  0  0  0  0  0  0
  126.2370  123.3570   58.9900 C   0  0  0  0  0  0  0  0  0  0  0  0
  126.6370  123.7180   60.2730 C   0  0  0  0  0  0  0  0  0  0  0  0
  127.8580  123.2510   60.7860 C   0  0  0  0  0  0  0  0  0  0  0  0
  128.3590  123.5460   62.0690 N   0  0  0  0  0  0  0  0  0  0  0  0
  129.3470  122.9530   62.7700 C   0  0  0  0  0  0  0  0  0  0  0  0
  130.0110  121.9870   62.3940 O   0  0  0  0  0  0  0  0  0  0  0  0
  129.6320  123.5620   64.1450 C   0  0  0  0  0  0  0  0  0  0  0  0
  130.4970  125.1560   64.0220 S   0  0  0  0  0  0  0  0  0  0  0  0
  129.4880  126.3760   64.8380 C   0  0  0  0  0  0  0  0  0  0  0  0
  129.5960  126.3510   66.1870 N   0  0  0  0  0  0  0  0  0  0  0  0
  128.8850  127.2320   66.9380 C   0  0  0  0  0  0  0  0  0  0  0  0
  129.0630  127.1420   68.4250 C   0  0  0  0  0  0  0  0  0  0  0  0
  130.1540  127.7580   69.0570 C   0  0  0  0  0  0  0  0  0  0  0  0
  130.3240  127.6780   70.4370 C   0  0  0  0  0  0  0  0  0  0  0  0
  129.4010  126.9770   71.2060 C   0  0  0  0  0  0  0  0  0  0  0  0
  128.3120  126.3540   70.6050 C   0  0  0  0  0  0  0  0  0  0  0  0
  128.1470  126.4360   69.2250 C   0  0  0  0  0  0  0  0  0  0  0  0
  128.0230  128.1550   66.3350 C   0  0  0  0  0  0  0  0  0  0  0  0
  127.8800  128.1860   64.9410 C   0  0  0  0  0  0  0  0  0  0  0  0
  126.9160  129.2140   64.3160 C   0  0  0  0  0  0  0  0  0  0  0  0
  127.5140  130.0140   63.4310 F   0  0  0  0  0  0  0  0  0  0  0  0
  125.9240  128.5870   63.6810 F   0  0  0  0  0  0  0  0  0  0  0  0
  126.3960  129.9880   65.2700 F   0  0  0  0  0  0  0  0  0  0  0  0
  128.6250  127.2670   64.1620 C   0  0  0  0  0  0  0  0  0  0  0  0
  128.4700  127.2190   62.7050 C   0  0  0  0  0  0  0  0  0  0  0  0
  128.3450  127.1840   61.5550 N   0  0  0  0  0  0  0  0  0  0  0  0
  128.6570  122.4190   60.0000 C   0  0  0  0  0  0  0  0  0  0  0  0
  128.2540  122.0610   58.7170 C   0  0  0  0  0  0  0  0  0  0  0  0
  1  2  1  0
  2  3  1  0
  3  4  2  0
  3  5  1  0
  5  6  2  0
  6  7  1  0
  7  8  2  0
  8  9  1  0
  9 10  1  0
 10 11  2  0
 10 12  1  0
 12 13  1  0
 13 14  1  0
 14 15  2  0
 15 16  1  0
 16 17  1  0
 17 18  2  0
 18 19  1  0
 19 20  2  0
 20 21  1  0
 21 22  2  0
 16 23  2  0
 23 24  1  0
 24 25  1  0
 25 26  1  0
 25 27  1  0
 25 28  1  0
 24 29  2  0
 29 30  1  0
 30 31  3  0
  8 32  1  0
 32 33  2  0
 33  5  1  0
 29 14  1  0
 22 17  1  0
M  END
>  <Binding energies>  (13) 
[-8.66]

>  <Ligand effiencies>  (13) 
[-0.25470588235294117]

>  <Interactions>  (13) 
["V-B:GLU:543:CG:9876, V-B:HIS:456:CE1:9038, V-B:ARG:545:CZ:9895, V-B:GLU:543:CD:9877, V-A:GLU:543:CD:4905, V-B:GLU:543:CB:9875, V-B:GLU:543:C:9871, H-B:GLU:543:OE2:9879, V-A:GLU:543:CB:4903, V-A:HIS:456:CE1:4066, V-B:TYR:539:CD1:9842, V-B:ILE:538:CB:9831, V-B:PRO:540:N:9853, V-B:MET:535:CE:9804, V-B:PRO:540:CD:9856, H-B:TYR:539:N:9839, V-B:PRO:540:CB:9854, V-B:ILE:538:CG2:9832, V-B:PRO:540:CA:9852, V-B:TYR:539:CE1:9844, V-B:TYR:539:CZ:9846, V-B:TYR:539:CE2:9845, V-B:TYR:539:C:9836, V-B:ALA:541:CB:9861, V-B:TYR:539:CD2:9843, V-B:TYR:539:CG:9841, V-A:HIS:456:CD2:4064, V-B:ILE:538:CA:9829"]

$$$$
3ac_Grossjean_2025
     RDKit          3D

 31 33  0  0  0  0  0  0  0  0999 V2000
  132.7160  131.4180   61.5740 C   0  0  0  0  0  0  0  0  0  0  0  0
  133.4130  131.0860   60.3770 O   0  0  0  0  0  0  0  0  0  0  0  0
  132.7430  131.1380   59.1700 C   0  0  0  0  0  0  0  0  0  0  0  0
  131.3590  131.2940   59.2320 C   0  0  0  0  0  0  0  0  0  0  0  0
  130.6000  131.3610   58.0680 C   0  0  0  0  0  0  0  0  0  0  0  0
  131.2160  131.2620   56.8190 C   0  0  0  0  0  0  0  0  0  0  0  0
  130.3690  131.3610   55.7000 N   0  0  0  0  0  0  0  0  0  0  0  0
  129.4450  132.3030   55.4120 C   0  0  0  0  0  0  0  0  0  0  0  0
  129.2100  133.3010   56.0940 O   0  0  0  0  0  0  0  0  0  0  0  0
  128.6510  132.0760   54.1250 C   0  0  0  0  0  0  0  0  0  0  0  0
  127.6180  130.5810   54.2080 S   0  0  0  0  0  0  0  0  0  0  0  0
  127.6730  129.9400   55.8700 C   0  0  0  0  0  0  0  0  0  0  0  0
  126.8970  130.6360   56.7360 N   0  0  0  0  0  0  0  0  0  0  0  0
  126.8330  130.2600   58.0400 C   0  0  0  0  0  0  0  0  0  0  0  0
  125.9570  131.0880   58.9330 C   0  0  0  0  0  0  0  0  0  0  0  0
  124.5580  131.0320   58.8190 C   0  0  0  0  0  0  0  0  0  0  0  0
  123.7400  131.7930   59.6490 C   0  0  0  0  0  0  0  0  0  0  0  0
  124.3110  132.6260   60.6060 C   0  0  0  0  0  0  0  0  0  0  0  0
  125.6930  132.7040   60.7360 C   0  0  0  0  0  0  0  0  0  0  0  0
  126.5080  131.9410   59.9040 C   0  0  0  0  0  0  0  0  0  0  0  0
  127.5730  129.1710   58.5080 C   0  0  0  0  0  0  0  0  0  0  0  0
  128.4010  128.4470   57.6380 C   0  0  0  0  0  0  0  0  0  0  0  0
  129.2040  127.2560   58.1980 C   0  0  0  0  0  0  0  0  0  0  0  0
  130.5230  127.4130   58.0660 F   0  0  0  0  0  0  0  0  0  0  0  0
  128.9510  127.1000   59.4980 F   0  0  0  0  0  0  0  0  0  0  0  0
  128.8640  126.1390   57.5550 F   0  0  0  0  0  0  0  0  0  0  0  0
  128.4700  128.8460   56.2800 C   0  0  0  0  0  0  0  0  0  0  0  0
  129.3780  128.1700   55.3510 C   0  0  0  0  0  0  0  0  0  0  0  0
  130.0970  127.6360   54.6180 N   0  0  0  0  0  0  0  0  0  0  0  0
  132.6100  131.1120   56.7470 C   0  0  0  0  0  0  0  0  0  0  0  0
  133.3660  131.0470   57.9150 C   0  0  0  0  0  0  0  0  0  0  0  0
  1  2  1  0
  2  3  1  0
  3  4  2  0
  4  5  1  0
  5  6  2  0
  6  7  1  0
  7  8  1  0
  8  9  2  0
  8 10  1  0
 10 11  1  0
 11 12  1  0
 12 13  2  0
 13 14  1  0
 14 15  1  0
 15 16  2  0
 16 17  1  0
 17 18  2  0
 18 19  1  0
 19 20  2  0
 14 21  2  0
 21 22  1  0
 22 23  1  0
 23 24  1  0
 23 25  1  0
 23 26  1  0
 22 27  2  0
 27 28  1  0
 28 29  3  0
  6 30  1  0
 30 31  2  0
 31  3  1  0
 27 12  1  0
 20 15  1  0
M  END
>  <Binding energies>  (14) 
[-7.75]

>  <Ligand effiencies>  (14) 
[-0.2421875]

>  <Interactions>  (14) 
["V-A:GLU:543:CD:4905, V-A:TYR:539:CE2:4873, V-A:PRO:540:CA:4880, V-A:PRO:540:CB:4882, V-A:LEU:363:CD1:3185, V-A:TYR:539:CE1:4872, V-A:ILE:538:CD1:4862, V-A:TYR:539:CZ:4874, H-A:TYR:539:N:4867, V-A:ASN:362:CB:3172, V-A:LEU:363:CA:3181, V-A:ILE:538:CA:4857, V-B:MET:535:CE:9804, V-B:ASP:366:CB:8180, H-A:TYR:531:OH:4792, V-A:TYR:531:CZ:4791, V-B:ILE:369:CD1:8207, V-B:ASP:366:CG:8181, V-B:ILE:369:CG2:8205, V-A:LEU:363:CB:3183, V-B:ASP:366:CA:8178, V-B:ILE:369:CB:8204, H-A:LEU:363:N:3182"]

$$$$
3af_Grossjean_2025
     RDKit          3D

 29 31  0  0  0  0  0  0  0  0999 V2000
  130.4450  132.1750   60.6900 N   0  0  0  0  0  0  0  0  0  0  0  0
  130.5370  131.2810   59.9600 C   0  0  0  0  0  0  0  0  0  0  0  0
  130.6510  130.1490   59.0370 C   0  0  0  0  0  0  0  0  0  0  0  0
  129.7830  129.0360   59.1480 C   0  0  0  0  0  0  0  0  0  0  0  0
  128.6510  128.9640   60.1930 C   0  0  0  0  0  0  0  0  0  0  0  0
  127.8950  130.0640   60.2140 F   0  0  0  0  0  0  0  0  0  0  0  0
  127.8500  127.9310   59.9260 F   0  0  0  0  0  0  0  0  0  0  0  0
  129.1630  128.8100   61.4140 F   0  0  0  0  0  0  0  0  0  0  0  0
  129.9670  127.9510   58.2770 C   0  0  0  0  0  0  0  0  0  0  0  0
  130.9890  127.9770   57.3230 C   0  0  0  0  0  0  0  0  0  0  0  0
  131.2420  126.8390   56.3800 C   0  0  0  0  0  0  0  0  0  0  0  0
  132.5510  126.5010   55.9970 C   0  0  0  0  0  0  0  0  0  0  0  0
  132.7920  125.4440   55.1240 C   0  0  0  0  0  0  0  0  0  0  0  0
  131.7250  124.7070   54.6220 C   0  0  0  0  0  0  0  0  0  0  0  0
  130.4190  125.0180   54.9870 C   0  0  0  0  0  0  0  0  0  0  0  0
  130.1820  126.0760   55.8610 C   0  0  0  0  0  0  0  0  0  0  0  0
  131.8220  129.0440   57.2220 N   0  0  0  0  0  0  0  0  0  0  0  0
  131.6500  130.1130   58.0380 C   0  0  0  0  0  0  0  0  0  0  0  0
  132.8260  131.4190   57.7470 S   0  0  0  0  0  0  0  0  0  0  0  0
  132.3780  132.2420   56.1890 C   0  0  0  0  0  0  0  0  0  0  0  0
  130.8670  132.2370   55.9570 C   0  0  0  0  0  0  0  0  0  0  0  0
  130.2360  133.2850   56.0990 O   0  0  0  0  0  0  0  0  0  0  0  0
  130.3390  131.0430   55.6120 N   0  0  0  0  0  0  0  0  0  0  0  0
  129.0000  130.6980   55.3400 C   0  0  0  0  0  0  0  0  0  0  0  0
  128.2220  129.7840   56.0730 C   0  0  0  0  0  0  0  0  0  0  0  0
  126.9030  129.5340   55.6880 C   0  0  0  0  0  0  0  0  0  0  0  0
  126.3930  130.2070   54.5770 C   0  0  0  0  0  0  0  0  0  0  0  0
  127.1210  131.0930   53.8540 N   0  0  0  0  0  0  0  0  0  0  0  0
  128.4010  131.3240   54.2410 C   0  0  0  0  0  0  0  0  0  0  0  0
  1  2  3  0
  2  3  1  0
  3  4  2  0
  4  5  1  0
  5  6  1  0
  5  7  1  0
  5  8  1  0
  4  9  1  0
  9 10  2  0
 10 11  1  0
 11 12  2  0
 12 13  1  0
 13 14  2  0
 14 15  1  0
 15 16  2  0
 10 17  1  0
 17 18  2  0
 18 19  1  0
 19 20  1  0
 20 21  1  0
 21 22  2  0
 21 23  1  0
 23 24  1  0
 24 25  2  0
 25 26  1  0
 26 27  2  0
 27 28  1  0
 28 29  2  0
 18  3  1  0
 29 24  1  0
 16 11  1  0
M  END
>  <Binding energies>  (15) 
[-8.1]

>  <Ligand effiencies>  (15) 
[-0.26999999999999996]

>  <Interactions>  (15) 
["V-A:GLU:543:CD:4905, H-B:LYS:534:NZ:9792, V-A:ILE:538:CG2:4860, V-A:PRO:540:CA:4880, V-A:PRO:540:CB:4882, H-A:TYR:539:OH:4875, V-A:LEU:363:CD1:3185, V-A:ILE:538:CD1:4862, H-A:TYR:539:N:4867, V-A:PRO:540:CD:4884, V-A:TYR:539:C:4864, V-A:PRO:540:N:4881, H-A:ALA:541:N:4888, V-B:MET:535:CE:9804, V-B:TYR:539:CE1:9844, V-B:TYR:531:CZ:9763, V-A:ASP:366:CB:3208, H-A:TYR:531:OH:4792, V-A:TYR:531:CZ:4791, V-B:TYR:531:CE1:9761, V-A:TYR:531:CE1:4789, V-A:ASN:370:CB:3241, V-A:ASP:366:C:3204, V-A:ASN:370:CG:3242"]

$$$$
3ag_Grossjean_2025
     RDKit          3D

 30 32  0  0  0  0  0  0  0  0999 V2000
  129.8810  127.6770   54.9670 N   0  0  0  0  0  0  0  0  0  0  0  0
  129.3030  128.3660   55.6950 C   0  0  0  0  0  0  0  0  0  0  0  0
  128.5740  129.2380   56.6210 C   0  0  0  0  0  0  0  0  0  0  0  0
  128.7990  129.1600   58.0170 C   0  0  0  0  0  0  0  0  0  0  0  0
  129.8470  128.2170   58.6400 C   0  0  0  0  0  0  0  0  0  0  0  0
  130.0260  128.4320   59.9450 F   0  0  0  0  0  0  0  0  0  0  0  0
  129.4620  126.9500   58.4900 F   0  0  0  0  0  0  0  0  0  0  0  0
  131.0280  128.3850   58.0440 F   0  0  0  0  0  0  0  0  0  0  0  0
  128.0380  129.9780   58.8660 C   0  0  0  0  0  0  0  0  0  0  0  0
  127.0700  130.8390   58.3370 C   0  0  0  0  0  0  0  0  0  0  0  0
  126.2270  131.7310   59.1970 C   0  0  0  0  0  0  0  0  0  0  0  0
  124.9110  131.3710   59.5300 C   0  0  0  0  0  0  0  0  0  0  0  0
  124.1220  132.1950   60.3280 C   0  0  0  0  0  0  0  0  0  0  0  0
  124.6400  133.3950   60.8050 C   0  0  0  0  0  0  0  0  0  0  0  0
  125.9400  133.7770   60.4870 C   0  0  0  0  0  0  0  0  0  0  0  0
  126.7250  132.9500   59.6880 C   0  0  0  0  0  0  0  0  0  0  0  0
  126.8650  130.9190   56.9970 N   0  0  0  0  0  0  0  0  0  0  0  0
  127.6040  130.1530   56.1570 C   0  0  0  0  0  0  0  0  0  0  0  0
  127.2030  130.3920   54.4400 S   0  0  0  0  0  0  0  0  0  0  0  0
  128.6050  131.2560   53.6710 C   0  0  0  0  0  0  0  0  0  0  0  0
  129.2620  132.2540   54.6260 C   0  0  0  0  0  0  0  0  0  0  0  0
  128.6780  133.2990   54.9190 O   0  0  0  0  0  0  0  0  0  0  0  0
  130.4720  131.9160   55.1050 N   0  0  0  0  0  0  0  0  0  0  0  0
  131.2590  132.7020   56.0530 C   0  0  0  0  0  0  0  0  0  0  0  0
  131.5600  131.9800   57.3620 C   0  0  0  0  0  0  0  0  0  0  0  0
  132.7800  131.3170   57.5240 C   0  0  0  0  0  0  0  0  0  0  0  0
  133.0710  130.6810   58.7290 C   0  0  0  0  0  0  0  0  0  0  0  0
  132.1450  130.7180   59.7690 C   0  0  0  0  0  0  0  0  0  0  0  0
  130.9340  131.3900   59.6190 C   0  0  0  0  0  0  0  0  0  0  0  0
  130.6420  132.0260   58.4160 C   0  0  0  0  0  0  0  0  0  0  0  0
  1  2  3  0
  2  3  1  0
  3  4  2  0
  4  5  1  0
  5  6  1  0
  5  7  1  0
  5  8  1  0
  4  9  1  0
  9 10  2  0
 10 11  1  0
 11 12  2  0
 12 13  1  0
 13 14  2  0
 14 15  1  0
 15 16  2  0
 10 17  1  0
 17 18  2  0
 18 19  1  0
 19 20  1  0
 20 21  1  0
 21 22  2  0
 21 23  1  0
 23 24  1  0
 24 25  1  0
 25 26  2  0
 26 27  1  0
 27 28  2  0
 28 29  1  0
 29 30  2  0
 18  3  1  0
 30 25  1  0
 16 11  1  0
M  END
>  <Binding energies>  (16) 
[-7.53]

>  <Ligand effiencies>  (16) 
[-0.24290322580645163]

>  <Interactions>  (16) 
["V-A:TYR:539:CE2:4873, V-A:ILE:538:CG2:4860, V-A:PRO:540:CA:4880, V-A:PRO:540:CB:4882, V-A:TYR:539:CD2:4871, V-A:LEU:363:CD1:3185, V-A:ILE:538:CD1:4862, V-A:ASP:366:CG:3209, H-A:TYR:539:N:4867, V-A:PRO:540:CD:4884, V-A:TYR:539:C:4864, V-A:PRO:540:N:4881, V-A:LEU:363:CA:3181, V-A:ILE:538:CA:4857, V-B:MET:535:CE:9804, V-B:ASP:366:CB:8180, H-A:TYR:531:OH:4792, V-B:ILE:369:CD1:8207, V-B:ASP:366:CG:8181, V-B:ILE:369:CG2:8205, V-B:ILE:369:CB:8204"]

$$$$
3bc_Grossjean_2025
     RDKit          3D

 28 30  0  0  0  0  0  0  0  0999 V2000
  128.0720  127.7170   73.2120 C   0  0  0  0  0  0  0  0  0  0  0  0
  129.3680  127.5480   72.6480 O   0  0  0  0  0  0  0  0  0  0  0  0
  129.4920  127.3850   71.2810 C   0  0  0  0  0  0  0  0  0  0  0  0
  128.5930  126.5050   70.6770 C   0  0  0  0  0  0  0  0  0  0  0  0
  128.6400  126.2750   69.3050 C   0  0  0  0  0  0  0  0  0  0  0  0
  129.5960  126.9190   68.5170 C   0  0  0  0  0  0  0  0  0  0  0  0
  129.5580  126.6340   67.1390 N   0  0  0  0  0  0  0  0  0  0  0  0
  130.5580  126.6730   66.2330 C   0  0  0  0  0  0  0  0  0  0  0  0
  131.7320  126.9430   66.4950 O   0  0  0  0  0  0  0  0  0  0  0  0
  130.1420  126.3060   64.8010 C   0  0  0  0  0  0  0  0  0  0  0  0
  129.9420  124.5210   64.4850 S   0  0  0  0  0  0  0  0  0  0  0  0
  130.8330  124.1290   62.9950 C   0  0  0  0  0  0  0  0  0  0  0  0
  130.0320  123.8790   61.9300 N   0  0  0  0  0  0  0  0  0  0  0  0
  130.5820  123.5690   60.7270 C   0  0  0  0  0  0  0  0  0  0  0  0
  129.6270  123.2860   59.6060 C   0  0  0  0  0  0  0  0  0  0  0  0
  129.7240  123.9800   58.3900 C   0  0  0  0  0  0  0  0  0  0  0  0
  128.8410  123.7220   57.3440 C   0  0  0  0  0  0  0  0  0  0  0  0
  127.8450  122.7650   57.5030 C   0  0  0  0  0  0  0  0  0  0  0  0
  127.7250  122.0650   58.7000 C   0  0  0  0  0  0  0  0  0  0  0  0
  128.6100  122.3270   59.7430 C   0  0  0  0  0  0  0  0  0  0  0  0
  131.9700  123.5020   60.5680 C   0  0  0  0  0  0  0  0  0  0  0  0
  132.8110  123.7800   61.6520 C   0  0  0  0  0  0  0  0  0  0  0  0
  134.3210  123.7120   61.4280 C   0  0  0  0  0  0  0  0  0  0  0  0
  132.2430  124.1130   62.9000 C   0  0  0  0  0  0  0  0  0  0  0  0
  133.1030  124.4550   64.0350 C   0  0  0  0  0  0  0  0  0  0  0  0
  133.7860  124.7250   64.9300 N   0  0  0  0  0  0  0  0  0  0  0  0
  130.4940  127.8150   69.1140 C   0  0  0  0  0  0  0  0  0  0  0  0
  130.4440  128.0420   70.4870 C   0  0  0  0  0  0  0  0  0  0  0  0
  1  2  1  0
  2  3  1  0
  3  4  2  0
  4  5  1  0
  5  6  2  0
  6  7  1  0
  7  8  1  0
  8  9  2  0
  8 10  1  0
 10 11  1  0
 11 12  1  0
 12 13  2  0
 13 14  1  0
 14 15  1  0
 15 16  2  0
 16 17  1  0
 17 18  2  0
 18 19  1  0
 19 20  2  0
 14 21  2  0
 21 22  1  0
 22 23  1  0
 22 24  2  0
 24 25  1  0
 25 26  3  0
  6 27  1  0
 27 28  2  0
 28  3  1  0
 24 12  1  0
 20 15  1  0
M  END
>  <Binding energies>  (17) 
[-8.25]

>  <Ligand effiencies>  (17) 
[-0.28448275862068967]

>  <Interactions>  (17) 
["H-B:GLU:543:OE1:9878, V-A:GLU:543:CD:4905, V-A:GLU:543:CB:4903, V-A:HIS:456:CE1:4066, V-A:ASP:366:CG:3209, V-B:PRO:540:N:9853, V-B:PRO:540:CA:9852, V-B:TYR:539:CE1:9844, V-B:TYR:539:CZ:9846, V-B:TYR:539:CE2:9845, V-B:TYR:539:C:9836, V-B:TYR:539:CD2:9843, V-A:GLY:454:CA:4045, V-A:GLU:543:C:4899, V-B:LYS:547:CE:9919, V-B:HIS:456:CD2:9036, H-A:LYS:547:NZ:4948, H-A:GLY:454:N:4046, V-A:ARG:545:CZ:4923, H-A:TYR:484:OH:4344, H-A:ARG:545:NE:4921, V-A:GLY:544:C:4909"]

$$$$
3bd_Grossjean_2025
     RDKit          3D

 26 28  0  0  0  0  0  0  0  0999 V2000
  129.1800  128.8650   60.6000 C   0  0  0  0  0  0  0  0  0  0  0  0
  130.1610  128.9670   59.4340 C   0  0  0  0  0  0  0  0  0  0  0  0
  130.2540  127.8860   58.5500 C   0  0  0  0  0  0  0  0  0  0  0  0
  131.1430  127.9390   57.4710 C   0  0  0  0  0  0  0  0  0  0  0  0
  131.2890  126.8180   56.4850 C   0  0  0  0  0  0  0  0  0  0  0  0
  130.1710  126.0750   56.0730 C   0  0  0  0  0  0  0  0  0  0  0  0
  130.3000  125.0320   55.1590 C   0  0  0  0  0  0  0  0  0  0  0  0
  131.5530  124.7160   54.6440 C   0  0  0  0  0  0  0  0  0  0  0  0
  132.6770  125.4350   55.0380 C   0  0  0  0  0  0  0  0  0  0  0  0
  132.5440  126.4770   55.9510 C   0  0  0  0  0  0  0  0  0  0  0  0
  131.9140  129.0380   57.2580 N   0  0  0  0  0  0  0  0  0  0  0  0
  131.8370  130.0950   58.1060 C   0  0  0  0  0  0  0  0  0  0  0  0
  132.9090  131.4710   57.7240 S   0  0  0  0  0  0  0  0  0  0  0  0
  132.3820  132.1710   56.1310 C   0  0  0  0  0  0  0  0  0  0  0  0
  130.8620  132.1450   55.9690 C   0  0  0  0  0  0  0  0  0  0  0  0
  130.2260  133.1890   56.1200 O   0  0  0  0  0  0  0  0  0  0  0  0
  130.3240  130.9410   55.6770 N   0  0  0  0  0  0  0  0  0  0  0  0
  128.9760  130.6060   55.4450 C   0  0  0  0  0  0  0  0  0  0  0  0
  128.5940  130.4900   54.1060 C   0  0  0  0  0  0  0  0  0  0  0  0
  127.2790  130.1690   53.7780 C   0  0  0  0  0  0  0  0  0  0  0  0
  126.3430  129.9750   54.7900 C   0  0  0  0  0  0  0  0  0  0  0  0
  126.7080  130.1020   56.1280 C   0  0  0  0  0  0  0  0  0  0  0  0
  128.0230  130.4210   56.4590 C   0  0  0  0  0  0  0  0  0  0  0  0
  130.9680  130.1040   59.2180 C   0  0  0  0  0  0  0  0  0  0  0  0
  130.8940  131.2540   60.1250 C   0  0  0  0  0  0  0  0  0  0  0  0
  130.8330  132.1610   60.8400 N   0  0  0  0  0  0  0  0  0  0  0  0
  1  2  1  0
  2  3  2  0
  3  4  1  0
  4  5  1  0
  5  6  2  0
  6  7  1  0
  7  8  2  0
  8  9  1  0
  9 10  2  0
  4 11  2  0
 11 12  1  0
 12 13  1  0
 13 14  1  0
 14 15  1  0
 15 16  2  0
 15 17  1  0
 17 18  1  0
 18 19  2  0
 19 20  1  0
 20 21  2  0
 21 22  1  0
 22 23  2  0
 12 24  2  0
 24 25  1  0
 25 26  3  0
 24  2  1  0
 10  5  1  0
 23 18  1  0
M  END
>  <Binding energies>  (18) 
[-8.41]

>  <Ligand effiencies>  (18) 
[-0.31148148148148147]

>  <Interactions>  (18) 
["V-A:ILE:538:CG2:4860, V-A:PRO:540:CA:4880, V-A:PRO:540:CB:4882, V-A:LEU:363:CD1:3185, V-A:ILE:538:CD1:4862, H-A:TYR:539:N:4867, V-A:PRO:540:CD:4884, V-A:PRO:540:N:4881, H-A:ALA:541:N:4888, V-B:MET:535:CE:9804, V-B:TYR:539:CE1:9844, V-B:TYR:531:CZ:9763, V-A:ASP:366:CB:3208, H-A:TYR:531:OH:4792, V-A:TYR:531:CZ:4791, V-B:TYR:531:CE1:9761, V-A:TYR:531:CE1:4789, V-A:ASN:370:CB:3241, V-A:ASP:366:C:3204, V-A:ASN:370:CG:3242"]

$$$$
3be_Grossjean_2025
     RDKit          3D

 27 29  0  0  0  0  0  0  0  0999 V2000
  125.7220  130.3930   57.4480 C   0  0  0  0  0  0  0  0  0  0  0  0
  126.6370  130.4510   56.2410 C   0  0  0  0  0  0  0  0  0  0  0  0
  126.1490  130.2780   54.9440 C   0  0  0  0  0  0  0  0  0  0  0  0
  127.0500  130.3410   53.8800 C   0  0  0  0  0  0  0  0  0  0  0  0
  128.4040  130.5740   54.1370 C   0  0  0  0  0  0  0  0  0  0  0  0
  128.8260  130.7430   55.4600 C   0  0  0  0  0  0  0  0  0  0  0  0
  130.2020  130.9640   55.6530 N   0  0  0  0  0  0  0  0  0  0  0  0
  130.8660  132.1370   55.7410 C   0  0  0  0  0  0  0  0  0  0  0  0
  130.3390  133.2480   55.6550 O   0  0  0  0  0  0  0  0  0  0  0  0
  132.3800  132.0030   55.9660 C   0  0  0  0  0  0  0  0  0  0  0  0
  132.8710  131.4510   57.6350 S   0  0  0  0  0  0  0  0  0  0  0  0
  131.8140  130.0990   58.1040 C   0  0  0  0  0  0  0  0  0  0  0  0
  131.8710  129.0450   57.2530 N   0  0  0  0  0  0  0  0  0  0  0  0
  131.1170  127.9390   57.4920 C   0  0  0  0  0  0  0  0  0  0  0  0
  131.2280  126.8230   56.4960 C   0  0  0  0  0  0  0  0  0  0  0  0
  132.4680  126.4880   55.9290 C   0  0  0  0  0  0  0  0  0  0  0  0
  132.5780  125.4560   55.0030 C   0  0  0  0  0  0  0  0  0  0  0  0
  131.4450  124.7410   54.6280 C   0  0  0  0  0  0  0  0  0  0  0  0
  130.2040  125.0540   55.1720 C   0  0  0  0  0  0  0  0  0  0  0  0
  130.0990  126.0880   56.0990 C   0  0  0  0  0  0  0  0  0  0  0  0
  130.2740  127.8740   58.6070 C   0  0  0  0  0  0  0  0  0  0  0  0
  130.2210  128.9430   59.5070 C   0  0  0  0  0  0  0  0  0  0  0  0
  129.3000  128.8190   60.7190 C   0  0  0  0  0  0  0  0  0  0  0  0
  131.0140  130.0860   59.2690 C   0  0  0  0  0  0  0  0  0  0  0  0
  131.0150  131.1940   60.2270 C   0  0  0  0  0  0  0  0  0  0  0  0
  131.0150  132.0680   60.9850 N   0  0  0  0  0  0  0  0  0  0  0  0
  127.9490  130.6790   56.5050 N   0  0  0  0  0  0  0  0  0  0  0  0
  1  2  1  0
  2  3  2  0
  3  4  1  0
  4  5  2  0
  5  6  1  0
  6  7  1  0
  7  8  1  0
  8  9  2  0
  8 10  1  0
 10 11  1  0
 11 12  1  0
 12 13  2  0
 13 14  1  0
 14 15  1  0
 15 16  2  0
 16 17  1  0
 17 18  2  0
 18 19  1  0
 19 20  2  0
 14 21  2  0
 21 22  1  0
 22 23  1  0
 22 24  2  0
 24 25  1  0
 25 26  3  0
  6 27  2  0
 27  2  1  0
 24 12  1  0
 20 15  1  0
M  END
>  <Binding energies>  (19) 
[-8.59]

>  <Ligand effiencies>  (19) 
[-0.3067857142857143]

>  <Interactions>  (19) 
["V-A:TYR:539:CE2:4873, V-A:ILE:538:CG2:4860, V-A:PRO:540:CA:4880, V-A:PRO:540:CB:4882, V-A:LEU:363:CD1:3185, V-A:ILE:538:CD1:4862, V-A:TYR:539:CZ:4874, H-A:TYR:539:N:4867, H-A:ALA:541:N:4888, V-B:MET:535:CE:9804, V-B:TYR:539:CE1:9844, V-B:TYR:531:CZ:9763, V-A:ASP:366:CB:3208, H-A:TYR:531:OH:4792, V-A:TYR:531:CE2:4790, V-A:TYR:531:CZ:4791, V-B:TYR:531:CE1:9761, V-A:TYR:531:CE1:4789, V-A:ASN:370:CB:3241, V-A:ASP:366:C:3204, V-A:ASN:370:CG:3242"]

$$$$
3bf_Grossjean_2025
     RDKit          3D

 26 28  0  0  0  0  0  0  0  0999 V2000
  129.0910  128.8890   60.4630 C   0  0  0  0  0  0  0  0  0  0  0  0
  130.1070  128.9490   59.3240 C   0  0  0  0  0  0  0  0  0  0  0  0
  130.2020  127.8480   58.4670 C   0  0  0  0  0  0  0  0  0  0  0  0
  131.1090  127.8680   57.4020 C   0  0  0  0  0  0  0  0  0  0  0  0
  131.2450  126.7300   56.4350 C   0  0  0  0  0  0  0  0  0  0  0  0
  130.1310  125.9510   56.0860 C   0  0  0  0  0  0  0  0  0  0  0  0
  130.2490  124.8920   55.1890 C   0  0  0  0  0  0  0  0  0  0  0  0
  131.4880  124.5970   54.6290 C   0  0  0  0  0  0  0  0  0  0  0  0
  132.6070  125.3520   54.9600 C   0  0  0  0  0  0  0  0  0  0  0  0
  132.4850  126.4100   55.8580 C   0  0  0  0  0  0  0  0  0  0  0  0
  131.9060  128.9480   57.1840 N   0  0  0  0  0  0  0  0  0  0  0  0
  131.8420  130.0130   58.0200 C   0  0  0  0  0  0  0  0  0  0  0  0
  132.9590  131.3290   57.5850 S   0  0  0  0  0  0  0  0  0  0  0  0
  132.3010  132.1630   56.1010 C   0  0  0  0  0  0  0  0  0  0  0  0
  130.7690  132.1980   55.9990 C   0  0  0  0  0  0  0  0  0  0  0  0
  130.1290  133.1370   56.4750 O   0  0  0  0  0  0  0  0  0  0  0  0
  130.2250  131.1550   55.3340 N   0  0  0  0  0  0  0  0  0  0  0  0
  128.8690  130.8830   55.0760 C   0  0  0  0  0  0  0  0  0  0  0  0
  128.1850  130.1010   56.0130 C   0  0  0  0  0  0  0  0  0  0  0  0
  126.8330  129.8070   55.8210 C   0  0  0  0  0  0  0  0  0  0  0  0
  126.1960  130.3140   54.6880 C   0  0  0  0  0  0  0  0  0  0  0  0
  126.8310  131.0840   53.7690 N   0  0  0  0  0  0  0  0  0  0  0  0
  128.1460  131.3620   53.9690 C   0  0  0  0  0  0  0  0  0  0  0  0
  130.9370  130.0690   59.1030 C   0  0  0  0  0  0  0  0  0  0  0  0
  130.8180  131.2530   59.9590 C   0  0  0  0  0  0  0  0  0  0  0  0
  130.7240  132.1870   60.6360 N   0  0  0  0  0  0  0  0  0  0  0  0
  1  2  1  0
  2  3  2  0
  3  4  1  0
  4  5  1  0
  5  6  2  0
  6  7  1  0
  7  8  2  0
  8  9  1  0
  9 10  2  0
  4 11  2  0
 11 12  1  0
 12 13  1  0
 13 14  1  0
 14 15  1  0
 15 16  2  0
 15 17  1  0
 17 18  1  0
 18 19  2  0
 19 20  1  0
 20 21  2  0
 21 22  1  0
 22 23  2  0
 12 24  2  0
 24 25  1  0
 25 26  3  0
 24  2  1  0
 10  5  1  0
 23 18  1  0
M  END
>  <Binding energies>  (20) 
[-8.88]

>  <Ligand effiencies>  (20) 
[-0.3288888888888889]

>  <Interactions>  (20) 
["H-B:LYS:534:NZ:9792, V-A:ILE:538:CG2:4860, V-A:PRO:540:CA:4880, V-A:PRO:540:CB:4882, H-A:TYR:539:OH:4875, V-A:LEU:363:CD1:3185, V-A:ILE:538:CD1:4862, V-A:TYR:539:CZ:4874, H-A:TYR:539:N:4867, V-A:PRO:540:CD:4884, V-A:TYR:539:C:4864, V-A:PRO:540:N:4881, H-A:ALA:541:N:4888, V-B:MET:535:CE:9804, V-B:TYR:539:CE1:9844, V-B:TYR:531:CZ:9763, V-A:ASP:366:CB:3208, H-A:TYR:531:OH:4792, V-A:TYR:531:CZ:4791, V-B:TYR:531:CE1:9761, V-A:TYR:531:CE1:4789, V-A:ASN:370:CB:3241, V-A:ASP:366:C:3204, V-A:ASN:370:CG:3242"]

$$$$
3bg_Grossjean_2025
     RDKit          3D

 27 29  0  0  0  0  0  0  0  0999 V2000
  132.5850  130.6490   60.3430 C   0  0  0  0  0  0  0  0  0  0  0  0
  131.4480  131.3000   59.5580 C   0  0  0  0  0  0  0  0  0  0  0  0
  130.3180  131.7260   60.2620 C   0  0  0  0  0  0  0  0  0  0  0  0
  129.2550  132.3350   59.5820 C   0  0  0  0  0  0  0  0  0  0  0  0
  128.0170  132.8270   60.2800 C   0  0  0  0  0  0  0  0  0  0  0  0
  127.7560  132.4860   61.6180 C   0  0  0  0  0  0  0  0  0  0  0  0
  126.6200  132.9530   62.2720 C   0  0  0  0  0  0  0  0  0  0  0  0
  125.7210  133.7710   61.5970 C   0  0  0  0  0  0  0  0  0  0  0  0
  125.9460  134.1150   60.2690 C   0  0  0  0  0  0  0  0  0  0  0  0
  127.0820  133.6430   59.6180 C   0  0  0  0  0  0  0  0  0  0  0  0
  129.3180  132.5340   58.2380 N   0  0  0  0  0  0  0  0  0  0  0  0
  130.4100  132.1280   57.5400 C   0  0  0  0  0  0  0  0  0  0  0  0
  130.3820  132.4790   55.7880 S   0  0  0  0  0  0  0  0  0  0  0  0
  129.6750  131.0350   54.9280 C   0  0  0  0  0  0  0  0  0  0  0  0
  128.1750  131.2030   54.6700 C   0  0  0  0  0  0  0  0  0  0  0  0
  127.7760  132.1120   53.9410 O   0  0  0  0  0  0  0  0  0  0  0  0
  127.3600  130.3350   55.2930 N   0  0  0  0  0  0  0  0  0  0  0  0
  125.9000  130.4220   55.3360 C   0  0  0  0  0  0  0  0  0  0  0  0
  125.3880  130.6620   56.7510 C   0  0  0  0  0  0  0  0  0  0  0  0
  124.1140  131.2040   56.9530 C   0  0  0  0  0  0  0  0  0  0  0  0
  123.6510  131.4320   58.2450 C   0  0  0  0  0  0  0  0  0  0  0  0
  124.4570  131.1070   59.3340 C   0  0  0  0  0  0  0  0  0  0  0  0
  125.7180  130.5480   59.1430 C   0  0  0  0  0  0  0  0  0  0  0  0
  126.1820  130.3200   57.8490 C   0  0  0  0  0  0  0  0  0  0  0  0
  131.5050  131.4940   58.1620 C   0  0  0  0  0  0  0  0  0  0  0  0
  132.6790  131.0650   57.3980 C   0  0  0  0  0  0  0  0  0  0  0  0
  133.6070  130.7250   56.7960 N   0  0  0  0  0  0  0  0  0  0  0  0
  1  2  1  0
  2  3  2  0
  3  4  1  0
  4  5  1  0
  5  6  2  0
  6  7  1  0
  7  8  2  0
  8  9  1  0
  9 10  2  0
  4 11  2  0
 11 12  1  0
 12 13  1  0
 13 14  1  0
 14 15  1  0
 15 16  2  0
 15 17  1  0
 17 18  1  0
 18 19  1  0
 19 20  2  0
 20 21  1  0
 21 22  2  0
 22 23  1  0
 23 24  2  0
 12 25  2  0
 25 26  1  0
 26 27  3  0
 25  2  1  0
 10  5  1  0
 24 19  1  0
M  END
>  <Binding energies>  (21) 
[-8.33]

>  <Ligand effiencies>  (21) 
[-0.2975]

>  <Interactions>  (21) 
["V-A:TYR:539:CE2:4873, H-B:LYS:534:NZ:9792, V-A:PRO:540:CA:4880, V-A:PRO:540:CB:4882, H-A:TYR:539:OH:4875, V-A:TYR:539:CD2:4871, V-A:LEU:363:CD1:3185, V-A:ILE:538:CD1:4862, V-A:TYR:539:CZ:4874, V-A:ASP:366:CG:3209, H-A:TYR:539:N:4867, V-A:TYR:539:C:4864, V-A:PRO:540:N:4881, V-B:LEU:475:CD2:9227, V-A:ALA:541:CB:4889, V-B:TYR:531:CZ:9763, V-B:ASP:366:CB:8180, H-A:TYR:531:OH:4792, V-B:ASP:366:CG:8181, V-B:ILE:369:CG2:8205, V-B:TYR:531:CE1:9761, V-B:ASP:366:CA:8178, V-B:ILE:369:CB:8204, V-B:ASP:366:C:8176"]

$$$$
3ca_Grossjean_2025
     RDKit          3D

 31 33  0  0  0  0  0  0  0  0999 V2000
  128.7410  122.7970   53.9570 C   0  0  0  0  0  0  0  0  0  0  0  0
  128.2520  123.1140   55.3730 C   0  0  0  0  0  0  0  0  0  0  0  0
  127.4960  122.0160   55.8700 O   0  0  0  0  0  0  0  0  0  0  0  0
  126.5030  122.2010   56.7770 C   0  0  0  0  0  0  0  0  0  0  0  0
  125.3030  122.1020   56.5030 O   0  0  0  0  0  0  0  0  0  0  0  0
  127.0100  122.5330   58.1520 C   0  0  0  0  0  0  0  0  0  0  0  0
  126.2170  123.3130   59.0030 C   0  0  0  0  0  0  0  0  0  0  0  0
  126.6580  123.6380   60.2820 C   0  0  0  0  0  0  0  0  0  0  0  0
  127.9030  123.1970   60.7340 C   0  0  0  0  0  0  0  0  0  0  0  0
  128.2520  123.5810   62.0430 N   0  0  0  0  0  0  0  0  0  0  0  0
  129.3310  123.2440   62.7820 C   0  0  0  0  0  0  0  0  0  0  0  0
  130.2530  122.5200   62.4070 O   0  0  0  0  0  0  0  0  0  0  0  0
  129.3800  123.8550   64.1860 C   0  0  0  0  0  0  0  0  0  0  0  0
  130.4740  125.3090   64.3000 S   0  0  0  0  0  0  0  0  0  0  0  0
  129.6880  126.5870   65.2720 C   0  0  0  0  0  0  0  0  0  0  0  0
  130.1340  126.7130   66.5470 N   0  0  0  0  0  0  0  0  0  0  0  0
  129.5990  127.6720   67.3340 C   0  0  0  0  0  0  0  0  0  0  0  0
  130.1640  127.7620   68.7380 C   0  0  0  0  0  0  0  0  0  0  0  0
  128.5940  128.5290   66.8930 C   0  0  0  0  0  0  0  0  0  0  0  0
  128.1020  128.4060   65.5870 C   0  0  0  0  0  0  0  0  0  0  0  0
  127.0140  129.3370   65.1620 C   0  0  0  0  0  0  0  0  0  0  0  0
  127.3290  130.5310   64.5000 C   0  0  0  0  0  0  0  0  0  0  0  0
  126.3220  131.4100   64.1090 C   0  0  0  0  0  0  0  0  0  0  0  0
  124.9920  131.0990   64.3830 C   0  0  0  0  0  0  0  0  0  0  0  0
  124.6630  129.9190   65.0460 C   0  0  0  0  0  0  0  0  0  0  0  0
  125.6730  129.0440   65.4360 C   0  0  0  0  0  0  0  0  0  0  0  0
  128.6680  127.4140   64.7440 C   0  0  0  0  0  0  0  0  0  0  0  0
  128.2300  127.2730   63.3520 C   0  0  0  0  0  0  0  0  0  0  0  0
  127.8840  127.1620   62.2530 N   0  0  0  0  0  0  0  0  0  0  0  0
  128.7010  122.4090   59.8910 C   0  0  0  0  0  0  0  0  0  0  0  0
  128.2560  122.0830   58.6120 C   0  0  0  0  0  0  0  0  0  0  0  0
  1  2  1  0
  2  3  1  0
  3  4  1  0
  4  5  2  0
  4  6  1  0
  6  7  2  0
  7  8  1  0
  8  9  2  0
  9 10  1  0
 10 11  1  0
 11 12  2  0
 11 13  1  0
 13 14  1  0
 14 15  1  0
 15 16  2  0
 16 17  1  0
 17 18  1  0
 17 19  2  0
 19 20  1  0
 20 21  1  0
 21 22  2  0
 22 23  1  0
 23 24  2  0
 24 25  1  0
 25 26  2  0
 20 27  2  0
 27 28  1  0
 28 29  3  0
  9 30  1  0
 30 31  2  0
 31  6  1  0
 27 15  1  0
 26 21  1  0
M  END
>  <Binding energies>  (22) 
[-9.18]

>  <Ligand effiencies>  (22) 
[-0.286875]

>  <Interactions>  (22) 
["V-B:GLU:543:CG:9876, V-B:HIS:456:CE1:9038, V-B:ARG:545:CZ:9895, V-B:GLU:543:CD:9877, V-A:GLU:543:CD:4905, V-B:GLU:543:CB:9875, V-A:GLU:543:CG:4904, H-B:GLU:543:OE2:9879, V-A:GLU:543:CB:4903, V-B:GLY:454:CA:9017, V-A:HIS:456:CE1:4066, V-B:TYR:539:CD1:9842, V-B:ILE:538:CB:9831, V-B:PRO:540:N:9853, V-B:MET:535:CE:9804, V-B:PRO:540:CD:9856, H-B:TYR:539:N:9839, V-B:PRO:540:CB:9854, V-B:ILE:538:CG2:9832, V-B:PRO:540:CA:9852, V-B:TYR:539:CE1:9844, V-B:TYR:539:CZ:9846, V-B:TYR:539:CE2:9845, V-B:TYR:539:C:9836, V-B:ALA:541:CB:9861, V-B:TYR:539:CD2:9843, V-B:TYR:539:CG:9841, V-B:ILE:538:CA:9829, V-B:VAL:537:C:9819"]

$$$$
3ce_Grossjean_2025
     RDKit          3D

 27 29  0  0  0  0  0  0  0  0999 V2000
  123.2260  129.9230   66.5980 C   0  0  0  0  0  0  0  0  0  0  0  0
  124.3200  129.8180   65.5530 C   0  0  0  0  0  0  0  0  0  0  0  0
  125.5910  129.3330   65.8710 C   0  0  0  0  0  0  0  0  0  0  0  0
  126.5450  129.2540   64.8570 C   0  0  0  0  0  0  0  0  0  0  0  0
  126.2110  129.6580   63.5620 C   0  0  0  0  0  0  0  0  0  0  0  0
  124.9220  130.1440   63.3130 C   0  0  0  0  0  0  0  0  0  0  0  0
  124.6360  130.5170   61.9890 N   0  0  0  0  0  0  0  0  0  0  0  0
  124.1860  131.7080   61.5350 C   0  0  0  0  0  0  0  0  0  0  0  0
  123.9530  132.6910   62.2410 O   0  0  0  0  0  0  0  0  0  0  0  0
  123.9700  131.8030   60.0250 C   0  0  0  0  0  0  0  0  0  0  0  0
  125.3370  131.0480   59.0950 S   0  0  0  0  0  0  0  0  0  0  0  0
  126.8120  131.8710   59.6500 C   0  0  0  0  0  0  0  0  0  0  0  0
  126.5830  133.0590   60.2610 N   0  0  0  0  0  0  0  0  0  0  0  0
  127.6410  133.7570   60.7350 C   0  0  0  0  0  0  0  0  0  0  0  0
  127.3120  135.0700   61.4190 C   0  0  0  0  0  0  0  0  0  0  0  0
  128.9530  133.3090   60.6070 C   0  0  0  0  0  0  0  0  0  0  0  0
  129.2120  132.0960   59.9560 C   0  0  0  0  0  0  0  0  0  0  0  0
  130.6370  131.6690   59.8200 C   0  0  0  0  0  0  0  0  0  0  0  0
  131.4390  131.5260   60.9590 C   0  0  0  0  0  0  0  0  0  0  0  0
  132.7700  131.1350   60.8400 C   0  0  0  0  0  0  0  0  0  0  0  0
  133.3080  130.8910   59.5800 C   0  0  0  0  0  0  0  0  0  0  0  0
  132.5260  131.0390   58.4370 C   0  0  0  0  0  0  0  0  0  0  0  0
  131.1960  131.4290   58.5580 C   0  0  0  0  0  0  0  0  0  0  0  0
  128.1130  131.3470   59.4630 C   0  0  0  0  0  0  0  0  0  0  0  0
  128.3210  130.0630   58.7860 C   0  0  0  0  0  0  0  0  0  0  0  0
  128.4860  129.0500   58.2520 N   0  0  0  0  0  0  0  0  0  0  0  0
  123.9810  130.2160   64.3000 N   0  0  0  0  0  0  0  0  0  0  0  0
  1  2  1  0
  2  3  2  0
  3  4  1  0
  4  5  2  0
  5  6  1  0
  6  7  1  0
  7  8  1  0
  8  9  2  0
  8 10  1  0
 10 11  1  0
 11 12  1  0
 12 13  2  0
 13 14  1  0
 14 15  1  0
 14 16  2  0
 16 17  1  0
 17 18  1  0
 18 19  2  0
 19 20  1  0
 20 21  2  0
 21 22  1  0
 22 23  2  0
 17 24  2  0
 24 25  1  0
 25 26  3  0
  6 27  2  0
 27  2  1  0
 24 12  1  0
 23 18  1  0
M  END
>  <Binding energies>  (23) 
[-8.51]

>  <Ligand effiencies>  (23) 
[-0.30392857142857144]

>  <Interactions>  (23) 
["V-B:HIS:456:CE1:9038, V-B:ARG:545:CZ:9895, V-A:GLU:543:CD:4905, H-B:GLY:454:N:9018, V-B:GLY:454:CA:9017, V-B:ARG:545:CD:9892, V-B:GLY:453:C:9010, V-B:GLY:453:CA:9012, V-B:ARG:545:CG:9891, V-B:ILE:455:C:9020, V-A:PRO:540:CA:4880, V-A:ASN:362:C:3168, V-A:PRO:540:CB:4882, V-A:ASP:366:CG:3209, V-A:ASN:362:CB:3172, V-A:TYR:539:C:4864, V-A:LEU:363:CA:3181, V-B:LEU:475:CD2:9227, V-A:ALA:541:CB:4889, V-A:PRO:540:C:4878, V-B:ASP:366:CB:8180, V-A:ALA:541:CA:4887, H-B:ASP:366:OD1:8182, V-B:ILE:369:CD1:8207, V-B:ASP:366:CG:8181, V-B:ILE:369:CG2:8205, V-B:ILE:369:CB:8204, H-B:ASP:366:OD2:8183, V-B:GLY:454:C:9015"]

$$$$
3cj_Grossjean_2025
     RDKit          3D

 25 27  0  0  0  0  0  0  0  0999 V2000
  130.0980  126.1070   55.8630 C   0  0  0  0  0  0  0  0  0  0  0  0
  130.0690  127.6180   55.9880 C   0  0  0  0  0  0  0  0  0  0  0  0
  130.6680  128.2720   57.0620 C   0  0  0  0  0  0  0  0  0  0  0  0
  130.6370  129.6720   57.1260 C   0  0  0  0  0  0  0  0  0  0  0  0
  131.3480  130.3320   58.2590 C   0  0  0  0  0  0  0  0  0  0  0  0
  132.7420  130.4570   58.2480 C   0  0  0  0  0  0  0  0  0  0  0  0
  133.4050  131.0620   59.3130 C   0  0  0  0  0  0  0  0  0  0  0  0
  132.6750  131.5390   60.3970 C   0  0  0  0  0  0  0  0  0  0  0  0
  131.2890  131.4140   60.4270 C   0  0  0  0  0  0  0  0  0  0  0  0
  130.6270  130.8090   59.3610 C   0  0  0  0  0  0  0  0  0  0  0  0
  129.9600  130.3780   56.1010 C   0  0  0  0  0  0  0  0  0  0  0  0
  129.8670  131.8410   56.1270 C   0  0  0  0  0  0  0  0  0  0  0  0
  129.7960  132.9960   56.1470 N   0  0  0  0  0  0  0  0  0  0  0  0
  129.3840  129.6330   55.0470 C   0  0  0  0  0  0  0  0  0  0  0  0
  128.6230  130.4000   53.6320 S   0  0  0  0  0  0  0  0  0  0  0  0
  126.8670  129.9270   53.7320 C   0  0  0  0  0  0  0  0  0  0  0  0
  126.3850  129.8270   55.1830 C   0  0  0  0  0  0  0  0  0  0  0  0
  126.7630  128.8870   55.8860 O   0  0  0  0  0  0  0  0  0  0  0  0
  125.5860  130.8340   55.5980 N   0  0  0  0  0  0  0  0  0  0  0  0
  125.1280  131.0490   56.8870 C   0  0  0  0  0  0  0  0  0  0  0  0
  123.8950  131.2890   57.2780 N   0  0  0  0  0  0  0  0  0  0  0  0
  123.8190  131.4130   58.5880 C   0  0  0  0  0  0  0  0  0  0  0  0
  125.0120  131.2750   59.2910 C   0  0  0  0  0  0  0  0  0  0  0  0
  126.3000  130.9670   58.1640 S   0  0  0  0  0  0  0  0  0  0  0  0
  129.4460  128.2790   54.9870 N   0  0  0  0  0  0  0  0  0  0  0  0
  1  2  1  0
  2  3  2  0
  3  4  1  0
  4  5  1  0
  5  6  2  0
  6  7  1  0
  7  8  2  0
  8  9  1  0
  9 10  2  0
  4 11  2  0
 11 12  1  0
 12 13  3  0
 11 14  1  0
 14 15  1  0
 15 16  1  0
 16 17  1  0
 17 18  2  0
 17 19  1  0
 19 20  1  0
 20 21  2  0
 21 22  1  0
 22 23  2  0
 23 24  1  0
 14 25  2  0
 25  2  1  0
 10  5  1  0
 24 20  1  0
M  END
>  <Binding energies>  (24) 
[-7.85]

>  <Ligand effiencies>  (24) 
[-0.3019230769230769]

>  <Interactions>  (24) 
["V-A:TYR:539:CE2:4873, V-A:PRO:540:CA:4880, V-A:ASN:362:C:3168, V-A:PRO:540:CB:4882, H-A:TYR:539:OH:4875, V-A:TYR:539:CZ:4874, H-A:TYR:539:N:4867, V-A:ASN:362:CB:3172, V-A:LEU:363:CA:3181, V-B:MET:535:CE:9804, V-B:TYR:531:CZ:9763, V-B:ASP:366:CB:8180, H-A:TYR:531:OH:4792, V-B:ASP:366:CG:8181, H-B:TYR:531:OH:9764, V-B:ILE:369:CG2:8205, V-B:TYR:531:CE1:9761, V-B:ASP:366:CA:8178, V-B:ILE:369:CB:8204, V-B:ASP:366:C:8176"]

$$$$
4ba_Grossjean_2025
     RDKit          3D

 28 30  0  0  0  0  0  0  0  0999 V2000
  124.8780  123.1760   55.3390 C   0  0  0  0  0  0  0  0  0  0  0  0
  125.2550  122.2580   56.5170 C   0  0  0  0  0  0  0  0  0  0  0  0
  126.7590  122.2100   56.8540 C   0  0  0  0  0  0  0  0  0  0  0  0
  127.5470  121.7110   56.0470 O   0  0  0  0  0  0  0  0  0  0  0  0
  127.1980  122.7870   58.1680 C   0  0  0  0  0  0  0  0  0  0  0  0
  126.6560  124.0040   58.6010 C   0  0  0  0  0  0  0  0  0  0  0  0
  127.0470  124.5630   59.8140 C   0  0  0  0  0  0  0  0  0  0  0  0
  127.9830  123.9170   60.6220 C   0  0  0  0  0  0  0  0  0  0  0  0
  128.3130  124.5740   61.8230 N   0  0  0  0  0  0  0  0  0  0  0  0
  129.5220  124.7870   62.3970 C   0  0  0  0  0  0  0  0  0  0  0  0
  130.5880  124.3700   61.9410 O   0  0  0  0  0  0  0  0  0  0  0  0
  129.4940  125.5450   63.6490 C   0  0  0  0  0  0  0  0  0  0  0  0
  130.4500  125.0120   65.0310 S   0  0  0  0  0  0  0  0  0  0  0  0
  129.8450  126.3230   66.0150 C   0  0  0  0  0  0  0  0  0  0  0  0
  130.2300  126.4750   67.2810 N   0  0  0  0  0  0  0  0  0  0  0  0
  129.6940  127.5260   67.9430 C   0  0  0  0  0  0  0  0  0  0  0  0
  130.1390  127.6760   69.3870 C   0  0  0  0  0  0  0  0  0  0  0  0
  128.7950  128.4230   67.3720 C   0  0  0  0  0  0  0  0  0  0  0  0
  128.3860  128.2690   66.0380 C   0  0  0  0  0  0  0  0  0  0  0  0
  127.3960  129.2820   65.4530 C   0  0  0  0  0  0  0  0  0  0  0  0
  127.7110  129.6640   64.2140 F   0  0  0  0  0  0  0  0  0  0  0  0
  126.1750  128.7480   65.4090 F   0  0  0  0  0  0  0  0  0  0  0  0
  127.3710  130.3770   66.2140 F   0  0  0  0  0  0  0  0  0  0  0  0
  128.9290  127.1650   65.3140 C   0  0  0  0  0  0  0  0  0  0  0  0
  128.7410  126.6890   63.9650 C   0  0  0  0  0  0  0  0  0  0  0  0
  127.9000  127.3040   63.0730 N   0  0  0  0  0  0  0  0  0  0  0  0
  128.5360  122.7010   60.1930 C   0  0  0  0  0  0  0  0  0  0  0  0
  128.1440  122.1430   58.9790 C   0  0  0  0  0  0  0  0  0  0  0  0
  1  2  1  0
  2  3  1  0
  3  4  2  0
  3  5  1  0
  5  6  2  0
  6  7  1  0
  7  8  2  0
  8  9  1  0
  9 10  1  0
 10 11  2  0
 10 12  1  0
 12 13  1  0
 13 14  1  0
 14 15  2  0
 15 16  1  0
 16 17  1  0
 16 18  2  0
 18 19  1  0
 19 20  1  0
 20 21  1  0
 20 22  1  0
 20 23  1  0
 19 24  2  0
 24 25  1  0
 25 26  1  0
  8 27  1  0
 27 28  2  0
 28  5  1  0
 25 12  2  0
 24 14  1  0
M  END
>  <Binding energies>  (25) 
[-7.36]

>  <Ligand effiencies>  (25) 
[-0.23741935483870968]

>  <Interactions>  (25) 
["V-B:GLU:543:CG:9876, V-B:HIS:456:CE1:9038, V-B:TYR:484:CZ:9315, V-B:GLU:543:CD:9877, H-B:GLU:543:OE1:9878, V-A:GLU:543:CD:4905, V-A:GLU:543:CG:4904, H-B:GLU:543:OE2:9879, V-A:GLU:543:CB:4903, V-A:HIS:456:CE1:4066, V-B:ILE:538:CB:9831, V-B:PRO:540:N:9853, V-B:LEU:363:CD1:8157, V-B:PRO:540:CD:9856, H-B:TYR:539:N:9839, V-B:PRO:540:CB:9854, V-B:ILE:538:CG2:9832, V-B:PRO:540:CA:9852, V-B:TYR:539:CZ:9846, V-B:TYR:539:CE2:9845, V-B:TYR:539:C:9836, V-B:PRO:540:CG:9855, V-B:ALA:541:CB:9861, V-B:TYR:539:CD2:9843, H-A:GLU:543:OE2:4907, V-B:TYR:484:CE1:9313"]

$$$$
4bb_Grossjean_2025
     RDKit          3D

 27 29  0  0  0  0  0  0  0  0999 V2000
  125.2340  122.4240   56.1720 C   0  0  0  0  0  0  0  0  0  0  0  0
  126.7010  122.2810   56.5830 C   0  0  0  0  0  0  0  0  0  0  0  0
  127.4630  121.6890   55.8170 O   0  0  0  0  0  0  0  0  0  0  0  0
  127.1310  122.8600   57.8970 C   0  0  0  0  0  0  0  0  0  0  0  0
  126.7740  124.1760   58.2180 C   0  0  0  0  0  0  0  0  0  0  0  0
  127.1600  124.7380   59.4310 C   0  0  0  0  0  0  0  0  0  0  0  0
  127.9040  123.9940   60.3500 C   0  0  0  0  0  0  0  0  0  0  0  0
  128.2430  124.6600   61.5440 N   0  0  0  0  0  0  0  0  0  0  0  0
  129.4600  124.9990   62.0370 C   0  0  0  0  0  0  0  0  0  0  0  0
  130.5280  124.7320   61.4870 O   0  0  0  0  0  0  0  0  0  0  0  0
  129.4390  125.7020   63.3220 C   0  0  0  0  0  0  0  0  0  0  0  0
  130.5010  125.1890   64.6310 S   0  0  0  0  0  0  0  0  0  0  0  0
  129.8560  126.4140   65.6990 C   0  0  0  0  0  0  0  0  0  0  0  0
  130.3000  126.5520   66.9470 N   0  0  0  0  0  0  0  0  0  0  0  0
  129.7240  127.5350   67.6760 C   0  0  0  0  0  0  0  0  0  0  0  0
  130.2440  127.6760   69.0950 C   0  0  0  0  0  0  0  0  0  0  0  0
  128.7240  128.3750   67.1920 C   0  0  0  0  0  0  0  0  0  0  0  0
  128.2540  128.2350   65.8780 C   0  0  0  0  0  0  0  0  0  0  0  0
  127.1530  129.1820   65.3890 C   0  0  0  0  0  0  0  0  0  0  0  0
  125.9570  128.5940   65.3070 F   0  0  0  0  0  0  0  0  0  0  0  0
  127.0360  130.2090   66.2320 F   0  0  0  0  0  0  0  0  0  0  0  0
  127.4570  129.6410   64.1760 F   0  0  0  0  0  0  0  0  0  0  0  0
  128.8400  127.2060   65.0800 C   0  0  0  0  0  0  0  0  0  0  0  0
  128.6210  126.7720   63.7230 C   0  0  0  0  0  0  0  0  0  0  0  0
  127.6970  127.3600   62.8980 N   0  0  0  0  0  0  0  0  0  0  0  0
  128.2710  122.6780   60.0320 C   0  0  0  0  0  0  0  0  0  0  0  0
  127.8840  122.1180   58.8170 C   0  0  0  0  0  0  0  0  0  0  0  0
  1  2  1  0
  2  3  2  0
  2  4  1  0
  4  5  2  0
  5  6  1  0
  6  7  2  0
  7  8  1  0
  8  9  1  0
  9 10  2  0
  9 11  1  0
 11 12  1  0
 12 13  1  0
 13 14  2  0
 14 15  1  0
 15 16  1  0
 15 17  2  0
 17 18  1  0
 18 19  1  0
 19 20  1  0
 19 21  1  0
 19 22  1  0
 18 23  2  0
 23 24  1  0
 24 25  1  0
  7 26  1  0
 26 27  2  0
 27  4  1  0
 24 11  2  0
 23 13  1  0
M  END
>  <Binding energies>  (26) 
[-7.25]

>  <Ligand effiencies>  (26) 
[-0.24166666666666667]

>  <Interactions>  (26) 
["V-B:HIS:456:CE1:9038, V-B:ARG:545:CZ:9895, V-B:TYR:484:CZ:9315, V-B:GLU:543:CD:9877, H-B:GLU:543:OE1:9878, V-A:GLU:543:CD:4905, H-B:GLU:543:OE2:9879, V-A:GLU:543:CB:4903, V-A:HIS:456:CE1:4066, V-B:ILE:538:CB:9831, V-B:PRO:540:N:9853, V-B:LEU:363:CD1:8157, V-B:PRO:540:CD:9856, H-B:TYR:539:N:9839, V-B:PRO:540:CB:9854, V-B:ILE:538:CG2:9832, V-B:PRO:540:CA:9852, V-B:TYR:539:CE2:9845, V-B:TYR:539:C:9836, V-B:PRO:540:CG:9855, V-B:ALA:541:CB:9861, V-B:TYR:539:CD2:9843, H-A:GLU:543:OE2:4907, V-B:TYR:484:CE1:9313, H-B:ASP:366:OD1:8182"]

$$$$
4bd_Grossjean_2025
     RDKit          3D

 24 26  0  0  0  0  0  0  0  0999 V2000
  124.7780  122.8840   55.1260 C   0  0  0  0  0  0  0  0  0  0  0  0
  125.3820  123.1010   56.5020 C   0  0  0  0  0  0  0  0  0  0  0  0
  124.5880  123.4670   57.5850 C   0  0  0  0  0  0  0  0  0  0  0  0
  125.1610  123.6660   58.8510 C   0  0  0  0  0  0  0  0  0  0  0  0
  124.2480  124.0720   60.0130 C   0  0  0  0  0  0  0  0  0  0  0  0
  124.6230  125.2110   60.5990 F   0  0  0  0  0  0  0  0  0  0  0  0
  123.0020  124.2420   59.5710 F   0  0  0  0  0  0  0  0  0  0  0  0
  124.2580  123.1220   60.9480 F   0  0  0  0  0  0  0  0  0  0  0  0
  126.5700  123.4760   58.9680 C   0  0  0  0  0  0  0  0  0  0  0  0
  127.4880  123.5850   60.0750 C   0  0  0  0  0  0  0  0  0  0  0  0
  127.0820  123.9260   61.3390 N   0  0  0  0  0  0  0  0  0  0  0  0
  128.8250  123.3130   59.7420 C   0  0  0  0  0  0  0  0  0  0  0  0
  130.0070  123.3470   60.6090 C   0  0  0  0  0  0  0  0  0  0  0  0
  129.8950  123.2200   61.8290 O   0  0  0  0  0  0  0  0  0  0  0  0
  131.1920  123.5110   59.9700 N   0  0  0  0  0  0  0  0  0  0  0  0
  132.4880  123.6260   60.5040 C   0  0  0  0  0  0  0  0  0  0  0  0
  132.5760  124.1780   61.7860 C   0  0  0  0  0  0  0  0  0  0  0  0
  133.8140  124.3240   62.4050 C   0  0  0  0  0  0  0  0  0  0  0  0
  134.9680  123.9100   61.7460 C   0  0  0  0  0  0  0  0  0  0  0  0
  134.8940  123.3460   60.4750 C   0  0  0  0  0  0  0  0  0  0  0  0
  133.6570  123.1990   59.8520 C   0  0  0  0  0  0  0  0  0  0  0  0
  128.9870  122.9030   58.0360 S   0  0  0  0  0  0  0  0  0  0  0  0
  127.2690  123.1010   57.7790 C   0  0  0  0  0  0  0  0  0  0  0  0
  126.7200  122.9130   56.5800 N   0  0  0  0  0  0  0  0  0  0  0  0
  1  2  1  0
  2  3  2  0
  3  4  1  0
  4  5  1  0
  5  6  1  0
  5  7  1  0
  5  8  1  0
  4  9  2  0
  9 10  1  0
 10 11  1  0
 10 12  2  0
 12 13  1  0
 13 14  2  0
 13 15  1  0
 15 16  1  0
 16 17  2  0
 17 18  1  0
 18 19  2  0
 19 20  1  0
 20 21  2  0
 12 22  1  0
 22 23  1  0
 23 24  2  0
 24  2  1  0
 23  9  1  0
 21 16  1  0
M  END
>  <Binding energies>  (27) 
[-6.65]

>  <Ligand effiencies>  (27) 
[-0.24629629629629632]

>  <Interactions>  (27) 
["V-B:GLU:543:CD:9877, H-B:GLU:543:OE2:9879, V-A:ASP:366:CG:3209, V-B:ASN:362:C:8140, V-B:TYR:539:CD1:9842, V-B:PRO:540:C:9850, V-B:ILE:538:CB:9831, V-B:LEU:363:CD1:8157, V-B:ASN:362:CB:8144, V-B:PRO:540:CB:9854, V-B:ILE:538:CG2:9832, V-B:PRO:540:CA:9852, V-B:TYR:539:CE1:9844, V-B:TYR:539:CZ:9846, V-B:TYR:539:CE2:9845, V-B:LEU:363:CB:8155, V-B:LEU:363:CA:8153, V-B:ALA:541:CB:9861, V-B:TYR:539:CD2:9843, H-B:TYR:539:OH:9847, V-A:GLY:454:CA:4045, V-B:ASP:366:CG:8181, V-A:GLY:453:C:4038, V-B:ILE:538:CD1:9834, V-A:GLY:453:CA:4040, V-A:ILE:369:CG2:3233, V-A:ASP:366:CA:3206, V-A:ILE:369:CG1:3234, V-A:ILE:369:CB:3232"]

$$$$
4be_Grossjean_2025
     RDKit          3D

 25 27  0  0  0  0  0  0  0  0999 V2000
  134.7170  120.2270   61.3960 C   0  0  0  0  0  0  0  0  0  0  0  0
  134.0710  121.5950   61.2850 C   0  0  0  0  0  0  0  0  0  0  0  0
  134.7150  122.7470   61.7440 C   0  0  0  0  0  0  0  0  0  0  0  0
  134.0600  123.9720   61.6120 C   0  0  0  0  0  0  0  0  0  0  0  0
  132.7910  124.0160   61.0300 C   0  0  0  0  0  0  0  0  0  0  0  0
  132.2050  122.8250   60.5860 C   0  0  0  0  0  0  0  0  0  0  0  0
  130.9240  122.9370   60.0160 N   0  0  0  0  0  0  0  0  0  0  0  0
  129.7120  122.8080   60.6130 C   0  0  0  0  0  0  0  0  0  0  0  0
  129.5600  122.5670   61.8120 O   0  0  0  0  0  0  0  0  0  0  0  0
  128.5550  122.9540   59.7250 C   0  0  0  0  0  0  0  0  0  0  0  0
  128.6800  122.4980   58.0270 S   0  0  0  0  0  0  0  0  0  0  0  0
  127.0270  122.9820   57.7290 C   0  0  0  0  0  0  0  0  0  0  0  0
  126.4770  122.8690   56.5210 N   0  0  0  0  0  0  0  0  0  0  0  0
  125.1900  123.2740   56.4140 C   0  0  0  0  0  0  0  0  0  0  0  0
  124.5820  123.1400   55.0300 C   0  0  0  0  0  0  0  0  0  0  0  0
  124.4480  123.7830   57.4770 C   0  0  0  0  0  0  0  0  0  0  0  0
  125.0220  123.9040   58.7520 C   0  0  0  0  0  0  0  0  0  0  0  0
  124.1650  124.4650   59.8920 C   0  0  0  0  0  0  0  0  0  0  0  0
  124.7610  125.4630   60.5500 F   0  0  0  0  0  0  0  0  0  0  0  0
  123.0190  124.9400   59.4030 F   0  0  0  0  0  0  0  0  0  0  0  0
  123.9010  123.5040   60.7750 F   0  0  0  0  0  0  0  0  0  0  0  0
  126.3790  123.4890   58.8980 C   0  0  0  0  0  0  0  0  0  0  0  0
  127.2840  123.4700   60.0210 C   0  0  0  0  0  0  0  0  0  0  0  0
  126.9260  123.9120   61.2690 N   0  0  0  0  0  0  0  0  0  0  0  0
  132.8380  121.6220   60.7160 N   0  0  0  0  0  0  0  0  0  0  0  0
  1  2  1  0
  2  3  2  0
  3  4  1  0
  4  5  2  0
  5  6  1  0
  6  7  1  0
  7  8  1  0
  8  9  2  0
  8 10  1  0
 10 11  1  0
 11 12  1  0
 12 13  2  0
 13 14  1  0
 14 15  1  0
 14 16  2  0
 16 17  1  0
 17 18  1  0
 18 19  1  0
 18 20  1  0
 18 21  1  0
 17 22  2  0
 22 23  1  0
 23 24  1  0
  6 25  2  0
 25  2  1  0
 23 10  2  0
 22 12  1  0
M  END
>  <Binding energies>  (28) 
[-6.66]

>  <Ligand effiencies>  (28) 
[-0.23785714285714285]

>  <Interactions>  (28) 
["V-B:GLU:543:CD:9877, H-B:GLU:543:OE2:9879, V-A:ASP:366:CG:3209, V-B:ASN:362:C:8140, V-B:TYR:539:CD1:9842, V-B:ILE:538:CB:9831, V-B:PRO:540:N:9853, V-B:LEU:363:CD1:8157, V-B:ASN:362:CB:8144, V-B:PRO:540:CB:9854, V-B:ILE:538:CG2:9832, V-B:PRO:540:CA:9852, V-B:TYR:539:CE1:9844, V-B:TYR:539:CZ:9846, V-B:TYR:539:CE2:9845, V-B:LEU:363:CB:8155, V-B:LEU:363:CA:8153, V-B:TYR:539:C:9836, V-B:ASP:366:CB:8180, V-B:ALA:541:CB:9861, V-A:LEU:475:CD1:4254, V-B:TYR:539:CD2:9843, H-B:TYR:539:OH:9847, V-A:GLY:454:CA:4045, V-B:ASP:366:CG:8181, V-B:TYR:539:CG:9841, V-A:GLY:453:C:4038, V-B:ILE:538:CD1:9834, V-A:GLY:453:CA:4040, V-A:ILE:369:CG2:3233, V-A:ILE:369:CG1:3234, V-A:ILE:369:CB:3232, V-A:ILE:369:CD1:3235, V-A:SER:385:C:3401"]

$$$$
4bg_Grossjean_2025
     RDKit          3D

 25 27  0  0  0  0  0  0  0  0999 V2000
  124.8710  123.1590   55.0070 C   0  0  0  0  0  0  0  0  0  0  0  0
  125.3510  123.1910   56.4470 C   0  0  0  0  0  0  0  0  0  0  0  0
  124.5880  123.7950   57.4430 C   0  0  0  0  0  0  0  0  0  0  0  0
  125.0450  123.8230   58.7700 C   0  0  0  0  0  0  0  0  0  0  0  0
  124.1720  124.4980   59.8320 C   0  0  0  0  0  0  0  0  0  0  0  0
  123.7050  123.6430   60.7450 F   0  0  0  0  0  0  0  0  0  0  0  0
  124.8820  125.4230   60.4780 F   0  0  0  0  0  0  0  0  0  0  0  0
  123.1200  125.0760   59.2520 F   0  0  0  0  0  0  0  0  0  0  0  0
  126.3060  123.2120   59.0380 C   0  0  0  0  0  0  0  0  0  0  0  0
  127.0850  123.0530   60.2420 C   0  0  0  0  0  0  0  0  0  0  0  0
  126.6780  123.5390   61.4590 N   0  0  0  0  0  0  0  0  0  0  0  0
  128.2860  122.3520   60.0580 C   0  0  0  0  0  0  0  0  0  0  0  0
  129.3200  122.0400   61.0450 C   0  0  0  0  0  0  0  0  0  0  0  0
  129.7020  120.8840   61.2330 O   0  0  0  0  0  0  0  0  0  0  0  0
  129.8490  123.0950   61.6990 N   0  0  0  0  0  0  0  0  0  0  0  0
  130.8800  123.0220   62.7340 C   0  0  0  0  0  0  0  0  0  0  0  0
  132.2940  122.9110   62.1800 C   0  0  0  0  0  0  0  0  0  0  0  0
  132.7080  121.7390   61.5400 C   0  0  0  0  0  0  0  0  0  0  0  0
  133.9880  121.6550   61.0010 C   0  0  0  0  0  0  0  0  0  0  0  0
  134.8480  122.7480   61.0890 C   0  0  0  0  0  0  0  0  0  0  0  0
  134.4370  123.9260   61.7090 C   0  0  0  0  0  0  0  0  0  0  0  0
  133.1560  124.0100   62.2510 C   0  0  0  0  0  0  0  0  0  0  0  0
  128.5120  121.8970   58.3720 S   0  0  0  0  0  0  0  0  0  0  0  0
  126.9850  122.6210   57.9270 C   0  0  0  0  0  0  0  0  0  0  0  0
  126.5460  122.6000   56.6680 N   0  0  0  0  0  0  0  0  0  0  0  0
  1  2  1  0
  2  3  2  0
  3  4  1  0
  4  5  1  0
  5  6  1  0
  5  7  1  0
  5  8  1  0
  4  9  2  0
  9 10  1  0
 10 11  1  0
 10 12  2  0
 12 13  1  0
 13 14  2  0
 13 15  1  0
 15 16  1  0
 16 17  1  0
 17 18  2  0
 18 19  1  0
 19 20  2  0
 20 21  1  0
 21 22  2  0
 12 23  1  0
 23 24  1  0
 24 25  2  0
 25  2  1  0
 24  9  1  0
 22 17  1  0
M  END
>  <Binding energies>  (29) 
[-7.19]

>  <Ligand effiencies>  (29) 
[-0.2567857142857143]

>  <Interactions>  (29) 
["V-B:GLU:543:CG:9876, V-B:GLU:543:CD:9877, H-B:GLU:543:OE2:9879, V-A:ASP:366:CG:3209, V-B:ASN:362:C:8140, V-B:TYR:539:CD1:9842, V-B:ILE:538:CB:9831, V-B:PRO:540:N:9853, V-B:LEU:363:CD1:8157, V-B:ASN:362:CB:8144, V-B:PRO:540:CB:9854, V-B:ILE:538:CG2:9832, V-B:PRO:540:CA:9852, V-B:TYR:539:CE1:9844, V-B:TYR:539:CZ:9846, V-B:TYR:539:CE2:9845, V-B:LEU:363:CB:8155, V-B:LEU:363:CA:8153, V-B:TYR:539:C:9836, V-B:ASP:366:CB:8180, V-B:ALA:541:CB:9861, V-A:LEU:475:CD1:4254, V-B:TYR:539:CD2:9843, V-A:GLY:454:CA:4045, V-B:ASP:366:CG:8181, V-B:TYR:539:CG:9841, V-A:GLY:453:C:4038, V-A:GLY:453:CA:4040, V-A:ILE:369:CG2:3233, V-A:ILE:369:CG1:3234, V-A:ILE:369:CB:3232, V-B:ASN:362:CA:8142"]

$$$$
4ca_Grossjean_2025
     RDKit          3D

 34 37  0  0  0  0  0  0  0  0999 V2000
  128.3300  123.0810   53.5020 C   0  0  0  0  0  0  0  0  0  0  0  0
  128.5840  123.0370   55.0120 C   0  0  0  0  0  0  0  0  0  0  0  0
  127.8940  121.9290   55.5760 O   0  0  0  0  0  0  0  0  0  0  0  0
  126.8500  122.1100   56.4250 C   0  0  0  0  0  0  0  0  0  0  0  0
  125.6940  121.7610   56.1660 O   0  0  0  0  0  0  0  0  0  0  0  0
  127.2410  122.7750   57.7120 C   0  0  0  0  0  0  0  0  0  0  0  0
  126.2480  123.3540   58.5140 C   0  0  0  0  0  0  0  0  0  0  0  0
  126.5800  123.9740   59.7150 C   0  0  0  0  0  0  0  0  0  0  0  0
  127.9090  124.0360   60.1360 C   0  0  0  0  0  0  0  0  0  0  0  0
  128.1300  124.6780   61.3700 N   0  0  0  0  0  0  0  0  0  0  0  0
  129.2740  125.1720   61.9040 C   0  0  0  0  0  0  0  0  0  0  0  0
  130.3610  125.1750   61.3270 O   0  0  0  0  0  0  0  0  0  0  0  0
  129.1420  125.7420   63.2470 C   0  0  0  0  0  0  0  0  0  0  0  0
  129.7440  124.8580   64.6470 S   0  0  0  0  0  0  0  0  0  0  0  0
  129.2720  126.1520   65.7230 C   0  0  0  0  0  0  0  0  0  0  0  0
  129.4840  126.0760   67.0340 N   0  0  0  0  0  0  0  0  0  0  0  0
  129.0960  127.1360   67.7890 C   0  0  0  0  0  0  0  0  0  0  0  0
  129.3580  127.0240   69.2640 C   0  0  0  0  0  0  0  0  0  0  0  0
  130.3970  127.7520   69.8670 C   0  0  0  0  0  0  0  0  0  0  0  0
  130.6480  127.6480   71.2320 C   0  0  0  0  0  0  0  0  0  0  0  0
  129.8620  126.8110   72.0180 C   0  0  0  0  0  0  0  0  0  0  0  0
  128.8280  126.0770   71.4460 C   0  0  0  0  0  0  0  0  0  0  0  0
  128.5800  126.1830   70.0800 C   0  0  0  0  0  0  0  0  0  0  0  0
  128.4770  128.2570   67.2260 C   0  0  0  0  0  0  0  0  0  0  0  0
  128.2450  128.3450   65.8450 C   0  0  0  0  0  0  0  0  0  0  0  0
  127.5650  129.6040   65.2950 C   0  0  0  0  0  0  0  0  0  0  0  0
  128.2050  130.1300   64.2490 F   0  0  0  0  0  0  0  0  0  0  0  0
  126.3260  129.3120   64.8980 F   0  0  0  0  0  0  0  0  0  0  0  0
  127.5150  130.5410   66.2420 F   0  0  0  0  0  0  0  0  0  0  0  0
  128.6630  127.2460   65.0420 C   0  0  0  0  0  0  0  0  0  0  0  0
  128.6050  126.9840   63.6240 C   0  0  0  0  0  0  0  0  0  0  0  0
  128.0680  127.8730   62.7290 N   0  0  0  0  0  0  0  0  0  0  0  0
  128.9090  123.4550   59.3440 C   0  0  0  0  0  0  0  0  0  0  0  0
  128.5760  122.8330   58.1430 C   0  0  0  0  0  0  0  0  0  0  0  0
  1  2  1  0
  2  3  1  0
  3  4  1  0
  4  5  2  0
  4  6  1  0
  6  7  2  0
  7  8  1  0
  8  9  2  0
  9 10  1  0
 10 11  1  0
 11 12  2  0
 11 13  1  0
 13 14  1  0
 14 15  1  0
 15 16  2  0
 16 17  1  0
 17 18  1  0
 18 19  2  0
 19 20  1  0
 20 21  2  0
 21 22  1  0
 22 23  2  0
 17 24  2  0
 24 25  1  0
 25 26  1  0
 26 27  1  0
 26 28  1  0
 26 29  1  0
 25 30  2  0
 30 31  1  0
 31 32  1  0
  9 33  1  0
 33 34  2  0
 34  6  1  0
 31 13  2  0
 30 15  1  0
 23 18  1  0
M  END
>  <Binding energies>  (30) 
[-8.5]

>  <Ligand effiencies>  (30) 
[-0.22972972972972974]

>  <Interactions>  (30) 
["V-B:GLU:543:CG:9876, V-B:HIS:456:CE1:9038, V-B:TYR:484:CZ:9315, V-B:GLU:543:CD:9877, H-B:GLU:543:OE1:9878, V-A:GLU:543:CD:4905, V-B:GLU:543:CB:9875, V-A:GLU:543:CG:4904, H-B:GLU:543:OE2:9879, V-A:GLU:543:CB:4903, V-A:HIS:456:CE1:4066, V-B:TYR:539:CD1:9842, V-B:ILE:538:CB:9831, V-B:PRO:540:N:9853, V-B:MET:535:CE:9804, V-B:PRO:540:CD:9856, H-B:TYR:539:N:9839, V-B:PRO:540:CB:9854, V-B:ILE:538:CG2:9832, V-B:PRO:540:CA:9852, V-B:TYR:539:CE1:9844, V-B:TYR:539:CZ:9846, V-B:TYR:539:CE2:9845, V-B:TYR:539:C:9836, V-B:TYR:539:CD2:9843, H-A:GLU:543:OE2:4907, V-B:TYR:484:CE1:9313, H-B:ASP:366:OD1:8182, V-A:GLU:543:C:4899, V-B:LYS:547:CE:9919, V-A:HIS:456:CD2:4064, V-B:ILE:538:CA:9829, V-A:GLY:544:C:4909, V-B:VAL:537:C:9819, V-B:MET:535:CB:9801"]

$$$$
4cb_Grossjean_2025
     RDKit          3D

 33 36  0  0  0  0  0  0  0  0999 V2000
  128.1940  122.7740   54.5200 C   0  0  0  0  0  0  0  0  0  0  0  0
  128.1290  121.9760   55.6940 O   0  0  0  0  0  0  0  0  0  0  0  0
  127.0680  122.0600   56.5370 C   0  0  0  0  0  0  0  0  0  0  0  0
  125.9320  121.6750   56.2430 O   0  0  0  0  0  0  0  0  0  0  0  0
  127.4140  122.6660   57.8680 C   0  0  0  0  0  0  0  0  0  0  0  0
  126.8270  123.8830   58.2380 C   0  0  0  0  0  0  0  0  0  0  0  0
  127.1200  124.4660   59.4670 C   0  0  0  0  0  0  0  0  0  0  0  0
  128.0100  123.8500   60.3480 C   0  0  0  0  0  0  0  0  0  0  0  0
  128.2240  124.5200   61.5680 N   0  0  0  0  0  0  0  0  0  0  0  0
  129.3510  125.0770   62.0720 C   0  0  0  0  0  0  0  0  0  0  0  0
  130.4270  125.1250   61.4740 O   0  0  0  0  0  0  0  0  0  0  0  0
  129.2170  125.6600   63.4100 C   0  0  0  0  0  0  0  0  0  0  0  0
  129.7610  124.7630   64.8270 S   0  0  0  0  0  0  0  0  0  0  0  0
  129.3170  126.0800   65.8870 C   0  0  0  0  0  0  0  0  0  0  0  0
  129.5000  126.0050   67.2030 N   0  0  0  0  0  0  0  0  0  0  0  0
  129.1340  127.0830   67.9450 C   0  0  0  0  0  0  0  0  0  0  0  0
  129.3590  126.9710   69.4250 C   0  0  0  0  0  0  0  0  0  0  0  0
  128.5290  126.1620   70.2170 C   0  0  0  0  0  0  0  0  0  0  0  0
  128.7290  126.0560   71.5910 C   0  0  0  0  0  0  0  0  0  0  0  0
  129.7660  126.7600   72.1940 C   0  0  0  0  0  0  0  0  0  0  0  0
  130.6020  127.5710   71.4320 C   0  0  0  0  0  0  0  0  0  0  0  0
  130.3960  127.6750   70.0600 C   0  0  0  0  0  0  0  0  0  0  0  0
  128.5650  128.2210   67.3620 C   0  0  0  0  0  0  0  0  0  0  0  0
  128.3640  128.3090   65.9770 C   0  0  0  0  0  0  0  0  0  0  0  0
  127.7380  129.5870   65.4050 C   0  0  0  0  0  0  0  0  0  0  0  0
  128.2410  129.9290   64.2170 F   0  0  0  0  0  0  0  0  0  0  0  0
  126.4260  129.4120   65.2460 F   0  0  0  0  0  0  0  0  0  0  0  0
  127.9500  130.6050   66.2370 F   0  0  0  0  0  0  0  0  0  0  0  0
  128.7600  127.1900   65.1880 C   0  0  0  0  0  0  0  0  0  0  0  0
  128.7200  126.9240   63.7700 C   0  0  0  0  0  0  0  0  0  0  0  0
  128.2370  127.8280   62.8600 N   0  0  0  0  0  0  0  0  0  0  0  0
  128.6000  122.6300   59.9860 C   0  0  0  0  0  0  0  0  0  0  0  0
  128.3040  122.0470   58.7580 C   0  0  0  0  0  0  0  0  0  0  0  0
  1  2  1  0
  2  3  1  0
  3  4  2  0
  3  5  1  0
  5  6  2  0
  6  7  1  0
  7  8  2  0
  8  9  1  0
  9 10  1  0
 10 11  2  0
 10 12  1  0
 12 13  1  0
 13 14  1  0
 14 15  2  0
 15 16  1  0
 16 17  1  0
 17 18  2  0
 18 19  1  0
 19 20  2  0
 20 21  1  0
 21 22  2  0
 16 23  2  0
 23 24  1  0
 24 25  1  0
 25 26  1  0
 25 27  1  0
 25 28  1  0
 24 29  2  0
 29 30  1  0
 30 31  1  0
  8 32  1  0
 32 33  2  0
 33  5  1  0
 30 12  2  0
 29 14  1  0
 22 17  1  0
M  END
>  <Binding energies>  (31) 
[-8.58]

>  <Ligand effiencies>  (31) 
[-0.23833333333333334]

>  <Interactions>  (31) 
["V-B:GLU:543:CG:9876, V-B:HIS:456:CE1:9038, V-B:TYR:484:CZ:9315, V-B:GLU:543:CD:9877, H-B:GLU:543:OE1:9878, V-A:GLU:543:CD:4905, V-B:GLU:543:CB:9875, V-A:GLU:543:CG:4904, H-B:GLU:543:OE2:9879, V-A:GLU:543:CB:4903, V-A:HIS:456:CE1:4066, V-B:TYR:539:CD1:9842, V-B:ILE:538:CB:9831, V-B:PRO:540:N:9853, V-B:MET:535:CE:9804, V-B:PRO:540:CD:9856, H-B:TYR:539:N:9839, V-B:ILE:538:CG2:9832, V-B:PRO:540:CA:9852, V-B:TYR:539:CE1:9844, V-B:TYR:539:CZ:9846, V-B:TYR:539:CE2:9845, V-B:TYR:539:C:9836, V-B:TYR:539:CD2:9843, H-A:GLU:543:OE2:4907, V-B:TYR:484:CE1:9313, V-B:LYS:547:CE:9919, V-B:TYR:539:CG:9841, V-A:HIS:456:CD2:4064, V-B:ILE:538:CA:9829, V-B:TYR:539:CA:9838, V-A:GLY:544:C:4909, V-A:GLU:543:CA:4901"]

$$$$
4cc_Grossjean_2025
     RDKit          3D

 31 34  0  0  0  0  0  0  0  0999 V2000
  127.4350  122.5000   55.4700 C   0  0  0  0  0  0  0  0  0  0  0  0
  127.1390  121.8290   56.6900 O   0  0  0  0  0  0  0  0  0  0  0  0
  127.4880  122.4220   57.8880 C   0  0  0  0  0  0  0  0  0  0  0  0
  126.6580  123.4480   58.3380 C   0  0  0  0  0  0  0  0  0  0  0  0
  126.9280  124.1040   59.5360 C   0  0  0  0  0  0  0  0  0  0  0  0
  128.0430  123.7480   60.2970 C   0  0  0  0  0  0  0  0  0  0  0  0
  128.2260  124.4550   61.5000 N   0  0  0  0  0  0  0  0  0  0  0  0
  129.3000  125.1650   61.9210 C   0  0  0  0  0  0  0  0  0  0  0  0
  130.3200  125.3340   61.2510 O   0  0  0  0  0  0  0  0  0  0  0  0
  129.1840  125.7460   63.2630 C   0  0  0  0  0  0  0  0  0  0  0  0
  129.7410  124.8450   64.6710 S   0  0  0  0  0  0  0  0  0  0  0  0
  129.2810  126.1480   65.7420 C   0  0  0  0  0  0  0  0  0  0  0  0
  129.4670  126.0640   67.0570 N   0  0  0  0  0  0  0  0  0  0  0  0
  129.0870  127.1310   67.8070 C   0  0  0  0  0  0  0  0  0  0  0  0
  129.3050  127.0070   69.2870 C   0  0  0  0  0  0  0  0  0  0  0  0
  128.4590  126.2070   70.0730 C   0  0  0  0  0  0  0  0  0  0  0  0
  128.6550  126.0880   71.4470 C   0  0  0  0  0  0  0  0  0  0  0  0
  129.7010  126.7710   72.0570 C   0  0  0  0  0  0  0  0  0  0  0  0
  130.5520  127.5730   71.3020 C   0  0  0  0  0  0  0  0  0  0  0  0
  130.3520  127.6900   69.9290 C   0  0  0  0  0  0  0  0  0  0  0  0
  128.5080  128.2680   67.2350 C   0  0  0  0  0  0  0  0  0  0  0  0
  128.3060  128.3660   65.8490 C   0  0  0  0  0  0  0  0  0  0  0  0
  127.6720  129.6440   65.2890 C   0  0  0  0  0  0  0  0  0  0  0  0
  128.2100  130.0330   64.1310 F   0  0  0  0  0  0  0  0  0  0  0  0
  126.3710  129.4470   65.0770 F   0  0  0  0  0  0  0  0  0  0  0  0
  127.8290  130.6430   66.1570 F   0  0  0  0  0  0  0  0  0  0  0  0
  128.7090  127.2570   65.0520 C   0  0  0  0  0  0  0  0  0  0  0  0
  128.6630  126.9960   63.6340 C   0  0  0  0  0  0  0  0  0  0  0  0
  128.1550  127.8960   62.7310 N   0  0  0  0  0  0  0  0  0  0  0  0
  128.8750  122.7080   59.8570 C   0  0  0  0  0  0  0  0  0  0  0  0
  128.6010  122.0540   58.6590 C   0  0  0  0  0  0  0  0  0  0  0  0
  1  2  1  0
  2  3  1  0
  3  4  2  0
  4  5  1  0
  5  6  2  0
  6  7  1  0
  7  8  1  0
  8  9  2  0
  8 10  1  0
 10 11  1  0
 11 12  1  0
 12 13  2  0
 13 14  1  0
 14 15  1  0
 15 16  2  0
 16 17  1  0
 17 18  2  0
 18 19  1  0
 19 20  2  0
 14 21  2  0
 21 22  1  0
 22 23  1  0
 23 24  1  0
 23 25  1  0
 23 26  1  0
 22 27  2  0
 27 28  1  0
 28 29  1  0
  6 30  1  0
 30 31  2  0
 31  3  1  0
 28 10  2  0
 27 12  1  0
 20 15  1  0
M  END
>  <Binding energies>  (32) 
[-7.79]

>  <Ligand effiencies>  (32) 
[-0.22911764705882354]

>  <Interactions>  (32) 
["V-B:GLU:543:CG:9876, V-B:HIS:456:CE1:9038, V-B:TYR:484:CZ:9315, V-B:GLU:543:CD:9877, H-B:GLU:543:OE1:9878, V-A:GLU:543:CD:4905, V-B:GLU:543:CB:9875, V-A:GLU:543:CG:4904, H-B:GLU:543:OE2:9879, V-A:GLU:543:CB:4903, V-A:HIS:456:CE1:4066, V-B:TYR:539:CD1:9842, V-B:ILE:538:CB:9831, V-B:PRO:540:N:9853, V-B:MET:535:CE:9804, H-B:TYR:539:N:9839, V-B:ILE:538:CG2:9832, V-B:PRO:540:CA:9852, V-B:TYR:539:CE1:9844, V-B:TYR:539:CZ:9846, V-B:TYR:539:CE2:9845, V-B:TYR:539:C:9836, V-B:TYR:539:CD2:9843, H-A:GLU:543:OE2:4907, V-B:TYR:484:CE1:9313, H-B:ASP:366:OD1:8182, V-B:LYS:547:CE:9919, V-B:TYR:539:CG:9841, V-A:HIS:456:CD2:4064, V-B:ILE:538:CA:9829, V-A:GLY:544:C:4909"]

$$$$
4ce_Grossjean_2025
     RDKit          3D

 30 33  0  0  0  0  0  0  0  0999 V2000
  128.0900  126.4250   70.5120 C   0  0  0  0  0  0  0  0  0  0  0  0
  128.9840  126.7740   69.3380 C   0  0  0  0  0  0  0  0  0  0  0  0
  129.9710  127.7590   69.4380 C   0  0  0  0  0  0  0  0  0  0  0  0
  130.7620  128.0220   68.3190 C   0  0  0  0  0  0  0  0  0  0  0  0
  130.5510  127.3020   67.1410 C   0  0  0  0  0  0  0  0  0  0  0  0
  129.5420  126.3330   67.1070 C   0  0  0  0  0  0  0  0  0  0  0  0
  129.3940  125.6260   65.9010 N   0  0  0  0  0  0  0  0  0  0  0  0
  130.3580  125.1140   65.0940 C   0  0  0  0  0  0  0  0  0  0  0  0
  131.5640  125.1910   65.3340 O   0  0  0  0  0  0  0  0  0  0  0  0
  129.8750  124.4420   63.8850 C   0  0  0  0  0  0  0  0  0  0  0  0
  128.8340  125.2990   62.7510 S   0  0  0  0  0  0  0  0  0  0  0  0
  128.7780  123.9140   61.6870 C   0  0  0  0  0  0  0  0  0  0  0  0
  128.0890  123.9400   60.5490 N   0  0  0  0  0  0  0  0  0  0  0  0
  128.1170  122.8200   59.7800 C   0  0  0  0  0  0  0  0  0  0  0  0
  127.3360  122.8850   58.5010 C   0  0  0  0  0  0  0  0  0  0  0  0
  126.0550  123.4600   58.4720 C   0  0  0  0  0  0  0  0  0  0  0  0
  125.3220  123.5180   57.2890 C   0  0  0  0  0  0  0  0  0  0  0  0
  125.8610  123.0000   56.1170 C   0  0  0  0  0  0  0  0  0  0  0  0
  127.1270  122.4240   56.1180 C   0  0  0  0  0  0  0  0  0  0  0  0
  127.8560  122.3660   57.3030 C   0  0  0  0  0  0  0  0  0  0  0  0
  128.8170  121.6730   60.1680 C   0  0  0  0  0  0  0  0  0  0  0  0
  129.5420  121.6320   61.3700 C   0  0  0  0  0  0  0  0  0  0  0  0
  130.2870  120.3440   61.7340 C   0  0  0  0  0  0  0  0  0  0  0  0
  129.9060  119.2940   61.0040 F   0  0  0  0  0  0  0  0  0  0  0  0
  131.5960  120.5110   61.5390 F   0  0  0  0  0  0  0  0  0  0  0  0
  130.0680  120.0430   63.0130 F   0  0  0  0  0  0  0  0  0  0  0  0
  129.5320  122.8070   62.1770 C   0  0  0  0  0  0  0  0  0  0  0  0
  130.1480  123.1380   63.4380 C   0  0  0  0  0  0  0  0  0  0  0  0
  130.9320  122.2560   64.1350 N   0  0  0  0  0  0  0  0  0  0  0  0
  128.7670  126.0670   68.1990 N   0  0  0  0  0  0  0  0  0  0  0  0
  1  2  1  0
  2  3  2  0
  3  4  1  0
  4  5  2  0
  5  6  1  0
  6  7  1  0
  7  8  1  0
  8  9  2  0
  8 10  1  0
 10 11  1  0
 11 12  1  0
 12 13  2  0
 13 14  1  0
 14 15  1  0
 15 16  2  0
 16 17  1  0
 17 18  2  0
 18 19  1  0
 19 20  2  0
 14 21  2  0
 21 22  1  0
 22 23  1  0
 23 24  1  0
 23 25  1  0
 23 26  1  0
 22 27  2  0
 27 28  1  0
 28 29  1  0
  6 30  2  0
 30  2  1  0
 28 10  2  0
 27 12  1  0
 20 15  1  0
M  END
>  <Binding energies>  (33) 
[-7.88]

>  <Ligand effiencies>  (33) 
[-0.23878787878787877]

>  <Interactions>  (33) 
["V-B:GLU:543:CG:9876, V-B:GLY:544:C:9881, V-B:HIS:456:CE1:9038, V-B:GLU:543:CD:9877, H-B:GLU:543:OE1:9878, V-A:GLU:543:CD:4905, V-B:GLU:543:CB:9875, H-B:GLU:543:OE2:9879, V-A:GLU:543:CB:4903, V-A:HIS:456:CE1:4066, V-B:TYR:539:CD1:9842, V-B:ILE:538:CB:9831, V-B:PRO:540:N:9853, V-B:LEU:363:CD1:8157, V-B:PRO:540:CB:9854, V-B:ILE:538:CG2:9832, V-B:PRO:540:CA:9852, V-B:TYR:539:CE1:9844, V-B:TYR:539:CZ:9846, V-B:TYR:539:CE2:9845, V-B:TYR:539:C:9836, V-B:ALA:541:CB:9861, V-A:LEU:475:CD1:4254, V-B:TYR:539:CD2:9843, V-A:LEU:475:CD2:4255, V-A:TYR:484:CZ:4343, V-A:TYR:484:CE1:4341, V-A:GLU:543:C:4899, V-B:HIS:456:CD2:9036, H-A:TYR:484:OH:4344, V-B:TYR:539:CG:9841, V-B:ILE:538:CA:9829, V-A:PRO:482:CG:4323, V-A:PRO:482:CB:4322, V-A:TRP:381:CH2:3368, V-A:LEU:475:CG:4253"]

$$$$
4cf_Grossjean_2025
     RDKit          3D

 29 32  0  0  0  0  0  0  0  0999 V2000
  131.0420  122.2690   64.1020 N   0  0  0  0  0  0  0  0  0  0  0  0
  130.2740  123.1680   63.4090 C   0  0  0  0  0  0  0  0  0  0  0  0
  130.0560  124.4870   63.8400 C   0  0  0  0  0  0  0  0  0  0  0  0
  130.5360  125.1410   65.0600 C   0  0  0  0  0  0  0  0  0  0  0  0
  131.7340  125.1280   65.3490 O   0  0  0  0  0  0  0  0  0  0  0  0
  129.5830  125.7480   65.8070 N   0  0  0  0  0  0  0  0  0  0  0  0
  129.6970  126.4130   67.0430 C   0  0  0  0  0  0  0  0  0  0  0  0
  130.5680  127.4860   67.3160 C   0  0  0  0  0  0  0  0  0  0  0  0
  130.5920  128.0470   68.5940 C   0  0  0  0  0  0  0  0  0  0  0  0
  129.7470  127.5210   69.5720 C   0  0  0  0  0  0  0  0  0  0  0  0
  128.9040  126.4840   69.3370 N   0  0  0  0  0  0  0  0  0  0  0  0
  128.8930  125.9480   68.0890 C   0  0  0  0  0  0  0  0  0  0  0  0
  129.0290  125.3650   62.7080 S   0  0  0  0  0  0  0  0  0  0  0  0
  128.8930  123.9610   61.6740 C   0  0  0  0  0  0  0  0  0  0  0  0
  128.1720  123.9900   60.5550 N   0  0  0  0  0  0  0  0  0  0  0  0
  128.1120  122.8450   59.8260 C   0  0  0  0  0  0  0  0  0  0  0  0
  127.2870  122.9040   58.5740 C   0  0  0  0  0  0  0  0  0  0  0  0
  126.0170  123.5020   58.5800 C   0  0  0  0  0  0  0  0  0  0  0  0
  125.2450  123.5630   57.4230 C   0  0  0  0  0  0  0  0  0  0  0  0
  125.7370  123.0260   56.2380 C   0  0  0  0  0  0  0  0  0  0  0  0
  126.9930  122.4300   56.2020 C   0  0  0  0  0  0  0  0  0  0  0  0
  127.7610  122.3730   57.3620 C   0  0  0  0  0  0  0  0  0  0  0  0
  128.7950  121.6870   60.2110 C   0  0  0  0  0  0  0  0  0  0  0  0
  129.5610  121.6480   61.3860 C   0  0  0  0  0  0  0  0  0  0  0  0
  130.2790  120.3430   61.7510 C   0  0  0  0  0  0  0  0  0  0  0  0
  129.8140  119.2840   61.0850 F   0  0  0  0  0  0  0  0  0  0  0  0
  131.5780  120.4510   61.4730 F   0  0  0  0  0  0  0  0  0  0  0  0
  130.1270  120.0930   63.0520 F   0  0  0  0  0  0  0  0  0  0  0  0
  129.6160  122.8370   62.1690 C   0  0  0  0  0  0  0  0  0  0  0  0
  1  2  1  0
  2  3  2  0
  3  4  1  0
  4  5  2  0
  4  6  1  0
  6  7  1  0
  7  8  2  0
  8  9  1  0
  9 10  2  0
 10 11  1  0
 11 12  2  0
  3 13  1  0
 13 14  1  0
 14 15  2  0
 15 16  1  0
 16 17  1  0
 17 18  2  0
 18 19  1  0
 19 20  2  0
 20 21  1  0
 21 22  2  0
 16 23  2  0
 23 24  1  0
 24 25  1  0
 25 26  1  0
 25 27  1  0
 25 28  1  0
 24 29  2  0
 29  2  1  0
 12  7  1  0
 29 14  1  0
 22 17  1  0
M  END
>  <Binding energies>  (34) 
[-7.45]

>  <Ligand effiencies>  (34) 
[-0.2328125]

>  <Interactions>  (34) 
["V-B:GLU:543:CG:9876, V-B:GLU:543:CD:9877, H-B:GLU:543:OE1:9878, V-A:GLU:543:CD:4905, V-B:GLU:543:CB:9875, H-B:GLU:543:OE2:9879, V-A:GLU:543:CB:4903, V-A:HIS:456:CE1:4066, V-B:TYR:539:CD1:9842, V-B:ILE:538:CB:9831, V-B:PRO:540:N:9853, V-B:LEU:363:CD1:8157, V-B:PRO:540:CB:9854, V-B:PRO:540:CA:9852, V-B:TYR:539:CE1:9844, V-B:TYR:539:CZ:9846, V-B:TYR:539:CE2:9845, V-B:TYR:539:C:9836, V-B:ALA:541:CB:9861, V-A:LEU:475:CD1:4254, V-B:TYR:539:CD2:9843, V-A:LEU:475:CD2:4255, V-A:TYR:484:CZ:4343, V-A:TYR:484:CE1:4341, V-A:GLU:543:C:4899, H-A:TYR:484:OH:4344, V-B:TYR:539:CG:9841, V-B:ILE:538:CA:9829, V-A:PRO:482:CG:4323, V-A:PRO:482:CB:4322, V-A:LEU:475:CG:4253"]

$$$$
4ci_Grossjean_2025
     RDKit          3D

 28 31  0  0  0  0  0  0  0  0999 V2000
  131.8300  123.5060   59.9130 N   0  0  0  0  0  0  0  0  0  0  0  0
  130.7430  123.9160   60.6400 C   0  0  0  0  0  0  0  0  0  0  0  0
  129.4350  123.9280   60.1280 C   0  0  0  0  0  0  0  0  0  0  0  0
  128.9710  123.5200   58.7990 C   0  0  0  0  0  0  0  0  0  0  0  0
  129.7320  123.5560   57.8290 O   0  0  0  0  0  0  0  0  0  0  0  0
  127.6750  123.1270   58.7280 N   0  0  0  0  0  0  0  0  0  0  0  0
  126.9810  122.6980   57.6040 C   0  0  0  0  0  0  0  0  0  0  0  0
  125.7040  123.1510   57.2770 C   0  0  0  0  0  0  0  0  0  0  0  0
  125.3780  122.4940   56.1130 C   0  0  0  0  0  0  0  0  0  0  0  0
  126.4060  121.6870   55.7570 O   0  0  0  0  0  0  0  0  0  0  0  0
  127.4160  121.8250   56.7100 N   0  0  0  0  0  0  0  0  0  0  0  0
  128.2850  124.5020   61.3330 S   0  0  0  0  0  0  0  0  0  0  0  0
  129.5600  124.7300   62.5070 C   0  0  0  0  0  0  0  0  0  0  0  0
  129.3040  125.1880   63.7300 N   0  0  0  0  0  0  0  0  0  0  0  0
  130.3590  125.3290   64.5750 C   0  0  0  0  0  0  0  0  0  0  0  0
  130.0400  125.8520   65.9460 C   0  0  0  0  0  0  0  0  0  0  0  0
  130.4070  127.1530   66.3250 C   0  0  0  0  0  0  0  0  0  0  0  0
  130.1130  127.6440   67.5940 C   0  0  0  0  0  0  0  0  0  0  0  0
  129.4460  126.8350   68.5090 C   0  0  0  0  0  0  0  0  0  0  0  0
  129.0750  125.5410   68.1630 C   0  0  0  0  0  0  0  0  0  0  0  0
  129.3720  125.0540   66.8930 C   0  0  0  0  0  0  0  0  0  0  0  0
  131.6660  125.0270   64.1790 C   0  0  0  0  0  0  0  0  0  0  0  0
  131.9470  124.5430   62.8910 C   0  0  0  0  0  0  0  0  0  0  0  0
  133.4030  124.2320   62.5260 C   0  0  0  0  0  0  0  0  0  0  0  0
  133.6850  124.4780   61.2450 F   0  0  0  0  0  0  0  0  0  0  0  0
  134.2210  124.9800   63.2650 F   0  0  0  0  0  0  0  0  0  0  0  0
  133.6590  122.9440   62.7520 F   0  0  0  0  0  0  0  0  0  0  0  0
  130.8460  124.3800   62.0030 C   0  0  0  0  0  0  0  0  0  0  0  0
  1  2  1  0
  2  3  2  0
  3  4  1  0
  4  5  2  0
  4  6  1  0
  6  7  1  0
  7  8  1  0
  8  9  2  0
  9 10  1  0
 10 11  1  0
  3 12  1  0
 12 13  1  0
 13 14  2  0
 14 15  1  0
 15 16  1  0
 16 17  2  0
 17 18  1  0
 18 19  2  0
 19 20  1  0
 20 21  2  0
 15 22  2  0
 22 23  1  0
 23 24  1  0
 24 25  1  0
 24 26  1  0
 24 27  1  0
 23 28  2  0
 28  2  1  0
 11  7  2  0
 28 13  1  0
 21 16  1  0
M  END
>  <Binding energies>  (35) 
[-7.35]

>  <Ligand effiencies>  (35) 
[-0.23709677419354838]

>  <Interactions>  (35) 
["V-B:GLU:543:CG:9876, V-B:GLU:543:CD:9877, V-A:GLU:543:CD:4905, V-B:GLU:543:CB:9875, V-B:GLU:543:C:9871, V-A:GLU:543:CB:4903, V-B:GLU:543:CA:9873, V-A:HIS:456:CE1:4066, V-A:ASP:366:CG:3209, V-B:ILE:538:CB:9831, V-B:PRO:540:N:9853, V-B:LEU:363:CD1:8157, V-B:PRO:540:CD:9856, H-B:TYR:539:N:9839, V-B:PRO:540:CB:9854, V-B:ILE:538:CG2:9832, V-B:PRO:540:CA:9852, V-B:TYR:539:CZ:9846, V-B:TYR:539:CE2:9845, V-B:TYR:539:C:9836, V-A:LEU:475:CD1:4254, V-A:ASP:366:CB:3208, H-B:TYR:539:OH:9847, V-A:GLY:454:CA:4045, V-A:TYR:484:CE1:4341, V-A:ARG:545:CZ:4923, V-A:GLY:453:C:4038, V-A:GLY:453:CA:4040"]

$$$$
8a_Ghoteimi_2023
     RDKit          3D

 40 44  0  0  0  0  0  0  0  0999 V2000
  129.4000  123.1800   54.0420 C   0  0  0  0  0  0  0  0  0  0  0  0
  127.9460  122.7850   54.3140 C   0  0  0  0  0  0  0  0  0  0  0  0
  127.8870  121.9670   55.4750 O   0  0  0  0  0  0  0  0  0  0  0  0
  126.8590  122.0750   56.3580 C   0  0  0  0  0  0  0  0  0  0  0  0
  125.7140  121.6810   56.1180 O   0  0  0  0  0  0  0  0  0  0  0  0
  127.2540  122.7270   57.6510 C   0  0  0  0  0  0  0  0  0  0  0  0
  126.2850  123.4140   58.3940 C   0  0  0  0  0  0  0  0  0  0  0  0
  126.6200  124.0300   59.5960 C   0  0  0  0  0  0  0  0  0  0  0  0
  127.9280  123.9750   60.0810 C   0  0  0  0  0  0  0  0  0  0  0  0
  128.1510  124.6380   61.3040 N   0  0  0  0  0  0  0  0  0  0  0  0
  129.2660  125.2440   61.7830 C   0  0  0  0  0  0  0  0  0  0  0  0
  130.3350  125.3080   61.1770 O   0  0  0  0  0  0  0  0  0  0  0  0
  129.1260  125.8480   63.1110 C   0  0  0  0  0  0  0  0  0  0  0  0
  129.8480  125.0750   64.5220 S   0  0  0  0  0  0  0  0  0  0  0  0
  129.2430  126.3310   65.5780 C   0  0  0  0  0  0  0  0  0  0  0  0
  129.4550  126.3020   66.8930 N   0  0  0  0  0  0  0  0  0  0  0  0
  128.9360  127.3240   67.6240 C   0  0  0  0  0  0  0  0  0  0  0  0
  129.1680  127.2610   69.1000 C   0  0  0  0  0  0  0  0  0  0  0  0
  128.2870  126.5690   69.9420 C   0  0  0  0  0  0  0  0  0  0  0  0
  128.5020  126.5230   71.3170 C   0  0  0  0  0  0  0  0  0  0  0  0
  129.6020  127.1640   71.8830 C   0  0  0  0  0  0  0  0  0  0  0  0
  129.7350  127.0670   73.2550 O   0  0  0  0  0  0  0  0  0  0  0  0
  128.6090  127.3460   74.0810 C   0  0  0  0  0  0  0  0  0  0  0  0
  130.4940  127.8530   71.0490 C   0  0  0  0  0  0  0  0  0  0  0  0
  130.2740  127.9000   69.6740 C   0  0  0  0  0  0  0  0  0  0  0  0
  128.2180  128.3700   67.0400 C   0  0  0  0  0  0  0  0  0  0  0  0
  128.0070  128.4130   65.6570 C   0  0  0  0  0  0  0  0  0  0  0  0
  127.2650  129.5640   65.0840 C   0  0  0  0  0  0  0  0  0  0  0  0
  125.9370  129.4130   64.6800 C   0  0  0  0  0  0  0  0  0  0  0  0
  125.2300  130.4940   64.1620 C   0  0  0  0  0  0  0  0  0  0  0  0
  125.8360  131.7460   64.0430 C   0  0  0  0  0  0  0  0  0  0  0  0
  125.0590  132.7600   63.5180 O   0  0  0  0  0  0  0  0  0  0  0  0
  124.1390  132.4610   62.4750 C   0  0  0  0  0  0  0  0  0  0  0  0
  127.1680  131.9020   64.4560 C   0  0  0  0  0  0  0  0  0  0  0  0
  127.8720  130.8180   64.9760 C   0  0  0  0  0  0  0  0  0  0  0  0
  128.5220  127.3410   64.8750 C   0  0  0  0  0  0  0  0  0  0  0  0
  128.4560  127.0290   63.4680 C   0  0  0  0  0  0  0  0  0  0  0  0
  127.7790  127.8160   62.5700 N   0  0  0  0  0  0  0  0  0  0  0  0
  128.9040  123.2850   59.3460 C   0  0  0  0  0  0  0  0  0  0  0  0
  128.5670  122.6690   58.1430 C   0  0  0  0  0  0  0  0  0  0  0  0
  1  2  1  0
  2  3  1  0
  3  4  1  0
  4  5  2  0
  4  6  1  0
  6  7  2  0
  7  8  1  0
  8  9  2  0
  9 10  1  0
 10 11  1  0
 11 12  2  0
 11 13  1  0
 13 14  1  0
 14 15  1  0
 15 16  2  0
 16 17  1  0
 17 18  1  0
 18 19  2  0
 19 20  1  0
 20 21  2  0
 21 22  1  0
 22 23  1  0
 21 24  1  0
 24 25  2  0
 17 26  2  0
 26 27  1  0
 27 28  1  0
 28 29  2  0
 29 30  1  0
 30 31  2  0
 31 32  1  0
 32 33  1  0
 31 34  1  0
 34 35  2  0
 27 36  2  0
 36 37  1  0
 37 38  1  0
  9 39  1  0
 39 40  2  0
 40  6  1  0
 37 13  2  0
 36 15  1  0
 25 18  1  0
 35 28  1  0
M  END
>  <Binding energies>  (36) 
[-10.91]

>  <Ligand effiencies>  (36) 
[-0.25372093023255815]

>  <Interactions>  (36) 
["V-B:GLU:543:CG:9876, V-B:HIS:456:CE1:9038, V-B:GLU:543:CD:9877, H-B:GLU:543:OE1:9878, V-A:GLU:543:CD:4905, V-B:GLU:543:CB:9875, V-A:GLU:543:CG:4904, H-B:GLU:543:OE2:9879, V-A:GLU:543:CB:4903, V-B:GLY:454:CA:9017, V-A:HIS:456:CE1:4066, V-B:TYR:539:CD1:9842, V-B:ILE:538:CB:9831, V-B:PRO:540:N:9853, V-B:MET:535:CE:9804, V-B:PRO:540:CD:9856, H-B:TYR:539:N:9839, V-B:PRO:540:CB:9854, V-B:ILE:538:CG2:9832, V-B:PRO:540:CA:9852, V-B:TYR:539:CE1:9844, V-B:TYR:539:CZ:9846, V-B:TYR:539:CE2:9845, V-B:TYR:539:C:9836, V-B:TYR:539:CD2:9843, H-A:GLU:543:OE2:4907, V-B:TYR:484:CE1:9313, H-B:ASP:366:OD1:8182, V-B:ILE:369:CD1:8207, V-A:GLU:543:C:4899, V-B:LYS:547:CE:9919, V-A:LYS:547:CE:4947, H-A:LYS:547:NZ:4948, V-B:TYR:539:CG:9841, V-A:HIS:456:CD2:4064, V-B:ILE:538:CA:9829, V-A:GLY:544:C:4909"]

$$$$
8c_Ghoteimi_2023
     RDKit          3D

 34 38  0  0  0  0  0  0  0  0999 V2000
  123.9920  133.6610   61.9350 C   0  0  0  0  0  0  0  0  0  0  0  0
  124.0970  133.3130   63.3110 O   0  0  0  0  0  0  0  0  0  0  0  0
  124.8920  132.2430   63.6770 C   0  0  0  0  0  0  0  0  0  0  0  0
  126.1630  132.5480   64.1610 C   0  0  0  0  0  0  0  0  0  0  0  0
  127.0330  131.5340   64.5500 C   0  0  0  0  0  0  0  0  0  0  0  0
  126.6540  130.1860   64.4650 C   0  0  0  0  0  0  0  0  0  0  0  0
  127.5860  129.0910   64.8780 C   0  0  0  0  0  0  0  0  0  0  0  0
  127.7970  128.7720   66.2220 C   0  0  0  0  0  0  0  0  0  0  0  0
  128.6730  127.7410   66.5820 C   0  0  0  0  0  0  0  0  0  0  0  0
  128.8810  127.4340   68.0150 C   0  0  0  0  0  0  0  0  0  0  0  0
  129.9320  128.0290   68.7170 C   0  0  0  0  0  0  0  0  0  0  0  0
  130.1210  127.7460   70.0660 C   0  0  0  0  0  0  0  0  0  0  0  0
  129.2680  126.8650   70.7330 C   0  0  0  0  0  0  0  0  0  0  0  0
  129.5300  126.6460   72.0720 O   0  0  0  0  0  0  0  0  0  0  0  0
  128.5380  126.9760   73.0360 C   0  0  0  0  0  0  0  0  0  0  0  0
  128.2150  126.2650   70.0250 C   0  0  0  0  0  0  0  0  0  0  0  0
  128.0260  126.5490   68.6750 C   0  0  0  0  0  0  0  0  0  0  0  0
  129.3300  127.0310   65.5430 C   0  0  0  0  0  0  0  0  0  0  0  0
  130.2690  125.9400   65.5490 C   0  0  0  0  0  0  0  0  0  0  0  0
  130.7150  125.3600   66.7110 N   0  0  0  0  0  0  0  0  0  0  0  0
  130.6770  125.5330   64.2690 C   0  0  0  0  0  0  0  0  0  0  0  0
  131.6090  124.4630   63.9060 C   0  0  0  0  0  0  0  0  0  0  0  0
  131.8040  123.5120   64.6670 O   0  0  0  0  0  0  0  0  0  0  0  0
  132.2190  124.6060   62.7030 N   0  0  0  0  0  0  0  0  0  0  0  0
  133.1360  123.7400   62.1250 C   0  0  0  0  0  0  0  0  0  0  0  0
  134.4260  123.9290   61.9500 N   0  0  0  0  0  0  0  0  0  0  0  0
  134.9930  122.8920   61.3670 C   0  0  0  0  0  0  0  0  0  0  0  0
  134.1550  121.8270   61.0550 C   0  0  0  0  0  0  0  0  0  0  0  0
  132.5360  122.2160   61.5550 S   0  0  0  0  0  0  0  0  0  0  0  0
  129.8980  126.4980   63.0150 S   0  0  0  0  0  0  0  0  0  0  0  0
  129.0350  127.4390   64.2100 C   0  0  0  0  0  0  0  0  0  0  0  0
  128.2030  128.4220   63.8670 N   0  0  0  0  0  0  0  0  0  0  0  0
  125.3730  129.8880   63.9800 C   0  0  0  0  0  0  0  0  0  0  0  0
  124.5010  130.9000   63.5890 C   0  0  0  0  0  0  0  0  0  0  0  0
  1  2  1  0
  2  3  1  0
  3  4  2  0
  4  5  1  0
  5  6  2  0
  6  7  1  0
  7  8  2  0
  8  9  1  0
  9 10  1  0
 10 11  2  0
 11 12  1  0
 12 13  2  0
 13 14  1  0
 14 15  1  0
 13 16  1  0
 16 17  2  0
  9 18  2  0
 18 19  1  0
 19 20  1  0
 19 21  2  0
 21 22  1  0
 22 23  2  0
 22 24  1  0
 24 25  1  0
 25 26  2  0
 26 27  1  0
 27 28  2  0
 28 29  1  0
 21 30  1  0
 30 31  1  0
 31 32  2  0
  6 33  1  0
 33 34  2  0
 34  3  1  0
 32  7  1  0
 17 10  1  0
 31 18  1  0
 29 25  1  0
M  END
>  <Binding energies>  (37) 
[-8.63]

>  <Ligand effiencies>  (37) 
[-0.23324324324324328]

>  <Interactions>  (37) 
["V-B:HIS:456:CE1:9038, V-B:ARG:545:CZ:9895, V-B:GLU:543:CD:9877, V-A:GLU:543:CD:4905, V-B:GLU:543:CB:9875, V-B:GLU:543:C:9871, V-A:GLU:543:CB:4903, H-B:GLY:454:N:9018, V-B:GLY:454:CA:9017, V-A:HIS:456:CE1:4066, V-B:LEU:475:CD2:9227, V-B:TYR:539:CE2:9845, V-A:LEU:475:CD1:4254, V-A:GLY:454:CA:4045, V-B:TYR:484:CE1:9313, V-B:ILE:369:CD1:8207, V-A:TYR:484:CZ:4343, V-A:TYR:484:CE1:4341, V-A:GLU:543:C:4899, V-B:LYS:547:CE:9919, H-A:LYS:547:NZ:4948, H-A:GLY:454:N:4046, V-B:ILE:369:CG2:8205, H-A:TYR:484:OH:4344, V-A:GLY:453:C:4038, V-A:GLY:453:CA:4040, V-A:HIS:456:CD2:4064, V-A:ILE:369:CG2:3233, V-A:ILE:369:CG1:3234, V-A:ILE:369:CB:3232, H-A:ASP:366:OD1:3210, H-A:ASP:366:OD2:3211, H-A:HIS:456:NE2:4067"]

$$$$
8d_Ghoteimi_2023
     RDKit          3D

 30 33  0  0  0  0  0  0  0  0999 V2000
  133.0210  124.9470   64.6580 C   0  0  0  0  0  0  0  0  0  0  0  0
  132.2190  123.7770   64.7390 O   0  0  0  0  0  0  0  0  0  0  0  0
  130.9610  123.7590   64.2280 C   0  0  0  0  0  0  0  0  0  0  0  0
  130.5070  122.8370   63.5450 O   0  0  0  0  0  0  0  0  0  0  0  0
  130.1810  124.9680   64.5740 C   0  0  0  0  0  0  0  0  0  0  0  0
  129.3700  125.8860   63.3030 S   0  0  0  0  0  0  0  0  0  0  0  0
  128.7540  127.0310   64.4710 C   0  0  0  0  0  0  0  0  0  0  0  0
  127.9940  128.0660   64.1090 N   0  0  0  0  0  0  0  0  0  0  0  0
  127.5660  128.8960   65.0970 C   0  0  0  0  0  0  0  0  0  0  0  0
  126.7200  130.0500   64.6630 C   0  0  0  0  0  0  0  0  0  0  0  0
  127.1940  131.3670   64.7430 C   0  0  0  0  0  0  0  0  0  0  0  0
  126.4020  132.4380   64.3390 C   0  0  0  0  0  0  0  0  0  0  0  0
  125.1170  132.2220   63.8440 C   0  0  0  0  0  0  0  0  0  0  0  0
  124.4040  133.3420   63.4660 O   0  0  0  0  0  0  0  0  0  0  0  0
  124.0970  133.5390   62.0890 C   0  0  0  0  0  0  0  0  0  0  0  0
  124.6330  130.9090   63.7570 C   0  0  0  0  0  0  0  0  0  0  0  0
  125.4280  129.8400   64.1630 C   0  0  0  0  0  0  0  0  0  0  0  0
  127.9030  128.6940   66.4390 C   0  0  0  0  0  0  0  0  0  0  0  0
  128.6970  127.6080   66.8190 C   0  0  0  0  0  0  0  0  0  0  0  0
  129.0290  127.4160   68.2500 C   0  0  0  0  0  0  0  0  0  0  0  0
  130.1640  128.0220   68.7940 C   0  0  0  0  0  0  0  0  0  0  0  0
  130.4810  127.8350   70.1370 C   0  0  0  0  0  0  0  0  0  0  0  0
  129.6710  127.0460   70.9540 C   0  0  0  0  0  0  0  0  0  0  0  0
  130.0640  126.9160   72.2710 O   0  0  0  0  0  0  0  0  0  0  0  0
  129.8300  125.6860   72.9480 C   0  0  0  0  0  0  0  0  0  0  0  0
  128.5280  126.4410   70.4050 C   0  0  0  0  0  0  0  0  0  0  0  0
  128.2120  126.6280   69.0620 C   0  0  0  0  0  0  0  0  0  0  0  0
  129.1530  126.7270   65.8040 C   0  0  0  0  0  0  0  0  0  0  0  0
  129.9670  125.5430   65.8320 C   0  0  0  0  0  0  0  0  0  0  0  0
  130.4900  125.0330   66.9930 N   0  0  0  0  0  0  0  0  0  0  0  0
  1  2  1  0
  2  3  1  0
  3  4  2  0
  3  5  1  0
  5  6  1  0
  6  7  1  0
  7  8  2  0
  8  9  1  0
  9 10  1  0
 10 11  2  0
 11 12  1  0
 12 13  2  0
 13 14  1  0
 14 15  1  0
 13 16  1  0
 16 17  2  0
  9 18  2  0
 18 19  1  0
 19 20  1  0
 20 21  2  0
 21 22  1  0
 22 23  2  0
 23 24  1  0
 24 25  1  0
 23 26  1  0
 26 27  2  0
 19 28  2  0
 28 29  1  0
 29 30  1  0
 29  5  2  0
 28  7  1  0
 17 10  1  0
 27 20  1  0
M  END
>  <Binding energies>  (38) 
[-7.4]

>  <Ligand effiencies>  (38) 
[-0.23125]

>  <Interactions>  (38) 
["V-B:GLU:543:CG:9876, V-B:HIS:456:CE1:9038, V-B:ARG:545:CZ:9895, V-B:TYR:484:CZ:9315, V-B:GLU:543:CD:9877, V-A:GLU:543:CD:4905, V-B:GLU:543:CB:9875, V-A:GLU:543:CG:4904, V-A:GLU:543:CB:4903, H-B:GLY:454:N:9018, V-B:GLY:454:CA:9017, V-A:HIS:456:CE1:4066, V-B:LEU:475:CD2:9227, V-B:TYR:484:CE1:9313, V-B:ILE:369:CD1:8207, V-A:TYR:484:CZ:4343, V-A:TYR:484:CE1:4341, V-A:GLU:543:C:4899, V-B:LYS:547:CE:9919, H-A:LYS:547:NZ:4948, H-B:GLU:543:O:9872, V-A:ARG:545:CZ:4923, H-A:TYR:484:OH:4344, V-A:HIS:456:CD2:4064, V-A:GLY:544:C:4909, H-A:HIS:456:NE2:4067"]

$$$$
9a_Ghoteimi_2023
     RDKit          3D

 48 54  0  0  0  0  0  0  0  0999 V2000
  124.9440  123.3240   55.4090 C   0  0  0  0  0  0  0  0  0  0  0  0
  125.1130  122.1300   56.3550 C   0  0  0  0  0  0  0  0  0  0  0  0
  126.3430  121.4730   56.0740 O   0  0  0  0  0  0  0  0  0  0  0  0
  127.5270  122.1280   56.1790 C   0  0  0  0  0  0  0  0  0  0  0  0
  128.3180  122.2590   55.2390 O   0  0  0  0  0  0  0  0  0  0  0  0
  127.7850  122.6710   57.5550 C   0  0  0  0  0  0  0  0  0  0  0  0
  127.1380  123.8450   57.9610 C   0  0  0  0  0  0  0  0  0  0  0  0
  127.3570  124.3740   59.2290 C   0  0  0  0  0  0  0  0  0  0  0  0
  128.2260  123.7420   60.1190 C   0  0  0  0  0  0  0  0  0  0  0  0
  128.3720  124.3660   61.3730 N   0  0  0  0  0  0  0  0  0  0  0  0
  129.4860  124.6240   62.1020 C   0  0  0  0  0  0  0  0  0  0  0  0
  130.6280  124.3280   61.7490 O   0  0  0  0  0  0  0  0  0  0  0  0
  129.2540  125.3050   63.3790 C   0  0  0  0  0  0  0  0  0  0  0  0
  129.6740  124.5140   64.8990 S   0  0  0  0  0  0  0  0  0  0  0  0
  129.1350  125.8990   65.8210 C   0  0  0  0  0  0  0  0  0  0  0  0
  129.2190  125.9290   67.1500 N   0  0  0  0  0  0  0  0  0  0  0  0
  128.7830  127.0570   67.7700 C   0  0  0  0  0  0  0  0  0  0  0  0
  128.8970  127.0730   69.2600 C   0  0  0  0  0  0  0  0  0  0  0  0
  127.9400  126.4300   70.0530 C   0  0  0  0  0  0  0  0  0  0  0  0
  128.0380  126.4390   71.4420 C   0  0  0  0  0  0  0  0  0  0  0  0
  129.1060  127.0800   72.0900 C   0  0  0  0  0  0  0  0  0  0  0  0
  129.2080  127.1140   73.4840 N   0  0  0  0  0  0  0  0  0  0  0  0
  128.1850  127.7770   74.3180 C   0  0  0  0  0  0  0  0  0  0  0  0
  128.6340  128.0310   75.7710 C   0  0  0  0  0  0  0  0  0  0  0  0
  129.0670  126.8190   76.3660 O   0  0  0  0  0  0  0  0  0  0  0  0
  130.1640  126.2580   75.6620 C   0  0  0  0  0  0  0  0  0  0  0  0
  129.7540  125.9470   74.2090 C   0  0  0  0  0  0  0  0  0  0  0  0
  130.0550  127.7350   71.2910 C   0  0  0  0  0  0  0  0  0  0  0  0
  129.9540  127.7280   69.9030 C   0  0  0  0  0  0  0  0  0  0  0  0
  128.2420  128.1350   67.0650 C   0  0  0  0  0  0  0  0  0  0  0  0
  128.1340  128.0990   65.6700 C   0  0  0  0  0  0  0  0  0  0  0  0
  127.5180  129.2560   64.9720 C   0  0  0  0  0  0  0  0  0  0  0  0
  127.9600  130.5570   65.2260 C   0  0  0  0  0  0  0  0  0  0  0  0
  127.3910  131.6390   64.5610 C   0  0  0  0  0  0  0  0  0  0  0  0
  126.3760  131.4480   63.6100 C   0  0  0  0  0  0  0  0  0  0  0  0
  125.7820  132.5190   62.9380 N   0  0  0  0  0  0  0  0  0  0  0  0
  124.3100  132.5830   62.8450 C   0  0  0  0  0  0  0  0  0  0  0  0
  123.7840  133.9720   62.4280 C   0  0  0  0  0  0  0  0  0  0  0  0
  124.3860  134.3750   61.2080 O   0  0  0  0  0  0  0  0  0  0  0  0
  125.7980  134.4590   61.3220 C   0  0  0  0  0  0  0  0  0  0  0  0
  126.3780  133.0810   61.7100 C   0  0  0  0  0  0  0  0  0  0  0  0
  125.9420  130.1370   63.3610 C   0  0  0  0  0  0  0  0  0  0  0  0
  126.5080  129.0560   64.0290 C   0  0  0  0  0  0  0  0  0  0  0  0
  128.6180  126.9410   64.9970 C   0  0  0  0  0  0  0  0  0  0  0  0
  128.7210  126.5840   63.6030 C   0  0  0  0  0  0  0  0  0  0  0  0
  128.3420  127.4320   62.5940 N   0  0  0  0  0  0  0  0  0  0  0  0
  128.8770  122.5620   59.7230 C   0  0  0  0  0  0  0  0  0  0  0  0
  128.6570  122.0350   58.4530 C   0  0  0  0  0  0  0  0  0  0  0  0
  1  2  1  0
  2  3  1  0
  3  4  1  0
  4  5  2  0
  4  6  1  0
  6  7  2  0
  7  8  1  0
  8  9  2  0
  9 10  1  0
 10 11  1  0
 11 12  2  0
 11 13  1  0
 13 14  1  0
 14 15  1  0
 15 16  2  0
 16 17  1  0
 17 18  1  0
 18 19  2  0
 19 20  1  0
 20 21  2  0
 21 22  1  0
 22 23  1  0
 23 24  1  0
 24 25  1  0
 25 26  1  0
 26 27  1  0
 21 28  1  0
 28 29  2  0
 17 30  2  0
 30 31  1  0
 31 32  1  0
 32 33  2  0
 33 34  1  0
 34 35  2  0
 35 36  1  0
 36 37  1  0
 37 38  1  0
 38 39  1  0
 39 40  1  0
 40 41  1  0
 35 42  1  0
 42 43  2  0
 31 44  2  0
 44 45  1  0
 45 46  1  0
  9 47  1  0
 47 48  2  0
 48  6  1  0
 45 13  2  0
 44 15  1  0
 29 18  1  0
 43 32  1  0
 27 22  1  0
 41 36  1  0
M  END
>  <Binding energies>  (39) 
[-10.85]

>  <Ligand effiencies>  (39) 
[-0.21274509803921568]

>  <Interactions>  (39) 
["V-B:GLU:543:CG:9876, V-B:GLY:544:C:9881, V-B:HIS:456:CE1:9038, V-B:GLU:543:CD:9877, V-A:GLU:543:CD:4905, V-B:GLU:543:CB:9875, V-A:GLU:543:CG:4904, V-B:GLU:543:C:9871, H-B:GLU:543:OE2:9879, V-A:GLU:543:CB:4903, V-B:GLY:454:CA:9017, V-A:HIS:456:CE1:4066, V-B:LEU:475:CD2:9227, V-B:TYR:539:CD1:9842, V-B:ILE:538:CB:9831, V-B:PRO:540:N:9853, V-B:LEU:363:CD1:8157, V-B:MET:535:CE:9804, V-B:PRO:540:CD:9856, H-B:TYR:539:N:9839, V-B:PRO:540:CB:9854, V-B:ILE:538:CG2:9832, V-B:PRO:540:CA:9852, V-B:TYR:539:CE1:9844, V-B:TYR:539:CZ:9846, V-B:TYR:539:CE2:9845, V-B:TYR:539:C:9836, V-B:PRO:540:CG:9855, V-B:TYR:539:CD2:9843, H-A:GLU:543:OE2:4907, V-B:TYR:484:CE1:9313, V-B:ILE:369:CD1:8207, V-B:LYS:547:CE:9919, V-B:HIS:456:CD2:9036, V-A:LYS:547:CE:4947, V-B:TYR:539:CG:9841, V-B:ILE:538:CA:9829"]

$$$$
9b_Ghoteimi_2023
     RDKit          3D

 42 48  0  0  0  0  0  0  0  0999 V2000
  129.2250  127.8750   62.9510 N   0  0  0  0  0  0  0  0  0  0  0  0
  128.6080  128.2680   64.1110 C   0  0  0  0  0  0  0  0  0  0  0  0
  127.6250  129.2690   64.1640 C   0  0  0  0  0  0  0  0  0  0  0  0
  127.0550  130.0490   63.0630 C   0  0  0  0  0  0  0  0  0  0  0  0
  125.8930  129.8650   62.6970 O   0  0  0  0  0  0  0  0  0  0  0  0
  127.8910  130.9560   62.4980 N   0  0  0  0  0  0  0  0  0  0  0  0
  127.6200  131.8140   61.4400 C   0  0  0  0  0  0  0  0  0  0  0  0
  126.9720  131.4050   60.2750 C   0  0  0  0  0  0  0  0  0  0  0  0
  126.8950  132.5340   59.4930 C   0  0  0  0  0  0  0  0  0  0  0  0
  127.4680  133.5690   60.1530 O   0  0  0  0  0  0  0  0  0  0  0  0
  127.9230  133.1000   61.3850 N   0  0  0  0  0  0  0  0  0  0  0  0
  127.0760  129.5360   65.8190 S   0  0  0  0  0  0  0  0  0  0  0  0
  128.1760  128.3230   66.4280 C   0  0  0  0  0  0  0  0  0  0  0  0
  128.2650  128.0510   67.7290 N   0  0  0  0  0  0  0  0  0  0  0  0
  129.1640  127.1020   68.1010 C   0  0  0  0  0  0  0  0  0  0  0  0
  129.2580  126.8310   69.5670 C   0  0  0  0  0  0  0  0  0  0  0  0
  128.5220  125.7980   70.1610 C   0  0  0  0  0  0  0  0  0  0  0  0
  128.6020  125.5590   71.5290 C   0  0  0  0  0  0  0  0  0  0  0  0
  129.4100  126.3530   72.3580 C   0  0  0  0  0  0  0  0  0  0  0  0
  129.5030  126.1230   73.7350 N   0  0  0  0  0  0  0  0  0  0  0  0
  129.0100  127.1120   74.7150 C   0  0  0  0  0  0  0  0  0  0  0  0
  128.8740  126.5550   76.1470 C   0  0  0  0  0  0  0  0  0  0  0  0
  130.1060  125.9940   76.5680 O   0  0  0  0  0  0  0  0  0  0  0  0
  130.5050  124.9250   75.7270 C   0  0  0  0  0  0  0  0  0  0  0  0
  130.6880  125.4280   74.2790 C   0  0  0  0  0  0  0  0  0  0  0  0
  130.1590  127.3730   71.7550 C   0  0  0  0  0  0  0  0  0  0  0  0
  130.0830  127.6100   70.3850 C   0  0  0  0  0  0  0  0  0  0  0  0
  129.9500  126.4140   67.1730 C   0  0  0  0  0  0  0  0  0  0  0  0
  129.8460  126.6830   65.8030 C   0  0  0  0  0  0  0  0  0  0  0  0
  130.6820  125.9020   64.8560 C   0  0  0  0  0  0  0  0  0  0  0  0
  132.0680  125.8640   65.0060 C   0  0  0  0  0  0  0  0  0  0  0  0
  132.8520  125.1180   64.1310 C   0  0  0  0  0  0  0  0  0  0  0  0
  132.2710  124.3900   63.0810 C   0  0  0  0  0  0  0  0  0  0  0  0
  133.0380  123.6230   62.2010 N   0  0  0  0  0  0  0  0  0  0  0  0
  133.1300  122.1640   62.4070 C   0  0  0  0  0  0  0  0  0  0  0  0
  134.2970  121.5140   61.6340 C   0  0  0  0  0  0  0  0  0  0  0  0
  134.1950  121.8200   60.2520 O   0  0  0  0  0  0  0  0  0  0  0  0
  134.2390  123.2200   60.0190 C   0  0  0  0  0  0  0  0  0  0  0  0
  133.0740  123.9150   60.7540 C   0  0  0  0  0  0  0  0  0  0  0  0
  130.8740  124.4220   62.9510 C   0  0  0  0  0  0  0  0  0  0  0  0
  130.0900  125.1680   63.8270 C   0  0  0  0  0  0  0  0  0  0  0  0
  128.9350  127.6970   65.3940 C   0  0  0  0  0  0  0  0  0  0  0  0
  1  2  1  0
  2  3  2  0
  3  4  1  0
  4  5  2  0
  4  6  1  0
  6  7  1  0
  7  8  1  0
  8  9  2  0
  9 10  1  0
 10 11  1  0
  3 12  1  0
 12 13  1  0
 13 14  2  0
 14 15  1  0
 15 16  1  0
 16 17  2  0
 17 18  1  0
 18 19  2  0
 19 20  1  0
 20 21  1  0
 21 22  1  0
 22 23  1  0
 23 24  1  0
 24 25  1  0
 19 26  1  0
 26 27  2  0
 15 28  2  0
 28 29  1  0
 29 30  1  0
 30 31  2  0
 31 32  1  0
 32 33  2  0
 33 34  1  0
 34 35  1  0
 35 36  1  0
 36 37  1  0
 37 38  1  0
 38 39  1  0
 33 40  1  0
 40 41  2  0
 29 42  2  0
 42  2  1  0
 11  7  2  0
 42 13  1  0
 27 16  1  0
 41 30  1  0
 25 20  1  0
 39 34  1  0
M  END
>  <Binding energies>  (40) 
[-9.54]

>  <Ligand effiencies>  (40) 
[-0.212]

>  <Interactions>  (40) 
["V-B:HIS:456:CE1:9038, V-B:GLU:543:CD:9877, V-A:GLU:543:CD:4905, V-B:GLU:543:C:9871, V-A:HIS:456:CE1:4066, V-A:TYR:539:CE2:4873, V-A:TYR:539:CD2:4871, V-A:ASP:366:CG:3209, V-A:LEU:475:CD1:4254, H-B:TYR:539:OH:9847, V-A:GLY:454:CA:4045, H-A:GLU:543:OE2:4907, V-B:LYS:547:CE:9919, V-A:LYS:547:CE:4947, V-B:LYS:547:CD:9918, V-A:ARG:545:CZ:4923, H-A:GLU:543:OE1:4906, V-A:HIS:456:CD2:4064, V-A:ILE:369:CG2:3233, V-A:ASP:366:CA:3206, V-A:ILE:369:CG1:3234, V-A:ILE:369:CB:3232"]

$$$$
9c_Ghoteimi_2023
     RDKit          3D

 42 48  0  0  0  0  0  0  0  0999 V2000
  129.2520  127.8640   62.9700 N   0  0  0  0  0  0  0  0  0  0  0  0
  128.6330  128.2640   64.1270 C   0  0  0  0  0  0  0  0  0  0  0  0
  127.6530  129.2670   64.1730 C   0  0  0  0  0  0  0  0  0  0  0  0
  127.0920  130.0480   63.0660 C   0  0  0  0  0  0  0  0  0  0  0  0
  125.9630  129.8080   62.6330 O   0  0  0  0  0  0  0  0  0  0  0  0
  127.8990  131.0190   62.5720 N   0  0  0  0  0  0  0  0  0  0  0  0
  127.6190  131.8840   61.5230 C   0  0  0  0  0  0  0  0  0  0  0  0
  127.6990  131.6420   60.2330 N   0  0  0  0  0  0  0  0  0  0  0  0
  127.3610  132.6990   59.5200 C   0  0  0  0  0  0  0  0  0  0  0  0
  126.9960  133.8350   60.2370 C   0  0  0  0  0  0  0  0  0  0  0  0
  127.1030  133.4870   61.9370 S   0  0  0  0  0  0  0  0  0  0  0  0
  127.0980  129.5420   65.8240 S   0  0  0  0  0  0  0  0  0  0  0  0
  128.1920  128.3280   66.4420 C   0  0  0  0  0  0  0  0  0  0  0  0
  128.2730  128.0590   67.7440 N   0  0  0  0  0  0  0  0  0  0  0  0
  129.1680  127.1090   68.1230 C   0  0  0  0  0  0  0  0  0  0  0  0
  129.2530  126.8430   69.5910 C   0  0  0  0  0  0  0  0  0  0  0  0
  128.4490  125.8720   70.1990 C   0  0  0  0  0  0  0  0  0  0  0  0
  128.5250  125.6340   71.5680 C   0  0  0  0  0  0  0  0  0  0  0  0
  129.4020  126.3680   72.3830 C   0  0  0  0  0  0  0  0  0  0  0  0
  129.4960  126.1360   73.7600 N   0  0  0  0  0  0  0  0  0  0  0  0
  128.9950  127.1200   74.7420 C   0  0  0  0  0  0  0  0  0  0  0  0
  128.8580  126.5590   76.1730 C   0  0  0  0  0  0  0  0  0  0  0  0
  130.0940  126.0050   76.5950 O   0  0  0  0  0  0  0  0  0  0  0  0
  130.5010  124.9400   75.7510 C   0  0  0  0  0  0  0  0  0  0  0  0
  130.6850  125.4480   74.3050 C   0  0  0  0  0  0  0  0  0  0  0  0
  130.2190  127.3260   71.7650 C   0  0  0  0  0  0  0  0  0  0  0  0
  130.1440  127.5600   70.3950 C   0  0  0  0  0  0  0  0  0  0  0  0
  129.9550  126.4150   67.2010 C   0  0  0  0  0  0  0  0  0  0  0  0
  129.8570  126.6790   65.8310 C   0  0  0  0  0  0  0  0  0  0  0  0
  130.6930  125.8930   64.8890 C   0  0  0  0  0  0  0  0  0  0  0  0
  132.0850  125.9830   64.9370 C   0  0  0  0  0  0  0  0  0  0  0  0
  132.8720  125.2350   64.0670 C   0  0  0  0  0  0  0  0  0  0  0  0
  132.2870  124.3770   63.1230 C   0  0  0  0  0  0  0  0  0  0  0  0
  133.0580  123.6070   62.2460 N   0  0  0  0  0  0  0  0  0  0  0  0
  133.0870  122.1400   62.4110 C   0  0  0  0  0  0  0  0  0  0  0  0
  134.2520  121.4650   61.6560 C   0  0  0  0  0  0  0  0  0  0  0  0
  134.2070  121.8150   60.2810 O   0  0  0  0  0  0  0  0  0  0  0  0
  134.3160  123.2170   60.0930 C   0  0  0  0  0  0  0  0  0  0  0  0
  133.1550  123.9390   60.8120 C   0  0  0  0  0  0  0  0  0  0  0  0
  130.8880  124.2780   63.0970 C   0  0  0  0  0  0  0  0  0  0  0  0
  130.1010  125.0270   63.9670 C   0  0  0  0  0  0  0  0  0  0  0  0
  128.9520  127.6960   65.4130 C   0  0  0  0  0  0  0  0  0  0  0  0
  1  2  1  0
  2  3  2  0
  3  4  1  0
  4  5  2  0
  4  6  1  0
  6  7  1  0
  7  8  2  0
  8  9  1  0
  9 10  2  0
 10 11  1  0
  3 12  1  0
 12 13  1  0
 13 14  2  0
 14 15  1  0
 15 16  1  0
 16 17  2  0
 17 18  1  0
 18 19  2  0
 19 20  1  0
 20 21  1  0
 21 22  1  0
 22 23  1  0
 23 24  1  0
 24 25  1  0
 19 26  1  0
 26 27  2  0
 15 28  2  0
 28 29  1  0
 29 30  1  0
 30 31  2  0
 31 32  1  0
 32 33  2  0
 33 34  1  0
 34 35  1  0
 35 36  1  0
 36 37  1  0
 37 38  1  0
 38 39  1  0
 33 40  1  0
 40 41  2  0
 29 42  2  0
 42  2  1  0
 11  7  1  0
 42 13  1  0
 27 16  1  0
 41 30  1  0
 25 20  1  0
 39 34  1  0
M  END
>  <Binding energies>  (41) 
[-9.7]

>  <Ligand effiencies>  (41) 
[-0.21555555555555553]

>  <Interactions>  (41) 
["V-B:HIS:456:CE1:9038, V-B:GLU:543:CD:9877, V-A:GLU:543:CD:4905, V-B:GLU:543:C:9871, V-A:HIS:456:CE1:4066, V-A:TYR:539:CE2:4873, V-A:TYR:539:CD2:4871, V-A:ASP:366:CG:3209, V-B:LEU:475:CD2:9227, V-A:ALA:541:CB:4889, V-A:LEU:475:CD1:4254, H-B:TYR:539:OH:9847, V-A:GLY:454:CA:4045, H-A:GLU:543:OE2:4907, V-B:LYS:547:CE:9919, V-A:LYS:547:CE:4947, V-B:LYS:547:CD:9918, V-A:ARG:545:CZ:4923, H-A:GLU:543:OE1:4906, V-A:HIS:456:CD2:4064, V-A:ILE:369:CG2:3233, V-A:ASP:366:CA:3206, V-A:ILE:369:CG1:3234, V-A:ILE:369:CB:3232"]

$$$$
RR11_Rahimova_2017
     RDKit          3D

 33 38  0  0  0  0  0  0  0  0999 V2000
  134.0990  121.7020   60.6880 N   0  0  0  0  0  0  0  0  0  0  0  0
  133.3690  122.5180   61.5510 C   0  0  0  0  0  0  0  0  0  0  0  0
  133.8390  123.7930   61.8640 C   0  0  0  0  0  0  0  0  0  0  0  0
  133.1080  124.6070   62.7230 C   0  0  0  0  0  0  0  0  0  0  0  0
  131.9020  124.1570   63.2780 C   0  0  0  0  0  0  0  0  0  0  0  0
  131.1130  125.0390   64.1990 C   0  0  0  0  0  0  0  0  0  0  0  0
  130.5870  126.1940   63.8530 N   0  0  0  0  0  0  0  0  0  0  0  0
  129.9500  126.6520   64.9770 C   0  0  0  0  0  0  0  0  0  0  0  0
  129.2200  127.8340   65.1610 C   0  0  0  0  0  0  0  0  0  0  0  0
  128.6420  128.0720   66.4130 C   0  0  0  0  0  0  0  0  0  0  0  0
  127.8480  129.3500   66.6450 C   0  0  0  0  0  0  0  0  0  0  0  0
  127.5140  130.0840   65.3530 C   0  0  0  0  0  0  0  0  0  0  0  0
  127.8610  131.4330   65.2190 C   0  0  0  0  0  0  0  0  0  0  0  0
  127.5850  132.1470   64.0500 C   0  0  0  0  0  0  0  0  0  0  0  0
  126.9500  131.4720   62.9990 C   0  0  0  0  0  0  0  0  0  0  0  0
  126.5690  131.9430   61.7700 N   0  0  0  0  0  0  0  0  0  0  0  0
  126.0140  130.9170   61.1610 C   0  0  0  0  0  0  0  0  0  0  0  0
  125.4270  130.9650   59.7800 C   0  0  0  0  0  0  0  0  0  0  0  0
  124.2680  131.7090   59.5250 C   0  0  0  0  0  0  0  0  0  0  0  0
  123.7180  131.7450   58.2470 C   0  0  0  0  0  0  0  0  0  0  0  0
  124.3240  131.0360   57.2120 C   0  0  0  0  0  0  0  0  0  0  0  0
  123.7710  131.0680   55.9320 N   0  0  0  0  0  0  0  0  0  0  0  0
  125.4790  130.2950   57.4500 C   0  0  0  0  0  0  0  0  0  0  0  0
  126.0280  130.2600   58.7280 C   0  0  0  0  0  0  0  0  0  0  0  0
  126.0230  129.7840   61.9480 N   0  0  0  0  0  0  0  0  0  0  0  0
  126.6170  130.1040   63.1450 C   0  0  0  0  0  0  0  0  0  0  0  0
  126.8960  129.3830   64.3090 C   0  0  0  0  0  0  0  0  0  0  0  0
  128.8130  127.1610   67.4620 C   0  0  0  0  0  0  0  0  0  0  0  0
  129.5390  125.9770   67.3120 C   0  0  0  0  0  0  0  0  0  0  0  0
  130.0970  125.7450   66.0520 C   0  0  0  0  0  0  0  0  0  0  0  0
  130.8500  124.7260   65.5170 N   0  0  0  0  0  0  0  0  0  0  0  0
  131.4430  122.8730   62.9560 C   0  0  0  0  0  0  0  0  0  0  0  0
  132.1720  122.0560   62.0960 C   0  0  0  0  0  0  0  0  0  0  0  0
  1  2  1  0
  2  3  2  0
  3  4  1  0
  4  5  2  0
  5  6  1  0
  6  7  2  0
  7  8  1  0
  8  9  2  0
  9 10  1  0
 10 11  1  0
 11 12  1  0
 12 13  2  0
 13 14  1  0
 14 15  2  0
 15 16  1  0
 16 17  2  0
 17 18  1  0
 18 19  2  0
 19 20  1  0
 20 21  2  0
 21 22  1  0
 21 23  1  0
 23 24  2  0
 17 25  1  0
 25 26  1  0
 26 27  2  0
 10 28  2  0
 28 29  1  0
 29 30  2  0
 30 31  1  0
  5 32  1  0
 32 33  2  0
 33  2  1  0
 31  6  1  0
 30  8  1  0
 27 12  1  0
 26 15  1  0
 24 18  1  0
M  END
>  <Binding energies>  (42) 
[-9.06]

>  <Ligand effiencies>  (42) 
[-0.23230769230769233]

>  <Interactions>  (42) 
["V-B:HIS:456:CE1:9038, V-B:TYR:484:CZ:9315, V-A:GLU:543:CD:4905, V-B:GLU:543:CB:9875, V-A:GLU:543:CG:4904, V-A:GLU:543:CB:4903, V-A:HIS:456:CE1:4066, V-A:TYR:539:CE2:4873, H-A:TYR:539:OH:4875, V-A:TYR:539:CZ:4874, V-A:ASP:366:CG:3209, V-A:ALA:541:CB:4889, V-B:TYR:539:CE2:9845, V-B:TYR:531:CZ:9763, V-B:ASP:366:CB:8180, V-A:LEU:475:CD1:4254, H-B:TYR:539:OH:9847, V-B:TYR:484:CE1:9313, H-B:ASP:366:OD1:8182, V-B:ASP:366:CG:8181, V-A:TYR:484:CZ:4343, V-A:TYR:484:CE1:4341, H-B:TYR:531:OH:9764, V-A:ARG:545:CZ:4923, V-B:ILE:369:CG2:8205, H-A:TYR:484:OH:4344, V-B:TYR:531:CE1:9761, V-B:ASN:370:CB:8213, V-B:ASP:366:CA:8178, V-B:ILE:369:CB:8204, V-B:ASP:366:C:8176, V-A:ILE:369:CG2:3233, V-A:ILE:369:CG1:3234, V-A:ILE:369:CB:3232, H-B:ASP:366:OD2:8183, V-B:ASN:370:CA:8211, H-B:ASN:370:OD1:8215, H-B:ASP:366:O:8177, H-A:SER:385:O:3402"]

$$$$
RR16_Rahimova_2017
     RDKit          3D

 44 49  0  0  0  0  0  0  0  0999 V2000
  125.1200  132.3720   59.5730 O   0  0  0  0  0  0  0  0  0  0  0  0
  125.9930  133.2920   60.3110 S   0  0  0  0  0  0  0  0  0  0  0  0
  125.5940  134.6860   60.5410 O   0  0  0  0  0  0  0  0  0  0  0  0
  127.5630  133.2970   59.5070 N   0  0  0  0  0  0  0  0  0  0  0  0
  128.2650  132.0280   59.2000 C   0  0  0  0  0  0  0  0  0  0  0  0
  128.1550  131.7400   57.6800 C   0  0  0  0  0  0  0  0  0  0  0  0
  129.0530  132.5640   56.7370 C   0  0  0  0  0  0  0  0  0  0  0  0
  130.4430  131.9480   56.5020 C   0  0  0  0  0  0  0  0  0  0  0  0
  131.3530  131.8540   57.7410 C   0  0  0  0  0  0  0  0  0  0  0  0
  130.7410  131.2500   59.0200 C   0  0  0  0  0  0  0  0  0  0  0  0
  129.7030  132.1150   59.7630 C   0  0  0  0  0  0  0  0  0  0  0  0
  126.3100  132.5410   61.9030 C   0  0  0  0  0  0  0  0  0  0  0  0
  127.5740  132.6380   62.4890 C   0  0  0  0  0  0  0  0  0  0  0  0
  127.8420  131.9470   63.6670 C   0  0  0  0  0  0  0  0  0  0  0  0
  126.8470  131.1640   64.2540 C   0  0  0  0  0  0  0  0  0  0  0  0
  127.2300  130.1630   65.6900 S   0  0  0  0  0  0  0  0  0  0  0  0
  125.9610  129.6380   66.2110 O   0  0  0  0  0  0  0  0  0  0  0  0
  128.1150  130.9540   66.5540 O   0  0  0  0  0  0  0  0  0  0  0  0
  128.1660  128.8050   65.0350 N   0  0  0  0  0  0  0  0  0  0  0  0
  128.5930  127.8060   66.0490 C   0  0  0  0  0  0  0  0  0  0  0  0
  129.6460  126.8500   65.4540 C   0  0  0  0  0  0  0  0  0  0  0  0
  129.1550  126.2020   64.1360 C   0  0  0  0  0  0  0  0  0  0  0  0
  130.2060  125.2840   63.5040 C   0  0  0  0  0  0  0  0  0  0  0  0
  131.5680  125.5860   63.6440 C   0  0  0  0  0  0  0  0  0  0  0  0
  132.5590  124.7740   63.0920 C   0  0  0  0  0  0  0  0  0  0  0  0
  133.8860  125.0830   63.2420 O   0  0  0  0  0  0  0  0  0  0  0  0
  132.1590  123.6290   62.3850 C   0  0  0  0  0  0  0  0  0  0  0  0
  132.8910  122.6590   61.7640 N   0  0  0  0  0  0  0  0  0  0  0  0
  132.0050  121.7400   61.2450 N   0  0  0  0  0  0  0  0  0  0  0  0
  130.7520  122.1630   61.5050 N   0  0  0  0  0  0  0  0  0  0  0  0
  129.6090  121.3350   61.1430 C   0  0  0  0  0  0  0  0  0  0  0  0
  128.5710  122.0930   60.3260 C   0  0  0  0  0  0  0  0  0  0  0  0
  127.6150  122.8860   60.9690 C   0  0  0  0  0  0  0  0  0  0  0  0
  126.6760  123.5990   60.2220 C   0  0  0  0  0  0  0  0  0  0  0  0
  126.6900  123.5240   58.8290 C   0  0  0  0  0  0  0  0  0  0  0  0
  127.6420  122.7360   58.1820 C   0  0  0  0  0  0  0  0  0  0  0  0
  127.6680  122.6490   56.4580 Cl  0  0  0  0  0  0  0  0  0  0  0  0
  128.5790  122.0190   58.9290 C   0  0  0  0  0  0  0  0  0  0  0  0
  130.7830  123.3360   62.2410 C   0  0  0  0  0  0  0  0  0  0  0  0
  129.7880  124.1510   62.7910 C   0  0  0  0  0  0  0  0  0  0  0  0
  128.5950  127.2490   63.1380 C   0  0  0  0  0  0  0  0  0  0  0  0
  127.5830  128.2000   63.8090 C   0  0  0  0  0  0  0  0  0  0  0  0
  125.5700  131.1020   63.6900 C   0  0  0  0  0  0  0  0  0  0  0  0
  125.3030  131.7890   62.5110 C   0  0  0  0  0  0  0  0  0  0  0  0
  1  2  2  0
  2  3  2  0
  2  4  1  0
  4  5  1  0
  5  6  1  0
  6  7  1  0
  7  8  1  0
  8  9  1  0
  9 10  1  0
 10 11  1  0
  2 12  1  0
 12 13  2  0
 13 14  1  0
 14 15  2  0
 15 16  1  0
 16 17  2  0
 16 18  2  0
 16 19  1  0
 19 20  1  0
 20 21  1  0
 21 22  1  0
 22 23  1  0
 23 24  2  0
 24 25  1  0
 25 26  1  0
 25 27  2  0
 27 28  1  0
 28 29  2  0
 29 30  1  0
 30 31  1  0
 31 32  1  0
 32 33  2  0
 33 34  1  0
 34 35  2  0
 35 36  1  0
 36 37  1  0
 36 38  2  0
 30 39  1  0
 39 40  2  0
 22 41  1  0
 41 42  1  0
 15 43  1  0
 43 44  2  0
 11  5  1  0
 44 12  1  0
 42 19  1  0
 40 23  1  0
 39 27  1  0
 38 32  1  0
M  END
>  <Binding energies>  (43) 
[-11.26]

>  <Ligand effiencies>  (43) 
[-0.23458333333333334]

>  <Interactions>  (43) 
["V-B:GLU:543:CG:9876, V-B:HIS:456:CE1:9038, V-B:GLU:543:CD:9877, V-A:GLU:543:CD:4905, V-A:GLU:543:CG:4904, H-B:TYR:484:OH:9316, V-A:TYR:539:CE2:4873, V-A:PRO:540:CA:4880, V-A:PRO:540:CB:4882, V-A:TYR:539:CD2:4871, V-A:TYR:539:C:4864, V-A:PRO:540:N:4881, H-A:TYR:539:O:4865, V-A:TYR:539:CG:4869, V-A:ALA:541:CB:4889, V-B:TYR:539:CD1:9842, V-B:PRO:540:N:9853, V-B:PRO:540:CA:9852, V-B:TYR:539:CE1:9844, V-B:TYR:539:CZ:9846, V-B:TYR:539:CE2:9845, V-B:TYR:539:C:9836, V-B:ALA:541:CB:9861, V-B:TYR:539:CD2:9843, H-A:ARG:545:NH2:4925, H-B:HIS:456:ND1:9035, H-A:GLY:454:N:4046, V-A:ARG:545:CZ:4923, V-B:TYR:539:CG:9841, H-A:ASP:366:OD1:3210, H-A:ARG:545:NH1:4924, H-A:ASP:366:OD2:3211"]

$$$$
RR18_Rahimova_2017
     RDKit          3D

 36 41  0  0  0  0  0  0  0  0999 V2000
  133.1250  131.3900   57.6460 C   0  0  0  0  0  0  0  0  0  0  0  0
  132.2030  130.6770   58.6030 C   0  0  0  0  0  0  0  0  0  0  0  0
  131.7250  130.9580   59.8730 C   0  0  0  0  0  0  0  0  0  0  0  0
  130.8970  129.8970   60.2360 C   0  0  0  0  0  0  0  0  0  0  0  0
  130.8970  129.0060   59.1740 C   0  0  0  0  0  0  0  0  0  0  0  0
  130.2080  127.6690   58.9150 C   0  0  1  0  0  0  0  0  0  0  0  0
  130.5450  127.1180   57.4970 C   0  0  0  0  0  0  0  0  0  0  0  0
  130.1040  127.8320   56.3030 C   0  0  0  0  0  0  0  0  0  0  0  0
  130.1410  127.3140   55.1850 O   0  0  0  0  0  0  0  0  0  0  0  0
  129.6450  129.0820   56.5430 N   0  0  0  0  0  0  0  0  0  0  0  0
  129.1610  130.0630   55.6510 C   0  0  0  0  0  0  0  0  0  0  0  0
  128.7610  129.7820   54.3310 C   0  0  0  0  0  0  0  0  0  0  0  0
  128.2990  130.7990   53.4990 C   0  0  0  0  0  0  0  0  0  0  0  0
  128.2340  132.1090   53.9650 C   0  0  0  0  0  0  0  0  0  0  0  0
  128.6370  132.4040   55.2650 C   0  0  0  0  0  0  0  0  0  0  0  0
  129.1030  131.3940   56.1130 C   0  0  0  0  0  0  0  0  0  0  0  0
  129.5370  131.7710   57.5260 C   0  0  0  0  0  0  0  0  0  0  0  0
  131.3420  126.0210   57.4020 C   0  0  0  0  0  0  0  0  0  0  0  0
  131.7810  125.2850   58.4600 N   0  0  0  0  0  0  0  0  0  0  0  0
  131.3700  125.5700   59.6400 C   0  0  0  0  0  0  0  0  0  0  0  0
  131.7250  124.6280   61.0690 S   0  0  0  0  0  0  0  0  0  0  0  0
  130.7530  125.7270   62.0990 C   0  0  0  0  0  0  0  0  0  0  0  0
  130.5400  125.6230   63.4560 C   0  0  0  0  0  0  0  0  0  0  0  0
  131.0680  124.4740   64.2060 C   0  0  0  0  0  0  0  0  0  0  0  0
  131.7430  123.5200   63.8200 O   0  0  0  0  0  0  0  0  0  0  0  0
  130.6680  124.6070   65.4740 N   0  0  0  0  0  0  0  0  0  0  0  0
  129.9480  125.7430   65.6880 C   0  0  0  0  0  0  0  0  0  0  0  0
  129.3950  126.1920   66.8870 C   0  0  0  0  0  0  0  0  0  0  0  0
  128.7150  127.4070   66.9000 C   0  0  0  0  0  0  0  0  0  0  0  0
  128.6080  128.1500   65.7260 C   0  0  0  0  0  0  0  0  0  0  0  0
  129.1700  127.6790   64.5370 C   0  0  0  0  0  0  0  0  0  0  0  0
  129.8400  126.4420   64.4970 C   0  0  0  0  0  0  0  0  0  0  0  0
  130.1950  126.7730   61.2420 C   0  0  0  0  0  0  0  0  0  0  0  0
  129.4350  127.6720   61.5880 O   0  0  0  0  0  0  0  0  0  0  0  0
  130.5960  126.6430   59.9480 N   0  0  0  0  0  0  0  0  0  0  0  0
  131.6960  129.4880   58.1850 O   0  0  0  0  0  0  0  0  0  0  0  0
  1  2  1  0
  2  3  2  0
  3  4  1  0
  4  5  2  0
  6  5  1  1
  6  7  1  0
  7  8  1  0
  8  9  2  0
  8 10  1  0
 10 11  1  0
 11 12  2  0
 12 13  1  0
 13 14  2  0
 14 15  1  0
 15 16  2  0
 16 17  1  0
  7 18  2  0
 18 19  1  0
 19 20  2  0
 20 21  1  0
 21 22  1  0
 22 23  2  0
 23 24  1  0
 24 25  2  0
 24 26  1  0
 26 27  1  0
 27 28  2  0
 28 29  1  0
 29 30  2  0
 30 31  1  0
 31 32  2  0
 22 33  1  0
 33 34  2  0
 33 35  1  0
  5 36  1  0
 36  2  1  0
 35  6  1  0
 16 11  1  0
 35 20  1  0
 32 23  1  0
 32 27  1  0
M  END
>  <Binding energies>  (44) 
[-9.36]

>  <Ligand effiencies>  (44) 
[-0.24631578947368418]

>  <Interactions>  (44) 
["V-B:GLU:543:CG:9876, V-B:HIS:456:CE1:9038, V-B:GLU:543:CD:9877, V-A:GLU:543:CD:4905, V-B:GLU:543:CB:9875, V-A:GLU:543:CG:4904, V-A:HIS:456:CE1:4066, V-A:TYR:539:CE2:4873, V-A:PRO:540:CA:4880, V-A:PRO:540:CB:4882, V-A:TYR:539:CD2:4871, V-A:LEU:363:CD1:3185, V-A:TYR:539:CE1:4872, V-A:ILE:538:CD1:4862, V-A:TYR:539:CZ:4874, V-A:ASP:366:CG:3209, V-A:TYR:539:C:4864, V-A:LEU:363:CA:3181, V-A:TYR:539:CD1:4870, V-B:MET:535:CE:9804, V-A:ASP:366:CB:3208, H-A:TYR:531:OH:4792, H-B:TYR:539:OH:9847, V-A:TYR:484:CZ:4343, V-A:TYR:484:CE1:4341, V-A:LEU:363:CB:3183, H-A:TYR:484:OH:4344"]

$$$$
RR20_Rahimova_2017
     RDKit          3D

 38 43  0  0  0  0  0  0  0  0999 V2000
  125.1550  130.6770   56.6730 C   0  0  0  0  0  0  0  0  0  0  0  0
  124.9970  130.9300   58.1610 C   0  0  0  0  0  0  0  0  0  0  0  0
  123.7890  131.4180   58.6590 C   0  0  0  0  0  0  0  0  0  0  0  0
  123.6400  131.6420   60.0250 C   0  0  0  0  0  0  0  0  0  0  0  0
  124.7010  131.3920   60.9030 C   0  0  0  0  0  0  0  0  0  0  0  0
  124.5120  131.6210   62.3860 C   0  0  0  0  0  0  0  0  0  0  0  0
  123.3560  131.6980   62.8080 O   0  0  0  0  0  0  0  0  0  0  0  0
  125.6080  131.7210   63.1930 N   0  0  0  0  0  0  0  0  0  0  0  0
  125.9800  132.9910   63.8370 C   0  0  0  0  0  0  0  0  0  0  0  0
  127.1420  132.6780   64.7630 C   0  0  0  0  0  0  0  0  0  0  0  0
  127.0990  131.1830   64.8600 C   0  0  0  0  0  0  0  0  0  0  0  0
  127.8760  130.3300   65.6430 C   0  0  0  0  0  0  0  0  0  0  0  0
  127.8010  128.9410   65.4750 C   0  0  0  0  0  0  0  0  0  0  0  0
  128.6320  128.0210   66.3260 C   0  0  0  0  0  0  0  0  0  0  0  0
  128.8050  128.3290   67.6010 N   0  0  0  0  0  0  0  0  0  0  0  0
  129.5260  127.4490   68.2490 C   0  0  0  0  0  0  0  0  0  0  0  0
  129.8910  127.4630   69.5870 N   0  0  0  0  0  0  0  0  0  0  0  0
  129.2520  126.8470   70.6120 C   0  0  0  0  0  0  0  0  0  0  0  0
  128.2420  126.1540   70.4770 O   0  0  0  0  0  0  0  0  0  0  0  0
  129.8430  127.0010   72.0330 C   0  0  0  0  0  0  0  0  0  0  0  0
  128.9920  127.8100   72.9260 N   0  0  0  0  0  0  0  0  0  0  0  0
  129.0810  129.2490   72.6340 C   0  0  0  0  0  0  0  0  0  0  0  0
  128.3910  130.0620   73.7530 C   0  0  0  0  0  0  0  0  0  0  0  0
  127.0260  129.4980   74.1470 C   0  0  0  0  0  0  0  0  0  0  0  0
  126.1410  130.2380   74.9390 C   0  0  0  0  0  0  0  0  0  0  0  0
  124.9140  129.7090   75.3300 C   0  0  0  0  0  0  0  0  0  0  0  0
  124.5540  128.4260   74.9290 C   0  0  0  0  0  0  0  0  0  0  0  0
  125.4220  127.6820   74.1320 C   0  0  0  0  0  0  0  0  0  0  0  0
  126.6580  128.2010   73.7340 C   0  0  0  0  0  0  0  0  0  0  0  0
  127.5850  127.4070   72.8120 C   0  0  0  0  0  0  0  0  0  0  0  0
  130.0740  126.1320   67.2880 S   0  0  0  0  0  0  0  0  0  0  0  0
  129.2700  126.8340   65.9050 C   0  0  0  0  0  0  0  0  0  0  0  0
  129.3630  126.1730   64.5470 C   0  0  0  0  0  0  0  0  0  0  0  0
  126.9700  128.4330   64.4650 C   0  0  0  0  0  0  0  0  0  0  0  0
  126.2070  129.2850   63.6670 C   0  0  0  0  0  0  0  0  0  0  0  0
  126.2260  130.6660   63.9020 C   0  0  0  0  0  0  0  0  0  0  0  0
  125.9010  130.8730   60.3990 C   0  0  0  0  0  0  0  0  0  0  0  0
  126.0510  130.6490   59.0330 C   0  0  0  0  0  0  0  0  0  0  0  0
  1  2  1  0
  2  3  2  0
  3  4  1  0
  4  5  2  0
  5  6  1  0
  6  7  2  0
  6  8  1  0
  8  9  1  0
  9 10  1  0
 10 11  1  0
 11 12  2  0
 12 13  1  0
 13 14  1  0
 14 15  1  0
 15 16  2  0
 16 17  1  0
 17 18  1  0
 18 19  2  0
 18 20  1  0
 20 21  1  0
 21 22  1  0
 22 23  1  0
 23 24  1  0
 24 25  2  0
 25 26  1  0
 26 27  2  0
 27 28  1  0
 28 29  2  0
 29 30  1  0
 16 31  1  0
 31 32  1  0
 32 33  1  0
 13 34  2  0
 34 35  1  0
 35 36  2  0
  5 37  1  0
 37 38  2  0
 38  2  1  0
 36  8  1  0
 36 11  1  0
 32 14  2  0
 30 21  1  0
 29 24  1  0
M  END
>  <Binding energies>  (45) 
[-11.01]

>  <Ligand effiencies>  (45) 
[-0.2823076923076923]

>  <Interactions>  (45) 
["V-B:GLU:543:CG:9876, V-B:HIS:456:CE1:9038, V-B:TYR:484:CZ:9315, V-B:GLU:543:CD:9877, V-A:GLU:543:CD:4905, V-A:GLU:543:CG:4904, V-A:GLU:543:CB:4903, H-B:GLY:454:N:9018, V-A:HIS:456:CE1:4066, V-A:TYR:539:CE2:4873, V-A:TYR:539:CZ:4874, V-B:LEU:475:CD2:9227, V-A:ALA:541:CB:4889, V-B:TYR:531:CZ:9763, V-B:ASP:366:CB:8180, V-B:TYR:484:CE1:9313, V-B:ILE:369:CD1:8207, V-B:ASP:366:CG:8181, V-B:HIS:456:CG:9034, V-B:LYS:547:CE:9919, V-B:HIS:456:CD2:9036, V-A:LYS:547:CE:4947, V-B:HIS:456:CB:9033, V-B:LYS:471:CE:9188, H-A:LYS:547:NZ:4948, V-B:LYS:547:CD:9918, V-B:ILE:369:CG2:8205, V-B:TYR:531:CE1:9761, V-B:ASP:366:CA:8178, V-B:ILE:369:CB:8204, V-B:ASP:366:C:8176, V-B:VAL:458:CG2:9055, V-A:HIS:456:CD2:4064, V-B:VAL:457:C:9041, V-B:HIS:456:C:9029, H-A:HIS:456:NE2:4067, V-B:ILE:369:CG1:8206, H-A:GLU:543:O:4900, H-A:GLY:544:O:4910"]

$$$$
RR21_Rahimova_2017
     RDKit          3D

 40 45  0  0  0  0  0  0  0  0999 V2000
  133.5870  123.9140   61.2030 C   0  0  0  0  0  0  0  0  0  0  0  0
  133.9090  124.2830   62.5410 O   0  0  0  0  0  0  0  0  0  0  0  0
  132.9260  124.8240   63.3480 C   0  0  0  0  0  0  0  0  0  0  0  0
  131.5850  124.9860   62.9590 C   0  0  0  0  0  0  0  0  0  0  0  0
  130.6530  125.5390   63.8360 C   0  0  0  0  0  0  0  0  0  0  0  0
  131.0340  125.9410   65.1220 C   0  0  0  0  0  0  0  0  0  0  0  0
  130.0300  126.5310   66.0640 C   0  0  0  0  0  0  0  0  0  0  0  0
  130.1560  126.3380   67.3630 N   0  0  0  0  0  0  0  0  0  0  0  0
  129.1310  126.9730   67.9490 N   0  0  0  0  0  0  0  0  0  0  0  0
  128.9740  126.9840   69.3590 C   0  0  0  0  0  0  0  0  0  0  0  0
  129.7930  127.7900   70.1660 C   0  0  0  0  0  0  0  0  0  0  0  0
  129.6260  127.7960   71.5480 C   0  0  0  0  0  0  0  0  0  0  0  0
  128.6430  126.9980   72.1290 C   0  0  0  0  0  0  0  0  0  0  0  0
  127.8260  126.1920   71.3400 C   0  0  0  0  0  0  0  0  0  0  0  0
  127.9900  126.1840   69.9570 C   0  0  0  0  0  0  0  0  0  0  0  0
  128.3530  127.5920   67.0020 C   0  0  0  0  0  0  0  0  0  0  0  0
  128.8960  127.3170   65.7560 C   0  0  0  0  0  0  0  0  0  0  0  0
  128.4470  127.7920   64.4560 C   0  0  0  0  0  0  0  0  0  0  0  0
  127.4220  128.6290   64.1780 C   0  0  0  0  0  0  0  0  0  0  0  0
  126.3000  129.3990   65.3230 S   0  0  0  0  0  0  0  0  0  0  0  0
  125.5030  130.2040   63.9790 C   0  0  0  0  0  0  0  0  0  0  0  0
  124.5040  131.0300   64.0260 N   0  0  0  0  0  0  0  0  0  0  0  0
  123.9570  131.6250   62.8560 C   0  0  0  0  0  0  0  0  0  0  0  0
  123.0280  132.4310   62.8170 O   0  0  0  0  0  0  0  0  0  0  0  0
  124.6310  131.1930   61.5820 C   0  0  0  0  0  0  0  0  0  0  0  0
  124.1130  131.7550   60.2520 C   0  0  0  0  0  0  0  0  0  0  0  0
  125.0220  131.4800   59.0560 C   0  0  0  0  0  0  0  0  0  0  0  0
  124.5000  130.8910   57.9010 C   0  0  0  0  0  0  0  0  0  0  0  0
  125.3260  130.6560   56.8050 C   0  0  0  0  0  0  0  0  0  0  0  0
  126.6750  131.0110   56.8590 C   0  0  0  0  0  0  0  0  0  0  0  0
  127.5680  130.7640   55.6570 C   0  0  0  0  0  0  0  0  0  0  0  0
  127.1960  131.6110   58.0090 C   0  0  0  0  0  0  0  0  0  0  0  0
  126.3710  131.8450   59.1050 C   0  0  0  0  0  0  0  0  0  0  0  0
  125.6220  130.3630   61.5510 N   0  0  0  0  0  0  0  0  0  0  0  0
  126.0690  129.8610   62.7790 N   0  0  0  0  0  0  0  0  0  0  0  0
  127.1170  129.0020   62.8040 C   0  0  0  0  0  0  0  0  0  0  0  0
  127.7250  128.6040   61.8030 O   0  0  0  0  0  0  0  0  0  0  0  0
  132.3690  125.7870   65.5070 C   0  0  0  0  0  0  0  0  0  0  0  0
  133.3040  125.2340   64.6310 C   0  0  0  0  0  0  0  0  0  0  0  0
  134.5880  125.0980   65.0350 F   0  0  0  0  0  0  0  0  0  0  0  0
  1  2  1  0
  2  3  1  0
  3  4  2  0
  4  5  1  0
  5  6  2  0
  6  7  1  0
  7  8  2  0
  8  9  1  0
  9 10  1  0
 10 11  2  0
 11 12  1  0
 12 13  2  0
 13 14  1  0
 14 15  2  0
  9 16  1  0
 16 17  2  0
 17 18  1  0
 18 19  2  0
 19 20  1  0
 20 21  1  0
 21 22  2  0
 22 23  1  0
 23 24  2  0
 23 25  1  0
 25 26  1  0
 26 27  1  0
 27 28  2  0
 28 29  1  0
 29 30  2  0
 30 31  1  0
 30 32  1  0
 32 33  2  0
 25 34  2  0
 34 35  1  0
 35 36  1  0
 36 37  2  0
  6 38  1  0
 38 39  2  0
 39 40  1  0
 39  3  1  0
 17  7  1  0
 36 19  1  0
 15 10  1  0
 35 21  1  0
 33 27  1  0
M  END
>  <Binding energies>  (46) 
[-11.03]

>  <Ligand effiencies>  (46) 
[-0.27575]

>  <Interactions>  (46) 
["V-B:GLY:544:C:9881, V-B:HIS:456:CE1:9038, V-B:GLU:543:CD:9877, V-A:GLU:543:CD:4905, V-B:GLU:543:C:9871, H-B:GLY:454:N:9018, H-B:TYR:484:OH:9316, V-B:GLY:454:CA:9017, V-A:HIS:456:CE1:4066, V-A:TYR:539:CE2:4873, V-A:TYR:539:CD2:4871, V-A:TYR:539:CZ:4874, V-A:ASP:366:CG:3209, V-B:ASP:366:CB:8180, V-A:GLY:454:CA:4045, V-B:ILE:369:CD1:8207, V-B:ASP:366:CG:8181, V-B:LYS:547:CE:9919, V-B:HIS:456:CD2:9036, V-B:GLY:544:CA:9883, H-A:GLY:454:N:4046, V-A:ARG:545:CZ:4923, V-B:ILE:369:CG2:8205, V-A:ARG:545:CD:4920, V-A:GLY:453:C:4038, V-B:ASP:366:CA:8178, V-A:GLY:453:CA:4040"]

$$$$
RR23_Rahimova_2017
     RDKit          3D

 39 44  0  0  0  0  0  0  0  0999 V2000
  127.2470  127.3230   73.7060 C   0  0  0  0  0  0  0  0  0  0  0  0
  128.0250  127.4380   72.4080 C   0  0  0  0  0  0  0  0  0  0  0  0
  127.6380  126.6930   71.2930 C   0  0  0  0  0  0  0  0  0  0  0  0
  128.3470  126.8060   70.1000 C   0  0  0  0  0  0  0  0  0  0  0  0
  129.4550  127.6570   70.0150 C   0  0  0  0  0  0  0  0  0  0  0  0
  130.1980  127.7820   68.7040 C   0  0  0  0  0  0  0  0  0  0  0  0
  131.4050  128.0300   68.7530 O   0  0  0  0  0  0  0  0  0  0  0  0
  129.5220  127.6040   67.5300 N   0  0  0  0  0  0  0  0  0  0  0  0
  128.6220  128.6390   66.9950 C   0  0  0  0  0  0  0  0  0  0  0  0
  128.1760  128.1520   65.6260 C   0  0  0  0  0  0  0  0  0  0  0  0
  129.1530  127.0550   65.3280 C   0  0  0  0  0  0  0  0  0  0  0  0
  129.2930  126.2950   64.1670 C   0  0  0  0  0  0  0  0  0  0  0  0
  130.1670  125.1980   64.1380 C   0  0  0  0  0  0  0  0  0  0  0  0
  130.3520  124.3350   62.8800 C   0  0  2  0  0  0  0  0  0  0  0  0
  129.2640  124.5010   61.9400 N   0  0  0  0  0  0  0  0  0  0  0  0
  129.0340  123.4330   61.2880 C   0  0  0  0  0  0  0  0  0  0  0  0
  128.0760  123.2140   60.3480 N   0  0  0  0  0  0  0  0  0  0  0  0
  127.0560  124.0260   59.9800 C   0  0  0  0  0  0  0  0  0  0  0  0
  126.8440  125.1560   60.4260 O   0  0  0  0  0  0  0  0  0  0  0  0
  126.1020  123.4530   58.9190 C   0  0  0  0  0  0  0  0  0  0  0  0
  126.8630  123.1830   57.6780 N   0  0  0  0  0  0  0  0  0  0  0  0
  126.4960  122.0320   56.9920 N   0  0  0  0  0  0  0  0  0  0  0  0
  127.0850  121.6830   55.8930 N   0  0  0  0  0  0  0  0  0  0  0  0
  128.1140  122.4740   55.3760 C   0  0  0  0  0  0  0  0  0  0  0  0
  128.7300  122.0680   54.1900 C   0  0  0  0  0  0  0  0  0  0  0  0
  129.7610  122.8370   53.6480 C   0  0  0  0  0  0  0  0  0  0  0  0
  130.1770  124.0070   54.2880 C   0  0  0  0  0  0  0  0  0  0  0  0
  129.5630  124.4140   55.4740 C   0  0  0  0  0  0  0  0  0  0  0  0
  128.5270  123.6430   56.0160 C   0  0  0  0  0  0  0  0  0  0  0  0
  127.8520  124.0640   57.3010 C   0  0  0  0  0  0  0  0  0  0  0  0
  128.1610  125.0750   57.9390 O   0  0  0  0  0  0  0  0  0  0  0  0
  130.0760  122.0250   61.6470 S   0  0  0  0  0  0  0  0  0  0  0  0
  130.5990  122.8360   63.1680 C   0  0  2  0  0  0  0  0  0  0  0  0
  129.8290  122.2220   64.3560 C   0  0  0  0  0  0  0  0  0  0  0  0
  130.8560  124.8530   65.3060 C   0  0  0  0  0  0  0  0  0  0  0  0
  130.7000  125.6000   66.4750 C   0  0  0  0  0  0  0  0  0  0  0  0
  129.8880  126.7420   66.4720 C   0  0  0  0  0  0  0  0  0  0  0  0
  129.8200  128.4240   71.1290 C   0  0  0  0  0  0  0  0  0  0  0  0
  129.1110  128.3110   72.3220 C   0  0  0  0  0  0  0  0  0  0  0  0
  1  2  1  0
  2  3  2  0
  3  4  1  0
  4  5  2  0
  5  6  1  0
  6  7  2  0
  6  8  1  0
  8  9  1  0
  9 10  1  0
 10 11  1  0
 11 12  2  0
 12 13  1  0
 14 13  1  1
 14 15  1  0
 15 16  2  0
 16 17  1  0
 17 18  1  0
 18 19  2  0
 18 20  1  0
 20 21  1  0
 21 22  1  0
 22 23  2  0
 23 24  1  0
 24 25  2  0
 25 26  1  0
 26 27  2  0
 27 28  1  0
 28 29  2  0
 29 30  1  0
 30 31  2  0
 16 32  1  0
 32 33  1  0
 33 34  1  1
 13 35  2  0
 35 36  1  0
 36 37  2  0
  5 38  1  0
 38 39  2  0
 39  2  1  0
 37  8  1  0
 37 11  1  0
 33 14  1  0
 30 21  1  0
 29 24  1  0
M  END
>  <Binding energies>  (47) 
[-10.98]

>  <Ligand effiencies>  (47) 
[-0.2745]

>  <Interactions>  (47) 
["V-B:GLU:543:CG:9876, V-B:GLY:544:C:9881, V-B:HIS:456:CE1:9038, V-B:GLU:543:CD:9877, V-A:GLU:543:CD:4905, V-A:GLU:543:CG:4904, V-A:GLU:543:CB:4903, V-A:HIS:456:CE1:4066, V-B:TYR:539:CD1:9842, V-B:ILE:538:CB:9831, V-B:MET:535:CE:9804, H-B:TYR:539:N:9839, V-B:PRO:540:CB:9854, V-B:ILE:538:CG2:9832, V-B:PRO:540:CA:9852, V-B:TYR:539:CE1:9844, V-B:TYR:539:CZ:9846, V-B:ALA:541:CB:9861, V-A:LEU:475:CD2:4255, V-A:TYR:484:CE1:4341, V-A:GLU:543:C:4899, V-B:LYS:547:CE:9919, V-B:HIS:456:CD2:9036, V-B:LYS:547:CD:9918, H-B:TYR:539:O:9837, V-B:ILE:538:CA:9829, V-B:ILE:538:C:9827, H-A:ARG:545:N:4917, V-B:VAL:537:C:9819"]

$$$$
RR26_Rahimova_2017
     RDKit          3D

 38 44  0  0  0  0  0  0  0  0999 V2000
  127.6100  133.8520   60.8350 C   0  0  0  0  0  0  0  0  0  0  0  0
  126.1440  134.0380   61.2080 C   0  0  0  0  0  0  0  0  0  0  0  0
  125.4460  135.1090   60.6370 C   0  0  0  0  0  0  0  0  0  0  0  0
  124.0940  135.3030   60.9110 C   0  0  0  0  0  0  0  0  0  0  0  0
  123.4240  134.4230   61.7550 C   0  0  0  0  0  0  0  0  0  0  0  0
  124.1080  133.3530   62.3280 C   0  0  0  0  0  0  0  0  0  0  0  0
  125.4720  133.1460   62.0710 C   0  0  0  0  0  0  0  0  0  0  0  0
  126.1360  131.9780   62.7420 C   0  0  0  0  0  0  0  0  0  0  0  0
  126.3750  131.9500   64.0500 N   0  0  0  0  0  0  0  0  0  0  0  0
  126.9360  130.7800   64.1980 C   0  0  0  0  0  0  0  0  0  0  0  0
  127.5840  129.8770   65.5160 S   0  0  0  0  0  0  0  0  0  0  0  0
  127.9840  128.5400   64.3730 C   0  0  0  0  0  0  0  0  0  0  0  0
  128.5790  127.3600   64.6560 C   0  0  0  0  0  0  0  0  0  0  0  0
  129.0360  126.8730   65.9480 C   0  0  0  0  0  0  0  0  0  0  0  0
  128.7420  127.3760   67.2060 C   0  0  0  0  0  0  0  0  0  0  0  0
  129.3580  126.5760   68.1350 N   0  0  0  0  0  0  0  0  0  0  0  0
  129.3360  126.6950   69.5480 C   0  0  0  0  0  0  0  0  0  0  0  0
  128.5280  125.8550   70.3280 C   0  0  0  0  0  0  0  0  0  0  0  0
  128.5130  125.9860   71.7140 C   0  0  0  0  0  0  0  0  0  0  0  0
  129.3080  126.9520   72.3250 C   0  0  0  0  0  0  0  0  0  0  0  0
  130.1180  127.7910   71.5620 C   0  0  0  0  0  0  0  0  0  0  0  0
  130.1320  127.6650   70.1760 C   0  0  0  0  0  0  0  0  0  0  0  0
  130.0060  125.5710   67.5260 N   0  0  0  0  0  0  0  0  0  0  0  0
  129.8290  125.7380   66.2310 C   0  0  0  0  0  0  0  0  0  0  0  0
  130.4440  124.7730   65.2640 C   0  0  0  0  0  0  0  0  0  0  0  0
  129.7820  123.5810   64.9310 C   0  0  0  0  0  0  0  0  0  0  0  0
  130.3490  122.6750   64.0340 C   0  0  0  0  0  0  0  0  0  0  0  0
  131.5880  122.9540   63.4610 C   0  0  0  0  0  0  0  0  0  0  0  0
  132.2510  124.1510   63.7710 C   0  0  0  0  0  0  0  0  0  0  0  0
  131.6860  125.0520   64.6720 C   0  0  0  0  0  0  0  0  0  0  0  0
  133.5000  124.4490   63.2620 O   0  0  0  0  0  0  0  0  0  0  0  0
  133.8510  123.6970   62.0960 C   0  0  0  0  0  0  0  0  0  0  0  0
  133.4900  122.2030   62.2840 C   0  0  0  0  0  0  0  0  0  0  0  0
  132.0900  122.0540   62.5430 O   0  0  0  0  0  0  0  0  0  0  0  0
  127.6010  128.8510   62.9990 C   0  0  0  0  0  0  0  0  0  0  0  0
  127.7340  128.1690   61.9820 O   0  0  0  0  0  0  0  0  0  0  0  0
  127.0230  130.1300   63.0230 N   0  0  0  0  0  0  0  0  0  0  0  0
  126.5000  130.8990   62.0650 N   0  0  0  0  0  0  0  0  0  0  0  0
  1  2  1  0
  2  3  2  0
  3  4  1  0
  4  5  2  0
  5  6  1  0
  6  7  2  0
  7  8  1  0
  8  9  1  0
  9 10  2  0
 10 11  1  0
 11 12  1  0
 12 13  2  0
 13 14  1  0
 14 15  2  0
 15 16  1  0
 16 17  1  0
 17 18  2  0
 18 19  1  0
 19 20  2  0
 20 21  1  0
 21 22  2  0
 16 23  1  0
 23 24  2  0
 24 25  1  0
 25 26  2  0
 26 27  1  0
 27 28  2  0
 28 29  1  0
 29 30  2  0
 29 31  1  0
 31 32  1  0
 32 33  1  0
 33 34  1  0
 12 35  1  0
 35 36  2  0
 35 37  1  0
 37 38  1  0
  7  2  1  0
 38  8  2  0
 37 10  1  0
 24 14  1  0
 30 25  1  0
 22 17  1  0
 34 28  1  0
M  END
>  <Binding energies>  (48) 
[-10.52]

>  <Ligand effiencies>  (48) 
[-0.2768421052631579]

>  <Interactions>  (48) 
["V-B:GLU:543:CG:9876, V-B:HIS:456:CE1:9038, V-B:GLU:543:CD:9877, V-A:GLU:543:CD:4905, V-B:GLU:543:CB:9875, V-A:GLU:543:CG:4904, V-B:GLU:543:C:9871, H-B:TYR:484:OH:9316, V-B:GLY:454:CA:9017, V-A:HIS:456:CE1:4066, V-A:TYR:539:CD2:4871, V-B:LEU:475:CD2:9227, V-A:ALA:541:CB:4889, V-B:TRP:381:CH2:8340, V-B:ALA:541:CB:9861, V-A:LEU:475:CD1:4254, V-A:GLY:454:CA:4045, V-B:ILE:369:CD1:8207, V-A:TYR:484:CZ:4343, V-A:TYR:484:CE1:4341, V-B:LYS:547:CE:9919, H-A:GLY:454:N:4046, V-B:TRP:381:CZ2:8338, V-B:ILE:369:CG2:8205, H-A:TYR:484:OH:4344, V-A:GLY:453:C:4038, V-A:HIS:456:CD2:4064, V-B:ILE:369:CG1:8206, V-B:SER:385:C:8373"]

$$$$
RR2_Rahimova_2017
     RDKit          3D

 46 50  0  0  0  0  0  0  0  0999 V2000
  124.2660  129.5480   65.6530 C   0  0  0  0  0  0  0  0  0  0  0  0
  123.7740  129.9240   64.3710 O   0  0  0  0  0  0  0  0  0  0  0  0
  124.6250  130.5500   63.4800 C   0  0  0  0  0  0  0  0  0  0  0  0
  126.0130  130.3550   63.4400 C   0  0  0  0  0  0  0  0  0  0  0  0
  126.7920  131.0340   62.5070 C   0  0  0  0  0  0  0  0  0  0  0  0
  126.2050  131.9230   61.5960 C   0  0  0  0  0  0  0  0  0  0  0  0
  127.0770  132.6560   60.5940 C   0  0  0  0  0  0  0  0  0  0  0  0
  127.3410  133.8520   60.7560 O   0  0  0  0  0  0  0  0  0  0  0  0
  127.5110  131.9230   59.5430 N   0  0  0  0  0  0  0  0  0  0  0  0
  128.2360  132.5680   58.5470 N   0  0  0  0  0  0  0  0  0  0  0  0
  128.0580  132.1730   57.2700 C   0  0  0  0  0  0  0  0  0  0  0  0
  127.4370  131.1640   56.9240 O   0  0  0  0  0  0  0  0  0  0  0  0
  128.6720  133.0890   56.2030 C   0  0  0  0  0  0  0  0  0  0  0  0
  130.1390  132.4060   55.3470 S   0  0  0  0  0  0  0  0  0  0  0  0
  129.7150  130.6910   55.2930 C   0  0  0  0  0  0  0  0  0  0  0  0
  129.0070  130.1610   54.3280 N   0  0  0  0  0  0  0  0  0  0  0  0
  128.8060  128.8240   54.6440 N   0  0  0  0  0  0  0  0  0  0  0  0
  129.4260  128.5890   55.7760 C   0  0  0  0  0  0  0  0  0  0  0  0
  129.4520  127.2490   56.4360 C   0  0  0  0  0  0  0  0  0  0  0  0
  128.5300  126.9520   57.4420 C   0  0  0  0  0  0  0  0  0  0  0  0
  128.5510  125.7090   58.0680 C   0  0  0  0  0  0  0  0  0  0  0  0
  129.4860  124.7430   57.6790 C   0  0  0  0  0  0  0  0  0  0  0  0
  129.5610  123.4780   58.2820 N   0  0  0  0  0  0  0  0  0  0  0  0
  128.2620  122.2640   58.2520 S   0  0  0  0  0  0  0  0  0  0  0  0
  128.4720  121.4190   59.4330 O   0  0  0  0  0  0  0  0  0  0  0  0
  128.2160  121.6790   56.9070 O   0  0  0  0  0  0  0  0  0  0  0  0
  126.7540  123.1860   58.5390 C   0  0  0  0  0  0  0  0  0  0  0  0
  126.3590  123.5200   59.8370 C   0  0  0  0  0  0  0  0  0  0  0  0
  125.1750  124.2230   60.0390 C   0  0  0  0  0  0  0  0  0  0  0  0
  124.3890  124.5970   58.9460 C   0  0  0  0  0  0  0  0  0  0  0  0
  123.0910  125.3510   59.1700 C   0  0  0  0  0  0  0  0  0  0  0  0
  124.7840  124.2580   57.6500 C   0  0  0  0  0  0  0  0  0  0  0  0
  125.9670  123.5540   57.4460 C   0  0  0  0  0  0  0  0  0  0  0  0
  130.4050  125.0390   56.6720 C   0  0  0  0  0  0  0  0  0  0  0  0
  130.3880  126.2850   56.0510 C   0  0  0  0  0  0  0  0  0  0  0  0
  130.0270  129.7440   56.2510 N   0  0  0  0  0  0  0  0  0  0  0  0
  130.7480  129.9280   57.4490 C   0  0  0  0  0  0  0  0  0  0  0  0
  132.0880  130.3150   57.4030 C   0  0  0  0  0  0  0  0  0  0  0  0
  132.7920  130.4990   58.5900 C   0  0  0  0  0  0  0  0  0  0  0  0
  132.1710  130.2990   59.8230 C   0  0  0  0  0  0  0  0  0  0  0  0
  132.9520  130.5050   60.9440 O   0  0  0  0  0  0  0  0  0  0  0  0
  132.7300  131.6630   61.7430 C   0  0  0  0  0  0  0  0  0  0  0  0
  130.8230  129.9090   59.8600 C   0  0  0  0  0  0  0  0  0  0  0  0
  130.1130  129.7250   58.6770 C   0  0  0  0  0  0  0  0  0  0  0  0
  124.8150  132.1090   61.6380 C   0  0  0  0  0  0  0  0  0  0  0  0
  124.0380  131.4280   62.5710 C   0  0  0  0  0  0  0  0  0  0  0  0
  1  2  1  0
  2  3  1  0
  3  4  2  0
  4  5  1  0
  5  6  2  0
  6  7  1  0
  7  8  2  0
  7  9  1  0
  9 10  1  0
 10 11  1  0
 11 12  2  0
 11 13  1  0
 13 14  1  0
 14 15  1  0
 15 16  2  0
 16 17  1  0
 17 18  2  0
 18 19  1  0
 19 20  2  0
 20 21  1  0
 21 22  2  0
 22 23  1  0
 23 24  1  0
 24 25  2  0
 24 26  2  0
 24 27  1  0
 27 28  2  0
 28 29  1  0
 29 30  2  0
 30 31  1  0
 30 32  1  0
 32 33  2  0
 22 34  1  0
 34 35  2  0
 18 36  1  0
 36 37  1  0
 37 38  2  0
 38 39  1  0
 39 40  2  0
 40 41  1  0
 41 42  1  0
 40 43  1  0
 43 44  2  0
  6 45  1  0
 45 46  2  0
 46  3  1  0
 36 15  1  0
 44 37  1  0
 35 19  1  0
 33 27  1  0
M  END
>  <Binding energies>  (49) 
[-11.03]

>  <Ligand effiencies>  (49) 
[-0.2251020408163265]

>  <Interactions>  (49) 
["V-B:HIS:456:CE1:9038, V-B:ARG:545:CZ:9895, V-A:GLU:543:CD:4905, H-B:ARG:545:NE:9893, H-B:GLY:454:N:9018, V-B:GLY:454:CA:9017, V-B:ARG:545:CD:9892, V-B:ARG:545:CG:9891, V-A:TYR:539:CE2:4873, V-A:PRO:540:CA:4880, V-A:PRO:540:CB:4882, V-A:TYR:539:CD2:4871, V-A:TYR:539:CE1:4872, V-A:ILE:538:CD1:4862, V-A:TYR:539:CZ:4874, V-A:ASP:366:CG:3209, H-A:TYR:539:N:4867, V-A:ASN:362:CB:3172, V-A:TYR:539:C:4864, V-A:LEU:363:CA:3181, H-A:TYR:539:O:4865, V-A:TYR:539:CG:4869, V-A:TYR:539:CA:4866, V-A:TYR:539:CD1:4870, V-B:ASN:362:C:8140, V-B:TYR:539:CD1:9842, V-B:PRO:540:N:9853, V-B:LEU:363:CD1:8157, V-B:MET:535:CE:9804, H-B:TYR:539:N:9839, V-B:PRO:540:CB:9854, V-B:PRO:540:CA:9852, V-B:TYR:539:CE1:9844, V-B:TYR:539:CZ:9846, V-B:TYR:539:CE2:9845, V-B:LEU:363:CA:8153, V-B:TYR:539:C:9836, V-B:ASP:366:CB:8180, V-B:TYR:539:CD2:9843, H-A:TYR:531:OH:4792, H-B:TYR:539:OH:9847, H-A:ARG:545:NH2:4925, V-B:ILE:369:CD1:8207, V-B:ASP:366:CG:8181, H-B:ARG:545:NH1:9896, H-B:ARG:545:NH2:9897, V-B:TYR:539:CG:9841, V-A:TYR:539:CB:4868, V-A:ASN:362:CG:3173"]

$$$$
RR33_Rahimova_2017
     RDKit          3D

 18 19  0  0  0  0  0  0  0  0999 V2000
  134.9560  125.0500   66.2310 C   0  0  0  0  0  0  0  0  0  0  0  0
  133.6270  125.1310   65.4730 C   0  0  0  0  0  0  0  0  0  0  0  0
  133.8130  124.5970   64.1650 O   0  0  0  0  0  0  0  0  0  0  0  0
  132.7090  124.2350   63.4180 C   0  0  0  0  0  0  0  0  0  0  0  0
  132.4770  124.9690   62.2550 C   0  0  0  0  0  0  0  0  0  0  0  0
  131.3870  124.6800   61.4400 C   0  0  0  0  0  0  0  0  0  0  0  0
  130.5080  123.6460   61.7770 C   0  0  0  0  0  0  0  0  0  0  0  0
  129.3370  123.3360   60.9010 C   0  0  0  0  0  0  0  0  0  0  0  0
  128.0630  123.5170   61.1700 N   0  0  0  0  0  0  0  0  0  0  0  0
  127.4150  123.0970   60.0950 C   0  0  0  0  0  0  0  0  0  0  0  0
  125.9050  123.1600   60.0230 C   0  0  0  0  0  0  0  0  0  0  0  0
  125.3260  123.1560   61.3580 N   0  0  0  0  0  0  0  0  0  0  0  0
  124.0960  123.9290   61.3870 C   0  0  0  0  0  0  0  0  0  0  0  0
  128.3260  122.6480   59.1470 C   0  0  0  0  0  0  0  0  0  0  0  0
  128.2310  122.0700   57.7560 C   0  0  0  0  0  0  0  0  0  0  0  0
  129.5630  122.8030   59.6720 O   0  0  0  0  0  0  0  0  0  0  0  0
  130.7390  122.9040   62.9390 C   0  0  0  0  0  0  0  0  0  0  0  0
  131.8290  123.1940   63.7560 C   0  0  0  0  0  0  0  0  0  0  0  0
  1  2  1  0
  2  3  1  0
  3  4  1  0
  4  5  2  0
  5  6  1  0
  6  7  2  0
  7  8  1  0
  8  9  2  0
  9 10  1  0
 10 11  1  0
 11 12  1  0
 12 13  1  0
 10 14  2  0
 14 15  1  0
 14 16  1  0
  7 17  1  0
 17 18  2  0
 18  4  1  0
 16  8  1  0
M  END
>  <Binding energies>  (50) 
[-5.91]

>  <Ligand effiencies>  (50) 
[-0.31105263157894736]

>  <Interactions>  (50) 
["V-B:GLU:543:CD:9877, H-B:GLU:543:OE2:9879, V-A:HIS:456:CE1:4066, V-A:ASP:366:CG:3209, V-B:ASN:362:C:8140, V-B:TYR:539:CD1:9842, V-B:PRO:540:C:9850, V-B:PRO:540:N:9853, H-B:ALA:541:N:9860, V-B:ASN:362:CB:8144, V-B:PRO:540:CB:9854, V-B:PRO:540:CA:9852, V-B:TYR:539:CE1:9844, V-B:TYR:539:CZ:9846, V-B:TYR:539:CE2:9845, V-B:TYR:539:C:9836, V-A:LEU:475:CD1:4254, V-B:TYR:539:CD2:9843, H-B:TYR:539:OH:9847, V-A:GLY:454:CA:4045, V-A:ARG:545:CG:4919, H-A:GLY:454:N:4046, V-A:ARG:545:CZ:4923, V-A:ARG:545:CD:4920, V-A:GLY:454:C:4043, V-B:TYR:539:CG:9841, V-A:GLY:453:C:4038, V-A:GLY:453:CA:4040, V-A:ILE:455:C:4048"]

$$$$
RR3_Rahimova_2017
     RDKit          3D

 38 44  0  0  0  0  0  0  0  0999 V2000
  123.9850  132.7370   62.8420 C   0  0  0  0  0  0  0  0  0  0  0  0
  123.7500  131.4370   62.4070 C   0  0  0  0  0  0  0  0  0  0  0  0
  124.6540  130.4280   62.7260 C   0  0  0  0  0  0  0  0  0  0  0  0
  125.8020  130.7040   63.4840 C   0  0  0  0  0  0  0  0  0  0  0  0
  126.7740  129.6180   63.8280 C   0  0  0  0  0  0  0  0  0  0  0  0
  127.1950  129.4210   65.1490 C   0  0  0  0  0  0  0  0  0  0  0  0
  128.1010  128.4130   65.4680 C   0  0  0  0  0  0  0  0  0  0  0  0
  128.6130  127.5820   64.4680 C   0  0  0  0  0  0  0  0  0  0  0  0
  129.5920  126.5000   64.8030 C   0  0  0  0  0  0  0  0  0  0  0  0
  130.1570  125.7920   63.8320 N   0  0  0  0  0  0  0  0  0  0  0  0
  130.9900  124.9610   64.4100 C   0  0  0  0  0  0  0  0  0  0  0  0
  131.8290  123.9880   63.7140 C   0  0  0  0  0  0  0  0  0  0  0  0
  132.3750  122.8440   64.2710 C   0  0  0  0  0  0  0  0  0  0  0  0
  133.0990  122.1600   63.3300 N   0  0  0  0  0  0  0  0  0  0  0  0
  133.0560  122.8300   62.1270 C   0  0  0  0  0  0  0  0  0  0  0  0
  133.6350  122.5250   60.8900 C   0  0  0  0  0  0  0  0  0  0  0  0
  133.4030  123.4180   59.8450 C   0  0  0  0  0  0  0  0  0  0  0  0
  132.6330  124.5630   60.0160 C   0  0  0  0  0  0  0  0  0  0  0  0
  132.0550  124.8670   61.2470 C   0  0  0  0  0  0  0  0  0  0  0  0
  132.2580  123.9990   62.3350 C   0  0  0  0  0  0  0  0  0  0  0  0
  130.9700  125.1150   65.7690 N   0  0  0  0  0  0  0  0  0  0  0  0
  130.0550  126.0920   66.0650 C   0  0  0  0  0  0  0  0  0  0  0  0
  129.7190  126.4920   67.4650 C   0  0  0  0  0  0  0  0  0  0  0  0
  128.7330  125.8030   68.1720 C   0  0  0  0  0  0  0  0  0  0  0  0
  128.4080  126.1800   69.4710 C   0  0  0  0  0  0  0  0  0  0  0  0
  129.0640  127.2500   70.0960 C   0  0  0  0  0  0  0  0  0  0  0  0
  128.6990  127.6650   71.4860 C   0  0  0  0  0  0  0  0  0  0  0  0
  129.3310  128.7570   72.1010 C   0  0  0  0  0  0  0  0  0  0  0  0
  128.9880  129.1460   73.3940 C   0  0  0  0  0  0  0  0  0  0  0  0
  128.0060  128.4460   74.0870 C   0  0  0  0  0  0  0  0  0  0  0  0
  127.3650  127.3610   73.4960 C   0  0  0  0  0  0  0  0  0  0  0  0
  127.7120  126.9740   72.2050 C   0  0  0  0  0  0  0  0  0  0  0  0
  130.0650  127.9230   69.3810 C   0  0  0  0  0  0  0  0  0  0  0  0
  130.3920  127.5480   68.0810 C   0  0  0  0  0  0  0  0  0  0  0  0
  128.1890  127.7630   63.1500 C   0  0  0  0  0  0  0  0  0  0  0  0
  127.2840  128.7720   62.8340 C   0  0  0  0  0  0  0  0  0  0  0  0
  126.0190  132.0220   63.9110 C   0  0  0  0  0  0  0  0  0  0  0  0
  125.1170  133.0340   63.5940 C   0  0  0  0  0  0  0  0  0  0  0  0
  1  2  2  0
  2  3  1  0
  3  4  2  0
  4  5  1  0
  5  6  2  0
  6  7  1  0
  7  8  2  0
  8  9  1  0
  9 10  1  0
 10 11  2  0
 11 12  1  0
 12 13  2  0
 13 14  1  0
 14 15  1  0
 15 16  2  0
 16 17  1  0
 17 18  2  0
 18 19  1  0
 19 20  2  0
 11 21  1  0
 21 22  1  0
 22 23  1  0
 23 24  2  0
 24 25  1  0
 25 26  2  0
 26 27  1  0
 27 28  2  0
 28 29  1  0
 29 30  2  0
 30 31  1  0
 31 32  2  0
 26 33  1  0
 33 34  2  0
  8 35  1  0
 35 36  2  0
  4 37  1  0
 37 38  2  0
 38  1  1  0
 36  5  1  0
 22  9  2  0
 34 23  1  0
 20 12  1  0
 32 27  1  0
 20 15  1  0
M  END
>  <Binding energies>  (51) 
[-10.23]

>  <Ligand effiencies>  (51) 
[-0.25575000000000003]

>  <Interactions>  (51) 
["V-B:HIS:456:CE1:9038, V-B:GLU:543:CD:9877, V-A:GLU:543:CD:4905, V-B:GLU:543:CB:9875, V-B:GLU:543:C:9871, V-A:GLU:543:CB:4903, V-B:GLY:454:CA:9017, V-B:GLU:543:CA:9873, V-A:HIS:456:CE1:4066, V-A:ASP:366:CG:3209, V-B:LEU:475:CD2:9227, V-B:TYR:539:CZ:9846, V-B:TYR:539:CE2:9845, V-A:LEU:475:CD1:4254, V-A:ASP:366:CB:3208, V-A:GLY:454:CA:4045, V-B:ILE:369:CD1:8207, V-B:ASP:366:CG:8181, V-A:TYR:484:CZ:4343, V-A:GLU:543:C:4899, V-B:LYS:547:CE:9919, V-B:HIS:456:CD2:9036, V-A:LYS:547:CE:4947, V-B:LYS:547:CD:9918, H-A:TYR:484:OH:4344, V-A:ILE:369:CG2:3233, V-A:ILE:369:CG1:3234, V-A:ILE:369:CB:3232, H-A:HIS:456:NE2:4067, V-A:LEU:475:CG:4253"]

$$$$
RR4_Rahimova_2017
     RDKit          3D

 40 44  0  0  0  0  0  0  0  0999 V2000
  128.6060  127.4450   73.9490 C   0  0  0  0  0  0  0  0  0  0  0  0
  129.7400  127.1690   73.1350 O   0  0  0  0  0  0  0  0  0  0  0  0
  129.6150  127.2330   71.7610 C   0  0  0  0  0  0  0  0  0  0  0  0
  128.5310  126.5610   71.2000 C   0  0  0  0  0  0  0  0  0  0  0  0
  128.3240  126.5710   69.8240 C   0  0  0  0  0  0  0  0  0  0  0  0
  129.2000  127.2520   68.9650 C   0  0  0  0  0  0  0  0  0  0  0  0
  128.9750  127.2600   67.4800 C   0  0  0  0  0  0  0  0  0  0  0  0
  128.0670  128.1220   66.8560 C   0  0  0  0  0  0  0  0  0  0  0  0
  127.8960  128.0940   65.4660 C   0  0  0  0  0  0  0  0  0  0  0  0
  126.9290  129.0640   64.8680 C   0  0  0  0  0  0  0  0  0  0  0  0
  125.5530  128.8410   64.9760 C   0  0  0  0  0  0  0  0  0  0  0  0
  124.6450  129.7450   64.4310 C   0  0  0  0  0  0  0  0  0  0  0  0
  125.0940  130.8910   63.7740 C   0  0  0  0  0  0  0  0  0  0  0  0
  124.1220  131.7310   63.2670 O   0  0  0  0  0  0  0  0  0  0  0  0
  123.7310  131.5970   61.9040 C   0  0  0  0  0  0  0  0  0  0  0  0
  126.4740  131.1210   63.6680 C   0  0  0  0  0  0  0  0  0  0  0  0
  127.3800  130.2150   64.2140 C   0  0  0  0  0  0  0  0  0  0  0  0
  128.6410  127.1540   64.7130 C   0  0  0  0  0  0  0  0  0  0  0  0
  128.5000  127.0830   63.2560 C   0  0  0  0  0  0  0  0  0  0  0  0
  128.3900  127.0260   62.1050 N   0  0  0  0  0  0  0  0  0  0  0  0
  129.5180  126.2930   65.4120 C   0  0  0  0  0  0  0  0  0  0  0  0
  130.5210  125.0460   64.6320 S   0  0  0  0  0  0  0  0  0  0  0  0
  129.4030  123.7550   63.9890 C   0  0  0  0  0  0  0  0  0  0  0  0
  129.4580  123.5650   62.4670 C   0  0  0  0  0  0  0  0  0  0  0  0
  130.5420  123.4530   61.8890 O   0  0  0  0  0  0  0  0  0  0  0  0
  128.2520  123.5500   61.8540 N   0  0  0  0  0  0  0  0  0  0  0  0
  127.9700  123.3940   60.4950 C   0  0  0  0  0  0  0  0  0  0  0  0
  129.2070  123.3660   59.2670 S   0  0  0  0  0  0  0  0  0  0  0  0
  128.0300  123.1600   58.0070 C   0  0  0  0  0  0  0  0  0  0  0  0
  126.7240  123.1190   58.5210 C   0  0  0  0  0  0  0  0  0  0  0  0
  126.6940  123.2360   59.9320 C   0  0  0  0  0  0  0  0  0  0  0  0
  125.4620  123.2030   60.7150 C   0  0  0  0  0  0  0  0  0  0  0  0
  124.4860  123.1780   61.3350 N   0  0  0  0  0  0  0  0  0  0  0  0
  125.5090  122.9050   57.6110 C   0  0  0  0  0  0  0  0  0  0  0  0
  125.9490  122.3650   56.2320 C   0  0  0  0  0  0  0  0  0  0  0  0
  127.1530  123.1360   55.6630 C   0  0  0  0  0  0  0  0  0  0  0  0
  128.4110  122.9770   56.5430 C   0  0  0  0  0  0  0  0  0  0  0  0
  129.6880  126.3630   66.7530 N   0  0  0  0  0  0  0  0  0  0  0  0
  130.2870  127.9290   69.5400 C   0  0  0  0  0  0  0  0  0  0  0  0
  130.4970  127.9210   70.9160 C   0  0  0  0  0  0  0  0  0  0  0  0
  1  2  1  0
  2  3  1  0
  3  4  2  0
  4  5  1  0
  5  6  2  0
  6  7  1  0
  7  8  2  0
  8  9  1  0
  9 10  1  0
 10 11  2  0
 11 12  1  0
 12 13  2  0
 13 14  1  0
 14 15  1  0
 13 16  1  0
 16 17  2  0
  9 18  2  0
 18 19  1  0
 19 20  3  0
 18 21  1  0
 21 22  1  0
 22 23  1  0
 23 24  1  0
 24 25  2  0
 24 26  1  0
 26 27  1  0
 27 28  1  0
 28 29  1  0
 29 30  2  0
 30 31  1  0
 31 32  1  0
 32 33  3  0
 30 34  1  0
 34 35  1  0
 35 36  1  0
 36 37  1  0
 21 38  2  0
  6 39  1  0
 39 40  2  0
 40  3  1  0
 38  7  1  0
 17 10  1  0
 31 27  2  0
 37 29  1  0
M  END
>  <Binding energies>  (52) 
[-12.37]

>  <Ligand effiencies>  (52) 
[-0.3017073170731707]

>  <Interactions>  (52) 
["V-B:GLU:543:CG:9876, V-B:HIS:456:CE1:9038, V-B:ARG:545:CZ:9895, V-B:GLU:543:CD:9877, V-A:GLU:543:CD:4905, V-A:GLU:543:CG:4904, H-B:GLU:543:OE2:9879, H-B:GLY:454:N:9018, V-A:HIS:456:CE1:4066, V-B:TYR:539:CD1:9842, V-B:PRO:540:C:9850, V-B:ILE:538:CB:9831, V-B:PRO:540:N:9853, H-B:ALA:541:N:9860, V-B:LEU:363:CD1:8157, V-B:MET:535:CE:9804, V-B:PRO:540:CD:9856, V-B:PRO:540:CB:9854, V-B:ILE:538:CG2:9832, V-B:PRO:540:CA:9852, V-B:TYR:539:CE1:9844, V-B:TYR:539:CZ:9846, V-B:TYR:539:CE2:9845, V-B:ALA:541:CB:9861, V-B:ILE:369:CD1:8207, V-B:ASP:366:CG:8181, V-A:GLU:543:C:4899, V-B:LYS:547:CE:9919, V-A:LYS:547:CE:4947, H-A:LYS:547:NZ:4948, V-A:HIS:456:CD2:4064, V-A:GLY:544:C:4909"]

$$$$
RR6_Rahimova_2017
     RDKit          3D

 38 41  0  0  0  0  0  0  0  0999 V2000
  128.1790  122.7850   54.7480 C   0  0  0  0  0  0  0  0  0  0  0  0
  127.8260  121.8940   55.7970 O   0  0  0  0  0  0  0  0  0  0  0  0
  126.7140  122.1040   56.5470 C   0  0  0  0  0  0  0  0  0  0  0  0
  125.5660  121.9630   56.1150 O   0  0  0  0  0  0  0  0  0  0  0  0
  127.0190  122.5250   57.9560 C   0  0  0  0  0  0  0  0  0  0  0  0
  126.1490  123.3410   58.6930 C   0  0  0  0  0  0  0  0  0  0  0  0
  126.4650  123.7210   59.9960 C   0  0  0  0  0  0  0  0  0  0  0  0
  127.6630  123.2900   60.5840 C   0  0  0  0  0  0  0  0  0  0  0  0
  128.0920  123.6360   61.8790 N   0  0  0  0  0  0  0  0  0  0  0  0
  129.3200  123.5250   62.4320 C   0  0  0  0  0  0  0  0  0  0  0  0
  130.3220  123.0920   61.8640 O   0  0  0  0  0  0  0  0  0  0  0  0
  129.4190  123.9260   63.9080 C   0  0  0  0  0  0  0  0  0  0  0  0
  130.4220  125.4220   64.1960 S   0  0  0  0  0  0  0  0  0  0  0  0
  129.3960  126.5620   65.1010 C   0  0  0  0  0  0  0  0  0  0  0  0
  129.4510  126.4140   66.4460 N   0  0  0  0  0  0  0  0  0  0  0  0
  128.7340  127.2450   67.2440 C   0  0  0  0  0  0  0  0  0  0  0  0
  128.8970  127.0540   68.7240 C   0  0  0  0  0  0  0  0  0  0  0  0
  128.0040  126.2520   69.4520 C   0  0  0  0  0  0  0  0  0  0  0  0
  128.1480  126.0860   70.8260 C   0  0  0  0  0  0  0  0  0  0  0  0
  129.1940  126.7160   71.5000 C   0  0  0  0  0  0  0  0  0  0  0  0
  129.3410  126.5390   73.0000 C   0  0  0  0  0  0  0  0  0  0  0  0
  130.0920  127.5140   70.7960 C   0  0  0  0  0  0  0  0  0  0  0  0
  129.9440  127.6770   69.4220 C   0  0  0  0  0  0  0  0  0  0  0  0
  127.9280  128.2470   66.6930 C   0  0  0  0  0  0  0  0  0  0  0  0
  127.8520  128.4170   65.3040 C   0  0  0  0  0  0  0  0  0  0  0  0
  126.9870  129.5180   64.7840 C   0  0  0  0  0  0  0  0  0  0  0  0
  127.4430  130.8390   64.8050 C   0  0  0  0  0  0  0  0  0  0  0  0
  126.6490  131.8700   64.3080 C   0  0  0  0  0  0  0  0  0  0  0  0
  125.3890  131.6000   63.7760 C   0  0  0  0  0  0  0  0  0  0  0  0
  124.6730  132.6830   63.3040 O   0  0  0  0  0  0  0  0  0  0  0  0
  123.7790  132.5010   62.2110 C   0  0  0  0  0  0  0  0  0  0  0  0
  124.9290  130.2740   63.7480 C   0  0  0  0  0  0  0  0  0  0  0  0
  125.7250  129.2460   64.2450 C   0  0  0  0  0  0  0  0  0  0  0  0
  128.6030  127.5460   64.4770 C   0  0  0  0  0  0  0  0  0  0  0  0
  128.5460  127.6500   63.0150 C   0  0  0  0  0  0  0  0  0  0  0  0
  128.5030  127.7340   61.8620 N   0  0  0  0  0  0  0  0  0  0  0  0
  128.5230  122.4630   59.8600 C   0  0  0  0  0  0  0  0  0  0  0  0
  128.2070  122.0870   58.5570 C   0  0  0  0  0  0  0  0  0  0  0  0
  1  2  1  0
  2  3  1  0
  3  4  2  0
  3  5  1  0
  5  6  2  0
  6  7  1  0
  7  8  2  0
  8  9  1  0
  9 10  1  0
 10 11  2  0
 10 12  1  0
 12 13  1  0
 13 14  1  0
 14 15  2  0
 15 16  1  0
 16 17  1  0
 17 18  2  0
 18 19  1  0
 19 20  2  0
 20 21  1  0
 20 22  1  0
 22 23  2  0
 16 24  2  0
 24 25  1  0
 25 26  1  0
 26 27  2  0
 27 28  1  0
 28 29  2  0
 29 30  1  0
 30 31  1  0
 29 32  1  0
 32 33  2  0
 25 34  2  0
 34 35  1  0
 35 36  3  0
  8 37  1  0
 37 38  2  0
 38  5  1  0
 34 14  1  0
 23 17  1  0
 33 26  1  0
M  END
>  <Binding energies>  (53) 
[-10.85]

>  <Ligand effiencies>  (53) 
[-0.2782051282051282]

>  <Interactions>  (53) 
["V-B:GLU:543:CG:9876, V-B:GLY:544:C:9881, V-B:HIS:456:CE1:9038, V-B:ARG:545:CZ:9895, V-B:GLU:543:CD:9877, V-A:GLU:543:CD:4905, V-B:GLU:543:CB:9875, V-A:GLU:543:CG:4904, V-B:GLU:543:C:9871, H-B:GLU:543:OE2:9879, H-B:GLY:454:N:9018, V-B:GLY:454:CA:9017, V-A:HIS:456:CE1:4066, V-B:TYR:539:CD1:9842, V-B:ILE:538:CB:9831, V-B:PRO:540:N:9853, V-B:MET:535:CE:9804, V-B:PRO:540:CD:9856, H-B:TYR:539:N:9839, V-B:PRO:540:CB:9854, V-B:ILE:538:CG2:9832, V-B:PRO:540:CA:9852, V-B:TYR:539:CE1:9844, V-B:TYR:539:CZ:9846, V-B:TYR:539:CE2:9845, V-B:TYR:539:C:9836, V-B:ALA:541:CB:9861, V-B:TYR:539:CD2:9843, V-B:ILE:369:CD1:8207, V-B:LYS:547:CE:9919, V-B:TYR:539:CG:9841, V-A:HIS:456:CD2:4064, V-B:ILE:538:CA:9829"]

$$$$
RR7_Rahimova_2017
     RDKit          3D

 47 53  0  0  0  0  0  0  0  0999 V2000
  124.0010  123.3280   61.1080 C   0  0  0  0  0  0  0  0  0  0  0  0
  125.3610  122.9950   61.3670 O   0  0  0  0  0  0  0  0  0  0  0  0
  126.3460  123.4880   60.5330 C   0  0  0  0  0  0  0  0  0  0  0  0
  127.2280  122.5550   59.9910 C   0  0  0  0  0  0  0  0  0  0  0  0
  128.2480  122.9570   59.1350 C   0  0  0  0  0  0  0  0  0  0  0  0
  128.4190  124.3100   58.8090 C   0  0  0  0  0  0  0  0  0  0  0  0
  129.5340  124.7860   57.8260 C   0  0  0  0  0  0  0  0  0  0  0  0
  130.7840  124.2960   58.3610 O   0  0  0  0  0  0  0  0  0  0  0  0
  130.9590  124.1730   59.7770 C   0  0  0  0  0  0  0  0  0  0  0  0
  132.4130  124.5200   60.1340 C   0  0  1  0  0  0  0  0  0  0  0  0
  132.3640  125.4270   61.2320 O   0  0  0  0  0  0  0  0  0  0  0  0
  133.0460  124.9340   62.3490 C   0  0  1  0  0  0  0  0  0  0  0  0
  132.3990  125.3820   63.5670 N   0  0  0  0  0  0  0  0  0  0  0  0
  132.8230  125.2050   64.8720 C   0  0  0  0  0  0  0  0  0  0  0  0
  132.0170  125.6740   65.7930 N   0  0  0  0  0  0  0  0  0  0  0  0
  130.9550  126.1610   65.0800 C   0  0  0  0  0  0  0  0  0  0  0  0
  129.7540  126.7790   65.4800 C   0  0  0  0  0  0  0  0  0  0  0  0
  129.5260  126.9850   66.8540 N   0  0  0  0  0  0  0  0  0  0  0  0
  129.3940  126.0690   67.8420 C   0  0  0  0  0  0  0  0  0  0  0  0
  129.4390  124.8490   67.6690 O   0  0  0  0  0  0  0  0  0  0  0  0
  129.1460  126.6310   69.2260 C   0  0  0  0  0  0  0  0  0  0  0  0
  128.0220  126.2100   69.9540 C   0  0  0  0  0  0  0  0  0  0  0  0
  127.7770  126.7090   71.2300 C   0  0  0  0  0  0  0  0  0  0  0  0
  128.6570  127.6300   71.7910 C   0  0  0  0  0  0  0  0  0  0  0  0
  129.7800  128.0560   71.0880 C   0  0  0  0  0  0  0  0  0  0  0  0
  130.0250  127.5580   69.8100 C   0  0  0  0  0  0  0  0  0  0  0  0
  128.8480  127.1550   64.5280 N   0  0  0  0  0  0  0  0  0  0  0  0
  129.1550  126.9100   63.2280 C   0  0  0  0  0  0  0  0  0  0  0  0
  130.2790  126.3270   62.7330 N   0  0  0  0  0  0  0  0  0  0  0  0
  131.1520  125.9750   63.6870 C   0  0  0  0  0  0  0  0  0  0  0  0
  133.0860  123.4220   62.1600 C   0  0  0  0  0  0  0  0  0  0  0  0
  133.2530  123.3420   60.6520 C   0  0  2  0  0  0  0  0  0  0  0  0
  134.6120  123.4340   60.2610 O   0  0  0  0  0  0  0  0  0  0  0  0
  129.3760  124.1700   56.4100 C   0  0  0  0  0  0  0  0  0  0  0  0
  128.2740  123.3520   56.1130 C   0  0  0  0  0  0  0  0  0  0  0  0
  128.1290  122.7830   54.8520 C   0  0  0  0  0  0  0  0  0  0  0  0
  129.0870  123.0260   53.8730 C   0  0  0  0  0  0  0  0  0  0  0  0
  130.1870  123.8330   54.1450 C   0  0  0  0  0  0  0  0  0  0  0  0
  130.3320  124.4010   55.4070 C   0  0  0  0  0  0  0  0  0  0  0  0
  129.6310  126.3220   57.6040 C   0  0  0  0  0  0  0  0  0  0  0  0
  128.6290  127.0020   56.8950 C   0  0  0  0  0  0  0  0  0  0  0  0
  128.7110  128.3750   56.6830 C   0  0  0  0  0  0  0  0  0  0  0  0
  129.8050  129.0830   57.1720 C   0  0  0  0  0  0  0  0  0  0  0  0
  130.8170  128.4270   57.8670 C   0  0  0  0  0  0  0  0  0  0  0  0
  130.7320  127.0540   58.0780 C   0  0  0  0  0  0  0  0  0  0  0  0
  127.5200  125.2440   59.3450 C   0  0  0  0  0  0  0  0  0  0  0  0
  126.4980  124.8420   60.2010 C   0  0  0  0  0  0  0  0  0  0  0  0
  1  2  1  0
  2  3  1  0
  3  4  2  0
  4  5  1  0
  5  6  2  0
  6  7  1  0
  7  8  1  0
  8  9  1  0
 10  9  1  1
 10 11  1  0
 11 12  1  0
 12 13  1  1
 13 14  1  0
 14 15  2  0
 15 16  1  0
 16 17  2  0
 17 18  1  0
 18 19  1  0
 19 20  2  0
 19 21  1  0
 21 22  2  0
 22 23  1  0
 23 24  2  0
 24 25  1  0
 25 26  2  0
 17 27  1  0
 27 28  2  0
 28 29  1  0
 29 30  2  0
 12 31  1  0
 31 32  1  0
 32 33  1  1
  7 34  1  0
 34 35  2  0
 35 36  1  0
 36 37  2  0
 37 38  1  0
 38 39  2  0
  7 40  1  0
 40 41  2  0
 41 42  1  0
 42 43  2  0
 43 44  1  0
 44 45  2  0
  6 46  1  0
 46 47  2  0
 47  3  1  0
 32 10  1  0
 39 34  1  0
 45 40  1  0
 30 13  1  0
 30 16  1  0
 26 21  1  0
M  END
>  <Binding energies>  (54) 
[-10.35]

>  <Ligand effiencies>  (54) 
[-0.21122448979591835]

>  <Interactions>  (54) 
["V-B:GLY:544:C:9881, V-B:HIS:456:CE1:9038, V-B:GLU:543:CD:9877, V-A:GLU:543:CD:4905, V-B:GLU:543:CB:9875, V-B:GLU:543:C:9871, V-A:HIS:456:CE1:4066, V-A:ASP:366:CG:3209, V-B:ASN:362:C:8140, V-B:TYR:539:CD1:9842, V-B:PRO:540:C:9850, V-B:ILE:538:CB:9831, V-B:PRO:540:N:9853, H-B:ALA:541:N:9860, V-B:MET:535:CE:9804, V-B:ASN:362:CB:8144, V-B:PRO:540:CB:9854, V-B:ILE:538:CG2:9832, V-B:PRO:540:CA:9852, V-B:TYR:539:CE1:9844, V-B:TYR:539:CZ:9846, V-B:TYR:539:CE2:9845, V-B:ALA:541:CB:9861, V-A:ASP:366:CB:3208, H-B:TYR:539:OH:9847, H-A:ARG:545:NH2:4925, V-B:HIS:456:CD2:9036, V-A:ARG:545:CZ:4923, H-A:TYR:484:OH:4344, H-A:GLU:543:OE1:4906, V-B:ILE:538:CA:9829, H-A:ASP:366:OD2:3211"]

$$$$
RR8_A_Rahimova_2017
     RDKit          3D

 42 46  0  0  0  0  0  0  0  0999 V2000
  129.6240  126.2790   63.8910 O   0  0  0  0  0  0  0  0  0  0  0  0
  129.2130  127.2390   63.2300 C   0  0  0  0  0  0  0  0  0  0  0  0
  129.8470  127.7470   62.1280 O   0  0  0  0  0  0  0  0  0  0  0  0
  130.0230  126.8920   61.0320 C   0  0  1  0  0  0  0  0  0  0  0  0
  129.7540  125.5620   61.3660 O   0  0  0  0  0  0  0  0  0  0  0  0
  129.0900  124.8740   60.3090 C   0  0  2  0  0  0  0  0  0  0  0  0
  129.9100  123.6230   59.9470 C   0  0  0  0  0  0  0  0  0  0  0  0
  129.0220  122.5250   59.7840 O   0  0  0  0  0  0  0  0  0  0  0  0
  127.6710  122.9030   59.5570 C   0  0  0  0  0  0  0  0  0  0  0  0
  127.3680  122.8650   58.0670 C   0  0  0  0  0  0  0  0  0  0  0  0
  128.4150  122.8890   57.1420 C   0  0  0  0  0  0  0  0  0  0  0  0
  128.1400  122.8470   55.7770 C   0  0  0  0  0  0  0  0  0  0  0  0
  126.8180  122.7790   55.3400 C   0  0  0  0  0  0  0  0  0  0  0  0
  125.7690  122.7490   56.2560 C   0  0  0  0  0  0  0  0  0  0  0  0
  126.0430  122.7890   57.6200 C   0  0  0  0  0  0  0  0  0  0  0  0
  128.9740  125.9300   59.2020 C   0  0  1  0  0  0  0  0  0  0  0  0
  127.7370  125.8690   58.4950 O   0  0  0  0  0  0  0  0  0  0  0  0
  126.6630  126.6060   59.0680 C   0  0  0  0  0  0  0  0  0  0  0  0
  125.4930  125.6760   59.3580 C   0  0  0  0  0  0  0  0  0  0  0  0
  125.4620  124.9520   60.5540 C   0  0  0  0  0  0  0  0  0  0  0  0
  124.4000  124.0930   60.8220 C   0  0  0  0  0  0  0  0  0  0  0  0
  123.3710  123.9560   59.8920 C   0  0  0  0  0  0  0  0  0  0  0  0
  123.3970  124.6680   58.6950 C   0  0  0  0  0  0  0  0  0  0  0  0
  124.4600  125.5260   58.4260 C   0  0  0  0  0  0  0  0  0  0  0  0
  128.9930  127.2410   59.9660 C   0  0  2  0  0  0  0  0  0  0  0  0
  129.3900  128.3130   59.1150 O   0  0  0  0  0  0  0  0  0  0  0  0
  129.5360  129.5810   59.7470 C   0  0  0  0  0  0  0  0  0  0  0  0
  130.9490  130.1040   59.5380 C   0  0  0  0  0  0  0  0  0  0  0  0
  131.6730  130.6250   60.6150 C   0  0  0  0  0  0  0  0  0  0  0  0
  132.9700  131.0940   60.4210 C   0  0  0  0  0  0  0  0  0  0  0  0
  133.5420  131.0370   59.1510 C   0  0  0  0  0  0  0  0  0  0  0  0
  132.8300  130.5140   58.0750 C   0  0  0  0  0  0  0  0  0  0  0  0
  131.5320  130.0440   58.2680 C   0  0  0  0  0  0  0  0  0  0  0  0
  127.9420  127.9700   63.5550 C   0  0  0  0  0  0  0  0  0  0  0  0
  127.6690  128.4450   64.8470 C   0  0  0  0  0  0  0  0  0  0  0  0
  126.4810  129.1180   65.1170 C   0  0  0  0  0  0  0  0  0  0  0  0
  125.5350  129.3320   64.1050 C   0  0  0  0  0  0  0  0  0  0  0  0
  124.2710  130.0510   64.3940 N   0  0  0  0  0  0  0  0  0  0  0  0
  123.7750  130.7470   63.5130 O   0  0  0  0  0  0  0  0  0  0  0  0
  123.7620  129.9240   65.5040 O   0  0  0  0  0  0  0  0  0  0  0  0
  125.8080  128.8550   62.8170 C   0  0  0  0  0  0  0  0  0  0  0  0
  126.9950  128.1830   62.5450 C   0  0  0  0  0  0  0  0  0  0  0  0
  1  2  2  0
  2  3  1  0
  4  3  1  1
  4  5  1  0
  5  6  1  0
  6  7  1  6
  7  8  1  0
  8  9  1  0
  9 10  1  0
 10 11  2  0
 11 12  1  0
 12 13  2  0
 13 14  1  0
 14 15  2  0
  6 16  1  0
 16 17  1  1
 17 18  1  0
 18 19  1  0
 19 20  2  0
 20 21  1  0
 21 22  2  0
 22 23  1  0
 23 24  2  0
 16 25  1  0
 25 26  1  6
 26 27  1  0
 27 28  1  0
 28 29  2  0
 29 30  1  0
 30 31  2  0
 31 32  1  0
 32 33  2  0
  2 34  1  0
 34 35  2  0
 35 36  1  0
 36 37  2  0
 37 38  1  0
 38 39  2  0
 38 40  1  0
 37 41  1  0
 41 42  2  0
 25  4  1  0
 33 28  1  0
 42 34  1  0
 15 10  1  0
 24 19  1  0
M  CHG  2  38   1  40  -1
M  END
>  <Binding energies>  (55) 
[-9.72]

>  <Ligand effiencies>  (55) 
[-0.23142857142857146]

>  <Interactions>  (55) 
["V-B:HIS:456:CE1:9038, V-B:ARG:545:CZ:9895, V-B:GLU:543:CD:9877, V-A:GLU:543:CD:4905, H-B:ARG:545:NE:9893, H-B:GLY:454:N:9018, H-B:TYR:484:OH:9316, V-A:PRO:540:CA:4880, V-A:ASN:362:C:3168, V-A:PRO:540:CB:4882, V-A:ASN:362:CB:3172, V-A:LEU:363:CA:3181, V-B:ASN:362:C:8140, V-B:TYR:539:CD1:9842, V-B:ILE:538:CB:9831, V-B:PRO:540:N:9853, V-B:LEU:363:CD1:8157, V-B:MET:535:CE:9804, V-B:PRO:540:CD:9856, V-B:ASN:362:CB:8144, V-B:PRO:540:CB:9854, V-B:ILE:538:CG2:9832, V-B:PRO:540:CA:9852, V-B:TYR:539:CE1:9844, V-B:TYR:539:CZ:9846, V-B:TYR:539:CE2:9845, V-B:LEU:363:CB:8155, V-B:LEU:363:CA:8153, V-B:ASP:366:CB:8180, V-B:ASP:366:CG:8181, V-A:LEU:363:CB:3183, V-B:ILE:538:CA:9829"]

$$$$
RR8_B_Rahimova_2017
     RDKit          3D

 42 46  0  0  0  0  0  0  0  0999 V2000
  130.0750  132.9050   55.4330 O   0  0  0  0  0  0  0  0  0  0  0  0
  129.6660  132.3100   56.4350 C   0  0  0  0  0  0  0  0  0  0  0  0
  128.3810  131.8720   56.6030 O   0  0  0  0  0  0  0  0  0  0  0  0
  127.7570  131.2160   55.5260 C   0  0  2  0  0  0  0  0  0  0  0  0
  126.3690  131.1410   55.6940 O   0  0  0  0  0  0  0  0  0  0  0  0
  125.9870  129.9350   56.3530 C   0  0  2  0  0  0  0  0  0  0  0  0
  125.2160  130.2750   57.6420 C   0  0  0  0  0  0  0  0  0  0  0  0
  125.6320  131.5510   58.1120 O   0  0  0  0  0  0  0  0  0  0  0  0
  126.3090  131.5360   59.3600 C   0  0  0  0  0  0  0  0  0  0  0  0
  126.3770  132.9530   59.9100 C   0  0  0  0  0  0  0  0  0  0  0  0
  127.5640  133.4200   60.4820 C   0  0  0  0  0  0  0  0  0  0  0  0
  127.6260  134.7070   61.0090 C   0  0  0  0  0  0  0  0  0  0  0  0
  126.4990  135.5260   60.9590 C   0  0  0  0  0  0  0  0  0  0  0  0
  125.3150  135.0710   60.3840 C   0  0  0  0  0  0  0  0  0  0  0  0
  125.2520  133.7820   59.8610 C   0  0  0  0  0  0  0  0  0  0  0  0
  127.3060  129.1780   56.5540 C   0  0  1  0  0  0  0  0  0  0  0  0
  127.0850  127.7720   56.4110 O   0  0  0  0  0  0  0  0  0  0  0  0
  126.9130  127.0150   57.6120 C   0  0  0  0  0  0  0  0  0  0  0  0
  126.8490  125.5140   57.3450 C   0  0  0  0  0  0  0  0  0  0  0  0
  125.6130  124.8870   57.1610 C   0  0  0  0  0  0  0  0  0  0  0  0
  125.5600  123.5240   56.8860 C   0  0  0  0  0  0  0  0  0  0  0  0
  126.7420  122.7910   56.7980 C   0  0  0  0  0  0  0  0  0  0  0  0
  127.9770  123.4080   56.9840 C   0  0  0  0  0  0  0  0  0  0  0  0
  128.0310  124.7740   57.2570 C   0  0  0  0  0  0  0  0  0  0  0  0
  128.2180  129.7600   55.4800 C   0  0  2  0  0  0  0  0  0  0  0  0
  129.5860  129.5780   55.8390 O   0  0  0  0  0  0  0  0  0  0  0  0
  129.8220  128.7250   56.9480 C   0  0  0  0  0  0  0  0  0  0  0  0
  130.5250  127.4760   56.4460 C   0  0  0  0  0  0  0  0  0  0  0  0
  130.1730  126.9130   55.2170 C   0  0  0  0  0  0  0  0  0  0  0  0
  130.8110  125.7570   54.7750 C   0  0  0  0  0  0  0  0  0  0  0  0
  131.7980  125.1680   55.5630 C   0  0  0  0  0  0  0  0  0  0  0  0
  132.1550  125.7260   56.7900 C   0  0  0  0  0  0  0  0  0  0  0  0
  131.5180  126.8810   57.2310 C   0  0  0  0  0  0  0  0  0  0  0  0
  130.5300  132.0190   57.6270 C   0  0  0  0  0  0  0  0  0  0  0  0
  131.8840  131.6750   57.4930 C   0  0  0  0  0  0  0  0  0  0  0  0
  132.6580  131.4030   58.6150 C   0  0  0  0  0  0  0  0  0  0  0  0
  132.1000  131.4560   59.8980 C   0  0  0  0  0  0  0  0  0  0  0  0
  132.9220  131.1390   61.0920 N   0  0  0  0  0  0  0  0  0  0  0  0
  133.8170  130.3060   60.9850 O   0  0  0  0  0  0  0  0  0  0  0  0
  132.6810  131.7250   62.1440 O   0  0  0  0  0  0  0  0  0  0  0  0
  130.7500  131.8050   60.0320 C   0  0  0  0  0  0  0  0  0  0  0  0
  129.9760  132.0860   58.9110 C   0  0  0  0  0  0  0  0  0  0  0  0
  1  2  2  0
  2  3  1  0
  4  3  1  1
  4  5  1  0
  5  6  1  0
  6  7  1  1
  7  8  1  0
  8  9  1  0
  9 10  1  0
 10 11  2  0
 11 12  1  0
 12 13  2  0
 13 14  1  0
 14 15  2  0
  6 16  1  0
 16 17  1  6
 17 18  1  0
 18 19  1  0
 19 20  2  0
 20 21  1  0
 21 22  2  0
 22 23  1  0
 23 24  2  0
 16 25  1  0
 25 26  1  1
 26 27  1  0
 27 28  1  0
 28 29  2  0
 29 30  1  0
 30 31  2  0
 31 32  1  0
 32 33  2  0
  2 34  1  0
 34 35  2  0
 35 36  1  0
 36 37  2  0
 37 38  1  0
 38 39  2  0
 38 40  1  0
 37 41  1  0
 41 42  2  0
 25  4  1  0
 33 28  1  0
 42 34  1  0
 15 10  1  0
 24 19  1  0
M  CHG  2  38   1  40  -1
M  END
>  <Binding energies>  (56) 
[-9.91]

>  <Ligand effiencies>  (56) 
[-0.23595238095238097]

>  <Interactions>  (56) 
["V-A:GLU:543:CD:4905, V-A:TYR:539:CE2:4873, V-A:PRO:540:CA:4880, V-A:ASN:362:C:3168, V-A:PRO:540:CB:4882, H-A:TYR:539:OH:4875, V-A:TYR:539:CD2:4871, V-A:TYR:539:CZ:4874, V-A:ASP:366:CG:3209, H-A:TYR:539:N:4867, V-A:ASN:362:CB:3172, V-A:TYR:539:C:4864, V-A:PRO:540:N:4881, H-A:ALA:541:N:4888, V-B:LEU:475:CD2:9227, V-A:ALA:541:CB:4889, V-B:TRP:381:CH2:8340, V-A:PRO:540:C:4878, V-B:PRO:540:N:9853, V-B:LEU:363:CD1:8157, V-B:MET:535:CE:9804, V-B:PRO:540:CA:9852, V-B:TYR:539:CE1:9844, V-B:TYR:531:CZ:9763, V-B:ASP:366:CB:8180, V-A:ASP:366:CB:3208, H-A:TYR:531:OH:4792, H-A:ARG:545:NH2:4925, H-B:TYR:531:OH:9764, V-B:TRP:381:CZ2:8338, V-B:ILE:369:CG2:8205, V-B:TYR:531:CE1:9761, H-A:LEU:363:N:3182, V-A:TYR:531:CE1:4789, V-A:MET:535:CE:4832, H-A:ASN:362:ND2:3175"]

$$$$
RR9_Rahimova_2017
     RDKit          3D

 36 40  0  0  0  0  0  0  0  0999 V2000
  129.7280  126.5590   72.5280 C   0  0  0  0  0  0  0  0  0  0  0  0
  129.0790  127.7800   71.8680 C   0  0  0  0  0  0  0  0  0  0  0  0
  129.9530  128.2700   70.8550 O   0  0  0  0  0  0  0  0  0  0  0  0
  129.9490  127.6730   69.6090 C   0  0  0  0  0  0  0  0  0  0  0  0
  129.0310  126.6430   69.4140 C   0  0  0  0  0  0  0  0  0  0  0  0
  128.9560  125.9820   68.1930 C   0  0  0  0  0  0  0  0  0  0  0  0
  129.8010  126.3320   67.1290 C   0  0  0  0  0  0  0  0  0  0  0  0
  129.7290  125.6190   65.8110 C   0  0  0  0  0  0  0  0  0  0  0  0
  129.3470  126.2830   64.6350 C   0  0  0  0  0  0  0  0  0  0  0  0
  129.2930  125.6140   63.3990 C   0  0  0  0  0  0  0  0  0  0  0  0
  128.9750  126.4040   62.1590 C   0  0  0  0  0  0  0  0  0  0  0  0
  129.8310  127.1220   61.6420 O   0  0  0  0  0  0  0  0  0  0  0  0
  127.7160  126.2820   61.6940 N   0  0  0  0  0  0  0  0  0  0  0  0
  127.1320  127.0460   60.5860 C   0  0  0  0  0  0  0  0  0  0  0  0
  126.7920  126.1690   59.3590 C   0  0  0  0  0  0  0  0  0  0  0  0
  125.5970  125.2410   59.5500 C   0  0  0  0  0  0  0  0  0  0  0  0
  125.5790  124.3280   60.6100 C   0  0  0  0  0  0  0  0  0  0  0  0
  124.4710  123.5070   60.8010 C   0  0  0  0  0  0  0  0  0  0  0  0
  123.3870  123.5970   59.9310 C   0  0  0  0  0  0  0  0  0  0  0  0
  123.4000  124.5010   58.8710 C   0  0  0  0  0  0  0  0  0  0  0  0
  124.5080  125.3240   58.6790 C   0  0  0  0  0  0  0  0  0  0  0  0
  129.6110  124.2330   63.4200 C   0  0  0  0  0  0  0  0  0  0  0  0
  129.6760  123.1190   62.5040 C   0  0  0  0  0  0  0  0  0  0  0  0
  129.3070  123.0570   61.0580 C   0  0  0  0  0  0  0  0  0  0  0  0
  129.9180  123.9140   60.1390 C   0  0  0  0  0  0  0  0  0  0  0  0
  129.5610  123.8660   58.7930 C   0  0  0  0  0  0  0  0  0  0  0  0
  128.5940  122.9560   58.3620 C   0  0  0  0  0  0  0  0  0  0  0  0
  128.1910  122.9160   56.8990 C   0  0  0  0  0  0  0  0  0  0  0  0
  127.9800  122.1000   59.2780 C   0  0  0  0  0  0  0  0  0  0  0  0
  128.3400  122.1480   60.6210 C   0  0  0  0  0  0  0  0  0  0  0  0
  130.1110  122.0420   63.1180 N   0  0  0  0  0  0  0  0  0  0  0  0
  130.2900  122.3480   64.4130 N   0  0  0  0  0  0  0  0  0  0  0  0
  129.9900  123.6660   64.6610 C   0  0  0  0  0  0  0  0  0  0  0  0
  130.0540  124.2960   65.8330 N   0  0  0  0  0  0  0  0  0  0  0  0
  130.7240  127.3680   67.3330 C   0  0  0  0  0  0  0  0  0  0  0  0
  130.7990  128.0330   68.5550 C   0  0  0  0  0  0  0  0  0  0  0  0
  1  2  1  0
  2  3  1  0
  3  4  1  0
  4  5  2  0
  5  6  1  0
  6  7  2  0
  7  8  1  0
  8  9  2  0
  9 10  1  0
 10 11  1  0
 11 12  2  0
 11 13  1  0
 13 14  1  0
 14 15  1  0
 15 16  1  0
 16 17  2  0
 17 18  1  0
 18 19  2  0
 19 20  1  0
 20 21  2  0
 10 22  2  0
 22 23  1  0
 23 24  1  0
 24 25  2  0
 25 26  1  0
 26 27  2  0
 27 28  1  0
 27 29  1  0
 29 30  2  0
 23 31  2  0
 31 32  1  0
 32 33  1  0
 33 34  2  0
  7 35  1  0
 35 36  2  0
 36  4  1  0
 34  8  1  0
 21 16  1  0
 33 22  1  0
 30 24  1  0
M  END
>  <Binding energies>  (57) 
[-9.08]

>  <Ligand effiencies>  (57) 
[-0.23894736842105263]

>  <Interactions>  (57) 
["V-B:GLU:543:CG:9876, V-B:GLU:543:CD:9877, H-B:GLU:543:OE1:9878, V-B:GLU:543:CB:9875, H-B:GLU:543:OE2:9879, V-A:GLU:543:CB:4903, V-A:HIS:456:CE1:4066, V-B:ASN:362:C:8140, V-B:TYR:539:CD1:9842, V-B:PRO:540:N:9853, V-B:LEU:363:CD1:8157, V-B:ASN:362:CB:8144, V-B:PRO:540:CB:9854, V-B:PRO:540:CA:9852, V-B:TYR:539:CE1:9844, V-B:TYR:539:CZ:9846, V-B:TYR:539:CE2:9845, V-B:LEU:363:CB:8155, V-B:LEU:363:CA:8153, V-B:TYR:539:C:9836, V-B:ASP:366:CB:8180, V-B:ALA:541:CB:9861, V-A:LEU:475:CD1:4254, V-B:TYR:539:CD2:9843, V-B:ASP:366:CG:8181, V-A:LEU:475:CD2:4255, V-A:TYR:484:CZ:4343, V-A:TYR:484:CE1:4341, V-A:GLU:543:C:4899, V-B:HIS:456:CD2:9036, H-A:TYR:484:OH:4344, V-A:HIS:456:CD2:4064"]

$$$$
