1a_Grossjean_2025
     RDKit          3D

 26 27  0  0  0  0  0  0  0  0999 V2000
  131.8400  132.1890   56.0910 C   0  0  0  0  0  0  0  0  0  0  0  0
  130.4170  132.4910   56.5700 C   0  0  0  0  0  0  0  0  0  0  0  0
  129.7130  133.1900   55.5510 O   0  0  0  0  0  0  0  0  0  0  0  0
  128.8710  132.5380   54.7070 C   0  0  0  0  0  0  0  0  0  0  0  0
  128.5930  132.9450   53.5750 O   0  0  0  0  0  0  0  0  0  0  0  0
  128.2980  131.2800   55.2950 C   0  0  0  0  0  0  0  0  0  0  0  0
  128.8910  130.0490   54.9850 C   0  0  0  0  0  0  0  0  0  0  0  0
  128.3810  128.8660   55.5110 C   0  0  0  0  0  0  0  0  0  0  0  0
  127.2690  128.8870   56.3530 C   0  0  0  0  0  0  0  0  0  0  0  0
  126.8360  127.6310   56.8240 N   0  0  0  0  0  0  0  0  0  0  0  0
  126.9090  127.0970   58.0610 C   0  0  0  0  0  0  0  0  0  0  0  0
  127.3920  127.6460   59.0510 O   0  0  0  0  0  0  0  0  0  0  0  0
  126.3300  125.6870   58.2010 C   0  0  0  0  0  0  0  0  0  0  0  0
  127.6260  124.4340   58.4340 S   0  0  0  0  0  0  0  0  0  0  0  0
  128.7460  124.5610   57.0590 C   0  0  0  0  0  0  0  0  0  0  0  0
  129.6620  125.5540   57.1890 N   0  0  0  0  0  0  0  0  0  0  0  0
  130.5620  125.7430   56.1950 C   0  0  0  0  0  0  0  0  0  0  0  0
  131.5460  126.8790   56.4040 C   0  0  0  0  0  0  0  0  0  0  0  0
  130.5930  124.9530   55.0480 C   0  0  0  0  0  0  0  0  0  0  0  0
  129.6670  123.9140   54.9140 C   0  0  0  0  0  0  0  0  0  0  0  0
  129.7300  123.0510   53.6550 C   0  0  0  0  0  0  0  0  0  0  0  0
  128.7190  123.6950   55.9400 C   0  0  0  0  0  0  0  0  0  0  0  0
  127.7710  122.5820   55.8440 C   0  0  0  0  0  0  0  0  0  0  0  0
  127.0230  121.7020   55.7650 N   0  0  0  0  0  0  0  0  0  0  0  0
  126.6730  130.1150   56.6750 C   0  0  0  0  0  0  0  0  0  0  0  0
  127.1840  131.2980   56.1480 C   0  0  0  0  0  0  0  0  0  0  0  0
  1  2  1  0
  2  3  1  0
  3  4  1  0
  4  5  2  0
  4  6  1  0
  6  7  2  0
  7  8  1  0
  8  9  2  0
  9 10  1  0
 10 11  1  0
 11 12  2  0
 11 13  1  0
 13 14  1  0
 14 15  1  0
 15 16  2  0
 16 17  1  0
 17 18  1  0
 17 19  2  0
 19 20  1  0
 20 21  1  0
 20 22  2  0
 22 23  1  0
 23 24  3  0
  9 25  1  0
 25 26  2  0
 26  6  1  0
 22 15  1  0
M  END
>  <Binding energies>  (1) 
[-7.8]

>  <Ligand effiencies>  (1) 
[-0.28888888888888886]

>  <Interactions>  (1) 
["V-A:TYR:539:CE2:4873, H-B:LYS:534:NZ:9792, V-A:ILE:538:CG2:4860, V-A:PRO:540:CA:4880, V-A:PRO:540:CB:4882, V-A:LEU:363:CD1:3185, V-A:TYR:539:CE1:4872, V-A:ILE:538:CD1:4862, V-A:TYR:539:CZ:4874, H-A:TYR:539:N:4867, V-A:PRO:540:CD:4884, V-A:TYR:539:C:4864, V-A:PRO:540:N:4881, V-A:ILE:538:CA:4857, V-A:TYR:539:CD1:4870, V-B:TYR:539:CD1:9842, V-B:ILE:538:CB:9831, V-B:MET:535:CE:9804, H-B:TYR:539:N:9839, V-B:TYR:539:CE1:9844, V-B:TYR:539:CZ:9846, V-B:TYR:531:CZ:9763, V-A:ASP:366:CB:3208, V-A:TYR:531:CZ:4791, H-B:TYR:531:OH:9764, V-B:ILE:538:CA:9829, H-B:MET:535:SD:9803"]

$$$$
1aa_Ghoteimi_2023
     RDKit          3D

 40 43  0  0  0  0  0  0  0  0999 V2000
  128.9030  123.5540   55.3710 C   0  0  0  0  0  0  0  0  0  0  0  0
  127.8390  122.6730   54.7090 C   0  0  0  0  0  0  0  0  0  0  0  0
  127.2860  121.7900   55.6780 O   0  0  0  0  0  0  0  0  0  0  0  0
  126.2340  122.1650   56.4490 C   0  0  0  0  0  0  0  0  0  0  0  0
  125.0560  122.0480   56.0970 O   0  0  0  0  0  0  0  0  0  0  0  0
  126.6440  122.7390   57.7750 C   0  0  0  0  0  0  0  0  0  0  0  0
  125.9140  123.7640   58.3980 C   0  0  0  0  0  0  0  0  0  0  0  0
  126.3180  124.2760   59.6290 C   0  0  0  0  0  0  0  0  0  0  0  0
  127.4620  123.7680   60.2620 C   0  0  0  0  0  0  0  0  0  0  0  0
  127.9640  124.2060   61.5010 N   0  0  0  0  0  0  0  0  0  0  0  0
  129.2380  124.3190   61.9410 C   0  0  0  0  0  0  0  0  0  0  0  0
  130.2380  124.0400   61.2780 O   0  0  0  0  0  0  0  0  0  0  0  0
  129.4460  124.8340   63.3730 C   0  0  0  0  0  0  0  0  0  0  0  0
  129.6280  126.2560   63.3740 O   0  0  0  0  0  0  0  0  0  0  0  0
  129.0580  127.0370   64.3690 C   0  0  0  0  0  0  0  0  0  0  0  0
  128.1410  127.9740   64.0020 N   0  0  0  0  0  0  0  0  0  0  0  0
  127.5700  128.7680   64.9460 C   0  0  0  0  0  0  0  0  0  0  0  0
  126.5680  129.7740   64.4600 C   0  0  0  0  0  0  0  0  0  0  0  0
  125.3130  129.3700   63.9810 C   0  0  0  0  0  0  0  0  0  0  0  0
  124.3820  130.3020   63.5290 C   0  0  0  0  0  0  0  0  0  0  0  0
  124.6750  131.6630   63.5420 C   0  0  0  0  0  0  0  0  0  0  0  0
  123.6920  132.5130   63.0730 O   0  0  0  0  0  0  0  0  0  0  0  0
  124.0500  133.5630   62.1800 C   0  0  0  0  0  0  0  0  0  0  0  0
  125.9230  132.0830   64.0220 C   0  0  0  0  0  0  0  0  0  0  0  0
  126.8510  131.1500   64.4750 C   0  0  0  0  0  0  0  0  0  0  0  0
  127.9010  128.6180   66.2990 C   0  0  0  0  0  0  0  0  0  0  0  0
  128.8330  127.6530   66.7050 C   0  0  0  0  0  0  0  0  0  0  0  0
  129.1350  127.5360   68.1620 C   0  0  0  0  0  0  0  0  0  0  0  0
  128.2360  126.8900   69.0170 C   0  0  0  0  0  0  0  0  0  0  0  0
  128.5150  126.7680   70.3750 C   0  0  0  0  0  0  0  0  0  0  0  0
  129.6970  127.2830   70.9060 C   0  0  0  0  0  0  0  0  0  0  0  0
  129.8890  127.1160   72.2640 O   0  0  0  0  0  0  0  0  0  0  0  0
  130.0720  125.8040   72.7830 C   0  0  0  0  0  0  0  0  0  0  0  0
  130.6050  127.9260   70.0510 C   0  0  0  0  0  0  0  0  0  0  0  0
  130.3240  128.0470   68.6930 C   0  0  0  0  0  0  0  0  0  0  0  0
  129.4340  126.8470   65.7100 C   0  0  0  0  0  0  0  0  0  0  0  0
  130.4500  125.8440   66.0330 C   0  0  0  0  0  0  0  0  0  0  0  0
  131.2530  125.0500   66.2860 N   0  0  0  0  0  0  0  0  0  0  0  0
  128.1900  122.7500   59.6440 C   0  0  0  0  0  0  0  0  0  0  0  0
  127.7860  122.2400   58.4140 C   0  0  0  0  0  0  0  0  0  0  0  0
  1  2  1  0
  2  3  1  0
  3  4  1  0
  4  5  2  0
  4  6  1  0
  6  7  2  0
  7  8  1  0
  8  9  2  0
  9 10  1  0
 10 11  1  0
 11 12  2  0
 11 13  1  0
 13 14  1  0
 14 15  1  0
 15 16  2  0
 16 17  1  0
 17 18  1  0
 18 19  2  0
 19 20  1  0
 20 21  2  0
 21 22  1  0
 22 23  1  0
 21 24  1  0
 24 25  2  0
 17 26  2  0
 26 27  1  0
 27 28  1  0
 28 29  2  0
 29 30  1  0
 30 31  2  0
 31 32  1  0
 32 33  1  0
 31 34  1  0
 34 35  2  0
 27 36  2  0
 36 37  1  0
 37 38  3  0
  9 39  1  0
 39 40  2  0
 40  6  1  0
 36 15  1  0
 25 18  1  0
 35 28  1  0
M  END
>  <Binding energies>  (2) 
[-10.4]

>  <Ligand effiencies>  (2) 
[-0.25365853658536586]

>  <Interactions>  (2) 
["V-B:GLU:543:CG:9876, V-B:HIS:456:CE1:9038, V-B:ARG:545:CZ:9895, V-B:GLU:543:CD:9877, V-A:GLU:543:CD:4905, H-B:GLU:543:OE2:9879, V-A:GLU:543:CB:4903, H-B:GLY:454:N:9018, V-B:GLY:454:CA:9017, V-A:HIS:456:CE1:4066, V-B:LEU:475:CD2:9227, V-B:TYR:539:CD1:9842, V-B:ILE:538:CB:9831, V-B:PRO:540:N:9853, V-B:MET:535:CE:9804, V-B:PRO:540:CD:9856, H-B:TYR:539:N:9839, V-B:PRO:540:CB:9854, V-B:ILE:538:CG2:9832, V-B:PRO:540:CA:9852, V-B:TYR:539:CE1:9844, V-B:TYR:539:CZ:9846, V-B:TYR:539:CE2:9845, V-B:TYR:539:C:9836, V-B:TYR:539:CD2:9843, V-B:ILE:369:CD1:8207, V-B:ASP:366:CG:8181, V-A:GLU:543:C:4899, V-B:LYS:547:CE:9919, V-B:HIS:456:CD2:9036, H-A:LYS:547:NZ:4948, H-A:TYR:484:OH:4344, V-A:HIS:456:CD2:4064, V-B:ILE:538:CA:9829, V-A:GLY:544:C:4909"]

$$$$
1b_Grossjean_2025
     RDKit          3D

 25 26  0  0  0  0  0  0  0  0999 V2000
  128.1080  122.6820   54.7200 C   0  0  0  0  0  0  0  0  0  0  0  0
  127.5940  121.7610   55.6730 O   0  0  0  0  0  0  0  0  0  0  0  0
  126.5110  122.0730   56.4310 C   0  0  0  0  0  0  0  0  0  0  0  0
  125.3470  121.9100   56.0540 O   0  0  0  0  0  0  0  0  0  0  0  0
  126.8710  122.6280   57.7790 C   0  0  0  0  0  0  0  0  0  0  0  0
  128.0210  122.2150   58.4690 C   0  0  0  0  0  0  0  0  0  0  0  0
  128.3250  122.7490   59.7180 C   0  0  0  0  0  0  0  0  0  0  0  0
  127.4920  123.7020   60.3030 C   0  0  0  0  0  0  0  0  0  0  0  0
  127.8960  124.1710   61.5680 N   0  0  0  0  0  0  0  0  0  0  0  0
  129.0350  124.7940   61.9420 C   0  0  0  0  0  0  0  0  0  0  0  0
  129.9700  125.0830   61.1960 O   0  0  0  0  0  0  0  0  0  0  0  0
  129.1230  125.1640   63.4230 C   0  0  0  0  0  0  0  0  0  0  0  0
  130.1330  123.9820   64.3660 S   0  0  0  0  0  0  0  0  0  0  0  0
  130.9420  122.9190   63.1900 C   0  0  0  0  0  0  0  0  0  0  0  0
  130.1680  121.8920   62.7580 N   0  0  0  0  0  0  0  0  0  0  0  0
  130.6850  121.0210   61.8600 C   0  0  0  0  0  0  0  0  0  0  0  0
  129.7570  119.9070   61.4110 C   0  0  0  0  0  0  0  0  0  0  0  0
  131.9840  121.1310   61.3680 C   0  0  0  0  0  0  0  0  0  0  0  0
  132.7970  122.1740   61.8230 C   0  0  0  0  0  0  0  0  0  0  0  0
  134.2230  122.2640   61.2820 C   0  0  0  0  0  0  0  0  0  0  0  0
  132.2790  123.0950   62.7620 C   0  0  0  0  0  0  0  0  0  0  0  0
  133.1260  124.1690   63.2870 C   0  0  0  0  0  0  0  0  0  0  0  0
  133.7980  125.0160   63.6990 N   0  0  0  0  0  0  0  0  0  0  0  0
  126.3400  124.1200   59.6200 C   0  0  0  0  0  0  0  0  0  0  0  0
  126.0370  123.5860   58.3700 C   0  0  0  0  0  0  0  0  0  0  0  0
  1  2  1  0
  2  3  1  0
  3  4  2  0
  3  5  1  0
  5  6  2  0
  6  7  1  0
  7  8  2  0
  8  9  1  0
  9 10  1  0
 10 11  2  0
 10 12  1  0
 12 13  1  0
 13 14  1  0
 14 15  2  0
 15 16  1  0
 16 17  1  0
 16 18  2  0
 18 19  1  0
 19 20  1  0
 19 21  2  0
 21 22  1  0
 22 23  3  0
  8 24  1  0
 24 25  2  0
 25  5  1  0
 21 14  1  0
M  END
>  <Binding energies>  (3) 
[-7.97]

>  <Ligand effiencies>  (3) 
[-0.30653846153846154]

>  <Interactions>  (3) 
["V-B:GLU:543:CG:9876, V-B:GLU:543:CD:9877, H-B:GLU:543:OE2:9879, V-B:TYR:539:CD1:9842, V-B:ILE:538:CB:9831, V-B:PRO:540:N:9853, V-B:MET:535:CE:9804, V-B:PRO:540:CD:9856, H-B:TYR:539:N:9839, V-B:PRO:540:CB:9854, V-B:ILE:538:CG2:9832, V-B:PRO:540:CA:9852, V-B:TYR:539:CE1:9844, V-B:TYR:539:CZ:9846, V-B:TYR:539:CE2:9845, V-B:TYR:539:C:9836, V-B:ALA:541:CB:9861, V-A:LEU:475:CD1:4254, V-B:TYR:539:CD2:9843, H-A:ARG:545:NH2:4925, V-A:GLY:454:CA:4045, H-A:GLY:454:N:4046, H-A:TYR:484:OH:4344, V-B:TYR:539:CG:9841, H-A:ARG:545:NE:4921, V-B:ILE:538:CA:9829, V-A:ILE:369:CG2:3233, V-A:ILE:369:CG1:3234, V-A:ILE:369:CB:3232, H-A:ARG:545:NH1:4924, V-A:PRO:482:CG:4323"]

$$$$
1c_Grossjean_2025
     RDKit          3D

 23 24  0  0  0  0  0  0  0  0999 V2000
  132.7040  131.0640   61.2500 C   0  0  0  0  0  0  0  0  0  0  0  0
  133.3720  131.0680   59.9930 O   0  0  0  0  0  0  0  0  0  0  0  0
  132.6240  131.1550   58.8340 C   0  0  0  0  0  0  0  0  0  0  0  0
  131.2430  131.0230   58.9730 C   0  0  0  0  0  0  0  0  0  0  0  0
  130.4050  131.0970   57.8640 C   0  0  0  0  0  0  0  0  0  0  0  0
  130.9480  131.3140   56.5890 C   0  0  0  0  0  0  0  0  0  0  0  0
  130.1960  131.3950   55.4010 N   0  0  0  0  0  0  0  0  0  0  0  0
  129.2510  132.2910   55.0440 C   0  0  0  0  0  0  0  0  0  0  0  0
  128.8810  133.2480   55.7240 O   0  0  0  0  0  0  0  0  0  0  0  0
  128.6190  132.0660   53.6690 C   0  0  0  0  0  0  0  0  0  0  0  0
  127.7050  130.4970   53.5940 S   0  0  0  0  0  0  0  0  0  0  0  0
  127.1560  130.0870   55.2380 C   0  0  0  0  0  0  0  0  0  0  0  0
  126.0640  130.7890   55.6330 N   0  0  0  0  0  0  0  0  0  0  0  0
  125.5550  130.5630   56.8670 C   0  0  0  0  0  0  0  0  0  0  0  0
  124.3290  131.3780   57.2330 C   0  0  0  0  0  0  0  0  0  0  0  0
  126.1130  129.6450   57.7530 C   0  0  0  0  0  0  0  0  0  0  0  0
  127.2520  128.9330   57.3660 C   0  0  0  0  0  0  0  0  0  0  0  0
  127.8560  127.9440   58.3610 C   0  0  0  0  0  0  0  0  0  0  0  0
  127.8030  129.1540   56.0820 C   0  0  0  0  0  0  0  0  0  0  0  0
  129.0280  128.4580   55.6800 C   0  0  0  0  0  0  0  0  0  0  0  0
  129.9950  127.9080   55.3620 N   0  0  0  0  0  0  0  0  0  0  0  0
  132.3310  131.4350   56.4440 C   0  0  0  0  0  0  0  0  0  0  0  0
  133.1660  131.3600   57.5560 C   0  0  0  0  0  0  0  0  0  0  0  0
  1  2  1  0
  2  3  1  0
  3  4  2  0
  4  5  1  0
  5  6  2  0
  6  7  1  0
  7  8  1  0
  8  9  2  0
  8 10  1  0
 10 11  1  0
 11 12  1  0
 12 13  2  0
 13 14  1  0
 14 15  1  0
 14 16  2  0
 16 17  1  0
 17 18  1  0
 17 19  2  0
 19 20  1  0
 20 21  3  0
  6 22  1  0
 22 23  2  0
 23  3  1  0
 19 12  1  0
M  END
>  <Binding energies>  (4) 
[-7.39]

>  <Ligand effiencies>  (4) 
[-0.30791666666666667]

>  <Interactions>  (4) 
["V-A:GLU:543:CD:4905, V-A:TYR:539:CE2:4873, H-B:LYS:534:NZ:9792, V-A:PRO:540:CA:4880, V-A:PRO:540:CB:4882, H-A:TYR:539:OH:4875, V-A:LEU:363:CD1:3185, V-A:TYR:539:CE1:4872, V-A:ILE:538:CD1:4862, V-A:TYR:539:CZ:4874, H-A:TYR:539:N:4867, V-A:ASN:362:CB:3172, V-A:LEU:363:CA:3181, V-A:ILE:538:CA:4857, V-B:MET:535:CE:9804, V-B:ASP:366:CB:8180, H-A:TYR:531:OH:4792, V-A:TYR:531:CZ:4791, H-B:TYR:531:OH:9764, V-B:ILE:369:CG2:8205, V-A:LEU:363:CB:3183, H-A:LEU:363:N:3182"]

$$$$
1d_Grossjean_2025
     RDKit          3D

 21 22  0  0  0  0  0  0  0  0999 V2000
  128.6350  121.8060   59.9950 C   0  0  0  0  0  0  0  0  0  0  0  0
  127.4230  122.5930   59.5340 C   0  0  0  0  0  0  0  0  0  0  0  0
  126.5900  123.2470   60.4390 C   0  0  0  0  0  0  0  0  0  0  0  0
  125.4910  123.9660   59.9560 C   0  0  0  0  0  0  0  0  0  0  0  0
  124.6010  124.6870   60.9660 C   0  0  0  0  0  0  0  0  0  0  0  0
  125.2490  124.0040   58.5630 C   0  0  0  0  0  0  0  0  0  0  0  0
  124.1330  124.7900   58.0310 C   0  0  0  0  0  0  0  0  0  0  0  0
  123.2510  125.4120   57.6140 N   0  0  0  0  0  0  0  0  0  0  0  0
  126.1330  123.2910   57.7200 C   0  0  0  0  0  0  0  0  0  0  0  0
  125.9770  123.2300   55.9490 S   0  0  0  0  0  0  0  0  0  0  0  0
  127.2580  122.0960   55.3300 C   0  0  0  0  0  0  0  0  0  0  0  0
  128.5570  122.8270   54.9870 C   0  0  0  0  0  0  0  0  0  0  0  0
  129.0790  122.6410   53.8880 O   0  0  0  0  0  0  0  0  0  0  0  0
  129.0220  123.6600   55.9430 N   0  0  0  0  0  0  0  0  0  0  0  0
  130.1810  124.4590   55.9590 C   0  0  0  0  0  0  0  0  0  0  0  0
  130.4640  125.0920   57.1720 C   0  0  0  0  0  0  0  0  0  0  0  0
  131.5900  125.9010   57.2970 C   0  0  0  0  0  0  0  0  0  0  0  0
  132.4400  126.0730   56.2080 C   0  0  0  0  0  0  0  0  0  0  0  0
  132.1750  125.4410   54.9960 C   0  0  0  0  0  0  0  0  0  0  0  0
  131.0490  124.6320   54.8670 C   0  0  0  0  0  0  0  0  0  0  0  0
  127.2080  122.6140   58.1980 N   0  0  0  0  0  0  0  0  0  0  0  0
  1  2  1  0
  2  3  2  0
  3  4  1  0
  4  5  1  0
  4  6  2  0
  6  7  1  0
  7  8  3  0
  6  9  1  0
  9 10  1  0
 10 11  1  0
 11 12  1  0
 12 13  2  0
 12 14  1  0
 14 15  1  0
 15 16  2  0
 16 17  1  0
 17 18  2  0
 18 19  1  0
 19 20  2  0
  9 21  2  0
 21  2  1  0
 20 15  1  0
M  END
>  <Binding energies>  (5) 
[-7.31]

>  <Ligand effiencies>  (5) 
[-0.3322727272727273]

>  <Interactions>  (5) 
["V-B:GLU:543:CD:9877, V-A:ASP:366:CG:3209, V-B:TYR:539:CD1:9842, V-B:PRO:540:C:9850, V-B:ILE:538:CB:9831, V-B:PRO:540:N:9853, V-B:LEU:363:CD1:8157, V-B:MET:535:CE:9804, V-B:ASN:362:CB:8144, V-B:PRO:540:CB:9854, V-B:ILE:538:CG2:9832, V-B:PRO:540:CA:9852, V-B:TYR:539:CE1:9844, V-B:TYR:539:CZ:9846, V-B:TYR:539:CE2:9845, V-B:LEU:363:CA:8153, V-B:TYR:539:C:9836, V-B:ALA:541:CB:9861, V-B:TYR:539:CD2:9843, V-A:ASP:366:CB:3208, H-B:TYR:531:OH:9764, V-B:ILE:538:CA:9829, V-A:TYR:531:CE1:4789, V-B:ILE:538:C:9827, V-A:ASN:370:CB:3241, V-A:ASP:366:C:3204"]

$$$$
1e_Grossjean_2025
     RDKit          3D

 22 23  0  0  0  0  0  0  0  0999 V2000
  130.8530  131.2920   60.4200 C   0  0  0  0  0  0  0  0  0  0  0  0
  131.4990  131.2280   59.0490 C   0  0  0  0  0  0  0  0  0  0  0  0
  132.8760  131.0480   58.8970 C   0  0  0  0  0  0  0  0  0  0  0  0
  133.4000  131.0010   57.6050 C   0  0  0  0  0  0  0  0  0  0  0  0
  132.5460  131.1350   56.5080 C   0  0  0  0  0  0  0  0  0  0  0  0
  131.1750  131.3080   56.7300 C   0  0  0  0  0  0  0  0  0  0  0  0
  130.3680  131.4500   55.5880 N   0  0  0  0  0  0  0  0  0  0  0  0
  129.4140  132.3740   55.3420 C   0  0  0  0  0  0  0  0  0  0  0  0
  129.0810  133.2710   56.1190 O   0  0  0  0  0  0  0  0  0  0  0  0
  128.6950  132.2480   53.9970 C   0  0  0  0  0  0  0  0  0  0  0  0
  128.0070  130.5830   53.7470 S   0  0  0  0  0  0  0  0  0  0  0  0
  127.3360  130.0060   55.2930 C   0  0  0  0  0  0  0  0  0  0  0  0
  126.2340  130.6910   55.6920 N   0  0  0  0  0  0  0  0  0  0  0  0
  125.6360  130.3440   56.8560 C   0  0  0  0  0  0  0  0  0  0  0  0
  124.4070  131.1480   57.2330 C   0  0  0  0  0  0  0  0  0  0  0  0
  126.1120  129.3180   57.6690 C   0  0  0  0  0  0  0  0  0  0  0  0
  127.2610  128.6210   57.2800 C   0  0  0  0  0  0  0  0  0  0  0  0
  127.7740  127.5120   58.1980 C   0  0  0  0  0  0  0  0  0  0  0  0
  127.9050  128.9680   56.0700 C   0  0  0  0  0  0  0  0  0  0  0  0
  129.1410  128.2880   55.6780 C   0  0  0  0  0  0  0  0  0  0  0  0
  130.1180  127.7490   55.3700 N   0  0  0  0  0  0  0  0  0  0  0  0
  130.6560  131.3590   57.9930 N   0  0  0  0  0  0  0  0  0  0  0  0
  1  2  1  0
  2  3  2  0
  3  4  1  0
  4  5  2  0
  5  6  1  0
  6  7  1  0
  7  8  1  0
  8  9  2  0
  8 10  1  0
 10 11  1  0
 11 12  1  0
 12 13  2  0
 13 14  1  0
 14 15  1  0
 14 16  2  0
 16 17  1  0
 17 18  1  0
 17 19  2  0
 19 20  1  0
 20 21  3  0
  6 22  2  0
 22  2  1  0
 19 12  1  0
M  END
>  <Binding energies>  (6) 
[-7.39]

>  <Ligand effiencies>  (6) 
[-0.32130434782608697]

>  <Interactions>  (6) 
["V-A:TYR:539:CE2:4873, H-B:LYS:534:NZ:9792, V-A:PRO:540:CA:4880, V-A:PRO:540:CB:4882, H-A:TYR:539:OH:4875, V-A:LEU:363:CD1:3185, V-A:TYR:539:CE1:4872, V-A:ILE:538:CD1:4862, V-A:TYR:539:CZ:4874, H-A:TYR:539:N:4867, V-A:LEU:363:CA:3181, V-A:ILE:538:CA:4857, V-B:MET:535:CE:9804, V-B:TYR:531:CZ:9763, V-B:ASP:366:CB:8180, H-A:TYR:531:OH:4792, V-A:TYR:531:CE2:4790, V-A:TYR:531:CZ:4791, H-B:TYR:531:OH:9764, V-A:LEU:363:CB:3183"]

$$$$
1f_Grossjean_2025
     RDKit          3D

 21 22  0  0  0  0  0  0  0  0999 V2000
  130.2930  127.3060   56.1040 C   0  0  0  0  0  0  0  0  0  0  0  0
  130.5670  128.2430   57.2650 C   0  0  0  0  0  0  0  0  0  0  0  0
  129.9790  128.0490   58.5130 C   0  0  0  0  0  0  0  0  0  0  0  0
  130.2600  128.9530   59.5430 C   0  0  0  0  0  0  0  0  0  0  0  0
  129.5890  128.7310   60.8970 C   0  0  0  0  0  0  0  0  0  0  0  0
  131.1380  130.0330   59.2950 C   0  0  0  0  0  0  0  0  0  0  0  0
  131.4010  131.0220   60.3450 C   0  0  0  0  0  0  0  0  0  0  0  0
  131.6070  131.8010   61.1750 N   0  0  0  0  0  0  0  0  0  0  0  0
  131.7120  130.1360   58.0060 C   0  0  0  0  0  0  0  0  0  0  0  0
  132.8370  131.4250   57.5110 S   0  0  0  0  0  0  0  0  0  0  0  0
  132.2510  132.1260   55.9310 C   0  0  0  0  0  0  0  0  0  0  0  0
  130.7240  132.2350   55.8000 C   0  0  0  0  0  0  0  0  0  0  0  0
  130.1450  133.2800   56.0990 O   0  0  0  0  0  0  0  0  0  0  0  0
  130.1160  131.1100   55.3690 N   0  0  0  0  0  0  0  0  0  0  0  0
  128.7510  130.8610   55.1310 C   0  0  0  0  0  0  0  0  0  0  0  0
  127.8490  130.2910   56.0490 C   0  0  0  0  0  0  0  0  0  0  0  0
  126.5140  130.1030   55.6810 C   0  0  0  0  0  0  0  0  0  0  0  0
  126.1120  130.4920   54.4040 C   0  0  0  0  0  0  0  0  0  0  0  0
  126.9590  131.0480   53.5020 N   0  0  0  0  0  0  0  0  0  0  0  0
  128.2530  131.2240   53.8740 C   0  0  0  0  0  0  0  0  0  0  0  0
  131.4140  129.2670   57.0070 N   0  0  0  0  0  0  0  0  0  0  0  0
  1  2  1  0
  2  3  2  0
  3  4  1  0
  4  5  1  0
  4  6  2  0
  6  7  1  0
  7  8  3  0
  6  9  1  0
  9 10  1  0
 10 11  1  0
 11 12  1  0
 12 13  2  0
 12 14  1  0
 14 15  1  0
 15 16  2  0
 16 17  1  0
 17 18  2  0
 18 19  1  0
 19 20  2  0
  9 21  2  0
 21  2  1  0
 20 15  1  0
M  END
>  <Binding energies>  (7) 
[-7.37]

>  <Ligand effiencies>  (7) 
[-0.335]

>  <Interactions>  (7) 
["H-B:LYS:534:NZ:9792, V-A:ILE:538:CG2:4860, V-A:PRO:540:CA:4880, V-A:PRO:540:CB:4882, H-A:TYR:539:OH:4875, V-A:LEU:363:CD1:3185, V-A:ILE:538:CD1:4862, V-A:TYR:539:CZ:4874, H-A:TYR:539:N:4867, V-A:PRO:540:CD:4884, H-A:ALA:541:N:4888, V-B:MET:535:CE:9804, V-B:TYR:531:CZ:9763, H-A:TYR:531:OH:4792, V-A:TYR:531:CE2:4790, V-B:TYR:531:CE1:9761"]

$$$$
1g_Grossjean_2025
     RDKit          3D

 22 23  0  0  0  0  0  0  0  0999 V2000
  124.4140  131.0730   57.3470 C   0  0  0  0  0  0  0  0  0  0  0  0
  125.6420  130.2700   56.9610 C   0  0  0  0  0  0  0  0  0  0  0  0
  126.1270  129.2440   57.7690 C   0  0  0  0  0  0  0  0  0  0  0  0
  127.2730  128.5480   57.3700 C   0  0  0  0  0  0  0  0  0  0  0  0
  127.7950  127.4370   58.2800 C   0  0  0  0  0  0  0  0  0  0  0  0
  127.9060  128.8960   56.1560 C   0  0  0  0  0  0  0  0  0  0  0  0
  129.1370  128.2170   55.7430 C   0  0  0  0  0  0  0  0  0  0  0  0
  130.1100  127.6800   55.4210 N   0  0  0  0  0  0  0  0  0  0  0  0
  127.3300  129.9350   55.3860 C   0  0  0  0  0  0  0  0  0  0  0  0
  127.9880  130.4930   53.8310 S   0  0  0  0  0  0  0  0  0  0  0  0
  128.2410  132.2890   53.9650 C   0  0  0  0  0  0  0  0  0  0  0  0
  129.1170  132.6550   55.1640 C   0  0  0  0  0  0  0  0  0  0  0  0
  130.1630  133.2830   54.9940 O   0  0  0  0  0  0  0  0  0  0  0  0
  128.6780  132.2500   56.3680 N   0  0  0  0  0  0  0  0  0  0  0  0
  129.3240  132.5390   57.6480 C   0  0  0  0  0  0  0  0  0  0  0  0
  130.6540  131.8210   57.8570 C   0  0  0  0  0  0  0  0  0  0  0  0
  131.5390  131.6640   56.7850 C   0  0  0  0  0  0  0  0  0  0  0  0
  132.7530  131.0100   56.9750 C   0  0  0  0  0  0  0  0  0  0  0  0
  133.0810  130.5190   58.2370 C   0  0  0  0  0  0  0  0  0  0  0  0
  132.2070  130.6760   59.3100 C   0  0  0  0  0  0  0  0  0  0  0  0
  130.9910  131.3290   59.1210 C   0  0  0  0  0  0  0  0  0  0  0  0
  126.2300  130.6190   55.7920 N   0  0  0  0  0  0  0  0  0  0  0  0
  1  2  1  0
  2  3  2  0
  3  4  1  0
  4  5  1  0
  4  6  2  0
  6  7  1  0
  7  8  3  0
  6  9  1  0
  9 10  1  0
 10 11  1  0
 11 12  1  0
 12 13  2  0
 12 14  1  0
 14 15  1  0
 15 16  1  0
 16 17  2  0
 17 18  1  0
 18 19  2  0
 19 20  1  0
 20 21  2  0
  9 22  2  0
 22  2  1  0
 21 16  1  0
M  END
>  <Binding energies>  (8) 
[-6.98]

>  <Ligand effiencies>  (8) 
[-0.30347826086956525]

>  <Interactions>  (8) 
["V-A:TYR:539:CE2:4873, V-A:PRO:540:CA:4880, V-A:PRO:540:CB:4882, H-A:TYR:539:OH:4875, V-A:TYR:539:CD2:4871, V-A:LEU:363:CD1:3185, V-A:TYR:539:CE1:4872, V-A:ILE:538:CD1:4862, V-A:TYR:539:CZ:4874, V-A:ASP:366:CG:3209, H-A:TYR:539:N:4867, V-A:TYR:539:C:4864, V-A:PRO:540:N:4881, V-A:LEU:363:CA:3181, V-A:ILE:538:CA:4857, V-A:TYR:539:CG:4869, V-A:TYR:539:CD1:4870, V-B:MET:535:CE:9804, V-B:TYR:531:CZ:9763, V-B:ASP:366:CB:8180, V-A:ASP:366:CB:3208, H-A:TYR:531:OH:4792, H-B:TYR:531:OH:9764"]

$$$$
1h_Grossjean_2025
     RDKit          3D

 28 29  0  0  0  0  0  0  0  0999 V2000
  127.8830  122.5350   55.4710 C   0  0  0  0  0  0  0  0  0  0  0  0
  127.7600  121.6740   56.5960 O   0  0  0  0  0  0  0  0  0  0  0  0
  127.4820  122.2150   57.8380 C   0  0  0  0  0  0  0  0  0  0  0  0
  128.3850  122.2170   58.9130 C   0  0  0  0  0  0  0  0  0  0  0  0
  128.0310  122.7700   60.1440 C   0  0  0  0  0  0  0  0  0  0  0  0
  129.0300  122.7860   61.2960 C   0  0  0  0  0  0  0  0  0  0  0  0
  130.4270  122.6940   60.8730 N   0  0  0  0  0  0  0  0  0  0  0  0
  131.4260  122.1570   61.5980 C   0  0  0  0  0  0  0  0  0  0  0  0
  131.2670  121.6510   62.7090 O   0  0  0  0  0  0  0  0  0  0  0  0
  132.8210  122.2040   60.9760 C   0  0  0  0  0  0  0  0  0  0  0  0
  133.5240  123.8810   61.0080 S   0  0  0  0  0  0  0  0  0  0  0  0
  132.9290  124.7030   62.4770 C   0  0  0  0  0  0  0  0  0  0  0  0
  133.7220  124.5980   63.5750 N   0  0  0  0  0  0  0  0  0  0  0  0
  133.3320  125.2020   64.7210 C   0  0  0  0  0  0  0  0  0  0  0  0
  134.2720  125.0430   65.9020 C   0  0  0  0  0  0  0  0  0  0  0  0
  132.1470  125.9270   64.8240 C   0  0  0  0  0  0  0  0  0  0  0  0
  131.3200  126.0410   63.7020 C   0  0  0  0  0  0  0  0  0  0  0  0
  130.0270  126.8420   63.8350 C   0  0  0  0  0  0  0  0  0  0  0  0
  131.7090  125.4180   62.4930 C   0  0  0  0  0  0  0  0  0  0  0  0
  130.8620  125.5190   61.3020 C   0  0  0  0  0  0  0  0  0  0  0  0
  130.1920  125.5980   60.3610 N   0  0  0  0  0  0  0  0  0  0  0  0
  126.7760  123.3610   60.2980 C   0  0  0  0  0  0  0  0  0  0  0  0
  125.8540  123.3780   59.2380 C   0  0  0  0  0  0  0  0  0  0  0  0
  124.5950  123.9440   59.3200 O   0  0  0  0  0  0  0  0  0  0  0  0
  124.0730  124.3090   60.5940 C   0  0  0  0  0  0  0  0  0  0  0  0
  126.2160  122.7920   58.0170 C   0  0  0  0  0  0  0  0  0  0  0  0
  125.3270  122.8070   56.9700 O   0  0  0  0  0  0  0  0  0  0  0  0
  125.0110  124.1090   56.4970 C   0  0  0  0  0  0  0  0  0  0  0  0
  1  2  1  0
  2  3  1  0
  3  4  2  0
  4  5  1  0
  5  6  1  0
  6  7  1  0
  7  8  1  0
  8  9  2  0
  8 10  1  0
 10 11  1  0
 11 12  1  0
 12 13  2  0
 13 14  1  0
 14 15  1  0
 14 16  2  0
 16 17  1  0
 17 18  1  0
 17 19  2  0
 19 20  1  0
 20 21  3  0
  5 22  2  0
 22 23  1  0
 23 24  1  0
 24 25  1  0
 23 26  2  0
 26 27  1  0
 27 28  1  0
 26  3  1  0
 19 12  1  0
M  END
>  <Binding energies>  (9) 
[-7.42]

>  <Ligand effiencies>  (9) 
[-0.2558620689655172]

>  <Interactions>  (9) 
["V-A:GLU:543:CD:4905, V-A:HIS:456:CE1:4066, V-A:ASP:366:CG:3209, V-B:ASN:362:C:8140, V-B:TYR:539:CD1:9842, V-B:ILE:538:CB:9831, V-B:PRO:540:N:9853, V-B:LEU:363:CD1:8157, V-B:MET:535:CE:9804, V-B:PRO:540:CD:9856, V-B:ASN:362:CB:8144, H-B:TYR:539:N:9839, V-B:PRO:540:CB:9854, V-B:ILE:538:CG2:9832, V-B:PRO:540:CA:9852, V-B:TYR:539:CE1:9844, V-B:TYR:539:CZ:9846, V-B:TYR:539:CE2:9845, V-B:TYR:531:CE2:9762, V-B:TYR:539:C:9836, V-B:ALA:541:CB:9861, V-A:LEU:475:CD1:4254, V-B:TYR:539:CD2:9843, H-B:TYR:539:OH:9847, V-A:GLY:454:CA:4045, V-A:ARG:545:CG:4919, H-A:GLY:454:N:4046, V-A:ARG:545:CZ:4923, V-A:ARG:545:CD:4920, V-A:GLY:454:C:4043, V-B:TYR:539:CG:9841, V-A:GLY:453:C:4038, V-B:ILE:538:CA:9829"]

$$$$
1i_Grossjean_2025
     RDKit          3D

 20 21  0  0  0  0  0  0  0  0999 V2000
  132.7400  130.8830   61.3500 C   0  0  0  0  0  0  0  0  0  0  0  0
  131.9540  131.3370   60.1350 C   0  0  0  0  0  0  0  0  0  0  0  0
  132.5290  131.3700   58.8660 C   0  0  0  0  0  0  0  0  0  0  0  0
  131.7530  131.7880   57.7790 C   0  0  0  0  0  0  0  0  0  0  0  0
  132.3990  131.8000   56.3950 C   0  0  0  0  0  0  0  0  0  0  0  0
  130.4090  132.1730   57.9960 C   0  0  0  0  0  0  0  0  0  0  0  0
  129.5650  132.5660   56.8660 C   0  0  0  0  0  0  0  0  0  0  0  0
  128.8990  132.8750   55.9710 N   0  0  0  0  0  0  0  0  0  0  0  0
  129.9170  132.1310   59.3220 C   0  0  0  0  0  0  0  0  0  0  0  0
  128.2560  132.5800   59.7760 S   0  0  0  0  0  0  0  0  0  0  0  0
  127.3970  131.0620   60.2890 C   0  0  0  0  0  0  0  0  0  0  0  0
  126.8550  131.1620   61.7160 C   0  0  0  0  0  0  0  0  0  0  0  0
  127.3120  132.0170   62.4770 O   0  0  0  0  0  0  0  0  0  0  0  0
  125.8840  130.2780   62.0340 N   0  0  0  0  0  0  0  0  0  0  0  0
  125.2290  130.1500   63.2500 C   0  0  0  0  0  0  0  0  0  0  0  0
  125.7540  129.4350   64.3260 C   0  0  0  0  0  0  0  0  0  0  0  0
  124.8130  129.5490   65.3240 C   0  0  0  0  0  0  0  0  0  0  0  0
  123.7750  130.2910   64.8720 O   0  0  0  0  0  0  0  0  0  0  0  0
  124.0490  130.6660   63.5560 N   0  0  0  0  0  0  0  0  0  0  0  0
  130.6720  131.7050   60.3660 N   0  0  0  0  0  0  0  0  0  0  0  0
  1  2  1  0
  2  3  2  0
  3  4  1  0
  4  5  1  0
  4  6  2  0
  6  7  1  0
  7  8  3  0
  6  9  1  0
  9 10  1  0
 10 11  1  0
 11 12  1  0
 12 13  2  0
 12 14  1  0
 14 15  1  0
 15 16  1  0
 16 17  2  0
 17 18  1  0
 18 19  1  0
  9 20  2  0
 20  2  1  0
 19 15  2  0
M  END
>  <Binding energies>  (10) 
[-7.58]

>  <Ligand effiencies>  (10) 
[-0.36095238095238097]

>  <Interactions>  (10) 
["V-B:HIS:456:CE1:9038, V-B:ARG:545:CZ:9895, V-A:GLU:543:CD:4905, H-B:GLY:454:N:9018, H-B:TYR:484:OH:9316, V-B:ARG:545:CD:9892, V-A:ILE:538:CG2:4860, V-A:PRO:540:CA:4880, V-A:PRO:540:CB:4882, V-A:TYR:539:CD2:4871, V-A:LEU:363:CD1:3185, H-A:TYR:539:N:4867, V-A:ASN:362:CB:3172, V-A:TYR:539:C:4864, V-A:PRO:540:N:4881, H-A:ALA:541:N:4888, V-A:TYR:539:CA:4866, H-B:ASP:366:OD1:8182, V-B:ASP:366:CG:8181, H-B:ASP:366:OD2:8183"]

$$$$
1k_Grossjean_2025
     RDKit          3D

 25 25  0  0  0  0  0  0  0  0999 V2000
  127.7000  122.2260   57.5160 C   0  0  0  0  0  0  0  0  0  0  0  0
  126.7460  122.0490   56.4810 O   0  0  0  0  0  0  0  0  0  0  0  0
  126.1350  123.2610   56.0610 C   0  0  0  0  0  0  0  0  0  0  0  0
  124.9840  123.6120   57.0130 C   0  0  0  0  0  0  0  0  0  0  0  0
  124.9810  125.0130   57.2560 O   0  0  0  0  0  0  0  0  0  0  0  0
  125.9100  125.4220   58.2510 C   0  0  0  0  0  0  0  0  0  0  0  0
  125.9050  126.9520   58.3550 C   0  0  0  0  0  0  0  0  0  0  0  0
  126.7400  127.4990   57.3430 O   0  0  0  0  0  0  0  0  0  0  0  0
  126.8880  128.9100   57.4260 C   0  0  0  0  0  0  0  0  0  0  0  0
  126.7690  129.5250   56.0190 C   0  0  0  0  0  0  0  0  0  0  0  0
  127.6140  130.7020   55.8090 N   0  0  0  0  0  0  0  0  0  0  0  0
  127.6250  131.4610   54.6990 C   0  0  0  0  0  0  0  0  0  0  0  0
  126.9020  131.2390   53.7260 O   0  0  0  0  0  0  0  0  0  0  0  0
  128.6110  132.6390   54.7120 C   0  0  0  0  0  0  0  0  0  0  0  0
  130.2640  132.2780   55.4010 S   0  0  0  0  0  0  0  0  0  0  0  0
  130.1370  132.1130   57.1760 C   0  0  0  0  0  0  0  0  0  0  0  0
  128.9620  132.5170   57.7260 N   0  0  0  0  0  0  0  0  0  0  0  0
  128.8040  132.4280   59.0670 C   0  0  0  0  0  0  0  0  0  0  0  0
  127.4690  132.9060   59.6060 C   0  0  0  0  0  0  0  0  0  0  0  0
  129.7950  131.9310   59.9100 C   0  0  0  0  0  0  0  0  0  0  0  0
  131.0060  131.5050   59.3550 C   0  0  0  0  0  0  0  0  0  0  0  0
  132.0800  130.9630   60.2960 C   0  0  0  0  0  0  0  0  0  0  0  0
  131.1940  131.5930   57.9580 C   0  0  0  0  0  0  0  0  0  0  0  0
  132.4550  131.1580   57.3500 C   0  0  0  0  0  0  0  0  0  0  0  0
  133.4510  130.8140   56.8710 N   0  0  0  0  0  0  0  0  0  0  0  0
  1  2  1  0
  2  3  1  0
  3  4  1  0
  4  5  1  0
  5  6  1  0
  6  7  1  0
  7  8  1  0
  8  9  1  0
  9 10  1  0
 10 11  1  0
 11 12  1  0
 12 13  2  0
 12 14  1  0
 14 15  1  0
 15 16  1  0
 16 17  2  0
 17 18  1  0
 18 19  1  0
 18 20  2  0
 20 21  1  0
 21 22  1  0
 21 23  2  0
 23 24  1  0
 24 25  3  0
 23 16  1  0
M  END
>  <Binding energies>  (11) 
[-6.59]

>  <Ligand effiencies>  (11) 
[-0.25346153846153846]

>  <Interactions>  (11) 
["V-A:TYR:539:CE2:4873, H-B:LYS:534:NZ:9792, V-A:PRO:540:CA:4880, V-A:PRO:540:CB:4882, H-A:TYR:539:OH:4875, V-A:TYR:539:CD2:4871, V-A:LEU:363:CD1:3185, V-A:TYR:539:CE1:4872, V-A:ILE:538:CD1:4862, V-A:TYR:539:CZ:4874, H-A:TYR:539:N:4867, V-A:TYR:539:C:4864, V-A:PRO:540:N:4881, V-A:ILE:538:CA:4857, V-A:TYR:539:CG:4869, V-A:TYR:539:CD1:4870, V-B:TYR:539:CD1:9842, V-B:PRO:540:N:9853, V-B:LEU:363:CD1:8157, V-B:MET:535:CE:9804, H-B:TYR:539:N:9839, V-B:PRO:540:CB:9854, V-B:PRO:540:CA:9852, V-B:TYR:539:CE1:9844, V-B:TYR:539:C:9836, V-B:TYR:531:CZ:9763, V-B:ASP:366:CB:8180, H-A:TYR:531:OH:4792, V-B:ASP:366:CG:8181, H-B:TYR:531:OH:9764, V-B:TYR:539:CG:9841"]

$$$$
1l_Grossjean_2025
     RDKit          3D

 17 17  0  0  0  0  0  0  0  0999 V2000
  123.7100  123.2030   60.9900 C   0  0  0  0  0  0  0  0  0  0  0  0
  125.0800  122.8970   61.2040 O   0  0  0  0  0  0  0  0  0  0  0  0
  125.8820  123.8960   60.6530 N   0  0  0  0  0  0  0  0  0  0  0  0
  126.1360  123.8740   59.3310 C   0  0  0  0  0  0  0  0  0  0  0  0
  125.5260  123.1610   58.5290 O   0  0  0  0  0  0  0  0  0  0  0  0
  127.2480  124.8240   58.8650 C   0  0  0  0  0  0  0  0  0  0  0  0
  128.9190  124.0900   58.8110 S   0  0  0  0  0  0  0  0  0  0  0  0
  129.5630  124.2940   57.1600 C   0  0  0  0  0  0  0  0  0  0  0  0
  130.6250  125.1340   57.0400 N   0  0  0  0  0  0  0  0  0  0  0  0
  131.1630  125.3360   55.8140 C   0  0  0  0  0  0  0  0  0  0  0  0
  132.3450  126.2850   55.7610 C   0  0  0  0  0  0  0  0  0  0  0  0
  130.6730  124.7160   54.6670 C   0  0  0  0  0  0  0  0  0  0  0  0
  129.5820  123.8480   54.7770 C   0  0  0  0  0  0  0  0  0  0  0  0
  129.0620  123.1790   53.5060 C   0  0  0  0  0  0  0  0  0  0  0  0
  129.0040  123.6240   56.0470 C   0  0  0  0  0  0  0  0  0  0  0  0
  127.8590  122.7200   56.1920 C   0  0  0  0  0  0  0  0  0  0  0  0
  126.9560  122.0060   56.3050 N   0  0  0  0  0  0  0  0  0  0  0  0
  1  2  1  0
  2  3  1  0
  3  4  1  0
  4  5  2  0
  4  6  1  0
  6  7  1  0
  7  8  1  0
  8  9  2  0
  9 10  1  0
 10 11  1  0
 10 12  2  0
 12 13  1  0
 13 14  1  0
 13 15  2  0
 15 16  1  0
 16 17  3  0
 15  8  1  0
M  END
>  <Binding energies>  (12) 
[-6.5]

>  <Ligand effiencies>  (12) 
[-0.3611111111111111]

>  <Interactions>  (12) 
["H-B:GLU:543:OE2:9879, V-B:ASN:362:C:8140, V-B:TYR:539:CD1:9842, H-B:ALA:541:N:9860, V-B:MET:535:CE:9804, V-B:ASN:362:CB:8144, H-B:TYR:539:N:9839, V-B:PRO:540:CB:9854, V-B:PRO:540:CA:9852, V-B:TYR:539:CE1:9844, V-B:TYR:539:CZ:9846, V-A:ASP:366:CB:3208, H-B:TYR:539:OH:9847, V-A:TYR:531:CZ:4791, V-A:TYR:531:CE1:4789, V-A:ASP:366:C:3204, V-B:ASN:362:CA:8142"]

$$$$
1m_Grossjean_2025
     RDKit          3D

 20 20  0  0  0  0  0  0  0  0999 V2000
  125.0790  124.2940   56.6270 C   0  0  0  0  0  0  0  0  0  0  0  0
  124.7380  125.3930   57.4600 O   0  0  0  0  0  0  0  0  0  0  0  0
  123.5540  125.4230   58.1050 C   0  0  0  0  0  0  0  0  0  0  0  0
  122.4810  125.7950   57.6190 O   0  0  0  0  0  0  0  0  0  0  0  0
  123.6870  124.9180   59.5560 C   0  0  0  0  0  0  0  0  0  0  0  0
  125.0400  124.4320   59.8690 N   0  0  0  0  0  0  0  0  0  0  0  0
  125.3620  123.5950   60.8730 C   0  0  0  0  0  0  0  0  0  0  0  0
  124.5310  123.1480   61.6670 O   0  0  0  0  0  0  0  0  0  0  0  0
  126.8480  123.2290   60.9790 C   0  0  0  0  0  0  0  0  0  0  0  0
  127.4970  122.2640   59.5720 S   0  0  0  0  0  0  0  0  0  0  0  0
  128.5840  123.3180   58.6360 C   0  0  0  0  0  0  0  0  0  0  0  0
  129.3150  124.1640   59.4060 N   0  0  0  0  0  0  0  0  0  0  0  0
  130.1820  125.0100   58.8030 C   0  0  0  0  0  0  0  0  0  0  0  0
  130.9770  125.9110   59.7290 C   0  0  0  0  0  0  0  0  0  0  0  0
  130.3480  125.0570   57.4200 C   0  0  0  0  0  0  0  0  0  0  0  0
  129.5810  124.2080   56.6150 C   0  0  0  0  0  0  0  0  0  0  0  0
  129.7680  124.2880   55.1010 C   0  0  0  0  0  0  0  0  0  0  0  0
  128.6680  123.3160   57.2230 C   0  0  0  0  0  0  0  0  0  0  0  0
  127.8190  122.4540   56.3960 C   0  0  0  0  0  0  0  0  0  0  0  0
  127.1500  121.7730   55.7430 N   0  0  0  0  0  0  0  0  0  0  0  0
  1  2  1  0
  2  3  1  0
  3  4  2  0
  3  5  1  0
  5  6  1  0
  6  7  1  0
  7  8  2  0
  7  9  1  0
  9 10  1  0
 10 11  1  0
 11 12  2  0
 12 13  1  0
 13 14  1  0
 13 15  2  0
 15 16  1  0
 16 17  1  0
 16 18  2  0
 18 19  1  0
 19 20  3  0
 18 11  1  0
M  END
>  <Binding energies>  (13) 
[-6.47]

>  <Ligand effiencies>  (13) 
[-0.3080952380952381]

>  <Interactions>  (13) 
["V-A:ASP:366:CG:3209, V-B:ASN:362:C:8140, V-B:TYR:539:CD1:9842, H-B:ALA:541:N:9860, V-B:LEU:363:CD1:8157, V-B:MET:535:CE:9804, H-B:TYR:539:N:9839, V-B:PRO:540:CB:9854, V-B:PRO:540:CA:9852, V-B:TYR:539:CE1:9844, V-B:TYR:539:CZ:9846, V-B:TYR:539:CE2:9845, V-B:LEU:363:CA:8153, V-B:TYR:531:CE2:9762, V-B:TYR:531:CZ:9763, V-B:ASP:366:CB:8180, V-B:ALA:541:CB:9861, V-B:ASP:366:CG:8181, H-B:TYR:531:OH:9764"]

$$$$
1n_Grossjean_2025
     RDKit          3D

 27 28  0  0  0  0  0  0  0  0999 V2000
  131.9730  132.1550   55.8470 C   0  0  0  0  0  0  0  0  0  0  0  0
  130.6570  132.2220   56.6280 C   0  0  0  0  0  0  0  0  0  0  0  0
  129.7330  133.0450   55.9270 O   0  0  0  0  0  0  0  0  0  0  0  0
  128.6580  132.5090   55.2940 C   0  0  0  0  0  0  0  0  0  0  0  0
  128.2700  132.8780   54.1820 O   0  0  0  0  0  0  0  0  0  0  0  0
  127.9940  131.4130   56.0770 C   0  0  0  0  0  0  0  0  0  0  0  0
  127.9370  130.0930   55.6050 C   0  0  0  0  0  0  0  0  0  0  0  0
  127.3120  129.1010   56.3540 C   0  0  0  0  0  0  0  0  0  0  0  0
  126.7260  129.4050   57.5840 C   0  0  0  0  0  0  0  0  0  0  0  0
  126.1170  128.3280   58.2550 N   0  0  0  0  0  0  0  0  0  0  0  0
  126.5170  127.0430   58.3680 C   0  0  0  0  0  0  0  0  0  0  0  0
  127.5450  126.5700   57.8820 O   0  0  0  0  0  0  0  0  0  0  0  0
  125.5900  126.1290   59.1800 C   0  0  0  0  0  0  0  0  0  0  0  0
  124.2490  125.8420   58.4710 C   0  0  0  0  0  0  0  0  0  0  0  0
  124.1230  124.1830   57.7390 S   0  0  0  0  0  0  0  0  0  0  0  0
  125.7500  123.4600   57.7570 C   0  0  0  0  0  0  0  0  0  0  0  0
  126.2920  123.3140   56.5220 N   0  0  0  0  0  0  0  0  0  0  0  0
  127.5350  122.7890   56.4150 C   0  0  0  0  0  0  0  0  0  0  0  0
  128.0800  122.6650   55.0060 C   0  0  0  0  0  0  0  0  0  0  0  0
  128.2790  122.3860   57.5220 C   0  0  0  0  0  0  0  0  0  0  0  0
  127.7200  122.5140   58.7990 C   0  0  0  0  0  0  0  0  0  0  0  0
  128.5490  122.0540   59.9970 C   0  0  0  0  0  0  0  0  0  0  0  0
  126.4210  123.0550   58.9340 C   0  0  0  0  0  0  0  0  0  0  0  0
  125.7970  123.1500   60.2550 C   0  0  0  0  0  0  0  0  0  0  0  0
  125.3050  123.2230   61.3000 N   0  0  0  0  0  0  0  0  0  0  0  0
  126.7880  130.7200   58.0670 C   0  0  0  0  0  0  0  0  0  0  0  0
  127.4170  131.7110   57.3180 C   0  0  0  0  0  0  0  0  0  0  0  0
  1  2  1  0
  2  3  1  0
  3  4  1  0
  4  5  2  0
  4  6  1  0
  6  7  2  0
  7  8  1  0
  8  9  2  0
  9 10  1  0
 10 11  1  0
 11 12  2  0
 11 13  1  0
 13 14  1  0
 14 15  1  0
 15 16  1  0
 16 17  2  0
 17 18  1  0
 18 19  1  0
 18 20  2  0
 20 21  1  0
 21 22  1  0
 21 23  2  0
 23 24  1  0
 24 25  3  0
  9 26  1  0
 26 27  2  0
 27  6  1  0
 23 16  1  0
M  END
>  <Binding energies>  (14) 
[-8.73]

>  <Ligand effiencies>  (14) 
[-0.3117857142857143]

>  <Interactions>  (14) 
["V-A:TYR:539:CE2:4873, H-B:LYS:534:NZ:9792, V-A:ILE:538:CG2:4860, V-A:PRO:540:CA:4880, V-A:TYR:539:CD2:4871, V-A:LEU:363:CD1:3185, V-A:TYR:539:CE1:4872, V-A:ILE:538:CD1:4862, V-A:TYR:539:CZ:4874, H-A:TYR:539:N:4867, V-A:TYR:539:C:4864, V-A:PRO:540:N:4881, V-A:TYR:539:CG:4869, V-A:TYR:539:CD1:4870, V-B:TYR:539:CD1:9842, V-B:PRO:540:C:9850, V-B:ILE:538:CB:9831, V-B:PRO:540:N:9853, H-B:ALA:541:N:9860, V-B:MET:535:CE:9804, V-B:PRO:540:CB:9854, V-B:ILE:538:CG2:9832, V-B:PRO:540:CA:9852, V-B:TYR:539:CE1:9844, V-B:TYR:539:CZ:9846, V-B:TYR:539:CE2:9845, V-B:TYR:539:C:9836, V-B:ASP:366:CB:8180, V-B:ALA:541:CB:9861, V-B:TYR:539:CD2:9843, H-B:ASP:366:OD1:8182, V-B:ASP:366:CG:8181, H-B:TYR:531:OH:9764, V-B:TYR:539:CG:9841, V-B:ILE:538:CA:9829"]

$$$$
1q_Grossjean_2025
     RDKit          3D

 21 21  0  0  0  0  0  0  0  0999 V2000
  131.6800  127.2660   56.5800 C   0  0  0  0  0  0  0  0  0  0  0  0
  131.6600  126.5070   55.3800 O   0  0  0  0  0  0  0  0  0  0  0  0
  131.4840  125.1640   55.4180 C   0  0  0  0  0  0  0  0  0  0  0  0
  132.2790  124.3250   54.9910 O   0  0  0  0  0  0  0  0  0  0  0  0
  130.1390  124.7230   56.0350 C   0  0  0  0  0  0  0  0  0  0  0  0
  130.2310  124.4500   57.4770 N   0  0  0  0  0  0  0  0  0  0  0  0
  129.3710  124.8830   58.4190 C   0  0  0  0  0  0  0  0  0  0  0  0
  128.3830  125.5750   58.1620 O   0  0  0  0  0  0  0  0  0  0  0  0
  129.6780  124.4510   59.8600 C   0  0  0  0  0  0  0  0  0  0  0  0
  130.0380  122.9600   60.0110 C   0  0  0  0  0  0  0  0  0  0  0  0
  128.6040  121.8490   59.8960 S   0  0  0  0  0  0  0  0  0  0  0  0
  127.5080  122.4670   58.6350 C   0  0  0  0  0  0  0  0  0  0  0  0
  127.9720  122.2720   57.3750 N   0  0  0  0  0  0  0  0  0  0  0  0
  127.2270  122.7020   56.3300 C   0  0  0  0  0  0  0  0  0  0  0  0
  127.8200  122.4640   54.9540 C   0  0  0  0  0  0  0  0  0  0  0  0
  125.9930  123.3280   56.4950 C   0  0  0  0  0  0  0  0  0  0  0  0
  125.4920  123.5110   57.7870 C   0  0  0  0  0  0  0  0  0  0  0  0
  124.1280  124.1840   57.9410 C   0  0  0  0  0  0  0  0  0  0  0  0
  126.2520  123.0680   58.8940 C   0  0  0  0  0  0  0  0  0  0  0  0
  125.7170  123.2000   60.2510 C   0  0  0  0  0  0  0  0  0  0  0  0
  125.2910  123.3060   61.3210 N   0  0  0  0  0  0  0  0  0  0  0  0
  1  2  1  0
  2  3  1  0
  3  4  2  0
  3  5  1  0
  5  6  1  0
  6  7  1  0
  7  8  2  0
  7  9  1  0
  9 10  1  0
 10 11  1  0
 11 12  1  0
 12 13  2  0
 13 14  1  0
 14 15  1  0
 14 16  2  0
 16 17  1  0
 17 18  1  0
 17 19  2  0
 19 20  1  0
 20 21  3  0
 19 12  1  0
M  END
>  <Binding energies>  (15) 
[-6.56]

>  <Ligand effiencies>  (15) 
[-0.29818181818181816]

>  <Interactions>  (15) 
["V-B:TYR:539:CD1:9842, V-B:PRO:540:C:9850, V-B:ILE:538:CB:9831, V-B:PRO:540:N:9853, H-B:ALA:541:N:9860, V-B:LEU:363:CD1:8157, V-B:MET:535:CE:9804, V-B:PRO:540:CB:9854, V-B:ILE:538:CG2:9832, V-B:PRO:540:CA:9852, V-B:TYR:539:CE1:9844, V-B:TYR:539:CZ:9846, V-B:TYR:539:CE2:9845, V-B:LEU:363:CA:8153, V-B:TYR:539:C:9836, V-B:TYR:539:CD2:9843, V-A:ASP:366:CB:3208, H-A:TYR:531:OH:4792, H-B:TYR:539:OH:9847, V-A:TYR:531:CZ:4791, V-B:ILE:538:CA:9829"]

$$$$
2a_Grossjean_2025
     RDKit          3D

 29 30  0  0  0  0  0  0  0  0999 V2000
  132.6160  131.7740   57.0690 C   0  0  0  0  0  0  0  0  0  0  0  0
  131.9910  132.1840   55.7330 C   0  0  0  0  0  0  0  0  0  0  0  0
  130.8430  132.9890   55.9780 O   0  0  0  0  0  0  0  0  0  0  0  0
  129.5930  132.5190   55.7330 C   0  0  0  0  0  0  0  0  0  0  0  0
  128.6540  133.2360   55.3730 O   0  0  0  0  0  0  0  0  0  0  0  0
  129.4720  131.0340   55.9240 C   0  0  0  0  0  0  0  0  0  0  0  0
  129.2940  130.1600   54.8410 C   0  0  0  0  0  0  0  0  0  0  0  0
  129.1840  128.7890   55.0520 C   0  0  0  0  0  0  0  0  0  0  0  0
  129.2410  128.2640   56.3440 C   0  0  0  0  0  0  0  0  0  0  0  0
  129.1040  126.8670   56.4400 N   0  0  0  0  0  0  0  0  0  0  0  0
  129.9580  125.8840   56.0800 C   0  0  0  0  0  0  0  0  0  0  0  0
  131.0570  126.0500   55.5510 O   0  0  0  0  0  0  0  0  0  0  0  0
  129.4800  124.4560   56.3660 C   0  0  0  0  0  0  0  0  0  0  0  0
  127.6690  124.3200   56.5290 S   0  0  0  0  0  0  0  0  0  0  0  0
  127.2510  123.7570   58.1750 C   0  0  0  0  0  0  0  0  0  0  0  0
  128.2230  123.0680   58.8260 N   0  0  0  0  0  0  0  0  0  0  0  0
  127.9720  122.6010   60.0690 C   0  0  0  0  0  0  0  0  0  0  0  0
  129.0970  121.8180   60.7210 C   0  0  0  0  0  0  0  0  0  0  0  0
  126.7570  122.8040   60.7170 C   0  0  0  0  0  0  0  0  0  0  0  0
  125.7410  123.5210   60.0670 C   0  0  0  0  0  0  0  0  0  0  0  0
  124.4020  123.7390   60.7980 C   0  0  0  0  0  0  0  0  0  0  0  0
  124.1740  125.0430   60.9570 F   0  0  0  0  0  0  0  0  0  0  0  0
  123.4050  123.2070   60.0890 F   0  0  0  0  0  0  0  0  0  0  0  0
  124.3790  123.1760   62.0090 F   0  0  0  0  0  0  0  0  0  0  0  0
  125.9900  124.0140   58.7600 C   0  0  0  0  0  0  0  0  0  0  0  0
  124.9620  124.7660   58.0340 C   0  0  0  0  0  0  0  0  0  0  0  0
  124.1510  125.3610   57.4600 N   0  0  0  0  0  0  0  0  0  0  0  0
  129.4270  129.1310   57.4300 C   0  0  0  0  0  0  0  0  0  0  0  0
  129.5410  130.5020   57.2170 C   0  0  0  0  0  0  0  0  0  0  0  0
  1  2  1  0
  2  3  1  0
  3  4  1  0
  4  5  2  0
  4  6  1  0
  6  7  2  0
  7  8  1  0
  8  9  2  0
  9 10  1  0
 10 11  1  0
 11 12  2  0
 11 13  1  0
 13 14  1  0
 14 15  1  0
 15 16  2  0
 16 17  1  0
 17 18  1  0
 17 19  2  0
 19 20  1  0
 20 21  1  0
 21 22  1  0
 21 23  1  0
 21 24  1  0
 20 25  2  0
 25 26  1  0
 26 27  3  0
  9 28  1  0
 28 29  2  0
 29  6  1  0
 25 15  1  0
M  END
>  <Binding energies>  (16) 
[-7.73]

>  <Ligand effiencies>  (16) 
[-0.25766666666666665]

>  <Interactions>  (16) 
["V-B:GLU:543:CG:9876, V-B:ARG:545:CZ:9895, V-B:GLU:543:CD:9877, V-A:ILE:538:CG2:4860, V-A:PRO:540:CA:4880, V-A:PRO:540:CB:4882, V-A:LEU:363:CD1:3185, V-A:ILE:538:CD1:4862, H-A:TYR:539:N:4867, V-A:TYR:539:C:4864, V-A:PRO:540:N:4881, V-B:ASN:362:C:8140, V-B:PRO:540:C:9850, V-B:MET:535:CE:9804, V-B:ASN:362:CB:8144, V-B:PRO:540:CB:9854, V-B:PRO:540:CA:9852, V-B:TYR:539:CE1:9844, V-B:TYR:539:CZ:9846, V-B:TYR:539:CE2:9845, V-B:LEU:363:CB:8155, V-B:LEU:363:CA:8153, V-B:ALA:541:CA:9859, V-B:ALA:541:CB:9861, V-B:TYR:539:CD2:9843, H-A:TYR:531:OH:4792, V-A:TYR:531:CE2:4790, V-B:ASP:366:CG:8181, H-B:TYR:531:OH:9764, V-B:ASN:362:CG:8145, V-B:ALA:541:C:9857"]

$$$$
2b_Grossjean_2025
     RDKit          3D

 28 29  0  0  0  0  0  0  0  0999 V2000
  128.1620  122.5980   54.4150 C   0  0  0  0  0  0  0  0  0  0  0  0
  127.2610  122.0470   55.3660 O   0  0  0  0  0  0  0  0  0  0  0  0
  127.4210  122.2750   56.6950 C   0  0  0  0  0  0  0  0  0  0  0  0
  127.8170  121.4170   57.4900 O   0  0  0  0  0  0  0  0  0  0  0  0
  127.0640  123.6750   57.1030 C   0  0  0  0  0  0  0  0  0  0  0  0
  128.0350  124.6770   57.2450 C   0  0  0  0  0  0  0  0  0  0  0  0
  127.6710  125.9650   57.6270 C   0  0  0  0  0  0  0  0  0  0  0  0
  126.3350  126.2800   57.8690 C   0  0  0  0  0  0  0  0  0  0  0  0
  126.0790  127.6100   58.2550 N   0  0  0  0  0  0  0  0  0  0  0  0
  126.4460  128.7660   57.6620 C   0  0  0  0  0  0  0  0  0  0  0  0
  127.1270  128.8580   56.6400 O   0  0  0  0  0  0  0  0  0  0  0  0
  125.9680  130.0410   58.3650 C   0  0  0  0  0  0  0  0  0  0  0  0
  126.9960  131.4970   57.9840 S   0  0  0  0  0  0  0  0  0  0  0  0
  128.7270  131.0880   58.1670 C   0  0  0  0  0  0  0  0  0  0  0  0
  129.0350  130.2870   59.2190 N   0  0  0  0  0  0  0  0  0  0  0  0
  130.3260  129.9420   59.4210 C   0  0  0  0  0  0  0  0  0  0  0  0
  130.5880  129.0560   60.6240 C   0  0  0  0  0  0  0  0  0  0  0  0
  131.3560  130.3670   58.5880 C   0  0  0  0  0  0  0  0  0  0  0  0
  131.0610  131.1900   57.4900 C   0  0  0  0  0  0  0  0  0  0  0  0
  132.2120  131.6480   56.5760 C   0  0  0  0  0  0  0  0  0  0  0  0
  131.8290  131.5950   55.2990 F   0  0  0  0  0  0  0  0  0  0  0  0
  132.5620  132.9010   56.8700 F   0  0  0  0  0  0  0  0  0  0  0  0
  133.3030  130.8890   56.6980 F   0  0  0  0  0  0  0  0  0  0  0  0
  129.7110  131.5660   57.2700 C   0  0  0  0  0  0  0  0  0  0  0  0
  129.3450  132.4280   56.1420 C   0  0  0  0  0  0  0  0  0  0  0  0
  129.0570  133.1090   55.2520 N   0  0  0  0  0  0  0  0  0  0  0  0
  125.3580  125.2830   57.7370 C   0  0  0  0  0  0  0  0  0  0  0  0
  125.7230  123.9950   57.3570 C   0  0  0  0  0  0  0  0  0  0  0  0
  1  2  1  0
  2  3  1  0
  3  4  2  0
  3  5  1  0
  5  6  2  0
  6  7  1  0
  7  8  2  0
  8  9  1  0
  9 10  1  0
 10 11  2  0
 10 12  1  0
 12 13  1  0
 13 14  1  0
 14 15  2  0
 15 16  1  0
 16 17  1  0
 16 18  2  0
 18 19  1  0
 19 20  1  0
 20 21  1  0
 20 22  1  0
 20 23  1  0
 19 24  2  0
 24 25  1  0
 25 26  3  0
  8 27  1  0
 27 28  2  0
 28  5  1  0
 24 14  1  0
M  END
>  <Binding energies>  (17) 
[-7.31]

>  <Ligand effiencies>  (17) 
[-0.25206896551724134]

>  <Interactions>  (17) 
["V-A:ILE:538:CG2:4860, V-A:PRO:540:CA:4880, V-A:PRO:540:CG:4883, V-A:PRO:540:CB:4882, V-A:TYR:539:CD2:4871, V-A:LEU:363:CD1:3185, V-A:ILE:538:CD1:4862, H-A:TYR:539:N:4867, V-A:PRO:540:CD:4884, V-A:TYR:539:C:4864, V-A:PRO:540:N:4881, V-A:LEU:363:CA:3181, V-B:TYR:539:CD1:9842, V-B:ILE:538:CB:9831, V-B:PRO:540:N:9853, V-B:MET:535:CE:9804, H-B:TYR:539:N:9839, V-B:ILE:538:CG2:9832, V-B:TYR:539:CE1:9844, V-B:TYR:539:C:9836, V-B:ASP:366:CB:8180, V-A:TYR:531:CE2:4790, V-A:TYR:531:CZ:4791, H-B:ASP:366:OD1:8182, V-B:ASP:366:CG:8181, H-B:TYR:531:OH:9764, V-A:LEU:363:CB:3183, V-B:ILE:538:CA:9829"]

$$$$
2c_Grossjean_2025
     RDKit          3D

 26 27  0  0  0  0  0  0  0  0999 V2000
  132.7430  131.0730   61.3010 C   0  0  0  0  0  0  0  0  0  0  0  0
  133.3370  131.2780   60.0230 O   0  0  0  0  0  0  0  0  0  0  0  0
  132.5310  131.3000   58.9020 C   0  0  0  0  0  0  0  0  0  0  0  0
  133.1810  131.3570   57.6690 C   0  0  0  0  0  0  0  0  0  0  0  0
  132.4540  131.3850   56.4820 C   0  0  0  0  0  0  0  0  0  0  0  0
  131.0520  131.3660   56.5200 C   0  0  0  0  0  0  0  0  0  0  0  0
  130.2340  131.3730   55.3750 N   0  0  0  0  0  0  0  0  0  0  0  0
  129.3230  132.2950   54.9960 C   0  0  0  0  0  0  0  0  0  0  0  0
  129.0180  133.2910   55.6550 O   0  0  0  0  0  0  0  0  0  0  0  0
  128.6260  132.0030   53.6590 C   0  0  0  0  0  0  0  0  0  0  0  0
  127.6400  130.4660   53.6060 S   0  0  0  0  0  0  0  0  0  0  0  0
  127.0630  130.0730   55.2520 C   0  0  0  0  0  0  0  0  0  0  0  0
  125.9110  130.6830   55.6330 N   0  0  0  0  0  0  0  0  0  0  0  0
  125.4200  130.4400   56.8670 C   0  0  0  0  0  0  0  0  0  0  0  0
  124.1410  131.1730   57.2230 C   0  0  0  0  0  0  0  0  0  0  0  0
  126.0440  129.5790   57.7680 C   0  0  0  0  0  0  0  0  0  0  0  0
  127.2300  128.9320   57.3940 C   0  0  0  0  0  0  0  0  0  0  0  0
  127.9060  127.9810   58.4000 C   0  0  0  0  0  0  0  0  0  0  0  0
  129.1380  128.4120   58.6780 F   0  0  0  0  0  0  0  0  0  0  0  0
  127.1990  127.9300   59.5290 F   0  0  0  0  0  0  0  0  0  0  0  0
  128.0130  126.7330   57.9370 F   0  0  0  0  0  0  0  0  0  0  0  0
  127.7590  129.1820   56.1020 C   0  0  0  0  0  0  0  0  0  0  0  0
  128.9980  128.5330   55.6580 C   0  0  0  0  0  0  0  0  0  0  0  0
  129.9750  128.0210   55.3090 N   0  0  0  0  0  0  0  0  0  0  0  0
  130.3970  131.2930   57.7500 C   0  0  0  0  0  0  0  0  0  0  0  0
  131.1280  131.2650   58.9340 C   0  0  0  0  0  0  0  0  0  0  0  0
  1  2  1  0
  2  3  1  0
  3  4  2  0
  4  5  1  0
  5  6  2  0
  6  7  1  0
  7  8  1  0
  8  9  2  0
  8 10  1  0
 10 11  1  0
 11 12  1  0
 12 13  2  0
 13 14  1  0
 14 15  1  0
 14 16  2  0
 16 17  1  0
 17 18  1  0
 18 19  1  0
 18 20  1  0
 18 21  1  0
 17 22  2  0
 22 23  1  0
 23 24  3  0
  6 25  1  0
 25 26  2  0
 26  3  1  0
 22 12  1  0
M  END
>  <Binding energies>  (18) 
[-6.92]

>  <Ligand effiencies>  (18) 
[-0.2562962962962963]

>  <Interactions>  (18) 
["V-A:GLU:543:CD:4905, V-A:TYR:539:CE2:4873, H-B:LYS:534:NZ:9792, V-A:PRO:540:CA:4880, V-A:PRO:540:CB:4882, H-A:TYR:539:OH:4875, V-A:LEU:363:CD1:3185, V-A:ILE:538:CD1:4862, V-A:TYR:539:CZ:4874, H-A:TYR:539:N:4867, V-A:ASN:362:CB:3172, V-A:LEU:363:CA:3181, V-A:ILE:538:CA:4857, V-B:MET:535:CE:9804, V-B:TYR:531:CZ:9763, V-B:ASP:366:CB:8180, H-A:TYR:531:OH:4792, V-A:TYR:531:CE2:4790, V-A:TYR:531:CZ:4791, H-B:TYR:531:OH:9764, V-B:ILE:369:CG2:8205, V-A:LEU:363:CB:3183, V-B:ASP:366:C:8176, H-A:LEU:363:N:3182"]

$$$$
2d_Ghoteimi_2023
     RDKit          3D

 38 42  0  0  0  0  0  0  0  0999 V2000
  124.5670  130.0140   63.0950 C   0  0  0  0  0  0  0  0  0  0  0  0
  123.7910  130.3050   64.2480 O   0  0  0  0  0  0  0  0  0  0  0  0
  124.0890  129.7400   65.4360 C   0  0  0  0  0  0  0  0  0  0  0  0
  123.4760  129.9260   66.4910 O   0  0  0  0  0  0  0  0  0  0  0  0
  125.3050  128.8080   65.3210 C   0  0  0  0  0  0  0  0  0  0  0  0
  126.8370  129.6550   65.8380 S   0  0  0  0  0  0  0  0  0  0  0  0
  128.0680  128.4180   66.1930 C   0  0  0  0  0  0  0  0  0  0  0  0
  128.2200  128.1790   67.5180 N   0  0  0  0  0  0  0  0  0  0  0  0
  129.1310  127.2640   67.9350 C   0  0  0  0  0  0  0  0  0  0  0  0
  129.2550  127.0670   69.4110 C   0  0  0  0  0  0  0  0  0  0  0  0
  130.2930  127.6740   70.1260 C   0  0  0  0  0  0  0  0  0  0  0  0
  130.4150  127.4950   71.5020 C   0  0  0  0  0  0  0  0  0  0  0  0
  129.4950  126.7110   72.2140 C   0  0  0  0  0  0  0  0  0  0  0  0
  129.6130  126.5060   73.5940 N   0  0  0  0  0  0  0  0  0  0  0  0
  128.5850  126.9900   74.5370 C   0  0  0  0  0  0  0  0  0  0  0  0
  129.0550  127.0100   76.0060 C   0  0  0  0  0  0  0  0  0  0  0  0
  129.5200  125.7230   76.3830 O   0  0  0  0  0  0  0  0  0  0  0  0
  130.6150  125.3090   75.5820 C   0  0  0  0  0  0  0  0  0  0  0  0
  130.1940  125.2460   74.0990 C   0  0  0  0  0  0  0  0  0  0  0  0
  128.4640  126.0930   71.4920 C   0  0  0  0  0  0  0  0  0  0  0  0
  128.3440  126.2700   70.1160 C   0  0  0  0  0  0  0  0  0  0  0  0
  129.9140  126.5580   67.0180 C   0  0  0  0  0  0  0  0  0  0  0  0
  129.7530  126.7610   65.6420 C   0  0  0  0  0  0  0  0  0  0  0  0
  130.6050  125.9510   64.7200 C   0  0  0  0  0  0  0  0  0  0  0  0
  131.9850  125.8840   64.9160 C   0  0  0  0  0  0  0  0  0  0  0  0
  132.7870  125.1220   64.0710 C   0  0  0  0  0  0  0  0  0  0  0  0
  132.2280  124.4060   63.0000 C   0  0  0  0  0  0  0  0  0  0  0  0
  133.0110  123.6240   62.1460 N   0  0  0  0  0  0  0  0  0  0  0  0
  133.0760  123.8960   60.6970 C   0  0  0  0  0  0  0  0  0  0  0  0
  134.2450  123.1790   59.9880 C   0  0  0  0  0  0  0  0  0  0  0  0
  134.1830  121.7840   60.2400 O   0  0  0  0  0  0  0  0  0  0  0  0
  134.2660  121.4970   61.6280 C   0  0  0  0  0  0  0  0  0  0  0  0
  133.0950  122.1690   62.3770 C   0  0  0  0  0  0  0  0  0  0  0  0
  130.8390  124.4640   62.8220 C   0  0  0  0  0  0  0  0  0  0  0  0
  130.0380  125.2260   63.6680 C   0  0  0  0  0  0  0  0  0  0  0  0
  128.7990  127.7150   65.2080 C   0  0  0  0  0  0  0  0  0  0  0  0
  128.5810  127.9500   63.7770 C   0  0  0  0  0  0  0  0  0  0  0  0
  128.4110  128.1320   62.6460 N   0  0  0  0  0  0  0  0  0  0  0  0
  1  2  1  0
  2  3  1  0
  3  4  2  0
  3  5  1  0
  5  6  1  0
  6  7  1  0
  7  8  2  0
  8  9  1  0
  9 10  1  0
 10 11  2  0
 11 12  1  0
 12 13  2  0
 13 14  1  0
 14 15  1  0
 15 16  1  0
 16 17  1  0
 17 18  1  0
 18 19  1  0
 13 20  1  0
 20 21  2  0
  9 22  2  0
 22 23  1  0
 23 24  1  0
 24 25  2  0
 25 26  1  0
 26 27  2  0
 27 28  1  0
 28 29  1  0
 29 30  1  0
 30 31  1  0
 31 32  1  0
 32 33  1  0
 27 34  1  0
 34 35  2  0
 23 36  2  0
 36 37  1  0
 37 38  3  0
 36  7  1  0
 21 10  1  0
 35 24  1  0
 19 14  1  0
 33 28  1  0
M  END
>  <Binding energies>  (19) 
[-9.62]

>  <Ligand effiencies>  (19) 
[-0.2531578947368421]

>  <Interactions>  (19) 
["V-B:HIS:456:CE1:9038, V-B:ARG:545:CZ:9895, V-B:GLU:543:CD:9877, V-A:GLU:543:CD:4905, H-B:GLY:454:N:9018, H-B:TYR:484:OH:9316, V-B:ARG:545:CD:9892, V-A:HIS:456:CE1:4066, V-A:ASP:366:CG:3209, V-A:LEU:475:CD1:4254, H-B:TYR:539:OH:9847, V-A:GLY:454:CA:4045, V-B:ASP:366:CG:8181, H-B:ILE:455:N:9023, V-B:LYS:547:CE:9919, V-A:LYS:547:CE:4947, V-B:LYS:547:CD:9918, H-B:HIS:456:ND1:9035, V-A:ARG:545:CZ:4923, V-A:HIS:456:CD2:4064, V-A:ILE:369:CG2:3233, V-A:ASP:366:CA:3206, V-A:ILE:369:CG1:3234, V-A:ILE:369:CB:3232, H-B:LYS:547:NZ:9920"]

$$$$
2d_Grossjean_2025
     RDKit          3D

 24 25  0  0  0  0  0  0  0  0999 V2000
  124.1530  131.1840   57.0570 C   0  0  0  0  0  0  0  0  0  0  0  0
  125.4340  130.4350   56.7430 C   0  0  0  0  0  0  0  0  0  0  0  0
  125.9990  129.5430   57.6510 C   0  0  0  0  0  0  0  0  0  0  0  0
  127.1820  128.8700   57.3120 C   0  0  0  0  0  0  0  0  0  0  0  0
  127.7870  127.8790   58.3260 C   0  0  0  0  0  0  0  0  0  0  0  0
  127.8080  126.6520   57.8070 F   0  0  0  0  0  0  0  0  0  0  0  0
  129.0350  128.2410   58.6310 F   0  0  0  0  0  0  0  0  0  0  0  0
  127.0970  127.8210   59.4660 F   0  0  0  0  0  0  0  0  0  0  0  0
  127.7710  129.1290   56.0480 C   0  0  0  0  0  0  0  0  0  0  0  0
  128.9820  128.4180   55.6280 C   0  0  0  0  0  0  0  0  0  0  0  0
  129.9360  127.8550   55.2960 N   0  0  0  0  0  0  0  0  0  0  0  0
  127.1400  130.0700   55.2010 C   0  0  0  0  0  0  0  0  0  0  0  0
  127.7600  130.5370   53.5960 S   0  0  0  0  0  0  0  0  0  0  0  0
  128.6220  132.1370   53.7440 C   0  0  0  0  0  0  0  0  0  0  0  0
  129.3350  132.3120   55.0880 C   0  0  0  0  0  0  0  0  0  0  0  0
  129.0430  133.2740   55.7990 O   0  0  0  0  0  0  0  0  0  0  0  0
  130.2720  131.3840   55.3770 N   0  0  0  0  0  0  0  0  0  0  0  0
  131.0850  131.2690   56.5210 C   0  0  0  0  0  0  0  0  0  0  0  0
  130.4170  131.0440   57.7270 C   0  0  0  0  0  0  0  0  0  0  0  0
  131.1340  130.9220   58.9140 C   0  0  0  0  0  0  0  0  0  0  0  0
  132.5230  131.0340   58.8950 C   0  0  0  0  0  0  0  0  0  0  0  0
  133.1980  131.2710   57.7010 C   0  0  0  0  0  0  0  0  0  0  0  0
  132.4840  131.3920   56.5130 C   0  0  0  0  0  0  0  0  0  0  0  0
  125.9860  130.6960   55.5360 N   0  0  0  0  0  0  0  0  0  0  0  0
  1  2  1  0
  2  3  2  0
  3  4  1  0
  4  5  1  0
  5  6  1  0
  5  7  1  0
  5  8  1  0
  4  9  2  0
  9 10  1  0
 10 11  3  0
  9 12  1  0
 12 13  1  0
 13 14  1  0
 14 15  1  0
 15 16  2  0
 15 17  1  0
 17 18  1  0
 18 19  2  0
 19 20  1  0
 20 21  2  0
 21 22  1  0
 22 23  2  0
 12 24  2  0
 24  2  1  0
 23 18  1  0
M  END
>  <Binding energies>  (20) 
[-6.86]

>  <Ligand effiencies>  (20) 
[-0.27440000000000003]

>  <Interactions>  (20) 
["V-A:TYR:539:CE2:4873, H-B:LYS:534:NZ:9792, V-A:PRO:540:CA:4880, V-A:PRO:540:CB:4882, H-A:TYR:539:OH:4875, V-A:LEU:363:CD1:3185, V-A:TYR:539:CE1:4872, V-A:ILE:538:CD1:4862, V-A:TYR:539:CZ:4874, H-A:TYR:539:N:4867, V-A:LEU:363:CA:3181, V-A:ILE:538:CA:4857, V-B:MET:535:CE:9804, V-B:TYR:531:CZ:9763, V-B:ASP:366:CB:8180, H-A:TYR:531:OH:4792, V-A:TYR:531:CE2:4790, V-A:TYR:531:CZ:4791, H-B:TYR:531:OH:9764, V-A:LEU:363:CB:3183, V-B:TYR:531:CE1:9761, V-B:ASP:366:C:8176"]

$$$$
2e_Grossjean_2025
     RDKit          3D

 25 26  0  0  0  0  0  0  0  0999 V2000
  130.3980  130.6500   60.1790 C   0  0  0  0  0  0  0  0  0  0  0  0
  131.1490  130.9310   58.8910 C   0  0  0  0  0  0  0  0  0  0  0  0
  132.5430  131.0340   58.8650 C   0  0  0  0  0  0  0  0  0  0  0  0
  133.1670  131.2830   57.6410 C   0  0  0  0  0  0  0  0  0  0  0  0
  132.3920  131.4220   56.4870 C   0  0  0  0  0  0  0  0  0  0  0  0
  131.0000  131.3170   56.5870 C   0  0  0  0  0  0  0  0  0  0  0  0
  130.2720  131.4230   55.3890 N   0  0  0  0  0  0  0  0  0  0  0  0
  129.3320  132.3370   55.0620 C   0  0  0  0  0  0  0  0  0  0  0  0
  129.0070  133.2970   55.7620 O   0  0  0  0  0  0  0  0  0  0  0  0
  128.6070  132.1020   53.7330 C   0  0  0  0  0  0  0  0  0  0  0  0
  128.0030  130.3910   53.5770 S   0  0  0  0  0  0  0  0  0  0  0  0
  127.3010  129.9880   55.1610 C   0  0  0  0  0  0  0  0  0  0  0  0
  126.1800  130.6840   55.4760 N   0  0  0  0  0  0  0  0  0  0  0  0
  125.6060  130.4720   56.6820 C   0  0  0  0  0  0  0  0  0  0  0  0
  124.3560  131.2810   56.9680 C   0  0  0  0  0  0  0  0  0  0  0  0
  126.1230  129.5740   57.6140 C   0  0  0  0  0  0  0  0  0  0  0  0
  127.2880  128.8540   57.3080 C   0  0  0  0  0  0  0  0  0  0  0  0
  127.8590  127.8820   58.3570 C   0  0  0  0  0  0  0  0  0  0  0  0
  127.1420  127.9470   59.4800 F   0  0  0  0  0  0  0  0  0  0  0  0
  127.8200  126.6330   57.8900 F   0  0  0  0  0  0  0  0  0  0  0  0
  129.1270  128.1530   58.6740 F   0  0  0  0  0  0  0  0  0  0  0  0
  127.8980  129.0610   56.0460 C   0  0  0  0  0  0  0  0  0  0  0  0
  129.1320  128.3610   55.6770 C   0  0  0  0  0  0  0  0  0  0  0  0
  130.1080  127.8090   55.3870 N   0  0  0  0  0  0  0  0  0  0  0  0
  130.3830  131.0660   57.7790 N   0  0  0  0  0  0  0  0  0  0  0  0
  1  2  1  0
  2  3  2  0
  3  4  1  0
  4  5  2  0
  5  6  1  0
  6  7  1  0
  7  8  1  0
  8  9  2  0
  8 10  1  0
 10 11  1  0
 11 12  1  0
 12 13  2  0
 13 14  1  0
 14 15  1  0
 14 16  2  0
 16 17  1  0
 17 18  1  0
 18 19  1  0
 18 20  1  0
 18 21  1  0
 17 22  2  0
 22 23  1  0
 23 24  3  0
  6 25  2  0
 25  2  1  0
 22 12  1  0
M  END
>  <Binding energies>  (21) 
[-6.85]

>  <Ligand effiencies>  (21) 
[-0.26346153846153847]

>  <Interactions>  (21) 
["V-A:TYR:539:CE2:4873, H-B:LYS:534:NZ:9792, V-A:PRO:540:CA:4880, V-A:PRO:540:CB:4882, H-A:TYR:539:OH:4875, V-A:LEU:363:CD1:3185, V-A:TYR:539:CE1:4872, V-A:ILE:538:CD1:4862, V-A:TYR:539:CZ:4874, H-A:TYR:539:N:4867, V-A:LEU:363:CA:3181, V-A:ILE:538:CA:4857, V-B:MET:535:CE:9804, V-B:TYR:531:CZ:9763, H-A:TYR:531:OH:4792, V-A:TYR:531:CZ:4791, H-B:TYR:531:OH:9764, V-A:LEU:363:CB:3183, V-B:TYR:531:CE1:9761"]

$$$$
2f_Grossjean_2025
     RDKit          3D

 24 25  0  0  0  0  0  0  0  0999 V2000
  130.5270  127.1470   55.9850 C   0  0  0  0  0  0  0  0  0  0  0  0
  130.6690  128.1170   57.1430 C   0  0  0  0  0  0  0  0  0  0  0  0
  129.9810  127.9320   58.3390 C   0  0  0  0  0  0  0  0  0  0  0  0
  130.1390  128.8620   59.3780 C   0  0  0  0  0  0  0  0  0  0  0  0
  129.3600  128.6460   60.6900 C   0  0  0  0  0  0  0  0  0  0  0  0
  130.2010  128.3260   61.6750 F   0  0  0  0  0  0  0  0  0  0  0  0
  128.7090  129.7610   61.0210 F   0  0  0  0  0  0  0  0  0  0  0  0
  128.4580  127.6650   60.6000 F   0  0  0  0  0  0  0  0  0  0  0  0
  131.0080  129.9650   59.1750 C   0  0  0  0  0  0  0  0  0  0  0  0
  131.1620  130.9930   60.2070 C   0  0  0  0  0  0  0  0  0  0  0  0
  131.2850  131.8040   61.0240 N   0  0  0  0  0  0  0  0  0  0  0  0
  131.6860  130.0580   57.9360 C   0  0  0  0  0  0  0  0  0  0  0  0
  132.8200  131.3660   57.5130 S   0  0  0  0  0  0  0  0  0  0  0  0
  132.2380  132.1420   55.9670 C   0  0  0  0  0  0  0  0  0  0  0  0
  130.7130  132.2280   55.8150 C   0  0  0  0  0  0  0  0  0  0  0  0
  130.1120  133.2660   56.0950 O   0  0  0  0  0  0  0  0  0  0  0  0
  130.1270  131.0910   55.3820 N   0  0  0  0  0  0  0  0  0  0  0  0
  128.7690  130.8250   55.1270 C   0  0  0  0  0  0  0  0  0  0  0  0
  127.8780  130.1970   56.0170 C   0  0  0  0  0  0  0  0  0  0  0  0
  126.5490  129.9970   55.6390 C   0  0  0  0  0  0  0  0  0  0  0  0
  126.1410  130.4360   54.3790 C   0  0  0  0  0  0  0  0  0  0  0  0
  126.9770  131.0510   53.5050 N   0  0  0  0  0  0  0  0  0  0  0  0
  128.2660  131.2390   53.8880 C   0  0  0  0  0  0  0  0  0  0  0  0
  131.5030  129.1620   56.9360 N   0  0  0  0  0  0  0  0  0  0  0  0
  1  2  1  0
  2  3  2  0
  3  4  1  0
  4  5  1  0
  5  6  1  0
  5  7  1  0
  5  8  1  0
  4  9  2  0
  9 10  1  0
 10 11  3  0
  9 12  1  0
 12 13  1  0
 13 14  1  0
 14 15  1  0
 15 16  2  0
 15 17  1  0
 17 18  1  0
 18 19  2  0
 19 20  1  0
 20 21  2  0
 21 22  1  0
 22 23  2  0
 12 24  2  0
 24  2  1  0
 23 18  1  0
M  END
>  <Binding energies>  (22) 
[-6.79]

>  <Ligand effiencies>  (22) 
[-0.2716]

>  <Interactions>  (22) 
["V-A:GLU:543:CD:4905, H-B:LYS:534:NZ:9792, V-A:ILE:538:CG2:4860, V-A:PRO:540:CA:4880, V-A:PRO:540:CB:4882, H-A:TYR:539:OH:4875, V-A:LEU:363:CD1:3185, V-A:ILE:538:CD1:4862, V-A:TYR:539:CZ:4874, H-A:TYR:539:N:4867, V-A:PRO:540:CD:4884, H-A:ALA:541:N:4888, V-B:MET:535:CE:9804, V-B:TYR:531:CZ:9763, H-A:TYR:531:OH:4792, V-A:TYR:531:CE2:4790, V-B:TYR:531:CE1:9761"]

$$$$
2g_Grossjean_2025
     RDKit          3D

 25 26  0  0  0  0  0  0  0  0999 V2000
  129.1800  121.3770   60.6360 C   0  0  0  0  0  0  0  0  0  0  0  0
  128.1580  122.2130   59.8910 C   0  0  0  0  0  0  0  0  0  0  0  0
  127.0310  122.7270   60.5270 C   0  0  0  0  0  0  0  0  0  0  0  0
  126.1100  123.4890   59.7920 C   0  0  0  0  0  0  0  0  0  0  0  0
  124.8640  124.0410   60.5110 C   0  0  0  0  0  0  0  0  0  0  0  0
  123.7600  123.7260   59.8320 F   0  0  0  0  0  0  0  0  0  0  0  0
  124.7810  123.5190   61.7360 F   0  0  0  0  0  0  0  0  0  0  0  0
  124.8880  125.3690   60.6390 F   0  0  0  0  0  0  0  0  0  0  0  0
  126.3660  123.7190   58.4160 C   0  0  0  0  0  0  0  0  0  0  0  0
  125.4090  124.4600   57.5900 C   0  0  0  0  0  0  0  0  0  0  0  0
  124.6530  125.0450   56.9380 N   0  0  0  0  0  0  0  0  0  0  0  0
  127.5530  123.1830   57.8610 C   0  0  0  0  0  0  0  0  0  0  0  0
  128.0410  123.3970   56.1620 S   0  0  0  0  0  0  0  0  0  0  0  0
  129.6300  124.2950   56.1570 C   0  0  0  0  0  0  0  0  0  0  0  0
  129.9670  125.0100   57.4720 C   0  0  0  0  0  0  0  0  0  0  0  0
  129.8320  126.2290   57.5940 O   0  0  0  0  0  0  0  0  0  0  0  0
  130.4200  124.2180   58.4620 N   0  0  0  0  0  0  0  0  0  0  0  0
  130.7970  124.6660   59.8030 C   0  0  0  0  0  0  0  0  0  0  0  0
  131.9400  123.8760   60.4310 C   0  0  0  0  0  0  0  0  0  0  0  0
  133.2080  123.8990   59.8410 C   0  0  0  0  0  0  0  0  0  0  0  0
  134.2630  123.2090   60.4340 C   0  0  0  0  0  0  0  0  0  0  0  0
  134.0500  122.5080   61.6190 C   0  0  0  0  0  0  0  0  0  0  0  0
  132.7920  122.4930   62.2180 C   0  0  0  0  0  0  0  0  0  0  0  0
  131.7370  123.1820   61.6270 C   0  0  0  0  0  0  0  0  0  0  0  0
  128.4200  122.4300   58.5820 N   0  0  0  0  0  0  0  0  0  0  0  0
  1  2  1  0
  2  3  2  0
  3  4  1  0
  4  5  1  0
  5  6  1  0
  5  7  1  0
  5  8  1  0
  4  9  2  0
  9 10  1  0
 10 11  3  0
  9 12  1  0
 12 13  1  0
 13 14  1  0
 14 15  1  0
 15 16  2  0
 15 17  1  0
 17 18  1  0
 18 19  1  0
 19 20  2  0
 20 21  1  0
 21 22  2  0
 22 23  1  0
 23 24  2  0
 12 25  2  0
 25  2  1  0
 24 19  1  0
M  END
>  <Binding energies>  (23) 
[-6.44]

>  <Ligand effiencies>  (23) 
[-0.2476923076923077]

>  <Interactions>  (23) 
["V-B:GLU:543:CG:9876, V-B:GLU:543:CD:9877, V-A:ASP:366:CG:3209, V-B:ASN:362:C:8140, V-B:PRO:540:C:9850, V-B:MET:535:CE:9804, V-B:ASN:362:CB:8144, V-B:PRO:540:CB:9854, V-B:PRO:540:CA:9852, V-B:TYR:539:CE1:9844, V-B:TYR:539:CZ:9846, V-B:TYR:539:CE2:9845, V-B:LEU:363:CA:8153, V-B:TYR:539:C:9836, V-B:ALA:541:CA:9859, V-B:ALA:541:CB:9861, V-A:LEU:475:CD1:4254, V-B:TYR:539:CD2:9843, V-A:ASP:366:CB:3208, H-B:TYR:539:OH:9847, V-A:GLY:454:CA:4045, V-B:ASP:366:CG:8181, H-B:TYR:531:OH:9764, V-A:ILE:369:CG2:3233, V-A:ASP:366:CA:3206, V-A:ILE:369:CG1:3234, V-A:ILE:369:CB:3232"]

$$$$
2h_Grossjean_2025
     RDKit          3D

 31 32  0  0  0  0  0  0  0  0999 V2000
  133.2230  130.7110   61.0970 C   0  0  0  0  0  0  0  0  0  0  0  0
  133.0410  131.0230   59.7200 O   0  0  0  0  0  0  0  0  0  0  0  0
  131.7790  131.3530   59.2590 C   0  0  0  0  0  0  0  0  0  0  0  0
  130.6180  131.2930   60.0460 C   0  0  0  0  0  0  0  0  0  0  0  0
  129.3810  131.6500   59.5140 C   0  0  0  0  0  0  0  0  0  0  0  0
  129.2750  132.0730   58.1880 C   0  0  0  0  0  0  0  0  0  0  0  0
  127.9110  132.4790   57.6330 C   0  0  0  0  0  0  0  0  0  0  0  0
  126.7850  131.8750   58.3450 N   0  0  0  0  0  0  0  0  0  0  0  0
  125.9430  130.9650   57.8230 C   0  0  0  0  0  0  0  0  0  0  0  0
  125.9850  130.6010   56.6470 O   0  0  0  0  0  0  0  0  0  0  0  0
  124.9080  130.3850   58.7980 C   0  0  0  0  0  0  0  0  0  0  0  0
  123.8800  131.6230   59.6580 S   0  0  0  0  0  0  0  0  0  0  0  0
  124.9600  132.5130   60.7570 C   0  0  0  0  0  0  0  0  0  0  0  0
  125.6040  133.5500   60.1680 N   0  0  0  0  0  0  0  0  0  0  0  0
  126.4640  134.2840   60.9080 C   0  0  0  0  0  0  0  0  0  0  0  0
  127.1540  135.4230   60.1820 C   0  0  0  0  0  0  0  0  0  0  0  0
  126.7120  134.0210   62.2540 C   0  0  0  0  0  0  0  0  0  0  0  0
  126.0390  132.9650   62.8870 C   0  0  0  0  0  0  0  0  0  0  0  0
  126.3190  132.6950   64.3780 C   0  0  0  0  0  0  0  0  0  0  0  0
  126.4900  131.3890   64.5800 F   0  0  0  0  0  0  0  0  0  0  0  0
  127.4160  133.3150   64.8180 F   0  0  0  0  0  0  0  0  0  0  0  0
  125.2950  133.1180   65.1210 F   0  0  0  0  0  0  0  0  0  0  0  0
  125.1270  132.1900   62.1250 C   0  0  0  0  0  0  0  0  0  0  0  0
  124.3560  131.1140   62.7530 C   0  0  0  0  0  0  0  0  0  0  0  0
  123.7460  130.2670   63.2520 N   0  0  0  0  0  0  0  0  0  0  0  0
  130.4240  132.1150   57.3830 C   0  0  0  0  0  0  0  0  0  0  0  0
  130.3280  132.5280   56.0750 O   0  0  0  0  0  0  0  0  0  0  0  0
  129.8450  131.5340   55.1810 C   0  0  0  0  0  0  0  0  0  0  0  0
  131.6740  131.7730   57.9270 C   0  0  0  0  0  0  0  0  0  0  0  0
  132.8040  131.8310   57.1470 O   0  0  0  0  0  0  0  0  0  0  0  0
  133.3940  130.5650   56.8850 C   0  0  0  0  0  0  0  0  0  0  0  0
  1  2  1  0
  2  3  1  0
  3  4  2  0
  4  5  1  0
  5  6  2  0
  6  7  1  0
  7  8  1  0
  8  9  1  0
  9 10  2  0
  9 11  1  0
 11 12  1  0
 12 13  1  0
 13 14  2  0
 14 15  1  0
 15 16  1  0
 15 17  2  0
 17 18  1  0
 18 19  1  0
 19 20  1  0
 19 21  1  0
 19 22  1  0
 18 23  2  0
 23 24  1  0
 24 25  3  0
  6 26  1  0
 26 27  1  0
 27 28  1  0
 26 29  2  0
 29 30  1  0
 30 31  1  0
 29  3  1  0
 23 13  1  0
M  END
>  <Binding energies>  (24) 
[-5.93]

>  <Ligand effiencies>  (24) 
[-0.1853125]

>  <Interactions>  (24) 
["V-B:TYR:484:CZ:9315, H-B:GLY:454:N:9018, V-B:GLY:454:CA:9017, V-A:TYR:539:CE2:4873, V-A:PRO:540:CA:4880, V-A:ASN:362:C:3168, V-A:PRO:540:CB:4882, H-A:TYR:539:OH:4875, V-A:TYR:539:CD2:4871, V-A:LEU:363:CD1:3185, V-A:ILE:538:CD1:4862, V-A:TYR:539:CZ:4874, V-A:ASP:366:CG:3209, H-A:TYR:539:N:4867, V-A:ASN:362:CB:3172, V-A:TYR:539:C:4864, V-A:PRO:540:N:4881, V-A:LEU:363:CA:3181, V-A:TYR:539:CG:4869, V-B:LEU:475:CD2:9227, V-A:ALA:541:CB:4889, V-B:TRP:381:CH2:8340, V-B:ASP:366:CB:8180, V-A:TYR:531:CE2:4790, V-A:TYR:531:CZ:4791, V-B:TYR:484:CE1:9313, V-B:ASP:366:CG:8181, H-B:ARG:545:NH1:9896, H-B:ARG:545:NH2:9897, H-B:TYR:531:OH:9764, V-A:ARG:545:CZ:4923, V-B:ILE:369:CG2:8205, V-A:ASN:362:CA:3170, V-B:LEU:475:CD1:9226, V-B:LEU:475:CG:9225, V-B:GLY:454:C:9015, V-B:LEU:475:CB:9224"]

$$$$
2i_Grossjean_2025
     RDKit          3D

 23 24  0  0  0  0  0  0  0  0999 V2000
  128.2830  132.0660   54.7880 C   0  0  0  0  0  0  0  0  0  0  0  0
  129.0090  131.9760   56.1180 C   0  0  0  0  0  0  0  0  0  0  0  0
  130.3540  131.6240   56.1920 C   0  0  0  0  0  0  0  0  0  0  0  0
  130.9810  131.5570   57.4450 C   0  0  0  0  0  0  0  0  0  0  0  0
  132.4700  131.1650   57.5090 C   0  0  0  0  0  0  0  0  0  0  0  0
  132.5870  129.8540   57.7250 F   0  0  0  0  0  0  0  0  0  0  0  0
  133.0740  131.4700   56.3600 F   0  0  0  0  0  0  0  0  0  0  0  0
  133.1280  131.7930   58.4860 F   0  0  0  0  0  0  0  0  0  0  0  0
  130.2160  131.8530   58.6020 C   0  0  0  0  0  0  0  0  0  0  0  0
  130.8210  131.8000   59.9360 C   0  0  0  0  0  0  0  0  0  0  0  0
  131.2990  131.7580   60.9900 N   0  0  0  0  0  0  0  0  0  0  0  0
  128.8560  132.1990   58.4350 C   0  0  0  0  0  0  0  0  0  0  0  0
  127.7940  132.5840   59.8180 S   0  0  0  0  0  0  0  0  0  0  0  0
  126.9120  131.0660   60.2920 C   0  0  0  0  0  0  0  0  0  0  0  0
  126.4970  131.0730   61.7650 C   0  0  0  0  0  0  0  0  0  0  0  0
  127.0420  131.8630   62.5370 O   0  0  0  0  0  0  0  0  0  0  0  0
  125.5580  130.1670   62.1150 N   0  0  0  0  0  0  0  0  0  0  0  0
  125.0340  129.9670   63.3820 C   0  0  0  0  0  0  0  0  0  0  0  0
  125.6650  129.5610   64.5660 C   0  0  0  0  0  0  0  0  0  0  0  0
  124.6610  129.5360   65.5070 C   0  0  0  0  0  0  0  0  0  0  0  0
  123.4980  129.9120   64.9230 O   0  0  0  0  0  0  0  0  0  0  0  0
  123.7530  130.1870   63.5780 N   0  0  0  0  0  0  0  0  0  0  0  0
  128.2680  132.2600   57.2120 N   0  0  0  0  0  0  0  0  0  0  0  0
  1  2  1  0
  2  3  2  0
  3  4  1  0
  4  5  1  0
  5  6  1  0
  5  7  1  0
  5  8  1  0
  4  9  2  0
  9 10  1  0
 10 11  3  0
  9 12  1  0
 12 13  1  0
 13 14  1  0
 14 15  1  0
 15 16  2  0
 15 17  1  0
 17 18  1  0
 18 19  1  0
 19 20  2  0
 20 21  1  0
 21 22  1  0
 12 23  2  0
 23  2  1  0
 22 18  2  0
M  END
>  <Binding energies>  (25) 
[-7.01]

>  <Ligand effiencies>  (25) 
[-0.2920833333333333]

>  <Interactions>  (25) 
["V-B:HIS:456:CE1:9038, V-B:ARG:545:CZ:9895, H-B:ARG:545:NE:9893, H-B:GLY:454:N:9018, H-B:TYR:484:OH:9316, V-B:ARG:545:CD:9892, V-A:TYR:539:CE2:4873, V-A:PRO:540:CA:4880, V-A:PRO:540:CG:4883, V-A:PRO:540:CB:4882, V-A:LEU:363:CD1:3185, V-A:TYR:539:CE1:4872, V-A:ILE:538:CD1:4862, V-A:TYR:539:CZ:4874, V-A:ASP:366:CG:3209, V-A:TYR:539:C:4864, V-A:PRO:540:N:4881, V-A:LEU:363:CA:3181, H-A:ALA:541:N:4888, V-A:PRO:540:C:4878, V-A:ASP:366:CB:3208, V-A:TYR:531:CE2:4790, V-A:TYR:531:CZ:4791, H-B:ASP:366:OD1:8182, V-B:ASP:366:CG:8181, H-B:ARG:545:NH1:9896, H-B:ARG:545:NH2:9897, V-A:LEU:363:CB:3183, V-A:LEU:363:CG:3184, H-B:ASP:366:OD2:8183"]

$$$$
2k_Grossjean_2025
     RDKit          3D

 28 28  0  0  0  0  0  0  0  0999 V2000
  124.2360  129.5820   65.5180 C   0  0  0  0  0  0  0  0  0  0  0  0
  123.7550  130.2060   64.3370 O   0  0  0  0  0  0  0  0  0  0  0  0
  124.7610  130.9060   63.6170 C   0  0  0  0  0  0  0  0  0  0  0  0
  124.1200  131.7020   62.4730 C   0  0  0  0  0  0  0  0  0  0  0  0
  125.0790  131.8830   61.4410 O   0  0  0  0  0  0  0  0  0  0  0  0
  124.8630  131.0720   60.2920 C   0  0  0  0  0  0  0  0  0  0  0  0
  124.5590  131.9900   59.1010 C   0  0  0  0  0  0  0  0  0  0  0  0
  125.3840  131.5860   58.0190 O   0  0  0  0  0  0  0  0  0  0  0  0
  124.7840  130.6750   57.1100 C   0  0  0  0  0  0  0  0  0  0  0  0
  125.8070  130.3160   56.0150 C   0  0  0  0  0  0  0  0  0  0  0  0
  126.9320  131.2530   55.9550 N   0  0  0  0  0  0  0  0  0  0  0  0
  127.5060  131.7170   54.8290 C   0  0  0  0  0  0  0  0  0  0  0  0
  127.1170  131.4180   53.6980 O   0  0  0  0  0  0  0  0  0  0  0  0
  128.7130  132.6440   55.0290 C   0  0  0  0  0  0  0  0  0  0  0  0
  130.2080  131.8460   55.7110 S   0  0  0  0  0  0  0  0  0  0  0  0
  130.1570  131.9160   57.4960 C   0  0  0  0  0  0  0  0  0  0  0  0
  128.9910  132.3550   58.0350 N   0  0  0  0  0  0  0  0  0  0  0  0
  128.8830  132.4380   59.3800 C   0  0  0  0  0  0  0  0  0  0  0  0
  127.5550  132.9480   59.9030 C   0  0  0  0  0  0  0  0  0  0  0  0
  129.9170  132.0790   60.2400 C   0  0  0  0  0  0  0  0  0  0  0  0
  131.1290  131.6140   59.7060 C   0  0  0  0  0  0  0  0  0  0  0  0
  132.2610  131.2160   60.6720 C   0  0  0  0  0  0  0  0  0  0  0  0
  133.4750  131.4180   60.1570 F   0  0  0  0  0  0  0  0  0  0  0  0
  132.1780  131.9330   61.7940 F   0  0  0  0  0  0  0  0  0  0  0  0
  132.1660  129.9220   60.9780 F   0  0  0  0  0  0  0  0  0  0  0  0
  131.2590  131.5290   58.2960 C   0  0  0  0  0  0  0  0  0  0  0  0
  132.5030  131.0540   57.6830 C   0  0  0  0  0  0  0  0  0  0  0  0
  133.4860  130.6790   57.2000 N   0  0  0  0  0  0  0  0  0  0  0  0
  1  2  1  0
  2  3  1  0
  3  4  1  0
  4  5  1  0
  5  6  1  0
  6  7  1  0
  7  8  1  0
  8  9  1  0
  9 10  1  0
 10 11  1  0
 11 12  1  0
 12 13  2  0
 12 14  1  0
 14 15  1  0
 15 16  1  0
 16 17  2  0
 17 18  1  0
 18 19  1  0
 18 20  2  0
 20 21  1  0
 21 22  1  0
 22 23  1  0
 22 24  1  0
 22 25  1  0
 21 26  2  0
 26 27  1  0
 27 28  3  0
 26 16  1  0
M  END
>  <Binding energies>  (26) 
[-6.16]

>  <Ligand effiencies>  (26) 
[-0.21241379310344827]

>  <Interactions>  (26) 
["V-B:HIS:456:CE1:9038, V-B:ARG:545:CZ:9895, V-A:GLU:543:CD:4905, V-A:GLU:543:CG:4904, H-B:GLY:454:N:9018, V-B:GLY:454:CA:9017, V-B:ARG:545:CD:9892, V-A:TYR:539:CE2:4873, H-B:LYS:534:NZ:9792, V-A:PRO:540:CA:4880, V-A:ASN:362:C:3168, V-A:PRO:540:CB:4882, H-A:TYR:539:OH:4875, V-A:TYR:539:CD2:4871, V-A:TYR:539:CE1:4872, V-A:ILE:538:CD1:4862, V-A:TYR:539:CZ:4874, V-A:ASP:366:CG:3209, V-A:ASN:362:CB:3172, V-A:TYR:539:C:4864, V-A:PRO:540:N:4881, V-A:LEU:363:CA:3181, V-A:ILE:538:CA:4857, V-A:TYR:539:CG:4869, V-A:PRO:540:C:4878, V-A:TYR:539:CD1:4870, V-B:TYR:531:CZ:9763, V-B:ASP:366:CB:8180, H-A:TYR:531:OH:4792, V-A:ALA:541:CA:4887, V-B:ILE:369:CD1:8207, V-B:ASP:366:CG:8181, H-B:ARG:545:NH1:9896, V-B:ILE:369:CG2:8205, V-B:TYR:531:CE1:9761, V-A:ALA:541:C:4885"]

$$$$
3aa_Grossjean_2025
     RDKit          3D

 34 36  0  0  0  0  0  0  0  0999 V2000
  130.6030  132.5310   55.6030 C   0  0  0  0  0  0  0  0  0  0  0  0
  129.1080  132.2500   55.7810 C   0  0  0  0  0  0  0  0  0  0  0  0
  128.5540  131.8290   54.5410 O   0  0  0  0  0  0  0  0  0  0  0  0
  127.3750  131.1570   54.4950 C   0  0  0  0  0  0  0  0  0  0  0  0
  126.5880  131.2270   53.5460 O   0  0  0  0  0  0  0  0  0  0  0  0
  127.1150  130.3300   55.7220 C   0  0  0  0  0  0  0  0  0  0  0  0
  125.9230  130.4390   56.4530 C   0  0  0  0  0  0  0  0  0  0  0  0
  125.7120  129.6540   57.5840 C   0  0  0  0  0  0  0  0  0  0  0  0
  126.6810  128.7420   58.0020 C   0  0  0  0  0  0  0  0  0  0  0  0
  126.3670  127.9950   59.1550 N   0  0  0  0  0  0  0  0  0  0  0  0
  127.1900  127.4070   60.0510 C   0  0  0  0  0  0  0  0  0  0  0  0
  128.4200  127.4050   59.9970 O   0  0  0  0  0  0  0  0  0  0  0  0
  126.4970  126.6840   61.2060 C   0  0  0  0  0  0  0  0  0  0  0  0
  125.3430  125.4110   60.6110 S   0  0  0  0  0  0  0  0  0  0  0  0
  126.2890  124.2660   59.6320 C   0  0  0  0  0  0  0  0  0  0  0  0
  127.3770  123.7750   60.2710 N   0  0  0  0  0  0  0  0  0  0  0  0
  128.1890  122.8910   59.6350 C   0  0  0  0  0  0  0  0  0  0  0  0
  129.3640  122.3820   60.4140 C   0  0  0  0  0  0  0  0  0  0  0  0
  129.3290  121.1130   61.0140 C   0  0  0  0  0  0  0  0  0  0  0  0
  130.4180  120.6330   61.7380 C   0  0  0  0  0  0  0  0  0  0  0  0
  131.5570  121.4180   61.8730 C   0  0  0  0  0  0  0  0  0  0  0  0
  131.6180  122.6780   61.2870 C   0  0  0  0  0  0  0  0  0  0  0  0
  130.5300  123.1540   60.5610 C   0  0  0  0  0  0  0  0  0  0  0  0
  127.9130  122.4720   58.3300 C   0  0  0  0  0  0  0  0  0  0  0  0
  126.8010  122.9810   57.6410 C   0  0  0  0  0  0  0  0  0  0  0  0
  126.5380  122.5040   56.2000 C   0  0  0  0  0  0  0  0  0  0  0  0
  125.3860  121.8420   56.0760 F   0  0  0  0  0  0  0  0  0  0  0  0
  126.4880  123.5480   55.3720 F   0  0  0  0  0  0  0  0  0  0  0  0
  127.5160  121.6870   55.8060 F   0  0  0  0  0  0  0  0  0  0  0  0
  125.9670  123.9150   58.3020 C   0  0  0  0  0  0  0  0  0  0  0  0
  124.8250  124.5230   57.6120 C   0  0  0  0  0  0  0  0  0  0  0  0
  123.9240  125.0030   57.0670 N   0  0  0  0  0  0  0  0  0  0  0  0
  127.8820  128.6370   57.2840 C   0  0  0  0  0  0  0  0  0  0  0  0
  128.0920  129.4240   56.1560 C   0  0  0  0  0  0  0  0  0  0  0  0
  1  2  1  0
  2  3  1  0
  3  4  1  0
  4  5  2  0
  4  6  1  0
  6  7  2  0
  7  8  1  0
  8  9  2  0
  9 10  1  0
 10 11  1  0
 11 12  2  0
 11 13  1  0
 13 14  1  0
 14 15  1  0
 15 16  2  0
 16 17  1  0
 17 18  1  0
 18 19  2  0
 19 20  1  0
 20 21  2  0
 21 22  1  0
 22 23  2  0
 17 24  2  0
 24 25  1  0
 25 26  1  0
 26 27  1  0
 26 28  1  0
 26 29  1  0
 25 30  2  0
 30 31  1  0
 31 32  3  0
  9 33  1  0
 33 34  2  0
 34  6  1  0
 30 15  1  0
 23 18  1  0
M  END
>  <Binding energies>  (27) 
[-8.55]

>  <Ligand effiencies>  (27) 
[-0.2442857142857143]

>  <Interactions>  (27) 
["V-B:GLU:543:CD:9877, V-A:TYR:539:CE2:4873, H-B:LYS:534:NZ:9792, V-A:ILE:538:CG2:4860, H-A:TYR:539:OH:4875, V-A:ILE:538:CD1:4862, V-A:TYR:539:CZ:4874, V-A:TYR:539:C:4864, V-A:PRO:540:N:4881, V-A:ILE:538:CA:4857, V-B:TYR:539:CD1:9842, V-B:ILE:538:CB:9831, V-B:PRO:540:N:9853, V-B:LEU:363:CD1:8157, V-B:MET:535:CE:9804, V-B:PRO:540:CD:9856, V-B:PRO:540:CB:9854, V-B:ILE:538:CG2:9832, V-B:PRO:540:CA:9852, V-B:TYR:539:CE1:9844, V-B:TYR:539:CZ:9846, V-B:TYR:539:CE2:9845, V-B:TYR:539:C:9836, V-B:PRO:540:CG:9855, V-B:ASP:366:CB:8180, V-B:ALA:541:CB:9861, V-A:LEU:475:CD1:4254, V-B:TYR:539:CD2:9843, H-B:ASP:366:OD1:8182, V-B:ASP:366:CG:8181, H-B:ARG:545:NH2:9897, H-B:TYR:531:OH:9764, V-B:TYR:539:CG:9841, V-B:ILE:538:CD1:9834, V-B:ILE:538:CA:9829, V-B:ILE:538:C:9827, V-B:TYR:539:CA:9838, V-B:ILE:538:CG1:9833"]

$$$$
3ad_Grossjean_2025
     RDKit          3D

 29 31  0  0  0  0  0  0  0  0999 V2000
  130.4930  132.1670   60.7820 N   0  0  0  0  0  0  0  0  0  0  0  0
  130.5700  131.2760   60.0480 C   0  0  0  0  0  0  0  0  0  0  0  0
  130.6650  130.1450   59.1200 C   0  0  0  0  0  0  0  0  0  0  0  0
  129.8080  129.0250   59.2530 C   0  0  0  0  0  0  0  0  0  0  0  0
  128.7110  128.9410   60.3310 C   0  0  0  0  0  0  0  0  0  0  0  0
  127.8560  127.9370   60.1230 F   0  0  0  0  0  0  0  0  0  0  0  0
  129.2650  128.7550   61.5310 F   0  0  0  0  0  0  0  0  0  0  0  0
  128.0010  130.0700   60.3530 F   0  0  0  0  0  0  0  0  0  0  0  0
  129.9710  127.9480   58.3680 C   0  0  0  0  0  0  0  0  0  0  0  0
  130.9620  127.9870   57.3820 C   0  0  0  0  0  0  0  0  0  0  0  0
  131.1890  126.8580   56.4200 C   0  0  0  0  0  0  0  0  0  0  0  0
  130.1090  126.1120   55.9220 C   0  0  0  0  0  0  0  0  0  0  0  0
  130.3120  125.0640   55.0290 C   0  0  0  0  0  0  0  0  0  0  0  0
  131.6040  124.7470   54.6200 C   0  0  0  0  0  0  0  0  0  0  0  0
  132.6900  125.4710   55.0970 C   0  0  0  0  0  0  0  0  0  0  0  0
  132.4820  126.5200   55.9900 C   0  0  0  0  0  0  0  0  0  0  0  0
  131.7840  129.0590   57.2620 N   0  0  0  0  0  0  0  0  0  0  0  0
  131.6330  130.1190   58.0910 C   0  0  0  0  0  0  0  0  0  0  0  0
  132.7870  131.4370   57.7820 S   0  0  0  0  0  0  0  0  0  0  0  0
  132.3620  132.1600   56.1690 C   0  0  0  0  0  0  0  0  0  0  0  0
  130.8510  132.1880   55.9290 C   0  0  0  0  0  0  0  0  0  0  0  0
  130.2490  133.2570   56.0290 O   0  0  0  0  0  0  0  0  0  0  0  0
  130.2920  130.9990   55.6170 N   0  0  0  0  0  0  0  0  0  0  0  0
  128.9520  130.6830   55.3270 C   0  0  0  0  0  0  0  0  0  0  0  0
  128.7240  130.1030   54.0750 C   0  0  0  0  0  0  0  0  0  0  0  0
  127.4330  129.7540   53.6860 C   0  0  0  0  0  0  0  0  0  0  0  0
  126.3660  129.9900   54.5470 C   0  0  0  0  0  0  0  0  0  0  0  0
  126.5770  130.5730   55.7930 C   0  0  0  0  0  0  0  0  0  0  0  0
  127.8660  130.9230   56.1870 C   0  0  0  0  0  0  0  0  0  0  0  0
  1  2  3  0
  2  3  1  0
  3  4  2  0
  4  5  1  0
  5  6  1  0
  5  7  1  0
  5  8  1  0
  4  9  1  0
  9 10  2  0
 10 11  1  0
 11 12  2  0
 12 13  1  0
 13 14  2  0
 14 15  1  0
 15 16  2  0
 10 17  1  0
 17 18  2  0
 18 19  1  0
 19 20  1  0
 20 21  1  0
 21 22  2  0
 21 23  1  0
 23 24  1  0
 24 25  2  0
 25 26  1  0
 26 27  2  0
 27 28  1  0
 28 29  2  0
 18  3  1  0
 29 24  1  0
 16 11  1  0
M  END
>  <Binding energies>  (28) 
[-7.86]

>  <Ligand effiencies>  (28) 
[-0.262]

>  <Interactions>  (28) 
["V-A:GLU:543:CD:4905, V-A:TYR:539:CE2:4873, V-A:ILE:538:CG2:4860, V-A:PRO:540:CA:4880, V-A:PRO:540:CB:4882, V-A:LEU:363:CD1:3185, V-A:ILE:538:CD1:4862, V-A:TYR:539:CZ:4874, H-A:TYR:539:N:4867, V-A:PRO:540:CD:4884, V-A:PRO:540:N:4881, H-A:ALA:541:N:4888, V-B:MET:535:CE:9804, V-B:TYR:539:CE1:9844, V-B:TYR:531:CZ:9763, V-A:ASP:366:CB:3208, H-A:TYR:531:OH:4792, V-A:TYR:531:CZ:4791, V-B:TYR:531:CE1:9761, V-A:TYR:531:CE1:4789, V-A:ASN:370:CB:3241, V-A:ASP:366:C:3204, V-A:ASN:370:CG:3242"]

$$$$
3ai_Grossjean_2025
     RDKit          3D

 28 30  0  0  0  0  0  0  0  0999 V2000
  133.4530  130.9910   56.7050 N   0  0  0  0  0  0  0  0  0  0  0  0
  132.4950  131.2760   57.2890 C   0  0  0  0  0  0  0  0  0  0  0  0
  131.2830  131.6380   58.0300 C   0  0  0  0  0  0  0  0  0  0  0  0
  131.1990  131.4250   59.4280 C   0  0  0  0  0  0  0  0  0  0  0  0
  132.3680  130.8540   60.2540 C   0  0  0  0  0  0  0  0  0  0  0  0
  131.9790  129.9170   61.1210 F   0  0  0  0  0  0  0  0  0  0  0  0
  133.2710  130.3020   59.4430 F   0  0  0  0  0  0  0  0  0  0  0  0
  132.9520  131.8260   60.9540 F   0  0  0  0  0  0  0  0  0  0  0  0
  130.0000  131.7430   60.0840 C   0  0  0  0  0  0  0  0  0  0  0  0
  128.9150  132.2560   59.3650 C   0  0  0  0  0  0  0  0  0  0  0  0
  127.6080  132.6020   60.0120 C   0  0  0  0  0  0  0  0  0  0  0  0
  126.8920  131.6390   60.7410 C   0  0  0  0  0  0  0  0  0  0  0  0
  125.6790  131.9550   61.3480 C   0  0  0  0  0  0  0  0  0  0  0  0
  125.1660  133.2430   61.2350 C   0  0  0  0  0  0  0  0  0  0  0  0
  125.8570  134.2160   60.5210 C   0  0  0  0  0  0  0  0  0  0  0  0
  127.0690  133.8970   59.9150 C   0  0  0  0  0  0  0  0  0  0  0  0
  128.9970  132.4500   58.0240 N   0  0  0  0  0  0  0  0  0  0  0  0
  130.1530  132.1730   57.3720 C   0  0  0  0  0  0  0  0  0  0  0  0
  130.0800  132.5120   55.6260 S   0  0  0  0  0  0  0  0  0  0  0  0
  129.3070  131.0750   54.8090 C   0  0  0  0  0  0  0  0  0  0  0  0
  127.7730  131.0400   54.8740 C   0  0  0  0  0  0  0  0  0  0  0  0
  127.0970  131.0690   53.8430 O   0  0  0  0  0  0  0  0  0  0  0  0
  127.2630  130.9780   56.1250 N   0  0  0  0  0  0  0  0  0  0  0  0
  125.9230  130.9280   56.4860 C   0  0  0  0  0  0  0  0  0  0  0  0
  125.4780  131.1170   57.7930 C   0  0  0  0  0  0  0  0  0  0  0  0
  124.1100  130.9890   57.7290 C   0  0  0  0  0  0  0  0  0  0  0  0
  123.7480  130.7360   56.4480 O   0  0  0  0  0  0  0  0  0  0  0  0
  124.9070  130.7000   55.6700 N   0  0  0  0  0  0  0  0  0  0  0  0
  1  2  3  0
  2  3  1  0
  3  4  2  0
  4  5  1  0
  5  6  1  0
  5  7  1  0
  5  8  1  0
  4  9  1  0
  9 10  2  0
 10 11  1  0
 11 12  2  0
 12 13  1  0
 13 14  2  0
 14 15  1  0
 15 16  2  0
 10 17  1  0
 17 18  2  0
 18 19  1  0
 19 20  1  0
 20 21  1  0
 21 22  2  0
 21 23  1  0
 23 24  1  0
 24 25  1  0
 25 26  2  0
 26 27  1  0
 27 28  1  0
 18  3  1  0
 28 24  2  0
 16 11  1  0
M  END
>  <Binding energies>  (29) 
[-7.57]

>  <Ligand effiencies>  (29) 
[-0.2610344827586207]

>  <Interactions>  (29) 
["V-A:GLU:543:CD:4905, V-A:TYR:539:CE2:4873, H-B:LYS:534:NZ:9792, V-A:PRO:540:CA:4880, V-A:ASN:362:C:3168, V-A:PRO:540:CB:4882, H-A:TYR:539:OH:4875, V-A:TYR:539:CD2:4871, V-A:LEU:363:CD1:3185, V-A:ILE:538:CD1:4862, V-A:TYR:539:CZ:4874, V-A:ASP:366:CG:3209, H-A:TYR:539:N:4867, V-A:ASN:362:CB:3172, V-A:TYR:539:C:4864, V-A:PRO:540:N:4881, V-A:LEU:363:CA:3181, V-B:LEU:475:CD2:9227, V-A:PRO:540:C:4878, V-B:ASP:366:CB:8180, V-A:ASP:366:CB:3208, H-A:TYR:531:OH:4792, V-B:ASP:366:CG:8181, H-B:TYR:531:OH:9764, V-B:ILE:369:CG2:8205, V-B:ASP:366:CA:8178, V-B:ASP:366:C:8176"]

$$$$
3aj_Grossjean_2025
     RDKit          3D

 28 30  0  0  0  0  0  0  0  0999 V2000
  131.0710  132.1150   60.8800 N   0  0  0  0  0  0  0  0  0  0  0  0
  131.0870  131.2260   60.1410 C   0  0  0  0  0  0  0  0  0  0  0  0
  131.1050  130.0980   59.2050 C   0  0  0  0  0  0  0  0  0  0  0  0
  130.2810  128.9660   59.4200 C   0  0  0  0  0  0  0  0  0  0  0  0
  129.2990  128.8640   60.6030 C   0  0  0  0  0  0  0  0  0  0  0  0
  128.7490  130.0390   60.9210 F   0  0  0  0  0  0  0  0  0  0  0  0
  128.3080  128.0240   60.3030 F   0  0  0  0  0  0  0  0  0  0  0  0
  129.9330  128.4150   61.6860 F   0  0  0  0  0  0  0  0  0  0  0  0
  130.3700  127.8920   58.5210 C   0  0  0  0  0  0  0  0  0  0  0  0
  131.2590  127.9440   57.4410 C   0  0  0  0  0  0  0  0  0  0  0  0
  131.4010  126.8230   56.4580 C   0  0  0  0  0  0  0  0  0  0  0  0
  132.6590  126.4770   55.9440 C   0  0  0  0  0  0  0  0  0  0  0  0
  132.8000  125.4320   55.0330 C   0  0  0  0  0  0  0  0  0  0  0  0
  131.6770  124.7190   54.6230 C   0  0  0  0  0  0  0  0  0  0  0  0
  130.4190  125.0420   55.1190 C   0  0  0  0  0  0  0  0  0  0  0  0
  130.2840  126.0850   56.0310 C   0  0  0  0  0  0  0  0  0  0  0  0
  132.0510  129.0290   57.2440 N   0  0  0  0  0  0  0  0  0  0  0  0
  131.9660  130.0880   58.0840 C   0  0  0  0  0  0  0  0  0  0  0  0
  133.0620  131.4230   57.6560 S   0  0  0  0  0  0  0  0  0  0  0  0
  132.3780  132.2580   56.1840 C   0  0  0  0  0  0  0  0  0  0  0  0
  130.8550  132.1460   56.0230 C   0  0  0  0  0  0  0  0  0  0  0  0
  130.1340  133.1410   56.1290 O   0  0  0  0  0  0  0  0  0  0  0  0
  130.4060  130.8980   55.7640 N   0  0  0  0  0  0  0  0  0  0  0  0
  129.0850  130.5170   55.5670 C   0  0  0  0  0  0  0  0  0  0  0  0
  128.3770  129.6630   56.2760 N   0  0  0  0  0  0  0  0  0  0  0  0
  127.1500  129.5430   55.8070 C   0  0  0  0  0  0  0  0  0  0  0  0
  126.8410  130.3130   54.6890 C   0  0  0  0  0  0  0  0  0  0  0  0
  128.2400  131.2380   54.2350 S   0  0  0  0  0  0  0  0  0  0  0  0
  1  2  3  0
  2  3  1  0
  3  4  2  0
  4  5  1  0
  5  6  1  0
  5  7  1  0
  5  8  1  0
  4  9  1  0
  9 10  2  0
 10 11  1  0
 11 12  2  0
 12 13  1  0
 13 14  2  0
 14 15  1  0
 15 16  2  0
 10 17  1  0
 17 18  2  0
 18 19  1  0
 19 20  1  0
 20 21  1  0
 21 22  2  0
 21 23  1  0
 23 24  1  0
 24 25  2  0
 25 26  1  0
 26 27  2  0
 27 28  1  0
 18  3  1  0
 28 24  1  0
 16 11  1  0
M  END
>  <Binding energies>  (30) 
[-7.44]

>  <Ligand effiencies>  (30) 
[-0.25655172413793104]

>  <Interactions>  (30) 
["V-A:GLU:543:CD:4905, V-A:ILE:538:CG2:4860, V-A:PRO:540:CA:4880, V-A:PRO:540:CB:4882, V-A:LEU:363:CD1:3185, V-A:ILE:538:CD1:4862, V-A:ASP:366:CG:3209, H-A:TYR:539:N:4867, V-A:PRO:540:CD:4884, V-A:PRO:540:N:4881, H-A:ALA:541:N:4888, V-B:MET:535:CE:9804, V-B:TYR:539:CE1:9844, V-A:ASP:366:CB:3208, H-A:TYR:531:OH:4792, V-A:TYR:531:CZ:4791, V-B:TYR:531:CE1:9761, V-A:ASP:366:CA:3206, V-A:TYR:531:CE1:4789, V-A:ASN:370:CB:3241, V-A:ASP:366:C:3204, V-A:ASN:370:CG:3242"]

$$$$
3ak_Grossjean_2025
     RDKit          3D

 33 34  0  0  0  0  0  0  0  0999 V2000
  133.1220  125.4360   55.3900 C   0  0  0  0  0  0  0  0  0  0  0  0
  132.1490  124.4920   54.9720 O   0  0  0  0  0  0  0  0  0  0  0  0
  130.8880  125.0740   54.6730 C   0  0  0  0  0  0  0  0  0  0  0  0
  130.4540  125.9570   55.8490 C   0  0  0  0  0  0  0  0  0  0  0  0
  130.2650  127.2890   55.3830 O   0  0  0  0  0  0  0  0  0  0  0  0
  129.6150  128.1730   56.2920 C   0  0  0  0  0  0  0  0  0  0  0  0
  128.1270  127.8460   56.5170 C   0  0  0  0  0  0  0  0  0  0  0  0
  127.6780  128.4990   57.6960 O   0  0  0  0  0  0  0  0  0  0  0  0
  126.4790  129.2420   57.5220 C   0  0  0  0  0  0  0  0  0  0  0  0
  126.4730  129.9250   56.1420 C   0  0  0  0  0  0  0  0  0  0  0  0
  127.5780  130.8660   55.9490 N   0  0  0  0  0  0  0  0  0  0  0  0
  127.8100  131.5960   54.8410 C   0  0  0  0  0  0  0  0  0  0  0  0
  127.0790  131.5550   53.8510 O   0  0  0  0  0  0  0  0  0  0  0  0
  129.0390  132.5200   54.8070 C   0  0  0  0  0  0  0  0  0  0  0  0
  130.5770  131.8630   55.5500 S   0  0  0  0  0  0  0  0  0  0  0  0
  130.4020  131.8680   57.3280 C   0  0  0  0  0  0  0  0  0  0  0  0
  129.2070  132.3030   57.7980 N   0  0  0  0  0  0  0  0  0  0  0  0
  128.9800  132.3490   59.1350 C   0  0  0  0  0  0  0  0  0  0  0  0
  127.6310  132.8420   59.5670 C   0  0  0  0  0  0  0  0  0  0  0  0
  126.4600  132.2130   59.1190 C   0  0  0  0  0  0  0  0  0  0  0  0
  125.2040  132.6640   59.5190 C   0  0  0  0  0  0  0  0  0  0  0  0
  125.1040  133.7540   60.3770 C   0  0  0  0  0  0  0  0  0  0  0  0
  126.2490  134.3940   60.8380 C   0  0  0  0  0  0  0  0  0  0  0  0
  127.5020  133.9400   60.4370 C   0  0  0  0  0  0  0  0  0  0  0  0
  129.9610  131.9370   60.0440 C   0  0  0  0  0  0  0  0  0  0  0  0
  131.2050  131.4810   59.5840 C   0  0  0  0  0  0  0  0  0  0  0  0
  132.2610  131.0370   60.6150 C   0  0  0  0  0  0  0  0  0  0  0  0
  133.4840  131.1630   60.1000 F   0  0  0  0  0  0  0  0  0  0  0  0
  132.1740  131.7910   61.7120 F   0  0  0  0  0  0  0  0  0  0  0  0
  132.1140  129.7650   60.9930 F   0  0  0  0  0  0  0  0  0  0  0  0
  131.4380  131.4440   58.1880 C   0  0  0  0  0  0  0  0  0  0  0  0
  132.7200  130.9770   57.6510 C   0  0  0  0  0  0  0  0  0  0  0  0
  133.7330  130.6100   57.2260 N   0  0  0  0  0  0  0  0  0  0  0  0
  1  2  1  0
  2  3  1  0
  3  4  1  0
  4  5  1  0
  5  6  1  0
  6  7  1  0
  7  8  1  0
  8  9  1  0
  9 10  1  0
 10 11  1  0
 11 12  1  0
 12 13  2  0
 12 14  1  0
 14 15  1  0
 15 16  1  0
 16 17  2  0
 17 18  1  0
 18 19  1  0
 19 20  2  0
 20 21  1  0
 21 22  2  0
 22 23  1  0
 23 24  2  0
 18 25  2  0
 25 26  1  0
 26 27  1  0
 27 28  1  0
 27 29  1  0
 27 30  1  0
 26 31  2  0
 31 32  1  0
 32 33  3  0
 31 16  1  0
 24 19  1  0
M  END
>  <Binding energies>  (31) 
[-7.18]

>  <Ligand effiencies>  (31) 
[-0.2111764705882353]

>  <Interactions>  (31) 
["V-A:GLU:543:CD:4905, V-A:GLU:543:CG:4904, V-A:TYR:539:CE2:4873, H-B:LYS:534:NZ:9792, V-A:PRO:540:CA:4880, V-A:ASN:362:C:3168, V-A:PRO:540:CB:4882, H-A:TYR:539:OH:4875, V-A:TYR:539:CD2:4871, V-A:LEU:363:CD1:3185, V-A:TYR:539:CE1:4872, V-A:ILE:538:CD1:4862, V-A:TYR:539:CZ:4874, V-A:ASP:366:CG:3209, V-A:ASN:362:CB:3172, V-A:TYR:539:C:4864, V-A:PRO:540:N:4881, V-A:LEU:363:CA:3181, V-A:ILE:538:CA:4857, V-B:LEU:475:CD2:9227, V-A:ALA:541:CB:4889, V-A:PRO:540:C:4878, V-B:MET:535:CE:9804, V-B:TYR:531:CZ:9763, V-A:ASP:366:CB:3208, H-A:TYR:531:OH:4792, H-B:TYR:539:OH:9847, V-A:ALA:541:CA:4887, V-B:ILE:369:CG2:8205, V-A:ASP:366:CA:3206, V-A:TYR:531:CE1:4789, V-A:ASN:370:CB:3241, V-A:ASP:366:C:3204, V-A:MET:535:CE:4832, V-A:ALA:541:C:4885"]

$$$$
3bk_Grossjean_2025
     RDKit          3D

 30 31  0  0  0  0  0  0  0  0999 V2000
  133.1180  130.4630   57.5870 C   0  0  0  0  0  0  0  0  0  0  0  0
  132.8650  131.7840   57.1330 O   0  0  0  0  0  0  0  0  0  0  0  0
  131.9580  131.8420   56.0400 C   0  0  0  0  0  0  0  0  0  0  0  0
  130.6140  132.4120   56.5160 C   0  0  0  0  0  0  0  0  0  0  0  0
  129.8890  132.9050   55.3970 O   0  0  0  0  0  0  0  0  0  0  0  0
  128.5430  132.4510   55.3400 C   0  0  0  0  0  0  0  0  0  0  0  0
  128.4200  131.3680   54.2590 C   0  0  0  0  0  0  0  0  0  0  0  0
  127.0710  131.2940   53.8190 O   0  0  0  0  0  0  0  0  0  0  0  0
  126.3040  130.2960   54.4810 C   0  0  0  0  0  0  0  0  0  0  0  0
  127.2190  129.4740   55.3990 C   0  0  0  0  0  0  0  0  0  0  0  0
  126.4960  128.8940   56.5330 N   0  0  0  0  0  0  0  0  0  0  0  0
  127.0290  128.0940   57.4710 C   0  0  0  0  0  0  0  0  0  0  0  0
  128.2170  127.7650   57.4960 O   0  0  0  0  0  0  0  0  0  0  0  0
  126.0820  127.6060   58.5700 C   0  0  0  0  0  0  0  0  0  0  0  0
  125.5260  125.8960   58.2810 S   0  0  0  0  0  0  0  0  0  0  0  0
  126.9310  124.8010   58.3930 C   0  0  0  0  0  0  0  0  0  0  0  0
  127.9730  125.0870   57.5710 N   0  0  0  0  0  0  0  0  0  0  0  0
  129.0850  124.3050   57.5860 C   0  0  0  0  0  0  0  0  0  0  0  0
  130.1970  124.7030   56.6630 C   0  0  0  0  0  0  0  0  0  0  0  0
  130.1560  124.3610   55.3010 C   0  0  0  0  0  0  0  0  0  0  0  0
  131.1890  124.7240   54.4400 C   0  0  0  0  0  0  0  0  0  0  0  0
  132.2790  125.4360   54.9300 C   0  0  0  0  0  0  0  0  0  0  0  0
  132.3420  125.7900   56.2740 C   0  0  0  0  0  0  0  0  0  0  0  0
  131.3060  125.4270   57.1310 C   0  0  0  0  0  0  0  0  0  0  0  0
  129.1770  123.2050   58.4460 C   0  0  0  0  0  0  0  0  0  0  0  0
  128.1120  122.8950   59.2990 C   0  0  0  0  0  0  0  0  0  0  0  0
  128.2530  121.6850   60.2220 C   0  0  0  0  0  0  0  0  0  0  0  0
  126.9570  123.7040   59.2820 C   0  0  0  0  0  0  0  0  0  0  0  0
  125.8260  123.4060   60.1660 C   0  0  0  0  0  0  0  0  0  0  0  0
  124.9330  123.1690   60.8640 N   0  0  0  0  0  0  0  0  0  0  0  0
  1  2  1  0
  2  3  1  0
  3  4  1  0
  4  5  1  0
  5  6  1  0
  6  7  1  0
  7  8  1  0
  8  9  1  0
  9 10  1  0
 10 11  1  0
 11 12  1  0
 12 13  2  0
 12 14  1  0
 14 15  1  0
 15 16  1  0
 16 17  2  0
 17 18  1  0
 18 19  1  0
 19 20  2  0
 20 21  1  0
 21 22  2  0
 22 23  1  0
 23 24  2  0
 18 25  2  0
 25 26  1  0
 26 27  1  0
 26 28  2  0
 28 29  1  0
 29 30  3  0
 28 16  1  0
 24 19  1  0
M  END
>  <Binding energies>  (32) 
[-8.16]

>  <Ligand effiencies>  (32) 
[-0.2632258064516129]

>  <Interactions>  (32) 
["V-A:TYR:539:CE2:4873, H-B:LYS:534:NZ:9792, V-A:ILE:538:CG2:4860, V-A:PRO:540:CA:4880, H-A:TYR:539:OH:4875, V-A:TYR:539:CD2:4871, V-A:LEU:363:CD1:3185, V-A:TYR:539:CE1:4872, V-A:ILE:538:CD1:4862, V-A:TYR:539:CZ:4874, H-A:TYR:539:N:4867, V-A:TYR:539:C:4864, V-A:PRO:540:N:4881, V-A:LEU:363:CA:3181, V-A:TYR:539:CG:4869, V-A:TYR:539:CD1:4870, V-B:PRO:540:C:9850, V-B:PRO:540:N:9853, H-B:ALA:541:N:9860, V-B:MET:535:CE:9804, V-B:PRO:540:CB:9854, V-B:PRO:540:CA:9852, V-B:TYR:539:CE1:9844, V-B:TYR:539:CZ:9846, V-B:TYR:539:CE2:9845, V-B:TYR:539:C:9836, V-B:TYR:531:CZ:9763, V-B:ASP:366:CB:8180, V-B:ALA:541:CB:9861, V-B:TYR:539:CD2:9843, V-A:ASP:366:CB:3208, V-A:TYR:531:CZ:4791, V-B:ASP:366:CG:8181, H-B:TYR:531:OH:9764, V-B:TYR:531:CE1:9761, V-A:TYR:531:CE1:4789, V-A:ASN:370:CB:3241, V-A:ASP:366:C:3204, V-A:ASN:370:CG:3242"]

$$$$
3cb_Grossjean_2025
     RDKit          3D

 30 32  0  0  0  0  0  0  0  0999 V2000
  127.9910  122.5510   54.9860 C   0  0  0  0  0  0  0  0  0  0  0  0
  127.1440  121.7790   55.8240 O   0  0  0  0  0  0  0  0  0  0  0  0
  125.9710  122.2830   56.2870 C   0  0  0  0  0  0  0  0  0  0  0  0
  124.8760  122.0430   55.7710 O   0  0  0  0  0  0  0  0  0  0  0  0
  126.1390  123.1660   57.4910 C   0  0  0  0  0  0  0  0  0  0  0  0
  125.3610  124.3170   57.6840 C   0  0  0  0  0  0  0  0  0  0  0  0
  125.5400  125.1120   58.8120 C   0  0  0  0  0  0  0  0  0  0  0  0
  126.5010  124.7790   59.7680 C   0  0  0  0  0  0  0  0  0  0  0  0
  126.5950  125.6520   60.8710 N   0  0  0  0  0  0  0  0  0  0  0  0
  127.3090  126.7880   61.0200 C   0  0  0  0  0  0  0  0  0  0  0  0
  128.0280  127.2880   60.1530 O   0  0  0  0  0  0  0  0  0  0  0  0
  127.1530  127.4630   62.3920 C   0  0  0  0  0  0  0  0  0  0  0  0
  128.7120  128.0380   63.1480 S   0  0  0  0  0  0  0  0  0  0  0  0
  129.0590  126.9890   64.5440 C   0  0  0  0  0  0  0  0  0  0  0  0
  129.4850  125.7500   64.1950 N   0  0  0  0  0  0  0  0  0  0  0  0
  129.7790  124.8660   65.1740 C   0  0  0  0  0  0  0  0  0  0  0  0
  130.2610  123.5040   64.7110 C   0  0  0  0  0  0  0  0  0  0  0  0
  129.6580  125.1760   66.5260 C   0  0  0  0  0  0  0  0  0  0  0  0
  129.2050  126.4450   66.9100 C   0  0  0  0  0  0  0  0  0  0  0  0
  129.0860  126.7270   68.3730 C   0  0  0  0  0  0  0  0  0  0  0  0
  130.0410  127.5240   69.0170 C   0  0  0  0  0  0  0  0  0  0  0  0
  129.9330  127.8020   70.3770 C   0  0  0  0  0  0  0  0  0  0  0  0
  128.8620  127.2840   71.1020 C   0  0  0  0  0  0  0  0  0  0  0  0
  127.9000  126.4970   70.4770 C   0  0  0  0  0  0  0  0  0  0  0  0
  128.0100  126.2230   69.1160 C   0  0  0  0  0  0  0  0  0  0  0  0
  128.8790  127.3800   65.8940 C   0  0  0  0  0  0  0  0  0  0  0  0
  128.3120  128.6880   66.2360 C   0  0  0  0  0  0  0  0  0  0  0  0
  127.8650  129.7210   66.5060 N   0  0  0  0  0  0  0  0  0  0  0  0
  127.2810  123.6270   59.5850 C   0  0  0  0  0  0  0  0  0  0  0  0
  127.1000  122.8320   58.4560 C   0  0  0  0  0  0  0  0  0  0  0  0
  1  2  1  0
  2  3  1  0
  3  4  2  0
  3  5  1  0
  5  6  2  0
  6  7  1  0
  7  8  2  0
  8  9  1  0
  9 10  1  0
 10 11  2  0
 10 12  1  0
 12 13  1  0
 13 14  1  0
 14 15  2  0
 15 16  1  0
 16 17  1  0
 16 18  2  0
 18 19  1  0
 19 20  1  0
 20 21  2  0
 21 22  1  0
 22 23  2  0
 23 24  1  0
 24 25  2  0
 19 26  2  0
 26 27  1  0
 27 28  3  0
  8 29  1  0
 29 30  2  0
 30  5  1  0
 26 14  1  0
 25 20  1  0
M  END
>  <Binding energies>  (33) 
[-8.91]

>  <Ligand effiencies>  (33) 
[-0.2874193548387097]

>  <Interactions>  (33) 
["V-B:GLU:543:CG:9876, V-B:GLY:544:C:9881, V-B:HIS:456:CE1:9038, V-B:GLU:543:CD:9877, H-B:GLU:543:OE1:9878, V-A:GLU:543:CD:4905, V-B:GLU:543:CB:9875, V-A:GLU:543:CG:4904, V-B:GLU:543:C:9871, H-B:GLU:543:OE2:9879, V-A:GLU:543:CB:4903, H-B:TYR:484:OH:9316, V-A:HIS:456:CE1:4066, V-B:TYR:539:CD1:9842, V-B:ILE:538:CB:9831, V-B:PRO:540:N:9853, V-B:MET:535:CE:9804, V-B:PRO:540:CD:9856, H-B:TYR:539:N:9839, V-B:PRO:540:CB:9854, V-B:ILE:538:CG2:9832, V-B:PRO:540:CA:9852, V-B:TYR:539:CE1:9844, V-B:TYR:539:C:9836, H-B:ASP:366:OD1:8182, V-A:TYR:484:CZ:4343, V-A:TYR:484:CE1:4341, V-B:HIS:456:CD2:9036, V-B:ILE:538:CA:9829"]

$$$$
3ch_Grossjean_2025
     RDKit          3D

 32 34  0  0  0  0  0  0  0  0999 V2000
  124.5720  123.6750   60.8170 C   0  0  0  0  0  0  0  0  0  0  0  0
  124.8600  123.7120   59.4230 O   0  0  0  0  0  0  0  0  0  0  0  0
  126.1290  123.3850   58.9790 C   0  0  0  0  0  0  0  0  0  0  0  0
  127.3030  123.6300   59.7090 C   0  0  0  0  0  0  0  0  0  0  0  0
  128.5570  123.2610   59.1990 C   0  0  0  0  0  0  0  0  0  0  0  0
  129.7850  123.4590   59.8570 N   0  0  0  0  0  0  0  0  0  0  0  0
  130.4750  122.6260   60.6670 C   0  0  0  0  0  0  0  0  0  0  0  0
  130.1330  121.4850   60.9750 O   0  0  0  0  0  0  0  0  0  0  0  0
  131.8040  123.1680   61.1920 C   0  0  0  0  0  0  0  0  0  0  0  0
  132.2770  122.4110   62.7750 S   0  0  0  0  0  0  0  0  0  0  0  0
  132.2660  123.7250   63.9740 C   0  0  0  0  0  0  0  0  0  0  0  0
  133.4950  124.0480   64.4480 N   0  0  0  0  0  0  0  0  0  0  0  0
  133.5930  125.0310   65.3710 C   0  0  0  0  0  0  0  0  0  0  0  0
  134.9950  125.3370   65.8620 C   0  0  0  0  0  0  0  0  0  0  0  0
  132.4850  125.7210   65.8550 C   0  0  0  0  0  0  0  0  0  0  0  0
  131.2060  125.4070   65.3720 C   0  0  0  0  0  0  0  0  0  0  0  0
  130.0450  126.1670   65.9270 C   0  0  0  0  0  0  0  0  0  0  0  0
  129.4630  127.2020   65.1850 C   0  0  0  0  0  0  0  0  0  0  0  0
  128.3860  127.9200   65.6990 C   0  0  0  0  0  0  0  0  0  0  0  0
  127.8890  127.6070   66.9620 C   0  0  0  0  0  0  0  0  0  0  0  0
  128.4610  126.5850   67.7140 C   0  0  0  0  0  0  0  0  0  0  0  0
  129.5380  125.8700   67.1980 C   0  0  0  0  0  0  0  0  0  0  0  0
  131.0890  124.3910   64.3880 C   0  0  0  0  0  0  0  0  0  0  0  0
  129.7900  124.0870   63.7800 C   0  0  0  0  0  0  0  0  0  0  0  0
  128.7650  123.8450   63.3000 N   0  0  0  0  0  0  0  0  0  0  0  0
  128.6280  122.6610   57.9400 C   0  0  0  0  0  0  0  0  0  0  0  0
  127.4690  122.4080   57.1910 C   0  0  0  0  0  0  0  0  0  0  0  0
  127.4700  121.8100   55.9430 O   0  0  0  0  0  0  0  0  0  0  0  0
  128.1170  122.4620   54.8550 C   0  0  0  0  0  0  0  0  0  0  0  0
  126.2260  122.7770   57.7210 C   0  0  0  0  0  0  0  0  0  0  0  0
  125.0810  122.5180   57.0050 O   0  0  0  0  0  0  0  0  0  0  0  0
  124.9270  123.3260   55.8460 C   0  0  0  0  0  0  0  0  0  0  0  0
  1  2  1  0
  2  3  1  0
  3  4  2  0
  4  5  1  0
  5  6  1  0
  6  7  1  0
  7  8  2  0
  7  9  1  0
  9 10  1  0
 10 11  1  0
 11 12  2  0
 12 13  1  0
 13 14  1  0
 13 15  2  0
 15 16  1  0
 16 17  1  0
 17 18  2  0
 18 19  1  0
 19 20  2  0
 20 21  1  0
 21 22  2  0
 16 23  2  0
 23 24  1  0
 24 25  3  0
  5 26  2  0
 26 27  1  0
 27 28  1  0
 28 29  1  0
 27 30  2  0
 30 31  1  0
 31 32  1  0
 30  3  1  0
 23 11  1  0
 22 17  1  0
M  END
>  <Binding energies>  (34) 
[-8.58]

>  <Ligand effiencies>  (34) 
[-0.26]

>  <Interactions>  (34) 
["V-B:GLU:543:CG:9876, V-B:HIS:456:CE1:9038, V-B:GLU:543:CD:9877, V-A:GLU:543:CD:4905, V-B:GLU:543:CB:9875, V-A:HIS:456:CE1:4066, V-B:TYR:539:CD1:9842, V-B:ILE:538:CB:9831, V-B:PRO:540:N:9853, V-B:LEU:363:CD1:8157, V-B:MET:535:CE:9804, V-B:PRO:540:CD:9856, V-B:ASN:362:CB:8144, H-B:TYR:539:N:9839, V-B:PRO:540:CB:9854, V-B:ILE:538:CG2:9832, V-B:PRO:540:CA:9852, V-B:TYR:539:CE1:9844, V-B:TYR:539:CZ:9846, V-B:TYR:539:CE2:9845, V-B:TYR:539:C:9836, V-B:TYR:539:CD2:9843, H-B:TYR:539:OH:9847, V-A:GLY:454:CA:4045, V-A:ARG:545:CG:4919, H-A:GLY:454:N:4046, V-A:ARG:545:CZ:4923, V-A:ARG:545:CD:4920, H-A:TYR:484:OH:4344, V-A:GLY:454:C:4043, V-B:TYR:539:CG:9841, V-A:GLY:453:C:4038, V-A:GLY:453:CA:4040, V-B:ILE:538:CA:9829"]

$$$$
3ci_Grossjean_2025
     RDKit          3D

 25 27  0  0  0  0  0  0  0  0999 V2000
  126.2570  122.6050   55.6500 C   0  0  0  0  0  0  0  0  0  0  0  0
  127.4050  122.9590   56.5760 C   0  0  0  0  0  0  0  0  0  0  0  0
  128.4220  123.8240   56.1820 C   0  0  0  0  0  0  0  0  0  0  0  0
  129.4540  124.1340   57.0790 C   0  0  0  0  0  0  0  0  0  0  0  0
  130.5160  125.0780   56.6180 C   0  0  0  0  0  0  0  0  0  0  0  0
  130.7490  126.2810   57.2970 C   0  0  0  0  0  0  0  0  0  0  0  0
  131.7340  127.1610   56.8580 C   0  0  0  0  0  0  0  0  0  0  0  0
  132.4880  126.8450   55.7320 C   0  0  0  0  0  0  0  0  0  0  0  0
  132.2630  125.6570   55.0410 C   0  0  0  0  0  0  0  0  0  0  0  0
  131.2780  124.7790   55.4820 C   0  0  0  0  0  0  0  0  0  0  0  0
  129.4290  123.5390   58.3670 C   0  0  0  0  0  0  0  0  0  0  0  0
  130.5030  123.7920   59.3320 C   0  0  0  0  0  0  0  0  0  0  0  0
  131.3520  123.9940   60.0940 N   0  0  0  0  0  0  0  0  0  0  0  0
  128.3540  122.6750   58.6870 C   0  0  0  0  0  0  0  0  0  0  0  0
  128.2110  121.8890   60.2870 S   0  0  0  0  0  0  0  0  0  0  0  0
  127.2190  122.9430   61.3960 C   0  0  0  0  0  0  0  0  0  0  0  0
  125.8980  123.4080   60.7720 C   0  0  0  0  0  0  0  0  0  0  0  0
  124.8400  123.1780   61.3610 O   0  0  0  0  0  0  0  0  0  0  0  0
  126.0020  124.0400   59.5820 N   0  0  0  0  0  0  0  0  0  0  0  0
  124.9720  124.5810   58.8240 C   0  0  0  0  0  0  0  0  0  0  0  0
  123.7300  124.9200   59.3620 C   0  0  0  0  0  0  0  0  0  0  0  0
  123.0040  125.4120   58.3010 C   0  0  0  0  0  0  0  0  0  0  0  0
  123.7690  125.3710   57.1840 O   0  0  0  0  0  0  0  0  0  0  0  0
  125.0140  124.8410   57.5280 N   0  0  0  0  0  0  0  0  0  0  0  0
  127.3670  122.3890   57.8000 N   0  0  0  0  0  0  0  0  0  0  0  0
  1  2  1  0
  2  3  2  0
  3  4  1  0
  4  5  1  0
  5  6  2  0
  6  7  1  0
  7  8  2  0
  8  9  1  0
  9 10  2  0
  4 11  2  0
 11 12  1  0
 12 13  3  0
 11 14  1  0
 14 15  1  0
 15 16  1  0
 16 17  1  0
 17 18  2  0
 17 19  1  0
 19 20  1  0
 20 21  1  0
 21 22  2  0
 22 23  1  0
 23 24  1  0
 14 25  2  0
 25  2  1  0
 10  5  1  0
 24 20  2  0
M  END
>  <Binding energies>  (35) 
[-7.95]

>  <Ligand effiencies>  (35) 
[-0.3057692307692308]

>  <Interactions>  (35) 
["V-B:GLU:543:CD:9877, V-A:ASP:366:CG:3209, V-B:ASN:362:C:8140, V-B:ILE:538:CB:9831, H-B:ALA:541:N:9860, V-B:LEU:363:CD1:8157, V-B:MET:535:CE:9804, V-B:ILE:538:CG2:9832, V-B:PRO:540:CA:9852, V-B:TYR:539:CE1:9844, V-B:TYR:539:CZ:9846, V-B:TYR:539:CE2:9845, V-B:LEU:363:CB:8155, V-B:LEU:363:CA:8153, V-B:TYR:531:CE2:9762, V-B:ALA:541:CA:9859, V-B:ASP:366:CB:8180, V-B:ALA:541:CB:9861, V-B:TYR:539:CD2:9843, V-A:ASP:366:CB:3208, H-B:TYR:539:OH:9847, V-A:TYR:531:CZ:4791, V-B:ASP:366:CG:8181, H-B:TYR:531:OH:9764, V-B:ILE:538:CA:9829, V-A:TYR:531:CE1:4789, V-A:ASP:366:C:3204, V-B:LEU:363:C:8151"]

$$$$
3ck_Grossjean_2025
     RDKit          3D

 30 31  0  0  0  0  0  0  0  0999 V2000
  127.9660  122.4920   55.7300 C   0  0  0  0  0  0  0  0  0  0  0  0
  126.6960  122.0090   56.1380 O   0  0  0  0  0  0  0  0  0  0  0  0
  125.6170  122.8420   55.7360 C   0  0  0  0  0  0  0  0  0  0  0  0
  124.8700  123.3500   56.9760 C   0  0  0  0  0  0  0  0  0  0  0  0
  124.9550  124.7690   57.0270 O   0  0  0  0  0  0  0  0  0  0  0  0
  125.6170  125.2660   58.1830 C   0  0  0  0  0  0  0  0  0  0  0  0
  127.0820  125.5560   57.8350 C   0  0  0  0  0  0  0  0  0  0  0  0
  127.1940  126.9260   57.4790 O   0  0  0  0  0  0  0  0  0  0  0  0
  126.8170  127.8390   58.4990 C   0  0  0  0  0  0  0  0  0  0  0  0
  126.3500  129.1610   57.8600 C   0  0  0  0  0  0  0  0  0  0  0  0
  126.6990  129.2870   56.4420 N   0  0  0  0  0  0  0  0  0  0  0  0
  126.1750  130.1790   55.5820 C   0  0  0  0  0  0  0  0  0  0  0  0
  125.3410  131.0250   55.9100 O   0  0  0  0  0  0  0  0  0  0  0  0
  126.6900  130.0850   54.1360 C   0  0  0  0  0  0  0  0  0  0  0  0
  128.4780  130.3870   53.9210 S   0  0  0  0  0  0  0  0  0  0  0  0
  129.3700  129.5860   55.2450 C   0  0  0  0  0  0  0  0  0  0  0  0
  129.3530  128.2290   55.2270 N   0  0  0  0  0  0  0  0  0  0  0  0
  130.0040  127.5580   56.2020 C   0  0  0  0  0  0  0  0  0  0  0  0
  129.9380  126.0450   56.1180 C   0  0  0  0  0  0  0  0  0  0  0  0
  130.6930  128.2030   57.2270 C   0  0  0  0  0  0  0  0  0  0  0  0
  130.7190  129.6030   57.2690 C   0  0  0  0  0  0  0  0  0  0  0  0
  131.4500  130.2510   58.3980 C   0  0  0  0  0  0  0  0  0  0  0  0
  130.7440  130.7480   59.5010 C   0  0  0  0  0  0  0  0  0  0  0  0
  131.4190  131.3630   60.5530 C   0  0  0  0  0  0  0  0  0  0  0  0
  132.8040  131.4880   60.5040 C   0  0  0  0  0  0  0  0  0  0  0  0
  133.5200  131.0070   59.4100 C   0  0  0  0  0  0  0  0  0  0  0  0
  132.8430  130.3930   58.3600 C   0  0  0  0  0  0  0  0  0  0  0  0
  130.0500  130.3200   56.2440 C   0  0  0  0  0  0  0  0  0  0  0  0
  130.0790  131.7870   56.2140 C   0  0  0  0  0  0  0  0  0  0  0  0
  130.1030  132.9440   56.1900 N   0  0  0  0  0  0  0  0  0  0  0  0
  1  2  1  0
  2  3  1  0
  3  4  1  0
  4  5  1  0
  5  6  1  0
  6  7  1  0
  7  8  1  0
  8  9  1  0
  9 10  1  0
 10 11  1  0
 11 12  1  0
 12 13  2  0
 12 14  1  0
 14 15  1  0
 15 16  1  0
 16 17  2  0
 17 18  1  0
 18 19  1  0
 18 20  2  0
 20 21  1  0
 21 22  1  0
 22 23  2  0
 23 24  1  0
 24 25  2  0
 25 26  1  0
 26 27  2  0
 21 28  2  0
 28 29  1  0
 29 30  3  0
 28 16  1  0
 27 22  1  0
M  END
>  <Binding energies>  (36) 
[-6.94]

>  <Ligand effiencies>  (36) 
[-0.2238709677419355]

>  <Interactions>  (36) 
["V-A:PRO:540:CA:4880, V-A:ASN:362:C:3168, V-A:PRO:540:CB:4882, H-A:TYR:539:OH:4875, V-A:ASP:366:CG:3209, H-A:TYR:539:N:4867, V-A:ASN:362:CB:3172, V-A:LEU:363:CA:3181, V-B:TYR:539:CD1:9842, V-B:ILE:538:CB:9831, V-B:LEU:363:CD1:8157, V-B:MET:535:CE:9804, H-B:TYR:539:N:9839, V-B:PRO:540:CB:9854, V-B:ILE:538:CG2:9832, V-B:PRO:540:CA:9852, V-B:TYR:539:CE1:9844, V-B:TYR:531:CZ:9763, V-A:ASP:366:CB:3208, H-A:TYR:531:OH:4792, H-B:TYR:531:OH:9764, V-B:TYR:531:CE1:9761, V-B:ILE:538:CA:9829"]

$$$$
4aa_Grossjean_2025
     RDKit          3D

 26 28  0  0  0  0  0  0  0  0999 V2000
  129.0370  122.9450   53.8470 C   0  0  0  0  0  0  0  0  0  0  0  0
  128.5300  123.1760   55.2750 C   0  0  0  0  0  0  0  0  0  0  0  0
  127.8700  122.0050   55.7370 O   0  0  0  0  0  0  0  0  0  0  0  0
  126.8590  122.0810   56.6410 C   0  0  0  0  0  0  0  0  0  0  0  0
  125.7110  121.6850   56.4130 O   0  0  0  0  0  0  0  0  0  0  0  0
  127.2740  122.6970   57.9450 C   0  0  0  0  0  0  0  0  0  0  0  0
  126.7940  123.9690   58.2840 C   0  0  0  0  0  0  0  0  0  0  0  0
  127.1640  124.5700   59.4830 C   0  0  0  0  0  0  0  0  0  0  0  0
  128.0140  123.9100   60.3720 C   0  0  0  0  0  0  0  0  0  0  0  0
  128.3310  124.6120   61.5510 N   0  0  0  0  0  0  0  0  0  0  0  0
  129.5350  124.9720   62.0570 C   0  0  0  0  0  0  0  0  0  0  0  0
  130.6160  124.6810   61.5440 O   0  0  0  0  0  0  0  0  0  0  0  0
  129.4860  125.7340   63.3060 C   0  0  0  0  0  0  0  0  0  0  0  0
  130.5740  125.3320   64.6370 S   0  0  0  0  0  0  0  0  0  0  0  0
  129.8740  126.5780   65.6460 C   0  0  0  0  0  0  0  0  0  0  0  0
  130.3030  126.8010   66.8900 N   0  0  0  0  0  0  0  0  0  0  0  0
  129.6730  127.7930   67.5660 C   0  0  0  0  0  0  0  0  0  0  0  0
  130.1720  128.0280   68.9800 C   0  0  0  0  0  0  0  0  0  0  0  0
  128.6400  128.5600   67.0330 C   0  0  0  0  0  0  0  0  0  0  0  0
  128.1940  128.3240   65.7280 C   0  0  0  0  0  0  0  0  0  0  0  0
  127.0630  129.1870   65.1900 C   0  0  0  0  0  0  0  0  0  0  0  0
  128.8270  127.2890   64.9880 C   0  0  0  0  0  0  0  0  0  0  0  0
  128.6230  126.7840   63.6560 C   0  0  0  0  0  0  0  0  0  0  0  0
  127.6670  127.3000   62.8170 N   0  0  0  0  0  0  0  0  0  0  0  0
  128.5040  122.6390   60.0400 C   0  0  0  0  0  0  0  0  0  0  0  0
  128.1350  122.0410   58.8370 C   0  0  0  0  0  0  0  0  0  0  0  0
  1  2  1  0
  2  3  1  0
  3  4  1  0
  4  5  2  0
  4  6  1  0
  6  7  2  0
  7  8  1  0
  8  9  2  0
  9 10  1  0
 10 11  1  0
 11 12  2  0
 11 13  1  0
 13 14  1  0
 14 15  1  0
 15 16  2  0
 16 17  1  0
 17 18  1  0
 17 19  2  0
 19 20  1  0
 20 21  1  0
 20 22  2  0
 22 23  1  0
 23 24  1  0
  9 25  1  0
 25 26  2  0
 26  6  1  0
 23 13  2  0
 22 15  1  0
M  END
>  <Binding energies>  (37) 
[-7.67]

>  <Ligand effiencies>  (37) 
[-0.26448275862068965]

>  <Interactions>  (37) 
["V-B:HIS:456:CE1:9038, V-B:GLU:543:CD:9877, H-B:GLU:543:OE1:9878, V-A:GLU:543:CD:4905, V-A:GLU:543:CG:4904, H-B:GLU:543:OE2:9879, V-A:GLU:543:CB:4903, V-A:HIS:456:CE1:4066, V-B:TYR:539:CD1:9842, V-B:ILE:538:CB:9831, V-B:PRO:540:N:9853, V-B:MET:535:CE:9804, V-B:PRO:540:CD:9856, H-B:TYR:539:N:9839, V-B:PRO:540:CA:9852, V-B:TYR:539:CE1:9844, V-B:TYR:539:CZ:9846, V-B:TYR:539:CE2:9845, V-B:TYR:539:C:9836, V-B:TYR:539:CD2:9843, H-A:GLU:543:OE2:4907, H-B:ASP:366:OD1:8182, V-A:GLU:543:C:4899, V-B:TYR:539:CG:9841, V-B:ILE:538:CA:9829, V-B:TYR:539:CA:9838"]

$$$$
4ab_Grossjean_2025
     RDKit          3D

 25 27  0  0  0  0  0  0  0  0999 V2000
  128.1030  122.5980   54.8930 C   0  0  0  0  0  0  0  0  0  0  0  0
  127.4960  121.7170   55.8270 O   0  0  0  0  0  0  0  0  0  0  0  0
  126.4970  122.1420   56.6410 C   0  0  0  0  0  0  0  0  0  0  0  0
  125.2990  122.0510   56.3520 O   0  0  0  0  0  0  0  0  0  0  0  0
  126.9920  122.7410   57.9250 C   0  0  0  0  0  0  0  0  0  0  0  0
  126.4340  123.9430   58.3790 C   0  0  0  0  0  0  0  0  0  0  0  0
  126.8740  124.5250   59.5650 C   0  0  0  0  0  0  0  0  0  0  0  0
  127.8710  123.9140   60.3250 C   0  0  0  0  0  0  0  0  0  0  0  0
  128.2430  124.5920   61.5010 N   0  0  0  0  0  0  0  0  0  0  0  0
  129.4680  124.9770   61.9370 C   0  0  0  0  0  0  0  0  0  0  0  0
  130.5210  124.7390   61.3450 O   0  0  0  0  0  0  0  0  0  0  0  0
  129.4780  125.6980   63.2120 C   0  0  0  0  0  0  0  0  0  0  0  0
  130.6110  125.2390   64.4850 S   0  0  0  0  0  0  0  0  0  0  0  0
  129.9710  126.4600   65.5610 C   0  0  0  0  0  0  0  0  0  0  0  0
  130.4490  126.6370   66.7930 N   0  0  0  0  0  0  0  0  0  0  0  0
  129.8630  127.6160   67.5250 C   0  0  0  0  0  0  0  0  0  0  0  0
  130.4180  127.7970   68.9250 C   0  0  0  0  0  0  0  0  0  0  0  0
  128.8230  128.4160   67.0570 C   0  0  0  0  0  0  0  0  0  0  0  0
  128.3230  128.2270   65.7630 C   0  0  0  0  0  0  0  0  0  0  0  0
  127.1850  129.1240   65.2990 C   0  0  0  0  0  0  0  0  0  0  0  0
  128.9090  127.2070   64.9670 C   0  0  0  0  0  0  0  0  0  0  0  0
  128.6450  126.7470   63.6300 C   0  0  0  0  0  0  0  0  0  0  0  0
  127.6640  127.3010   62.8470 N   0  0  0  0  0  0  0  0  0  0  0  0
  128.4400  122.7120   59.8760 C   0  0  0  0  0  0  0  0  0  0  0  0
  128.0010  122.1330   58.6890 C   0  0  0  0  0  0  0  0  0  0  0  0
  1  2  1  0
  2  3  1  0
  3  4  2  0
  3  5  1  0
  5  6  2  0
  6  7  1  0
  7  8  2  0
  8  9  1  0
  9 10  1  0
 10 11  2  0
 10 12  1  0
 12 13  1  0
 13 14  1  0
 14 15  2  0
 15 16  1  0
 16 17  1  0
 16 18  2  0
 18 19  1  0
 19 20  1  0
 19 21  2  0
 21 22  1  0
 22 23  1  0
  8 24  1  0
 24 25  2  0
 25  5  1  0
 22 12  2  0
 21 14  1  0
M  END
>  <Binding energies>  (38) 
[-7.4]

>  <Ligand effiencies>  (38) 
[-0.2642857142857143]

>  <Interactions>  (38) 
["V-B:HIS:456:CE1:9038, V-B:GLU:543:CD:9877, H-B:GLU:543:OE1:9878, V-A:GLU:543:CD:4905, V-A:GLU:543:CG:4904, H-B:GLU:543:OE2:9879, V-A:GLU:543:CB:4903, V-A:HIS:456:CE1:4066, V-B:TYR:539:CD1:9842, V-B:ILE:538:CB:9831, V-B:PRO:540:N:9853, V-B:MET:535:CE:9804, V-B:PRO:540:CD:9856, H-B:TYR:539:N:9839, V-B:PRO:540:CB:9854, V-B:ILE:538:CG2:9832, V-B:PRO:540:CA:9852, V-B:TYR:539:CE1:9844, V-B:TYR:539:CZ:9846, V-B:TYR:539:CE2:9845, V-B:TYR:539:C:9836, V-B:TYR:539:CD2:9843, H-A:GLU:543:OE2:4907, H-B:ASP:366:OD1:8182, V-A:GLU:543:C:4899, V-B:TYR:539:CG:9841, V-B:ILE:538:CA:9829"]

$$$$
4ac_Grossjean_2025
     RDKit          3D

 23 25  0  0  0  0  0  0  0  0999 V2000
  132.1860  132.1690   55.4650 C   0  0  0  0  0  0  0  0  0  0  0  0
  130.9500  132.8670   55.5840 O   0  0  0  0  0  0  0  0  0  0  0  0
  130.0820  132.5320   56.6040 C   0  0  0  0  0  0  0  0  0  0  0  0
  130.6610  132.1840   57.8240 C   0  0  0  0  0  0  0  0  0  0  0  0
  129.8650  131.8330   58.9120 C   0  0  0  0  0  0  0  0  0  0  0  0
  128.4750  131.8330   58.7940 C   0  0  0  0  0  0  0  0  0  0  0  0
  127.7540  131.4520   59.9410 N   0  0  0  0  0  0  0  0  0  0  0  0
  126.4500  131.1020   60.0560 C   0  0  0  0  0  0  0  0  0  0  0  0
  125.6510  131.1020   59.1180 O   0  0  0  0  0  0  0  0  0  0  0  0
  126.0200  130.7200   61.4040 C   0  0  0  0  0  0  0  0  0  0  0  0
  124.3830  131.0810   61.9530 S   0  0  0  0  0  0  0  0  0  0  0  0
  124.6960  130.3560   63.5140 C   0  0  0  0  0  0  0  0  0  0  0  0
  123.7660  130.3080   64.4690 N   0  0  0  0  0  0  0  0  0  0  0  0
  124.1380  129.7190   65.6320 C   0  0  0  0  0  0  0  0  0  0  0  0
  123.0660  129.6730   66.7050 C   0  0  0  0  0  0  0  0  0  0  0  0
  125.4050  129.1860   65.8600 C   0  0  0  0  0  0  0  0  0  0  0  0
  126.3790  129.2390   64.8560 C   0  0  0  0  0  0  0  0  0  0  0  0
  127.7460  128.6440   65.1530 C   0  0  0  0  0  0  0  0  0  0  0  0
  126.0240  129.8470   63.6220 C   0  0  0  0  0  0  0  0  0  0  0  0
  126.7570  130.0660   62.4030 C   0  0  0  0  0  0  0  0  0  0  0  0
  128.0600  129.6650   62.2520 N   0  0  0  0  0  0  0  0  0  0  0  0
  127.8850  132.1690   57.5670 C   0  0  0  0  0  0  0  0  0  0  0  0
  128.6840  132.5200   56.4810 C   0  0  0  0  0  0  0  0  0  0  0  0
  1  2  1  0
  2  3  1  0
  3  4  2  0
  4  5  1  0
  5  6  2  0
  6  7  1  0
  7  8  1  0
  8  9  2  0
  8 10  1  0
 10 11  1  0
 11 12  1  0
 12 13  2  0
 13 14  1  0
 14 15  1  0
 14 16  2  0
 16 17  1  0
 17 18  1  0
 17 19  2  0
 19 20  1  0
 20 21  1  0
  6 22  1  0
 22 23  2  0
 23  3  1  0
 20 10  2  0
 19 12  1  0
M  END
>  <Binding energies>  (39) 
[-7.14]

>  <Ligand effiencies>  (39) 
[-0.2746153846153846]

>  <Interactions>  (39) 
["V-B:HIS:456:CE1:9038, V-B:ARG:545:CZ:9895, V-A:GLU:543:CD:4905, H-B:GLY:454:N:9018, H-B:TYR:484:OH:9316, V-B:ARG:545:CD:9892, V-B:GLY:453:C:9010, V-B:GLY:453:CA:9012, V-B:ARG:545:CG:9891, V-B:ILE:455:C:9020, V-A:TYR:539:CE2:4873, V-A:ILE:538:CG2:4860, V-A:PRO:540:CA:4880, V-A:PRO:540:CB:4882, V-A:TYR:539:CD2:4871, V-A:LEU:363:CD1:3185, V-A:ILE:538:CD1:4862, V-A:TYR:539:CZ:4874, H-A:TYR:539:N:4867, V-A:TYR:539:C:4864, V-A:PRO:540:N:4881, V-A:TYR:539:CG:4869, H-A:GLU:543:OE2:4907, V-A:TYR:531:CE2:4790, V-A:TYR:531:CZ:4791, V-B:ASP:366:CG:8181"]

$$$$
4ad_Grossjean_2025
     RDKit          3D

 21 23  0  0  0  0  0  0  0  0999 V2000
  124.7370  122.8910   55.1460 C   0  0  0  0  0  0  0  0  0  0  0  0
  125.3560  123.1040   56.5150 C   0  0  0  0  0  0  0  0  0  0  0  0
  124.5740  123.4770   57.6060 C   0  0  0  0  0  0  0  0  0  0  0  0
  125.1670  123.6710   58.8600 C   0  0  0  0  0  0  0  0  0  0  0  0
  124.2730  124.0800   60.0200 C   0  0  0  0  0  0  0  0  0  0  0  0
  126.5710  123.4740   58.9660 C   0  0  0  0  0  0  0  0  0  0  0  0
  127.4840  123.5830   60.0720 C   0  0  0  0  0  0  0  0  0  0  0  0
  127.0680  123.9310   61.3330 N   0  0  0  0  0  0  0  0  0  0  0  0
  128.8190  123.3020   59.7400 C   0  0  0  0  0  0  0  0  0  0  0  0
  129.9990  123.3330   60.6050 C   0  0  0  0  0  0  0  0  0  0  0  0
  129.8870  123.1960   61.8250 O   0  0  0  0  0  0  0  0  0  0  0  0
  131.1830  123.5060   59.9670 N   0  0  0  0  0  0  0  0  0  0  0  0
  132.4800  123.6220   60.5030 C   0  0  0  0  0  0  0  0  0  0  0  0
  132.5650  124.1730   61.7850 C   0  0  0  0  0  0  0  0  0  0  0  0
  133.8030  124.3190   62.4050 C   0  0  0  0  0  0  0  0  0  0  0  0
  134.9580  123.9060   61.7460 C   0  0  0  0  0  0  0  0  0  0  0  0
  134.8860  123.3440   60.4740 C   0  0  0  0  0  0  0  0  0  0  0  0
  133.6490  123.1970   59.8510 C   0  0  0  0  0  0  0  0  0  0  0  0
  128.9750  122.8880   58.0320 S   0  0  0  0  0  0  0  0  0  0  0  0
  127.2580  123.0940   57.7740 C   0  0  0  0  0  0  0  0  0  0  0  0
  126.6950  122.9080   56.5790 N   0  0  0  0  0  0  0  0  0  0  0  0
  1  2  1  0
  2  3  2  0
  3  4  1  0
  4  5  1  0
  4  6  2  0
  6  7  1  0
  7  8  1  0
  7  9  2  0
  9 10  1  0
 10 11  2  0
 10 12  1  0
 12 13  1  0
 13 14  2  0
 14 15  1  0
 15 16  2  0
 16 17  1  0
 17 18  2  0
  9 19  1  0
 19 20  1  0
 20 21  2  0
 21  2  1  0
 20  6  1  0
 18 13  1  0
M  END
>  <Binding energies>  (40) 
[-6.81]

>  <Ligand effiencies>  (40) 
[-0.28375]

>  <Interactions>  (40) 
["V-B:GLU:543:CD:9877, H-B:GLU:543:OE2:9879, V-A:ASP:366:CG:3209, V-B:TYR:539:CD1:9842, V-B:ILE:538:CB:9831, V-B:LEU:363:CD1:8157, V-B:PRO:540:CB:9854, V-B:ILE:538:CG2:9832, V-B:PRO:540:CA:9852, V-B:TYR:539:CE1:9844, V-B:TYR:539:CZ:9846, V-B:TYR:539:CE2:9845, V-B:ALA:541:CB:9861, V-B:TYR:539:CD2:9843, H-B:TYR:539:OH:9847, V-A:GLY:454:CA:4045, V-B:TYR:539:CG:9841, V-A:GLY:453:C:4038, V-B:ILE:538:CD1:9834, V-A:GLY:453:CA:4040, V-A:ILE:369:CG2:3233, V-A:ASP:366:CA:3206, V-A:ILE:369:CG1:3234, V-A:ILE:369:CB:3232"]

$$$$
4ae_Grossjean_2025
     RDKit          3D

 22 24  0  0  0  0  0  0  0  0999 V2000
  128.6670  122.8060   54.4900 C   0  0  0  0  0  0  0  0  0  0  0  0
  127.9730  122.7790   55.8380 C   0  0  0  0  0  0  0  0  0  0  0  0
  126.6120  122.4860   55.9530 C   0  0  0  0  0  0  0  0  0  0  0  0
  126.0390  122.4870   57.2260 C   0  0  0  0  0  0  0  0  0  0  0  0
  126.8310  122.7780   58.3390 C   0  0  0  0  0  0  0  0  0  0  0  0
  128.1900  123.0540   58.1530 C   0  0  0  0  0  0  0  0  0  0  0  0
  128.9300  123.3590   59.3080 N   0  0  0  0  0  0  0  0  0  0  0  0
  129.3470  122.5250   60.2930 C   0  0  0  0  0  0  0  0  0  0  0  0
  129.1140  121.3160   60.3120 O   0  0  0  0  0  0  0  0  0  0  0  0
  130.1110  123.1590   61.3700 C   0  0  0  0  0  0  0  0  0  0  0  0
  131.8370  122.8370   61.5470 S   0  0  0  0  0  0  0  0  0  0  0  0
  131.9310  123.8590   62.9620 C   0  0  0  0  0  0  0  0  0  0  0  0
  133.0740  124.0440   63.6240 N   0  0  0  0  0  0  0  0  0  0  0  0
  133.0100  124.8550   64.7070 C   0  0  0  0  0  0  0  0  0  0  0  0
  134.3200  125.0450   65.4500 C   0  0  0  0  0  0  0  0  0  0  0  0
  131.8430  125.4830   65.1380 C   0  0  0  0  0  0  0  0  0  0  0  0
  130.6450  125.2880   64.4400 C   0  0  0  0  0  0  0  0  0  0  0  0
  129.3970  125.9920   64.9500 C   0  0  0  0  0  0  0  0  0  0  0  0
  130.6730  124.4410   63.2990 C   0  0  0  0  0  0  0  0  0  0  0  0
  129.6510  124.0270   62.3740 C   0  0  0  0  0  0  0  0  0  0  0  0
  128.3510  124.4510   62.4790 N   0  0  0  0  0  0  0  0  0  0  0  0
  128.7560  123.0620   56.9100 N   0  0  0  0  0  0  0  0  0  0  0  0
  1  2  1  0
  2  3  2  0
  3  4  1  0
  4  5  2  0
  5  6  1  0
  6  7  1  0
  7  8  1  0
  8  9  2  0
  8 10  1  0
 10 11  1  0
 11 12  1  0
 12 13  2  0
 13 14  1  0
 14 15  1  0
 14 16  2  0
 16 17  1  0
 17 18  1  0
 17 19  2  0
 19 20  1  0
 20 21  1  0
  6 22  2  0
 22  2  1  0
 20 10  2  0
 19 12  1  0
M  END
>  <Binding energies>  (41) 
[-7.11]

>  <Ligand effiencies>  (41) 
[-0.2844]

>  <Interactions>  (41) 
["V-B:GLU:543:CG:9876, V-B:GLU:543:CD:9877, H-B:GLU:543:OE1:9878, H-B:GLU:543:OE2:9879, V-A:HIS:456:CE1:4066, V-B:TYR:539:CD1:9842, V-B:ILE:538:CB:9831, V-B:PRO:540:N:9853, V-B:MET:535:CE:9804, V-B:PRO:540:CD:9856, V-B:PRO:540:CB:9854, V-B:ILE:538:CG2:9832, V-B:PRO:540:CA:9852, V-B:TYR:539:CE1:9844, V-B:TYR:539:CZ:9846, V-B:TYR:539:CE2:9845, V-B:TYR:539:C:9836, V-B:TYR:539:CD2:9843, H-B:TYR:539:OH:9847, V-A:GLY:454:CA:4045, V-A:ARG:545:CG:4919, H-A:GLY:454:N:4046, V-A:ARG:545:CZ:4923, V-A:ARG:545:CD:4920, V-A:GLY:454:C:4043, V-A:GLY:453:C:4038, V-A:GLY:453:CA:4040, V-B:ILE:538:CA:9829"]

$$$$
4af_Grossjean_2025
     RDKit          3D

 21 23  0  0  0  0  0  0  0  0999 V2000
  134.4660  125.0290   65.7570 C   0  0  0  0  0  0  0  0  0  0  0  0
  133.1660  124.9130   64.9820 C   0  0  0  0  0  0  0  0  0  0  0  0
  132.0850  125.7460   65.2650 C   0  0  0  0  0  0  0  0  0  0  0  0
  130.8950  125.6190   64.5390 C   0  0  0  0  0  0  0  0  0  0  0  0
  129.7430  126.5490   64.8850 C   0  0  0  0  0  0  0  0  0  0  0  0
  130.8390  124.6250   63.5250 C   0  0  0  0  0  0  0  0  0  0  0  0
  129.8010  124.2290   62.6120 C   0  0  0  0  0  0  0  0  0  0  0  0
  128.5700  124.8360   62.5950 N   0  0  0  0  0  0  0  0  0  0  0  0
  130.1650  123.1780   61.7550 C   0  0  0  0  0  0  0  0  0  0  0  0
  129.3540  122.5120   60.7340 C   0  0  0  0  0  0  0  0  0  0  0  0
  129.3750  121.2860   60.6180 O   0  0  0  0  0  0  0  0  0  0  0  0
  128.5950  123.3340   59.9690 N   0  0  0  0  0  0  0  0  0  0  0  0
  127.7520  123.0240   58.8850 C   0  0  0  0  0  0  0  0  0  0  0  0
  126.4690  123.5600   58.6700 C   0  0  0  0  0  0  0  0  0  0  0  0
  125.7280  123.1520   57.5590 C   0  0  0  0  0  0  0  0  0  0  0  0
  126.2860  122.2130   56.6900 C   0  0  0  0  0  0  0  0  0  0  0  0
  127.5170  121.6750   56.8800 N   0  0  0  0  0  0  0  0  0  0  0  0
  128.2250  122.0810   57.9640 C   0  0  0  0  0  0  0  0  0  0  0  0
  131.8200  122.6490   62.0650 S   0  0  0  0  0  0  0  0  0  0  0  0
  132.0130  123.8370   63.3340 C   0  0  0  0  0  0  0  0  0  0  0  0
  133.1490  123.9550   64.0230 N   0  0  0  0  0  0  0  0  0  0  0  0
  1  2  1  0
  2  3  2  0
  3  4  1  0
  4  5  1  0
  4  6  2  0
  6  7  1  0
  7  8  1  0
  7  9  2  0
  9 10  1  0
 10 11  2  0
 10 12  1  0
 12 13  1  0
 13 14  2  0
 14 15  1  0
 15 16  2  0
 16 17  1  0
 17 18  2  0
  9 19  1  0
 19 20  1  0
 20 21  2  0
 21  2  1  0
 20  6  1  0
 18 13  1  0
M  END
>  <Binding energies>  (42) 
[-7.12]

>  <Ligand effiencies>  (42) 
[-0.2966666666666667]

>  <Interactions>  (42) 
["V-B:GLU:543:CG:9876, V-B:GLU:543:CD:9877, H-B:GLU:543:OE1:9878, V-A:GLU:543:CD:4905, H-B:GLU:543:OE2:9879, V-A:HIS:456:CE1:4066, V-B:TYR:539:CD1:9842, V-B:ILE:538:CB:9831, V-B:PRO:540:N:9853, V-B:PRO:540:CD:9856, H-B:TYR:539:N:9839, V-B:PRO:540:CB:9854, V-B:PRO:540:CA:9852, V-B:TYR:539:CE1:9844, V-B:TYR:539:CZ:9846, V-B:TYR:539:CE2:9845, V-B:TYR:539:C:9836, V-B:ALA:541:CB:9861, V-A:LEU:475:CD1:4254, V-B:TYR:539:CD2:9843, V-A:GLY:454:CA:4045, V-A:ARG:545:CG:4919, H-A:GLY:454:N:4046, V-A:ARG:545:CZ:4923, V-A:ARG:545:CD:4920, H-A:TYR:484:OH:4344, V-A:GLY:454:C:4043, V-B:TYR:539:CG:9841, V-A:GLY:453:C:4038, V-A:GLY:453:CA:4040"]

$$$$
4ag_Grossjean_2025
     RDKit          3D

 22 24  0  0  0  0  0  0  0  0999 V2000
  129.0050  126.0510   65.2910 C   0  0  0  0  0  0  0  0  0  0  0  0
  129.3000  126.5460   66.6950 C   0  0  0  0  0  0  0  0  0  0  0  0
  130.4810  127.2280   66.9810 C   0  0  0  0  0  0  0  0  0  0  0  0
  130.7330  127.6770   68.2820 C   0  0  0  0  0  0  0  0  0  0  0  0
  132.0360  128.4170   68.5450 C   0  0  0  0  0  0  0  0  0  0  0  0
  129.7530  127.4120   69.2760 C   0  0  0  0  0  0  0  0  0  0  0  0
  129.6880  127.7220   70.6790 C   0  0  0  0  0  0  0  0  0  0  0  0
  130.6880  128.4010   71.3280 N   0  0  0  0  0  0  0  0  0  0  0  0
  128.5200  127.2660   71.3080 C   0  0  0  0  0  0  0  0  0  0  0  0
  128.1250  127.4150   72.7080 C   0  0  0  0  0  0  0  0  0  0  0  0
  128.9530  127.6740   73.5850 O   0  0  0  0  0  0  0  0  0  0  0  0
  126.8150  127.2350   72.9790 N   0  0  0  0  0  0  0  0  0  0  0  0
  126.1970  127.3600   74.2980 C   0  0  0  0  0  0  0  0  0  0  0  0
  125.7490  128.7770   74.6390 C   0  0  0  0  0  0  0  0  0  0  0  0
  124.4890  128.9910   75.2060 C   0  0  0  0  0  0  0  0  0  0  0  0
  124.0880  130.2820   75.5420 C   0  0  0  0  0  0  0  0  0  0  0  0
  124.9520  131.3520   75.3200 C   0  0  0  0  0  0  0  0  0  0  0  0
  126.2140  131.1450   74.7700 C   0  0  0  0  0  0  0  0  0  0  0  0
  126.6160  129.8540   74.4350 C   0  0  0  0  0  0  0  0  0  0  0  0
  127.4570  126.4430   70.1660 S   0  0  0  0  0  0  0  0  0  0  0  0
  128.5870  126.7060   68.8560 C   0  0  0  0  0  0  0  0  0  0  0  0
  128.3430  126.2780   67.6160 N   0  0  0  0  0  0  0  0  0  0  0  0
  1  2  1  0
  2  3  2  0
  3  4  1  0
  4  5  1  0
  4  6  2  0
  6  7  1  0
  7  8  1  0
  7  9  2  0
  9 10  1  0
 10 11  2  0
 10 12  1  0
 12 13  1  0
 13 14  1  0
 14 15  2  0
 15 16  1  0
 16 17  2  0
 17 18  1  0
 18 19  2  0
  9 20  1  0
 20 21  1  0
 21 22  2  0
 22  2  1  0
 21  6  1  0
 19 14  1  0
M  END
>  <Binding energies>  (43) 
[-7.76]

>  <Ligand effiencies>  (43) 
[-0.3104]

>  <Interactions>  (43) 
["V-B:GLU:543:CG:9876, V-B:GLY:544:C:9881, V-B:HIS:456:CE1:9038, V-B:GLU:543:CD:9877, V-A:GLU:543:CD:4905, V-B:GLU:543:CB:9875, V-B:GLU:543:C:9871, V-A:GLU:543:CB:4903, V-A:HIS:456:CE1:4066, V-B:HIS:456:CG:9034, V-A:GLU:543:C:4899, V-B:LYS:547:CE:9919, V-B:HIS:456:CD2:9036, V-B:HIS:456:CB:9033, V-B:LYS:471:CE:9188, V-A:ARG:545:CG:4919, H-A:LYS:547:NZ:4948, V-B:LYS:547:CD:9918, V-A:GLY:544:CA:4911, V-B:ASP:473:CG:9208, V-B:VAL:458:CG2:9055, V-B:VAL:457:C:9041, V-B:ASP:473:CB:9207, V-B:HIS:456:C:9029, H-B:GLY:544:O:9882, V-B:HIS:456:CA:9031, V-B:LYS:471:CB:9185, V-B:VAL:457:CA:9043, V-A:GLY:544:C:4909, H-A:HIS:456:NE2:4067, V-A:ARG:545:CA:4916, V-A:GLU:543:CA:4901, H-A:GLU:543:O:4900, H-A:GLY:544:O:4910, V-A:ARG:545:CB:4918"]

$$$$
4ah_Grossjean_2025
     RDKit          3D

 28 30  0  0  0  0  0  0  0  0999 V2000
  130.6230  131.4150   60.2920 C   0  0  0  0  0  0  0  0  0  0  0  0
  130.8160  131.8700   58.9570 O   0  0  0  0  0  0  0  0  0  0  0  0
  129.7850  131.7460   58.0420 C   0  0  0  0  0  0  0  0  0  0  0  0
  128.5910  131.0530   58.2960 C   0  0  0  0  0  0  0  0  0  0  0  0
  127.5940  130.9680   57.3230 C   0  0  0  0  0  0  0  0  0  0  0  0
  126.2840  130.2510   57.6330 C   0  0  0  0  0  0  0  0  0  0  0  0
  126.0310  130.0890   59.0650 N   0  0  0  0  0  0  0  0  0  0  0  0
  125.8160  131.0940   59.9390 C   0  0  0  0  0  0  0  0  0  0  0  0
  125.8520  132.2810   59.6100 O   0  0  0  0  0  0  0  0  0  0  0  0
  125.5770  130.6970   61.3260 C   0  0  0  0  0  0  0  0  0  0  0  0
  124.0250  131.0420   62.0920 S   0  0  0  0  0  0  0  0  0  0  0  0
  124.5650  130.3410   63.6020 C   0  0  0  0  0  0  0  0  0  0  0  0
  123.7770  130.2870   64.6760 N   0  0  0  0  0  0  0  0  0  0  0  0
  124.3150  129.7170   65.7810 C   0  0  0  0  0  0  0  0  0  0  0  0
  123.4030  129.6680   66.9930 C   0  0  0  0  0  0  0  0  0  0  0  0
  125.6100  129.2050   65.8370 C   0  0  0  0  0  0  0  0  0  0  0  0
  126.4360  129.2660   64.7090 C   0  0  0  0  0  0  0  0  0  0  0  0
  127.8410  128.6940   64.8180 C   0  0  0  0  0  0  0  0  0  0  0  0
  125.9060  129.8580   63.5300 C   0  0  0  0  0  0  0  0  0  0  0  0
  126.4640  130.0850   62.2240 C   0  0  0  0  0  0  0  0  0  0  0  0
  127.7460  129.7200   61.9000 N   0  0  0  0  0  0  0  0  0  0  0  0
  127.7760  131.6020   56.0940 C   0  0  0  0  0  0  0  0  0  0  0  0
  128.9620  132.2970   55.8100 C   0  0  0  0  0  0  0  0  0  0  0  0
  129.2150  132.9340   54.6090 O   0  0  0  0  0  0  0  0  0  0  0  0
  128.2980  132.7800   53.5300 C   0  0  0  0  0  0  0  0  0  0  0  0
  129.9620  132.3560   56.7910 C   0  0  0  0  0  0  0  0  0  0  0  0
  131.1210  133.0480   56.5340 O   0  0  0  0  0  0  0  0  0  0  0  0
  132.2190  132.2230   56.1690 C   0  0  0  0  0  0  0  0  0  0  0  0
  1  2  1  0
  2  3  1  0
  3  4  2  0
  4  5  1  0
  5  6  1  0
  6  7  1  0
  7  8  1  0
  8  9  2  0
  8 10  1  0
 10 11  1  0
 11 12  1  0
 12 13  2  0
 13 14  1  0
 14 15  1  0
 14 16  2  0
 16 17  1  0
 17 18  1  0
 17 19  2  0
 19 20  1  0
 20 21  1  0
  5 22  2  0
 22 23  1  0
 23 24  1  0
 24 25  1  0
 23 26  2  0
 26 27  1  0
 27 28  1  0
 26  3  1  0
 20 10  2  0
 19 12  1  0
M  END
>  <Binding energies>  (44) 
[-7.65]

>  <Ligand effiencies>  (44) 
[-0.24677419354838712]

>  <Interactions>  (44) 
["V-B:HIS:456:CE1:9038, V-B:ARG:545:CZ:9895, V-A:GLU:543:CD:4905, H-B:GLY:454:N:9018, H-B:TYR:484:OH:9316, V-B:ARG:545:CD:9892, V-B:ARG:545:CG:9891, V-B:ILE:455:C:9020, V-A:TYR:539:CE2:4873, V-A:ILE:538:CG2:4860, V-A:PRO:540:CA:4880, V-A:PRO:540:CB:4882, V-A:TYR:539:CD2:4871, V-A:LEU:363:CD1:3185, V-A:TYR:539:CE1:4872, V-A:ILE:538:CD1:4862, V-A:TYR:539:CZ:4874, H-A:TYR:539:N:4867, V-A:PRO:540:CD:4884, V-A:TYR:539:C:4864, V-A:PRO:540:N:4881, V-A:ILE:538:CA:4857, V-A:TYR:539:CD1:4870, H-A:GLU:543:OE2:4907, H-B:ASP:366:OD1:8182, V-B:ILE:369:CD1:8207, V-B:ASP:366:CG:8181, V-A:VAL:537:C:4847"]

$$$$
4ai_Grossjean_2025
     RDKit          3D

 20 22  0  0  0  0  0  0  0  0999 V2000
  134.2380  125.0480   65.3610 C   0  0  0  0  0  0  0  0  0  0  0  0
  132.9200  124.7920   64.6520 C   0  0  0  0  0  0  0  0  0  0  0  0
  131.7480  125.4220   65.0680 C   0  0  0  0  0  0  0  0  0  0  0  0
  130.5460  125.1760   64.3960 C   0  0  0  0  0  0  0  0  0  0  0  0
  129.2940  125.8890   64.8860 C   0  0  0  0  0  0  0  0  0  0  0  0
  130.5730  124.2770   63.2950 C   0  0  0  0  0  0  0  0  0  0  0  0
  129.5480  123.8080   62.4020 C   0  0  0  0  0  0  0  0  0  0  0  0
  128.2410  124.2120   62.5100 N   0  0  0  0  0  0  0  0  0  0  0  0
  130.0100  122.9150   61.4220 C   0  0  0  0  0  0  0  0  0  0  0  0
  129.2460  122.2430   60.3690 C   0  0  0  0  0  0  0  0  0  0  0  0
  129.0930  121.0200   60.3860 O   0  0  0  0  0  0  0  0  0  0  0  0
  128.7270  123.0590   59.4170 N   0  0  0  0  0  0  0  0  0  0  0  0
  127.9590  122.6930   58.3190 C   0  0  0  0  0  0  0  0  0  0  0  0
  126.8090  123.3810   57.9300 C   0  0  0  0  0  0  0  0  0  0  0  0
  126.3490  122.7100   56.8210 C   0  0  0  0  0  0  0  0  0  0  0  0
  127.1790  121.6740   56.5540 O   0  0  0  0  0  0  0  0  0  0  0  0
  128.1960  121.6740   57.5090 N   0  0  0  0  0  0  0  0  0  0  0  0
  131.7400  122.6130   61.6010 S   0  0  0  0  0  0  0  0  0  0  0  0
  131.8360  123.6980   62.9710 C   0  0  0  0  0  0  0  0  0  0  0  0
  132.9840  123.9290   63.6100 N   0  0  0  0  0  0  0  0  0  0  0  0
  1  2  1  0
  2  3  2  0
  3  4  1  0
  4  5  1  0
  4  6  2  0
  6  7  1  0
  7  8  1  0
  7  9  2  0
  9 10  1  0
 10 11  2  0
 10 12  1  0
 12 13  1  0
 13 14  1  0
 14 15  2  0
 15 16  1  0
 16 17  1  0
  9 18  1  0
 18 19  1  0
 19 20  2  0
 20  2  1  0
 19  6  1  0
 17 13  2  0
M  END
>  <Binding energies>  (45) 
[-6.88]

>  <Ligand effiencies>  (45) 
[-0.2991304347826087]

>  <Interactions>  (45) 
["V-B:GLU:543:CG:9876, V-B:GLU:543:CD:9877, H-B:GLU:543:OE2:9879, V-A:HIS:456:CE1:4066, V-B:PRO:540:N:9853, V-B:PRO:540:CD:9856, H-B:TYR:539:N:9839, V-B:PRO:540:CB:9854, V-B:PRO:540:CA:9852, V-B:TYR:539:CZ:9846, V-B:TYR:539:CE2:9845, V-B:TYR:539:C:9836, V-B:ALA:541:CB:9861, V-B:TYR:539:CD2:9843, V-A:GLY:454:CA:4045, H-A:GLY:454:N:4046, V-A:ARG:545:CZ:4923, V-A:ARG:545:CD:4920, V-A:GLY:454:C:4043, V-A:GLY:453:C:4038, V-A:GLY:453:CA:4040"]

$$$$
4aj_Grossjean_2025
     RDKit          3D

 20 22  0  0  0  0  0  0  0  0999 V2000
  133.6530  125.0370   65.3280 C   0  0  0  0  0  0  0  0  0  0  0  0
  132.9280  124.6560   64.0500 C   0  0  0  0  0  0  0  0  0  0  0  0
  133.6260  124.4540   62.8620 C   0  0  0  0  0  0  0  0  0  0  0  0
  132.9360  124.1090   61.6950 C   0  0  0  0  0  0  0  0  0  0  0  0
  133.7440  123.8990   60.4230 C   0  0  0  0  0  0  0  0  0  0  0  0
  131.5240  123.9750   61.7730 C   0  0  0  0  0  0  0  0  0  0  0  0
  130.5250  123.6420   60.7930 C   0  0  0  0  0  0  0  0  0  0  0  0
  130.8430  123.3780   59.4850 N   0  0  0  0  0  0  0  0  0  0  0  0
  129.2170  123.6090   61.3010 C   0  0  0  0  0  0  0  0  0  0  0  0
  127.9710  123.3200   60.5890 C   0  0  0  0  0  0  0  0  0  0  0  0
  127.9790  122.6620   59.5460 O   0  0  0  0  0  0  0  0  0  0  0  0
  126.8450  123.8080   61.1650 N   0  0  0  0  0  0  0  0  0  0  0  0
  125.5430  123.6660   60.7040 C   0  0  0  0  0  0  0  0  0  0  0  0
  124.5130  123.1510   61.3400 N   0  0  0  0  0  0  0  0  0  0  0  0
  123.4220  123.1790   60.5990 C   0  0  0  0  0  0  0  0  0  0  0  0
  123.5570  123.7260   59.3260 C   0  0  0  0  0  0  0  0  0  0  0  0
  125.2060  124.2290   59.0990 S   0  0  0  0  0  0  0  0  0  0  0  0
  129.1900  124.0110   63.0190 S   0  0  0  0  0  0  0  0  0  0  0  0
  130.9280  124.2070   63.0500 C   0  0  0  0  0  0  0  0  0  0  0  0
  131.5820  124.5370   64.1640 N   0  0  0  0  0  0  0  0  0  0  0  0
  1  2  1  0
  2  3  2  0
  3  4  1  0
  4  5  1  0
  4  6  2  0
  6  7  1  0
  7  8  1  0
  7  9  2  0
  9 10  1  0
 10 11  2  0
 10 12  1  0
 12 13  1  0
 13 14  2  0
 14 15  1  0
 15 16  2  0
 16 17  1  0
  9 18  1  0
 18 19  1  0
 19 20  2  0
 20  2  1  0
 19  6  1  0
 17 13  1  0
M  END
>  <Binding energies>  (46) 
[-6.58]

>  <Ligand effiencies>  (46) 
[-0.28608695652173916]

>  <Interactions>  (46) 
["V-B:GLU:543:CG:9876, V-B:GLU:543:CD:9877, H-B:GLU:543:OE2:9879, V-A:HIS:456:CE1:4066, V-A:ASP:366:CG:3209, V-B:ASN:362:C:8140, H-B:ALA:541:N:9860, V-B:LEU:363:CD1:8157, V-B:ASN:362:CB:8144, V-B:PRO:540:CB:9854, V-B:PRO:540:CA:9852, V-B:TYR:539:CZ:9846, V-B:TYR:539:CE2:9845, V-B:LEU:363:CB:8155, V-B:LEU:363:CA:8153, V-B:ALA:541:CB:9861, V-A:ASP:366:CB:3208, H-B:TYR:539:OH:9847, V-A:GLY:454:CA:4045, V-A:ARG:545:CZ:4923, V-A:ARG:545:CD:4920, H-A:TYR:484:OH:4344, V-A:ASP:366:CA:3206, V-B:ASN:362:CA:8142"]

$$$$
4ak_Grossjean_2025
     RDKit          3D

 25 26  0  0  0  0  0  0  0  0999 V2000
  125.8230  122.1960   56.1740 C   0  0  0  0  0  0  0  0  0  0  0  0
  127.2330  122.0300   56.1630 O   0  0  0  0  0  0  0  0  0  0  0  0
  127.8600  122.4460   57.3700 C   0  0  0  0  0  0  0  0  0  0  0  0
  128.0640  123.9660   57.3430 C   0  0  0  0  0  0  0  0  0  0  0  0
  126.7970  124.6110   57.3630 O   0  0  0  0  0  0  0  0  0  0  0  0
  126.8170  125.8950   57.9730 C   0  0  0  0  0  0  0  0  0  0  0  0
  125.3760  126.3780   58.1830 C   0  0  0  0  0  0  0  0  0  0  0  0
  124.4780  125.4500   57.5900 O   0  0  0  0  0  0  0  0  0  0  0  0
  123.3870  125.0900   58.4260 C   0  0  0  0  0  0  0  0  0  0  0  0
  123.7890  123.8870   59.2980 C   0  0  0  0  0  0  0  0  0  0  0  0
  125.2200  123.8300   59.5950 N   0  0  0  0  0  0  0  0  0  0  0  0
  125.7590  123.4220   60.7620 C   0  0  0  0  0  0  0  0  0  0  0  0
  125.0720  123.0280   61.7050 O   0  0  0  0  0  0  0  0  0  0  0  0
  127.2180  123.4650   60.8460 C   0  0  0  0  0  0  0  0  0  0  0  0
  128.1660  121.9970   60.6120 S   0  0  0  0  0  0  0  0  0  0  0  0
  129.6630  122.8710   60.8440 C   0  0  0  0  0  0  0  0  0  0  0  0
  130.8500  122.2660   60.7900 N   0  0  0  0  0  0  0  0  0  0  0  0
  131.9320  123.0580   60.9900 C   0  0  0  0  0  0  0  0  0  0  0  0
  133.2730  122.3500   60.9230 C   0  0  0  0  0  0  0  0  0  0  0  0
  131.8550  124.4260   61.2400 C   0  0  0  0  0  0  0  0  0  0  0  0
  130.6070  125.0590   61.2960 C   0  0  0  0  0  0  0  0  0  0  0  0
  130.5740  126.5540   61.5760 C   0  0  0  0  0  0  0  0  0  0  0  0
  129.4500  124.2610   61.0920 C   0  0  0  0  0  0  0  0  0  0  0  0
  128.0460  124.5730   61.0820 C   0  0  0  0  0  0  0  0  0  0  0  0
  127.5760  125.8460   61.2890 N   0  0  0  0  0  0  0  0  0  0  0  0
  1  2  1  0
  2  3  1  0
  3  4  1  0
  4  5  1  0
  5  6  1  0
  6  7  1  0
  7  8  1  0
  8  9  1  0
  9 10  1  0
 10 11  1  0
 11 12  1  0
 12 13  2  0
 12 14  1  0
 14 15  1  0
 15 16  1  0
 16 17  2  0
 17 18  1  0
 18 19  1  0
 18 20  2  0
 20 21  1  0
 21 22  1  0
 21 23  2  0
 23 24  1  0
 24 25  1  0
 24 14  2  0
 23 16  1  0
M  END
>  <Binding energies>  (47) 
[-5.74]

>  <Ligand effiencies>  (47) 
[-0.20500000000000002]

>  <Interactions>  (47) 
["V-B:GLU:543:CD:9877, H-B:GLU:543:OE1:9878, H-B:GLU:543:OE2:9879, V-A:ASP:366:CG:3209, V-B:ASN:362:C:8140, V-B:TYR:539:CD1:9842, V-B:PRO:540:C:9850, V-B:ILE:538:CB:9831, V-B:PRO:540:N:9853, H-B:ALA:541:N:9860, V-B:LEU:363:CD1:8157, V-B:PRO:540:CD:9856, H-B:TYR:539:N:9839, V-B:PRO:540:CB:9854, V-B:ILE:538:CG2:9832, V-B:PRO:540:CA:9852, V-B:TYR:539:CE1:9844, V-B:TYR:539:CZ:9846, V-B:TYR:539:CE2:9845, V-B:LEU:363:CB:8155, V-B:LEU:363:CA:8153, V-B:TYR:539:C:9836, V-B:ALA:541:CA:9859, V-B:ASP:366:CB:8180, V-B:ALA:541:CB:9861, H-B:ASP:366:OD1:8182, V-B:ASP:366:CG:8181, H-B:TYR:531:OH:9764, V-B:TYR:539:CG:9841, V-B:ILE:538:CA:9829, V-A:ILE:369:CG2:3233"]

$$$$
4al_Grossjean_2025
     RDKit          3D

 16 17  0  0  0  0  0  0  0  0999 V2000
  127.2110  130.4910   55.5170 C   0  0  0  0  0  0  0  0  0  0  0  0
  127.3490  131.7980   56.0540 O   0  0  0  0  0  0  0  0  0  0  0  0
  128.4980  132.5030   55.8860 C   0  0  0  0  0  0  0  0  0  0  0  0
  128.6870  133.3060   54.9690 O   0  0  0  0  0  0  0  0  0  0  0  0
  129.5100  132.2090   56.9240 C   0  0  0  0  0  0  0  0  0  0  0  0
  129.1320  132.4790   58.6260 S   0  0  0  0  0  0  0  0  0  0  0  0
  130.7200  131.9290   59.1090 C   0  0  0  0  0  0  0  0  0  0  0  0
  131.0940  131.8900   60.3880 N   0  0  0  0  0  0  0  0  0  0  0  0
  132.3520  131.4440   60.6290 C   0  0  0  0  0  0  0  0  0  0  0  0
  132.7560  131.4060   62.0910 C   0  0  0  0  0  0  0  0  0  0  0  0
  133.2350  131.0410   59.6290 C   0  0  0  0  0  0  0  0  0  0  0  0
  132.8400  131.0840   58.2870 C   0  0  0  0  0  0  0  0  0  0  0  0
  133.8380  130.6340   57.2320 C   0  0  0  0  0  0  0  0  0  0  0  0
  131.5280  131.5460   57.9980 C   0  0  0  0  0  0  0  0  0  0  0  0
  130.8110  131.7160   56.7640 C   0  0  0  0  0  0  0  0  0  0  0  0
  131.3610  131.4190   55.5430 N   0  0  0  0  0  0  0  0  0  0  0  0
  1  2  1  0
  2  3  1  0
  3  4  2  0
  3  5  1  0
  5  6  1  0
  6  7  1  0
  7  8  2  0
  8  9  1  0
  9 10  1  0
  9 11  2  0
 11 12  1  0
 12 13  1  0
 12 14  2  0
 14 15  1  0
 15 16  1  0
 15  5  2  0
 14  7  1  0
M  END
>  <Binding energies>  (48) 
[-5.77]

>  <Ligand effiencies>  (48) 
[-0.32055555555555554]

>  <Interactions>  (48) 
["V-A:GLU:543:CD:4905, V-A:GLU:543:CG:4904, V-A:TYR:539:CE2:4873, V-A:ILE:538:CG2:4860, V-A:PRO:540:CA:4880, V-A:ASN:362:C:3168, V-A:PRO:540:CB:4882, H-A:TYR:539:OH:4875, V-A:TYR:539:CD2:4871, V-A:LEU:363:CD1:3185, V-A:TYR:539:CE1:4872, V-A:ILE:538:CD1:4862, V-A:TYR:539:CZ:4874, H-A:TYR:539:N:4867, V-A:ASN:362:CB:3172, V-A:TYR:539:C:4864, V-A:PRO:540:N:4881, V-A:LEU:363:CA:3181, V-A:TYR:539:CG:4869, H-A:ALA:541:N:4888, V-A:TYR:539:CD1:4870, H-A:TYR:531:OH:4792, V-A:TYR:531:CE2:4790, V-A:TYR:531:CZ:4791, V-A:LEU:363:C:3179, V-A:LEU:363:CB:3183, V-A:LEU:363:CG:3184, V-A:ASN:362:CG:3173"]

$$$$
4bc_Grossjean_2025
     RDKit          3D

 26 28  0  0  0  0  0  0  0  0999 V2000
  132.1930  132.1680   55.5250 C   0  0  0  0  0  0  0  0  0  0  0  0
  130.9490  132.8520   55.6280 O   0  0  0  0  0  0  0  0  0  0  0  0
  130.0830  132.5240   56.6540 C   0  0  0  0  0  0  0  0  0  0  0  0
  130.6640  132.1950   57.8770 C   0  0  0  0  0  0  0  0  0  0  0  0
  129.8720  131.8500   58.9700 C   0  0  0  0  0  0  0  0  0  0  0  0
  128.4810  131.8380   58.8530 C   0  0  0  0  0  0  0  0  0  0  0  0
  127.7640  131.4630   60.0030 N   0  0  0  0  0  0  0  0  0  0  0  0
  126.4240  131.3990   60.1950 C   0  0  0  0  0  0  0  0  0  0  0  0
  125.5920  131.7140   59.3440 O   0  0  0  0  0  0  0  0  0  0  0  0
  125.9990  130.9260   61.5170 C   0  0  0  0  0  0  0  0  0  0  0  0
  124.3710  131.2650   62.0990 S   0  0  0  0  0  0  0  0  0  0  0  0
  124.6840  130.4290   63.6010 C   0  0  0  0  0  0  0  0  0  0  0  0
  123.7520  130.3270   64.5480 N   0  0  0  0  0  0  0  0  0  0  0  0
  124.1120  129.6590   65.6670 C   0  0  0  0  0  0  0  0  0  0  0  0
  123.0350  129.5500   66.7310 C   0  0  0  0  0  0  0  0  0  0  0  0
  125.3710  129.0950   65.8610 C   0  0  0  0  0  0  0  0  0  0  0  0
  126.3570  129.2000   64.8680 C   0  0  0  0  0  0  0  0  0  0  0  0
  127.7290  128.5650   65.1290 C   0  0  0  0  0  0  0  0  0  0  0  0
  127.7240  127.7210   66.1610 F   0  0  0  0  0  0  0  0  0  0  0  0
  128.1190  127.8820   64.0540 F   0  0  0  0  0  0  0  0  0  0  0  0
  128.6230  129.5170   65.3950 F   0  0  0  0  0  0  0  0  0  0  0  0
  126.0090  129.8970   63.6730 C   0  0  0  0  0  0  0  0  0  0  0  0
  126.7360  130.1970   62.4630 C   0  0  0  0  0  0  0  0  0  0  0  0
  128.0330  129.7990   62.2620 N   0  0  0  0  0  0  0  0  0  0  0  0
  127.8890  132.1550   57.6210 C   0  0  0  0  0  0  0  0  0  0  0  0
  128.6840  132.4980   56.5310 C   0  0  0  0  0  0  0  0  0  0  0  0
  1  2  1  0
  2  3  1  0
  3  4  2  0
  4  5  1  0
  5  6  2  0
  6  7  1  0
  7  8  1  0
  8  9  2  0
  8 10  1  0
 10 11  1  0
 11 12  1  0
 12 13  2  0
 13 14  1  0
 14 15  1  0
 14 16  2  0
 16 17  1  0
 17 18  1  0
 18 19  1  0
 18 20  1  0
 18 21  1  0
 17 22  2  0
 22 23  1  0
 23 24  1  0
  6 25  1  0
 25 26  2  0
 26  3  1  0
 23 10  2  0
 22 12  1  0
M  END
>  <Binding energies>  (49) 
[-6.73]

>  <Ligand effiencies>  (49) 
[-0.2320689655172414]

>  <Interactions>  (49) 
["V-B:HIS:456:CE1:9038, V-B:ARG:545:CZ:9895, V-B:GLU:543:CD:9877, V-A:GLU:543:CD:4905, V-A:GLU:543:CG:4904, V-A:GLU:543:CB:4903, H-B:GLY:454:N:9018, H-B:TYR:484:OH:9316, V-B:ARG:545:CD:9892, V-B:GLY:453:C:9010, V-B:GLY:453:CA:9012, V-B:ARG:545:CG:9891, V-B:ILE:455:C:9020, V-A:TYR:539:CE2:4873, V-A:ILE:538:CG2:4860, V-A:PRO:540:CA:4880, V-A:PRO:540:CB:4882, V-A:TYR:539:CD2:4871, V-A:LEU:363:CD1:3185, V-A:ILE:538:CD1:4862, V-A:TYR:539:CZ:4874, H-A:TYR:539:N:4867, V-A:TYR:539:C:4864, V-A:PRO:540:N:4881, V-A:TYR:539:CG:4869, H-A:GLU:543:OE2:4907, V-A:TYR:531:CE2:4790, V-A:TYR:531:CZ:4791, V-B:ILE:369:CD1:8207, V-B:ASP:366:CG:8181, V-B:ARG:545:CB:9890"]

$$$$
4bf_Grossjean_2025
     RDKit          3D

 24 26  0  0  0  0  0  0  0  0999 V2000
  124.8030  122.8530   55.1650 C   0  0  0  0  0  0  0  0  0  0  0  0
  125.4130  123.0800   56.5370 C   0  0  0  0  0  0  0  0  0  0  0  0
  124.6220  123.4420   57.6230 C   0  0  0  0  0  0  0  0  0  0  0  0
  125.2000  123.6520   58.8840 C   0  0  0  0  0  0  0  0  0  0  0  0
  124.2890  124.0530   60.0500 C   0  0  0  0  0  0  0  0  0  0  0  0
  124.6980  125.1610   60.6750 F   0  0  0  0  0  0  0  0  0  0  0  0
  123.0550  124.2800   59.6020 F   0  0  0  0  0  0  0  0  0  0  0  0
  124.2570  123.0740   60.9550 F   0  0  0  0  0  0  0  0  0  0  0  0
  126.6120  123.4770   58.9930 C   0  0  0  0  0  0  0  0  0  0  0  0
  127.5340  123.6020   60.0940 C   0  0  0  0  0  0  0  0  0  0  0  0
  127.1330  123.9480   61.3600 N   0  0  0  0  0  0  0  0  0  0  0  0
  128.8720  123.3360   59.7570 C   0  0  0  0  0  0  0  0  0  0  0  0
  130.0600  123.4000   60.6130 C   0  0  0  0  0  0  0  0  0  0  0  0
  129.9520  123.3640   61.8390 O   0  0  0  0  0  0  0  0  0  0  0  0
  131.2440  123.4830   59.9580 N   0  0  0  0  0  0  0  0  0  0  0  0
  132.5480  123.6070   60.4740 C   0  0  0  0  0  0  0  0  0  0  0  0
  133.7340  123.4030   59.7490 C   0  0  0  0  0  0  0  0  0  0  0  0
  134.9680  123.5440   60.3880 C   0  0  0  0  0  0  0  0  0  0  0  0
  134.9840  123.8820   61.7420 C   0  0  0  0  0  0  0  0  0  0  0  0
  133.8540  124.0770   62.4650 N   0  0  0  0  0  0  0  0  0  0  0  0
  132.6620  123.9360   61.8300 C   0  0  0  0  0  0  0  0  0  0  0  0
  129.0280  122.9240   58.0510 S   0  0  0  0  0  0  0  0  0  0  0  0
  127.3070  123.1030   57.8020 C   0  0  0  0  0  0  0  0  0  0  0  0
  126.7540  122.9050   56.6060 N   0  0  0  0  0  0  0  0  0  0  0  0
  1  2  1  0
  2  3  2  0
  3  4  1  0
  4  5  1  0
  5  6  1  0
  5  7  1  0
  5  8  1  0
  4  9  2  0
  9 10  1  0
 10 11  1  0
 10 12  2  0
 12 13  1  0
 13 14  2  0
 13 15  1  0
 15 16  1  0
 16 17  2  0
 17 18  1  0
 18 19  2  0
 19 20  1  0
 20 21  2  0
 12 22  1  0
 22 23  1  0
 23 24  2  0
 24  2  1  0
 23  9  1  0
 21 16  1  0
M  END
>  <Binding energies>  (50) 
[-6.8]

>  <Ligand effiencies>  (50) 
[-0.2518518518518518]

>  <Interactions>  (50) 
["V-B:GLU:543:CG:9876, V-B:GLU:543:CD:9877, H-B:GLU:543:OE2:9879, V-A:ASP:366:CG:3209, V-B:ASN:362:C:8140, V-B:TYR:539:CD1:9842, V-B:PRO:540:C:9850, V-B:ILE:538:CB:9831, V-B:LEU:363:CD1:8157, V-B:ASN:362:CB:8144, V-B:PRO:540:CB:9854, V-B:ILE:538:CG2:9832, V-B:PRO:540:CA:9852, V-B:TYR:539:CE1:9844, V-B:TYR:539:CZ:9846, V-B:TYR:539:CE2:9845, V-B:LEU:363:CB:8155, V-B:LEU:363:CA:8153, V-B:ALA:541:CB:9861, V-B:TYR:539:CD2:9843, V-A:ASP:366:CB:3208, H-B:TYR:539:OH:9847, V-A:GLY:454:CA:4045, V-B:ASP:366:CG:8181, H-A:GLY:454:N:4046, V-A:GLY:453:C:4038, V-B:ILE:538:CD1:9834, V-A:GLY:453:CA:4040, V-A:ILE:369:CG2:3233, V-A:ASP:366:CA:3206, V-A:ILE:369:CG1:3234, V-A:ILE:369:CB:3232"]

$$$$
4bh_Grossjean_2025
     RDKit          3D

 31 33  0  0  0  0  0  0  0  0999 V2000
  128.2610  132.7550   53.6040 C   0  0  0  0  0  0  0  0  0  0  0  0
  129.1760  132.9300   54.6800 O   0  0  0  0  0  0  0  0  0  0  0  0
  128.9570  132.2650   55.8730 C   0  0  0  0  0  0  0  0  0  0  0  0
  127.7910  131.5410   56.1640 C   0  0  0  0  0  0  0  0  0  0  0  0
  127.6360  130.8940   57.3910 C   0  0  0  0  0  0  0  0  0  0  0  0
  126.3830  130.0750   57.6710 C   0  0  0  0  0  0  0  0  0  0  0  0
  126.0830  129.9340   59.0970 N   0  0  0  0  0  0  0  0  0  0  0  0
  126.0620  130.9410   59.9950 C   0  0  0  0  0  0  0  0  0  0  0  0
  126.3410  132.1030   59.6930 O   0  0  0  0  0  0  0  0  0  0  0  0
  125.7310  130.5690   61.3700 C   0  0  0  0  0  0  0  0  0  0  0  0
  124.1640  131.0000   62.0480 S   0  0  0  0  0  0  0  0  0  0  0  0
  124.5870  130.2900   63.5880 C   0  0  0  0  0  0  0  0  0  0  0  0
  123.7350  130.2940   64.6120 N   0  0  0  0  0  0  0  0  0  0  0  0
  124.1740  129.7130   65.7530 C   0  0  0  0  0  0  0  0  0  0  0  0
  123.1880  129.7290   66.9070 C   0  0  0  0  0  0  0  0  0  0  0  0
  125.4320  129.1320   65.8920 C   0  0  0  0  0  0  0  0  0  0  0  0
  126.3350  129.1280   64.8170 C   0  0  0  0  0  0  0  0  0  0  0  0
  127.7070  128.4750   65.0170 C   0  0  0  0  0  0  0  0  0  0  0  0
  128.6910  129.3630   65.1790 F   0  0  0  0  0  0  0  0  0  0  0  0
  127.6860  127.7020   66.1020 F   0  0  0  0  0  0  0  0  0  0  0  0
  128.0120  127.7320   63.9530 F   0  0  0  0  0  0  0  0  0  0  0  0
  125.9040  129.7350   63.6010 C   0  0  0  0  0  0  0  0  0  0  0  0
  126.5390  129.9220   62.3190 C   0  0  0  0  0  0  0  0  0  0  0  0
  127.8150  129.4980   62.0530 N   0  0  0  0  0  0  0  0  0  0  0  0
  128.6680  130.9460   58.3300 C   0  0  0  0  0  0  0  0  0  0  0  0
  129.8430  131.6700   58.0690 C   0  0  0  0  0  0  0  0  0  0  0  0
  130.8980  131.7750   58.9570 O   0  0  0  0  0  0  0  0  0  0  0  0
  130.8200  131.1110   60.2150 C   0  0  0  0  0  0  0  0  0  0  0  0
  129.9720  132.3290   56.8380 C   0  0  0  0  0  0  0  0  0  0  0  0
  131.1250  133.0270   56.5630 O   0  0  0  0  0  0  0  0  0  0  0  0
  132.2090  132.2080   56.1470 C   0  0  0  0  0  0  0  0  0  0  0  0
  1  2  1  0
  2  3  1  0
  3  4  2  0
  4  5  1  0
  5  6  1  0
  6  7  1  0
  7  8  1  0
  8  9  2  0
  8 10  1  0
 10 11  1  0
 11 12  1  0
 12 13  2  0
 13 14  1  0
 14 15  1  0
 14 16  2  0
 16 17  1  0
 17 18  1  0
 18 19  1  0
 18 20  1  0
 18 21  1  0
 17 22  2  0
 22 23  1  0
 23 24  1  0
  5 25  2  0
 25 26  1  0
 26 27  1  0
 27 28  1  0
 26 29  2  0
 29 30  1  0
 30 31  1  0
 29  3  1  0
 23 10  2  0
 22 12  1  0
M  END
>  <Binding energies>  (51) 
[-7.17]

>  <Ligand effiencies>  (51) 
[-0.21088235294117647]

>  <Interactions>  (51) 
["V-B:HIS:456:CE1:9038, V-B:ARG:545:CZ:9895, V-B:GLU:543:CD:9877, V-A:GLU:543:CD:4905, V-A:GLU:543:CG:4904, V-A:GLU:543:CB:4903, H-B:GLY:454:N:9018, H-B:TYR:484:OH:9316, V-B:ARG:545:CD:9892, V-B:GLY:453:C:9010, V-B:GLY:453:CA:9012, V-B:ARG:545:CG:9891, V-B:ILE:455:C:9020, V-A:TYR:539:CE2:4873, V-A:ILE:538:CG2:4860, V-A:PRO:540:CA:4880, V-A:PRO:540:CB:4882, V-A:TYR:539:CD2:4871, V-A:LEU:363:CD1:3185, V-A:TYR:539:CE1:4872, V-A:ILE:538:CD1:4862, V-A:TYR:539:CZ:4874, H-A:TYR:539:N:4867, V-A:PRO:540:CD:4884, V-A:TYR:539:C:4864, V-A:PRO:540:N:4881, V-A:ILE:538:CA:4857, V-A:TYR:539:CD1:4870, H-A:GLU:543:OE2:4907, H-B:ASP:366:OD1:8182, V-B:ILE:369:CD1:8207, V-B:ASP:366:CG:8181, V-A:VAL:537:C:4847"]

$$$$
4bi_Grossjean_2025
     RDKit          3D

 23 25  0  0  0  0  0  0  0  0999 V2000
  133.5100  124.9920   65.3070 C   0  0  0  0  0  0  0  0  0  0  0  0
  132.7840  124.5840   64.0380 C   0  0  0  0  0  0  0  0  0  0  0  0
  133.4830  124.3260   62.8620 C   0  0  0  0  0  0  0  0  0  0  0  0
  132.7980  123.9450   61.6960 C   0  0  0  0  0  0  0  0  0  0  0  0
  133.6120  123.6640   60.4290 C   0  0  0  0  0  0  0  0  0  0  0  0
  134.9170  123.8970   60.5840 F   0  0  0  0  0  0  0  0  0  0  0  0
  133.4750  122.3850   60.0780 F   0  0  0  0  0  0  0  0  0  0  0  0
  133.1830  124.4420   59.4350 F   0  0  0  0  0  0  0  0  0  0  0  0
  131.3780  123.8430   61.7790 C   0  0  0  0  0  0  0  0  0  0  0  0
  130.3620  123.4920   60.8160 C   0  0  0  0  0  0  0  0  0  0  0  0
  130.6530  123.1730   59.5150 N   0  0  0  0  0  0  0  0  0  0  0  0
  129.0550  123.5010   61.3320 C   0  0  0  0  0  0  0  0  0  0  0  0
  127.7970  123.2120   60.6370 C   0  0  0  0  0  0  0  0  0  0  0  0
  127.7910  122.5580   59.5920 O   0  0  0  0  0  0  0  0  0  0  0  0
  126.6790  123.6920   61.2350 N   0  0  0  0  0  0  0  0  0  0  0  0
  125.3650  123.5550   60.8050 C   0  0  0  0  0  0  0  0  0  0  0  0
  124.8660  124.1880   59.6670 C   0  0  0  0  0  0  0  0  0  0  0  0
  123.5480  123.8020   59.5910 C   0  0  0  0  0  0  0  0  0  0  0  0
  123.2670  122.9780   60.6300 O   0  0  0  0  0  0  0  0  0  0  0  0
  124.4280  122.8300   61.3920 N   0  0  0  0  0  0  0  0  0  0  0  0
  129.0430  123.9710   63.0300 S   0  0  0  0  0  0  0  0  0  0  0  0
  130.7830  124.1340   63.0450 C   0  0  0  0  0  0  0  0  0  0  0  0
  131.4380  124.4940   64.1480 N   0  0  0  0  0  0  0  0  0  0  0  0
  1  2  1  0
  2  3  2  0
  3  4  1  0
  4  5  1  0
  5  6  1  0
  5  7  1  0
  5  8  1  0
  4  9  2  0
  9 10  1  0
 10 11  1  0
 10 12  2  0
 12 13  1  0
 13 14  2  0
 13 15  1  0
 15 16  1  0
 16 17  1  0
 17 18  2  0
 18 19  1  0
 19 20  1  0
 12 21  1  0
 21 22  1  0
 22 23  2  0
 23  2  1  0
 22  9  1  0
 20 16  2  0
M  END
>  <Binding energies>  (52) 
[-6.52]

>  <Ligand effiencies>  (52) 
[-0.25076923076923074]

>  <Interactions>  (52) 
["V-B:GLU:543:CG:9876, V-B:GLU:543:CD:9877, H-B:GLU:543:OE2:9879, V-A:HIS:456:CE1:4066, V-A:ASP:366:CG:3209, V-B:ASN:362:C:8140, H-B:ALA:541:N:9860, V-B:LEU:363:CD1:8157, V-B:PRO:540:CB:9854, V-B:PRO:540:CA:9852, V-B:TYR:539:CZ:9846, V-B:TYR:539:CE2:9845, V-B:LEU:363:CB:8155, V-B:LEU:363:CA:8153, V-B:ALA:541:CB:9861, V-B:TYR:539:CD2:9843, V-A:ASP:366:CB:3208, H-B:TYR:539:OH:9847, V-A:GLY:454:CA:4045, H-B:LEU:363:N:8154, V-A:ARG:545:CZ:4923, V-A:ARG:545:CD:4920, H-A:TYR:484:OH:4344, V-A:ILE:369:CG2:3233, V-A:ASP:366:CA:3206, V-A:ILE:369:CG1:3234, V-A:ILE:369:CB:3232"]

$$$$
4bj_Grossjean_2025
     RDKit          3D

 23 25  0  0  0  0  0  0  0  0999 V2000
  133.6120  125.0370   65.2830 C   0  0  0  0  0  0  0  0  0  0  0  0
  132.8900  124.6150   64.0160 C   0  0  0  0  0  0  0  0  0  0  0  0
  133.5940  124.3300   62.8490 C   0  0  0  0  0  0  0  0  0  0  0  0
  132.9120  123.9470   61.6830 C   0  0  0  0  0  0  0  0  0  0  0  0
  133.7310  123.6460   60.4220 C   0  0  0  0  0  0  0  0  0  0  0  0
  135.0320  123.9000   60.5720 F   0  0  0  0  0  0  0  0  0  0  0  0
  133.6090  122.3580   60.1030 F   0  0  0  0  0  0  0  0  0  0  0  0
  133.2910  124.3940   59.4110 F   0  0  0  0  0  0  0  0  0  0  0  0
  131.4900  123.8660   61.7560 C   0  0  0  0  0  0  0  0  0  0  0  0
  130.4750  123.5220   60.7890 C   0  0  0  0  0  0  0  0  0  0  0  0
  130.7710  123.1830   59.4930 N   0  0  0  0  0  0  0  0  0  0  0  0
  129.1660  123.5580   61.2950 C   0  0  0  0  0  0  0  0  0  0  0  0
  127.9100  123.2780   60.5950 C   0  0  0  0  0  0  0  0  0  0  0  0
  127.8980  122.6010   59.5640 O   0  0  0  0  0  0  0  0  0  0  0  0
  126.7960  123.7980   61.1680 N   0  0  0  0  0  0  0  0  0  0  0  0
  125.4900  123.6710   60.7160 C   0  0  0  0  0  0  0  0  0  0  0  0
  124.4740  123.1020   61.3280 N   0  0  0  0  0  0  0  0  0  0  0  0
  123.3730  123.1690   60.6060 C   0  0  0  0  0  0  0  0  0  0  0  0
  123.4830  123.8050   59.3740 C   0  0  0  0  0  0  0  0  0  0  0  0
  125.1230  124.3390   59.1570 S   0  0  0  0  0  0  0  0  0  0  0  0
  129.1480  124.0450   62.9880 S   0  0  0  0  0  0  0  0  0  0  0  0
  130.8910  124.1810   63.0140 C   0  0  0  0  0  0  0  0  0  0  0  0
  131.5420  124.5460   64.1180 N   0  0  0  0  0  0  0  0  0  0  0  0
  1  2  1  0
  2  3  2  0
  3  4  1  0
  4  5  1  0
  5  6  1  0
  5  7  1  0
  5  8  1  0
  4  9  2  0
  9 10  1  0
 10 11  1  0
 10 12  2  0
 12 13  1  0
 13 14  2  0
 13 15  1  0
 15 16  1  0
 16 17  2  0
 17 18  1  0
 18 19  2  0
 19 20  1  0
 12 21  1  0
 21 22  1  0
 22 23  2  0
 23  2  1  0
 22  9  1  0
 20 16  1  0
M  END
>  <Binding energies>  (53) 
[-6.37]

>  <Ligand effiencies>  (53) 
[-0.245]

>  <Interactions>  (53) 
["V-B:GLU:543:CG:9876, V-B:GLU:543:CD:9877, H-B:GLU:543:OE2:9879, V-A:HIS:456:CE1:4066, V-A:ASP:366:CG:3209, V-B:ASN:362:C:8140, H-B:ALA:541:N:9860, V-B:LEU:363:CD1:8157, V-B:ASN:362:CB:8144, V-B:PRO:540:CB:9854, V-B:PRO:540:CA:9852, V-B:TYR:539:CZ:9846, V-B:TYR:539:CE2:9845, V-B:LEU:363:CB:8155, V-B:LEU:363:CA:8153, V-B:ALA:541:CB:9861, V-B:TYR:539:CD2:9843, V-A:ASP:366:CB:3208, H-B:TYR:539:OH:9847, V-A:GLY:454:CA:4045, V-A:ARG:545:CZ:4923, V-A:ARG:545:CD:4920, H-A:TYR:484:OH:4344, V-A:ILE:369:CG2:3233, V-A:ASP:366:CA:3206, V-A:ILE:369:CG1:3234, V-A:ILE:369:CB:3232, V-B:ASN:362:CA:8142"]

$$$$
4bk_Grossjean_2025
     RDKit          3D

 28 29  0  0  0  0  0  0  0  0999 V2000
  127.9840  122.6970   54.8310 C   0  0  0  0  0  0  0  0  0  0  0  0
  127.4960  121.7110   55.7280 O   0  0  0  0  0  0  0  0  0  0  0  0
  127.6950  122.0420   57.0960 C   0  0  0  0  0  0  0  0  0  0  0  0
  126.5100  122.8770   57.5990 C   0  0  0  0  0  0  0  0  0  0  0  0
  126.9470  124.2030   57.8670 O   0  0  0  0  0  0  0  0  0  0  0  0
  126.3940  125.1770   56.9920 C   0  0  0  0  0  0  0  0  0  0  0  0
  124.8990  124.8950   56.7940 C   0  0  0  0  0  0  0  0  0  0  0  0
  124.1450  125.7160   57.6750 O   0  0  0  0  0  0  0  0  0  0  0  0
  123.0020  125.0710   58.2250 C   0  0  0  0  0  0  0  0  0  0  0  0
  123.3810  124.4190   59.5660 C   0  0  0  0  0  0  0  0  0  0  0  0
  124.8250  124.3370   59.7930 N   0  0  0  0  0  0  0  0  0  0  0  0
  125.4250  123.5610   60.7190 C   0  0  0  0  0  0  0  0  0  0  0  0
  124.7910  122.8150   61.4670 O   0  0  0  0  0  0  0  0  0  0  0  0
  126.8850  123.6470   60.7820 C   0  0  0  0  0  0  0  0  0  0  0  0
  127.8650  122.1990   60.5630 S   0  0  0  0  0  0  0  0  0  0  0  0
  129.3400  123.1190   60.7420 C   0  0  0  0  0  0  0  0  0  0  0  0
  130.5360  122.5360   60.6710 N   0  0  0  0  0  0  0  0  0  0  0  0
  131.6060  123.3510   60.8230 C   0  0  0  0  0  0  0  0  0  0  0  0
  132.9570  122.6650   60.7370 C   0  0  0  0  0  0  0  0  0  0  0  0
  131.5080  124.7220   61.0420 C   0  0  0  0  0  0  0  0  0  0  0  0
  130.2520  125.3430   61.1200 C   0  0  0  0  0  0  0  0  0  0  0  0
  130.1950  126.8540   61.3660 C   0  0  0  0  0  0  0  0  0  0  0  0
  129.8470  127.5480   60.2800 F   0  0  0  0  0  0  0  0  0  0  0  0
  129.2990  127.1230   62.3160 F   0  0  0  0  0  0  0  0  0  0  0  0
  131.3920  127.2940   61.7540 F   0  0  0  0  0  0  0  0  0  0  0  0
  129.1030  124.5120   60.9620 C   0  0  0  0  0  0  0  0  0  0  0  0
  127.6860  124.7820   60.9750 C   0  0  0  0  0  0  0  0  0  0  0  0
  127.1730  126.0390   61.1640 N   0  0  0  0  0  0  0  0  0  0  0  0
  1  2  1  0
  2  3  1  0
  3  4  1  0
  4  5  1  0
  5  6  1  0
  6  7  1  0
  7  8  1  0
  8  9  1  0
  9 10  1  0
 10 11  1  0
 11 12  1  0
 12 13  2  0
 12 14  1  0
 14 15  1  0
 15 16  1  0
 16 17  2  0
 17 18  1  0
 18 19  1  0
 18 20  2  0
 20 21  1  0
 21 22  1  0
 22 23  1  0
 22 24  1  0
 22 25  1  0
 21 26  2  0
 26 27  1  0
 27 28  1  0
 27 14  2  0
 26 16  1  0
M  END
>  <Binding energies>  (54) 
[-5.46]

>  <Ligand effiencies>  (54) 
[-0.1761290322580645]

>  <Interactions>  (54) 
["V-B:GLU:543:CD:9877, H-B:GLU:543:OE1:9878, V-A:GLU:543:CD:4905, H-B:GLU:543:OE2:9879, V-A:ASP:366:CG:3209, V-B:ASN:362:C:8140, V-B:TYR:539:CD1:9842, V-B:PRO:540:C:9850, V-B:ILE:538:CB:9831, V-B:PRO:540:N:9853, H-B:ALA:541:N:9860, V-B:LEU:363:CD1:8157, V-B:MET:535:CE:9804, H-B:TYR:539:N:9839, V-B:PRO:540:CB:9854, V-B:ILE:538:CG2:9832, V-B:PRO:540:CA:9852, V-B:TYR:539:CE1:9844, V-B:TYR:539:CZ:9846, V-B:TYR:539:CE2:9845, V-B:LEU:363:CB:8155, V-B:LEU:363:CA:8153, V-B:TYR:531:CE2:9762, V-B:TYR:539:C:9836, V-B:ALA:541:CA:9859, V-B:TYR:531:CZ:9763, V-B:ASP:366:CB:8180, V-B:ALA:541:CB:9861, H-B:ASP:366:OD1:8182, H-B:TYR:531:OH:9764, V-A:ARG:545:CZ:4923, V-B:TYR:539:CG:9841, V-B:ILE:538:CA:9829, V-B:TYR:539:CA:9838, V-B:LEU:363:C:8151, V-B:LEU:363:CG:8156"]

$$$$
4cd_Grossjean_2025
     RDKit          3D

 29 32  0  0  0  0  0  0  0  0999 V2000
  131.0300  122.2070   64.1350 N   0  0  0  0  0  0  0  0  0  0  0  0
  130.2520  123.1080   63.4530 C   0  0  0  0  0  0  0  0  0  0  0  0
  130.0090  124.4140   63.9080 C   0  0  0  0  0  0  0  0  0  0  0  0
  130.4830  125.0560   65.1390 C   0  0  0  0  0  0  0  0  0  0  0  0
  131.6580  124.9480   65.4910 O   0  0  0  0  0  0  0  0  0  0  0  0
  129.5480  125.7590   65.8240 N   0  0  0  0  0  0  0  0  0  0  0  0
  129.6600  126.4400   67.0500 C   0  0  0  0  0  0  0  0  0  0  0  0
  128.7710  126.0440   68.0540 C   0  0  0  0  0  0  0  0  0  0  0  0
  128.8110  126.6480   69.3060 C   0  0  0  0  0  0  0  0  0  0  0  0
  129.7470  127.6470   69.5610 C   0  0  0  0  0  0  0  0  0  0  0  0
  130.6480  128.0420   68.5750 C   0  0  0  0  0  0  0  0  0  0  0  0
  130.6100  127.4390   67.3200 C   0  0  0  0  0  0  0  0  0  0  0  0
  128.9810  125.2990   62.7830 S   0  0  0  0  0  0  0  0  0  0  0  0
  128.8770  123.9160   61.7200 C   0  0  0  0  0  0  0  0  0  0  0  0
  128.1720  123.9590   60.5920 N   0  0  0  0  0  0  0  0  0  0  0  0
  128.1390  122.8290   59.8380 C   0  0  0  0  0  0  0  0  0  0  0  0
  127.3340  122.9060   58.5730 C   0  0  0  0  0  0  0  0  0  0  0  0
  127.8340  122.3850   57.3690 C   0  0  0  0  0  0  0  0  0  0  0  0
  127.0920  122.4520   56.1930 C   0  0  0  0  0  0  0  0  0  0  0  0
  125.8340  123.0440   56.2050 C   0  0  0  0  0  0  0  0  0  0  0  0
  125.3130  123.5650   57.3840 C   0  0  0  0  0  0  0  0  0  0  0  0
  126.0570  123.4940   58.5570 C   0  0  0  0  0  0  0  0  0  0  0  0
  128.8290  121.6720   60.2080 C   0  0  0  0  0  0  0  0  0  0  0  0
  129.5800  121.6180   61.3940 C   0  0  0  0  0  0  0  0  0  0  0  0
  130.3100  120.3150   61.7430 C   0  0  0  0  0  0  0  0  0  0  0  0
  129.8890  119.2710   61.0240 F   0  0  0  0  0  0  0  0  0  0  0  0
  131.6160  120.4550   61.5180 F   0  0  0  0  0  0  0  0  0  0  0  0
  130.1130  120.0190   63.0280 F   0  0  0  0  0  0  0  0  0  0  0  0
  129.6110  122.7920   62.2000 C   0  0  0  0  0  0  0  0  0  0  0  0
  1  2  1  0
  2  3  2  0
  3  4  1  0
  4  5  2  0
  4  6  1  0
  6  7  1  0
  7  8  2  0
  8  9  1  0
  9 10  2  0
 10 11  1  0
 11 12  2  0
  3 13  1  0
 13 14  1  0
 14 15  2  0
 15 16  1  0
 16 17  1  0
 17 18  2  0
 18 19  1  0
 19 20  2  0
 20 21  1  0
 21 22  2  0
 16 23  2  0
 23 24  1  0
 24 25  1  0
 25 26  1  0
 25 27  1  0
 25 28  1  0
 24 29  2  0
 29  2  1  0
 12  7  1  0
 29 14  1  0
 22 17  1  0
M  END
>  <Binding energies>  (55) 
[-7.77]

>  <Ligand effiencies>  (55) 
[-0.2428125]

>  <Interactions>  (55) 
["V-B:GLU:543:CG:9876, V-B:HIS:456:CE1:9038, V-B:GLU:543:CD:9877, H-B:GLU:543:OE1:9878, V-B:GLU:543:CB:9875, H-B:GLU:543:OE2:9879, V-A:GLU:543:CB:4903, V-A:HIS:456:CE1:4066, V-B:TYR:539:CD1:9842, V-B:ILE:538:CB:9831, V-B:PRO:540:N:9853, V-B:LEU:363:CD1:8157, V-B:PRO:540:CB:9854, V-B:PRO:540:CA:9852, V-B:TYR:539:CE1:9844, V-B:TYR:539:CZ:9846, V-B:TYR:539:CE2:9845, V-B:TYR:539:C:9836, V-B:ALA:541:CB:9861, V-A:LEU:475:CD1:4254, V-B:TYR:539:CD2:9843, V-A:LEU:475:CD2:4255, V-A:TYR:484:CZ:4343, V-A:TYR:484:CE1:4341, V-A:GLU:543:C:4899, H-A:TYR:484:OH:4344, V-B:TYR:539:CG:9841, V-B:ILE:538:CA:9829, V-A:PRO:482:CG:4323, V-A:PRO:482:CB:4322, V-A:TRP:381:CH2:3368, V-A:LEU:475:CG:4253"]

$$$$
4cg_Grossjean_2025
     RDKit          3D

 30 33  0  0  0  0  0  0  0  0999 V2000
  130.9890  122.6030   64.2100 N   0  0  0  0  0  0  0  0  0  0  0  0
  130.1990  123.4510   63.4760 C   0  0  0  0  0  0  0  0  0  0  0  0
  129.9170  124.7670   63.8660 C   0  0  0  0  0  0  0  0  0  0  0  0
  130.4070  125.4970   65.0350 C   0  0  0  0  0  0  0  0  0  0  0  0
  131.3160  125.0500   65.7370 O   0  0  0  0  0  0  0  0  0  0  0  0
  129.7790  126.6590   65.3130 N   0  0  0  0  0  0  0  0  0  0  0  0
  130.1140  127.5610   66.4140 C   0  0  0  0  0  0  0  0  0  0  0  0
  129.3990  127.2200   67.7160 C   0  0  0  0  0  0  0  0  0  0  0  0
  128.1810  126.5350   67.6810 C   0  0  0  0  0  0  0  0  0  0  0  0
  127.5400  126.1940   68.8690 C   0  0  0  0  0  0  0  0  0  0  0  0
  128.1230  126.5310   70.0880 C   0  0  0  0  0  0  0  0  0  0  0  0
  129.3450  127.2000   70.1310 C   0  0  0  0  0  0  0  0  0  0  0  0
  129.9870  127.5400   68.9430 C   0  0  0  0  0  0  0  0  0  0  0  0
  128.8920  125.5810   62.6870 S   0  0  0  0  0  0  0  0  0  0  0  0
  128.8300  124.1460   61.6910 C   0  0  0  0  0  0  0  0  0  0  0  0
  128.1430  124.1220   60.5520 N   0  0  0  0  0  0  0  0  0  0  0  0
  128.1560  122.9640   59.8410 C   0  0  0  0  0  0  0  0  0  0  0  0
  127.3700  122.9690   58.5610 C   0  0  0  0  0  0  0  0  0  0  0  0
  126.0590  123.4720   58.5210 C   0  0  0  0  0  0  0  0  0  0  0  0
  125.3270  123.4780   57.3380 C   0  0  0  0  0  0  0  0  0  0  0  0
  125.8960  122.9750   56.1710 C   0  0  0  0  0  0  0  0  0  0  0  0
  127.1900  122.4670   56.1830 C   0  0  0  0  0  0  0  0  0  0  0  0
  127.9190  122.4640   57.3680 C   0  0  0  0  0  0  0  0  0  0  0  0
  128.8430  121.8310   60.2900 C   0  0  0  0  0  0  0  0  0  0  0  0
  129.5700  121.8450   61.4900 C   0  0  0  0  0  0  0  0  0  0  0  0
  130.3000  120.5680   61.9230 C   0  0  0  0  0  0  0  0  0  0  0  0
  129.8870  119.4810   61.2670 F   0  0  0  0  0  0  0  0  0  0  0  0
  131.6080  120.6980   61.6970 F   0  0  0  0  0  0  0  0  0  0  0  0
  130.0980  120.3510   63.2210 F   0  0  0  0  0  0  0  0  0  0  0  0
  129.5760  123.0600   62.2350 C   0  0  0  0  0  0  0  0  0  0  0  0
  1  2  1  0
  2  3  2  0
  3  4  1  0
  4  5  2  0
  4  6  1  0
  6  7  1  0
  7  8  1  0
  8  9  2  0
  9 10  1  0
 10 11  2  0
 11 12  1  0
 12 13  2  0
  3 14  1  0
 14 15  1  0
 15 16  2  0
 16 17  1  0
 17 18  1  0
 18 19  2  0
 19 20  1  0
 20 21  2  0
 21 22  1  0
 22 23  2  0
 17 24  2  0
 24 25  1  0
 25 26  1  0
 26 27  1  0
 26 28  1  0
 26 29  1  0
 25 30  2  0
 30  2  1  0
 13  8  1  0
 30 15  1  0
 23 18  1  0
M  END
>  <Binding energies>  (56) 
[-7.71]

>  <Ligand effiencies>  (56) 
[-0.23363636363636364]

>  <Interactions>  (56) 
["V-B:GLU:543:CG:9876, V-B:GLY:544:C:9881, V-B:HIS:456:CE1:9038, V-B:GLU:543:CD:9877, H-B:GLU:543:OE1:9878, V-A:GLU:543:CD:4905, V-B:GLU:543:CB:9875, V-A:GLU:543:CG:4904, V-B:GLU:543:C:9871, V-A:GLU:543:CB:4903, V-A:HIS:456:CE1:4066, V-B:TYR:539:CD1:9842, V-B:ILE:538:CB:9831, V-B:PRO:540:N:9853, V-B:LEU:363:CD1:8157, V-B:PRO:540:CB:9854, V-B:ILE:538:CG2:9832, V-B:PRO:540:CA:9852, V-B:TYR:539:CE1:9844, V-B:TYR:539:CZ:9846, V-B:TYR:539:CE2:9845, V-B:TYR:539:C:9836, V-B:ALA:541:CB:9861, V-A:LEU:475:CD1:4254, V-B:TYR:539:CD2:9843, V-A:LEU:475:CD2:4255, V-A:TYR:484:CZ:4343, V-A:TYR:484:CE1:4341, V-B:HIS:456:CD2:9036, H-A:TYR:484:OH:4344, V-B:TYR:539:CG:9841, H-A:GLU:543:OE1:4906, V-B:ILE:538:CA:9829, V-A:PRO:482:CG:4323, V-A:PRO:482:CB:4322, V-A:LEU:475:CG:4253"]

$$$$
4ch_Grossjean_2025
     RDKit          3D

 36 39  0  0  0  0  0  0  0  0999 V2000
  124.1810  124.1910   60.7770 C   0  0  0  0  0  0  0  0  0  0  0  0
  124.6060  124.1600   59.4190 O   0  0  0  0  0  0  0  0  0  0  0  0
  125.7730  123.4970   59.0890 C   0  0  0  0  0  0  0  0  0  0  0  0
  126.8180  123.2500   59.9950 C   0  0  0  0  0  0  0  0  0  0  0  0
  127.9690  122.5720   59.5920 C   0  0  0  0  0  0  0  0  0  0  0  0
  129.1040  122.3380   60.5820 C   0  0  0  0  0  0  0  0  0  0  0  0
  129.0420  123.1810   61.7770 N   0  0  0  0  0  0  0  0  0  0  0  0
  130.0270  123.3230   62.6880 C   0  0  0  0  0  0  0  0  0  0  0  0
  131.1170  122.7570   62.5800 O   0  0  0  0  0  0  0  0  0  0  0  0
  129.7420  124.2240   63.8060 C   0  0  0  0  0  0  0  0  0  0  0  0
  130.1210  123.7330   65.4540 S   0  0  0  0  0  0  0  0  0  0  0  0
  129.5460  125.2570   66.0860 C   0  0  0  0  0  0  0  0  0  0  0  0
  129.5630  125.5190   67.3900 N   0  0  0  0  0  0  0  0  0  0  0  0
  129.1010  126.7330   67.7880 C   0  0  0  0  0  0  0  0  0  0  0  0
  129.1290  126.9950   69.2670 C   0  0  0  0  0  0  0  0  0  0  0  0
  130.1830  127.7170   69.8490 C   0  0  0  0  0  0  0  0  0  0  0  0
  130.2150  127.9620   71.2200 C   0  0  0  0  0  0  0  0  0  0  0  0
  129.1910  127.4860   72.0300 C   0  0  0  0  0  0  0  0  0  0  0  0
  128.1360  126.7650   71.4800 C   0  0  0  0  0  0  0  0  0  0  0  0
  128.1090  126.5200   70.1090 C   0  0  0  0  0  0  0  0  0  0  0  0
  128.6070  127.6700   66.8750 C   0  0  0  0  0  0  0  0  0  0  0  0
  128.5820  127.4040   65.4960 C   0  0  0  0  0  0  0  0  0  0  0  0
  128.0280  128.4760   64.5510 C   0  0  0  0  0  0  0  0  0  0  0  0
  128.6820  128.5380   63.3880 F   0  0  0  0  0  0  0  0  0  0  0  0
  126.7500  128.2180   64.2770 F   0  0  0  0  0  0  0  0  0  0  0  0
  128.1210  129.6750   65.1250 F   0  0  0  0  0  0  0  0  0  0  0  0
  129.0770  126.1390   65.0680 C   0  0  0  0  0  0  0  0  0  0  0  0
  129.2130  125.5240   63.7700 C   0  0  0  0  0  0  0  0  0  0  0  0
  128.8470  126.1520   62.6070 N   0  0  0  0  0  0  0  0  0  0  0  0
  128.0910  122.1490   58.2680 C   0  0  0  0  0  0  0  0  0  0  0  0
  127.0630  122.3830   57.3400 C   0  0  0  0  0  0  0  0  0  0  0  0
  127.1160  121.9910   56.0150 O   0  0  0  0  0  0  0  0  0  0  0  0
  127.8570  122.7730   55.0840 C   0  0  0  0  0  0  0  0  0  0  0  0
  125.9070  123.0530   57.7660 C   0  0  0  0  0  0  0  0  0  0  0  0
  124.9000  123.3020   56.8650 O   0  0  0  0  0  0  0  0  0  0  0  0
  124.7470  124.6760   56.5320 C   0  0  0  0  0  0  0  0  0  0  0  0
  1  2  1  0
  2  3  1  0
  3  4  2  0
  4  5  1  0
  5  6  1  0
  6  7  1  0
  7  8  1  0
  8  9  2  0
  8 10  1  0
 10 11  1  0
 11 12  1  0
 12 13  2  0
 13 14  1  0
 14 15  1  0
 15 16  2  0
 16 17  1  0
 17 18  2  0
 18 19  1  0
 19 20  2  0
 14 21  2  0
 21 22  1  0
 22 23  1  0
 23 24  1  0
 23 25  1  0
 23 26  1  0
 22 27  2  0
 27 28  1  0
 28 29  1  0
  5 30  2  0
 30 31  1  0
 31 32  1  0
 32 33  1  0
 31 34  2  0
 34 35  1  0
 35 36  1  0
 34  3  1  0
 28 10  2  0
 27 12  1  0
 20 15  1  0
M  END
>  <Binding energies>  (57) 
[-8.01]

>  <Ligand effiencies>  (57) 
[-0.2053846153846154]

>  <Interactions>  (57) 
["V-B:GLU:543:CG:9876, V-B:HIS:456:CE1:9038, V-B:GLU:543:CD:9877, H-B:GLU:543:OE1:9878, V-A:GLU:543:CD:4905, V-B:GLU:543:CB:9875, V-A:GLU:543:CG:4904, H-B:GLU:543:OE2:9879, V-A:GLU:543:CB:4903, V-A:HIS:456:CE1:4066, V-B:ASN:362:C:8140, V-B:TYR:539:CD1:9842, V-B:ILE:538:CB:9831, V-B:PRO:540:N:9853, V-B:LEU:363:CD1:8157, V-B:MET:535:CE:9804, V-B:PRO:540:CD:9856, V-B:ASN:362:CB:8144, H-B:TYR:539:N:9839, V-B:PRO:540:CB:9854, V-B:ILE:538:CG2:9832, V-B:PRO:540:CA:9852, V-B:TYR:539:CE1:9844, V-B:TYR:539:CZ:9846, V-B:TYR:539:CE2:9845, V-B:TYR:531:CE2:9762, V-B:TYR:539:C:9836, V-B:TYR:531:CZ:9763, V-B:ALA:541:CB:9861, V-B:TYR:539:CD2:9843, V-A:TYR:484:CZ:4343, V-A:TYR:484:CE1:4341, V-B:HIS:456:CD2:9036, V-B:TYR:539:CG:9841, V-B:ILE:538:CA:9829, V-A:GLY:544:C:4909"]

$$$$
4cj_Grossjean_2025
     RDKit          3D

 28 31  0  0  0  0  0  0  0  0999 V2000
  131.0540  122.2280   64.0940 N   0  0  0  0  0  0  0  0  0  0  0  0
  130.2630  123.1240   63.4200 C   0  0  0  0  0  0  0  0  0  0  0  0
  130.0260  124.4320   63.8720 C   0  0  0  0  0  0  0  0  0  0  0  0
  130.5410  125.0910   65.0750 C   0  0  0  0  0  0  0  0  0  0  0  0
  131.6810  124.8570   65.4830 O   0  0  0  0  0  0  0  0  0  0  0  0
  129.6800  125.9420   65.6870 N   0  0  0  0  0  0  0  0  0  0  0  0
  129.9180  126.6860   66.8340 C   0  0  0  0  0  0  0  0  0  0  0  0
  130.9360  127.4830   67.0830 N   0  0  0  0  0  0  0  0  0  0  0  0
  130.8380  128.0350   68.2760 C   0  0  0  0  0  0  0  0  0  0  0  0
  129.7180  127.6870   69.0260 C   0  0  0  0  0  0  0  0  0  0  0  0
  128.7450  126.5760   68.1080 S   0  0  0  0  0  0  0  0  0  0  0  0
  128.9790  125.3100   62.7590 S   0  0  0  0  0  0  0  0  0  0  0  0
  128.8650  123.9230   61.7030 C   0  0  0  0  0  0  0  0  0  0  0  0
  128.1510  123.9620   60.5810 N   0  0  0  0  0  0  0  0  0  0  0  0
  128.1270  122.8380   59.8190 C   0  0  0  0  0  0  0  0  0  0  0  0
  127.3220  122.9200   58.5530 C   0  0  0  0  0  0  0  0  0  0  0  0
  127.8170  122.3870   57.3520 C   0  0  0  0  0  0  0  0  0  0  0  0
  127.0780  122.4650   56.1740 C   0  0  0  0  0  0  0  0  0  0  0  0
  125.8310  123.0830   56.1800 C   0  0  0  0  0  0  0  0  0  0  0  0
  125.3200  123.6210   57.3550 C   0  0  0  0  0  0  0  0  0  0  0  0
  126.0610  123.5390   58.5310 C   0  0  0  0  0  0  0  0  0  0  0  0
  128.8000  121.6730   60.2000 C   0  0  0  0  0  0  0  0  0  0  0  0
  129.5550  121.6200   61.3830 C   0  0  0  0  0  0  0  0  0  0  0  0
  130.2700  120.3110   61.7390 C   0  0  0  0  0  0  0  0  0  0  0  0
  129.8230  119.2630   61.0450 F   0  0  0  0  0  0  0  0  0  0  0  0
  131.5740  120.4290   61.4880 F   0  0  0  0  0  0  0  0  0  0  0  0
  130.0940  120.0380   63.0320 F   0  0  0  0  0  0  0  0  0  0  0  0
  129.6020  122.7990   62.1800 C   0  0  0  0  0  0  0  0  0  0  0  0
  1  2  1  0
  2  3  2  0
  3  4  1  0
  4  5  2  0
  4  6  1  0
  6  7  1  0
  7  8  2  0
  8  9  1  0
  9 10  2  0
 10 11  1  0
  3 12  1  0
 12 13  1  0
 13 14  2  0
 14 15  1  0
 15 16  1  0
 16 17  2  0
 17 18  1  0
 18 19  2  0
 19 20  1  0
 20 21  2  0
 15 22  2  0
 22 23  1  0
 23 24  1  0
 24 25  1  0
 24 26  1  0
 24 27  1  0
 23 28  2  0
 28  2  1  0
 11  7  1  0
 28 13  1  0
 21 16  1  0
M  END
>  <Binding energies>  (58) 
[-7.02]

>  <Ligand effiencies>  (58) 
[-0.2264516129032258]

>  <Interactions>  (58) 
["V-B:GLU:543:CG:9876, V-B:HIS:456:CE1:9038, V-B:GLU:543:CD:9877, H-B:GLU:543:OE1:9878, V-B:GLU:543:CB:9875, H-B:GLU:543:OE2:9879, V-A:GLU:543:CB:4903, V-A:HIS:456:CE1:4066, V-B:TYR:539:CD1:9842, V-B:ILE:538:CB:9831, V-B:PRO:540:N:9853, V-B:LEU:363:CD1:8157, V-B:PRO:540:CB:9854, V-B:ILE:538:CG2:9832, V-B:PRO:540:CA:9852, V-B:TYR:539:CE1:9844, V-B:TYR:539:CZ:9846, V-B:TYR:539:CE2:9845, V-B:TYR:539:C:9836, V-B:ALA:541:CB:9861, V-A:LEU:475:CD1:4254, V-B:TYR:539:CD2:9843, V-A:LEU:475:CD2:4255, V-A:TYR:484:CZ:4343, V-A:TYR:484:CE1:4341, V-A:GLU:543:C:4899, H-A:TYR:484:OH:4344, V-B:TYR:539:CG:9841, V-B:ILE:538:CA:9829, V-A:PRO:482:CG:4323, V-A:PRO:482:CB:4322, V-A:TRP:381:CH2:3368, V-A:LEU:475:CG:4253"]

$$$$
4ck_Grossjean_2025
     RDKit          3D

 33 35  0  0  0  0  0  0  0  0999 V2000
  128.2520  122.8130   54.6120 C   0  0  0  0  0  0  0  0  0  0  0  0
  127.3610  122.0420   55.4040 O   0  0  0  0  0  0  0  0  0  0  0  0
  126.1710  122.7350   55.7520 C   0  0  0  0  0  0  0  0  0  0  0  0
  126.0690  122.8200   57.2800 C   0  0  0  0  0  0  0  0  0  0  0  0
  127.3080  122.4220   57.8500 O   0  0  0  0  0  0  0  0  0  0  0  0
  127.5000  122.8930   59.1770 C   0  0  0  0  0  0  0  0  0  0  0  0
  128.8520  122.3900   59.6990 C   0  0  0  0  0  0  0  0  0  0  0  0
  128.6390  121.6750   60.9080 O   0  0  0  0  0  0  0  0  0  0  0  0
  129.8000  121.0180   61.4000 C   0  0  0  0  0  0  0  0  0  0  0  0
  130.9170  122.0480   61.6260 C   0  0  0  0  0  0  0  0  0  0  0  0
  130.4220  123.2650   62.2710 N   0  0  0  0  0  0  0  0  0  0  0  0
  130.7190  123.6730   63.5230 C   0  0  0  0  0  0  0  0  0  0  0  0
  131.4860  123.0510   64.2610 O   0  0  0  0  0  0  0  0  0  0  0  0
  130.0820  124.9160   63.9580 C   0  0  0  0  0  0  0  0  0  0  0  0
  129.0240  125.7980   62.8590 S   0  0  0  0  0  0  0  0  0  0  0  0
  128.6810  126.9970   64.0840 C   0  0  0  0  0  0  0  0  0  0  0  0
  127.8680  128.0220   63.8450 N   0  0  0  0  0  0  0  0  0  0  0  0
  127.6620  128.9040   64.8580 C   0  0  0  0  0  0  0  0  0  0  0  0
  126.7250  130.0390   64.5610 C   0  0  0  0  0  0  0  0  0  0  0  0
  125.3910  129.7940   64.1980 C   0  0  0  0  0  0  0  0  0  0  0  0
  124.5170  130.8430   63.9190 C   0  0  0  0  0  0  0  0  0  0  0  0
  124.9680  132.1560   64.0000 C   0  0  0  0  0  0  0  0  0  0  0  0
  126.2830  132.4270   64.3630 C   0  0  0  0  0  0  0  0  0  0  0  0
  127.1520  131.3760   64.6420 C   0  0  0  0  0  0  0  0  0  0  0  0
  128.2670  128.7460   66.1090 C   0  0  0  0  0  0  0  0  0  0  0  0
  129.1270  127.6680   66.3720 C   0  0  0  0  0  0  0  0  0  0  0  0
  129.7600  127.5580   67.7650 C   0  0  0  0  0  0  0  0  0  0  0  0
  129.3770  128.5310   68.5930 F   0  0  0  0  0  0  0  0  0  0  0  0
  129.4160  126.3990   68.3260 F   0  0  0  0  0  0  0  0  0  0  0  0
  131.0870  127.6210   67.6620 F   0  0  0  0  0  0  0  0  0  0  0  0
  129.3520  126.7390   65.3160 C   0  0  0  0  0  0  0  0  0  0  0  0
  130.1410  125.5350   65.2160 C   0  0  0  0  0  0  0  0  0  0  0  0
  130.8860  125.0460   66.2580 N   0  0  0  0  0  0  0  0  0  0  0  0
  1  2  1  0
  2  3  1  0
  3  4  1  0
  4  5  1  0
  5  6  1  0
  6  7  1  0
  7  8  1  0
  8  9  1  0
  9 10  1  0
 10 11  1  0
 11 12  1  0
 12 13  2  0
 12 14  1  0
 14 15  1  0
 15 16  1  0
 16 17  2  0
 17 18  1  0
 18 19  1  0
 19 20  2  0
 20 21  1  0
 21 22  2  0
 22 23  1  0
 23 24  2  0
 18 25  2  0
 25 26  1  0
 26 27  1  0
 27 28  1  0
 27 29  1  0
 27 30  1  0
 26 31  2  0
 31 32  1  0
 32 33  1  0
 32 14  2  0
 31 16  1  0
 24 19  1  0
M  END
>  <Binding energies>  (59) 
[-6.51]

>  <Ligand effiencies>  (59) 
[-0.18083333333333332]

>  <Interactions>  (59) 
["V-B:GLU:543:CG:9876, V-B:HIS:456:CE1:9038, V-B:ARG:545:CZ:9895, V-B:TYR:484:CZ:9315, V-B:GLU:543:CD:9877, V-A:GLU:543:CD:4905, V-A:GLU:543:CG:4904, V-A:GLU:543:CB:4903, V-B:GLY:454:CA:9017, V-A:HIS:456:CE1:4066, V-B:LEU:475:CD2:9227, V-B:TYR:539:CD1:9842, V-B:ILE:538:CB:9831, V-B:PRO:540:N:9853, H-B:ALA:541:N:9860, V-B:MET:535:CE:9804, V-B:PRO:540:CD:9856, H-B:TYR:539:N:9839, V-B:PRO:540:CB:9854, V-B:ILE:538:CG2:9832, V-B:PRO:540:CA:9852, V-B:TYR:539:CE1:9844, V-B:TYR:539:CZ:9846, V-B:TYR:539:CE2:9845, V-B:ALA:541:CB:9861, V-A:LEU:475:CD1:4254, V-B:TYR:539:CD2:9843, V-B:TYR:484:CE1:9313, V-A:TYR:484:CZ:4343, V-A:TYR:484:CE1:4341, V-A:GLU:543:C:4899, V-B:HIS:456:CD2:9036, V-A:ARG:545:CG:4919, H-A:TYR:484:OH:4344, V-B:ILE:538:CA:9829, H-A:HIS:456:NE2:4067"]

$$$$
4dd_Grossjean_2025
     RDKit          3D

 26 29  0  0  0  0  0  0  0  0999 V2000
  130.4650  120.3640   61.8620 C   0  0  0  0  0  0  0  0  0  0  0  0
  129.7120  121.6330   61.4920 C   0  0  0  0  0  0  0  0  0  0  0  0
  128.9860  121.6450   60.2940 C   0  0  0  0  0  0  0  0  0  0  0  0
  128.2720  122.7810   59.8970 C   0  0  0  0  0  0  0  0  0  0  0  0
  127.4900  122.8240   58.6170 C   0  0  0  0  0  0  0  0  0  0  0  0
  128.0630  122.3930   57.4090 C   0  0  0  0  0  0  0  0  0  0  0  0
  127.3430  122.4270   56.2180 C   0  0  0  0  0  0  0  0  0  0  0  0
  126.0340  122.8960   56.2180 C   0  0  0  0  0  0  0  0  0  0  0  0
  125.4400  123.3270   57.3990 C   0  0  0  0  0  0  0  0  0  0  0  0
  126.1640  123.2900   58.5890 C   0  0  0  0  0  0  0  0  0  0  0  0
  128.2600  123.9200   60.6430 N   0  0  0  0  0  0  0  0  0  0  0  0
  128.9450  123.9080   61.7860 C   0  0  0  0  0  0  0  0  0  0  0  0
  129.0000  125.2960   62.8490 S   0  0  0  0  0  0  0  0  0  0  0  0
  130.0320  124.4360   63.9940 C   0  0  0  0  0  0  0  0  0  0  0  0
  130.4720  125.0880   65.2290 C   0  0  0  0  0  0  0  0  0  0  0  0
  131.6490  125.0250   65.5870 O   0  0  0  0  0  0  0  0  0  0  0  0
  129.5060  125.7490   65.9130 N   0  0  0  0  0  0  0  0  0  0  0  0
  129.5820  126.4250   67.1440 C   0  0  0  0  0  0  0  0  0  0  0  0
  128.6900  125.9980   68.1320 C   0  0  0  0  0  0  0  0  0  0  0  0
  128.6970  126.5950   69.3900 C   0  0  0  0  0  0  0  0  0  0  0  0
  129.6030  127.6160   69.6640 C   0  0  0  0  0  0  0  0  0  0  0  0
  130.5050  128.0430   68.6940 C   0  0  0  0  0  0  0  0  0  0  0  0
  130.5010  127.4480   67.4340 C   0  0  0  0  0  0  0  0  0  0  0  0
  130.3110  123.1360   63.5460 C   0  0  0  0  0  0  0  0  0  0  0  0
  131.0940  122.2420   64.2340 N   0  0  0  0  0  0  0  0  0  0  0  0
  129.6980  122.8080   62.2860 C   0  0  0  0  0  0  0  0  0  0  0  0
  1  2  1  0
  2  3  2  0
  3  4  1  0
  4  5  1  0
  5  6  2  0
  6  7  1  0
  7  8  2  0
  8  9  1  0
  9 10  2  0
  4 11  2  0
 11 12  1  0
 12 13  1  0
 13 14  1  0
 14 15  1  0
 15 16  2  0
 15 17  1  0
 17 18  1  0
 18 19  2  0
 19 20  1  0
 20 21  2  0
 21 22  1  0
 22 23  2  0
 14 24  2  0
 24 25  1  0
 24 26  1  0
 26  2  1  0
 10  5  1  0
 26 12  2  0
 23 18  1  0
M  END
>  <Binding energies>  (60) 
[-8.12]

>  <Ligand effiencies>  (60) 
[-0.27999999999999997]

>  <Interactions>  (60) 
["V-B:GLU:543:CG:9876, V-B:HIS:456:CE1:9038, V-B:GLU:543:CD:9877, H-B:GLU:543:OE1:9878, V-B:GLU:543:CB:9875, V-B:GLU:543:C:9871, H-B:GLU:543:OE2:9879, V-A:GLU:543:CB:4903, V-A:HIS:456:CE1:4066, V-B:TYR:539:CD1:9842, V-B:ILE:538:CB:9831, V-B:PRO:540:N:9853, V-B:LEU:363:CD1:8157, V-B:PRO:540:CB:9854, V-B:ILE:538:CG2:9832, V-B:PRO:540:CA:9852, V-B:TYR:539:CE1:9844, V-B:TYR:539:CZ:9846, V-B:TYR:539:CE2:9845, V-B:TYR:539:C:9836, V-B:ALA:541:CB:9861, V-A:LEU:475:CD1:4254, V-B:TYR:539:CD2:9843, V-A:LEU:475:CD2:4255, V-A:TYR:484:CZ:4343, V-A:TYR:484:CE1:4341, V-A:GLU:543:C:4899, H-A:TYR:484:OH:4344, V-B:TYR:539:CG:9841, V-B:ILE:538:CA:9829, V-A:LEU:475:CG:4253"]

$$$$
4dg_Grossjean_2025
     RDKit          3D

 27 30  0  0  0  0  0  0  0  0999 V2000
  130.4760  120.5630   62.0520 C   0  0  0  0  0  0  0  0  0  0  0  0
  129.7380  121.8110   61.5910 C   0  0  0  0  0  0  0  0  0  0  0  0
  129.0450  121.7560   60.3760 C   0  0  0  0  0  0  0  0  0  0  0  0
  128.3460  122.8700   59.8960 C   0  0  0  0  0  0  0  0  0  0  0  0
  127.5910  122.8410   58.5970 C   0  0  0  0  0  0  0  0  0  0  0  0
  126.2350  123.2050   58.5430 C   0  0  0  0  0  0  0  0  0  0  0  0
  125.5300  123.1750   57.3420 C   0  0  0  0  0  0  0  0  0  0  0  0
  126.1720  122.7820   56.1740 C   0  0  0  0  0  0  0  0  0  0  0  0
  127.5140  122.4130   56.1990 C   0  0  0  0  0  0  0  0  0  0  0  0
  128.2140  122.4430   57.4010 C   0  0  0  0  0  0  0  0  0  0  0  0
  128.2940  124.0390   60.5910 N   0  0  0  0  0  0  0  0  0  0  0  0
  128.9550  124.0930   61.7470 C   0  0  0  0  0  0  0  0  0  0  0  0
  128.9760  125.5350   62.7340 S   0  0  0  0  0  0  0  0  0  0  0  0
  129.9890  124.7450   63.9420 C   0  0  0  0  0  0  0  0  0  0  0  0
  130.4450  125.4870   65.1170 C   0  0  0  0  0  0  0  0  0  0  0  0
  131.3310  125.0450   65.8510 O   0  0  0  0  0  0  0  0  0  0  0  0
  129.8110  126.6530   65.3610 N   0  0  0  0  0  0  0  0  0  0  0  0
  130.1130  127.5670   66.4610 C   0  0  0  0  0  0  0  0  0  0  0  0
  129.4360  127.1830   67.7720 C   0  0  0  0  0  0  0  0  0  0  0  0
  130.0040  127.5730   68.9880 C   0  0  0  0  0  0  0  0  0  0  0  0
  129.3720  127.2510   70.1860 C   0  0  0  0  0  0  0  0  0  0  0  0
  128.1670  126.5510   70.1630 C   0  0  0  0  0  0  0  0  0  0  0  0
  127.5860  126.1740   68.9550 C   0  0  0  0  0  0  0  0  0  0  0  0
  128.2180  126.4960   67.7570 C   0  0  0  0  0  0  0  0  0  0  0  0
  130.2970  123.4290   63.5680 C   0  0  0  0  0  0  0  0  0  0  0  0
  131.0800  122.5860   64.3140 N   0  0  0  0  0  0  0  0  0  0  0  0
  129.7060  123.0280   62.3190 C   0  0  0  0  0  0  0  0  0  0  0  0
  1  2  1  0
  2  3  2  0
  3  4  1  0
  4  5  1  0
  5  6  2  0
  6  7  1  0
  7  8  2  0
  8  9  1  0
  9 10  2  0
  4 11  2  0
 11 12  1  0
 12 13  1  0
 13 14  1  0
 14 15  1  0
 15 16  2  0
 15 17  1  0
 17 18  1  0
 18 19  1  0
 19 20  2  0
 20 21  1  0
 21 22  2  0
 22 23  1  0
 23 24  2  0
 14 25  2  0
 25 26  1  0
 25 27  1  0
 27  2  1  0
 10  5  1  0
 27 12  2  0
 24 19  1  0
M  END
>  <Binding energies>  (61) 
[-8.08]

>  <Ligand effiencies>  (61) 
[-0.2693333333333333]

>  <Interactions>  (61) 
["V-B:GLU:543:CG:9876, V-B:GLY:544:C:9881, V-B:HIS:456:CE1:9038, V-B:GLU:543:CD:9877, H-B:GLU:543:OE1:9878, V-A:GLU:543:CD:4905, V-B:GLU:543:CB:9875, V-A:GLU:543:CG:4904, V-B:GLU:543:C:9871, V-A:GLU:543:CB:4903, V-A:HIS:456:CE1:4066, V-B:TYR:539:CD1:9842, V-B:ILE:538:CB:9831, V-B:PRO:540:N:9853, V-B:LEU:363:CD1:8157, V-B:PRO:540:CB:9854, V-B:ILE:538:CG2:9832, V-B:PRO:540:CA:9852, V-B:TYR:539:CE1:9844, V-B:TYR:539:CZ:9846, V-B:TYR:539:CE2:9845, V-B:TYR:539:C:9836, V-B:ALA:541:CB:9861, V-A:LEU:475:CD1:4254, V-B:TYR:539:CD2:9843, V-A:LEU:475:CD2:4255, V-A:TYR:484:CZ:4343, V-A:TYR:484:CE1:4341, V-B:HIS:456:CD2:9036, H-A:TYR:484:OH:4344, V-B:TYR:539:CG:9841, H-A:GLU:543:OE1:4906, V-B:ILE:538:CA:9829"]

$$$$
4dj_Grossjean_2025
     RDKit          3D

 25 28  0  0  0  0  0  0  0  0999 V2000
  130.4700  120.3880   61.8720 C   0  0  0  0  0  0  0  0  0  0  0  0
  129.7200  121.6550   61.4910 C   0  0  0  0  0  0  0  0  0  0  0  0
  128.9960  121.6580   60.2930 C   0  0  0  0  0  0  0  0  0  0  0  0
  128.2860  122.7940   59.8840 C   0  0  0  0  0  0  0  0  0  0  0  0
  127.4950  122.8240   58.6070 C   0  0  0  0  0  0  0  0  0  0  0  0
  128.0660  122.3990   57.3960 C   0  0  0  0  0  0  0  0  0  0  0  0
  127.3390  122.4250   56.2090 C   0  0  0  0  0  0  0  0  0  0  0  0
  126.0250  122.8830   56.2150 C   0  0  0  0  0  0  0  0  0  0  0  0
  125.4360  123.3140   57.3990 C   0  0  0  0  0  0  0  0  0  0  0  0
  126.1660  123.2850   58.5830 C   0  0  0  0  0  0  0  0  0  0  0  0
  128.2550  123.9300   60.6330 N   0  0  0  0  0  0  0  0  0  0  0  0
  128.9450  123.9290   61.7730 C   0  0  0  0  0  0  0  0  0  0  0  0
  128.9970  125.3240   62.8270 S   0  0  0  0  0  0  0  0  0  0  0  0
  130.0410  124.4780   63.9720 C   0  0  0  0  0  0  0  0  0  0  0  0
  130.5040  125.1500   65.1870 C   0  0  0  0  0  0  0  0  0  0  0  0
  131.6660  125.0100   65.5800 O   0  0  0  0  0  0  0  0  0  0  0  0
  129.5780  125.9050   65.8260 N   0  0  0  0  0  0  0  0  0  0  0  0
  129.7570  126.6380   66.9900 C   0  0  0  0  0  0  0  0  0  0  0  0
  130.6810  127.5400   67.2430 N   0  0  0  0  0  0  0  0  0  0  0  0
  130.5510  128.0390   68.4570 C   0  0  0  0  0  0  0  0  0  0  0  0
  129.5000  127.5400   69.2200 C   0  0  0  0  0  0  0  0  0  0  0  0
  128.6400  126.3510   68.2860 S   0  0  0  0  0  0  0  0  0  0  0  0
  130.3240  123.1760   63.5310 C   0  0  0  0  0  0  0  0  0  0  0  0
  131.1140  122.2910   64.2210 N   0  0  0  0  0  0  0  0  0  0  0  0
  129.7070  122.8360   62.2770 C   0  0  0  0  0  0  0  0  0  0  0  0
  1  2  1  0
  2  3  2  0
  3  4  1  0
  4  5  1  0
  5  6  2  0
  6  7  1  0
  7  8  2  0
  8  9  1  0
  9 10  2  0
  4 11  2  0
 11 12  1  0
 12 13  1  0
 13 14  1  0
 14 15  1  0
 15 16  2  0
 15 17  1  0
 17 18  1  0
 18 19  2  0
 19 20  1  0
 20 21  2  0
 21 22  1  0
 14 23  2  0
 23 24  1  0
 23 25  1  0
 25  2  1  0
 10  5  1  0
 25 12  2  0
 22 18  1  0
M  END
>  <Binding energies>  (62) 
[-7.4]

>  <Ligand effiencies>  (62) 
[-0.2642857142857143]

>  <Interactions>  (62) 
["V-B:GLU:543:CG:9876, V-B:HIS:456:CE1:9038, V-B:GLU:543:CD:9877, H-B:GLU:543:OE1:9878, V-B:GLU:543:CB:9875, H-B:GLU:543:OE2:9879, V-A:GLU:543:CB:4903, V-A:HIS:456:CE1:4066, V-B:TYR:539:CD1:9842, V-B:ILE:538:CB:9831, V-B:PRO:540:N:9853, V-B:LEU:363:CD1:8157, V-B:PRO:540:CB:9854, V-B:ILE:538:CG2:9832, V-B:PRO:540:CA:9852, V-B:TYR:539:CE1:9844, V-B:TYR:539:CZ:9846, V-B:TYR:539:CE2:9845, V-B:TYR:539:C:9836, V-B:ALA:541:CB:9861, V-A:LEU:475:CD1:4254, V-B:TYR:539:CD2:9843, V-A:LEU:475:CD2:4255, V-A:TYR:484:CZ:4343, V-A:TYR:484:CE1:4341, V-A:GLU:543:C:4899, H-A:TYR:484:OH:4344, V-B:TYR:539:CG:9841, V-B:ILE:538:CA:9829, V-A:LEU:475:CG:4253"]

$$$$
4ea_Grossjean_2025
     RDKit          3D

 31 34  0  0  0  0  0  0  0  0999 V2000
  129.1090  122.8210   53.8340 C   0  0  0  0  0  0  0  0  0  0  0  0
  128.5750  123.1250   55.2370 C   0  0  0  0  0  0  0  0  0  0  0  0
  127.8820  121.9880   55.7350 O   0  0  0  0  0  0  0  0  0  0  0  0
  126.7830  122.1240   56.5200 C   0  0  0  0  0  0  0  0  0  0  0  0
  125.6730  121.6750   56.2190 O   0  0  0  0  0  0  0  0  0  0  0  0
  127.0520  122.8760   57.7910 C   0  0  0  0  0  0  0  0  0  0  0  0
  128.2990  122.7410   58.4140 C   0  0  0  0  0  0  0  0  0  0  0  0
  128.5800  123.4250   59.5940 C   0  0  0  0  0  0  0  0  0  0  0  0
  127.6210  124.2570   60.1750 C   0  0  0  0  0  0  0  0  0  0  0  0
  128.0160  124.8970   61.3650 N   0  0  0  0  0  0  0  0  0  0  0  0
  129.2540  125.1560   61.8550 C   0  0  0  0  0  0  0  0  0  0  0  0
  130.3020  124.8470   61.2880 O   0  0  0  0  0  0  0  0  0  0  0  0
  129.2810  125.8510   63.1450 C   0  0  0  0  0  0  0  0  0  0  0  0
  130.4920  125.4320   64.3600 S   0  0  0  0  0  0  0  0  0  0  0  0
  129.8610  126.6240   65.4710 C   0  0  0  0  0  0  0  0  0  0  0  0
  130.3940  126.8150   66.6790 N   0  0  0  0  0  0  0  0  0  0  0  0
  129.8120  127.7700   67.4440 C   0  0  0  0  0  0  0  0  0  0  0  0
  130.4340  127.9700   68.8130 C   0  0  0  0  0  0  0  0  0  0  0  0
  128.7190  128.5320   67.0340 C   0  0  0  0  0  0  0  0  0  0  0  0
  128.1630  128.3290   65.7670 C   0  0  0  0  0  0  0  0  0  0  0  0
  127.0020  129.1460   65.3460 C   0  0  0  0  0  0  0  0  0  0  0  0
  125.7110  128.7960   65.7530 C   0  0  0  0  0  0  0  0  0  0  0  0
  124.6190  129.5650   65.3600 C   0  0  0  0  0  0  0  0  0  0  0  0
  124.8190  130.6830   64.5540 C   0  0  0  0  0  0  0  0  0  0  0  0
  126.1000  131.0390   64.1390 C   0  0  0  0  0  0  0  0  0  0  0  0
  127.1910  130.2690   64.5330 C   0  0  0  0  0  0  0  0  0  0  0  0
  128.7460  127.3350   64.9330 C   0  0  0  0  0  0  0  0  0  0  0  0
  128.4360  126.8740   63.6040 C   0  0  0  0  0  0  0  0  0  0  0  0
  127.4050  127.3990   62.8690 N   0  0  0  0  0  0  0  0  0  0  0  0
  126.3690  124.3980   59.5570 C   0  0  0  0  0  0  0  0  0  0  0  0
  126.0900  123.7130   58.3780 C   0  0  0  0  0  0  0  0  0  0  0  0
  1  2  1  0
  2  3  1  0
  3  4  1  0
  4  5  2  0
  4  6  1  0
  6  7  2  0
  7  8  1  0
  8  9  2  0
  9 10  1  0
 10 11  1  0
 11 12  2  0
 11 13  1  0
 13 14  1  0
 14 15  1  0
 15 16  2  0
 16 17  1  0
 17 18  1  0
 17 19  2  0
 19 20  1  0
 20 21  1  0
 21 22  2  0
 22 23  1  0
 23 24  2  0
 24 25  1  0
 25 26  2  0
 20 27  2  0
 27 28  1  0
 28 29  1  0
  9 30  1  0
 30 31  2  0
 31  6  1  0
 28 13  2  0
 27 15  1  0
 26 21  1  0
M  END
>  <Binding energies>  (63) 
[-9.13]

>  <Ligand effiencies>  (63) 
[-0.2685294117647059]

>  <Interactions>  (63) 
["V-B:HIS:456:CE1:9038, V-B:ARG:545:CZ:9895, V-B:GLU:543:CD:9877, H-B:GLU:543:OE1:9878, V-A:GLU:543:CD:4905, V-A:GLU:543:CG:4904, H-B:GLU:543:OE2:9879, V-A:GLU:543:CB:4903, V-B:GLY:454:CA:9017, V-B:ARG:545:CD:9892, V-A:HIS:456:CE1:4066, V-B:TYR:539:CD1:9842, V-B:ILE:538:CB:9831, V-B:PRO:540:N:9853, V-B:MET:535:CE:9804, V-B:PRO:540:CD:9856, H-B:TYR:539:N:9839, V-B:PRO:540:CB:9854, V-B:PRO:540:CA:9852, V-B:TYR:539:CE1:9844, V-B:TYR:539:CZ:9846, V-B:TYR:539:CE2:9845, V-B:TYR:539:C:9836, H-B:ASP:366:OD1:8182, V-A:GLU:543:C:4899, V-B:ILE:538:CA:9829"]

$$$$
4eb_Grossjean_2025
     RDKit          3D

 30 33  0  0  0  0  0  0  0  0999 V2000
  128.2090  122.6630   54.6750 C   0  0  0  0  0  0  0  0  0  0  0  0
  127.8560  121.8180   55.7610 O   0  0  0  0  0  0  0  0  0  0  0  0
  126.7310  122.0470   56.4870 C   0  0  0  0  0  0  0  0  0  0  0  0
  125.6090  121.6690   56.1400 O   0  0  0  0  0  0  0  0  0  0  0  0
  126.9890  122.8080   57.7570 C   0  0  0  0  0  0  0  0  0  0  0  0
  128.2850  122.8330   58.2870 C   0  0  0  0  0  0  0  0  0  0  0  0
  128.5570  123.5280   59.4610 C   0  0  0  0  0  0  0  0  0  0  0  0
  127.5400  124.2120   60.1300 C   0  0  0  0  0  0  0  0  0  0  0  0
  127.9310  124.8800   61.3070 N   0  0  0  0  0  0  0  0  0  0  0  0
  129.1530  125.3040   61.7120 C   0  0  0  0  0  0  0  0  0  0  0  0
  130.1890  125.1570   61.0620 O   0  0  0  0  0  0  0  0  0  0  0  0
  129.1830  125.9720   63.0150 C   0  0  0  0  0  0  0  0  0  0  0  0
  130.4210  125.5570   64.2030 S   0  0  0  0  0  0  0  0  0  0  0  0
  129.7770  126.7110   65.3490 C   0  0  0  0  0  0  0  0  0  0  0  0
  130.3240  126.8890   66.5530 N   0  0  0  0  0  0  0  0  0  0  0  0
  129.7300  127.8130   67.3460 C   0  0  0  0  0  0  0  0  0  0  0  0
  130.3690  127.9990   68.7110 C   0  0  0  0  0  0  0  0  0  0  0  0
  128.6140  128.5560   66.9690 C   0  0  0  0  0  0  0  0  0  0  0  0
  128.0430  128.3650   65.7050 C   0  0  0  0  0  0  0  0  0  0  0  0
  126.8560  129.1630   65.3190 C   0  0  0  0  0  0  0  0  0  0  0  0
  126.9960  130.2610   64.4650 C   0  0  0  0  0  0  0  0  0  0  0  0
  125.8800  131.0100   64.0990 C   0  0  0  0  0  0  0  0  0  0  0  0
  124.6240  130.6610   64.5910 C   0  0  0  0  0  0  0  0  0  0  0  0
  124.4760  129.5700   65.4450 C   0  0  0  0  0  0  0  0  0  0  0  0
  125.5920  128.8230   65.8090 C   0  0  0  0  0  0  0  0  0  0  0  0
  128.6370  127.4050   64.8420 C   0  0  0  0  0  0  0  0  0  0  0  0
  128.3200  126.9630   63.5100 C   0  0  0  0  0  0  0  0  0  0  0  0
  127.2650  127.4780   62.8000 N   0  0  0  0  0  0  0  0  0  0  0  0
  126.2390  124.1930   59.6060 C   0  0  0  0  0  0  0  0  0  0  0  0
  125.9690  123.4970   58.4310 C   0  0  0  0  0  0  0  0  0  0  0  0
  1  2  1  0
  2  3  1  0
  3  4  2  0
  3  5  1  0
  5  6  2  0
  6  7  1  0
  7  8  2  0
  8  9  1  0
  9 10  1  0
 10 11  2  0
 10 12  1  0
 12 13  1  0
 13 14  1  0
 14 15  2  0
 15 16  1  0
 16 17  1  0
 16 18  2  0
 18 19  1  0
 19 20  1  0
 20 21  2  0
 21 22  1  0
 22 23  2  0
 23 24  1  0
 24 25  2  0
 19 26  2  0
 26 27  1  0
 27 28  1  0
  8 29  1  0
 29 30  2  0
 30  5  1  0
 27 12  2  0
 26 14  1  0
 25 20  1  0
M  END
>  <Binding energies>  (64) 
[-8.98]

>  <Ligand effiencies>  (64) 
[-0.27212121212121215]

>  <Interactions>  (64) 
["V-B:HIS:456:CE1:9038, V-B:ARG:545:CZ:9895, V-B:GLU:543:CD:9877, H-B:GLU:543:OE1:9878, V-A:GLU:543:CD:4905, V-A:GLU:543:CG:4904, H-B:GLU:543:OE2:9879, V-A:GLU:543:CB:4903, V-B:GLY:454:CA:9017, V-B:ARG:545:CD:9892, V-B:ARG:545:CG:9891, V-A:HIS:456:CE1:4066, V-B:TYR:539:CD1:9842, V-B:ILE:538:CB:9831, V-B:PRO:540:N:9853, V-B:MET:535:CE:9804, V-B:PRO:540:CD:9856, H-B:TYR:539:N:9839, V-B:PRO:540:CB:9854, V-B:ILE:538:CG2:9832, V-B:PRO:540:CA:9852, V-B:TYR:539:CE1:9844, V-B:TYR:539:CZ:9846, V-B:TYR:539:CE2:9845, V-B:TYR:539:C:9836, H-B:ASP:366:OD1:8182, V-A:GLU:543:C:4899, V-B:ILE:538:CA:9829, V-B:TYR:539:CA:9838"]

$$$$
8b_Ghoteimi_2023
     RDKit          3D

 34 38  0  0  0  0  0  0  0  0999 V2000
  124.0620  133.7840   61.8280 C   0  0  0  0  0  0  0  0  0  0  0  0
  123.7430  133.0230   62.9880 O   0  0  0  0  0  0  0  0  0  0  0  0
  124.5890  132.0020   63.3770 C   0  0  0  0  0  0  0  0  0  0  0  0
  125.8100  132.3810   63.9330 C   0  0  0  0  0  0  0  0  0  0  0  0
  126.7250  131.4220   64.3520 C   0  0  0  0  0  0  0  0  0  0  0  0
  126.4440  130.0540   64.2270 C   0  0  0  0  0  0  0  0  0  0  0  0
  127.4250  129.0180   64.6750 C   0  0  0  0  0  0  0  0  0  0  0  0
  127.5850  128.6880   66.0250 C   0  0  0  0  0  0  0  0  0  0  0  0
  128.5090  127.7160   66.4170 C   0  0  0  0  0  0  0  0  0  0  0  0
  128.6600  127.3980   67.8560 C   0  0  0  0  0  0  0  0  0  0  0  0
  129.6900  127.9770   68.6000 C   0  0  0  0  0  0  0  0  0  0  0  0
  129.8250  127.6840   69.9540 C   0  0  0  0  0  0  0  0  0  0  0  0
  128.9370  126.8100   70.5840 C   0  0  0  0  0  0  0  0  0  0  0  0
  129.1470  126.5810   71.9300 O   0  0  0  0  0  0  0  0  0  0  0  0
  128.2910  127.2040   72.8820 C   0  0  0  0  0  0  0  0  0  0  0  0
  127.9050  126.2270   69.8320 C   0  0  0  0  0  0  0  0  0  0  0  0
  127.7710  126.5200   68.4780 C   0  0  0  0  0  0  0  0  0  0  0  0
  129.2700  127.0700   65.4060 C   0  0  0  0  0  0  0  0  0  0  0  0
  130.2800  126.0440   65.4490 C   0  0  0  0  0  0  0  0  0  0  0  0
  130.6980  125.4760   66.6250 N   0  0  0  0  0  0  0  0  0  0  0  0
  130.7830  125.6890   64.1880 C   0  0  0  0  0  0  0  0  0  0  0  0
  131.8030  124.6900   63.8630 C   0  0  0  0  0  0  0  0  0  0  0  0
  132.1000  123.8070   64.6710 O   0  0  0  0  0  0  0  0  0  0  0  0
  132.3740  124.8190   62.6380 N   0  0  0  0  0  0  0  0  0  0  0  0
  133.3560  124.0170   62.0750 C   0  0  0  0  0  0  0  0  0  0  0  0
  133.0730  122.8410   61.3810 C   0  0  0  0  0  0  0  0  0  0  0  0
  134.2990  122.3500   60.9940 C   0  0  0  0  0  0  0  0  0  0  0  0
  135.2690  123.1870   61.4280 O   0  0  0  0  0  0  0  0  0  0  0  0
  134.6600  124.2420   62.1110 N   0  0  0  0  0  0  0  0  0  0  0  0
  130.0090  126.6240   62.9070 S   0  0  0  0  0  0  0  0  0  0  0  0
  129.0200  127.4820   64.0660 C   0  0  0  0  0  0  0  0  0  0  0  0
  128.1420  128.4110   63.6910 N   0  0  0  0  0  0  0  0  0  0  0  0
  125.2140  129.6790   63.6700 C   0  0  0  0  0  0  0  0  0  0  0  0
  124.2950  130.6370   63.2480 C   0  0  0  0  0  0  0  0  0  0  0  0
  1  2  1  0
  2  3  1  0
  3  4  2  0
  4  5  1  0
  5  6  2  0
  6  7  1  0
  7  8  2  0
  8  9  1  0
  9 10  1  0
 10 11  2  0
 11 12  1  0
 12 13  2  0
 13 14  1  0
 14 15  1  0
 13 16  1  0
 16 17  2  0
  9 18  2  0
 18 19  1  0
 19 20  1  0
 19 21  2  0
 21 22  1  0
 22 23  2  0
 22 24  1  0
 24 25  1  0
 25 26  1  0
 26 27  2  0
 27 28  1  0
 28 29  1  0
 21 30  1  0
 30 31  1  0
 31 32  2  0
  6 33  1  0
 33 34  2  0
 34  3  1  0
 32  7  1  0
 17 10  1  0
 31 18  1  0
 29 25  2  0
M  END
>  <Binding energies>  (65) 
[-8.59]

>  <Ligand effiencies>  (65) 
[-0.23216216216216215]

>  <Interactions>  (65) 
["V-B:GLY:544:C:9881, V-B:HIS:456:CE1:9038, V-B:ARG:545:CZ:9895, V-B:GLU:543:CD:9877, V-A:GLU:543:CD:4905, V-B:GLU:543:CB:9875, V-B:GLU:543:C:9871, V-A:GLU:543:CB:4903, H-B:GLY:454:N:9018, V-B:GLY:454:CA:9017, V-A:HIS:456:CE1:4066, V-A:ASP:366:CG:3209, V-B:LEU:475:CD2:9227, V-B:ILE:369:CD1:8207, V-B:ASP:366:CG:8181, V-A:TYR:484:CZ:4343, V-B:LYS:547:CE:9919, V-B:HIS:456:CD2:9036, H-A:GLY:454:N:4046, V-B:ILE:369:CG2:8205, H-A:TYR:484:OH:4344, V-A:ILE:369:CG2:3233, V-A:ILE:369:CG1:3234, V-A:ILE:369:CB:3232, H-A:ASP:366:OD1:3210, H-A:ASP:366:OD2:3211, H-A:HIS:456:NE2:4067"]

$$$$
9d_Ghoteimi_2023
     RDKit          3D

 38 43  0  0  0  0  0  0  0  0999 V2000
  132.8260  124.2800   64.4100 C   0  0  0  0  0  0  0  0  0  0  0  0
  132.1230  123.0520   64.2910 O   0  0  0  0  0  0  0  0  0  0  0  0
  130.7970  122.9780   64.5770 C   0  0  0  0  0  0  0  0  0  0  0  0
  130.1760  121.9190   64.6990 O   0  0  0  0  0  0  0  0  0  0  0  0
  130.1650  124.3070   64.7260 C   0  0  0  0  0  0  0  0  0  0  0  0
  129.7840  125.2630   63.2940 S   0  0  0  0  0  0  0  0  0  0  0  0
  129.1030  126.5380   64.2770 C   0  0  0  0  0  0  0  0  0  0  0  0
  128.5660  127.6280   63.7320 N   0  0  0  0  0  0  0  0  0  0  0  0
  128.0480  128.5520   64.5820 C   0  0  0  0  0  0  0  0  0  0  0  0
  127.4270  129.7560   63.9470 C   0  0  0  0  0  0  0  0  0  0  0  0
  126.7540  129.6460   62.7260 C   0  0  0  0  0  0  0  0  0  0  0  0
  126.1760  130.7600   62.1250 C   0  0  0  0  0  0  0  0  0  0  0  0
  126.2380  132.0250   62.7310 C   0  0  0  0  0  0  0  0  0  0  0  0
  125.6760  133.1580   62.1310 N   0  0  0  0  0  0  0  0  0  0  0  0
  126.2700  133.7600   60.9200 C   0  0  0  0  0  0  0  0  0  0  0  0
  125.7420  135.1750   60.6040 C   0  0  0  0  0  0  0  0  0  0  0  0
  124.3270  135.1590   60.5230 O   0  0  0  0  0  0  0  0  0  0  0  0
  123.7410  134.7430   61.7460 C   0  0  0  0  0  0  0  0  0  0  0  0
  124.2070  133.3150   62.1000 C   0  0  0  0  0  0  0  0  0  0  0  0
  126.9270  132.1320   63.9480 C   0  0  0  0  0  0  0  0  0  0  0  0
  127.5080  131.0180   64.5470 C   0  0  0  0  0  0  0  0  0  0  0  0
  128.0980  128.4000   65.9700 C   0  0  0  0  0  0  0  0  0  0  0  0
  128.6790  127.2650   66.5480 C   0  0  0  0  0  0  0  0  0  0  0  0
  128.7310  127.1660   68.0310 C   0  0  0  0  0  0  0  0  0  0  0  0
  127.7570  126.4520   68.7320 C   0  0  0  0  0  0  0  0  0  0  0  0
  127.8200  126.3460   70.1190 C   0  0  0  0  0  0  0  0  0  0  0  0
  128.8700  126.9390   70.8400 C   0  0  0  0  0  0  0  0  0  0  0  0
  128.9510  126.8550   72.2320 N   0  0  0  0  0  0  0  0  0  0  0  0
  128.5270  128.0100   73.0460 C   0  0  0  0  0  0  0  0  0  0  0  0
  128.2970  127.6570   74.5310 C   0  0  0  0  0  0  0  0  0  0  0  0
  129.4620  127.0540   75.0740 O   0  0  0  0  0  0  0  0  0  0  0  0
  129.8040  125.8610   74.3850 C   0  0  0  0  0  0  0  0  0  0  0  0
  130.0760  126.1720   72.8980 C   0  0  0  0  0  0  0  0  0  0  0  0
  129.8410  127.6540   70.1250 C   0  0  0  0  0  0  0  0  0  0  0  0
  129.7760  127.7610   68.7390 C   0  0  0  0  0  0  0  0  0  0  0  0
  129.1900  126.2650   65.6750 C   0  0  0  0  0  0  0  0  0  0  0  0
  129.7840  124.9730   65.8980 C   0  0  0  0  0  0  0  0  0  0  0  0
  129.9430  124.4320   67.1480 N   0  0  0  0  0  0  0  0  0  0  0  0
  1  2  1  0
  2  3  1  0
  3  4  2  0
  3  5  1  0
  5  6  1  0
  6  7  1  0
  7  8  2  0
  8  9  1  0
  9 10  1  0
 10 11  2  0
 11 12  1  0
 12 13  2  0
 13 14  1  0
 14 15  1  0
 15 16  1  0
 16 17  1  0
 17 18  1  0
 18 19  1  0
 13 20  1  0
 20 21  2  0
  9 22  2  0
 22 23  1  0
 23 24  1  0
 24 25  2  0
 25 26  1  0
 26 27  2  0
 27 28  1  0
 28 29  1  0
 29 30  1  0
 30 31  1  0
 31 32  1  0
 32 33  1  0
 27 34  1  0
 34 35  2  0
 23 36  2  0
 36 37  1  0
 37 38  1  0
 37  5  2  0
 36  7  1  0
 21 10  1  0
 35 24  1  0
 19 14  1  0
 33 28  1  0
M  END
>  <Binding energies>  (66) 
[-9.08]

>  <Ligand effiencies>  (66) 
[-0.227]

>  <Interactions>  (66) 
["V-B:GLU:543:CG:9876, V-B:GLY:544:C:9881, V-B:HIS:456:CE1:9038, V-B:GLU:543:CD:9877, V-A:GLU:543:CD:4905, V-B:GLU:543:CB:9875, V-A:GLU:543:CG:4904, V-B:GLU:543:C:9871, V-A:GLU:543:CB:4903, V-B:GLY:454:CA:9017, V-B:GLU:543:CA:9873, V-A:HIS:456:CE1:4066, V-A:TYR:539:CD2:4871, V-B:LEU:475:CD2:9227, V-B:TRP:381:CH2:8340, V-A:GLY:454:CA:4045, V-B:ILE:369:CD1:8207, V-A:TYR:484:CZ:4343, V-A:TYR:484:CE1:4341, V-B:LYS:547:CE:9919, V-B:HIS:456:CD2:9036, V-A:LYS:547:CE:4947, H-A:LYS:547:NZ:4948, H-B:GLU:543:O:9872, V-B:TRP:381:CZ2:8338, V-B:ILE:369:CG2:8205, H-A:TYR:484:OH:4344, V-A:HIS:456:CD2:4064, H-A:HIS:456:NE2:4067, V-B:SER:385:C:8373"]

$$$$
RR10_Rahimova_2017
     RDKit          3D

 34 38  0  0  0  0  0  0  0  0999 V2000
  131.6990  124.7440   64.6200 C   0  0  0  0  0  0  0  0  0  0  0  0
  131.1380  125.3140   65.9350 C   0  0  1  0  0  0  0  0  0  0  0  0
  131.1890  126.8600   65.9610 C   0  0  0  0  0  0  0  0  0  0  0  0
  130.6540  127.4080   67.3030 C   0  0  0  0  0  0  0  0  0  0  0  0
  129.2030  126.9430   67.5880 C   0  0  1  0  0  0  0  0  0  0  0  0
  128.2630  127.5590   66.6430 N   0  0  0  0  0  0  0  0  0  0  0  0
  128.0320  128.8790   66.5210 C   0  0  0  0  0  0  0  0  0  0  0  0
  128.6190  129.7280   67.1960 O   0  0  0  0  0  0  0  0  0  0  0  0
  126.9670  129.3050   65.4890 C   0  0  1  0  0  0  0  0  0  0  0  0
  125.5790  128.7720   65.9330 C   0  0  0  0  0  0  0  0  0  0  0  0
  124.4940  129.2760   64.9500 C   0  0  0  0  0  0  0  0  0  0  0  0
  124.5440  130.8070   64.7460 C   0  0  0  0  0  0  0  0  0  0  0  0
  125.9200  131.2450   64.3870 N   0  0  0  0  0  0  0  0  0  0  0  0
  126.0360  132.9260   63.8400 S   0  0  0  0  0  0  0  0  0  0  0  0
  126.9300  133.6440   64.7570 O   0  0  0  0  0  0  0  0  0  0  0  0
  124.6730  133.4170   63.6000 O   0  0  0  0  0  0  0  0  0  0  0  0
  126.8780  132.8440   62.2590 C   0  0  0  0  0  0  0  0  0  0  0  0
  126.2540  133.3700   61.1230 C   0  0  0  0  0  0  0  0  0  0  0  0
  126.8560  133.3350   59.8610 C   0  0  0  0  0  0  0  0  0  0  0  0
  128.1210  132.7480   59.7890 C   0  0  0  0  0  0  0  0  0  0  0  0
  129.0100  132.5240   58.7650 N   0  0  0  0  0  0  0  0  0  0  0  0
  130.1170  131.8930   59.2940 C   0  0  0  0  0  0  0  0  0  0  0  0
  131.3060  131.4760   58.4760 C   0  0  0  0  0  0  0  0  0  0  0  0
  131.4130  131.8610   57.1320 C   0  0  0  0  0  0  0  0  0  0  0  0
  132.5160  131.4780   56.3740 C   0  0  0  0  0  0  0  0  0  0  0  0
  133.5180  130.7050   56.9550 C   0  0  0  0  0  0  0  0  0  0  0  0
  133.4270  130.3150   58.2880 C   0  0  0  0  0  0  0  0  0  0  0  0
  132.3230  130.6990   59.0450 C   0  0  0  0  0  0  0  0  0  0  0  0
  130.0040  131.7030   60.5900 N   0  0  0  0  0  0  0  0  0  0  0  0
  128.7790  132.2180   60.9250 C   0  0  0  0  0  0  0  0  0  0  0  0
  128.1520  132.2690   62.1780 C   0  0  0  0  0  0  0  0  0  0  0  0
  126.9460  130.8500   65.3850 C   0  0  0  0  0  0  0  0  0  0  0  0
  129.1640  125.3910   67.5420 C   0  0  0  0  0  0  0  0  0  0  0  0
  129.6910  124.8390   66.1980 C   0  0  0  0  0  0  0  0  0  0  0  0
  2  1  1  6
  2  3  1  0
  3  4  1  0
  4  5  1  0
  5  6  1  6
  6  7  1  0
  7  8  2  0
  9  7  1  1
  9 10  1  0
 10 11  1  0
 11 12  1  0
 12 13  1  0
 13 14  1  0
 14 15  2  0
 14 16  2  0
 14 17  1  0
 17 18  2  0
 18 19  1  0
 19 20  2  0
 20 21  1  0
 21 22  1  0
 22 23  1  0
 23 24  2  0
 24 25  1  0
 25 26  2  0
 26 27  1  0
 27 28  2  0
 22 29  2  0
 29 30  1  0
 30 31  2  0
 13 32  1  0
  5 33  1  0
 33 34  1  0
 34  2  1  0
 32  9  1  0
 31 17  1  0
 30 20  1  0
 28 23  1  0
M  END
>  <Binding energies>  (67) 
[-10.62]

>  <Ligand effiencies>  (67) 
[-0.295]

>  <Interactions>  (67) 
["V-B:GLU:543:CG:9876, V-B:HIS:456:CE1:9038, V-B:ARG:545:CZ:9895, V-B:TYR:484:CZ:9315, V-B:GLU:543:CD:9877, H-B:GLU:543:OE1:9878, V-A:GLU:543:CD:4905, V-B:GLU:543:CB:9875, V-A:GLU:543:CG:4904, V-B:GLU:543:C:9871, V-A:GLU:543:CB:4903, H-B:GLY:454:N:9018, H-B:TYR:484:OH:9316, V-B:GLY:454:CA:9017, V-B:ARG:545:CD:9892, V-B:GLU:543:CA:9873, V-B:ARG:545:CG:9891, V-A:HIS:456:CE1:4066, V-A:TYR:539:CE2:4873, V-A:PRO:540:CA:4880, V-A:ASN:362:C:3168, V-A:PRO:540:CB:4882, V-A:TYR:539:CD2:4871, V-A:LEU:363:CD1:3185, V-A:ASP:366:CG:3209, V-A:TYR:539:C:4864, V-A:PRO:540:N:4881, V-A:LEU:363:CA:3181, H-A:TYR:539:O:4865, H-A:ALA:541:N:4888, V-B:LEU:475:CD2:9227, V-A:ALA:541:CB:4889, V-A:ASP:366:CB:3208, V-A:TYR:531:CE2:4790, V-A:TYR:531:CZ:4791, V-B:TYR:484:CE1:9313, V-A:TYR:484:CZ:4343, V-A:TYR:484:CE1:4341, V-A:LEU:363:CB:3183"]

$$$$
RR12_Rahimova_2017
     RDKit          3D

 26 28  0  0  0  0  0  0  0  0999 V2000
  124.5320  124.5430   60.5450 C   0  0  0  0  0  0  0  0  0  0  0  0
  123.7520  124.4210   59.2290 C   0  0  0  0  0  0  0  0  0  0  0  0
  124.0670  125.5620   58.2460 C   0  0  0  0  0  0  0  0  0  0  0  0
  125.4250  125.4360   57.7240 N   0  0  0  0  0  0  0  0  0  0  0  0
  126.4050  126.4160   57.6760 C   0  0  0  0  0  0  0  0  0  0  0  0
  126.1950  127.8480   58.1360 C   0  0  0  0  0  0  0  0  0  0  0  0
  127.2510  128.8100   57.5610 C   0  0  0  0  0  0  0  0  0  0  0  0
  126.7240  129.6260   56.3660 C   0  0  0  0  0  0  0  0  0  0  0  0
  127.6140  130.7110   55.9530 N   0  0  0  0  0  0  0  0  0  0  0  0
  127.5950  131.3090   54.7480 C   0  0  0  0  0  0  0  0  0  0  0  0
  126.8110  130.9930   53.8500 O   0  0  0  0  0  0  0  0  0  0  0  0
  128.6200  132.4320   54.5480 C   0  0  0  0  0  0  0  0  0  0  0  0
  129.0440  132.9230   55.8210 O   0  0  0  0  0  0  0  0  0  0  0  0
  130.1770  132.3920   56.4080 C   0  0  0  0  0  0  0  0  0  0  0  0
  130.0730  132.0470   57.7570 C   0  0  0  0  0  0  0  0  0  0  0  0
  131.1610  131.5030   58.4340 C   0  0  0  0  0  0  0  0  0  0  0  0
  132.3600  131.2990   57.7580 C   0  0  0  0  0  0  0  0  0  0  0  0
  132.4820  131.6400   56.4130 C   0  0  0  0  0  0  0  0  0  0  0  0
  131.3940  132.1850   55.7370 C   0  0  0  0  0  0  0  0  0  0  0  0
  127.5390  125.9920   57.1730 N   0  0  0  0  0  0  0  0  0  0  0  0
  127.3270  124.6700   56.8950 C   0  0  0  0  0  0  0  0  0  0  0  0
  128.2160  123.7290   56.3530 C   0  0  0  0  0  0  0  0  0  0  0  0
  127.7580  122.4250   56.1670 C   0  0  0  0  0  0  0  0  0  0  0  0
  126.4560  122.0580   56.5090 C   0  0  0  0  0  0  0  0  0  0  0  0
  125.5480  122.9710   57.0490 C   0  0  0  0  0  0  0  0  0  0  0  0
  126.0070  124.2810   57.2340 C   0  0  0  0  0  0  0  0  0  0  0  0
  1  2  1  0
  2  3  1  0
  3  4  1  0
  4  5  1  0
  5  6  1  0
  6  7  1  0
  7  8  1  0
  8  9  1  0
  9 10  1  0
 10 11  2  0
 10 12  1  0
 12 13  1  0
 13 14  1  0
 14 15  2  0
 15 16  1  0
 16 17  2  0
 17 18  1  0
 18 19  2  0
  5 20  2  0
 20 21  1  0
 21 22  2  0
 22 23  1  0
 23 24  2  0
 24 25  1  0
 25 26  2  0
 26  4  1  0
 19 14  1  0
 26 21  1  0
M  END
>  <Binding energies>  (68) 
[-7.83]

>  <Ligand effiencies>  (68) 
[-0.29]

>  <Interactions>  (68) 
["V-A:TYR:539:CE2:4873, H-B:LYS:534:NZ:9792, V-A:ILE:538:CG2:4860, V-A:PRO:540:CA:4880, V-A:PRO:540:CB:4882, H-A:TYR:539:OH:4875, V-A:LEU:363:CD1:3185, V-A:TYR:539:CE1:4872, V-A:ILE:538:CD1:4862, V-A:TYR:539:CZ:4874, H-A:TYR:539:N:4867, V-A:TYR:539:C:4864, V-A:PRO:540:N:4881, V-A:ILE:538:CA:4857, V-A:TYR:539:CD1:4870, V-B:ASN:362:C:8140, V-B:TYR:539:CD1:9842, V-B:ILE:538:CB:9831, V-B:PRO:540:N:9853, V-B:LEU:363:CD1:8157, V-B:MET:535:CE:9804, V-B:PRO:540:CD:9856, V-B:PRO:540:CB:9854, V-B:PRO:540:CA:9852, V-B:TYR:539:CE1:9844, V-B:LEU:363:CA:8153, V-B:TYR:531:CE2:9762, V-B:TYR:539:C:9836, V-B:ASP:366:CB:8180, V-A:TYR:531:CE2:4790, V-A:TYR:531:CZ:4791, V-B:ASP:366:CG:8181, V-B:ILE:538:CA:9829"]

$$$$
RR13_Rahimova_2017
     RDKit          3D

 48 54  0  0  0  0  0  0  0  0999 V2000
  129.6680  131.8370   60.8040 Cl  0  0  0  0  0  0  0  0  0  0  0  0
  131.0350  131.3900   59.8420 C   0  0  0  0  0  0  0  0  0  0  0  0
  132.3050  131.5540   60.4010 C   0  0  0  0  0  0  0  0  0  0  0  0
  133.4460  131.2330   59.6700 C   0  0  0  0  0  0  0  0  0  0  0  0
  133.3240  130.7470   58.3700 C   0  0  0  0  0  0  0  0  0  0  0  0
  132.0610  130.5810   57.8060 C   0  0  0  0  0  0  0  0  0  0  0  0
  130.8980  130.8880   58.5320 C   0  0  0  0  0  0  0  0  0  0  0  0
  129.5100  130.7190   57.8750 C   0  0  1  0  0  0  0  0  0  0  0  0
  129.4230  131.5080   56.5590 C   0  0  0  0  0  0  0  0  0  0  0  0
  130.1290  132.5670   56.2300 N   0  0  0  0  0  0  0  0  0  0  0  0
  129.6850  132.9440   54.9660 N   0  0  0  0  0  0  0  0  0  0  0  0
  128.6780  132.0970   54.5460 N   0  0  0  0  0  0  0  0  0  0  0  0
  128.5180  131.2350   55.5560 N   0  0  0  0  0  0  0  0  0  0  0  0
  127.5480  130.1510   55.4530 C   0  0  0  0  0  0  0  0  0  0  0  0
  126.1190  130.7190   55.3700 C   0  0  0  0  0  0  0  0  0  0  0  0
  125.5190  130.9690   56.7450 C   0  0  0  0  0  0  0  0  0  0  0  0
  124.1450  131.1850   56.8780 C   0  0  0  0  0  0  0  0  0  0  0  0
  123.5980  131.4210   58.1370 C   0  0  0  0  0  0  0  0  0  0  0  0
  124.4270  131.4410   59.2570 C   0  0  0  0  0  0  0  0  0  0  0  0
  125.7970  131.2280   59.1310 C   0  0  0  0  0  0  0  0  0  0  0  0
  126.3450  130.9910   57.8720 C   0  0  0  0  0  0  0  0  0  0  0  0
  129.1020  129.3030   57.7120 N   0  0  0  0  0  0  0  0  0  0  0  0
  129.3270  128.5540   58.9630 C   0  0  0  0  0  0  0  0  0  0  0  0
  128.7810  127.1120   58.8440 C   0  0  0  0  0  0  0  0  0  0  0  0
  129.4710  126.3830   57.7660 N   0  0  0  0  0  0  0  0  0  0  0  0
  129.0380  124.9700   57.6710 C   0  0  1  0  0  0  0  0  0  0  0  0
  129.2330  124.3050   56.2900 C   0  0  0  0  0  0  0  0  0  0  0  0
  128.1990  123.4820   55.8240 C   0  0  0  0  0  0  0  0  0  0  0  0
  128.2810  122.8550   54.5810 C   0  0  0  0  0  0  0  0  0  0  0  0
  129.4080  123.0390   53.7850 C   0  0  0  0  0  0  0  0  0  0  0  0
  130.4530  123.8390   54.2360 C   0  0  0  0  0  0  0  0  0  0  0  0
  130.3820  124.4690   55.4820 C   0  0  0  0  0  0  0  0  0  0  0  0
  131.7630  125.3870   55.9820 Cl  0  0  0  0  0  0  0  0  0  0  0  0
  129.6300  124.0830   58.7690 C   0  0  0  0  0  0  0  0  0  0  0  0
  130.8210  124.2250   59.3030 N   0  0  0  0  0  0  0  0  0  0  0  0
  130.9310  123.2230   60.2610 N   0  0  0  0  0  0  0  0  0  0  0  0
  129.7700  122.4790   60.3050 N   0  0  0  0  0  0  0  0  0  0  0  0
  128.9720  123.0420   59.3900 N   0  0  0  0  0  0  0  0  0  0  0  0
  127.6430  122.4930   59.1420 C   0  0  0  0  0  0  0  0  0  0  0  0
  126.6170  123.1170   60.1050 C   0  0  0  0  0  0  0  0  0  0  0  0
  125.5070  123.8480   59.3650 C   0  0  0  0  0  0  0  0  0  0  0  0
  124.4110  124.3500   60.0720 C   0  0  0  0  0  0  0  0  0  0  0  0
  123.3980  125.0260   59.3950 C   0  0  0  0  0  0  0  0  0  0  0  0
  123.4850  125.1960   58.0140 C   0  0  0  0  0  0  0  0  0  0  0  0
  124.5770  124.6970   57.3050 C   0  0  0  0  0  0  0  0  0  0  0  0
  125.5900  124.0230   57.9810 C   0  0  0  0  0  0  0  0  0  0  0  0
  129.2400  127.1320   56.5180 C   0  0  0  0  0  0  0  0  0  0  0  0
  129.7960  128.5700   56.6400 C   0  0  0  0  0  0  0  0  0  0  0  0
  1  2  1  0
  2  3  2  0
  3  4  1  0
  4  5  2  0
  5  6  1  0
  6  7  2  0
  7  8  1  0
  8  9  1  0
  9 10  2  0
 10 11  1  0
 11 12  2  0
 12 13  1  0
 13 14  1  0
 14 15  1  0
 15 16  1  0
 16 17  2  0
 17 18  1  0
 18 19  2  0
 19 20  1  0
 20 21  2  0
  8 22  1  6
 22 23  1  0
 23 24  1  0
 24 25  1  0
 26 25  1  6
 26 27  1  0
 27 28  2  0
 28 29  1  0
 29 30  2  0
 30 31  1  0
 31 32  2  0
 32 33  1  0
 26 34  1  0
 34 35  2  0
 35 36  1  0
 36 37  2  0
 37 38  1  0
 38 39  1  0
 39 40  1  0
 40 41  1  0
 41 42  2  0
 42 43  1  0
 43 44  2  0
 44 45  1  0
 45 46  2  0
 25 47  1  0
 47 48  1  0
  7  2  1  0
 13  9  1  0
 21 16  1  0
 48 22  1  0
 32 27  1  0
 38 34  1  0
 46 41  1  0
M  END
>  <Binding energies>  (69) 
[-14.27]

>  <Ligand effiencies>  (69) 
[-0.2972916666666667]

>  <Interactions>  (69) 
["V-A:TYR:539:CE2:4873, V-A:PRO:540:CA:4880, V-A:ASN:362:C:3168, V-A:PRO:540:CB:4882, V-A:TYR:539:CZ:4874, H-A:TYR:539:N:4867, V-A:ASN:362:CB:3172, V-A:LEU:363:CA:3181, V-A:PRO:540:C:4878, V-B:ASN:362:C:8140, V-B:TYR:539:CD1:9842, V-B:PRO:540:C:9850, V-B:ILE:538:CB:9831, V-B:PRO:540:N:9853, V-B:LEU:363:CD1:8157, V-B:MET:535:CE:9804, V-B:PRO:540:CB:9854, V-B:ILE:538:CG2:9832, V-B:PRO:540:CA:9852, V-B:TYR:539:CE1:9844, V-B:TYR:539:CZ:9846, V-B:TYR:539:CE2:9845, V-B:LEU:363:CA:8153, V-B:TYR:531:CE2:9762, V-B:TYR:539:C:9836, V-B:ASP:366:CB:8180, H-B:TYR:539:OH:9847, V-B:ASP:366:CG:8181, V-B:ILE:369:CG2:8205, V-B:TYR:531:CE1:9761, V-B:ASP:366:CA:8178, V-B:ILE:369:CB:8204, V-B:ASP:366:C:8176, V-B:ILE:538:CA:9829"]

$$$$
RR14_Rahimova_2017
     RDKit          3D

 39 43  0  0  0  0  0  0  0  0999 V2000
  127.8310  129.1450   65.9300 C   0  0  0  0  0  0  0  0  0  0  0  0
  128.3500  128.0820   66.7220 O   0  0  0  0  0  0  0  0  0  0  0  0
  128.9750  127.0200   66.0970 C   0  0  0  0  0  0  0  0  0  0  0  0
  129.3720  125.9620   66.9160 C   0  0  0  0  0  0  0  0  0  0  0  0
  130.0300  124.8600   66.3800 C   0  0  0  0  0  0  0  0  0  0  0  0
  130.3030  124.8080   65.0110 C   0  0  0  0  0  0  0  0  0  0  0  0
  131.0810  123.6330   64.4310 C   0  0  0  0  0  0  0  0  0  0  0  0
  132.3610  124.0220   63.8390 N   0  0  0  0  0  0  0  0  0  0  0  0
  133.1600  124.8930   64.4680 N   0  0  0  0  0  0  0  0  0  0  0  0
  134.2430  125.0470   63.6250 N   0  0  0  0  0  0  0  0  0  0  0  0
  134.0780  124.2660   62.4860 N   0  0  0  0  0  0  0  0  0  0  0  0
  132.9240  123.6580   62.6350 C   0  0  0  0  0  0  0  0  0  0  0  0
  132.2970  122.7060   61.6250 C   0  0  0  0  0  0  0  0  0  0  0  0
  131.0950  123.2720   60.9910 N   0  0  0  0  0  0  0  0  0  0  0  0
  131.4200  124.0310   59.7760 C   0  0  0  0  0  0  0  0  0  0  0  0
  130.3690  125.1050   59.4250 C   0  0  0  0  0  0  0  0  0  0  0  0
  130.9180  126.2440   58.5400 C   0  0  0  0  0  0  0  0  0  0  0  0
  130.9770  125.8960   57.1160 N   0  0  0  0  0  0  0  0  0  0  0  0
  130.1520  124.7110   56.8460 C   0  0  0  0  0  0  0  0  0  0  0  0
  130.2340  124.2870   55.3640 C   0  0  0  0  0  0  0  0  0  0  0  0
  131.5930  124.0970   54.9840 O   0  0  0  0  0  0  0  0  0  0  0  0
  132.3660  125.2810   55.1400 C   0  0  0  0  0  0  0  0  0  0  0  0
  132.3510  125.7350   56.6160 C   0  0  0  0  0  0  0  0  0  0  0  0
  130.1330  122.2030   60.6880 C   0  0  0  0  0  0  0  0  0  0  0  0
  128.7190  122.6550   60.3280 C   0  0  0  0  0  0  0  0  0  0  0  0
  128.2680  122.5910   59.0510 C   0  0  0  0  0  0  0  0  0  0  0  0
  126.9200  123.0590   58.6690 C   0  0  0  0  0  0  0  0  0  0  0  0
  126.4140  122.9890   57.3600 C   0  0  0  0  0  0  0  0  0  0  0  0
  127.2370  122.4130   56.2150 C   0  0  0  0  0  0  0  0  0  0  0  0
  125.1220  123.4580   57.1060 C   0  0  0  0  0  0  0  0  0  0  0  0
  124.3420  123.9880   58.1320 C   0  0  0  0  0  0  0  0  0  0  0  0
  124.8360  124.0590   59.4380 C   0  0  0  0  0  0  0  0  0  0  0  0
  123.9580  124.6410   60.5380 C   0  0  0  0  0  0  0  0  0  0  0  0
  126.1320  123.5910   59.7050 C   0  0  0  0  0  0  0  0  0  0  0  0
  126.6730  123.6460   61.0070 N   0  0  0  0  0  0  0  0  0  0  0  0
  127.9030  123.2290   61.4020 C   0  0  0  0  0  0  0  0  0  0  0  0
  128.2550  123.3510   62.5750 O   0  0  0  0  0  0  0  0  0  0  0  0
  129.8830  125.8470   64.1790 C   0  0  0  0  0  0  0  0  0  0  0  0
  129.2260  126.9500   64.7170 C   0  0  0  0  0  0  0  0  0  0  0  0
  1  2  1  0
  2  3  1  0
  3  4  2  0
  4  5  1  0
  5  6  2  0
  6  7  1  0
  7  8  1  0
  8  9  1  0
  9 10  2  0
 10 11  1  0
 11 12  2  0
 12 13  1  0
 13 14  1  0
 14 15  1  0
 15 16  1  0
 16 17  1  0
 17 18  1  0
 18 19  1  0
 19 20  1  0
 20 21  1  0
 21 22  1  0
 22 23  1  0
 14 24  1  0
 24 25  1  0
 25 26  2  0
 26 27  1  0
 27 28  2  0
 28 29  1  0
 28 30  1  0
 30 31  2  0
 31 32  1  0
 32 33  1  0
 32 34  2  0
 34 35  1  0
 35 36  1  0
 36 37  2  0
  6 38  1  0
 38 39  2  0
 39  3  1  0
 12  8  1  0
 23 18  1  0
 36 25  1  0
 34 27  1  0
M  END
>  <Binding energies>  (70) 
[-11.31]

>  <Ligand effiencies>  (70) 
[-0.28275]

>  <Interactions>  (70) 
["V-B:GLU:543:CG:9876, V-B:HIS:456:CE1:9038, V-B:GLU:543:CD:9877, V-A:GLU:543:CD:4905, V-B:GLU:543:CB:9875, V-A:GLU:543:CG:4904, H-B:GLU:543:OE2:9879, V-A:GLU:543:CB:4903, V-A:HIS:456:CE1:4066, V-A:ASP:366:CG:3209, V-B:ASN:362:C:8140, V-B:TYR:539:CD1:9842, V-B:ILE:538:CB:9831, V-B:PRO:540:N:9853, V-B:LEU:363:CD1:8157, V-B:MET:535:CE:9804, V-B:ASN:362:CB:8144, V-B:PRO:540:CB:9854, V-B:PRO:540:CA:9852, V-B:TYR:539:CE1:9844, V-B:TYR:539:CZ:9846, V-B:TYR:539:CE2:9845, V-B:ALA:541:CB:9861, V-B:TYR:539:CD2:9843, V-A:ASP:366:CB:3208, H-B:TYR:539:OH:9847, H-A:ARG:545:NH2:4925, V-A:GLY:454:CA:4045, V-B:ASP:366:CG:8181, V-A:TYR:484:CZ:4343, V-A:TYR:484:CE1:4341, H-A:GLY:454:N:4046, H-A:TYR:484:OH:4344, H-A:ARG:545:NE:4921, V-B:ILE:538:CA:9829, V-A:ASP:366:CA:3206, V-A:TYR:531:CE1:4789, H-A:ARG:545:NH1:4924, V-A:ASN:370:CB:3241, V-A:ASP:366:C:3204"]

$$$$
RR15_Rahimova_2017
     RDKit          3D

 45 49  0  0  0  0  0  0  0  0999 V2000
  129.5740  127.3780   69.3380 C   0  0  0  0  0  0  0  0  0  0  0  0
  128.7940  126.5260   68.5060 O   0  0  0  0  0  0  0  0  0  0  0  0
  129.2110  126.2720   67.2110 C   0  0  0  0  0  0  0  0  0  0  0  0
  129.7520  125.0450   66.7950 C   0  0  0  0  0  0  0  0  0  0  0  0
  130.1540  124.8560   65.4750 C   0  0  0  0  0  0  0  0  0  0  0  0
  130.0300  125.8830   64.5340 C   0  0  0  0  0  0  0  0  0  0  0  0
  130.4700  125.6810   63.1110 C   0  0  0  0  0  0  0  0  0  0  0  0
  131.5770  126.2180   62.6150 N   0  0  0  0  0  0  0  0  0  0  0  0
  131.6370  125.8200   61.2950 N   0  0  0  0  0  0  0  0  0  0  0  0
  130.5630  125.0420   61.1530 N   0  0  0  0  0  0  0  0  0  0  0  0
  130.1460  124.5300   59.8490 C   0  0  0  0  0  0  0  0  0  0  0  0
  128.6410  124.1760   59.7420 C   0  0  0  0  0  0  0  0  0  0  0  0
  127.8160  125.0620   59.9790 O   0  0  0  0  0  0  0  0  0  0  0  0
  128.2670  122.9160   59.3620 N   0  0  0  0  0  0  0  0  0  0  0  0
  128.5880  121.7370   60.1900 C   0  0  0  0  0  0  0  0  0  0  0  0
  129.4970  122.0580   61.3960 C   0  0  0  0  0  0  0  0  0  0  0  0
  130.6820  121.0830   61.5940 C   0  0  0  0  0  0  0  0  0  0  0  0
  131.8780  121.7150   62.1600 N   0  0  0  0  0  0  0  0  0  0  0  0
  132.6420  122.5070   61.1840 C   0  0  0  0  0  0  0  0  0  0  0  0
  133.8400  123.2190   61.8480 C   0  0  0  0  0  0  0  0  0  0  0  0
  133.3960  124.0040   62.9500 O   0  0  0  0  0  0  0  0  0  0  0  0
  132.7470  123.2220   63.9460 C   0  0  0  0  0  0  0  0  0  0  0  0
  131.5160  122.5120   63.3400 C   0  0  0  0  0  0  0  0  0  0  0  0
  127.3540  122.6420   58.2100 C   0  0  2  0  0  0  0  0  0  0  0  0
  128.0620  122.6540   56.8190 C   0  0  0  0  0  0  0  0  0  0  0  0
  127.7970  121.8090   55.9640 O   0  0  0  0  0  0  0  0  0  0  0  0
  128.9330  123.6590   56.6190 N   0  0  0  0  0  0  0  0  0  0  0  0
  129.6330  123.9320   55.3690 C   0  0  0  0  0  0  0  0  0  0  0  0
  130.3010  125.3190   55.3960 C   0  0  2  0  0  0  0  0  0  0  0  0
  131.7790  125.3480   54.9670 C   0  0  0  0  0  0  0  0  0  0  0  0
  132.5490  125.4200   56.2630 C   0  0  0  0  0  0  0  0  0  0  0  0
  131.6080  126.2440   57.1250 C   0  0  0  0  0  0  0  0  0  0  0  0
  130.3320  125.7200   56.7730 O   0  0  0  0  0  0  0  0  0  0  0  0
  126.0620  123.4390   58.3460 C   0  0  0  0  0  0  0  0  0  0  0  0
  125.5670  124.0920   57.2110 C   0  0  0  0  0  0  0  0  0  0  0  0
  124.3920  124.8350   57.2760 C   0  0  0  0  0  0  0  0  0  0  0  0
  123.7000  124.9290   58.4800 C   0  0  0  0  0  0  0  0  0  0  0  0
  122.5570  125.6490   58.5430 F   0  0  0  0  0  0  0  0  0  0  0  0
  124.1750  124.2850   59.6190 C   0  0  0  0  0  0  0  0  0  0  0  0
  125.3510  123.5430   59.5530 C   0  0  0  0  0  0  0  0  0  0  0  0
  129.7890  124.9590   62.2410 N   0  0  0  0  0  0  0  0  0  0  0  0
  129.4880  127.1060   64.9520 C   0  0  0  0  0  0  0  0  0  0  0  0
  129.0740  127.3110   66.2790 C   0  0  0  0  0  0  0  0  0  0  0  0
  128.5300  128.4990   66.7380 O   0  0  0  0  0  0  0  0  0  0  0  0
  127.7840  129.3210   65.8480 C   0  0  0  0  0  0  0  0  0  0  0  0
  1  2  1  0
  2  3  1  0
  3  4  2  0
  4  5  1  0
  5  6  2  0
  6  7  1  0
  7  8  1  0
  8  9  2  0
  9 10  1  0
 10 11  1  0
 11 12  1  0
 12 13  2  0
 12 14  1  0
 14 15  1  0
 15 16  1  0
 16 17  1  0
 17 18  1  0
 18 19  1  0
 19 20  1  0
 20 21  1  0
 21 22  1  0
 22 23  1  0
 24 14  1  1
 24 25  1  0
 25 26  2  0
 25 27  1  0
 27 28  1  0
 29 28  1  1
 29 30  1  0
 30 31  1  0
 31 32  1  0
 32 33  1  0
 24 34  1  0
 34 35  2  0
 35 36  1  0
 36 37  2  0
 37 38  1  0
 37 39  1  0
 39 40  2  0
 10 41  1  0
  6 42  1  0
 42 43  2  0
 43 44  1  0
 44 45  1  0
 43  3  1  0
 41  7  2  0
 23 18  1  0
 33 29  1  0
 40 34  1  0
M  END
>  <Binding energies>  (71) 
[-9.31]

>  <Ligand effiencies>  (71) 
[-0.2023913043478261]

>  <Interactions>  (71) 
["V-B:GLU:543:CG:9876, V-B:HIS:456:CE1:9038, V-B:GLU:543:CD:9877, V-A:GLU:543:CD:4905, V-B:GLU:543:CB:9875, V-A:GLU:543:CG:4904, V-A:GLU:543:CB:4903, V-A:HIS:456:CE1:4066, V-A:ASP:366:CG:3209, V-B:ASN:362:C:8140, V-B:TYR:539:CD1:9842, V-B:PRO:540:N:9853, V-B:LEU:363:CD1:8157, V-B:MET:535:CE:9804, H-B:TYR:539:N:9839, V-B:PRO:540:CB:9854, V-B:PRO:540:CA:9852, V-B:TYR:539:CE1:9844, V-B:TYR:539:CZ:9846, V-B:TYR:539:CE2:9845, V-B:LEU:363:CB:8155, V-B:LEU:363:CA:8153, V-B:TYR:531:CE2:9762, V-B:TYR:539:C:9836, V-B:TYR:531:CZ:9763, V-B:ASP:366:CB:8180, V-B:ALA:541:CB:9861, V-A:LEU:475:CD1:4254, V-B:TYR:539:CD2:9843, V-A:ASP:366:CB:3208, H-A:ARG:545:NH2:4925, V-A:GLY:454:CA:4045, V-B:ASP:366:CG:8181, V-A:TYR:484:CZ:4343, V-A:TYR:484:CE1:4341, H-A:GLY:454:N:4046, V-B:ASP:366:CA:8178, V-A:ASP:366:CA:3206, V-A:TYR:531:CE1:4789, V-A:ASP:366:C:3204, V-B:LEU:363:C:8151"]

$$$$
RR17_Rahimova_2017
     RDKit          3D

 38 41  0  0  0  0  0  0  0  0999 V2000
  132.7180  131.7820   61.3570 C   0  0  0  0  0  0  0  0  0  0  0  0
  132.3660  130.7040   60.3280 C   0  0  0  0  0  0  0  0  0  0  0  0
  132.9310  131.0690   59.0720 O   0  0  0  0  0  0  0  0  0  0  0  0
  132.0940  131.4180   58.0280 C   0  0  0  0  0  0  0  0  0  0  0  0
  130.7240  131.3530   58.2800 C   0  0  0  0  0  0  0  0  0  0  0  0
  129.8050  131.6840   57.2900 C   0  0  0  0  0  0  0  0  0  0  0  0
  130.2390  132.0880   56.0190 C   0  0  0  0  0  0  0  0  0  0  0  0
  129.2230  132.4400   54.9720 C   0  0  0  0  0  0  0  0  0  0  0  0
  128.9290  133.6080   54.7020 O   0  0  0  0  0  0  0  0  0  0  0  0
  128.5340  131.2670   54.2400 C   0  0  0  0  0  0  0  0  0  0  0  0
  126.8600  130.9320   54.8970 S   0  0  0  0  0  0  0  0  0  0  0  0
  127.2410  129.6570   56.0650 C   0  0  0  0  0  0  0  0  0  0  0  0
  127.8590  128.5330   55.7890 N   0  0  0  0  0  0  0  0  0  0  0  0
  127.9720  127.8090   56.9690 N   0  0  0  0  0  0  0  0  0  0  0  0
  127.4220  128.5250   57.9160 C   0  0  0  0  0  0  0  0  0  0  0  0
  127.3390  128.1090   59.3770 C   0  0  0  0  0  0  0  0  0  0  0  0
  126.3890  127.0290   59.6300 N   0  0  0  0  0  0  0  0  0  0  0  0
  126.2460  125.9040   58.7980 C   0  0  0  0  0  0  0  0  0  0  0  0
  127.3910  125.1550   58.5280 C   0  0  0  0  0  0  0  0  0  0  0  0
  127.3210  124.0330   57.7080 C   0  0  0  0  0  0  0  0  0  0  0  0
  126.1000  123.6430   57.1500 C   0  0  0  0  0  0  0  0  0  0  0  0
  126.0420  122.4120   56.2470 C   0  0  0  0  0  0  0  0  0  0  0  0
  124.7900  121.9980   56.0360 F   0  0  0  0  0  0  0  0  0  0  0  0
  126.5920  122.6780   55.0610 F   0  0  0  0  0  0  0  0  0  0  0  0
  126.7200  121.4170   56.8190 F   0  0  0  0  0  0  0  0  0  0  0  0
  124.9490  124.3880   57.4270 C   0  0  0  0  0  0  0  0  0  0  0  0
  125.0190  125.5090   58.2480 C   0  0  0  0  0  0  0  0  0  0  0  0
  126.9260  129.7080   57.4080 N   0  0  0  0  0  0  0  0  0  0  0  0
  126.2790  130.7400   58.1050 C   0  0  0  0  0  0  0  0  0  0  0  0
  124.8870  130.8170   58.0820 C   0  0  0  0  0  0  0  0  0  0  0  0
  124.2450  131.8420   58.7710 C   0  0  0  0  0  0  0  0  0  0  0  0
  124.9940  132.7930   59.4840 C   0  0  0  0  0  0  0  0  0  0  0  0
  124.4440  133.8420   60.1950 O   0  0  0  0  0  0  0  0  0  0  0  0
  125.3080  134.7860   60.8190 C   0  0  0  0  0  0  0  0  0  0  0  0
  126.3870  132.7010   59.4940 C   0  0  0  0  0  0  0  0  0  0  0  0
  127.0350  131.6770   58.8080 C   0  0  0  0  0  0  0  0  0  0  0  0
  131.6170  132.1540   55.7670 C   0  0  0  0  0  0  0  0  0  0  0  0
  132.5350  131.8230   56.7600 C   0  0  0  0  0  0  0  0  0  0  0  0
  1  2  1  0
  2  3  1  0
  3  4  1  0
  4  5  2  0
  5  6  1  0
  6  7  2  0
  7  8  1  0
  8  9  2  0
  8 10  1  0
 10 11  1  0
 11 12  1  0
 12 13  2  0
 13 14  1  0
 14 15  2  0
 15 16  1  0
 16 17  1  0
 17 18  1  0
 18 19  2  0
 19 20  1  0
 20 21  2  0
 21 22  1  0
 22 23  1  0
 22 24  1  0
 22 25  1  0
 21 26  1  0
 26 27  2  0
 15 28  1  0
 28 29  1  0
 29 30  2  0
 30 31  1  0
 31 32  2  0
 32 33  1  0
 33 34  1  0
 32 35  1  0
 35 36  2  0
  7 37  1  0
 37 38  2  0
 38  4  1  0
 28 12  1  0
 36 29  1  0
 27 18  1  0
M  END
>  <Binding energies>  (72) 
[-8.78]

>  <Ligand effiencies>  (72) 
[-0.2251282051282051]

>  <Interactions>  (72) 
["V-A:GLU:543:CD:4905, V-A:TYR:539:CE2:4873, V-A:ILE:538:CG2:4860, V-A:PRO:540:CA:4880, V-A:PRO:540:CB:4882, H-A:TYR:539:OH:4875, V-A:TYR:539:CD2:4871, V-A:LEU:363:CD1:3185, V-A:ILE:538:CD1:4862, H-A:TYR:539:N:4867, V-A:ASN:362:CB:3172, V-A:ILE:538:CA:4857, V-B:LEU:475:CD2:9227, V-B:TRP:381:CH2:8340, V-A:PRO:540:C:4878, V-B:TYR:539:CD1:9842, V-B:ILE:538:CB:9831, V-B:PRO:540:N:9853, V-B:LEU:363:CD1:8157, V-B:MET:535:CE:9804, V-B:PRO:540:CD:9856, V-B:PRO:540:CB:9854, V-B:ILE:538:CG2:9832, V-B:PRO:540:CA:9852, V-B:TYR:539:C:9836, V-B:PRO:540:CG:9855, V-B:ASP:366:CB:8180, H-B:ASP:366:OD1:8182, V-B:ASP:366:CG:8181, H-B:TYR:531:OH:9764, V-B:ILE:369:CG2:8205, V-B:ILE:538:CD1:9834, V-B:ILE:369:CB:8204, V-B:ILE:538:CA:9829, V-B:ILE:538:C:9827, V-B:TYR:539:CA:9838, V-B:ILE:538:CG1:9833"]

$$$$
RR19_Rahimova_2017
     RDKit          3D

 46 51  0  0  0  0  0  0  0  0999 V2000
  130.5510  124.4480   66.3280 O   0  0  0  0  0  0  0  0  0  0  0  0
  129.7500  124.9100   65.5110 C   0  0  0  0  0  0  0  0  0  0  0  0
  129.4930  124.4080   64.2760 N   0  0  0  0  0  0  0  0  0  0  0  0
  129.8140  123.2230   63.6620 C   0  0  0  0  0  0  0  0  0  0  0  0
  130.4780  121.8650   64.4260 S   0  0  0  0  0  0  0  0  0  0  0  0
  129.5070  123.3220   62.3280 N   0  0  0  0  0  0  0  0  0  0  0  0
  129.4900  122.4200   61.3140 C   0  0  0  0  0  0  0  0  0  0  0  0
  129.5880  121.1950   61.4230 O   0  0  0  0  0  0  0  0  0  0  0  0
  129.3530  123.0570   59.9080 C   0  0  2  0  0  0  0  0  0  0  0  0
  130.4110  124.1500   59.5810 C   0  0  0  0  0  0  0  0  0  0  0  0
  131.5680  124.2470   60.5630 C   0  0  0  0  0  0  0  0  0  0  0  0
  131.6020  125.2610   61.5440 C   0  0  0  0  0  0  0  0  0  0  0  0
  132.6250  125.2860   62.4820 C   0  0  0  0  0  0  0  0  0  0  0  0
  133.6090  124.3050   62.4720 C   0  0  0  0  0  0  0  0  0  0  0  0
  133.5720  123.2830   61.5320 C   0  0  0  0  0  0  0  0  0  0  0  0
  132.5550  123.2390   60.5860 C   0  0  0  0  0  0  0  0  0  0  0  0
  127.9680  123.5470   59.6700 N   0  0  0  0  0  0  0  0  0  0  0  0
  127.1900  123.0220   58.6810 C   0  0  0  0  0  0  0  0  0  0  0  0
  127.5020  122.1470   57.8710 O   0  0  0  0  0  0  0  0  0  0  0  0
  125.8880  123.7240   58.7860 C   0  0  0  0  0  0  0  0  0  0  0  0
  124.7190  123.6020   58.0330 C   0  0  0  0  0  0  0  0  0  0  0  0
  123.6200  124.4000   58.3670 C   0  0  0  0  0  0  0  0  0  0  0  0
  123.7010  125.3010   59.4380 C   0  0  0  0  0  0  0  0  0  0  0  0
  124.8820  125.4080   60.1810 C   0  0  0  0  0  0  0  0  0  0  0  0
  125.9670  124.6040   59.8310 C   0  0  0  0  0  0  0  0  0  0  0  0
  127.3220  124.4870   60.4240 C   0  0  0  0  0  0  0  0  0  0  0  0
  127.7640  125.1020   61.3960 O   0  0  0  0  0  0  0  0  0  0  0  0
  128.9450  126.1890   65.8650 C   0  0  2  0  0  0  0  0  0  0  0  0
  129.1060  127.3420   64.8320 C   0  0  0  0  0  0  0  0  0  0  0  0
  127.8550  128.1810   64.6470 C   0  0  0  0  0  0  0  0  0  0  0  0
  127.4160  129.0350   65.6820 C   0  0  0  0  0  0  0  0  0  0  0  0
  126.3310  129.8780   65.4730 C   0  0  0  0  0  0  0  0  0  0  0  0
  125.6920  129.9050   64.2410 C   0  0  0  0  0  0  0  0  0  0  0  0
  126.1380  129.0990   63.2000 C   0  0  0  0  0  0  0  0  0  0  0  0
  127.2200  128.2480   63.3890 C   0  0  0  0  0  0  0  0  0  0  0  0
  129.1800  126.6680   67.2580 N   0  0  0  0  0  0  0  0  0  0  0  0
  128.2180  126.5750   68.2190 C   0  0  0  0  0  0  0  0  0  0  0  0
  127.0770  126.1300   68.0920 O   0  0  0  0  0  0  0  0  0  0  0  0
  128.8390  127.1250   69.4500 C   0  0  0  0  0  0  0  0  0  0  0  0
  128.3260  127.2880   70.7380 C   0  0  0  0  0  0  0  0  0  0  0  0
  129.1520  127.8420   71.7220 C   0  0  0  0  0  0  0  0  0  0  0  0
  130.4650  128.2180   71.4120 C   0  0  0  0  0  0  0  0  0  0  0  0
  130.9620  128.0450   70.1150 C   0  0  0  0  0  0  0  0  0  0  0  0
  130.1210  127.4930   69.1470 C   0  0  0  0  0  0  0  0  0  0  0  0
  130.3570  127.1890   67.7150 C   0  0  0  0  0  0  0  0  0  0  0  0
  131.3930  127.3680   67.0750 O   0  0  0  0  0  0  0  0  0  0  0  0
  1  2  2  0
  2  3  1  0
  3  4  1  0
  4  5  2  0
  4  6  1  0
  6  7  1  0
  7  8  2  0
  7  9  1  0
  9 10  1  1
 10 11  1  0
 11 12  2  0
 12 13  1  0
 13 14  2  0
 14 15  1  0
 15 16  2  0
  9 17  1  0
 17 18  1  0
 18 19  2  0
 18 20  1  0
 20 21  2  0
 21 22  1  0
 22 23  2  0
 23 24  1  0
 24 25  2  0
 25 26  1  0
 26 27  2  0
  2 28  1  0
 28 29  1  6
 29 30  1  0
 30 31  2  0
 31 32  1  0
 32 33  2  0
 33 34  1  0
 34 35  2  0
 28 36  1  0
 36 37  1  0
 37 38  2  0
 37 39  1  0
 39 40  2  0
 40 41  1  0
 41 42  2  0
 42 43  1  0
 43 44  2  0
 44 45  1  0
 45 46  2  0
 16 11  1  0
 26 17  1  0
 35 30  1  0
 45 36  1  0
 25 20  1  0
 44 39  1  0
M  END
>  <Binding energies>  (73) 
[-11.14]

>  <Ligand effiencies>  (73) 
[-0.23208333333333334]

>  <Interactions>  (73) 
["V-B:GLU:543:CG:9876, V-B:HIS:456:CE1:9038, V-B:GLU:543:CD:9877, H-B:GLU:543:OE1:9878, V-A:GLU:543:CD:4905, V-B:GLU:543:CB:9875, H-B:GLU:543:OE2:9879, V-A:GLU:543:CB:4903, V-A:HIS:456:CE1:4066, V-A:ASP:366:CG:3209, V-B:ASN:362:C:8140, V-B:PRO:540:N:9853, V-B:LEU:363:CD1:8157, V-B:PRO:540:CB:9854, V-B:PRO:540:CA:9852, V-B:TYR:539:CZ:9846, V-B:TYR:539:CE2:9845, V-B:LEU:363:CB:8155, V-B:LEU:363:CA:8153, V-B:ASP:366:CB:8180, V-B:ALA:541:CB:9861, V-A:LEU:475:CD1:4254, V-B:ASP:366:CG:8181, V-A:LEU:475:CD2:4255, V-A:TYR:484:CZ:4343, V-A:TYR:484:CE1:4341, V-A:GLU:543:C:4899, V-B:HIS:456:CD2:9036, V-A:ARG:545:CZ:4923, H-A:TYR:484:OH:4344, V-A:HIS:456:CD2:4064, V-A:GLY:544:C:4909, V-A:LEU:475:CG:4253"]

$$$$
RR1_Rahimova_2017
     RDKit          3D

 41 44  0  0  0  0  0  0  0  0999 V2000
  132.7390  124.8040   64.7390 C   0  0  0  0  0  0  0  0  0  0  0  0
  133.5550  124.6710   63.5810 O   0  0  0  0  0  0  0  0  0  0  0  0
  132.9570  124.6200   62.3370 C   0  0  0  0  0  0  0  0  0  0  0  0
  133.3300  123.7340   61.3140 C   0  0  0  0  0  0  0  0  0  0  0  0
  132.6730  123.7600   60.0880 C   0  0  0  0  0  0  0  0  0  0  0  0
  131.6330  124.6630   59.8630 C   0  0  0  0  0  0  0  0  0  0  0  0
  131.0620  124.6440   58.5760 N   0  0  0  0  0  0  0  0  0  0  0  0
  130.0640  125.4000   58.0720 C   0  0  0  0  0  0  0  0  0  0  0  0
  129.4150  126.2250   58.7160 O   0  0  0  0  0  0  0  0  0  0  0  0
  129.7670  125.1580   56.5830 C   0  0  0  0  0  0  0  0  0  0  0  0
  128.6690  123.7420   56.2240 S   0  0  0  0  0  0  0  0  0  0  0  0
  128.2770  123.3130   57.8870 C   0  0  0  0  0  0  0  0  0  0  0  0
  129.1640  122.9730   58.7880 N   0  0  0  0  0  0  0  0  0  0  0  0
  128.4390  122.7510   59.8790 C   0  0  0  0  0  0  0  0  0  0  0  0
  129.0580  122.3420   61.1860 C   0  0  0  0  0  0  0  0  0  0  0  0
  129.0280  123.1850   62.3080 C   0  0  0  0  0  0  0  0  0  0  0  0
  129.6140  122.7790   63.5090 C   0  0  0  0  0  0  0  0  0  0  0  0
  130.2230  121.5270   63.5600 C   0  0  0  0  0  0  0  0  0  0  0  0
  130.2710  120.6870   62.4950 N   0  0  0  0  0  0  0  0  0  0  0  0
  129.6940  121.1000   61.3380 C   0  0  0  0  0  0  0  0  0  0  0  0
  127.1370  122.9180   59.7380 N   0  0  0  0  0  0  0  0  0  0  0  0
  127.0300  123.2790   58.4560 N   0  0  0  0  0  0  0  0  0  0  0  0
  125.7230  123.5920   57.8780 C   0  0  0  0  0  0  0  0  0  0  0  0
  125.2960  125.0650   57.9970 C   0  0  0  0  0  0  0  0  0  0  0  0
  124.1020  125.3830   57.9560 O   0  0  0  0  0  0  0  0  0  0  0  0
  126.3090  125.9410   58.1420 N   0  0  0  0  0  0  0  0  0  0  0  0
  125.9950  127.2670   58.4020 N   0  0  0  0  0  0  0  0  0  0  0  0
  126.8890  128.2110   58.0340 C   0  0  0  0  0  0  0  0  0  0  0  0
  127.9170  127.9770   57.3900 O   0  0  0  0  0  0  0  0  0  0  0  0
  126.5480  129.6310   58.4390 C   0  0  0  0  0  0  0  0  0  0  0  0
  125.2560  130.1260   58.2280 C   0  0  0  0  0  0  0  0  0  0  0  0
  124.9240  131.4290   58.5800 C   0  0  0  0  0  0  0  0  0  0  0  0
  125.8810  132.2850   59.1500 C   0  0  0  0  0  0  0  0  0  0  0  0
  125.6200  133.5950   59.5100 O   0  0  0  0  0  0  0  0  0  0  0  0
  125.3510  133.9080   60.8720 C   0  0  0  0  0  0  0  0  0  0  0  0
  127.1820  131.8110   59.3630 C   0  0  0  0  0  0  0  0  0  0  0  0
  128.0930  132.7000   59.9080 O   0  0  0  0  0  0  0  0  0  0  0  0
  129.3880  132.2420   60.2790 C   0  0  0  0  0  0  0  0  0  0  0  0
  127.5030  130.4880   59.0080 C   0  0  0  0  0  0  0  0  0  0  0  0
  131.2560  125.5500   60.8830 C   0  0  0  0  0  0  0  0  0  0  0  0
  131.9150  125.5200   62.1080 C   0  0  0  0  0  0  0  0  0  0  0  0
  1  2  1  0
  2  3  1  0
  3  4  2  0
  4  5  1  0
  5  6  2  0
  6  7  1  0
  7  8  1  0
  8  9  2  0
  8 10  1  0
 10 11  1  0
 11 12  1  0
 12 13  2  0
 13 14  1  0
 14 15  1  0
 15 16  2  0
 16 17  1  0
 17 18  2  0
 18 19  1  0
 19 20  2  0
 14 21  2  0
 21 22  1  0
 22 23  1  0
 23 24  1  0
 24 25  2  0
 24 26  1  0
 26 27  1  0
 27 28  1  0
 28 29  2  0
 28 30  1  0
 30 31  2  0
 31 32  1  0
 32 33  2  0
 33 34  1  0
 34 35  1  0
 33 36  1  0
 36 37  1  0
 37 38  1  0
 36 39  2  0
  6 40  1  0
 40 41  2  0
 41  3  1  0
 22 12  1  0
 39 30  1  0
 20 15  1  0
M  END
>  <Binding energies>  (74) 
[-8.07]

>  <Ligand effiencies>  (74) 
[-0.1834090909090909]

>  <Interactions>  (74) 
["V-B:GLU:543:CG:9876, V-A:TYR:539:CE2:4873, V-A:PRO:540:CA:4880, V-A:TYR:539:CD2:4871, V-A:ASP:366:CG:3209, V-B:LEU:475:CD2:9227, V-B:MET:535:CE:9804, V-B:PRO:540:CB:9854, V-B:PRO:540:CA:9852, V-B:TYR:539:CE1:9844, V-B:TYR:539:CZ:9846, V-B:TYR:539:CE2:9845, V-B:ASP:366:CB:8180, V-B:ALA:541:CB:9861, V-A:LEU:475:CD1:4254, V-B:TYR:539:CD2:9843, H-B:TYR:539:OH:9847, H-A:ARG:545:NH2:4925, H-B:ASP:366:OD1:8182, V-B:ASP:366:CG:8181, V-A:LEU:475:CD2:4255, H-B:TYR:531:OH:9764, H-A:GLY:454:N:4046, V-A:ARG:545:CZ:4923, V-B:ILE:369:CG2:8205, V-A:LEU:475:CG:4253"]

$$$$
RR22_Rahimova_2017
     RDKit          3D

 31 36  0  0  0  0  0  0  0  0999 V2000
  132.7560  124.5200   54.6180 O   0  0  0  0  0  0  0  0  0  0  0  0
  131.8340  124.7580   55.3950 C   0  0  0  0  0  0  0  0  0  0  0  0
  131.9030  125.4160   56.6110 N   0  0  0  0  0  0  0  0  0  0  0  0
  130.7170  125.6670   57.3720 C   0  0  1  0  0  0  0  0  0  0  0  0
  130.9650  125.0850   58.6550 O   0  0  0  0  0  0  0  0  0  0  0  0
  130.9290  125.9140   59.7770 C   0  0  0  0  0  0  0  0  0  0  0  0
  131.5240  125.4180   60.9360 C   0  0  0  0  0  0  0  0  0  0  0  0
  131.4920  126.1730   62.1090 C   0  0  0  0  0  0  0  0  0  0  0  0
  130.8590  127.4160   62.1230 C   0  0  0  0  0  0  0  0  0  0  0  0
  130.2630  127.9120   60.9630 C   0  0  0  0  0  0  0  0  0  0  0  0
  130.3080  127.1780   59.7730 C   0  0  0  0  0  0  0  0  0  0  0  0
  129.6570  127.6060   58.4780 C   0  0  1  0  0  0  0  0  0  0  0  0
  129.5210  129.0610   58.0770 C   0  0  0  0  0  0  0  0  0  0  0  0
  129.5740  128.9190   56.5530 C   0  0  0  0  0  0  0  0  0  0  0  0
  129.1040  129.9760   55.6350 C   0  0  0  0  0  0  0  0  0  0  0  0
  128.3230  129.6530   54.5160 C   0  0  0  0  0  0  0  0  0  0  0  0
  127.8810  130.6540   53.6550 C   0  0  0  0  0  0  0  0  0  0  0  0
  128.2170  131.9810   53.9070 C   0  0  0  0  0  0  0  0  0  0  0  0
  128.9910  132.3180   55.0140 C   0  0  0  0  0  0  0  0  0  0  0  0
  129.4330  131.3190   55.8770 C   0  0  0  0  0  0  0  0  0  0  0  0
  130.0920  127.7990   56.2110 N   0  0  0  0  0  0  0  0  0  0  0  0
  130.4400  127.1110   57.3860 N   0  0  0  0  0  0  0  0  0  0  0  0
  129.6040  124.8580   56.7220 C   0  0  0  0  0  0  0  0  0  0  0  0
  128.4380  124.5730   57.3480 C   0  0  0  0  0  0  0  0  0  0  0  0
  127.2770  123.8230   56.8330 C   0  0  0  0  0  0  0  0  0  0  0  0
  126.0180  124.4040   56.6260 C   0  0  0  0  0  0  0  0  0  0  0  0
  124.9640  123.6310   56.1360 C   0  0  0  0  0  0  0  0  0  0  0  0
  125.1980  122.2820   55.8680 C   0  0  0  0  0  0  0  0  0  0  0  0
  126.4020  121.6910   56.0660 N   0  0  0  0  0  0  0  0  0  0  0  0
  127.4150  122.4600   56.5420 C   0  0  0  0  0  0  0  0  0  0  0  0
  130.1000  124.2840   55.1230 S   0  0  0  0  0  0  0  0  0  0  0  0
  1  2  2  0
  2  3  1  0
  4  3  1  6
  4  5  1  0
  5  6  1  0
  6  7  2  0
  7  8  1  0
  8  9  2  0
  9 10  1  0
 10 11  2  0
 11 12  1  0
 12 13  1  1
 13 14  1  0
 14 15  1  0
 15 16  2  0
 16 17  1  0
 17 18  2  0
 18 19  1  0
 19 20  2  0
 14 21  2  0
 21 22  1  0
  4 23  1  0
 23 24  2  0
 24 25  1  0
 25 26  2  0
 26 27  1  0
 27 28  2  0
 28 29  1  0
 29 30  2  0
 23 31  1  0
 31  2  1  0
 22  4  1  0
 30 25  1  0
 11  6  1  0
 22 12  1  0
 20 15  1  0
M  END
>  <Binding energies>  (75) 
[-9.11]

>  <Ligand effiencies>  (75) 
[-0.2846875]

>  <Interactions>  (75) 
["V-A:GLU:543:CD:4905, V-A:TYR:539:CE1:4872, V-A:ILE:538:CD1:4862, V-A:TYR:539:CZ:4874, V-A:ASP:366:CG:3209, V-A:ILE:538:CA:4857, V-B:TYR:539:CD1:9842, V-B:ILE:538:CB:9831, V-B:PRO:540:N:9853, V-B:LEU:363:CD1:8157, V-B:MET:535:CE:9804, V-B:PRO:540:CD:9856, H-B:TYR:539:N:9839, V-B:PRO:540:CB:9854, V-B:ILE:538:CG2:9832, V-B:TYR:539:CE1:9844, V-B:TYR:539:CZ:9846, V-B:TYR:539:C:9836, V-B:PRO:540:CG:9855, V-A:ASP:366:CB:3208, H-A:TYR:531:OH:4792, H-B:TYR:539:OH:9847, V-B:ILE:538:CD1:9834, H-A:ASP:366:O:3205"]

$$$$
RR24_Rahimova_2017
     RDKit          3D

 43 49  0  0  0  0  0  0  0  0999 V2000
  128.1850  133.7260   60.9830 C   0  0  0  0  0  0  0  0  0  0  0  0
  128.0080  132.6170   59.9360 C   0  0  2  0  0  0  0  0  0  0  0  0
  127.1400  131.4280   60.4430 C   0  0  0  0  0  0  0  0  0  0  0  0
  126.0360  131.1650   59.9550 O   0  0  0  0  0  0  0  0  0  0  0  0
  127.7270  130.7570   61.4780 O   0  0  0  0  0  0  0  0  0  0  0  0
  127.9380  129.4000   61.3750 C   0  0  0  0  0  0  0  0  0  0  0  0
  129.1340  128.9340   60.8250 C   0  0  0  0  0  0  0  0  0  0  0  0
  129.3630  127.5650   60.7250 C   0  0  0  0  0  0  0  0  0  0  0  0
  128.4030  126.6570   61.1820 C   0  0  0  0  0  0  0  0  0  0  0  0
  128.6530  125.1500   61.0510 C   0  0  1  0  0  0  0  0  0  0  0  0
  127.9860  124.5610   59.7850 C   0  0  0  0  0  0  0  0  0  0  0  0
  128.6530  123.8000   58.8980 C   0  0  0  0  0  0  0  0  0  0  0  0
  129.9820  123.4900   59.0520 N   0  0  0  0  0  0  0  0  0  0  0  0
  130.7020  123.9480   60.1300 C   0  0  0  0  0  0  0  0  0  0  0  0
  131.9990  123.5460   60.1390 N   0  0  0  0  0  0  0  0  0  0  0  0
  132.8850  123.9640   61.0830 C   0  0  0  0  0  0  0  0  0  0  0  0
  134.0930  123.8380   60.8750 O   0  0  0  0  0  0  0  0  0  0  0  0
  132.3050  124.6560   62.1350 N   0  0  0  0  0  0  0  0  0  0  0  0
  133.2090  125.0550   63.2340 C   0  0  0  0  0  0  0  0  0  0  0  0
  131.0020  125.1160   62.2270 C   0  0  0  0  0  0  0  0  0  0  0  0
  130.5650  125.7750   63.1760 O   0  0  0  0  0  0  0  0  0  0  0  0
  130.1530  124.7310   61.0950 C   0  0  0  0  0  0  0  0  0  0  0  0
  127.7800  123.3870   57.8120 C   0  0  0  0  0  0  0  0  0  0  0  0
  127.9850  122.6140   56.6690 C   0  0  0  0  0  0  0  0  0  0  0  0
  126.9170  122.3930   55.7950 C   0  0  0  0  0  0  0  0  0  0  0  0
  125.6600  122.9410   56.0660 C   0  0  0  0  0  0  0  0  0  0  0  0
  125.4610  123.7150   57.2130 C   0  0  0  0  0  0  0  0  0  0  0  0
  126.5320  123.9330   58.0820 C   0  0  0  0  0  0  0  0  0  0  0  0
  126.6020  124.6960   59.3460 C   0  0  0  0  0  0  0  0  0  0  0  0
  125.7230  125.3210   59.9370 O   0  0  0  0  0  0  0  0  0  0  0  0
  127.2140  127.1280   61.7490 C   0  0  0  0  0  0  0  0  0  0  0  0
  126.9850  128.4970   61.8510 C   0  0  0  0  0  0  0  0  0  0  0  0
  129.3130  132.1670   59.3690 N   0  0  0  0  0  0  0  0  0  0  0  0
  129.5140  132.0830   58.0230 C   0  0  0  0  0  0  0  0  0  0  0  0
  128.7060  132.3390   57.1290 O   0  0  0  0  0  0  0  0  0  0  0  0
  130.9140  131.6190   57.8620 C   0  0  0  0  0  0  0  0  0  0  0  0
  131.6620  131.3540   56.7140 C   0  0  0  0  0  0  0  0  0  0  0  0
  132.9860  130.9230   56.8620 C   0  0  0  0  0  0  0  0  0  0  0  0
  133.5380  130.7640   58.1390 C   0  0  0  0  0  0  0  0  0  0  0  0
  132.7720  131.0350   59.2780 C   0  0  0  0  0  0  0  0  0  0  0  0
  131.4540  131.4630   59.1100 C   0  0  0  0  0  0  0  0  0  0  0  0
  130.4140  131.8240   60.1050 C   0  0  0  0  0  0  0  0  0  0  0  0
  130.5220  131.8200   61.3320 O   0  0  0  0  0  0  0  0  0  0  0  0
  2  1  1  1
  2  3  1  0
  3  4  2  0
  3  5  1  0
  5  6  1  0
  6  7  2  0
  7  8  1  0
  8  9  2  0
 10  9  1  6
 10 11  1  0
 11 12  2  0
 12 13  1  0
 13 14  1  0
 14 15  1  0
 15 16  1  0
 16 17  2  0
 16 18  1  0
 18 19  1  0
 18 20  1  0
 20 21  2  0
 20 22  1  0
 12 23  1  0
 23 24  2  0
 24 25  1  0
 25 26  2  0
 26 27  1  0
 27 28  2  0
 28 29  1  0
 29 30  2  0
  9 31  1  0
 31 32  2  0
  2 33  1  0
 33 34  1  0
 34 35  2  0
 34 36  1  0
 36 37  2  0
 37 38  1  0
 38 39  2  0
 39 40  1  0
 40 41  2  0
 41 42  1  0
 42 43  2  0
 32  6  1  0
 42 33  1  0
 22 10  1  0
 28 23  1  0
 41 36  1  0
 29 11  1  0
 22 14  2  0
M  END
>  <Binding energies>  (76) 
[-10.7]

>  <Ligand effiencies>  (76) 
[-0.23777777777777775]

>  <Interactions>  (76) 
["V-B:GLU:543:CD:9877, V-A:PRO:540:CA:4880, V-A:ASN:362:C:3168, V-A:PRO:540:CB:4882, V-A:LEU:363:CD1:3185, V-A:ASP:366:CG:3209, V-A:TYR:539:C:4864, V-A:PRO:540:N:4881, V-A:LEU:363:CA:3181, H-A:ALA:541:N:4888, V-A:ALA:541:CB:4889, V-A:PRO:540:C:4878, V-B:TYR:539:CD1:9842, V-B:ILE:538:CB:9831, V-B:LEU:363:CD1:8157, V-B:PRO:540:CB:9854, V-B:ILE:538:CG2:9832, V-B:TYR:539:CE1:9844, V-B:TYR:539:CZ:9846, V-B:TYR:539:CE2:9845, H-B:TYR:539:OH:9847, V-A:TYR:531:CZ:4791, V-A:ARG:545:CZ:4923, V-A:LEU:363:CB:3183, V-B:ILE:538:CA:9829"]

$$$$
RR25_Rahimova_2017
     RDKit          3D

 39 44  0  0  0  0  0  0  0  0999 V2000
  128.0620  126.2100   62.3630 O   0  0  0  0  0  0  0  0  0  0  0  0
  128.9550  126.1920   63.2100 C   0  0  0  0  0  0  0  0  0  0  0  0
  129.7570  125.0780   63.2230 O   0  0  0  0  0  0  0  0  0  0  0  0
  130.9350  125.0440   63.9480 C   0  0  0  0  0  0  0  0  0  0  0  0
  131.9230  124.1690   63.4980 C   0  0  0  0  0  0  0  0  0  0  0  0
  133.1310  124.0780   64.1860 C   0  0  0  0  0  0  0  0  0  0  0  0
  133.3670  124.8540   65.3300 C   0  0  0  0  0  0  0  0  0  0  0  0
  134.6580  124.7610   66.0560 N   0  0  0  0  0  0  0  0  0  0  0  0
  135.6070  125.4300   65.6540 O   0  0  0  0  0  0  0  0  0  0  0  0
  134.7320  124.0190   67.0300 O   0  0  0  0  0  0  0  0  0  0  0  0
  132.3540  125.7200   65.7730 C   0  0  0  0  0  0  0  0  0  0  0  0
  131.1340  125.8180   65.1000 C   0  0  0  0  0  0  0  0  0  0  0  0
  130.0130  126.7450   65.5330 C   0  0  0  0  0  0  0  0  0  0  0  0
  129.2630  127.2810   64.2800 C   0  0  2  0  0  0  0  0  0  0  0  0
  128.0450  128.1580   64.6880 C   0  0  0  0  0  0  0  0  0  0  0  0
  127.7150  128.1100   65.8760 O   0  0  0  0  0  0  0  0  0  0  0  0
  127.4510  129.0290   63.8170 N   0  0  0  0  0  0  0  0  0  0  0  0
  127.5850  128.9110   62.3500 C   0  0  0  0  0  0  0  0  0  0  0  0
  127.6610  130.3250   61.7370 C   0  0  0  0  0  0  0  0  0  0  0  0
  126.5150  131.1450   62.1390 N   0  0  0  0  0  0  0  0  0  0  0  0
  126.5150  132.4440   61.4520 C   0  0  0  0  0  0  0  0  0  0  0  0
  127.9360  133.0530   61.3160 C   0  0  0  0  0  0  0  0  0  0  0  0
  128.7460  132.5750   60.1580 N   0  0  0  0  0  0  0  0  0  0  0  0
  128.1030  132.6040   58.9380 C   0  0  0  0  0  0  0  0  0  0  0  0
  126.9280  132.9610   58.8010 O   0  0  0  0  0  0  0  0  0  0  0  0
  128.9610  132.1780   57.7620 C   0  0  0  0  0  0  0  0  0  0  0  0
  128.4160  132.1940   56.4720 C   0  0  0  0  0  0  0  0  0  0  0  0
  129.1780  131.8170   55.3670 C   0  0  0  0  0  0  0  0  0  0  0  0
  130.5050  131.4170   55.5150 C   0  0  0  0  0  0  0  0  0  0  0  0
  131.0990  131.3840   56.8000 C   0  0  0  0  0  0  0  0  0  0  0  0
  132.4390  130.9900   57.0220 C   0  0  0  0  0  0  0  0  0  0  0  0
  132.9630  130.9840   58.3140 C   0  0  0  0  0  0  0  0  0  0  0  0
  132.1820  131.3630   59.4040 C   0  0  0  0  0  0  0  0  0  0  0  0
  130.8500  131.7600   59.2320 C   0  0  0  0  0  0  0  0  0  0  0  0
  130.3100  131.7700   57.9200 C   0  0  0  0  0  0  0  0  0  0  0  0
  130.0350  132.1730   60.4430 C   0  0  0  0  0  0  0  0  0  0  0  0
  130.5060  132.1610   61.5850 O   0  0  0  0  0  0  0  0  0  0  0  0
  126.5020  131.3030   63.5940 C   0  0  0  0  0  0  0  0  0  0  0  0
  126.3930  129.9380   64.3160 C   0  0  0  0  0  0  0  0  0  0  0  0
  1  2  2  0
  2  3  1  0
  3  4  1  0
  4  5  2  0
  5  6  1  0
  6  7  2  0
  7  8  1  0
  8  9  2  0
  8 10  1  0
  7 11  1  0
 11 12  2  0
 12 13  1  0
 13 14  1  0
 14 15  1  1
 15 16  2  0
 15 17  1  0
 17 18  1  0
 18 19  1  0
 19 20  1  0
 20 21  1  0
 21 22  1  0
 22 23  1  0
 23 24  1  0
 24 25  2  0
 24 26  1  0
 26 27  2  0
 27 28  1  0
 28 29  2  0
 29 30  1  0
 30 31  2  0
 31 32  1  0
 32 33  2  0
 33 34  1  0
 34 35  2  0
 34 36  1  0
 36 37  2  0
 20 38  1  0
 38 39  1  0
 14  2  1  0
 39 17  1  0
 12  4  1  0
 36 23  1  0
 35 26  1  0
 35 30  1  0
M  CHG  2   8   1  10  -1
M  END
>  <Binding energies>  (77) 
[-10.52]

>  <Ligand effiencies>  (77) 
[-0.26974358974358975]

>  <Interactions>  (77) 
["V-B:GLU:543:CD:9877, V-A:GLU:543:CD:4905, V-A:HIS:456:CE1:4066, V-A:TYR:539:CE2:4873, V-A:PRO:540:CA:4880, V-A:PRO:540:CB:4882, V-A:TYR:539:CD2:4871, V-A:LEU:363:CD1:3185, V-A:ILE:538:CD1:4862, V-A:TYR:539:CZ:4874, V-A:TYR:539:C:4864, V-A:PRO:540:N:4881, V-A:LEU:363:CA:3181, H-A:ALA:541:N:4888, V-A:ALA:541:CB:4889, V-A:PRO:540:C:4878, V-A:GLY:454:CA:4045, V-A:ARG:545:CG:4919, H-A:GLY:454:N:4046, V-A:ARG:545:CZ:4923, V-A:ARG:545:CD:4920, H-A:TYR:484:OH:4344, V-A:GLY:454:C:4043, V-A:GLY:453:C:4038, V-A:GLY:453:CA:4040, H-A:ARG:545:NE:4921, H-A:HIS:456:ND1:4063, H-A:ARG:545:NH1:4924, H-A:GLY:453:N:4041, H-A:ILE:455:N:4051"]

$$$$
RR27_Rahimova_2017
     RDKit          3D

 39 44  0  0  0  0  0  0  0  0999 V2000
  128.1090  123.3740   57.1700 O   0  0  0  0  0  0  0  0  0  0  0  0
  128.6830  124.0600   58.0210 C   0  0  0  0  0  0  0  0  0  0  0  0
  128.1130  124.0680   59.4700 C   0  0  0  0  0  0  0  0  0  0  0  0
  128.8030  123.0490   60.3970 C   0  0  0  0  0  0  0  0  0  0  0  0
  128.7230  121.6670   60.1680 C   0  0  0  0  0  0  0  0  0  0  0  0
  129.3610  120.7740   61.0240 C   0  0  0  0  0  0  0  0  0  0  0  0
  130.0810  121.2580   62.1130 C   0  0  0  0  0  0  0  0  0  0  0  0
  130.1670  122.6260   62.3540 C   0  0  0  0  0  0  0  0  0  0  0  0
  129.5290  123.5190   61.4980 C   0  0  0  0  0  0  0  0  0  0  0  0
  126.5740  124.0150   59.4790 C   0  0  0  0  0  0  0  0  0  0  0  0
  125.8140  124.4540   58.3870 C   0  0  0  0  0  0  0  0  0  0  0  0
  124.4230  124.4030   58.4330 C   0  0  0  0  0  0  0  0  0  0  0  0
  123.7870  123.9180   59.5720 C   0  0  0  0  0  0  0  0  0  0  0  0
  124.5290  123.4880   60.6690 C   0  0  0  0  0  0  0  0  0  0  0  0
  125.9180  123.5410   60.6230 C   0  0  0  0  0  0  0  0  0  0  0  0
  129.8700  124.6780   57.7600 N   0  0  0  0  0  0  0  0  0  0  0  0
  130.4620  125.6990   58.6360 C   0  0  0  0  0  0  0  0  0  0  0  0
  129.8750  127.0590   58.1980 C   0  0  0  0  0  0  0  0  0  0  0  0
  130.0920  127.3500   56.6790 C   0  0  0  0  0  0  0  0  0  0  0  0
  129.4280  128.6410   56.1670 C   0  0  0  0  0  0  0  0  0  0  0  0
  128.1710  128.5130   55.6500 N   0  0  0  0  0  0  0  0  0  0  0  0
  127.5270  129.6290   55.2080 C   0  0  0  0  0  0  0  0  0  0  0  0
  126.2650  129.6290   54.6750 O   0  0  0  0  0  0  0  0  0  0  0  0
  128.1870  130.8700   55.3000 C   0  0  0  0  0  0  0  0  0  0  0  0
  127.8410  132.1470   54.9660 N   0  0  0  0  0  0  0  0  0  0  0  0
  128.9120  132.9600   55.2850 N   0  0  0  0  0  0  0  0  0  0  0  0
  129.8940  132.1990   55.8140 N   0  0  0  0  0  0  0  0  0  0  0  0
  131.1610  132.8020   56.2210 C   0  0  0  0  0  0  0  0  0  0  0  0
  132.0310  131.8840   57.0690 C   0  0  0  0  0  0  0  0  0  0  0  0
  133.0520  131.1340   56.4750 C   0  0  0  0  0  0  0  0  0  0  0  0
  133.8560  130.3020   57.2550 C   0  0  0  0  0  0  0  0  0  0  0  0
  133.6480  130.2180   58.6310 C   0  0  0  0  0  0  0  0  0  0  0  0
  132.6380  130.9710   59.2310 C   0  0  0  0  0  0  0  0  0  0  0  0
  132.3960  130.8900   60.9390 Cl  0  0  0  0  0  0  0  0  0  0  0  0
  131.8290  131.7970   58.4510 C   0  0  0  0  0  0  0  0  0  0  0  0
  129.4900  130.8750   55.8420 C   0  0  0  0  0  0  0  0  0  0  0  0
  130.1470  129.7950   56.2750 N   0  0  0  0  0  0  0  0  0  0  0  0
  129.7800  126.1020   55.7970 C   0  0  0  0  0  0  0  0  0  0  0  0
  130.3580  124.7860   56.3760 C   0  0  0  0  0  0  0  0  0  0  0  0
  1  2  2  0
  2  3  1  0
  3  4  1  0
  4  5  2  0
  5  6  1  0
  6  7  2  0
  7  8  1  0
  8  9  2  0
  3 10  1  0
 10 11  2  0
 11 12  1  0
 12 13  2  0
 13 14  1  0
 14 15  2  0
  2 16  1  0
 16 17  1  0
 17 18  1  0
 18 19  1  0
 19 20  1  0
 20 21  2  0
 21 22  1  0
 22 23  1  0
 22 24  2  0
 24 25  1  0
 25 26  2  0
 26 27  1  0
 27 28  1  0
 28 29  1  0
 29 30  2  0
 30 31  1  0
 31 32  2  0
 32 33  1  0
 33 34  1  0
 33 35  2  0
 27 36  1  0
 36 37  2  0
 19 38  1  0
 38 39  1  0
  9  4  1  0
 15 10  1  0
 39 16  1  0
 37 20  1  0
 36 24  1  0
 35 29  1  0
M  END
>  <Binding energies>  (78) 
[-11.18]

>  <Ligand effiencies>  (78) 
[-0.27949999999999997]

>  <Interactions>  (78) 
["V-A:GLU:543:CD:4905, V-A:ILE:538:CG2:4860, V-A:PRO:540:CA:4880, V-A:ASN:362:C:3168, V-A:PRO:540:CB:4882, H-A:TYR:539:OH:4875, V-A:LEU:363:CD1:3185, V-A:ILE:538:CD1:4862, V-A:ASP:366:CG:3209, H-A:TYR:539:N:4867, V-A:ASN:362:CB:3172, V-A:PRO:540:CD:4884, V-A:TYR:539:C:4864, V-A:PRO:540:N:4881, V-A:LEU:363:CA:3181, V-A:TYR:539:CA:4866, V-B:ASN:362:C:8140, V-B:LEU:363:CD1:8157, V-B:MET:535:CE:9804, V-B:ASN:362:CB:8144, V-B:PRO:540:CB:9854, V-B:PRO:540:CA:9852, V-B:TYR:539:CE1:9844, V-B:TYR:539:CZ:9846, V-B:TYR:539:CE2:9845, V-B:LEU:363:CA:8153, V-B:TYR:539:C:9836, V-B:ALA:541:CB:9861, V-A:LEU:475:CD1:4254, V-B:TYR:539:CD2:9843, V-A:ASP:366:CB:3208, H-A:TYR:531:OH:4792, V-A:TYR:531:CE2:4790, V-A:TYR:531:CZ:4791, H-B:TYR:531:OH:9764, V-A:LEU:363:C:3179, V-A:LEU:363:CB:3183"]

$$$$
RR28_Rahimova_2017
     RDKit          3D

 46 49  0  0  0  0  0  0  0  0999 V2000
  127.6780  136.1360   61.0130 C   0  0  0  0  0  0  0  0  0  0  0  0
  127.2860  134.6800   60.7930 C   0  0  0  0  0  0  0  0  0  0  0  0
  126.0990  134.3590   60.8240 O   0  0  0  0  0  0  0  0  0  0  0  0
  128.2970  133.8150   60.5710 N   0  0  0  0  0  0  0  0  0  0  0  0
  128.2200  132.3560   60.3350 C   0  0  0  0  0  0  0  0  0  0  0  0
  127.1770  131.7580   61.3230 C   0  0  0  0  0  0  0  0  0  0  0  0
  127.4860  131.6850   62.6890 C   0  0  0  0  0  0  0  0  0  0  0  0
  126.5800  131.1530   63.6010 C   0  0  0  0  0  0  0  0  0  0  0  0
  125.3410  130.6790   63.1660 C   0  0  0  0  0  0  0  0  0  0  0  0
  124.3590  130.0940   64.1800 C   0  0  0  0  0  0  0  0  0  0  0  0
  124.2040  130.8810   65.2470 F   0  0  0  0  0  0  0  0  0  0  0  0
  123.1630  129.9200   63.6200 F   0  0  0  0  0  0  0  0  0  0  0  0
  124.8140  128.9120   64.5980 F   0  0  0  0  0  0  0  0  0  0  0  0
  125.0200  130.7450   61.8070 C   0  0  0  0  0  0  0  0  0  0  0  0
  125.9290  131.2780   60.8960 C   0  0  0  0  0  0  0  0  0  0  0  0
  129.6440  131.7040   60.4490 C   0  0  0  0  0  0  0  0  0  0  0  0
  130.6220  132.1680   59.3400 C   0  0  0  0  0  0  0  0  0  0  0  0
  129.9970  131.8100   58.0570 N   0  0  0  0  0  0  0  0  0  0  0  0
  130.2960  130.6270   57.4530 C   0  0  0  0  0  0  0  0  0  0  0  0
  131.2070  129.8990   57.8550 O   0  0  0  0  0  0  0  0  0  0  0  0
  129.5840  130.2620   56.1280 C   0  0  0  0  0  0  0  0  0  0  0  0
  128.7150  128.9750   56.1570 C   0  0  0  0  0  0  0  0  0  0  0  0
  129.4630  127.6700   55.7960 C   0  0  0  0  0  0  0  0  0  0  0  0
  129.7940  127.4990   54.6190 O   0  0  0  0  0  0  0  0  0  0  0  0
  129.8560  126.8200   56.7860 N   0  0  0  0  0  0  0  0  0  0  0  0
  129.2430  126.7960   58.1200 C   0  0  0  0  0  0  0  0  0  0  0  0
  128.0040  125.8800   58.0190 C   0  0  0  0  0  0  0  0  0  0  0  0
  128.3010  124.4280   57.5070 C   0  0  0  0  0  0  0  0  0  0  0  0
  127.0350  123.7970   57.0770 N   0  0  0  0  0  0  0  0  0  0  0  0
  126.8710  122.6790   56.3410 C   0  0  0  0  0  0  0  0  0  0  0  0
  125.4320  122.2770   56.0350 C   0  0  0  0  0  0  0  0  0  0  0  0
  127.7990  121.9910   55.9170 O   0  0  0  0  0  0  0  0  0  0  0  0
  128.8480  123.6070   58.7200 C   0  0  0  0  0  0  0  0  0  0  0  0
  130.0320  123.9450   59.3960 C   0  0  0  0  0  0  0  0  0  0  0  0
  130.4850  123.1870   60.4730 C   0  0  0  0  0  0  0  0  0  0  0  0
  129.7660  122.0690   60.9000 C   0  0  0  0  0  0  0  0  0  0  0  0
  130.2470  121.2300   62.0830 C   0  0  0  0  0  0  0  0  0  0  0  0
  131.5790  121.1450   62.0890 F   0  0  0  0  0  0  0  0  0  0  0  0
  129.8520  121.8070   63.2180 F   0  0  0  0  0  0  0  0  0  0  0  0
  129.7570  119.9890   62.0520 F   0  0  0  0  0  0  0  0  0  0  0  0
  128.5910  121.7160   60.2340 C   0  0  0  0  0  0  0  0  0  0  0  0
  128.1420  122.4750   59.1580 C   0  0  0  0  0  0  0  0  0  0  0  0
  129.3160  124.5050   56.3010 C   0  0  0  0  0  0  0  0  0  0  0  0
  130.4720  125.5300   56.4490 C   0  0  0  0  0  0  0  0  0  0  0  0
  128.7520  132.5430   57.7900 C   0  0  0  0  0  0  0  0  0  0  0  0
  127.7280  132.1090   58.8710 C   0  0  0  0  0  0  0  0  0  0  0  0
  1  2  1  0
  2  3  2  0
  2  4  1  0
  4  5  1  0
  5  6  1  0
  6  7  2  0
  7  8  1  0
  8  9  2  0
  9 10  1  0
 10 11  1  0
 10 12  1  0
 10 13  1  0
  9 14  1  0
 14 15  2  0
  5 16  1  0
 16 17  1  0
 17 18  1  0
 18 19  1  0
 19 20  2  0
 19 21  1  0
 21 22  1  0
 22 23  1  0
 23 24  2  0
 23 25  1  0
 25 26  1  0
 26 27  1  0
 27 28  1  0
 28 29  1  0
 29 30  1  0
 30 31  1  0
 30 32  2  0
 28 33  1  0
 33 34  2  0
 34 35  1  0
 35 36  2  0
 36 37  1  0
 37 38  1  0
 37 39  1  0
 37 40  1  0
 36 41  1  0
 41 42  2  0
 28 43  1  0
 43 44  1  0
 18 45  1  0
 45 46  1  0
 46  5  1  0
 15  6  1  0
 44 25  1  0
 42 33  1  0
M  END
>  <Binding energies>  (79) 
[-9.9]

>  <Ligand effiencies>  (79) 
[-0.20625000000000002]

>  <Interactions>  (79) 
["V-B:ARG:545:CZ:9895, V-B:TYR:484:CZ:9315, V-B:GLY:454:CA:9017, V-B:ARG:545:CD:9892, V-B:GLY:453:C:9010, V-B:GLY:453:CA:9012, V-A:TYR:539:CE2:4873, V-A:PRO:540:CA:4880, V-A:PRO:540:CB:4882, V-A:TYR:539:CD2:4871, V-A:TYR:539:C:4864, V-A:PRO:540:N:4881, H-A:TYR:539:O:4865, V-B:LEU:475:CD2:9227, V-A:ALA:541:CB:4889, V-B:TRP:381:CH2:8340, V-A:PRO:540:C:4878, V-B:ILE:538:CB:9831, V-B:PRO:540:N:9853, V-B:LEU:363:CD1:8157, V-B:MET:535:CE:9804, V-B:PRO:540:CD:9856, H-B:TYR:539:N:9839, V-B:PRO:540:CB:9854, V-B:ILE:538:CG2:9832, V-B:PRO:540:CA:9852, V-B:TYR:539:CE1:9844, V-B:TYR:539:CZ:9846, V-B:TYR:539:CE2:9845, V-B:TYR:539:C:9836, V-B:PRO:540:CG:9855, V-B:ALA:541:CA:9859, V-B:ALA:541:CB:9861, V-A:LEU:475:CD1:4254, V-B:TYR:539:CD2:9843, H-A:TYR:531:OH:4792, V-B:ASP:366:CG:8181, V-A:LEU:475:CD2:4255, V-B:TRP:381:CZ2:8338, V-B:PRO:482:CB:9294, V-A:PRO:482:CG:4323, V-A:PRO:482:CB:4322, V-B:PRO:482:CG:9295, V-B:GLY:454:C:9015"]

$$$$
RR29_Rahimova_2017
     RDKit          3D

 18 19  0  0  0  0  0  0  0  0999 V2000
  129.7160  124.7480   65.2890 C   0  0  0  0  0  0  0  0  0  0  0  0
  129.5400  126.1980   64.8610 C   0  0  0  0  0  0  0  0  0  0  0  0
  129.6990  127.1960   66.0290 C   0  0  0  0  0  0  0  0  0  0  0  0
  128.5080  127.1230   67.0080 C   0  0  0  0  0  0  0  0  0  0  0  0
  128.9500  127.1990   68.4610 C   0  0  0  0  0  0  0  0  0  0  0  0
  130.1240  127.8980   68.8040 C   0  0  0  0  0  0  0  0  0  0  0  0
  130.5490  127.9820   70.1380 C   0  0  0  0  0  0  0  0  0  0  0  0
  129.7770  127.3400   71.0990 C   0  0  0  0  0  0  0  0  0  0  0  0
  128.6390  126.6580   70.7720 C   0  0  0  0  0  0  0  0  0  0  0  0
  128.1880  126.5680   69.4600 C   0  0  0  0  0  0  0  0  0  0  0  0
  128.0710  126.1630   71.9040 O   0  0  0  0  0  0  0  0  0  0  0  0
  129.0090  126.3780   72.9240 C   0  0  0  0  0  0  0  0  0  0  0  0
  129.9570  127.2950   72.4460 O   0  0  0  0  0  0  0  0  0  0  0  0
  129.2780  126.4470   63.6310 N   0  0  0  0  0  0  0  0  0  0  0  0
  129.0340  127.7510   63.2580 N   0  0  0  0  0  0  0  0  0  0  0  0
  127.9460  128.1460   62.5760 C   0  0  0  0  0  0  0  0  0  0  0  0
  126.9560  127.3410   62.1880 N   0  0  0  0  0  0  0  0  0  0  0  0
  127.8470  129.4300   62.2650 N   0  0  0  0  0  0  0  0  0  0  0  0
  1  2  1  0
  2  3  1  0
  3  4  1  0
  4  5  1  0
  5  6  2  0
  6  7  1  0
  7  8  2  0
  8  9  1  0
  9 10  2  0
  9 11  1  0
 11 12  1  0
 12 13  1  0
  2 14  2  0
 14 15  1  0
 15 16  1  0
 16 17  1  0
 16 18  2  0
 10  5  1  0
 13  8  1  0
M  CHG  1  18   1
M  END
>  <Binding energies>  (80) 
[-7.06]

>  <Ligand effiencies>  (80) 
[-0.3069565217391304]

>  <Interactions>  (80) 
["V-B:GLU:543:CG:9876, V-B:HIS:456:CE1:9038, V-B:GLU:543:CD:9877, H-B:GLU:543:OE1:9878, V-A:GLU:543:CD:4905, V-B:GLU:543:CB:9875, H-B:GLU:543:OE2:9879, V-A:GLU:543:CB:4903, V-A:HIS:456:CE1:4066, H-A:GLU:543:OE2:4907, H-B:ASP:366:OD1:8182, V-A:GLU:543:C:4899, V-B:LYS:547:CE:9919, V-B:HIS:456:CD2:9036, H-A:LYS:547:NZ:4948, H-A:GLU:543:OE1:4906, V-A:HIS:456:CD2:4064, V-A:GLY:544:C:4909"]

$$$$
RR30_Rahimova_2017
     RDKit          3D

 18 19  0  0  0  0  0  0  0  0999 V2000
  129.4050  121.5930   60.9960 C   0  0  0  0  0  0  0  0  0  0  0  0
  128.7530  122.1990   59.7450 C   0  0  0  0  0  0  0  0  0  0  0  0
  127.6540  123.1800   60.0900 C   0  0  0  0  0  0  0  0  0  0  0  0
  127.7570  124.4670   60.3110 N   0  0  0  0  0  0  0  0  0  0  0  0
  126.4680  124.9110   60.5950 N   0  0  0  0  0  0  0  0  0  0  0  0
  125.7000  123.8540   60.5310 C   0  0  0  0  0  0  0  0  0  0  0  0
  123.9550  123.7750   60.7810 S   0  0  0  0  0  0  0  0  0  0  0  0
  123.3820  124.5200   59.2210 C   0  0  0  0  0  0  0  0  0  0  0  0
  124.4240  124.4000   58.1060 C   0  0  0  0  0  0  0  0  0  0  0  0
  124.5990  125.3500   57.3400 O   0  0  0  0  0  0  0  0  0  0  0  0
  125.0670  123.2130   58.0240 N   0  0  0  0  0  0  0  0  0  0  0  0
  126.0440  122.8680   57.1010 C   0  0  0  0  0  0  0  0  0  0  0  0
  126.2860  121.6880   56.5750 N   0  0  0  0  0  0  0  0  0  0  0  0
  127.3490  121.7160   55.6820 N   0  0  0  0  0  0  0  0  0  0  0  0
  127.8870  122.9070   55.5490 C   0  0  0  0  0  0  0  0  0  0  0  0
  129.0580  123.1900   54.6370 C   0  0  0  0  0  0  0  0  0  0  0  0
  127.1080  124.1160   56.5330 S   0  0  0  0  0  0  0  0  0  0  0  0
  126.3820  122.7240   60.2110 O   0  0  0  0  0  0  0  0  0  0  0  0
  1  2  1  0
  2  3  1  0
  3  4  2  0
  4  5  1  0
  5  6  2  0
  6  7  1  0
  7  8  1  0
  8  9  1  0
  9 10  2  0
  9 11  1  0
 11 12  1  0
 12 13  2  0
 13 14  1  0
 14 15  2  0
 15 16  1  0
 15 17  1  0
  6 18  1  0
 18  3  1  0
 17 12  1  0
M  END
>  <Binding energies>  (81) 
[-6.73]

>  <Ligand effiencies>  (81) 
[-0.3542105263157895]

>  <Interactions>  (81) 
["V-B:ASN:362:C:8140, V-B:TYR:539:CD1:9842, V-B:PRO:540:N:9853, H-B:ALA:541:N:9860, V-B:LEU:363:CD1:8157, V-B:MET:535:CE:9804, V-B:PRO:540:CD:9856, H-B:TYR:539:N:9839, V-B:PRO:540:CB:9854, V-B:PRO:540:CA:9852, V-B:TYR:539:CE1:9844, V-B:TYR:539:CZ:9846, V-B:TYR:539:CE2:9845, V-B:LEU:363:CB:8155, V-B:LEU:363:CA:8153, V-B:ASP:366:CB:8180, V-B:ALA:541:CB:9861, V-B:TYR:539:CD2:9843, H-B:ARG:545:NH2:9897, H-B:TYR:531:OH:9764, H-B:LEU:363:N:8154"]

$$$$
RR31_Rahimova_2017
     RDKit          3D

 18 19  0  0  0  0  0  0  0  0999 V2000
  128.1030  127.0830   71.9040 C   0  0  0  0  0  0  0  0  0  0  0  0
  128.4950  126.9620   70.4370 C   0  0  0  0  0  0  0  0  0  0  0  0
  127.5990  126.3830   69.5380 C   0  0  0  0  0  0  0  0  0  0  0  0
  127.9260  126.2620   68.1900 C   0  0  0  0  0  0  0  0  0  0  0  0
  129.1570  126.7230   67.6970 C   0  0  0  0  0  0  0  0  0  0  0  0
  129.5040  126.5990   66.3500 N   0  0  0  0  0  0  0  0  0  0  0  0
  128.9970  127.5300   65.3230 C   0  0  0  0  0  0  0  0  0  0  0  0
  129.1410  127.0090   63.8730 C   0  0  0  0  0  0  0  0  0  0  0  0
  130.5340  126.6640   63.5770 N   0  0  0  0  0  0  0  0  0  0  0  0
  130.7080  126.2000   62.1970 C   0  0  0  0  0  0  0  0  0  0  0  0
  129.5830  126.6730   61.2550 C   0  0  0  0  0  0  0  0  0  0  0  0
  129.9310  127.9930   60.5480 C   0  0  0  0  0  0  0  0  0  0  0  0
  130.9410  128.7850   61.3860 N   0  0  0  0  0  0  0  0  0  0  0  0
  130.9290  125.6060   64.5060 C   0  0  0  0  0  0  0  0  0  0  0  0
  130.8400  126.0980   65.9680 C   0  0  0  0  0  0  0  0  0  0  0  0
  130.0530  127.2950   68.6130 C   0  0  0  0  0  0  0  0  0  0  0  0
  129.7360  127.4220   69.9700 C   0  0  0  0  0  0  0  0  0  0  0  0
  130.7550  128.0500   70.9140 C   0  0  0  0  0  0  0  0  0  0  0  0
  1  2  1  0
  2  3  2  0
  3  4  1  0
  4  5  2  0
  5  6  1  0
  6  7  1  0
  7  8  1  0
  8  9  1  0
  9 10  1  0
 10 11  1  0
 11 12  1  0
 12 13  1  0
  9 14  1  0
 14 15  1  0
  5 16  1  0
 16 17  2  0
 17 18  1  0
 17  2  1  0
 15  6  1  0
M  CHG  1  13   1
M  END
>  <Binding energies>  (82) 
[-6.62]

>  <Ligand effiencies>  (82) 
[-0.31523809523809526]

>  <Interactions>  (82) 
["V-B:GLY:544:C:9881, V-B:HIS:456:CE1:9038, V-B:GLU:543:CD:9877, V-A:GLU:543:CD:4905, V-B:GLU:543:CB:9875, V-B:GLU:543:C:9871, V-A:HIS:456:CE1:4066, H-A:ARG:545:NH2:4925, H-A:GLU:543:OE2:4907, V-A:GLU:543:C:4899, V-B:LYS:547:CE:9919, V-B:HIS:456:CD2:9036, H-A:GLU:543:OE1:4906, V-A:HIS:456:CD2:4064, H-A:ASP:366:OD1:3210, V-A:GLY:544:C:4909"]

$$$$
RR32_Rahimova_2017
     RDKit          3D

 18 20  0  0  0  0  0  0  0  0999 V2000
  124.0510  124.1580   59.8090 C   0  0  0  0  0  0  0  0  0  0  0  0
  125.4130  123.5480   59.4920 C   0  0  0  0  0  0  0  0  0  0  0  0
  126.3020  123.3360   60.5460 C   0  0  0  0  0  0  0  0  0  0  0  0
  127.5520  122.7780   60.2960 C   0  0  0  0  0  0  0  0  0  0  0  0
  128.4310  122.5690   61.3450 N   0  0  0  0  0  0  0  0  0  0  0  0
  129.6960  121.8770   61.0380 C   0  0  0  0  0  0  0  0  0  0  0  0
  130.5240  121.5320   62.2980 C   0  0  0  0  0  0  0  0  0  0  0  0
  130.8290  122.7470   63.0520 N   0  0  0  0  0  0  0  0  0  0  0  0
  131.6360  122.4260   64.2230 C   0  0  0  0  0  0  0  0  0  0  0  0
  129.5630  123.3540   63.4600 C   0  0  0  0  0  0  0  0  0  0  0  0
  128.7190  123.7230   62.2180 C   0  0  0  0  0  0  0  0  0  0  0  0
  127.9600  122.4240   59.0500 N   0  0  0  0  0  0  0  0  0  0  0  0
  127.1160  122.6210   58.0000 C   0  0  0  0  0  0  0  0  0  0  0  0
  127.5680  122.2450   56.7120 C   0  0  0  0  0  0  0  0  0  0  0  0
  126.7490  122.4230   55.6030 C   0  0  0  0  0  0  0  0  0  0  0  0
  125.4790  122.9700   55.7450 C   0  0  0  0  0  0  0  0  0  0  0  0
  125.0040  123.3500   56.9970 C   0  0  0  0  0  0  0  0  0  0  0  0
  125.8090  123.1870   58.1620 C   0  0  0  0  0  0  0  0  0  0  0  0
  1  2  1  0
  2  3  2  0
  3  4  1  0
  4  5  1  0
  5  6  1  0
  6  7  1  0
  7  8  1  0
  8  9  1  0
  8 10  1  0
 10 11  1  0
  4 12  2  0
 12 13  1  0
 13 14  2  0
 14 15  1  0
 15 16  2  0
 16 17  1  0
 17 18  2  0
 18  2  1  0
 11  5  1  0
 18 13  1  0
M  END
>  <Binding energies>  (83) 
[-6.52]

>  <Ligand effiencies>  (83) 
[-0.3622222222222222]

>  <Interactions>  (83) 
["V-B:GLU:543:CG:9876, V-B:GLU:543:CD:9877, V-B:ASN:362:C:8140, V-B:TYR:539:CD1:9842, V-B:ILE:538:CB:9831, V-B:PRO:540:N:9853, V-B:LEU:363:CD1:8157, V-B:PRO:540:CB:9854, V-B:ILE:538:CG2:9832, V-B:PRO:540:CA:9852, V-B:TYR:539:CE1:9844, V-B:TYR:539:CE2:9845, V-B:LEU:363:CA:8153, V-B:TYR:539:C:9836, V-B:ALA:541:CB:9861, V-A:LEU:475:CD1:4254, V-B:TYR:539:CD2:9843, V-A:GLY:454:CA:4045, V-A:LEU:475:CD2:4255, V-A:TYR:484:CZ:4343, V-A:TYR:484:CE1:4341, V-B:TYR:539:CG:9841, V-B:ILE:538:CA:9829, V-A:LEU:475:CG:4253"]

$$$$
RR5_Rahimova_2017
     RDKit          3D

 45 50  0  0  0  0  0  0  0  0999 V2000
  127.8310  126.4570   56.8820 O   0  0  0  0  0  0  0  0  0  0  0  0
  128.4990  126.4100   57.9130 C   0  0  0  0  0  0  0  0  0  0  0  0
  129.3510  127.6250   58.3280 C   0  0  0  0  0  0  0  0  0  0  0  0
  130.6270  127.8430   57.4400 C   0  0  2  0  0  0  0  0  0  0  0  0
  130.6500  129.1090   56.6800 N   0  0  0  0  0  0  0  0  0  0  0  0
  129.5270  129.5760   56.0110 C   0  0  0  0  0  0  0  0  0  0  0  0
  128.4090  129.0560   55.9970 O   0  0  0  0  0  0  0  0  0  0  0  0
  129.8630  130.7010   55.3550 O   0  0  0  0  0  0  0  0  0  0  0  0
  129.2490  131.9500   55.6590 C   0  0  0  0  0  0  0  0  0  0  0  0
  129.7890  132.5170   56.9900 C   0  0  0  0  0  0  0  0  0  0  0  0
  128.9190  132.1890   58.1900 C   0  0  0  0  0  0  0  0  0  0  0  0
  127.5710  132.4840   58.4180 C   0  0  0  0  0  0  0  0  0  0  0  0
  126.9580  132.0610   59.5990 C   0  0  0  0  0  0  0  0  0  0  0  0
  127.6860  131.3460   60.5510 C   0  0  0  0  0  0  0  0  0  0  0  0
  129.0330  131.0530   60.3270 C   0  0  0  0  0  0  0  0  0  0  0  0
  129.6450  131.4780   59.1460 C   0  0  0  0  0  0  0  0  0  0  0  0
  131.0240  131.3200   58.6590 C   0  0  0  0  0  0  0  0  0  0  0  0
  132.1380  130.7040   59.2370 C   0  0  0  0  0  0  0  0  0  0  0  0
  133.3590  130.7150   58.5620 C   0  0  0  0  0  0  0  0  0  0  0  0
  133.4660  131.3340   57.3140 C   0  0  0  0  0  0  0  0  0  0  0  0
  132.3500  131.9440   56.7400 C   0  0  0  0  0  0  0  0  0  0  0  0
  131.1250  131.9340   57.4110 C   0  0  0  0  0  0  0  0  0  0  0  0
  130.8340  126.6510   56.4720 C   0  0  0  0  0  0  0  0  0  0  0  0
  131.4610  125.6450   56.7370 O   0  0  0  0  0  0  0  0  0  0  0  0
  130.1900  126.9000   55.2940 O   0  0  0  0  0  0  0  0  0  0  0  0
  128.5320  125.3590   58.7640 N   0  0  0  0  0  0  0  0  0  0  0  0
  127.8790  124.0160   58.7630 C   0  0  0  0  0  0  0  0  0  0  0  0
  128.0280  123.5810   57.2670 C   0  0  0  0  0  0  0  0  0  0  0  0
  129.1820  123.8860   56.5260 C   0  0  0  0  0  0  0  0  0  0  0  0
  129.3050  123.4930   55.1960 C   0  0  0  0  0  0  0  0  0  0  0  0
  128.2700  122.7960   54.5810 C   0  0  0  0  0  0  0  0  0  0  0  0
  127.1170  122.4800   55.2900 C   0  0  0  0  0  0  0  0  0  0  0  0
  127.0000  122.8640   56.6220 C   0  0  0  0  0  0  0  0  0  0  0  0
  128.6910  123.1010   59.7400 C   0  0  0  0  0  0  0  0  0  0  0  0
  129.8040  123.5830   60.4490 C   0  0  0  0  0  0  0  0  0  0  0  0
  130.5240  122.7450   61.2980 C   0  0  0  0  0  0  0  0  0  0  0  0
  130.1430  121.4160   61.4460 C   0  0  0  0  0  0  0  0  0  0  0  0
  129.0420  120.9170   60.7580 C   0  0  0  0  0  0  0  0  0  0  0  0
  128.3190  121.7570   59.9170 C   0  0  0  0  0  0  0  0  0  0  0  0
  126.3890  124.2560   59.1820 C   0  0  0  0  0  0  0  0  0  0  0  0
  125.8560  123.6570   60.3370 C   0  0  0  0  0  0  0  0  0  0  0  0
  124.5300  123.8600   60.7100 C   0  0  0  0  0  0  0  0  0  0  0  0
  123.7130  124.6750   59.9340 C   0  0  0  0  0  0  0  0  0  0  0  0
  124.2150  125.2920   58.7950 C   0  0  0  0  0  0  0  0  0  0  0  0
  125.5410  125.0860   58.4260 C   0  0  0  0  0  0  0  0  0  0  0  0
  1  2  2  0
  2  3  1  0
  4  3  1  6
  4  5  1  0
  5  6  1  0
  6  7  2  0
  6  8  1  0
  8  9  1  0
  9 10  1  0
 10 11  1  0
 11 12  2  0
 12 13  1  0
 13 14  2  0
 14 15  1  0
 15 16  2  0
 16 17  1  0
 17 18  2  0
 18 19  1  0
 19 20  2  0
 20 21  1  0
 21 22  2  0
  4 23  1  0
 23 24  2  0
 23 25  1  0
  2 26  1  0
 26 27  1  0
 27 28  1  0
 28 29  2  0
 29 30  1  0
 30 31  2  0
 31 32  1  0
 32 33  2  0
 27 34  1  0
 34 35  2  0
 35 36  1  0
 36 37  2  0
 37 38  1  0
 38 39  2  0
 27 40  1  0
 40 41  2  0
 41 42  1  0
 42 43  2  0
 43 44  1  0
 44 45  2  0
 22 10  1  0
 33 28  1  0
 39 34  1  0
 45 40  1  0
 16 11  1  0
 22 17  1  0
M  END
>  <Binding energies>  (84) 
[-10.77]

>  <Ligand effiencies>  (84) 
[-0.224375]

>  <Interactions>  (84) 
["V-A:TYR:539:CE2:4873, V-A:PRO:540:CA:4880, V-A:ASN:362:C:3168, V-A:PRO:540:CB:4882, V-A:TYR:539:CD2:4871, V-A:LEU:363:CD1:3185, V-A:ILE:538:CD1:4862, V-A:ASP:366:CG:3209, V-A:PRO:540:CD:4884, V-A:TYR:539:C:4864, V-A:PRO:540:N:4881, V-A:LEU:363:CA:3181, V-B:ASN:362:C:8140, V-B:TYR:539:CD1:9842, V-B:PRO:540:C:9850, V-B:ILE:538:CB:9831, V-B:PRO:540:N:9853, V-B:MET:535:CE:9804, V-B:ASN:362:CB:8144, V-B:PRO:540:CB:9854, V-B:ILE:538:CG2:9832, V-B:PRO:540:CA:9852, V-B:TYR:539:CE1:9844, V-B:TYR:539:CZ:9846, V-B:TYR:539:CE2:9845, V-B:LEU:363:CA:8153, V-B:TYR:539:C:9836, V-B:ALA:541:CA:9859, V-B:ASP:366:CB:8180, V-B:ALA:541:CB:9861, V-A:LEU:475:CD1:4254, V-B:TYR:539:CD2:9843, H-A:TYR:531:OH:4792, H-B:TYR:539:OH:9847, V-B:ASP:366:CG:8181, V-A:LEU:363:CB:3183, V-B:ILE:538:CA:9829, V-A:LEU:363:CG:3184"]

$$$$
